#------------------------------------------------------------------------------
#$Date: 2019-12-26 21:25:46 +0200 (Thu, 26 Dec 2019) $
#$Revision: 246106 $
#$URL: file:///home/coder/svn-repositories/cod/cif/2/31/17/2311789.cif $
#------------------------------------------------------------------------------
#
# This file is available in the Crystallography Open Database (COD),
# http://www.crystallography.net/. The original data for this entry
# were provided by IUCr Journals, http://journals.iucr.org/.
#
# The file may be used within the scientific community so long as
# proper attribution is given to the journal article from which the
# data were obtained.
#
data_2311789
loop_
_publ_author_name
'Fils\/o, Mette \/O'
'Chaaban, Iman'
'Al Shehabi, Amer'
'Skibsted, J\/orgen'
'Lock, Nina'
_publ_section_title
;
 The structure-directing amine changes everything: structures and optical
 properties of two-dimensional thiostannates.
;
_journal_coeditor_code           AO5023SUP1
_journal_issue                   'Pt 5'
_journal_name_full
'Acta crystallographica Section B, Structural science, crystal engineering and materials'
_journal_page_first              931
_journal_page_last               940
_journal_paper_doi               10.1107/S2052520617010630
_journal_volume                  73
_journal_year                    2017
_chemical_formula_moiety         'S28 Sn12'
_chemical_formula_sum            'S28 Sn12'
_chemical_formula_weight         2322.20
_chemical_name_common            tren-SnS-1
_space_group_crystal_system      hexagonal
_space_group_IT_number           194
_space_group_name_Hall           '-P 6c 2c'
_space_group_name_H-M_alt        'P 63/m m c'
_atom_sites_solution_primary     direct
_atom_sites_solution_secondary   difmap
_audit_creation_method           SHELXL-2014/7
_cell_angle_alpha                90
_cell_angle_beta                 90
_cell_angle_gamma                120
_cell_formula_units_Z            1
_cell_length_a                   13.2748(4)
_cell_length_b                   13.2748(4)
_cell_length_c                   19.1521(7)
_cell_measurement_reflns_used    1297
_cell_measurement_temperature    298(2)
_cell_measurement_theta_max      26.546
_cell_measurement_theta_min      2.7665
_cell_volume                     2922.83(16)
_computing_cell_refinement       'APEX2 v2010.1-2 (Bruker AXS, 2005-2009)'
_computing_data_collection       'APEX2 v2010.1-2 (Bruker AXS, 2005-2009)'
_computing_data_reduction        'APEX2 v2010.1-2 (Bruker AXS, 2005-2009)'
_computing_molecular_graphics    'Ortep-3 for Windows (Farrugia, 1997)'
_computing_publication_material  'ShelXle (Huebschle, 2011)'
_computing_structure_refinement  'SHELXL-2014/7 (Sheldrick, 2014)'
_computing_structure_solution    'SHELXS-97 (Sheldrick, 2008)'
_diffrn_ambient_temperature      298(2)
_diffrn_detector_area_resol_mean 12.00
_diffrn_measured_fraction_theta_full 0.999
_diffrn_measured_fraction_theta_max 0.999
_diffrn_measurement_device_type  'APEX2 charged-coupled device'
_diffrn_measurement_method
; 
Narrow slices collected using \f- and \w-scans 
;
_diffrn_radiation_type           MoK\a
_diffrn_radiation_wavelength     0.71073
_diffrn_reflns_av_R_equivalents  0.0482
_diffrn_reflns_av_unetI/netI     0.0221
_diffrn_reflns_Laue_measured_fraction_full 0.999
_diffrn_reflns_Laue_measured_fraction_max 0.999
_diffrn_reflns_limit_h_max       17
_diffrn_reflns_limit_h_min       -16
_diffrn_reflns_limit_k_max       17
_diffrn_reflns_limit_k_min       -17
_diffrn_reflns_limit_l_max       24
_diffrn_reflns_limit_l_min       -22
_diffrn_reflns_number            20714
_diffrn_reflns_point_group_measured_fraction_full 0.999
_diffrn_reflns_point_group_measured_fraction_max 0.999
_diffrn_reflns_theta_full        25.242
_diffrn_reflns_theta_max         27.428
_diffrn_reflns_theta_min         1.771
_diffrn_source                   'fine-focus sealed tube'
_exptl_absorpt_coefficient_mu    3.018
_exptl_absorpt_correction_T_max  0.7685
_exptl_absorpt_correction_T_min  0.6569
_exptl_absorpt_correction_type   multi-scan
_exptl_absorpt_process_details
; 
SADABS (Sheldrick, 2004) 
;
_exptl_crystal_colour            'pale green'
_exptl_crystal_density_diffrn    1.319
_exptl_crystal_density_method    'not measured'
_exptl_crystal_description       plate
_exptl_crystal_F_000             1048
_exptl_crystal_recrystallization_method solvothermal
_exptl_crystal_size_max          0.14
_exptl_crystal_size_mid          0.12
_exptl_crystal_size_min          0.02
_refine_diff_density_max         1.539
_refine_diff_density_min         -1.160
_refine_diff_density_rms         0.319
_refine_ls_extinction_method     none
_refine_ls_goodness_of_fit_ref   1.149
_refine_ls_hydrogen_treatment    undef
_refine_ls_matrix_type           full
_refine_ls_number_parameters     22
_refine_ls_number_reflns         1297
_refine_ls_number_restraints     0
_refine_ls_restrained_S_all      1.149
_refine_ls_R_factor_all          0.0802
_refine_ls_R_factor_gt           0.0584
_refine_ls_shift/su_max          0.000
_refine_ls_shift/su_mean         0.000
_refine_ls_structure_factor_coef Fsqd
_refine_ls_weighting_details
'w=1/[\s^2^(Fo^2^)+(0.1418P)^2^+5.8926P] where P=(Fo^2^+2Fc^2^)/3'
_refine_ls_weighting_scheme      calc
_refine_ls_wR_factor_gt          0.2148
_refine_ls_wR_factor_ref         0.2266
_reflns_Friedel_coverage         0.000
_reflns_number_gt                959
_reflns_number_total             1297
_reflns_threshold_expression     'I > 4\s(I)'
_cod_data_source_file            ao5023sup1.cif
_cod_data_source_block           SnS_TAEA_300K
_cod_original_cell_volume        2922.8(2)
_cod_database_code               2311789
_shelx_shelxl_version_number     2014/7
_shelx_space_group_comment
;
The symmetry employed for this shelxl refinement is uniquely defined
by the following loop, which should always be used as a source of
symmetry information in preference to the above space-group names.
They are only intended as comments.
;
_shelx_res_file
;

   SnS_TAEA_300K.res created by SHELXL-2014/7


TITL SnS_TAEA_batch1_3_0m in P6(3)/mmc
CELL  0.71073  13.2748  13.2748  19.1521   90.000   90.000  120.000
ZERR     4.00   0.0004   0.0004   0.0007    0.000    0.000    0.000
LATT   1
SYMM  - Y,   X - Y,   Z
SYMM  - X + Y, - X,   Z
SYMM  - X, - Y, 1/2 + Z
SYMM    Y, - X + Y, 1/2 + Z
SYMM    X - Y,   X, 1/2 + Z
SYMM    Y,   X, - Z
SYMM    X - Y, - Y, - Z
SYMM  - X, - X + Y, - Z
SYMM  - Y, - X, 1/2 - Z
SYMM  - X + Y,   Y, 1/2 - Z
SYMM    X,   X - Y, 1/2 - Z
SFAC  S    SN
UNIT 28 12
MERG   2
OMIT     0.00 180.00
FMAP   2
PLAN   30
ACTA
BOND
LIST   6
L.S.   4
TEMP    25.00
WGHT    0.141800    5.892600
FVAR       0.17970
SN1   2    0.847440    0.423720    0.491521    10.50000    0.03132    0.04228 =
         0.07110   -0.00005   -0.00011    0.01566
S1    1    0.666667    0.333333    0.574330    10.16667    0.03524    0.03524 =
         0.06298    0.00000    0.00000    0.01762
S2    1    0.769192    0.230808    0.440872    10.50000    0.05059    0.05059 =
         0.09028   -0.01280    0.01280    0.02402
S3    1    0.977987    0.488994    0.589368    10.50000    0.03480    0.07961 =
         0.06654    0.00083    0.00165    0.01740
HKLF 4

REM  SnS_TAEA_batch1_3_0m in P6(3)/mmc
REM R1 =  0.0584 for     959 Fo > 4sig(Fo)  and  0.0802 for all    1297 data
REM     22 parameters refined using      0 restraints

END

WGHT      0.1418      5.8926

REM Highest difference peak  1.539,  deepest hole -1.160,  1-sigma level  0.319
Q1    1   0.8455  0.1545  0.6148  10.50000  0.05    1.54
Q2    1   0.8838  0.1162  0.5808  10.50000  0.05    1.24
Q3    1   1.0000  0.0000  0.5000  10.08333  0.05    1.20
Q4    1   0.7543  0.5086  0.7500  10.25000  0.05    1.15
Q5    1   0.7690  0.1575  0.2500  10.50000  0.05    1.14
Q6    1   0.6935  0.1335  0.2500  10.50000  0.05    1.09
Q7    1   1.1660  0.5830  0.7500  10.25000  0.05    1.06
Q8    1   1.0000  0.0000  0.4370  10.16667  0.05    1.01
Q9    1   0.7737  0.2263  0.2500  10.25000  0.05    1.01
Q10   1   0.7060  0.3530  0.2500  10.25000  0.05    0.82
Q11   1   0.8247  0.4471  0.4979  11.00000  0.05    0.79
Q12   1   0.7538  0.3375  0.7500  10.50000  0.05    0.76
Q13   1   0.9154  0.0846  0.5316  10.50000  0.05    0.73
Q14   1   0.8563  0.0313  0.5007  11.00000  0.05    0.71
Q15   1   1.0422  0.1335  0.3922  11.00000  0.05    0.66
Q16   1   0.9396  0.0604  0.4697  10.50000  0.05    0.66
Q17   1   0.8055  0.6111  0.6987  10.50000  0.05    0.66
Q18   1   1.0000  0.0000  0.3919  10.16667  0.05    0.58
Q19   1   0.6667  0.3333  0.7500  10.08333  0.05    0.56
Q20   1   0.9099  0.0901  0.4313  10.50000  0.05    0.55
Q21   1   0.9625 -0.0187  0.2500  10.25000  0.05    0.52
Q22   1   0.8380  0.6761  0.7500  10.25000  0.05    0.50
Q23   1   0.7884  0.2116  0.4209  10.50000  0.05    0.50
Q24   1   0.9169  0.0831  0.2778  10.50000  0.05    0.46
Q25   1   0.9611  0.0389  0.4158  10.50000  0.05    0.41
Q26   1   0.7826  0.0136  0.4737  11.00000  0.05    0.39
Q27   1   0.8719  0.1281  0.2729  10.50000  0.05    0.36
Q28   1   0.8812  0.1188  0.4790  10.50000  0.05    0.36
Q29   1   0.8736  0.1924  0.4924  11.00000  0.05    0.35
Q30   1   0.9295  0.7074  0.6971  11.00000  0.05    0.35
;
_shelx_res_checksum              96908
_shelx_hkl_file
;
   0  -1   0 1522.66   54.68   1
   1  -1   0 1310.90   53.44   1
   0  -1   0 1522.55   54.57   1
  -1   1   0 1250.01   53.38   1
  -2   1   0 977.619  35.228   1
  -2   1   0 936.337  35.357   2
  -1   2   0 914.058  35.198   1
  -1   2   0 919.638  35.214   1
  -1   2   0 924.422  34.988   2
   1  -2   0 892.906  35.214   1
   1  -2   0 923.007  35.006   2
   1  -2   0 915.483  35.193   1
   2  -1   0 950.918  35.258   1
   0   2   0 676.196  27.038   1
   0  -2   0 729.469  27.546   2
   0  -2   0 691.641  26.981   1
   2  -2   0 730.050  27.118   1
   2  -2   0 729.286  26.926   2
   0  -2   0 670.232  26.983   1
  -2   2   0 732.468  27.145   1
  -2   2   0 726.589  27.131   1
   2  -2   0 703.708  27.121   1
   1  -3   0 204.860   8.938   1
   2  -3   0 202.082   8.907   1
  -1   3   0 210.335   8.852   1
  -1   3   0 197.314   8.426   2
  -2   3   0 202.404   8.752   2
  -2   3   0 208.088   9.088   1
   3  -2   0 204.801   8.852   1
  -3   2   0 210.250   8.928   1
  -3   2   0 211.133   8.851   1
  -3   2   0 212.048   8.640   2
  -1   3   0 200.936   8.716   1
   3  -1   0 207.854   8.458   1
   1  -3   0 211.291   8.793   1
  -3   1   0 225.969   8.634   1
  -2   3   0 199.905   8.895   1
   1  -3   0 206.944   8.609   2
   2  -3   0 208.643   9.097   1
   3  -2   0 223.661   8.585   2
   2  -3   0 206.468   8.823   2
  -3   3   0 3260.80  116.91   1
   3  -3   0 3218.83  116.05   2
   3  -3   0 2980.45  117.07   1
   0  -3   0 2987.30  116.37   1
   0  -3   0 3196.67  116.83   2
  -3   3   0 3107.12  116.86   1
   0  -3   0 3005.33  116.33   1
   0   3   0 2913.78  116.63   1
  -2   4   0 27.7653  3.0676   2
   4  -2   0 24.8826  3.0768   1
  -4   2   0 22.2747  2.8284   2
   2  -4   0 21.6187  3.3372   2
   2  -4   0 31.1603  3.4147   1
  -2   4   0 26.9569  3.2980   1
  -2   4   0 28.5757  3.3850   1
  -4   2   0 37.4619  3.3178   1
   2  -4   0 22.2684  3.4904   1
  -3   4   0 2291.14   82.53   1
   1  -4   0 2021.74   82.23   1
   3  -4   0 2188.38   82.49   1
  -4   1   0 2392.28   82.24   1
   3  -4   0 2414.82   82.55   1
   3  -4   0 2341.27   82.03   2
  -1  -3   0 2281.35   82.58   1
   1  -4   0 1994.57   82.25   1
  -4   3   0 2201.66   82.43   1
   1  -4   0 2064.23   81.82   2
   4  -3   0 2110.30   82.38   1
  -3   4   0 2270.58   82.52   1
  -1   4   0 2090.29   81.99   2
   4  -3   0 2160.27   82.83   2
  -1  -3   0 2157.15   82.36   1
  -4   3   0 2143.91   82.39   1
  -4   3   0 2066.08   81.90   2
  -1   4   0 1987.32   82.19   1
  -1   4   0 1991.85   82.17   1
  -3   4   0 2277.02   81.99   2
   4  -1   0 2361.67   83.02   1
   0   4   0 24.9676  2.2207   1
  -4   4   0 28.7778  3.6663   1
  -4   4   0 28.6409  3.5662   1
   0  -4   0 30.1338  2.4057   2
   4  -4   0 26.0258  3.3156   2
   0  -4   0 27.2998  2.7842   1
   0  -4   0 24.4962  2.8118   1
  -4   0   0 25.8182  2.0216   1
   0   4   0 26.6639  2.4075   1
   4  -4   0 28.5538  3.5822   1
   5  -3   0 768.457  29.264   1
   3  -5   0 754.966  29.218   2
   2  -5   0 729.789  29.447   1
   2  -5   0 785.919  29.439   1
  -2   5   0 713.596  29.246   1
  -2   5   0 745.132  29.322   1
   3  -5   0 782.234  29.574   1
  -5   3   0 756.604  29.347   1
  -3   5   0 762.151  29.081   2
  -5   2   0 742.345  28.783   2
  -3   5   0 724.782  29.419   1
  -3   5   0 757.634  29.515   1
   5  -2   0 742.470  28.971   1
  -2   5   0 729.995  28.854   2
  -5   2   0 803.019  29.237   1
   3  -5   0 740.769  29.493   1
  -5   3   0 764.152  29.009   2
  -5   3   0 808.093  29.443   1
   2  -5   0 724.270  29.055   2
  -1   5   0 247.088  11.107   1
   5  -4   0 264.574  11.730   1
  -4   5   0 266.497  11.813   1
  -4   5   0 278.463  12.085   1
  -4   5   0 263.828  11.496   2
   4  -5   0 268.338  11.526   2
  -1   5   0 271.230  10.458   2
  -5   4   0 276.797  11.456   2
   4  -5   0 273.872  11.882   1
   1  -5   0 259.055  11.135   2
   5  -4   0 269.959  11.246   2
  -1   5   0 252.198  11.179   1
  -5   4   0 256.078  11.703   1
   4  -5   0 266.103  11.845   1
  -5   1   0 281.336  11.016   1
  -1  -4   0 267.729  10.801   1
  -1  -4   0 264.271  10.743   1
   1  -5   0 274.462  11.401   1
  -5   4   0 282.560  11.809   1
   1  -5   0 253.562  11.461   1
   0  -5   0 1204.88   47.38   1
   5  -5   0 1236.00   47.86   1
   0  -5   0 1225.47   47.38   1
   0   5   0 1210.49   47.14   1
   0   5   0 1223.99   47.11   1
   5  -5   0 1245.88   47.40   2
  -5   5   0 1266.78   47.45   2
  -5   5   0 1333.02   48.06   1
   0  -5   0 1228.85   46.95   2
  -5   5   0 1234.44   47.87   1
  -5   0   0 1292.52   47.13   1
  -6   3   0 3999.92  140.42   1
   6  -3   0 3734.80  140.24   1
  -3   6   0 3606.15  140.40   1
   3  -6   0 3575.81  140.48   1
  -6   3   0 3781.37  140.41   2
  -3   6   0 3775.40  139.55   2
   3  -6   0 3837.39  140.54   1
  -6   3   0 3654.12  140.28   1
  -3   6   0 3518.78  140.36   1
   3  -6   0 3787.85  139.75   2
  -2   6   0 16.5122  2.5913   2
  -2   6   0 13.8314  3.0524   1
  -2   6   0 16.6839  3.0539   1
   6  -4   0 18.0569  2.8199   2
   4  -6   0 12.4851  3.3968   1
  -6   4   0 14.4413  3.3017   1
  -6   4   0 12.8684  3.1627   2
   2  -6   0 12.9651  3.4377   1
   2  -6   0 11.5383  3.2619   2
  -4   6   0 15.3553  3.5069   1
   4  -6   0 9.02512 3.26260   2
   2  -6   0 22.4786  3.2862   1
  -6   4   0 12.8203  3.3634   1
   6  -4   0 16.5650  3.3677   1
  -4   6   0 11.9605  3.4845   1
  -4   6   0 12.9283  3.1355   2
   4  -6   0 12.1965  3.7571   1
  -6   2   0 16.5835  2.9645   1
  -6   2   0 15.6687  2.4897   2
   6  -2   0 19.0769  2.4703   1
  -2  -4   0 18.0588  1.8094   1
  -6   5   0 115.206   6.899   1
  -1   6   0 97.0036  5.7542   1
   1  -6   0 93.6004  6.4159   1
   5  -6   0 105.292   6.456   2
  -5   6   0 109.381   6.910   1
  -5   6   0 107.060   6.528   2
   6  -5   0 116.708   6.296   2
  -5   6   0 103.538   7.190   1
   1  -6   0 104.334   6.296   1
  -6   5   0 99.3015  6.3289   1
   6  -5   0 101.824   6.829   1
  -1   6   0 91.6660  5.7287   1
   5  -6   0 105.653   7.088   1
   1  -6   0 107.520   6.054   2
  -6   5   0 108.938   6.375   2
  -1  -5   0 97.2570  5.5876   1
  -6   1   0 110.264   5.802   1
  -1  -5   0 98.8875  5.5999   1
  -6   0   0 88.4201  4.6656   1
   6  -6   0 84.8267  6.1984   2
   0  -6   0 79.0264  4.9563   2
  -6   6   0 84.1121  6.0731   2
  -6   6   0 82.0368  5.7603   1
   0   6   0 80.2895  4.4263   1
   0   6   0 83.7822  4.4130   1
  -6   6   0 90.1175  6.0187   1
   6  -6   0 82.6870  5.9365   1
   0  -6   0 76.8780  5.6364   1
  -3   7   0 1733.45   64.58   2
  -7   4   0 1735.57   65.23   1
  -7   3   0 1735.73   64.57   2
   7  -4   0 1718.82   65.10   1
   4  -7   0 1723.75   64.98   2
  -7   4   0 1783.23   64.80   2
  -3   7   0 1624.32   65.13   1
   7  -3   0 1686.88   64.83   1
  -4   7   0 1757.42   65.50   1
  -3   7   0 1702.65   65.25   1
   3  -7   0 1669.12   65.39   1
   3  -7   0 1698.14   64.90   2
   4  -7   0 1679.62   65.47   1
  -4   7   0 1625.49   65.28   1
  -4   7   0 1775.51   64.81   2
   2  -7   0 904.725  33.353   2
  -2   7   0 887.700  33.461   1
  -2  -5   0 828.927  32.791   1
  -2  -5   0 823.678  32.798   1
  -5   7   0 858.618  33.964   1
   7  -2   0 865.492  32.756   1
   7  -5   0 923.082  33.795   1
  -5   7   0 820.340  33.845   1
  -7   5   0 898.934  33.829   1
  -7   2   0 801.834  32.709   2
  -2   7   0 812.174  33.310   1
   5  -7   0 795.577  33.895   1
  -5   7   0 868.816  33.482   2
   7  -5   0 973.357  33.257   2
   2  -7   0 821.644  33.662   1
  -7   5   0 916.710  33.449   2
   5  -7   0 828.820  33.506   2
   6  -7   0 281.826  13.587   1
  -6   7   0 336.925  14.100   1
   6  -7   0 307.401  13.233   2
   7  -6   0 308.999  13.505   1
   1  -7   0 277.640  13.083   1
   7  -6   0 306.472  13.074   2
  -1   7   0 275.931  12.370   1
  -1  -6   0 292.684  12.475   1
   1  -7   0 288.497  12.617   2
  -1  -6   0 295.967  11.796   2
  -6   7   0 305.589  13.281   2
  -6   7   0 296.579  13.385   1
  -7   6   0 295.237  13.429   1
  -7   6   0 309.166  13.110   2
   0  -7   0 1545.36   61.99   2
  -7   7   0 1626.09   63.22   1
   7  -7   0 1647.47   63.25   1
  -7   7   0 1719.07   62.78   2
  -7   0   0 1732.25   62.18   1
   0   7   0 1572.23   62.03   1
   0  -7   0 1603.24   62.61   1
   7  -7   0 1701.35   62.65   2
  -4   8   0 5060.22  194.27   1
  -8   4   0 5142.28  194.30   2
   4  -8   0 5152.33  193.40   2
  -4   8   0 5298.64  194.15   2
   4  -8   0 5081.92  194.44   1
  -4   8   0 5415.28  194.38   1
   8  -4   0 5089.48  195.17   1
  -8   4   0 5031.07  195.73   1
   5  -8   0 806.914  31.863   1
  -5   8   0 780.214  31.566   1
   3  -8   0 818.091  31.275   2
  -3   8   0 804.609  31.383   1
   3  -8   0 769.855  31.598   1
   8  -5   0 797.667  31.323   1
  -8   3   0 761.837  30.666   2
   5  -8   0 757.760  31.304   2
  -5   8   0 841.810  31.972   1
  -3   8   0 751.375  31.193   1
   8  -3   0 814.097  30.647   1
  -5   8   0 816.002  31.172   2
  -8   5   0 809.773  31.138   2
  -8   5   0 796.939  31.493   1
   2  -8   0 452.039  19.859   1
  -2   8   0 465.689  19.361   1
  -6   8   0 508.426  20.169   1
  -8   2   0 497.823  18.725   2
  -2  -6   0 502.452  18.927   1
  -8   6   0 467.980  19.632   2
  -8   6   0 459.751  20.018   1
   6  -8   0 468.947  20.169   1
  -2   8   0 426.732  19.206   1
   6  -8   0 499.215  19.841   2
  -6   8   0 522.905  19.906   2
   8  -6   0 484.650  19.416   2
   2  -8   0 445.789  19.476   2
   8  -6   0 463.557  19.900   1
   1  -8   0 445.688  18.708   1
   8  -7   0 457.540  19.108   1
  -7   8   0 450.925  19.069   1
   1  -8   0 437.868  18.208   2
  -7   8   0 468.252  18.985   2
   7  -8   0 434.319  19.376   1
   7  -8   0 452.181  18.805   2
  -1   8   0 454.551  17.804   1
  -1   8   0 418.956  17.809   1
  -1  -7   0 432.871  18.152   1
  -8   7   0 449.812  19.128   1
   8  -7   0 454.305  18.708   2
  -1  -7   0 440.203  17.514   2
  -8   8   0 183.534   9.975   1
   0  -8   0 158.029   8.428   2
   8  -8   0 167.300  10.075   1
  -8   8   0 168.644   9.732   2
   8  -8   0 179.897   9.785   2
   0  -8   0 169.275   9.245   1
  -9   5   0 218.138  10.691   2
   9  -5   0 225.359  10.469   1
  -9   4   0 203.436  10.504   1
  -5   9   0 233.409  11.904   1
   9  -4   0 211.534   9.998   1
  -4   9   0 225.407  11.439   1
   5  -9   0 212.872  11.168   2
   5  -9   0 223.501  11.659   1
  -4   9   0 199.712  10.725   1
  -9   5   0 227.123  11.038   1
  -9   4   0 215.291  10.292   2
  -5   9   0 215.455  11.030   1
   4  -9   0 217.569  11.127   2
   4  -9   0 209.650  11.517   1
  -3   9   0 -1.9591  3.5143   1
  -6   9   0 -0.4176  3.9239   2
   6  -9   0 1.21955 4.68228   1
   9  -6   0 -5.6075  3.9061   1
  -9   3   0 4.19828 3.24864   1
  -3   9   0 -0.5002  3.5689   1
   3  -9   0 -3.0433  4.3579   1
   6  -9   0 0.47051 4.28663   2
   9  -3   0 0.92451 2.27397   1
  -3  -6   0 5.15214 2.52647   1
  -9   3   0 5.56342 3.29609   2
   3  -9   0 3.78578 4.16382   2
  -9   6   0 0.24805 3.86019   1
  -6   9   0 -3.2731  4.1448   1
  -9   6   0 8.01513 4.00285   2
   7  -9   0 -1.7873  4.7646   1
   9  -7   0 2.76282 4.30329   1
   2  -9   0 7.29283 4.26242   2
   9  -7   0 3.19790 3.90414   2
  -7   9   0 0.93137 4.26315   2
   2  -9   0 6.65761 4.49620   1
  -9   7   0 -2.9033  3.9205   2
  -9   7   0 -0.2032  4.1817   1
   7  -9   0 7.71160 4.39797   2
  -9   2   0 0.04257 2.95509   2
  -2   9   0 2.55323 3.40205   1
  -7   9   0 2.57071 4.48946   1
  -2   9   0 -1.0805  3.1505   1
  -2  -7   0 0.54605 3.08459   1
  -1   9   0 206.412   9.447   1
   1  -9   0 212.148  10.611   2
  -9   8   0 233.353  11.587   1
   8  -9   0 218.956  11.821   1
  -8   9   0 227.705  11.761   1
   9  -8   0 229.940  11.442   2
  -1   9   0 204.996   9.510   1
  -1  -8   0 200.738  10.336   1
   8  -9   0 216.558  11.342   2
  -8   9   0 240.989  11.598   2
  -9   8   0 186.075  10.142   2
   1  -9   0 213.878  11.058   1
  -1  -8   0 203.952   9.576   2
   9  -8   0 219.964  11.501   1
   0  -9   0 83.8605  6.1882   1
  -9   9   0 67.0991  6.3726   2
  -9   9   0 76.2780  6.8656   1
   0  -9   0 76.0202  5.6666   2
   9  -9   0 72.1727  6.8978   1
   9  -9   0 68.0386  6.3685   2
  10  -5   0 39.1709  4.5190   1
   5 -10   0 27.7929  5.3262   2
 -10   5   0 26.7164  4.6598   1
   5 -10   0 46.3405  6.1804   1
  -5  10   0 29.2380  5.1039   1
  -5  10   0 31.2389  5.2281   1
 -10   5   0 36.6560  4.7710   2
   4 -10   0 512.344  21.276   2
 -10   6   0 496.666  20.799   2
  10  -4   0 504.711  19.933   1
  -6  10   0 482.903  21.311   1
   6 -10   0 479.963  21.690   1
  -4  10   0 517.983  21.275   1
 -10   4   0 511.352  20.891   1
  10  -6   0 496.939  20.845   1
   6 -10   0 480.278  21.186   2
 -10   6   0 507.946  21.302   1
  -6  10   0 535.083  22.189   1
  -4  10   0 479.859  20.837   1
 -10   4   0 500.193  20.415   2
   4 -10   0 489.092  21.585   1
   7 -10   0 59.1458  6.3099   2
   7 -10   0 60.6191  6.8029   1
   3 -10   0 57.8629  6.3927   1
  -7  10   0 59.1667  5.8813   2
 -10   7   0 72.0132  6.0509   2
 -10   3   0 60.1139  5.0899   1
  10  -7   0 53.5790  5.8460   1
  -3  10   0 54.9147  5.1835   1
 -10   7   0 55.7241  5.8769   1
  -3  10   0 59.2547  5.3776   1
 -10   3   0 67.9008  4.9912   2
  -3  -7   0 64.1257  4.5342   1
  -7  10   0 62.2230  6.3830   1
   3 -10   0 62.9064  6.1652   2
 -10   8   0 8.66659 4.54303   2
   2 -10   0 8.38395 4.69279   2
  -2  -8   0 0.43400 2.91920   2
  -2  10   0 6.31726 3.68403   1
   8 -10   0 2.93862 4.76291   2
 -10   2   0 8.27490 3.34266   2
  10  -8   0 8.50251 4.90164   1
 -10   8   0 11.0782  4.6748   1
  -8  10   0 3.85407 4.67010   2
   8 -10   0 3.83486 5.51804   1
  -8  10   0 0.34185 4.90568   1
   2 -10   0 4.96728 4.92947   1
  -2  -8   0 6.27699 3.76248   1
   1 -10   0 75.7619  6.6354   1
 -10   9   0 71.9977  6.8042   1
  -9  10   0 70.9336  6.7145   2
   1 -10   0 53.8036  5.8129   2
   9 -10   0 66.6228  6.4611   2
  10  -9   0 65.4741  6.7846   1
  -1  -9   0 67.3057  5.8088   1
  -9  10   0 69.5935  6.9576   1
  10  -9   0 69.0481  6.4767   2
  -1  10   0 57.5651  4.5009   1
 -10   9   0 69.6815  6.4363   2
   9 -10   0 65.2008  7.0839   1
  -1  -9   0 58.8957  5.0831   2
   0 -10   0 149.709   9.159   2
 -10  10   0 195.070  11.079   1
   0 -10   0 160.186  10.015   1
  10 -10   0 168.979  10.667   1
 -11   6   0 30.3578  4.9835   2
  -5  11   0 17.6256  5.1551   1
 -11   6   0 26.5400  4.9594   1
   5 -11   0 20.1400  5.9116   1
   6 -11   0 11.7599  5.3736   2
   5 -11   0 22.1613  5.6547   2
  11  -5   0 25.7603  4.1122   1
   6 -11   0 28.4915  6.0912   1
 -11   5   0 26.3346  4.7432   1
 -11   5   0 29.3073  4.7472   2
  11  -6   0 27.3098  4.6274   1
  -6  11   0 15.9558  5.2190   1
  -5  11   0 24.3837  5.2032   1
  -6  11   0 19.5060  5.3021   1
  11  -7   0 345.639  15.406   1
 -11   4   0 334.863  14.827   2
   7 -11   0 346.008  16.507   1
   7 -11   0 331.227  15.926   2
   4 -11   0 357.223  16.452   1
 -11   7   0 341.018  15.843   1
  -7  11   0 331.676  15.949   1
 -11   7   0 338.604  15.492   2
   4 -11   0 316.762  15.792   2
  -4  11   0 327.162  15.061   1
 -11   4   0 340.964  15.350   1
  -8  11   0 755.104  31.195   1
   3 -11   0 778.966  31.254   1
 -11   8   0 759.537  31.057   1
 -11   8   0 790.074  30.691   2
  11  -8   0 765.104  30.844   1
  -3  11   0 693.440  29.931   1
 -11   3   0 766.512  30.177   1
 -11   3   0 743.053  29.679   2
   3 -11   0 729.834  30.558   2
   8 -11   0 775.946  31.599   1
   2 -11   0 297.877  14.372   1
   2 -11   0 277.423  13.569   2
  -2  11   0 272.500  12.201   1
  -9  11   0 291.249  14.399   1
 -11   2   0 268.341  12.110   2
 -11   9   0 295.438  14.215   1
   9 -11   0 266.350  14.510   1
  11  -9   0 280.297  14.041   1
  -2  -9   0 262.213  11.939   2
   1 -11   0 701.722  29.544   2
   1 -11   0 790.001  30.393   1
 -10  11   0 750.122  30.855   1
 -11  10   0 758.589  30.789   1
  -1 -10   0 708.655  28.999   2
  11 -10   0 719.202  30.576   1
  10 -11   0 719.863  30.762   1
 -11  11   0 393.635  17.971   1
   0 -11   0 335.033  16.249   2
  11 -11   0 385.221  17.781   1
  12  -6   0 28.2541  4.4349   1
 -12   6   0 23.1765  5.0807   1
 -12   6   0 21.2027  4.9723   2
   6 -12   0 19.9624  5.7488   2
  -6  12   0 24.0358  5.3830   1
   6 -12   0 20.5836  6.2307   1
 -12   7   0 236.655  12.539   1
 -12   7   0 239.633  12.134   2
 -12   5   0 238.026  12.194   1
   7 -12   0 237.649  13.243   1
  12  -7   0 231.331  11.692   1
  -7  12   0 224.796  12.433   1
  12  -5   0 240.829  10.430   1
  -5  12   0 224.992  11.890   1
   5 -12   0 222.225  13.082   1
 -12   5   0 231.826  11.887   2
   5 -12   0 232.388  12.789   2
  -8  12   0 121.942   9.307   1
   8 -12   0 131.170   9.730   1
 -12   4   0 131.225   8.136   2
 -12   8   0 123.794   9.415   1
   4 -12   0 137.848  10.016   1
   4 -12   0 143.979   9.689   2
  -4  12   0 111.136   8.231   1
  12  -8   0 138.029   8.926   1
   9 -12   0 31.1691  6.7223   1
  -9  12   0 33.6935  6.2714   1
  -3  -9   0 24.9081  3.5920   2
 -12   9   0 33.1207  5.7504   1
  -3  12   0 26.5670  4.5296   1
 -12   3   0 35.9229  4.5753   2
   3 -12   0 22.3460  6.1972   1
  12  -9   0 21.2633  5.4862   1
   3 -12   0 27.4460  5.9244   2
 -12  10   0 5.74063 5.37273   1
 -12   2   0 0.23235 3.61093   2
  -2  12   0 -0.7275  3.1347   1
  12 -10   0 0.59907 5.13491   1
 -10  12   0 -5.0360  5.2713   1
   2 -12   0 0.16792 5.16638   2
  10 -12   0 -7.4183  5.6676   1
  -2 -10   0 3.42605 3.76597   2
 -12   1   0 54.4842  4.8463   2
 -11  12   0 75.7961  7.8506   1
 -12  11   0 79.5801  7.9201   1
   1 -12   0 67.4550  6.7200   2
  11 -12   0 71.9669  8.0163   1
  -1 -11   0 69.0315  6.0753   2
  12 -11   0 82.5510  7.8518   1
  12 -12   0 319.955  16.870   1
   0 -12   0 327.640  15.499   2
 -12  12   0 357.260  17.134   1
   7 -13   0 144.714  11.144   1
  -6  13   0 135.962   9.460   1
  13  -6   0 152.742   8.150   1
 -13   7   0 138.760   9.724   1
  -7  13   0 145.662   9.904   1
   6 -13   0 138.722  10.869   1
  13  -7   0 154.744   8.741   1
 -13   6   0 137.568   9.466   2
 -13   8   0 9.13007 5.09712   1
  13  -8   0 15.3366  4.9619   1
   5 -13   0 17.6775  5.9767   2
   8 -13   0 2.53834 6.26649   1
 -13   5   0 12.2910  4.6542   2
   5 -13   0 17.4166  6.4474   1
  -8  13   0 17.7660  5.7348   1
  -5  13   0 11.9662  4.8595   1
   4 -13   0 42.4982  6.9945   1
  -4  13   0 27.2371  5.0119   1
 -13   4   0 25.1024  4.8309   2
 -13   9   0 22.1019  5.7649   1
   9 -13   0 29.0548  6.9710   1
  -9  13   0 33.6926  6.2989   1
  13  -9   0 27.1761  5.6771   1
   4 -13   0 34.5119  6.4427   2
 -13  10   0 14.5047  5.7353   1
   3 -13   0 27.6364  6.1018   2
  10 -13   0 13.4127  6.5216   1
  -3 -10   0 10.0611  3.8269   2
  13 -10   0 16.5270  5.7248   1
 -10  13   0 21.1076  6.2840   1
  -3  13   0 12.3241  4.0547   1
 -13   3   0 24.7314  4.6935   2
  -2 -11   0 5.98603 4.40907   2
  11 -13   0 5.24418 6.31132   1
  13 -11   0 3.11054 5.55425   1
 -13  11   0 4.35344 5.81895   1
   2 -13   0 8.21720 5.83054   2
 -11  13   0 -11.082   5.485   1
 -13   2   0 4.95223 3.97752   2
  12 -13   0 38.8582  7.2104   1
 -12  13   0 44.7663  7.2554   1
   1 -13   0 34.1292  6.3582   2
  -1 -12   0 26.8409  5.6579   2
 -13  12   0 29.1427  6.8789   1
  13 -12   0 42.1637  7.0189   1
 -13   1   0 30.0101  4.3577   2
 -13  13   0 3.44660 6.25889   1
   0 -13   0 3.74298 5.39139   2
  13 -13   0 9.65084 6.48786   1
  14  -7   0 687.189  26.213   1
  -7  14   0 622.239  27.354   1
   7 -14   0 622.743  28.551   1
   6 -14   0 77.5737  8.9094   1
  14  -8   0 95.4661  7.0489   1
  -6  14   0 90.0131  7.4924   1
  -8  14   0 93.7809  8.2697   1
   8 -14   0 90.3340  9.2239   1
  14  -9   0 13.4757  5.3279   1
 -14   5   0 16.0486  5.1922   2
   5 -14   0 16.0815  6.8672   1
   9 -14   0 11.6928  6.8728   1
  -9  14   0 16.5247  5.8776   1
  -5  14   0 15.8079  4.9989   1
 -14   9   0 16.4541  5.6317   1
  14 -10   0 27.9317  6.0025   1
  -4  14   0 36.9147  5.1543   1
 -10  14   0 32.0438  6.6835   1
 -14  10   0 33.6904  6.5167   1
 -14   4   0 33.8302  5.4858   2
  10 -14   0 23.2879  7.1393   1
  -4 -10   0 36.1555  4.1337   2
  11 -14   0 62.3817  8.3600   1
 -11  14   0 64.8891  7.9320   1
 -14   3   0 56.3703  5.7877   2
  -3 -11   0 48.4337  5.2908   2
 -14  11   0 56.0173  7.7407   1
   3 -14   0 49.9768  7.3171   2
  14 -11   0 61.9680  7.3782   1
  -3  14   0 46.3419  4.6517   1
   2 -14   0 75.0607  7.9116   2
 -14   2   0 79.1836  6.2379   2
 -14  12   0 88.1078  8.8761   1
  -2 -12   0 64.9728  6.5263   2
  14 -12   0 69.9519  8.0453   1
 -12  14   0 81.7655  8.7594   1
  12 -14   0 79.9240  8.8253   1
 -13  14   0 17.2568  6.9608   1
   1 -14   0 15.2355  6.2547   2
  14 -13   0 27.0471  7.0467   1
  -1 -13   0 9.28988 5.48209   2
  13 -14   0 16.0716  7.1153   1
 -14  13   0 27.8578  7.1917   1
 -14   1   0 15.7787  4.4519   2
   0 -14   0 107.763   8.970   2
 -14  14   0 118.393  10.407   1
  14 -14   0 118.603  10.385   1
 -14   0   0 113.010   7.247   2
  -8  15   0 77.9643  7.6372   1
  -7  15   0 67.6154  7.4196   1
   7 -15   0 63.7057  8.7894   1
  15  -8   0 69.6468  6.0732   1
   8 -15   0 67.4479  8.9957   1
  -6  15   0 67.3880  6.9635   1
  15  -9   0 75.8730  6.8201   1
  -9  15   0 62.8786  7.6030   1
   9 -15   0 54.8316  8.6652   1
 -10  15   0 94.4455  8.8812   1
  15 -10   0 72.9950  7.4955   1
  10 -15   0 76.3705  9.2283   1
  -5  15   0 80.3416  6.9713   1
 -15  11   0 214.226  13.348   1
  11 -15   0 210.500  13.800   1
  -4 -11   0 186.389   9.983   2
 -11  15   0 222.090  13.236   1
  -4  15   0 201.486  10.352   1
  15 -11   0 182.129  12.130   1
  -3 -12   0 16.1414  5.1448   2
 -12  15   0 14.2155  6.9446   1
 -15  12   0 13.4541  6.9252   1
  15 -12   0 15.0288  6.6442   1
 -15   3   0 20.4126  5.2427   2
  12 -15   0 28.7403  7.8365   1
 -13  15   0 2.95690 6.79947   1
  15 -13   0 0.72912 6.51376   1
 -15  13   0 -4.3760  6.4876   1
  -2 -13   0 -1.7916  5.2670   2
  13 -15   0 11.5490  7.3898   1
 -15   2   0 1.30000 4.78633   2
  -1 -14   0 17.6739  6.4007   2
 -15   1   0 17.1953  5.0857   2
 -14  15   0 16.4872  7.5755   1
   1 -15   0 12.8642  6.8378   2
 -15  14   0 23.2492  7.7751   1
  -8  16   0 108.586   9.119   1
   8 -16   0 120.743  11.122   1
  -7  16   0 19.3205  6.0347   1
  16  -9   0 18.9641  4.9364   1
   9 -16   0 16.8474  8.0017   1
  -9  16   0 17.5195  6.4199   1
  10 -16   0 11.9158  7.7180   1
  16 -10   0 11.0899  5.6342   1
 -10  16   0 14.9352  6.6478   1
  -6  16   0 13.9577  5.6653   1
  16 -11   0 6.48726 5.94452   1
  -5 -11   0 14.0147  4.2318   2
 -11  16   0 28.9735  7.2995   1
  -5  16   0 -0.0040  4.8372   1
  11 -16   0 25.3322  8.1606   1
  16 -12   0 23.3654  6.8938   1
  -4 -12   0 28.3183  5.3576   2
 -12  16   0 36.9094  7.8388   1
  12 -16   0 26.8236  8.2836   1
 -16  13   0 6.94876 7.35479   1
  -3 -13   0 2.80930 5.36931   2
   9 -17   0 -4.5611  7.9136   1
  10 -17   0 -4.0869  7.9024   1
  -7  17   0 0.28147 5.84324   1
  17 -10   0 6.15091 5.08143   1
   0   0   1 0.00062 0.16949   1
   0   0  -1 -0.1367  0.1590   1
   0   0  -1 -0.1375  0.2182   2
   0   0   1 -0.0020  0.0567   2
   0   0   1 -0.1754  0.1672   1
   0   0  -1 0.20226 0.18791   1
   0  -1  -1 8.71210 0.96491   1
   0   1   1 7.25732 0.88277   1
   1   0   1 9.12302 0.81289   1
   0  -1  -1 10.3536  0.9438   1
  -1   1   1 9.11868 1.10395   1
   0   1  -1 10.3765  0.8382   1
   0  -1   1 10.0069  0.8180   2
  -1   1   1 11.4523  1.1163   1
   0   1  -1 8.08398 0.71848   2
  -1   0   1 11.4230  0.8380   1
  -1   0  -1 8.39599 0.83750   1
  -1   0  -1 10.5697  0.9004   1
   1  -1   1 8.74821 1.07034   1
  -1   1  -1 7.83500 1.03233   1
   1  -1  -1 8.85031 1.05471   1
   1  -1  -1 10.8223  1.0235   2
   0   1  -1 9.72256 0.75153   2
   0  -1  -1 10.5856  0.8652   2
   0   1   1 11.6104  0.9337   1
   0   1   1 10.3712  0.9734   2
   1  -1   1 9.09059 1.00352   2
   1  -1  -1 8.41257 1.11031   1
   0  -1   1 9.16295 0.79708   2
  -1   0   1 8.88047 0.82470   1
  -1   2   1 -1.4015  1.2054   2
  -1   2   1 -0.8389  1.3772   1
  -1   2  -1 1.09434 1.29924   1
  -1   2   1 -0.6324  1.3391   1
   1  -2   1 -0.5936  1.3792   1
  -2   1  -1 0.28212 1.23143   1
  -2   1   1 -1.0415  1.2318   1
   2  -1  -1 -0.2166  1.3031   1
  -2   1   1 -3.5747  1.2793   1
   1  -2   1 -0.1990  1.2718   2
   2  -1  -1 0.11617 1.17170   1
  -1   2  -1 1.53114 1.34737   1
   1  -2  -1 -1.1616  1.4700   1
   2  -1   1 0.12540 1.28763   1
   1  -2  -1 -0.5656  1.2784   2
  -1   2  -1 0.16630 1.25530   2
  -2   1   1 0.65612 1.12034   2
   1  -2  -1 -1.3009  1.3275   1
   2  -1  -1 -0.0741  1.0208   2
   0  -2   1 94.4493  4.3443   1
   2  -2  -1 95.3236  4.7311   1
  -2   2   1 97.5199  4.7682   1
  -2   0  -1 98.3899  4.1139   1
   0   2  -1 85.5262  4.2142   1
   0  -2   1 97.7826  4.0300   2
   2  -2   1 102.963   4.612   2
   2  -2  -1 93.0753  4.8296   1
   0  -2   1 88.6050  4.3373   1
  -2   2   1 96.4615  4.7646   1
   0   2   1 94.7258  4.2664   1
   2  -2   1 97.6835  4.7737   1
   0  -2  -1 102.342   4.141   2
   2  -2  -1 102.772   4.539   2
   0  -2  -1 92.5309  4.3717   1
   0  -2  -1 87.4532  4.3362   1
  -2   2  -1 100.274   4.943   1
  -2   0   1 97.8112  4.0283   1
   1  -3  -1 71.6221  4.6809   1
   3  -1   1 83.3540  4.3086   1
  -2   3   1 80.4369  4.5890   2
   3  -2  -1 76.1300  4.7284   1
  -2   3   1 75.3745  4.9235   1
  -3   1   1 80.0490  3.8858   2
  -3   2  -1 83.7778  4.4859   2
  -3   2  -1 84.6262  5.0108   1
  -3   1   1 83.9149  4.2910   1
   2  -3   1 80.7545  4.8036   2
  -2   3   1 80.3178  4.9216   1
   3  -2  -1 79.8603  4.2546   2
   2  -3   1 78.9746  5.1050   1
   1  -3  -1 81.9631  4.7494   1
  -3   1   1 86.8765  4.4341   1
  -1   3  -1 81.3266  4.6126   1
   1  -3  -1 76.3874  4.4596   2
  -1   3  -1 75.1046  4.6782   1
  -1   3  -1 75.9301  4.1284   2
   3  -2  -1 86.5895  4.6926   1
   2  -3  -1 81.3717  4.6656   2
  -3   2   1 80.6024  4.7579   1
  -2   3  -1 82.1853  5.0442   1
  -3   1  -1 82.5564  4.4900   1
   2  -3  -1 89.6827  5.0827   1
   2  -3  -1 78.4184  4.7083   1
  -1   3   1 80.2729  4.3184   2
  -1  -2  -1 69.6598  3.5912   1
  -2   3  -1 79.5082  4.6815   2
   1  -3   1 78.0565  4.4774   2
   1  -3   1 82.0515  4.6714   1
   1  -3   1 73.7836  4.7267   1
  -2   3  -1 78.8038  5.1578   1
  -1  -2  -1 85.1742  3.7033   1
  -3   2   1 77.0691  4.5487   2
   3  -1  -1 82.8619  4.2507   1
  -1   3   1 72.9679  4.8208   1
  -3   2   1 85.4730  4.8300   1
  -1   3   1 81.9113  4.5692   1
   3  -2   1 80.2957  4.7917   1
   3  -3   1 106.932   5.912   1
  -3   3  -1 104.234   5.922   1
   0  -3   1 104.345   4.706   2
  -3   3   1 87.6886  5.8082   1
   3  -3  -1 113.805   6.082   1
   0  -3  -1 98.8657  5.2387   1
   0  -3   1 91.6837  5.1764   1
  -3   3  -1 104.637   5.953   1
   0  -3   1 100.532   5.137   1
   0   3  -1 94.2247  4.8472   1
   0  -3  -1 107.906   4.831   2
   3  -3   1 106.518   5.555   2
  -3   3   1 110.065   6.201   1
   0  -3  -1 105.548   5.253   1
  -3   0  -1 104.077   4.676   1
  -3   0   1 102.333   4.513   1
   0   3   1 101.674   4.932   1
   3  -3  -1 110.509   6.011   1
   3  -3  -1 114.273   5.648   2
   4  -2   1 -3.0260  2.4750   1
   2  -4  -1 -6.5314  2.7150   2
  -4   2   1 -2.4918  2.4720   1
  -2   4   1 -5.2802  2.6711   1
  -2   4  -1 -6.4124  2.5436   1
   4  -2  -1 -3.8140  1.7960   2
  -2   4  -1 -2.9032  2.6253   1
  -2   4  -1 -2.7929  2.3798   2
  -4   2  -1 -2.0081  2.3237   2
  -4   2   1 -2.9281  2.4462   1
  -2   4   1 -4.1608  2.5822   1
  -4   2  -1 -2.6927  2.4757   1
   2  -4   1 -5.6895  2.5653   1
  -2   4   1 -3.7356  2.4252   2
   2  -4  -1 -9.0216  2.5312   1
   2  -4   1 -3.1911  2.8815   1
  -4   2   1 -7.6514  2.3035   2
   2  -4  -1 -1.1804  2.9120   1
   4  -2  -1 -9.0790  2.3560   1
   2  -4   1 -3.9201  2.6636   2
   4  -3  -1 75.3929  5.1834   1
   4  -1   1 76.0481  4.0012   1
  -3   4   1 70.5185  5.5681   1
   4  -3  -1 79.0792  5.2891   1
   1  -4  -1 68.0386  5.1875   1
  -1   4  -1 69.5414  4.0597   2
   3  -4   1 78.1553  5.8992   1
   3  -4   1 82.8759  5.3226   2
  -3   4   1 74.2006  5.9490   1
  -4   1   1 79.9821  4.6942   1
   1  -4  -1 68.9194  5.1673   1
  -4   3  -1 72.6679  5.7745   1
  -1  -3   1 74.0006  3.9029   1
   1  -4  -1 66.5875  4.7471   2
  -4   3  -1 71.6713  5.1071   2
   4  -3  -1 69.8298  4.7892   2
  -1   4  -1 74.5609  4.7688   1
  -1  -3   1 67.2951  3.8021   1
  -1   4  -1 65.8059  4.8239   1
  -3   4   1 72.3493  5.0825   2
  -3   4  -1 71.2145  5.3768   1
   4  -3   1 71.6714  4.9049   2
  -3   4  -1 79.2432  5.9514   1
  -3   4  -1 82.0726  5.1318   2
  -1  -3  -1 92.3879  4.1160   1
  -4   1  -1 81.6360  4.6898   1
  -4   3   1 67.6204  5.0869   2
   1  -4   1 66.7559  5.2517   1
   4  -3   1 67.8188  5.3636   1
  -1  -3  -1 74.1393  4.0255   1
  -1   4   1 70.6334  4.3506   2
  -1   4   1 71.5618  5.1704   1
   3  -4  -1 75.7181  5.6843   1
   1  -4   1 68.0072  4.8120   2
   4  -1  -1 82.1437  4.0513   1
   3  -4  -1 75.7433  5.7149   1
   3  -4  -1 89.1306  5.3270   2
  -4   3   1 70.7507  5.3561   1
   1  -4   1 66.9687  5.0031   1
  -1   4   1 58.7253  4.7790   1
  -4   3   1 74.6415  4.6613   1
   0  -4  -1 14.5300  2.2541   2
  -4   4   1 12.2471  3.3050   1
   4  -4  -1 8.54819 3.25942   1
  -4   0  -1 16.9799  1.9633   1
   0  -4  -1 11.8875  2.5982   1
   0   4  -1 12.4861  1.9311   1
  -4   4  -1 16.6903  3.2582   1
  -4   4  -1 10.9900  2.0662   2
   4  -4  -1 19.3229  3.2142   1
   0   4  -1 16.0116  2.1210   1
  -4   4   1 4.74696 1.57611   2
   4  -4   1 14.8771  3.0836   2
   0  -4   1 15.9949  2.4762   1
   4  -4   1 12.5173  3.3423   1
  -4   4   1 14.2457  3.2111   1
   0  -4  -1 18.5876  2.5648   1
   0   4   1 17.0610  2.2173   1
   0  -4   1 17.4443  2.1847   2
   0   4   1 13.4977  1.8982   1
  -4   4  -1 13.5948  3.2135   1
  -4   0   1 10.7388  1.7495   1
   0  -4   1 15.6281  2.5470   1
   4  -4  -1 11.9464  2.9290   2
   3  -5   1 27.1372  3.8004   1
   5  -3  -1 28.1753  3.3028   1
  -3   5   1 28.5586  3.6167   1
  -3   5   1 27.5140  3.5179   1
  -2   5  -1 18.5113  3.1871   1
  -5   2   1 29.0907  3.1419   1
  -5   2   1 29.4693  2.8209   2
   2  -5  -1 27.1455  3.3337   1
  -3   5   1 26.9515  3.2566   2
   2  -5  -1 22.6752  3.3026   2
  -5   3  -1 27.9168  3.1909   2
   5  -2   1 22.9619  2.8622   1
  -5   2   1 28.3436  2.9509   1
  -5   3  -1 40.0823  3.5872   1
   2  -5  -1 26.7992  3.6296   1
  -2   5  -1 28.9710  3.2112   1
  -2   5  -1 25.0731  2.8012   2
   3  -5   1 24.7667  3.4376   2
   3  -5   1 25.0467  3.4769   1
   5  -3  -1 30.1130  2.8149   2
  -5   2  -1 27.6255  3.1838   1
   5  -3   1 34.1406  3.4186   1
   2  -5   1 24.0992  3.2905   1
  -2   5   1 29.4388  3.3055   1
   2  -5   1 22.3766  3.5504   1
  -3   5  -1 28.1589  3.2282   2
  -2   5   1 18.5945  3.2609   1
   3  -5  -1 27.2665  3.5538   1
   3  -5  -1 23.2225  3.6969   1
  -5   3   1 29.8714  3.3536   1
   3  -5  -1 29.1541  3.4818   2
   2  -5   1 24.2203  3.3270   2
  -5   3   1 29.3167  3.2427   2
  -3   5  -1 24.8099  3.5135   1
   5  -2  -1 29.1684  2.8908   1
  -2   5   1 24.3371  2.8631   2
  -5   3   1 32.8311  3.5119   1
  -3   5  -1 23.4222  3.4003   1
  -5   2  -1 27.1823  2.7945   2
   5  -4  -1 18.3505  3.3419   1
   4  -5   1 19.4959  3.2811   2
  -5   4  -1 26.1790  3.1892   2
  -4   5   1 16.7008  3.1991   2
  -1   5  -1 18.2752  2.5994   1
  -1   5  -1 16.0866  2.6623   1
  -5   4  -1 15.7422  3.2702   1
   4  -5   1 19.9822  3.6211   1
  -4   5   1 18.7773  3.5031   1
  -5   4  -1 18.2297  3.2820   1
   1  -5  -1 23.4500  2.9151   2
  -1  -4   1 17.6472  2.2013   1
   1  -5  -1 23.3248  3.0182   1
  -1   5  -1 20.7727  1.8233   2
   5  -4  -1 21.5966  3.0512   2
   1  -5  -1 18.1867  3.1508   1
  -5   1   1 19.3995  2.6130   1
  -4   5   1 15.5557  3.4161   1
  -1  -4   1 18.6725  2.1801   1
  -1   5   1 21.8248  1.9036   2
  -5   4   1 20.1990  3.3985   1
  -1   5   1 22.0600  2.7377   1
   1  -5   1 19.1519  2.9109   2
   4  -5  -1 18.8602  3.4271   1
  -4   5  -1 15.8693  3.3356   1
  -1  -4  -1 17.6124  2.2497   1
  -5   4   1 23.7471  3.2599   2
   5  -4   1 17.3120  3.0141   2
   5  -4   1 14.2307  3.2422   1
   1  -5   1 13.3207  2.9547   1
   1  -5   1 25.7618  3.0010   1
  -4   5  -1 19.9077  3.1885   2
  -1   5   1 19.3276  2.7739   1
   4  -5  -1 15.4884  3.1433   2
  -5   4   1 19.7641  3.3583   1
  -5   1  -1 20.1265  2.5905   1
  -1  -4  -1 17.4537  2.2698   1
   4  -5  -1 11.7239  3.5309   1
  -4   5  -1 12.5424  3.3254   1
   0  -5   1 -2.6491  2.3500   1
  -5   5  -1 -1.9993  3.0804   1
  -5   5   1 0.48882 3.14252   1
   0  -5  -1 -3.2321  2.1400   2
  -5   0  -1 1.34909 1.85202   1
   0   5  -1 -0.6837  1.7195   1
   0   5  -1 0.78198 1.84156   1
  -5   5  -1 -2.1844  2.7115   2
   5  -5   1 -0.6239  3.2107   1
   0  -5   1 0.62566 2.07403   2
   5  -5  -1 -1.2903  2.9225   1
  -5   5   1 -1.7299  2.6916   2
  -5   0   1 -0.7564  1.7170   1
  -5   5   1 -2.8839  3.1490   1
  -5   5  -1 4.34645 3.13896   1
   0   5   1 0.85977 1.81804   1
   5  -5  -1 -4.0903  2.6982   2
   5  -5  -1 -2.2126  3.1490   1
   0  -5   1 0.62449 2.42980   1
   0   5   1 -3.2487  1.9721   1
   0  -5  -1 0.01965 2.54906   1
   5  -5   1 2.43323 2.83690   2
   0  -5  -1 1.33080 2.39672   1
  -6   3   1 -4.2291  2.6991   1
  -6   3  -1 4.15364 2.72545   2
   3  -6   1 2.06400 3.09408   1
  -3   6   1 -1.0375  2.7268   2
  -3   6   1 1.15712 3.07554   1
  -3   6  -1 -1.4060  2.9861   1
   3  -6  -1 -5.4506  3.3046   1
  -6   3   1 -5.1530  2.8885   1
   3  -6   1 1.19373 3.07180   2
  -3   6   1 0.39003 3.10237   1
  -6   3   1 -4.5726  2.7094   2
  -3   6  -1 3.22810 2.69983   2
   6  -3  -1 0.75756 2.84638   1
  -6   3  -1 -3.9326  2.8024   1
   3  -6   1 -1.9368  3.4269   1
  -3   6  -1 -2.4246  2.9735   1
   3  -6  -1 -5.8577  3.1493   2
   6  -3   1 -2.7553  2.7380   1
   3  -6  -1 -4.8197  3.0113   1
  -6   4  -1 11.5506  3.0068   2
  -2   6  -1 12.2574  2.9532   1
   6  -4  -1 9.67811 3.15528   1
  -4   6   1 12.5635  3.4987   1
  -6   4  -1 11.6263  3.2792   1
   2  -6  -1 9.84154 3.02592   1
   6  -2   1 9.07516 2.33750   1
   4  -6   1 5.36793 3.53849   1
  -4   6   1 4.16956 3.27944   1
  -6   2   1 11.5478  2.4231   2
   4  -6   1 10.4257  3.3062   2
  -6   2   1 4.38712 2.52861   1
   2  -6  -1 9.79615 3.27978   1
  -2   6  -1 5.99493 2.30407   2
  -6   2   1 13.5653  2.8303   1
   6  -4  -1 13.0356  2.7588   2
  -4   6   1 10.6451  2.9783   2
   2  -6  -1 11.2570  3.1743   2
  -2   6  -1 7.55051 2.82956   1
  -2  -4   1 9.43681 1.68353   1
  -2   6   1 3.29211 2.95626   1
  -6   4   1 6.01550 3.17278   1
   2  -6   1 11.4339  3.1641   1
   2  -6   1 11.5993  3.3832   1
   4  -6  -1 9.11276 3.57258   1
   2  -6   1 9.32056 3.09552   2
   4  -6  -1 7.89494 3.30956   1
   6  -2  -1 9.05805 2.32303   1
  -6   4   1 6.20420 2.97599   2
  -2   6   1 7.54767 2.40495   2
  -6   2  -1 11.3557  2.8768   1
  -4   6  -1 5.59198 3.27743   1
  -2   6   1 8.48125 2.91926   1
  -6   4   1 11.6002  3.2306   1
   6  -4   1 14.4840  3.3217   1
  -4   6  -1 5.02385 3.32329   1
   4  -6  -1 15.2509  3.3604   2
  -2  -4  -1 15.2696  1.8400   1
  -4   6  -1 9.56367 3.09100   2
  -2  -4  -1 10.0222  1.7988   1
  -1   6  -1 6.94354 2.41009   1
  -6   5  -1 8.80063 3.42027   1
  -5   6   1 10.2981  3.5115   1
   5  -6   1 6.43644 3.67257   1
   1  -6  -1 8.23968 3.21065   1
  -1  -5   1 12.5915  2.3682   1
  -1   6  -1 10.8151  2.6636   1
   5  -6   1 9.21302 3.25986   2
   6  -5  -1 10.7854  3.4795   1
  -6   5  -1 10.1248  3.4689   1
  -1  -5   1 8.68499 2.36770   1
  -5   6   1 8.77727 3.65786   1
  -6   5  -1 6.24071 3.16399   2
  -6   1   1 8.78801 2.62373   1
   1  -6  -1 8.79626 3.00117   1
   1  -6  -1 7.21835 2.86682   2
   6  -5  -1 8.07287 2.95863   2
  -5   6   1 8.43639 3.25317   2
  -6   1  -1 4.91640 2.53271   1
  -1   6   1 8.07361 2.70096   1
  -6   5   1 6.49876 3.11595   2
  -5   6  -1 7.11458 3.56859   1
   1  -6   1 3.04346 2.95303   2
   5  -6  -1 5.91413 3.16641   2
  -6   5   1 6.26011 3.36724   1
  -6   5   1 11.8493  3.6101   1
   5  -6  -1 2.33308 3.60606   1
   1  -6   1 7.08878 2.88617   1
  -1   6   1 6.29839 2.55554   1
  -5   6  -1 4.71106 3.18493   2
   6  -5   1 2.21053 3.32325   1
  -1  -5  -1 10.0077  2.4466   1
   6  -5   1 11.1740  3.1750   2
  -1  -5  -1 8.34771 2.47180   1
   1  -6   1 3.72497 2.96592   1
  -5   6  -1 8.83153 3.46618   1
   5  -6  -1 7.43599 3.31287   1
   0   6  -1 3.32258 1.82859   1
   0  -6   1 5.90439 2.55031   2
   0   6   1 2.40191 1.88199   1
   6  -6  -1 5.35486 3.26133   2
  -6   6  -1 3.99421 3.22082   2
  -6   6   1 0.37244 3.33539   1
   0  -6  -1 5.18596 2.52740   2
   0   6  -1 5.59120 2.00139   1
  -6   6   1 -3.5422  3.4982   1
   6  -6   1 -0.8969  3.1736   2
  -6   0  -1 1.30889 2.13039   1
   0  -6  -1 -1.0299  2.8877   1
   0   6   1 3.63665 2.05909   1
  -6   6  -1 10.6276  3.5809   1
  -6   6   1 2.26041 3.25117   2
   6  -6  -1 5.59067 3.62568   1
   0  -6   1 1.29276 2.83328   1
  -6   6  -1 -4.3079  3.4110   1
   6  -6   1 2.36301 3.66036   1
  -6   0   1 0.44447 2.11260   1
  -4   7   1 69.1823  5.0012   2
  -7   3   1 69.1997  4.8039   1
  -4   7   1 66.0452  5.2448   1
   3  -7  -1 77.6977  5.2000   2
  -7   3   1 69.1048  4.5659   2
  -3   7  -1 73.3122  5.1896   2
  -3   7  -1 76.5160  5.1657   1
  -3   7  -1 72.9883  5.7576   1
   4  -7   1 69.7897  5.6546   1
   7  -4  -1 70.4380  5.5536   1
   3  -7  -1 73.7738  5.6540   1
   7  -3   1 65.9739  4.9804   1
  -7   4  -1 74.7409  4.9447   2
   4  -7   1 79.2816  5.3074   2
  -4   7   1 76.1143  5.4728   1
  -7   4   1 67.3477  4.8548   2
   4  -7  -1 71.5062  5.2637   2
  -3   7   1 63.2881  5.2250   2
   7  -3  -1 62.6049  5.0244   1
  -7   3  -1 66.3876  5.2404   2
  -7   4   1 69.1954  5.0530   1
  -4   7  -1 74.6902  5.4710   1
  -3   7   1 68.2919  5.1795   1
   3  -7   1 68.2613  5.2105   2
  -4   7  -1 68.6404  5.2717   1
   7  -4   1 74.8407  5.0259   1
   4  -7  -1 73.7436  5.7167   1
   3  -7   1 68.5582  5.5429   1
  -3   7   1 73.5354  5.1839   1
  -4   7  -1 70.7259  4.8938   2
   5  -7   1 14.5308  3.7820   2
  -5   7   1 15.6757  3.4622   2
   5  -7   1 11.8657  4.1489   1
  -2  -5   1 15.6249  2.2528   1
  -5   7   1 8.88884 3.82752   1
  -7   2   1 11.6664  2.5946   2
  -7   5  -1 16.5566  3.6730   1
   2  -7  -1 4.51112 3.66917   1
   7  -2   1 13.7946  2.1666   1
  -2   7  -1 16.3484  3.3324   1
   7  -5  -1 15.5408  3.3310   2
  -7   2   1 9.75408 2.86890   1
  -5   7   1 10.4337  3.8756   1
  -2   7  -1 18.1075  3.1674   1
   7  -5  -1 6.55941 3.56900   1
  -7   5  -1 13.3317  3.5237   2
  -2  -5   1 14.6918  2.2509   1
   2  -7  -1 14.7456  3.5345   2
  -5   7  -1 11.4277  3.8655   1
   7  -5   1 16.3190  3.7535   1
  -7   5   1 14.1769  3.4607   2
  -7   5   1 10.1744  3.5790   1
  -2  -5  -1 12.7747  2.3639   1
  -5   7  -1 10.9715  3.5355   2
  -2   7   1 14.3974  3.3143   1
   5  -7  -1 10.7683  4.0267   1
  -5   7  -1 17.1123  3.9510   1
  -2  -5  -1 14.8044  2.3755   1
  -2   7   1 10.1574  3.1701   1
   7  -2  -1 15.0413  2.1090   1
   2  -7   1 13.0757  3.5455   2
   2  -7   1 7.20254 3.74801   1
   5  -7  -1 13.2836  3.6740   2
  -6   7   1 30.3722  4.5748   1
   6  -7   1 42.1917  4.5671   2
   7  -6  -1 52.1703  4.8584   1
   1  -7  -1 38.3975  3.8861   2
  -1  -6   1 34.0703  2.7315   2
   1  -7  -1 43.7940  4.3462   1
  -1  -6   1 40.5352  3.5173   1
  -1   7  -1 32.8001  3.4195   1
  -7   6  -1 47.9029  4.6782   1
   6  -7   1 37.4421  4.8974   1
  -7   6  -1 36.9107  4.2584   2
   7  -6  -1 49.7683  4.3584   2
  -6   7   1 41.0866  4.4826   2
   1  -7   1 38.4773  3.9674   2
  -6   7  -1 33.0270  4.3293   2
   6  -7  -1 52.3584  4.8267   1
  -1   7   1 43.7850  3.5958   1
  -7   6   1 36.1317  4.2894   2
   1  -7   1 35.6786  4.1362   1
   7  -6   1 35.3431  4.5821   1
  -1  -6  -1 33.9359  2.8566   2
   6  -7  -1 42.0462  4.9285   1
  -1  -6  -1 32.4078  3.5659   1
  -6   7  -1 34.7042  4.5854   1
   7  -6   1 45.8083  4.4081   2
   6  -7  -1 34.4547  4.2989   2
  -7   6   1 42.1639  4.6149   1
   0   7   1 108.954   5.266   1
   0  -7  -1 105.938   6.941   1
  -7   7  -1 101.601   7.554   1
  -7   7   1 98.6491  7.5827   2
   7  -7   1 116.163   7.531   2
   7  -7   1 115.390   7.915   1
  -7   7  -1 109.789   7.251   2
  -7   7   1 97.5749  7.8321   1
   0  -7   1 104.721   6.275   2
   7  -7  -1 108.730   7.900   1
   0  -7   1 111.965   6.923   1
   7  -7  -1 100.201   7.269   2
   0  -7  -1 106.171   6.150   2
   8  -4  -1 -8.3462  3.4449   1
  -4   8   1 8.68924 4.28869   1
  -4   8   1 12.1736  4.2389   1
  -8   4  -1 -0.0062  3.4788   2
   4  -8   1 4.35579 4.06455   2
  -8   4   1 -1.5146  3.5939   1
   8  -4   1 -2.8728  3.3700   1
  -4   8   1 8.74152 3.69856   2
  -4   8  -1 -0.5462  3.3782   2
   4  -8  -1 -2.1845  4.1567   2
  -4   8  -1 1.26297 3.85865   1
  -4   8  -1 5.31273 4.00521   1
   4  -8   1 0.93891 4.40483   1
  -8   4   1 -10.516   3.498   2
   4  -8  -1 -0.3308  4.4253   1
  -8   3   1 -1.9042  3.0573   2
  -3  -5   1 1.84060 1.88133   1
   3  -8  -1 -0.9050  3.8339   2
   8  -5  -1 0.80899 3.60005   1
   5  -8   1 3.96103 4.01098   2
  -8   5  -1 -4.7726  3.4489   1
   5  -8   1 0.23809 4.31403   1
   3  -8  -1 9.05481 4.43956   1
  -5   8   1 -2.3106  3.4876   2
  -5   8   1 -0.4796  4.0229   1
  -3   8  -1 0.64979 3.34949   1
  -3   8  -1 -1.0667  3.4938   1
  -8   5  -1 -0.6401  3.5642   2
  -5   8   1 -2.7545  3.7998   1
  -8   3   1 -5.1247  3.1228   1
   8  -3   1 10.1307  2.8164   1
  -3   8   1 -5.3988  3.3631   1
  -8   5   1 2.99905 3.67133   2
  -8   3  -1 2.06611 3.09427   2
   8  -3  -1 0.73554 2.68480   1
   5  -8  -1 2.78209 3.86680   2
  -3  -5  -1 -1.7222  2.0317   1
   8  -5   1 -0.5695  3.6144   1
   3  -8   1 0.56416 4.06594   1
  -5   8  -1 -1.7690  3.9015   1
  -3   8   1 -5.8919  3.3974   1
  -5   8  -1 3.40853 3.49961   2
  -5   8  -1 1.49977 3.91677   1
   3  -8   1 1.46822 3.89134   2
  -3  -5  -1 0.42845 2.02969   1
   5  -8  -1 2.92336 4.21428   1
  -8   5   1 2.82238 3.62016   1
  -2   8  -1 5.32689 3.07728   1
  -6   8   1 -0.7082  3.6176   2
  -8   6  -1 8.87306 3.74007   2
   8  -6  -1 8.63088 3.57060   2
   2  -8  -1 -1.8171  3.8909   1
  -2  -6   1 10.4397  2.7085   1
  -6   8   1 4.56593 4.14844   1
   8  -6  -1 8.40326 4.00926   1
  -8   2   1 3.89916 2.76531   2
   6  -8   1 8.43037 4.58786   1
  -8   2   1 4.46125 2.90976   1
   6  -8   1 3.69552 3.87624   2
  -8   6  -1 6.33331 3.91224   1
  -2   8  -1 5.80677 3.32279   1
   2  -8  -1 3.21912 3.83727   2
  -8   6   1 1.86995 3.71333   2
  -2   8   1 3.28448 3.23765   1
  -8   6   1 1.38391 3.78467   1
   8  -6   1 5.90091 3.61035   2
   6  -8  -1 9.02959 4.56617   1
   8  -6   1 5.36766 3.95076   1
   2  -8   1 2.81404 3.83884   2
   6  -8  -1 8.62285 4.01020   2
  -6   8  -1 11.4268  4.0075   2
  -6   8  -1 6.18751 4.07876   1
   2  -8   1 6.34911 4.01702   1
  -2   8   1 0.41413 3.18139   1
  -2  -6  -1 5.02837 2.80687   1
   8  -7  -1 -0.8051  3.7132   2
  -8   7  -1 -2.3905  3.9147   1
  -1   8  -1 -0.2773  2.5757   1
  -1  -7   1 0.86967 3.15599   1
   7  -8   1 7.21202 4.11224   2
  -7   8   1 1.76327 4.25878   1
   1  -8  -1 1.66887 3.88540   1
  -8   7  -1 1.37165 1.49793   2
   7  -8   1 -3.9962  4.3726   1
   8  -7  -1 4.64192 4.36094   1
  -1  -7   1 -0.7627  2.6059   2
   1  -8  -1 1.82873 3.61424   2
  -7   8   1 0.02621 3.98447   2
  -1   8  -1 -2.0089  2.7957   1
  -8   7   1 2.69031 2.54898   2
   7  -8  -1 -3.1535  4.4244   1
   8  -7   1 5.00699 4.30620   1
  -7   8  -1 9.52702 4.26871   1
  -7   8  -1 -3.7923  3.9732   2
   1  -8   1 -0.3347  3.6596   2
  -1   8   1 -1.8356  2.6238   1
   8  -7   1 -2.7006  3.9563   2
   1  -8   1 -0.4434  3.7930   1
   7  -8  -1 -2.6399  3.8803   2
  -8   7   1 0.52851 4.08539   1
  -1  -7  -1 -2.0104  2.7053   2
  -1   8   1 0.60331 2.92879   1
  -1  -7  -1 -2.8819  3.1675   1
   8  -8   1 5.84934 4.66453   1
  -8   8   1 4.93278 4.23829   2
  -8   8   1 5.29724 4.60321   1
   8  -8  -1 7.42520 4.68162   1
   0  -8   1 7.01690 3.50708   2
   8  -8  -1 4.17371 4.13508   2
   0  -8   1 -5.8672  3.7108   1
   0  -8  -1 13.6383  3.9766   1
   8  -8   1 7.17065 4.29845   2
   0  -8  -1 2.45844 3.37694   2
  -8   8  -1 5.84786 4.20592   2
  -8   8  -1 0.63803 4.29173   1
   5  -9   1 15.8773  4.6116   2
  -9   4   1 20.5761  3.9215   1
  -9   5  -1 19.3943  4.1673   2
   4  -9  -1 21.6394  5.1247   1
  -5   9   1 11.3815  4.5720   1
   4  -9  -1 14.6817  4.6805   2
   5  -9   1 16.3368  5.1874   1
  -9   5  -1 20.3480  4.1797   1
  -5   9   1 18.4804  4.5364   1
   9  -4   1 18.3520  3.5911   1
  -4   9  -1 17.9601  4.3705   1
  -4   9  -1 14.9944  4.2249   1
  -9   4   1 19.7113  3.9560   2
   9  -5  -1 18.1007  4.1003   1
   9  -5   1 22.5420  4.1279   1
  -4   9   1 17.4085  4.3631   1
  -5   9  -1 14.3558  4.3935   1
   9  -4  -1 23.0270  3.6962   1
  -4   9   1 16.1543  4.2872   1
  -9   4  -1 18.7140  3.8939   2
   4  -9   1 18.0977  5.0671   1
   5  -9  -1 17.8965  4.6645   2
   4  -9   1 22.7545  4.7152   2
  -9   5   1 27.3084  4.2981   2
   5  -9  -1 13.1140  5.0337   1
  -9   5   1 19.0543  4.2370   1
  -5   9  -1 15.6125  4.6533   1
   3  -9  -1 4.19246 4.62413   1
   9  -3   1 1.16529 2.42373   1
   6  -9   1 -8.6742  4.1682   2
  -3  -6   1 -4.4430  2.4079   1
  -3   9  -1 -4.0057  3.5296   1
  -6   9   1 4.72376 4.08707   2
  -9   6  -1 0.61828 3.82894   2
  -3   9  -1 -5.2063  3.5253   1
  -9   3   1 -1.7803  3.2626   1
   9  -6  -1 -5.7386  3.9852   1
   6  -9   1 -0.0356  4.7922   1
  -9   6  -1 4.25322 3.94316   1
  -9   3   1 2.91224 3.30916   2
  -6   9   1 -0.3121  4.2345   1
   3  -9  -1 0.17572 4.19236   2
   9  -6   1 -6.6195  3.9020   1
  -9   3  -1 -3.9670  3.2185   2
  -9   6   1 -1.9125  3.8350   2
  -3  -6  -1 -0.9965  2.6156   1
  -6   9  -1 -0.1698  3.9351   2
  -3   9   1 2.79540 3.60230   1
  -3   9   1 2.23702 3.64197   1
  -6   9  -1 7.58951 4.35751   1
   3  -9   1 0.82470 4.41657   1
   3  -9   1 -1.2155  4.1351   2
   6  -9  -1 -4.9435  4.6047   1
   9  -3  -1 3.87103 2.29740   1
   6  -9  -1 1.41064 4.18846   2
  -9   6   1 0.74730 3.85460   1
  -2   9  -1 -3.3224  3.2594   1
  -9   7  -1 3.10254 4.11339   2
   7  -9   1 -1.4189  4.3043   2
  -2   9  -1 -3.6929  3.0692   1
   7  -9   1 -3.8088  4.7317   1
  -9   7  -1 3.49102 4.22977   1
  -2  -7   1 0.05575 3.08854   1
   2  -9  -1 -2.1644  4.2899   1
  -9   2   1 3.60253 3.03638   1
   9  -7  -1 2.26575 3.85779   2
  -7   9   1 1.76028 4.23059   2
  -7   9   1 1.47719 4.51450   1
  -9   2   1 -0.8579  2.9067   2
   9  -7  -1 4.74476 4.34215   1
   2  -9  -1 1.47441 4.19209   2
  -9   7   1 -4.6656  4.0570   1
   2  -9   1 2.89538 4.44322   1
  -2   9   1 -3.1092  3.2056   1
   7  -9  -1 0.59334 4.12946   2
  -2   9   1 -3.1209  3.4560   1
   2  -9   1 -3.0527  4.1928   2
  -9   7   1 -3.7187  3.8664   2
   9  -7   1 0.57244 4.29959   1
   9  -7   1 3.79994 3.96593   2
  -7   9  -1 2.76043 4.40020   1
  -2  -7  -1 -4.2061  3.0968   1
  -7   9  -1 4.51614 4.27176   2
   7  -9  -1 4.27841 4.81942   1
  -1   9  -1 -2.5727  2.6603   1
  -9   8  -1 -8.5807  4.3017   1
  -1  -8   1 7.99079 3.76736   1
  -9   1   1 2.17106 2.90666   1
   8  -9   1 1.66325 4.93024   1
   9  -8  -1 -2.0232  4.1528   2
   9  -8  -1 -4.9099  4.5661   1
   1  -9  -1 -1.1392  4.3954   1
  -8   9   1 0.24911 4.46906   2
   8  -9   1 2.39384 4.48265   2
  -1   9  -1 -0.0562  2.8108   1
  -8   9   1 3.12904 4.73030   1
   1  -9  -1 -0.5026  4.1092   2
  -1  -8   1 2.38122 3.26315   2
  -9   8  -1 1.46728 3.15970   2
   9  -8   1 6.67932 4.41336   2
   1  -9   1 -6.1331  4.0416   2
  -8   9  -1 -1.4947  4.4974   1
  -1  -8  -1 -0.1905  3.1919   2
   9  -8   1 2.27161 4.75554   1
  -9   8   1 -0.4735  4.5537   1
   1  -9   1 -6.7022  4.2627   1
  -1   9   1 -2.9136  2.7470   1
  -8   9  -1 3.52720 4.27652   2
   8  -9  -1 -1.4704  4.3265   2
  -1  -8  -1 1.34608 3.79707   1
   8  -9  -1 -0.9346  4.8189   1
  -9   8   1 3.35577 2.45760   2
  -1   9   1 1.65153 2.94428   1
  -9   9   1 8.98567 5.11653   1
   0  -9  -1 17.8363  4.4802   1
  -9   9   1 19.3242  5.0798   2
   9  -9   1 10.5986  4.8356   2
   0  -9   1 20.4213  4.5551   1
   9  -9  -1 12.5885  4.7501   2
   0  -9  -1 9.96553 4.06515   2
   9  -9   1 4.38346 5.11708   1
  -9   9  -1 16.4290  5.0001   2
  -9   9  -1 9.80780 4.99342   1
   0  -9   1 12.6293  4.2471   2
   9  -9  -1 6.66302 5.08530   1
   5 -10   1 1.39463 4.66737   2
  -5  10  -1 -0.4355  4.3507   1
   5 -10  -1 3.00406 5.06871   1
  10  -5  -1 -3.7924  3.6089   1
 -10   5  -1 -0.9685  3.8492   2
  10  -5   1 -1.3478  3.6015   1
   5 -10   1 0.03424 4.95547   1
 -10   5   1 -3.3604  3.8526   1
  -5  10   1 1.66313 4.29281   1
   5 -10  -1 -1.0837  4.7529   2
  -5  10  -1 -3.7844  4.2011   1
 -10   5   1 0.89187 4.02045   2
  -5  10   1 -1.4758  4.4078   1
 -10   5  -1 3.66498 3.97589   1
 -10   6  -1 9.95720 4.52404   1
   6 -10   1 9.19356 4.95716   2
  -6  10   1 11.5531  5.0958   1
 -10   6  -1 16.4062  4.5992   2
   4 -10  -1 12.9083  5.1379   2
  -6  10   1 19.5140  4.9720   1
 -10   4   1 11.8460  3.9951   1
   6 -10   1 17.3549  5.7209   1
  10  -6  -1 15.0875  4.5262   1
  10  -4   1 17.5736  3.4510   1
 -10   4   1 9.88174 4.04407   2
  -4  10  -1 11.3470  4.3786   1
   4 -10  -1 7.53881 5.21100   1
  -4  10  -1 11.1488  4.4679   1
  -6  10  -1 19.1169  4.9572   1
   6 -10  -1 10.6940  4.8661   2
  -6  10  -1 3.65627 4.91105   1
  10  -4  -1 15.4695  3.3053   1
  10  -6   1 12.8818  4.3442   1
   4 -10   1 2.23142 5.23163   1
  -4  10   1 1.50750 4.23625   1
 -10   4  -1 15.3291  4.1126   2
   4 -10   1 6.86913 4.89172   2
 -10   6   1 11.2049  4.5388   2
  -4  -6  -1 17.2814  2.8392   1
   6 -10  -1 9.44804 5.47104   1
 -10   4  -1 9.45620 3.93004   1
 -10   6   1 12.0001  4.4544   1
  -4  10   1 6.02221 4.22183   1
   7 -10   1 9.10618 5.46257   1
 -10   7  -1 -0.9358  4.2824   2
  -7  10   1 1.14007 4.47523   2
  -3  10  -1 1.04605 3.92479   1
  -3  10  -1 6.71077 3.76777   1
   3 -10  -1 -1.9739  5.0050   1
 -10   7  -1 8.07782 4.43080   1
  -3  -7   1 6.72571 3.10236   1
   3 -10  -1 5.32586 4.75994   2
   7 -10   1 5.92654 4.72507   2
  10  -7  -1 3.12056 4.44667   1
 -10   3   1 -1.0017  3.5314   2
 -10   3   1 1.43236 3.45491   1
  -7  10   1 -1.5507  4.7263   1
  -3  10   1 3.14715 3.92373   1
  10  -7   1 7.28056 4.61282   1
  -7  10  -1 -1.4270  4.6751   1
   7 -10  -1 9.17709 4.81947   2
  -3  10   1 5.15820 3.90515   1
  -7  10  -1 3.92130 4.42361   2
   7 -10  -1 7.40162 5.35151   1
  -3  -7  -1 -0.9994  3.1285   1
   3 -10   1 3.24204 4.74545   2
 -10   7   1 6.58599 4.31970   2
 -10   7   1 1.67730 4.42249   1
   3 -10   1 9.11249 5.29910   1
 -10   3  -1 1.68479 3.58838   2
 -10   8  -1 -1.4032  4.5413   1
   2 -10  -1 -1.3423  4.6104   2
  -2  -8   1 -3.9108  3.4674   1
  -8  10   1 5.47826 4.70289   2
  -2  10  -1 -0.5994  3.5114   1
   8 -10   1 -5.6151  4.6949   2
   2 -10  -1 -5.1015  4.7560   1
 -10   2   1 -6.3629  3.1585   1
 -10   8  -1 -13.838   4.070   2
 -10   2   1 2.46684 3.25714   2
   8 -10   1 -4.2300  5.3180   1
  10  -8  -1 1.78662 4.70129   1
  -2  10  -1 -2.2632  0.9324   1
  -2  -8   1 0.39292 2.81436   2
  -8  10   1 6.96822 5.00100   1
   2 -10   1 0.09530 4.72649   1
  -2  10   1 -0.9766  0.7841   1
   8 -10  -1 0.13895 4.78243   2
 -10   8   1 -3.6642  4.3038   2
  -2  -8  -1 4.46088 3.04717   2
  10  -8   1 7.54982 4.80522   1
   8 -10  -1 -12.867   5.013   1
  -8  10  -1 2.56281 4.85116   2
  -2  -8  -1 4.08517 3.69520   1
 -10   2  -1 -1.9618  3.2953   2
  -8  10  -1 -1.7087  4.9220   1
   2 -10   1 1.68376 4.72681   2
 -10   8   1 2.19097 4.54805   1
  -2  10   1 1.80575 3.57316   1
  -9  10   1 1.05389 4.96951   1
   9 -10   1 4.42528 4.85344   2
   1 -10  -1 5.22852 4.54250   2
  10  -9  -1 7.19197 5.08753   1
  -9  10   1 -8.8827  4.7658   2
 -10   1   1 -2.9013  3.0390   1
   1 -10  -1 -2.6340  4.8470   1
   9 -10   1 1.44459 5.43736   1
  -1  10  -1 0.16810 2.61941   1
 -10   9  -1 -2.8327  4.7025   1
  10  -9  -1 -1.0877  4.5033   2
  -1  -9   1 5.16567 4.22794   1
 -10   9  -1 -4.0219  4.4563   2
  -1  -9   1 5.01935 3.78931   2
 -10   9   1 1.70999 5.09531   1
   9 -10  -1 -0.9090  4.8296   2
  10  -9   1 -3.2455  4.8870   1
   1 -10   1 -0.2932  4.8148   1
  -1  -9  -1 2.42110 3.68849   2
  -9  10  -1 -2.0958  4.8403   2
  -1  -9  -1 -7.0276  4.0120   1
  -1  10   1 4.76911 2.78668   1
  -1  10   1 -0.3348  2.5426   1
  -9  10  -1 0.63665 4.90950   1
   1 -10   1 1.99440 4.51453   2
 -10   9   1 -5.6287  4.5710   2
   9 -10  -1 3.75898 5.36201   1
  10  -9   1 5.24556 4.95304   2
 -10  10  -1 3.40785 5.02351   1
  10 -10   1 13.4970  5.5806   1
   0 -10  -1 1.17350 4.80220   1
   0 -10   1 0.68201 4.85250   1
 -10  10   1 7.36770 5.48207   1
   0 -10   1 9.40198 4.53541   2
   0 -10  -1 -2.4244  4.3566   2
  10 -10  -1 5.13131 5.48646   1
  -6  11   1 -0.8448  4.8544   1
   6 -11   1 2.41767 5.63450   1
 -11   5   1 1.13792 4.15718   2
   5 -11  -1 -2.6884  5.4087   1
  11  -6  -1 1.60266 4.01324   1
   6 -11   1 -6.8886  5.0516   2
  -5  11  -1 -4.4792  4.4207   1
 -11   6  -1 1.51286 4.32063   2
  11  -5   1 2.35824 3.57402   1
 -11   5   1 -5.8885  3.9546   1
  -6  11   1 -0.7054  4.7684   1
 -11   6  -1 -1.4745  4.1814   1
  -5  11  -1 -3.8196  4.4843   1
   5 -11  -1 3.65879 5.18797   2
  -6  11  -1 -4.9228  4.5334   1
   6 -11  -1 -2.4521  5.4538   1
  -6  11  -1 2.19230 4.85415   1
  11  -6   1 5.93106 4.19013   1
 -11   5  -1 2.13599 4.12529   2
 -11   6   1 0.84382 4.19848   1
  11  -5  -1 2.12334 3.62858   1
   6 -11  -1 -10.972   4.913   2
  -5  11   1 -3.8008  4.5576   1
   5 -11   1 0.32145 5.05548   2
  -5  11   1 -1.0993  4.3789   1
 -11   6   1 3.72212 4.43571   2
 -11   5  -1 2.52689 4.08530   1
   5 -11   1 -9.8265  5.2632   1
 -11   4   1 3.60358 4.05842   1
   4 -11  -1 5.16920 5.23764   2
   7 -11   1 25.0613  5.8676   2
 -11   7  -1 7.26237 4.53450   2
  -7  11   1 14.5761  5.3435   1
 -11   7  -1 4.92263 4.59337   1
   4 -11  -1 4.41769 5.56523   1
 -11   4   1 7.08628 4.24091   2
  11  -7  -1 13.7911  4.7761   1
  -4  11  -1 4.18100 4.38423   1
   7 -11   1 6.90666 5.87345   1
  -4  11   1 5.14719 4.63149   1
 -11   4  -1 10.4232  4.2224   1
   4 -11   1 10.2916  5.3519   2
   7 -11  -1 3.85043 5.31130   2
 -11   4  -1 2.13556 4.14734   2
 -11   7   1 10.6864  4.8570   1
   7 -11  -1 -6.0112  5.5893   1
  11  -7   1 7.85062 4.69289   1
 -11   7   1 9.41214 4.89868   2
   4 -11   1 11.1054  5.7625   1
  -7  11  -1 11.7517  5.1964   1
  11  -8  -1 21.6655  5.5252   1
   8 -11   1 21.5297  6.4906   1
   3 -11  -1 7.31497 5.60095   2
 -11   3   1 13.4609  4.2989   1
 -11   8  -1 23.6293  5.5235   1
   3 -11  -1 21.4100  5.9730   1
  -8  11   1 15.4251  5.7374   1
 -11   8  -1 26.3330  5.3063   2
  -3  11  -1 22.5392  4.5680   1
 -11   3   1 17.3751  4.3920   2
   3 -11   1 32.9866  6.2653   1
 -11   8   1 19.0070  5.4438   2
  11  -8   1 28.5077  5.6581   1
   8 -11  -1 21.9669  6.4742   1
  -8  11  -1 24.8654  5.8392   1
 -11   8   1 16.3238  5.3854   1
 -11   3  -1 27.9513  4.3499   2
   3 -11   1 22.4080  5.6932   2
  -3  11   1 20.1959  4.6618   1
  -2  11  -1 27.0354  3.7924   1
 -11   9  -1 27.6136  5.5238   1
   2 -11  -1 11.7139  5.3282   2
   9 -11   1 11.9156  6.0864   1
 -11   2   1 11.7764  3.8215   2
  -2  -9   1 11.6219  3.7422   2
  11  -9  -1 18.2368  5.4934   1
  -9  11   1 19.3849  5.8164   1
   2 -11  -1 11.4753  5.6683   1
 -11   2  -1 13.2285  3.8713   2
  -9  11  -1 16.5812  5.6897   1
  11  -9   1 21.3499  5.5311   1
  -2  11   1 19.9203  3.8952   1
   9 -11  -1 21.6896  6.2614   1
  -2  -9  -1 18.6679  3.9059   2
 -11   9   1 20.6342  5.7161   1
   2 -11   1 19.0181  5.5647   2
   2 -11   1 22.7365  5.8484   1
 -11   1   1 3.52905 3.29300   2
   1 -11  -1 -3.6852  4.9217   2
  11 -10  -1 0.95867 5.44700   1
  10 -11   1 5.80562 5.81094   1
 -11  10  -1 12.4655  5.3026   1
  -1 -10   1 6.17187 4.27650   2
   1 -11  -1 -10.885   5.221   1
 -10  11   1 6.03275 5.61587   1
 -11  10   1 3.45279 5.69020   1
  10 -11  -1 -3.2665  5.5783   1
   1 -11   1 6.76944 5.04907   2
 -10  11  -1 15.3232  5.7520   1
  11 -10   1 13.2766  5.6539   1
  -1 -10  -1 -2.9431  4.2296   2
 -11  11   1 9.78400 5.85462   1
 -11  11  -1 9.97108 5.70267   1
  11 -11   1 16.5179  5.9648   1
   0 -11   1 15.3855  4.9473   2
   0 -11  -1 3.81829 4.79759   2
  11 -11  -1 12.5218  5.9198   1
   6 -12  -1 -0.1186  5.4433   2
 -12   6   1 -3.6069  4.3311   2
  12  -6   1 6.25144 3.92847   1
  -6  12   1 -8.0839  4.4537   1
  -6  12  -1 3.86876 4.83441   1
   6 -12   1 -1.7565  5.7374   1
  12  -6  -1 -0.8707  3.8655   1
   6 -12  -1 -2.2472  5.6831   1
 -12   6   1 -1.2099  4.1991   1
   6 -12   1 -2.9436  5.4470   2
 -12   6  -1 4.97382 4.53164   1
 -12   6  -1 0.82425 4.51187   2
   7 -12   1 -4.7435  5.7857   1
   5 -12  -1 -4.9615  5.3598   2
  -7  12   1 -4.6839  4.9503   1
 -12   7  -1 4.76172 4.60105   2
  12  -7  -1 -2.1213  4.3374   1
 -12   5   1 -5.8083  4.1387   1
  12  -5   1 -2.1476  3.0869   1
   5 -12  -1 -6.7790  5.4379   1
  -5  12  -1 1.15988 4.60144   1
 -12   5   1 -6.5325  4.2315   2
 -12   7  -1 -7.1783  4.4519   1
  12  -7   1 0.53710 4.33541   1
  -5  12   1 -3.2370  4.4744   1
   5 -12   1 -4.6860  5.5849   1
   5 -12   1 -1.3388  5.3006   2
 -12   7   1 2.94996 4.73858   1
  -7  12  -1 -12.261   4.692   1
 -12   5  -1 -3.8407  4.1637   2
   7 -12  -1 -0.9305  5.7541   1
 -12   5  -1 -4.7002  4.1404   1
 -12   7   1 5.78608 4.84332   2
  12  -5  -1 2.42156 3.04080   1
 -12   8  -1 3.16942 4.81300   1
  -4  12  -1 8.79538 4.53913   1
  -8  12   1 1.87255 5.33620   1
   8 -12   1 7.32239 6.02474   1
 -12   4   1 10.7142  4.2776   2
  12  -8  -1 9.31064 5.04111   1
   4 -12  -1 4.17010 5.38121   2
   4 -12  -1 1.44113 5.73602   1
  -8  12  -1 3.04307 5.18799   1
  12  -8   1 9.20295 4.95305   1
  -4  12   1 3.80293 4.41244   1
 -12   8   1 1.77757 4.81832   1
 -12   4  -1 7.93740 4.27310   2
   4 -12   1 11.0111  5.5205   2
   4 -12   1 8.94697 5.78399   1
   8 -12  -1 2.03717 5.89528   1
  12  -9  -1 4.41594 4.99611   1
   9 -12   1 9.95201 6.08188   1
  -9  12   1 4.60121 5.38737   1
 -12   3   1 9.39867 4.02971   2
  -3  -9   1 11.0582  3.1837   2
  -3  12  -1 7.83981 4.08113   1
 -12   9  -1 5.63930 5.03209   1
   3 -12  -1 6.73302 5.31935   2
   3 -12  -1 5.84515 5.65523   1
  -3  12   1 2.32733 3.98573   1
   3 -12   1 11.2283  5.5768   2
 -12   9   1 6.26304 5.22034   1
  -9  12  -1 19.7318  5.7791   1
  -3  -9  -1 7.87343 3.33956   2
   9 -12  -1 7.28949 5.94005   1
   3 -12   1 5.25314 5.67325   1
 -12   3  -1 12.0644  4.1489   2
  12  -9   1 5.29753 5.09104   1
 -12   2   1 -4.0315  3.6439   2
   2 -12  -1 -0.7200  5.0759   2
 -10  12   1 1.54425 5.58653   1
 -12  10  -1 1.20560 5.02695   1
  -2 -10   1 -2.3884  3.8187   2
  12 -10  -1 0.09716 5.10545   1
  -2  12  -1 3.14029 3.12069   1
  10 -12   1 1.30444 5.73573   1
  10 -12  -1 1.82852 5.79938   1
 -10  12  -1 1.97046 5.65388   1
  -2  12   1 -0.2115  3.2230   1
 -12   2  -1 -1.5125  3.6651   2
  12 -10   1 -3.4858  5.1326   1
  -2 -10  -1 1.78137 3.76155   2
   2 -12   1 3.20770 5.20062   2
 -12  10   1 5.67666 5.50787   1
 -11  12   1 7.06338 5.84457   1
  12 -11  -1 -3.4185  5.4628   1
   1 -12  -1 6.42576 5.20663   2
 -12   1   1 -6.2376  3.4269   2
  11 -12   1 3.66022 5.90072   1
 -12  11  -1 0.87881 5.40919   1
  -1 -11   1 -2.5989  4.4370   2
  11 -12  -1 -7.5062  5.6120   1
  12 -11   1 3.29434 5.60461   1
 -11  12  -1 5.12335 5.75442   1
   1 -12   1 1.12357 5.20714   2
  -1 -11  -1 -0.7426  4.5427   2
 -12  11   1 1.62431 5.58665   1
   0 -12  -1 -2.1973  5.1961   2
   0 -12   1 7.85784 5.20280   2
  12 -12  -1 8.22260 6.23358   1
  12 -12   1 7.39999 6.12823   1
 -12  12  -1 -0.5127  5.7865   1
 -12  12   1 -0.3451  5.8846   1
  -7  13   1 -6.9513  4.8371   1
  13  -6   1 -0.6934  3.6255   1
   7 -13   1 3.23276 6.21898   1
 -13   7  -1 6.82635 4.95548   1
   6 -13  -1 -5.0039  6.1406   1
 -13   6   1 -1.5764  4.6120   2
  13  -7  -1 2.11044 4.20163   1
  -6  13  -1 -3.7968  4.7480   1
 -13   6  -1 0.68907 4.61282   2
   6 -13   1 -7.0979  6.0601   1
  13  -6  -1 2.45317 3.48855   1
 -13   7   1 7.58482 4.92146   1
   7 -13  -1 2.77889 6.35495   1
  -6  13   1 -3.9712  4.7071   1
  -7  13  -1 -1.4425  5.0511   1
  13  -7   1 -1.1609  4.0667   1
 -13   8  -1 12.1296  5.1512   1
   5 -13  -1 12.9486  6.0029   2
 -13   5   1 14.5520  4.6909   2
  13  -8  -1 0.29229 4.60787   1
   8 -13   1 13.6331  6.4928   1
   5 -13  -1 0.59109 6.03690   1
  -8  13   1 17.6778  5.8361   1
  -5  13  -1 4.49411 4.55319   1
 -13   8   1 8.53928 4.99303   1
   8 -13  -1 10.8567  6.3257   1
   5 -13   1 -2.5555  6.1181   1
 -13   5  -1 6.02013 4.58235   2
   5 -13   1 9.68072 5.81906   2
  13  -8   1 13.4290  5.0069   1
  -5  13   1 6.25006 4.77461   1
  -8  13  -1 4.83463 5.24629   1
   4 -13  -1 -2.1648  5.8141   1
 -13   9  -1 3.97195 5.11825   1
 -13   4   1 2.52308 4.33494   2
  -4  13  -1 -2.5946  4.1745   1
   4 -13  -1 4.24043 5.57414   2
  13  -9  -1 1.17263 4.88025   1
   9 -13   1 0.78302 6.21019   1
  -9  13   1 3.76286 5.53859   1
 -13   4  -1 -3.2378  4.3811   2
  -9  13  -1 -1.5256  5.3990   1
 -13   9   1 0.94846 5.28429   1
  13  -9   1 3.97332 5.19860   1
  -4  13   1 -6.2498  4.2250   1
   4 -13   1 -1.4704  6.0037   1
   4 -13   1 16.6429  5.9347   2
   9 -13  -1 -3.3109  5.8143   1
  13 -10  -1 0.40931 5.20953   1
 -13  10  -1 -2.0970  5.0868   1
  -3 -10   1 1.28696 3.60034   2
  10 -13   1 1.07962 6.18480   1
 -13   3   1 -4.9889  3.9840   2
  -3  13  -1 -0.9012  3.7733   1
   3 -13  -1 7.16626 5.76625   2
 -10  13   1 -4.1069  5.7354   1
 -13   3  -1 0.83926 4.28846   2
  13 -10   1 10.3749  5.4988   1
 -10  13  -1 0.14222 5.64296   1
  -3 -10  -1 1.27452 3.70501   2
  10 -13  -1 0.86792 6.16647   1
   3 -13   1 -5.1006  5.5824   2
  -3  13   1 1.62559 3.83114   1
 -13  10   1 1.55704 5.69736   1
  -2 -11   1 8.69864 4.44533   2
   2 -13  -1 1.14671 5.55459   2
 -13   2   1 3.40002 4.00039   2
 -11  13   1 -10.752   5.600   1
  13 -11  -1 -1.2059  5.5119   1
 -13  11  -1 5.91790 5.61693   1
  11 -13   1 4.82939 6.19850   1
 -13  11   1 7.66529 5.88051   1
  13 -11   1 0.85042 5.55079   1
 -11  13  -1 -0.0508  5.7972   1
 -13   2  -1 10.1185  4.1131   2
  -2 -11  -1 4.28643 4.24441   2
   2 -13   1 10.4250  5.7318   2
  11 -13  -1 -10.624   5.731   1
  13 -12  -1 5.69529 6.22876   1
  -1 -12   1 -1.0225  4.8378   2
   1 -13  -1 9.61371 5.61549   2
 -13   1   1 2.82710 3.85250   2
 -13  12  -1 12.7839  6.2852   1
  12 -13   1 6.85690 6.31705   1
 -12  13   1 11.9121  6.3941   1
 -13  12   1 23.2654  6.5694   1
  13 -12   1 -1.6529  5.9158   1
  12 -13  -1 10.4440  6.3906   1
   1 -13   1 7.51948 5.63802   2
 -13   1  -1 2.98701 3.86323   2
  -1 -12  -1 7.61342 4.96743   2
 -12  13  -1 9.00916 6.18107   1
   0 -13  -1 9.34041 5.54611   2
  13 -13  -1 7.73711 6.50077   1
 -13  13   1 6.07579 6.39820   1
  13 -13   1 5.07014 6.23227   1
   0 -13   1 15.4946  5.7161   2
 -13  13  -1 11.7146  6.4969   1
  -7  14  -1 13.6837  5.6231   1
   7 -14   1 4.67597 6.90202   1
  14  -7  -1 8.22370 4.13820   1
   7 -14  -1 3.78668 7.07128   1
  -7  14   1 -1.9360  5.4270   1
  14  -7   1 9.78608 4.26179   1
  14  -8  -1 7.59006 4.70389   1
   8 -14   1 2.01270 6.48951   1
  -6  14  -1 10.7516  5.0355   1
   6 -14  -1 -7.4069  6.4286   1
  -8  14   1 -1.4596  5.4174   1
   8 -14  -1 -9.5677  6.1846   1
  -8  14  -1 6.20567 5.46513   1
  14  -8   1 9.26859 4.74597   1
  -6  14   1 15.3147  5.2616   1
   6 -14   1 1.82779 6.59499   1
  -5  14  -1 -1.8557  4.5687   1
 -14   5   1 -0.1780  4.6704   2
   5 -14  -1 8.31799 6.65881   1
   9 -14   1 -6.7193  6.2926   1
 -14   9  -1 4.56374 5.20134   1
  -9  14   1 -2.3297  5.5028   1
  14  -9  -1 -0.7935  4.8207   1
 -14   5  -1 -4.8733  4.6834   2
   5 -14   1 1.74637 6.47240   1
  14  -9   1 -0.0562  4.8599   1
  -9  14  -1 7.76892 5.62946   1
 -14   9   1 1.29950 5.57565   1
  -5  14   1 5.42283 4.89168   1
   9 -14  -1 -3.6299  6.3619   1
  14 -10  -1 -6.1208  5.1064   1
 -14  10  -1 4.98704 5.49071   1
  -4 -10   1 0.81822 3.37118   2
 -10  14   1 -0.4563  5.7544   1
  10 -14   1 13.5317  6.8753   1
 -14   4   1 -4.7410  4.5547   2
  -4  14  -1 6.44683 4.48129   1
  -4  14   1 -0.1658  4.3858   1
 -10  14  -1 1.02286 5.81559   1
  14 -10   1 1.33835 5.31955   1
 -14   4  -1 2.44495 4.72670   2
 -14  10   1 4.75149 5.83692   1
  10 -14  -1 -11.547   6.176   1
  -4 -10  -1 1.96277 3.64832   2
  14 -11  -1 10.6867  5.9487   1
  11 -14   1 -7.2331  6.3915   1
 -14   3   1 6.71918 4.60282   2
   3 -14  -1 3.00212 6.08068   2
 -11  14   1 6.16152 6.30657   1
  -3  14  -1 7.93282 3.60737   1
 -14  11  -1 7.47303 5.88850   1
  -3 -11   1 2.92547 4.23575   2
  -3  14   1 0.37849 3.52429   1
 -11  14  -1 17.7026  6.3831   1
  -3 -11  -1 2.34021 4.21072   2
  14 -11   1 4.93802 5.75469   1
  11 -14  -1 5.79731 6.80277   1
   3 -14   1 -1.6592  5.9692   2
 -14  11   1 0.25215 6.12294   1
 -14   3  -1 4.41023 4.67579   2
   2 -14  -1 8.93861 6.17135   2
 -14   2   1 6.30861 4.46171   2
  12 -14   1 -0.8047  6.6448   1
  -2 -12   1 8.79250 5.03595   2
 -14  12  -1 5.16751 6.29672   1
 -12  14   1 4.92261 6.26484   1
  14 -12  -1 15.5992  6.3231   1
  -2 -12  -1 7.65328 5.03142   2
  14 -12   1 3.89778 6.05964   1
 -12  14  -1 15.5880  6.5404   1
 -14  12   1 10.8174  6.5819   1
 -14   2  -1 6.04561 4.48686   2
  12 -14  -1 0.96410 6.56116   1
   2 -14   1 14.1050  6.2203   2
  13 -14   1 2.46564 6.58988   1
 -13  14   1 -0.5325  6.3954   1
 -14   1   1 -1.0788  4.1597   2
  -1 -13   1 0.42612 5.49858   2
 -14  13  -1 -0.2709  6.3324   1
   1 -14  -1 2.55650 6.03693   2
  14 -13  -1 -0.4447  6.3368   1
 -13  14  -1 -6.0829  6.1670   1
  -1 -13  -1 5.59268 5.46893   2
  14 -13   1 0.18054 6.26838   1
   1 -14   1 6.20829 6.08636   2
  13 -14  -1 5.47069 6.78781   1
 -14   1  -1 4.62446 4.24314   2
 -14  13   1 1.21879 6.44544   1
 -14   0   1 0.70737 4.05730   2
  14 -14  -1 5.40974 6.95020   1
 -14   0  -1 5.25149 4.19066   2
 -14  14  -1 -0.9040  6.8273   1
  14 -14   1 1.38928 6.74296   1
   0 -14  -1 2.69356 5.98960   2
 -14  14   1 4.00422 6.94676   1
   0 -14   1 -4.9171  5.9664   2
   7 -15  -1 2.88776 6.91192   1
   8 -15   1 -6.8432  6.9228   1
  -7  15  -1 7.85134 5.36287   1
  -8  15   1 18.4976  6.0459   1
  15  -8  -1 1.31801 4.23432   1
   7 -15   1 -6.6673  6.5517   1
  -8  15  -1 9.03959 5.76855   1
   8 -15  -1 0.31898 6.76167   1
  -7  15   1 3.84794 5.45044   1
  15  -8   1 -1.2252  4.3751   1
  15  -9  -1 3.38241 5.00574   1
   9 -15   1 -0.9327  7.0465   1
  -9  15   1 7.89534 5.90789   1
  -6  15  -1 11.3641  5.4714   1
   9 -15  -1 10.3630  7.3136   1
  -6  15   1 14.0349  5.4968   1
  -9  15  -1 12.1157  6.1016   1
  15  -9   1 2.78894 4.92262   1
 -10  15   1 12.8651  6.4553   1
  -5  15  -1 14.0354  5.1526   1
  15 -10  -1 6.19787 5.50437   1
  10 -15   1 11.1405  7.2130   1
  15 -10   1 4.37795 5.47601   1
  10 -15  -1 1.52817 6.93591   1
  -5  15   1 4.17436 4.97773   1
 -10  15  -1 10.5432  6.4404   1
 -11  15   1 15.0273  6.8872   1
 -15  11  -1 7.16816 6.31210   1
  -4 -11   1 2.03586 4.42723   2
  -4  15  -1 5.25919 4.28647   1
  11 -15   1 3.51199 7.14987   1
  15 -11  -1 -1.8419  5.6682   1
 -11  15  -1 9.17030 6.42519   1
  -4  15   1 6.94827 4.54506   1
  11 -15  -1 2.43898 7.24204   1
 -15  11   1 0.81012 6.48880   1
  -4 -11  -1 4.37019 4.32933   2
  15 -11   1 9.77422 6.21260   1
  12 -15   1 0.50500 7.12203   1
 -15   3   1 2.49148 4.88439   2
  -3 -12   1 -4.8734  4.8579   2
  15 -12  -1 -1.9917  5.9044   1
 -12  15   1 -11.649   6.112   1
 -15  12  -1 4.52078 6.68871   1
 -12  15  -1 -9.3007  6.3339   1
 -15   3  -1 5.76082 5.03948   2
  -3 -12  -1 -2.8160  4.8118   2
  15 -12   1 -1.4493  6.1625   1
 -15  12   1 12.0852  6.8536   1
  12 -15  -1 -1.4909  7.0898   1
  -2 -13   1 -8.5628  5.1515   2
  13 -15   1 3.86807 7.04829   1
 -15  13  -1 -2.4889  6.6152   1
 -13  15   1 -8.5307  6.5126   1
  15 -13  -1 -3.0917  6.4760   1
 -15   2   1 4.51192 4.79593   2
 -15   2  -1 7.82183 4.84436   2
  13 -15  -1 -4.0709  7.0028   1
  15 -13   1 -0.3804  6.3895   1
 -13  15  -1 5.20180 7.05180   1
 -15  13   1 -0.9332  6.5960   1
  -2 -13  -1 -13.452   5.148   2
 -15   1   1 2.13260 4.64210   2
  -1 -14   1 6.65936 6.09119   2
 -14  15   1 -9.6167  6.9014   1
 -15  14  -1 1.28586 6.96173   1
 -14  15  -1 7.08008 7.23273   1
 -15   1  -1 -0.8595  4.7115   2
   1 -15   1 -7.9216  6.3207   2
 -15  14   1 -8.0996  7.0071   1
  -1 -14  -1 6.27462 5.86959   2
   8 -16  -1 0.42827 7.58672   1
   8 -16   1 8.13337 7.83987   1
  -8  16   1 11.3108  6.1486   1
  -8  16  -1 1.02592 5.77463   1
   9 -16   1 -0.3459  7.6245   1
  -9  16   1 8.21669 6.29096   1
  -7  16  -1 3.84884 5.70537   1
  16  -9  -1 0.99243 4.54687   1
  16  -9   1 0.93790 4.77500   1
  -9  16  -1 5.96464 6.08054   1
  -7  16   1 -0.6382  5.6894   1
   9 -16  -1 0.66135 7.71972   1
  -6  16  -1 4.97327 5.42737   1
 -10  16   1 -13.508   5.961   1
  10 -16   1 3.88191 7.50197   1
  16 -10  -1 5.10850 5.39959   1
 -10  16  -1 -5.0743  6.3038   1
  -6  16   1 1.19831 5.37260   1
  16 -10   1 -2.3144  5.2397   1
  10 -16  -1 -0.1146  7.4663   1
  11 -16   1 -4.2869  7.3025   1
  16 -11  -1 1.18306 5.92281   1
 -11  16   1 4.49122 6.68309   1
  -5 -11   1 -4.8503  3.9892   2
  -5  16  -1 -7.5446  4.7506   1
  11 -16  -1 -1.7350  7.3939   1
  -5  16   1 -2.2721  4.8137   1
 -11  16  -1 6.33842 6.65180   1
  16 -11   1 -6.0684  5.6911   1
  -5 -11  -1 -1.4964  4.1527   2
 -12  16   1 4.43415 7.02331   1
  -4 -12   1 -5.9628  4.7374   2
  12 -16   1 -2.8734  7.6624   1
  16 -12  -1 -2.1140  6.0682   1
  16 -12   1 -3.1383  6.2682   1
  12 -16  -1 -8.5710  7.2365   1
 -12  16  -1 -1.5815  6.7322   1
  -4 -12  -1 -2.3062  4.7110   2
  -3 -13   1 -0.3695  5.2147   2
 -16  13  -1 -8.8207  6.7395   1
 -16  13   1 7.76655 7.34075   1
  -3 -13  -1 -0.6577  5.3303   2
   9 -17   1 5.06208 8.14351   1
   9 -17  -1 -2.7241  8.0434   1
  -7  17  -1 -5.7321  5.6428   1
  17 -10  -1 2.61410 5.02565   1
  10 -17   1 -12.036   7.649   1
  -7  17   1 -0.4887  5.7377   1
  17 -10   1 3.51654 5.28359   1
  10 -17  -1 -5.1578  7.8291   1
  -1   0  -2 1863.75   72.78   1
   0   1  -2 1900.85   72.15   2
  -1   1   2 1881.41   72.41   1
   0   1  -2 1850.18   71.96   2
   1   0  -2 1906.36   72.17   2
   1   0   2 1892.46   72.49   1
   0  -1  -2 1925.12   72.32   2
   0   1  -2 1901.75   72.36   1
  -1   0   2 1951.37   72.65   1
  -1   0  -2 1917.24   72.55   1
  -1   0   2 1901.65   72.61   1
   0  -1   2 1819.12   72.30   1
   0  -1   2 1849.25   71.88   2
   1   0  -2 1946.53   72.63   1
  -1   0   2 1893.22   72.12   2
  -1   1  -2 1941.07   72.05   1
   1   0   2 1827.39   72.43   1
   0  -1   2 1948.58   72.12   2
  -1   1   2 1923.76   72.40   1
   1  -1  -2 1887.38   72.52   1
   0  -1  -2 1909.11   72.57   1
   1  -1  -2 1928.56   72.10   2
   0   1   2 1915.66   72.29   2
   0   1   2 1911.27   72.30   1
   1  -1   2 1921.46   72.13   1
   1  -1  -2 1946.92   72.87   1
   0  -1  -2 1897.32   72.50   1
   0   1   2 1929.52   72.62   1
   1  -2   2 854.801  33.220   2
   1  -2  -2 834.680  33.451   1
  -1  -1  -2 870.125  33.342   1
  -1   2  -2 864.365  33.191   2
  -1  -1   2 876.684  33.421   1
  -1  -1  -2 878.654  33.404   1
   1  -2  -2 855.903  33.400   1
   2  -1  -2 926.350  33.467   1
  -2   1  -2 877.256  33.396   1
  -1   2   2 869.581  33.454   1
  -2   1   2 917.541  33.455   1
   2  -1  -2 881.399  33.170   2
  -1   2   2 858.037  33.449   1
   1   1   2 873.665  33.470   1
  -2   1   2 892.229  33.203   2
   1  -2   2 855.082  33.436   1
  -1   2   2 889.155  33.226   2
   1   1  -2 874.106  33.757   1
   2  -1   2 848.039  33.392   1
  -1   2  -2 895.964  33.422   1
  -2   1   2 908.115  33.434   1
   2  -1  -2 865.366  33.369   1
   1  -2  -2 886.299  33.236   2
   0  -2   2 1379.05   52.72   2
   2  -2   2 1420.79   52.72   2
   0   2  -2 1366.35   52.91   1
  -2   2   2 1439.42   53.08   1
   0  -2   2 1387.30   52.73   2
   2  -2  -2 1422.78   53.45   2
  -2   2   2 1425.77   53.04   1
   2  -2  -2 1389.34   53.06   1
   0   2  -2 1421.51   53.35   2
   0  -2  -2 1374.64   52.97   1
   2   0   2 1381.40   53.09   1
   0   2   2 1339.04   52.92   1
  -2   0  -2 1424.96   53.31   1
   2  -2  -2 1416.01   53.02   1
   0  -2  -2 1413.59   52.93   1
   2  -2   2 1370.48   53.02   1
   2   0  -2 1374.34   53.16   1
   0   2  -2 1385.85   53.25   2
  -2   2  -2 1413.21   53.01   1
  -2   0   2 1406.42   52.98   1
   0  -2   2 1401.95   52.95   1
  -2   0   2 1377.50   52.99   1
   0  -2  -2 1414.83   53.25   2
   0   2   2 1413.71   53.61   1
  -3   2  -2 236.583   9.991   1
   2  -3   2 230.101  10.089   1
   1   2   2 232.618   9.189   1
   3  -2  -2 232.083   9.845   1
   1   2   2 218.406   9.172   1
  -3   1   2 235.472   9.747   1
  -1  -2   2 234.045   9.306   1
  -2   3   2 226.437  10.005   1
  -2   3   2 236.781  10.114   1
  -3   1   2 237.428   9.650   1
   3  -1   2 241.844   9.638   1
  -3   1   2 236.698   9.340   2
  -1   3  -2 230.030   9.478   2
   1  -3  -2 217.350   9.868   1
   1  -3  -2 234.336   9.615   2
  -2  -1  -2 231.620   9.225   1
  -2  -1  -2 236.493   9.274   1
   2  -3   2 231.937   9.780   2
   1  -3  -2 227.446   9.837   1
  -1   3  -2 231.957   9.790   1
  -2   3   2 227.377   9.690   2
   3  -2  -2 232.545   9.905   1
  -3   2  -2 229.082   9.616   2
   3  -2  -2 246.290   9.579   2
  -1   3  -2 223.031   9.765   1
   2  -3  -2 227.230   9.753   2
  -1   3   2 231.030   9.907   1
  -1   3   2 228.426   9.773   1
  -1  -2  -2 233.755   9.370   1
   2  -3  -2 239.611  10.119   1
   1  -3   2 224.983   9.657   2
  -2   3  -2 231.117   9.794   2
   2  -3  -2 229.196   9.969   1
  -1  -2  -2 238.538   9.403   1
  -3   1  -2 239.719   9.761   1
  -3   2   2 231.379   9.690   2
  -1   3   2 238.898   9.564   2
   3  -1  -2 244.988   9.599   1
  -3   2   2 246.259  10.026   1
  -3   2   2 220.697   9.827   1
   3  -1  -2 229.559   9.472   1
   1  -3   2 223.234   9.911   1
  -2   3  -2 228.842  10.090   1
   3  -2   2 229.205   9.886   1
   0   3   2 2111.08   80.58   1
   3  -3  -2 2124.53   79.31   2
  -3   3   2 2080.35   79.78   1
  -3   3   2 2163.49   79.82   1
   0  -3  -2 2164.07   79.91   2
   0  -3   2 2006.77   80.12   1
   0  -3   2 2018.29   79.54   2
  -3   0  -2 2082.51   79.57   1
   3  -3  -2 2187.16   79.78   1
   3  -3  -2 2137.10   79.83   1
   0   3   2 2010.43   79.53   1
  -3   3  -2 2224.43   79.84   1
   3  -3   2 2218.30   79.37   2
   3  -3   2 2113.09   79.80   1
   0  -3  -2 2130.11   79.59   1
  -3   0   2 2125.89   79.68   1
  -3   0   2 2137.48   79.90   1
   0  -3  -2 2039.67   79.61   1
   0   3  -2 2026.30   79.95   1
  -2   4  -2 313.809  12.748   2
   2  -4   2 299.633  12.844   2
  -2   4   2 303.339  13.005   1
  -2   4   2 306.844  13.122   1
  -4   2   2 313.400  12.604   2
  -2  -2  -2 313.123  12.147   1
   4  -2   2 307.544  12.845   1
   4  -2  -2 309.869  12.252   2
   2  -4  -2 302.676  13.097   1
  -2   4  -2 311.691  13.056   1
  -4   2  -2 332.834  13.048   1
  -2  -2  -2 305.612  12.163   1
  -2   4  -2 294.947  13.075   1
   4  -2  -2 319.230  12.720   1
  -4   2   2 297.799  12.838   1
   2  -4  -2 299.497  13.172   1
  -4   2   2 322.556  13.004   1
   2  -4   2 304.217  13.150   1
   4  -2  -2 316.267  12.819   1
  -2   4   2 313.939  12.718   2
   2  -4  -2 308.731  12.833   2
   4  -3  -2 2473.29   97.12   1
  -3   4   2 2705.19   97.24   1
   3  -4   2 2625.74   97.22   1
   1  -4  -2 2449.81   96.98   1
  -4   1   2 2714.84   96.96   1
   4  -1   2 2741.20   97.04   1
  -1   4  -2 2382.35   97.73   1
   1  -4  -2 2395.14   97.35   2
  -4   3  -2 2427.75   96.53   2
   3  -4   2 2802.71   97.89   2
  -3   4   2 2656.64   97.25   1
  -3  -1  -2 2464.90   97.43   1
   4  -3  -2 2493.32   96.49   2
  -1   4  -2 2342.96   96.32   2
  -4   1   2 2697.23   96.80   2
  -1  -3   2 2547.57   96.86   1
  -3   4   2 2669.76   96.65   2
   1  -4  -2 2334.42   97.00   1
  -1  -3   2 2640.30   97.58   1
  -4   1   2 2844.42   97.00   1
  -4   3  -2 2629.93   97.17   1
   4  -3  -2 2557.02   97.08   1
  -1   4  -2 2373.06   96.94   1
   1  -4   2 2393.15   96.47   2
   3  -4  -2 2491.79   97.19   1
  -1   4   2 2363.26   96.96   1
   3  -4  -2 2687.54   96.66   2
   4  -3   2 2436.96   97.09   1
  -4   3   2 2546.02   97.13   1
  -3   4  -2 2844.94   97.29   1
   1  -4   2 2430.76   97.00   1
  -4   3   2 2593.72   97.16   1
  -4   3   2 2419.05   96.56   2
  -3   4  -2 2731.36   96.67   2
  -4   1  -2 2905.36   97.62   1
  -3   4  -2 2576.65   97.18   1
  -1  -3  -2 2742.39   97.26   1
   3  -4  -2 2747.25   97.23   1
   4  -1  -2 2754.45   97.83   1
  -1   4   2 2567.58   97.34   2
  -1  -3  -2 2484.64   96.89   1
  -1   4   2 2471.91   96.97   1
  -4   0   2 355.147  14.305   1
  -4   4   2 355.266  15.147   1
   4  -4   2 385.817  15.005   2
  -4   4  -2 376.060  14.827   2
  -4   0  -2 372.668  14.445   1
   4  -4  -2 379.929  15.308   1
   0  -4  -2 344.634  14.744   1
   0  -4   2 358.165  14.725   1
   4  -4  -2 383.104  15.248   1
   0   4   2 351.785  14.486   1
   0  -4  -2 358.460  14.716   1
   4  -4   2 358.168  15.351   1
   0  -4   2 368.057  14.400   2
  -4   4   2 383.233  15.422   1
   0  -4  -2 375.254  14.439   2
  -4   4  -2 390.686  15.451   1
   0   4  -2 337.392  14.371   1
  -4   0   2 369.411  14.364   1
   0  -4   2 354.161  14.688   1
   4  -4  -2 372.699  14.854   2
  -5   2   2 465.260  17.589   1
   5  -2   2 443.592  17.322   1
  -2  -3   2 421.920  16.779   1
  -5   3  -2 435.894  17.372   2
   5  -3  -2 445.477  17.116   2
  -5   2   2 439.027  17.150   2
  -5   2   2 442.853  17.461   1
  -2   5  -2 411.380  17.579   1
   3  -5   2 424.602  17.552   2
   2  -5  -2 438.371  17.485   2
   5  -3  -2 442.531  17.635   1
  -3   5   2 452.781  17.978   1
  -3   5   2 442.487  17.463   2
  -5   3  -2 450.168  17.781   1
   2  -5  -2 419.993  17.732   1
  -2   5  -2 438.356  17.189   2
   3  -5   2 437.366  17.922   1
   2  -5  -2 416.294  17.779   1
  -2   5  -2 442.986  17.623   1
  -3   5   2 433.095  17.754   1
   2  -5   2 423.639  17.501   2
   2  -5   2 418.926  17.773   1
  -2   5   2 445.459  17.742   1
  -3   5  -2 438.669  17.497   2
  -2   5   2 427.319  17.616   1
   5  -2  -2 446.819  17.337   1
   3  -5  -2 427.150  17.945   1
  -5   3   2 452.326  17.762   1
   3  -5  -2 440.370  17.877   1
  -2  -3  -2 427.875  16.869   1
  -5   2  -2 467.614  17.658   1
  -5   3   2 447.018  17.438   2
  -2  -3  -2 452.400  16.932   1
  -3   5  -2 436.961  17.878   1
   3  -5  -2 417.665  17.553   2
   5  -3   2 421.988  17.614   1
  -5   3   2 424.373  17.616   1
  -2   5   2 446.625  17.298   2
  -3   5  -2 423.793  17.776   1
   1  -5  -2 281.872  12.042   1
  -1   5  -2 271.834  11.702   1
  -5   4  -2 283.040  11.977   2
  -5   4  -2 274.426  12.503   1
   5  -4  -2 297.797  12.162   1
   1  -5  -2 266.375  12.008   1
  -1  -4   2 274.273  11.404   1
   5  -4  -2 287.516  11.825   2
   4  -5   2 273.833  11.992   2
   1  -5  -2 276.801  11.654   2
   4  -5   2 289.360  12.435   1
   5  -4  -2 290.364  12.216   1
  -1  -4   2 271.464  11.404   1
  -5   1   2 289.654  11.536   1
  -1   5  -2 262.193  11.672   1
  -5   1   2 289.625  11.694   1
   5  -1   2 281.612  11.152   1
  -4   5   2 294.910  12.387   1
  -5   1   2 275.687  11.050   2
  -4   5   2 302.131  12.627   1
  -4   5   2 289.014  11.986   2
   5  -1   2 276.464  11.110   1
  -1   5  -2 282.111  11.007   2
   4  -5  -2 295.404  12.357   1
   1  -5   2 265.679  11.910   1
  -5   4   2 281.199  11.989   2
   1  -5   2 271.632  11.724   2
  -1   5   2 270.590  11.721   1
   5  -4   2 286.421  11.902   2
  -5   4   2 291.468  12.491   1
  -5   1  -2 300.767  11.796   1
  -1  -4  -2 294.855  11.499   1
  -1   5   2 264.860  11.747   1
  -4   5  -2 301.665  12.489   1
  -5   4   2 282.009  12.302   1
   4  -5  -2 283.692  12.469   1
  -4   5  -2 282.100  12.055   2
  -1  -4  -2 270.674  11.461   1
   5  -4   2 277.049  12.290   1
  -1   5   2 291.360  11.173   2
   1  -5   2 264.534  11.848   1
   4  -5  -2 278.632  12.029   2
  -4   5  -2 266.319  12.164   1
   0  -5   2 1290.24   50.49   1
   0   5  -2 1241.58   50.21   1
   0   5   2 1288.59   50.28   1
   0  -5   2 1306.66   50.49   1
   5  -5  -2 1435.49   51.05   1
   0  -5  -2 1284.51   50.54   1
  -5   5   2 1324.06   50.97   1
   5  -5   2 1293.21   50.96   1
  -5   0  -2 1366.33   50.28   1
   0   5  -2 1322.50   50.21   1
  -5   5  -2 1331.57   50.55   2
   0  -5  -2 1340.61   50.11   2
   0   5   2 1254.29   50.23   1
   5  -5  -2 1318.50   51.00   1
  -5   0   2 1351.50   50.23   1
   0  -5  -2 1320.96   50.53   1
  -5   5   2 1379.47   50.57   2
  -5   5  -2 1312.55   50.95   1
   5  -5  -2 1350.42   50.49   2
  -5   5   2 1395.95   51.15   1
   5  -5   2 1366.92   50.55   2
  -5   0   2 1320.01   50.20   1
  -5   5  -2 1379.47   51.11   1
   0  -5   2 1300.46   50.07   2
   6  -3  -2 3061.89  117.02   1
   3  -6   2 2949.38  117.27   1
  -6   3   2 3130.20  116.44   2
  -3   6  -2 3011.44  117.20   1
   3  -6   2 3037.58  116.62   2
  -6   3  -2 3010.58  116.39   2
   3  -6  -2 3082.60  117.29   1
  -3   6   2 3020.59  117.22   1
  -3   6  -2 3097.91  117.22   1
   3  -6  -2 3074.05  116.64   2
  -3   6  -2 3187.94  116.49   2
  -3   6   2 3145.52  116.49   2
  -6   3  -2 3259.47  117.23   1
  -6   3   2 3193.16  117.14   1
   3  -6  -2 3051.77  117.36   1
   6  -3   2 3138.93  117.06   1
  -6   3   2 3291.04  117.22   1
  -3   6   2 3153.37  117.29   1
  -2  -4   2 2.48896 1.67341   1
  -6   4  -2 0.12305 2.91123   2
  -2   6  -2 -0.4470  2.6910   1
   2  -6  -2 8.77519 3.31610   1
  -2   6  -2 0.73417 2.25516   2
  -4   6   2 -0.1493  3.2475   1
  -2  -4   2 -1.9622  1.6839   1
  -6   2   2 3.37349 2.50322   1
   4  -6   2 -0.0670  3.1745   2
   2  -6  -2 -1.3169  2.9151   1
  -6   4  -2 -1.8959  3.0294   1
  -6   2   2 0.88651 2.82435   1
  -6   2   2 -1.0201  2.3158   2
   6  -2   2 1.79479 2.32426   1
   6  -4  -2 10.5045  3.2576   1
  -2   6  -2 -0.7528  2.8101   1
   4  -6   2 1.65138 3.53509   1
  -4   6   2 4.07988 3.32834   1
   2  -6  -2 1.61530 2.96614   2
   6  -4  -2 -1.4847  2.4665   2
  -4   6   2 0.35383 2.98097   2
   4  -6  -2 1.29025 3.20711   1
  -6   4   2 -0.1059  2.9717   2
  -2  -4  -2 2.89893 1.89340   1
  -2   6   2 2.27597 2.85707   1
  -4   6  -2 4.37379 2.94836   2
  -4   6  -2 0.09239 3.18822   1
  -2   6   2 5.14721 2.41671   2
  -4   6  -2 1.98399 3.16305   1
   4  -6  -2 1.26534 3.12618   2
  -6   4   2 2.32540 3.06600   1
   6  -2  -2 1.68519 2.21478   1
   6  -4   2 -0.9758  3.0499   1
  -2   6   2 -0.0674  2.8731   1
  -2  -4  -2 3.72386 1.93265   1
   2  -6   2 0.36221 3.13716   1
  -6   4   2 0.72046 3.09004   1
   4  -6  -2 -2.1492  3.4266   1
   2  -6   2 3.31751 3.05354   2
  -6   2  -2 -2.4988  2.6853   1
  -6   5  -2 14.7553  3.6055   1
   6  -5  -2 18.0235  3.5213   1
  -1  -5   2 19.1875  2.6975   1
  -5   6   2 19.9514  3.5444   2
   1  -6  -2 19.3369  3.5076   1
   5  -6   2 23.8703  3.6879   2
  -1   6  -2 21.1851  2.9693   1
  -6   1   2 19.3968  2.5852   1
   6  -5  -2 23.9740  3.8157   1
  -5   6   2 27.8484  4.1579   1
  -5  -1  -2 21.8455  2.0344   1
  -1  -5   2 17.6562  2.6433   1
  -6   1   2 20.5748  2.9150   1
  -5   6   2 12.4263  3.6890   1
  -6   5  -2 18.9869  3.7359   1
   1  -6  -2 23.0304  3.2812   2
  -1   6  -2 17.3736  2.7478   1
   6  -5  -2 22.3100  3.3059   2
   5  -6   2 17.8191  3.9835   1
  -6   5  -2 21.9745  3.5822   2
  -1   6   2 18.7466  3.0155   1
  -1  -5  -2 20.4165  2.7803   1
   5  -6  -2 23.6788  4.0567   1
   6  -5   2 17.7694  3.7747   1
   5  -6  -2 18.0235  3.7563   1
   1  -6   2 18.4629  3.4812   1
  -1  -5  -2 17.2637  2.1898   2
   1  -6   2 13.6131  3.1970   2
  -6   5   2 20.0916  3.5673   2
  -5   6  -2 17.9493  3.7797   1
  -6   5   2 24.9334  3.9434   1
   5  -6  -2 18.3317  3.4725   2
  -5   6  -2 24.6054  3.8506   1
  -6   5   2 20.6325  3.8213   1
  -5   6  -2 23.5608  3.6256   2
   6  -5   2 17.6668  3.4128   2
  -1  -5  -2 16.4674  2.7477   1
  -6   1  -2 20.6286  2.9628   1
  -1   6   2 19.8745  2.8902   1
   6  -6   2 297.718  13.489   1
   0   6  -2 286.106  11.910   1
   6  -6   2 327.020  13.157   2
   6  -6  -2 299.995  12.962   2
   6  -6  -2 312.748  13.509   1
   0   6   2 284.168  12.013   1
  -6   0   2 304.710  12.097   1
   0  -6   2 275.809  12.600   1
   0  -6  -2 291.896  12.731   1
  -6   6   2 292.763  13.394   1
   0  -6  -2 304.430  12.245   2
   0  -6   2 267.500  12.198   2
  -6   6   2 302.582  13.053   2
  -6   0  -2 316.053  12.260   1
   0   6   2 301.527  12.037   1
  -6   0   2 298.865  11.975   1
  -6   6  -2 307.381  13.111   2
   0   6  -2 278.728  11.897   1
   6  -6  -2 316.083  13.517   1
  -6   6  -2 303.313  13.415   1
   4  -7   2 1213.78   46.52   2
   4  -7   2 1174.81   46.97   1
  -3   7  -2 1234.51   46.10   2
  -4   7   2 1220.30   46.96   1
  -3   7  -2 1163.59   46.66   1
  -7   3   2 1205.24   46.53   1
  -3   7  -2 1232.80   46.72   1
   3  -7  -2 1192.24   46.89   1
  -4   7   2 1247.03   46.38   2
  -7   3   2 1238.78   46.17   2
   7  -4  -2 1207.53   46.60   1
  -4   7   2 1190.52   46.81   1
  -7   4  -2 1238.36   46.32   2
   7  -4  -2 1274.51   45.87   2
   3  -7  -2 1212.21   46.48   2
   7  -3   2 1216.55   46.33   1
   3  -7   2 1181.56   46.44   2
  -7   4   2 1212.68   46.33   2
   4  -7  -2 1217.24   46.58   2
  -3   7   2 1282.91   46.20   2
  -3   7   2 1150.73   46.66   1
  -4   7  -2 1181.25   46.81   1
  -3  -4  -2 1227.55   45.90   1
   3  -7   2 1127.94   46.81   1
  -7   3  -2 1200.44   46.10   2
  -7   4   2 1218.68   46.72   1
   4  -7  -2 1202.29   47.02   1
  -4   7  -2 1222.85   46.92   1
   7  -4   2 1198.16   46.57   1
  -3   7   2 1226.21   46.80   1
  -4   7  -2 1235.12   46.35   2
   7  -3  -2 1234.02   46.34   1
   5  -7   2 714.737  28.942   2
   2  -7  -2 742.193  29.156   1
  -7   2   2 694.226  28.189   2
   5  -7   2 703.303  29.365   1
  -7   2   2 714.196  28.608   1
  -5   7   2 700.485  29.241   1
  -2  -5   2 692.016  28.179   1
  -2  -5   2 705.762  28.199   1
   2  -7  -2 796.352  28.841   2
   7  -5  -2 784.918  29.194   1
  -7   5  -2 794.892  28.891   2
  -2   7  -2 738.799  28.757   1
   7  -2   2 708.239  28.138   1
   7  -5  -2 816.736  28.611   2
  -2   7  -2 741.814  28.778   1
  -5   7   2 732.924  28.944   2
  -5   7   2 735.715  29.525   1
   5  -7  -2 707.656  28.958   2
  -2  -5  -2 689.976  28.249   1
   5  -7  -2 703.591  29.329   1
  -5   7  -2 767.222  29.567   1
  -5   7  -2 688.950  29.202   1
  -5   7  -2 749.319  28.953   2
   2  -7   2 710.526  29.060   1
  -2   7   2 720.120  28.793   1
   2  -7   2 758.481  28.763   2
  -2  -5  -2 738.734  28.310   1
  -2   7   2 741.253  28.947   1
  -7   5   2 746.336  29.160   1
  -7   5   2 788.167  28.917   2
   7  -2  -2 732.392  28.124   1
   7  -5   2 785.843  29.190   1
   1  -7  -2 259.019  11.884   1
  -7   1   2 264.423  11.120   1
   7  -6  -2 254.537  12.227   1
   7  -6  -2 267.863  11.730   2
  -6   7   2 258.574  12.377   1
  -7   6  -2 259.448  12.248   1
   6  -7   2 268.624  12.054   2
  -1  -6   2 257.629  11.224   1
  -1  -6   2 254.309  10.614   2
  -7   6  -2 268.508  11.841   2
   6  -7   2 262.792  12.453   1
  -6  -1  -2 276.936  10.673   1
  -6   7   2 264.827  11.991   2
  -1   7  -2 250.709  11.131   1
   1  -7  -2 241.864  11.342   2
  -7   6   2 271.062  11.937   2
  -1   7   2 247.527  11.166   1
  -6   7  -2 279.963  12.062   2
  -6   7  -2 246.467  12.131   1
  -7   6   2 254.924  12.334   1
  -1  -6  -2 257.690  11.320   1
   6  -7  -2 267.836  11.964   2
   6  -7  -2 304.980  12.826   1
   6  -7  -2 251.725  12.340   1
   7  -6   2 273.754  12.019   2
   1  -7   2 264.447  11.545   2
   1  -7   2 253.560  11.875   1
   7  -6   2 271.188  12.342   1
  -1   7   2 249.052  11.217   1
  -1  -6  -2 258.988  10.702   2
   0  -7   2 1930.95   74.07   2
  -7   7  -2 2014.86   74.69   2
   7  -7  -2 1933.99   75.30   1
   7  -7  -2 2156.36   75.43   1
  -7   7   2 2016.04   74.77   2
   7  -7  -2 2066.42   74.65   2
   0  -7   2 1926.93   74.65   1
   0   7   2 1914.73   74.07   1
  -7   7   2 1948.74   75.29   1
   7  -7   2 1963.42   75.29   1
   0   7   2 1928.09   74.16   1
  -7   0   2 1951.66   74.17   1
   0  -7  -2 1897.08   74.04   2
   0   7  -2 1890.93   74.09   1
   0  -7  -2 1915.87   74.70   1
  -7   7  -2 1920.60   75.24   1
   7  -7   2 2048.05   74.69   2
  -8   4   2 3583.22  133.87   2
  -8   4  -2 3491.48  133.80   2
   8  -4  -2 3574.47  134.46   1
  -4   8   2 3695.15  133.90   2
  -4   8   2 3566.13  134.85   1
   4  -8  -2 3568.64  134.14   2
   4  -8  -2 3530.79  135.01   1
  -4   8  -2 3469.14  134.77   1
  -8   4   2 3640.80  134.69   1
   4  -8   2 3584.35  134.15   2
   8  -4   2 3645.79  134.49   1
  -4   8  -2 3647.20  134.84   1
  -4   8   2 3435.94  134.75   1
   4  -8   2 3491.09  134.97   1
   3  -8  -2 538.515  23.865   1
   5  -8   2 568.092  24.161   1
   3  -8  -2 578.979  23.624   2
  -8   3   2 600.210  23.470   1
   8  -3   2 573.886  22.939   1
  -5   8   2 583.753  24.010   1
   8  -5  -2 592.536  23.723   1
  -3  -5   2 582.052  22.563   1
  -5   8   2 614.846  24.357   1
  -5   8   2 617.217  23.604   2
   5  -8   2 582.122  23.784   2
  -8   5  -2 580.388  23.444   2
  -8   3   2 588.963  23.106   2
  -3   8  -2 555.342  23.527   1
  -3  -5   2 581.616  22.563   1
  -3   8  -2 580.617  23.675   1
  -5   8  -2 600.193  23.576   2
   5  -8  -2 595.250  23.802   2
   3  -8   2 570.906  24.009   1
  -5   8  -2 636.657  24.293   1
  -3   8   2 538.047  23.535   1
   8  -3  -2 597.671  22.972   1
  -8   3  -2 591.921  23.090   2
  -8   5   2 595.948  23.526   2
  -5   8  -2 567.036  23.911   1
  -8   5   2 588.467  23.823   1
   5  -8  -2 559.130  24.164   1
   3  -8   2 579.436  23.569   2
  -3   8   2 600.950  23.901   1
  -3  -5  -2 586.336  22.662   1
  -3  -5  -2 621.112  22.730   1
   8  -5   2 592.512  23.703   1
   8  -6  -2 284.410  12.554   2
  -6   8   2 302.746  13.478   1
  -2   8  -2 255.727  12.335   1
  -2  -6   2 286.595  11.961   1
   2  -8  -2 268.379  13.113   1
  -8   2   2 303.821  12.422   1
   6  -8   2 306.839  13.814   1
   8  -6  -2 272.467  13.077   1
  -2   8  -2 275.609  12.474   1
  -8   6  -2 272.397  13.163   1
  -8   2   2 296.546  11.905   2
   2  -8  -2 284.869  12.755   2
   6  -8   2 311.370  13.291   2
  -6   8   2 298.302  13.196   2
  -8   6  -2 278.959  12.958   2
  -6   8  -2 299.601  13.404   1
  -6   8  -2 306.183  13.109   2
   6  -8  -2 270.896  13.498   1
  -8   6   2 269.255  13.210   1
   6  -8  -2 298.453  13.153   2
  -2  -6  -2 284.596  12.073   1
  -2   8   2 267.529  12.510   1
  -2   8   2 267.349  12.608   1
   2  -8   2 284.651  13.262   1
   8  -6   2 267.815  13.212   1
   2  -8   2 275.473  12.760   2
  -8   6   2 291.172  13.021   2
  -8   1   2 402.023  16.315   1
   8  -7  -2 430.881  17.032   2
  -1   8  -2 378.485  16.124   1
   7  -8   2 422.684  17.445   2
   1  -8  -2 416.680  17.216   1
  -1  -7   2 382.178  15.917   2
  -8   7  -2 414.509  17.499   1
   7  -8   2 385.834  17.782   1
  -1   8  -2 366.466  16.127   1
   1  -8  -2 374.121  16.562   2
  -1  -7   2 393.051  16.566   1
  -7   8   2 402.604  17.321   2
  -7   8   2 421.312  17.748   1
   8  -7  -2 410.203  17.564   1
   7  -8  -2 409.367  17.267   2
  -1  -7  -2 400.608  16.043   2
  -1  -7  -2 396.940  16.623   1
  -8   7   2 428.092  17.756   1
  -1   8   2 385.920  16.132   1
  -7   8  -2 414.392  17.638   1
   8  -7   2 380.425  17.447   1
  -7   8  -2 408.297  17.317   2
   8  -7   2 435.952  17.258   2
   7  -8  -2 403.437  17.798   1
   1  -8   2 404.560  17.156   1
   1  -8   2 394.655  16.754   2
  -1   8   2 385.655  16.271   1
  -8   0   2 276.267  11.759   1
   0  -8  -2 264.250  12.133   2
   0  -8  -2 286.453  12.909   1
  -8   8   2 292.277  13.506   2
  -8   8  -2 276.931  13.433   1
   8  -8   2 290.206  13.451   2
   8  -8  -2 267.430  13.587   1
   8  -8  -2 284.448  13.113   2
   0  -8   2 264.901  12.226   2
  -8   8  -2 289.616  13.156   2
  -8   8   2 292.191  13.540   1
   8  -8   2 278.465  13.663   1
   0  -8   2 269.865  12.764   1
   4  -9  -2 174.320   9.764   2
  -4   9  -2 171.126   9.378   1
  -5   9   2 161.009   9.535   1
   4  -9  -2 170.829  10.161   1
  -9   5  -2 172.823   9.253   2
   9  -4   2 166.661   8.480   1
   9  -5  -2 169.025   9.081   1
   5  -9   2 173.749  10.262   1
  -4   9  -2 179.315   9.951   1
   5  -9   2 170.486   9.701   2
  -5   9   2 179.580  10.667   1
  -9   4   2 169.079   8.975   2
  -9   4   2 172.492   9.256   1
  -9   4  -2 182.477   8.947   2
  -9   5   2 176.697   9.622   1
  -9   5   2 163.087   9.215   2
   9  -4  -2 181.801   8.711   1
   5  -9  -2 160.878   9.762   2
   5  -9  -2 173.601  10.245   1
   4  -9   2 160.327   9.608   2
  -5   9  -2 164.622   9.604   1
   4  -9   2 170.358  10.220   1
  -4   9   2 162.577   9.986   1
   9  -5   2 175.421   9.170   1
  -4   9   2 163.787   9.388   1
  -5   9  -2 172.865  10.293   1
  -3   9  -2 -2.4687  3.5810   1
   6  -9   2 3.45847 4.94305   1
   3  -9  -2 -4.5519  4.2232   1
  -3   9  -2 -1.9679  3.6016   1
  -9   3   2 -2.6964  3.2319   1
  -9   6  -2 2.92870 3.96418   2
  -3  -6   2 1.14560 2.52245   1
   3  -9  -2 1.80888 4.32605   2
   9  -3   2 -3.0626  2.5231   1
   9  -6  -2 2.96212 4.07839   1
  -6   9   2 3.21109 4.44007   1
  -6   9   2 -4.2116  3.9109   2
  -9   3   2 0.56431 3.35194   2
   6  -9   2 -5.2824  4.2307   2
  -9   6  -2 0.49420 4.03994   1
  -9   3  -2 0.95788 3.39117   2
   9  -6   2 1.22366 4.07430   1
  -6   9  -2 0.58193 3.98607   2
  -3   9   2 3.28113 3.73703   1
   3  -9   2 1.37349 4.52420   1
   9  -3  -2 1.55185 2.32799   1
  -6   9  -2 -0.1460  4.1215   1
  -9   6   2 -1.2458  3.8080   2
   6  -9  -2 -3.4317  4.6790   1
  -3  -6  -2 -2.5494  2.7390   1
   6  -9  -2 -3.3309  4.1550   2
  -9   6   2 -2.1701  3.7443   1
   3  -9   2 -4.7684  4.1215   2
  -3   9   2 1.26390 3.60098   1
  -2   9  -2 -3.1764  3.3562   1
   2  -9  -2 6.43982 4.27799   2
   7  -9   2 -4.0997  4.9049   1
  -7   9   2 -1.0132  4.5261   1
  -2  -7   2 4.15067 3.07945   1
  -9   7  -2 -1.1170  3.9671   2
   9  -7  -2 -1.8845  4.2491   1
  -9   7  -2 -1.5065  4.2728   1
   9  -7  -2 -3.4688  3.6671   2
   7  -9   2 -3.3246  4.2453   2
   2  -9  -2 6.10836 4.52783   1
  -9   2   2 -0.2913  3.0431   2
  -7   9   2 -6.3788  4.2147   2
  -9   2   2 4.99906 3.14462   1
  -2   9  -2 2.46188 3.21789   1
   9  -7   2 3.67446 4.41723   1
  -2   9   2 -0.2630  3.5306   1
   2  -9   2 1.86071 4.39820   1
  -2  -7  -2 6.97581 3.30843   1
  -9   7   2 0.64016 4.36352   1
  -2  -7  -2 -0.2982  2.4680   2
  -7   9  -2 1.39293 4.17532   2
   7  -9  -2 -3.3269  4.7619   1
   7  -9  -2 3.49119 4.16840   2
  -9   7   2 -9.5619  4.0029   2
  -7   9  -2 -0.8583  4.3976   1
  -2   9   2 -2.3832  3.2992   1
   2  -9   2 2.87501 4.18670   2
  -8   9   2 261.920  12.957   2
  -1  -8   2 259.152  12.057   1
   8  -9   2 304.273  13.253   2
  -1   9  -2 255.585  11.135   1
  -9   8  -2 274.234  12.436   2
  -8   9   2 268.539  13.286   1
   8  -9   2 255.541  13.328   1
  -9   1   2 257.537  11.533   1
   9  -8  -2 264.241  13.121   1
  -1  -8   2 244.055  11.317   2
   9  -8  -2 284.126  12.767   2
   1  -9  -2 249.530  12.010   2
   1  -9  -2 255.669  12.651   1
  -1   9  -2 252.695  11.136   1
  -9   8  -2 263.944  13.030   1
  -9   1   2 241.292  10.672   2
  -9   8   2 227.776  11.787   2
  -1   9   2 263.440  11.233   1
   1  -9   2 256.736  12.225   2
  -1  -8  -2 255.261  11.373   2
  -1   9   2 264.948  11.331   1
  -1  -8  -2 266.057  12.094   1
  -8  -1   2 250.433  10.829   1
   8  -9  -2 283.370  12.917   2
   9  -8   2 255.580  13.124   1
  -8   9  -2 261.055  13.069   1
  -9   8   2 263.276  13.262   1
   1  -9   2 253.575  12.691   1
   8  -9  -2 261.040  13.350   1
   9  -8   2 274.989  12.982   2
  -8   9  -2 284.319  13.141   2
   9  -9   2 46.5047  5.8258   2
   0  -9  -2 35.4352  5.1798   1
  -9   9  -2 51.2052  5.7665   2
  -9   0   2 39.2870  3.6482   1
  -9   9   2 37.8375  5.6763   2
  -9   9   2 32.5742  5.8733   1
   0  -9   2 43.9922  4.7787   2
   9  -9  -2 43.3621  5.5454   2
  -9   9  -2 38.3080  5.7284   1
   9  -9  -2 37.4280  6.0324   1
   9  -9   2 37.1383  6.0332   1
   0  -9   2 40.6206  5.1927   1
   0  -9  -2 40.7385  4.6692   2
 -10   5   2 33.1465  4.7867   1
 -10   5   2 32.4474  4.6925   2
  -5  10   2 31.2562  5.0492   1
   5 -10  -2 34.9810  5.9946   1
   5 -10   2 27.5731  5.8424   1
  -5  10  -2 24.2087  4.9727   1
   5 -10   2 31.9495  5.5419   2
 -10   5  -2 36.8575  4.8287   2
  -5  10   2 36.4422  5.4773   1
  10  -5  -2 37.4136  4.4568   1
  10  -5   2 29.0455  4.3976   1
   5 -10  -2 19.2642  5.2172   2
  -5  10  -2 29.9659  4.9939   1
 -10   6  -2 454.968  18.560   2
 -10   4   2 438.843  18.053   2
  -4  10  -2 441.810  18.690   1
 -10   4   2 424.303  18.338   1
   6 -10   2 437.363  18.946   2
  -4  10  -2 410.248  18.308   1
 -10   6  -2 427.303  18.723   1
  -6  10   2 415.622  18.886   1
   4 -10  -2 423.611  19.178   1
  -4  -6   2 439.060  17.048   1
   6 -10   2 415.067  19.384   1
   4 -10  -2 429.602  18.786   2
  10  -6  -2 436.189  18.376   1
  10  -4   2 432.578  17.479   1
  10  -4  -2 432.210  17.413   1
   6 -10  -2 419.131  18.799   2
  -4  -6  -2 453.023  17.214   1
  -4  10   2 402.136  18.346   1
 -10   6   2 441.726  18.428   2
 -10   4  -2 428.888  17.971   2
  -4  10   2 442.755  19.017   1
   6 -10  -2 426.486  19.377   1
   4 -10   2 427.739  18.667   2
   4 -10   2 400.725  19.046   1
  10  -6   2 431.535  18.408   1
  -6  10  -2 414.863  18.809   1
  -6  10  -2 450.500  19.500   1
 -10   6   2 427.627  18.681   1
  -7  10   2 84.9034  6.7044   2
   3 -10  -2 78.3920  6.9599   1
  10  -7  -2 88.0564  6.6182   1
  -7  10   2 73.9553  6.8476   1
   7 -10   2 87.7754  7.5518   1
 -10   7  -2 76.2924  6.3118   2
  -3  -7   2 70.3143  5.6076   1
   7 -10   2 64.1199  6.6391   2
   3 -10  -2 76.9917  6.5742   2
 -10   3   2 78.4717  5.6374   1
 -10   7  -2 73.7875  6.5567   1
 -10   3   2 79.5176  5.4672   2
  -3  10  -2 70.5047  5.7301   1
  -3  10  -2 72.7245  5.8718   1
   7 -10  -2 75.7972  7.3118   1
  -7  10  -2 92.4776  6.6940   2
  -3  10   2 74.3247  5.9240   1
 -10   3  -2 74.0159  5.4117   2
 -10   7   2 74.7913  6.4511   2
  10  -7   2 79.7830  6.7028   1
   7 -10  -2 77.9746  6.6992   2
  -3  10   2 77.6633  5.9496   1
  -3  -7  -2 79.4511  5.9404   1
 -10   7   2 89.1953  6.8701   1
   3 -10   2 77.7785  7.1443   1
   3 -10   2 70.7693  6.5861   2
  -7  10  -2 67.5970  6.7268   1
  10  -8  -2 40.7114  5.8242   1
  -2  -8   2 48.3411  4.5385   1
 -10   8  -2 41.2828  5.4445   2
  -2  -8   2 37.6352  3.6762   2
  -8  10   2 43.4488  5.9891   2
 -10   2   2 43.9957  4.4048   1
   2 -10  -2 42.7747  5.9186   1
 -10   2   2 33.6797  4.0669   2
   2 -10  -2 36.7894  5.3733   2
  -8  10   2 36.0561  5.9307   1
   8 -10   2 37.5512  6.4321   1
 -10   8  -2 49.2183  5.8074   1
   8 -10   2 27.4810  5.6945   2
  -2  10  -2 37.3185  4.2731   1
  -8  10  -2 39.4507  5.8664   1
   8 -10  -2 45.1269  6.4720   1
  -2  -8  -2 40.5121  3.9349   2
  -2  10   2 44.0704  4.5310   1
   2 -10   2 38.8394  5.5043   2
 -10   8   2 43.6790  5.9162   1
   2 -10   2 44.8754  5.9883   1
 -10   8   2 35.0778  5.4381   2
   8 -10  -2 41.8105  5.6925   2
  -2  -8  -2 42.8762  4.6643   1
  -8  10  -2 41.6892  5.8210   2
  10  -8   2 36.3733  5.7922   1
   1 -10  -2 27.8872  5.1591   2
  10  -9  -2 29.6697  5.8828   1
  -1  -9   2 30.8839  4.8912   1
  -1  10  -2 35.5045  3.3672   1
 -10   1   2 28.9225  3.4745   2
  10  -9  -2 37.0762  5.3487   2
   9 -10   2 31.3246  6.2353   1
  -9  10   2 40.6077  6.2699   1
 -10   1   2 28.7983  3.8254   1
  -1  10  -2 34.5968  3.2555   1
  -9  10   2 37.6455  5.7251   2
   1 -10  -2 39.7043  5.7383   1
 -10   9  -2 37.4778  5.4265   2
  -1  -9   2 32.8120  4.5499   2
 -10   9  -2 44.2756  5.9619   1
  -1  10   2 35.6443  3.4263   1
  -9  10  -2 37.0908  5.9021   1
  -1  -9  -2 31.7303  4.4006   2
  10  -9   2 42.1727  5.7604   2
  -9  10  -2 41.7357  5.7266   2
   1 -10   2 35.1446  5.7169   1
 -10   9   2 37.4097  5.6263   2
 -10   9   2 35.9997  5.8917   1
  10  -9   2 30.6001  5.9003   1
  -1  10   2 37.9607  3.6211   1
   1 -10   2 37.3083  5.3105   2
  -1  -9  -2 49.1048  5.1839   1
   9 -10  -2 21.1492  5.9537   1
  10 -10  -2 146.886  10.220   1
 -10  10   2 157.368  10.466   1
   0 -10  -2 153.033   8.656   2
 -10  10  -2 155.977  10.092   1
   0 -10   2 157.061   9.696   1
  10 -10   2 156.105  10.283   1
   0 -10  -2 148.995   9.598   1
   0 -10   2 128.380   8.710   2
  11  -5   2 14.5356  4.0151   1
 -11   6  -2 25.6482  4.9852   1
   6 -11   2 20.6065  6.1767   1
  11  -6  -2 16.8541  4.5014   1
 -11   5   2 23.6883  4.7033   1
   5 -11  -2 14.8468  5.4954   2
  -5  11  -2 18.2831  4.9782   1
  -6  11   2 16.6005  5.4751   1
 -11   5   2 19.5198  4.6255   2
   5 -11  -2 17.3089  5.9085   1
  -5  11  -2 19.9279  4.8756   1
  -6  11   2 12.9549  5.0002   1
 -11   6  -2 22.2007  4.8277   2
   6 -11   2 20.5951  5.7059   2
  11  -6   2 28.7350  4.7444   1
  -6  11  -2 18.0908  5.0876   1
   5 -11   2 20.3676  6.0484   1
 -11   5  -2 20.5574  4.6896   2
  -5  11   2 17.4257  5.2047   1
 -11   6   2 13.0976  4.8048   2
  11  -5  -2 15.8716  3.8506   1
 -11   6   2 15.3839  4.6967   1
 -11   5  -2 19.0514  4.5886   1
   6 -11  -2 12.1105  5.8266   1
  -5  11   2 19.6388  5.0370   1
  -6  11  -2 18.5954  5.2591   1
   6 -11  -2 14.5120  5.3697   2
   5 -11   2 14.5430  5.5970   2
   4 -11  -2 273.252  14.427   2
 -11   7  -2 308.263  14.485   1
 -11   4   2 285.387  13.772   1
   7 -11   2 308.940  15.246   1
 -11   7  -2 302.772  14.123   2
  11  -7  -2 306.819  14.028   1
  -4  11  -2 295.074  13.664   1
  -7  11   2 278.872  14.441   1
   7 -11   2 307.128  14.508   2
   4 -11  -2 284.609  14.833   1
 -11   4   2 289.683  13.470   2
  11  -4   2 299.664  12.118   1
 -11   7   2 303.484  14.441   1
   7 -11  -2 290.518  14.530   2
  -4  11   2 281.341  13.700   1
   4 -11   2 294.211  14.330   2
   4 -11   2 300.775  14.884   1
  -7  11  -2 281.067  14.433   1
  11  -7   2 303.785  13.992   1
 -11   4  -2 286.653  13.333   2
 -11   7   2 303.380  14.123   2
   7 -11  -2 273.303  14.887   1
 -11   8  -2 799.770  31.960   1
   3 -11  -2 792.071  32.050   1
  -8  11   2 774.670  32.129   1
 -11   8  -2 801.736  31.503   2
   8 -11   2 764.597  32.317   1
   3 -11  -2 785.960  31.475   2
 -11   3   2 782.473  31.070   1
  11  -8  -2 788.829  31.690   1
 -11   3   2 766.820  30.574   2
  -3  11  -2 714.742  30.692   1
  11  -8   2 787.811  31.705   1
   3 -11   2 784.639  31.512   2
  -8  11  -2 767.524  32.015   1
   8 -11  -2 748.067  32.254   1
 -11   8   2 830.832  32.218   1
 -11   8   2 792.994  31.665   2
   3 -11   2 803.713  32.068   1
 -11   3  -2 774.941  30.528   2
  -3  11   2 731.303  30.864   1
   9 -11   2 225.854  12.800   1
  -2  -9   2 213.358  10.290   2
  -9  11   2 210.411  12.518   1
  11  -9  -2 229.912  12.275   1
  -2  11  -2 224.602  10.355   1
 -11   9  -2 239.551  12.569   1
   2 -11  -2 217.474  12.351   1
 -11   2   2 222.613  10.474   2
   2 -11  -2 210.788  11.820   2
   9 -11  -2 234.813  12.949   1
  -2  11   2 207.503  10.389   1
   2 -11   2 234.057  12.583   1
  -9  11  -2 239.649  12.552   1
 -11   9   2 221.825  12.699   1
  11  -9   2 235.492  12.294   1
  -2  -9  -2 214.118  10.294   2
   2 -11   2 240.904  11.976   2
 -10  11   2 601.980  25.500   1
 -11   1   2 554.367  22.821   2
  11 -10  -2 575.830  25.111   1
 -11  10  -2 616.588  25.177   1
  -1 -10   2 555.954  23.499   2
  10 -11   2 582.758  25.425   1
   1 -11  -2 575.143  24.060   2
  10 -11  -2 609.516  25.510   1
 -11  10   2 588.336  25.387   1
   1 -11   2 596.375  24.194   2
  -1 -10  -2 551.956  23.434   2
  11 -10   2 591.455  25.136   1
 -10  11  -2 611.402  25.172   1
  11 -11   2 276.497  14.248   1
 -11  11   2 277.923  14.516   1
   0 -11   2 259.549  12.894   2
  11 -11  -2 261.714  14.219   1
 -11  11  -2 275.490  14.041   1
   0 -11  -2 244.562  12.741   2
   6 -12   2 -8.6911  5.8129   1
 -12   6   2 -0.2178  4.4781   2
   6 -12  -2 4.35928 5.74461   1
   6 -12   2 3.62754 5.58346   2
 -12   6  -2 4.69536 4.51575   2
 -12   6  -2 -1.0769  4.2794   1
   6 -12  -2 -13.066   4.990   2
  12  -6  -2 -0.6366  3.7557   1
 -12   6   2 -1.0235  4.2535   1
  12  -6   2 3.20214 3.95554   1
  -6  12   2 4.49183 4.82511   1
  -6  12  -2 -4.5739  4.5507   1
 -12   5   2 244.826  12.778   1
   5 -12  -2 245.229  13.384   2
 -12   5   2 248.138  12.573   2
  12  -5   2 256.077  11.192   1
  12  -7  -2 258.218  12.439   1
 -12   7  -2 261.690  12.948   2
  -5  12  -2 259.419  12.619   1
  -7  12   2 242.758  13.224   1
 -12   7  -2 266.487  13.332   1
   7 -12   2 262.094  14.228   1
   5 -12  -2 250.571  13.843   1
   7 -12  -2 268.772  14.093   1
 -12   7   2 248.099  12.833   2
 -12   7   2 255.192  13.341   1
  -5  12   2 226.084  12.604   1
  12  -7   2 256.898  12.501   1
   5 -12   2 248.872  13.305   2
 -12   5  -2 266.510  12.901   1
   5 -12   2 245.324  13.928   1
  -7  12  -2 255.932  13.126   1
 -12   5  -2 257.785  12.514   2
  12  -5  -2 264.845  11.153   1
   8 -12   2 151.302  10.763   1
   4 -12  -2 132.268   9.883   2
   4 -12  -2 140.571  10.455   1
  12  -8  -2 143.994   9.377   1
 -12   4   2 153.981   8.857   2
  -8  12   2 138.835   9.951   1
 -12   8  -2 146.503   9.948   1
  -4  12  -2 126.381   8.573   1
  -8  12  -2 143.745   9.842   1
 -12   4  -2 155.284   8.939   2
  -4  12   2 135.452   8.993   1
   4 -12   2 137.728   9.952   2
 -12   8   2 143.092  10.082   1
   8 -12  -2 157.222  10.786   1
  12  -8   2 145.497   9.353   1
   4 -12   2 145.245  10.444   1
  12  -9  -2 27.9727  5.7605   1
  -9  12   2 30.3777  6.3057   1
   9 -12   2 30.2849  6.7308   1
   3 -12  -2 32.6601  5.9245   2
  -3  12  -2 36.7310  4.6121   1
 -12   3   2 33.7754  4.6383   2
  -3  -9   2 32.0030  3.7264   2
   3 -12  -2 27.8791  6.4230   1
 -12   9  -2 39.9221  6.1648   1
   3 -12   2 22.8599  6.3435   1
 -12   3  -2 38.6191  4.8662   2
   9 -12  -2 36.5557  6.7625   1
  -3  -9  -2 32.7489  4.0300   2
 -12   9   2 42.6155  6.3471   1
  -3  12   2 28.8059  4.5990   1
   3 -12   2 34.9038  6.1177   2
  -9  12  -2 32.1686  6.2476   1
  12  -9   2 36.5133  5.9534   1
  10 -12   2 -9.6777  5.7494   1
 -10  12   2 5.44141 5.54336   1
 -12  10  -2 4.99563 5.03630   1
 -12   2   2 7.10704 3.81010   2
  -2  12  -2 -1.8919  3.0866   1
  12 -10  -2 -1.6438  5.2011   1
  -2 -10   2 -1.5870  3.9113   2
   2 -12  -2 0.95893 5.19254   2
   2 -12   2 2.23560 5.25899   2
 -12   2  -2 1.03309 3.75583   2
 -12  10   2 2.53518 5.41547   1
 -10  12  -2 -2.9620  5.3751   1
  -2  12   2 -1.7940  3.2069   1
  10 -12  -2 -5.5015  5.5509   1
  12 -10   2 -5.1686  4.9859   1
  -2 -10  -2 -1.0862  3.8850   2
   1 -12  -2 66.5446  6.5528   2
  11 -12   2 57.5336  7.5606   1
 -12  11  -2 49.8716  6.9143   1
 -12   1   2 53.5571  4.7071   2
 -11  12   2 62.2507  7.5399   1
  -1 -11   2 52.7534  5.6770   2
  12 -11  -2 72.9415  7.5714   1
  -1 -11  -2 44.9113  5.5599   2
 -11  12  -2 56.7135  7.3573   1
   1 -12   2 52.9373  6.4148   2
  11 -12  -2 53.7156  7.5395   1
  12 -11   2 63.0130  7.3541   1
 -12  11   2 61.5196  7.4601   1
 -12  12   2 283.598  15.292   1
   0 -12  -2 264.022  13.507   2
   0 -12   2 277.640  13.600   2
 -12  12  -2 295.519  14.968   1
  12 -12   2 273.541  14.916   1
  12 -12  -2 260.039  14.952   1
  13  -7  -2 112.281   7.702   1
 -13   6   2 102.017   7.603   2
   7 -13   2 105.608   9.297   1
  -6  13  -2 96.8943  7.8165   1
  -7  13   2 97.5207  8.0500   1
 -13   7  -2 115.682   9.027   1
  13  -6   2 111.412   6.834   1
   6 -13  -2 98.4006  9.0874   1
  13  -7   2 102.845   7.476   1
  13  -6  -2 101.215   6.781   1
  -7  13  -2 105.080   8.096   1
   6 -13   2 107.440   9.381   1
  -6  13   2 107.723   8.131   1
   7 -13  -2 91.3019  8.9297   1
 -13   7   2 106.526   8.110   1
 -13   6  -2 105.095   7.555   2
   5 -13  -2 11.4109  6.2871   1
  -8  13   2 7.04398 5.44490   1
   8 -13   2 5.46728 6.29486   1
 -13   5   2 9.08139 4.68009   2
  13  -8  -2 1.41370 4.64746   1
  -5  13  -2 12.9928  4.9169   1
   5 -13  -2 5.87644 5.65629   2
 -13   8  -2 6.79357 5.07066   1
 -13   8   2 -1.6766  5.0639   1
  13  -8   2 2.32117 4.68047   1
 -13   5  -2 10.6889  4.7972   2
  -8  13  -2 8.72332 5.48751   1
   8 -13  -2 10.8881  6.3353   1
   5 -13   2 -2.6919  5.9510   1
  -5  13   2 4.39619 4.71962   1
   5 -13   2 4.61680 5.70334   2
 -13   4   2 29.7689  5.0639   2
  -4  13  -2 31.8631  5.0499   1
  -9  13   2 32.4629  6.4861   1
  13  -9  -2 38.3076  5.9089   1
   9 -13   2 28.3215  6.9501   1
 -13   9  -2 36.4182  6.0305   1
   4 -13  -2 36.8378  6.6172   2
   4 -13  -2 31.7435  6.9124   1
   4 -13   2 25.7502  6.3727   2
 -13   4  -2 28.7036  5.1056   2
  -4  13   2 33.9682  5.2028   1
  13  -9   2 28.9307  5.9332   1
 -13   9   2 39.6571  6.5097   1
   9 -13  -2 25.0054  6.9509   1
  -9  13  -2 28.9271  6.2418   1
   4 -13   2 32.0417  6.8613   1
  10 -13   2 21.9377  7.1436   1
 -13  10  -2 33.9075  6.2987   1
  -3  13  -2 29.4094  4.4403   1
 -13   3   2 24.3544  4.7181   2
  13 -10  -2 24.6174  5.9435   1
  -3 -10   2 29.8628  4.2760   2
 -10  13   2 27.3643  6.6487   1
   3 -13  -2 22.8941  6.1857   2
 -13   3  -2 24.8521  4.8184   2
 -13  10   2 50.9758  6.9252   1
  -3 -10  -2 27.4307  4.3862   2
  -3  13   2 31.0518  4.5497   1
  10 -13  -2 22.6994  6.8605   1
   3 -13   2 25.1918  6.2754   2
  13 -10   2 32.5727  6.2801   1
 -10  13  -2 26.2591  6.3668   1
  13 -11  -2 4.25958 5.61460   1
 -13   2   2 4.16309 3.93873   2
   2 -13  -2 9.61755 5.61645   2
 -11  13   2 7.98282 6.15788   1
 -13  11  -2 9.78069 5.66486   1
  11 -13   2 -0.6936  6.1240   1
  -2 -11   2 -1.0766  4.3480   2
   2 -13   2 7.65954 5.85024   2
 -11  13  -2 5.29374 6.11017   1
  11 -13  -2 -0.8384  6.2463   1
 -13   2  -2 -0.1376  4.0067   2
 -13  11   2 10.0778  6.0528   1
  -2 -11  -2 5.76868 4.32942   2
  13 -11   2 6.72840 5.69584   1
  13 -12  -2 22.3021  6.6459   1
 -13   1   2 26.8780  4.3833   2
   1 -13  -2 32.9975  6.2336   2
  12 -13   2 30.3513  6.9822   1
  -1 -12   2 37.0301  5.7850   2
 -13  12  -2 41.9872  6.8860   1
 -12  13   2 30.9798  6.9443   1
  -1 -12  -2 24.8977  5.5741   2
 -13  12   2 27.8154  6.9512   1
 -12  13  -2 41.6097  7.1963   1
  12 -13  -2 37.2657  7.3499   1
   1 -13   2 28.4452  6.3187   2
  13 -12   2 23.9391  6.5612   1
   0 -13  -2 1.38352 5.49284   2
 -13  13   2 11.3098  6.5421   1
  13 -13  -2 0.22883 6.27943   1
  13 -13   2 5.07719 6.33227   1
 -13  13  -2 2.78394 6.25316   1
   0 -13   2 12.4863  5.6533   2
  14  -7   2 518.645  21.028   1
   7 -14   2 515.043  23.561   1
   7 -14  -2 489.917  23.572   1
  14  -7  -2 525.390  20.996   1
  -7  14  -2 512.712  22.363   1
  -7  14   2 473.285  22.311   1
   8 -14   2 75.8233  8.8781   1
  14  -8  -2 78.2062  6.6763   1
  -6  14  -2 80.2454  7.0945   1
   6 -14  -2 77.8740  8.7508   1
  -8  14   2 78.3891  7.7432   1
   6 -14   2 83.9292  9.1310   1
  14  -8   2 81.3575  6.8220   1
  -8  14  -2 76.9283  7.7074   1
  -6  14   2 78.1819  7.2164   1
   8 -14  -2 90.5113  9.0699   1
 -14   9  -2 22.1355  5.8266   1
  -9  14   2 14.4389  6.0562   1
  14  -9  -2 19.2950  5.4514   1
   9 -14   2 27.6742  7.2372   1
  -5  14  -2 11.2793  4.8658   1
   5 -14  -2 23.0621  7.1344   1
 -14   5   2 22.9646  5.3001   2
 -14   5  -2 14.0967  5.0994   2
  14  -9   2 29.8920  5.6597   1
 -14   9   2 21.9392  6.1937   1
  -9  14  -2 21.7724  6.1589   1
   9 -14  -2 19.3290  7.1012   1
  -5  14   2 10.3650  5.0167   1
   5 -14   2 16.2860  6.9345   1
 -10  14   2 42.5164  7.1807   1
  -4  14  -2 33.7586  5.2536   1
  10 -14   2 35.8615  7.6785   1
 -14  10  -2 44.9319  6.7569   1
  14 -10  -2 39.9334  6.4998   1
 -14   4   2 41.0822  5.6461   2
  -4 -10   2 39.0318  4.3178   2
  14 -10   2 39.1077  6.4963   1
 -10  14  -2 32.9722  6.7913   1
 -14  10   2 47.6871  7.1279   1
  -4 -10  -2 40.7654  4.5794   2
 -14   4  -2 41.6472  5.7064   2
  -4  14   2 36.4274  5.3324   1
  10 -14  -2 52.2736  7.9946   1
  11 -14   2 42.9285  8.0367   1
 -14   3   2 56.0917  6.0090   2
  14 -11  -2 62.3845  7.5420   1
   3 -14  -2 52.3804  7.3803   2
  -3 -11   2 56.2622  5.5812   2
 -14  11  -2 76.0008  7.8048   1
  -3  14  -2 55.4622  4.7957   1
 -11  14   2 49.2878  7.7653   1
  -3  14   2 60.1946  5.0451   1
  11 -14  -2 45.2354  8.1416   1
  -3 -11  -2 65.6073  5.6680   2
   3 -14   2 56.4446  7.5768   2
 -11  14  -2 62.7597  7.9545   1
 -14   3  -2 68.0145  6.1267   2
 -14  11   2 65.3444  8.0470   1
  14 -11   2 73.0874  7.6293   1
  -2 -12   2 70.7065  6.5632   2
  12 -14   2 64.0438  8.5374   1
   2 -14  -2 68.6074  7.8164   2
 -12  14   2 84.2529  8.8319   1
 -14  12  -2 71.8096  8.1726   1
 -14   2   2 74.8980  6.1591   2
  14 -12  -2 73.2457  8.2579   1
   2 -14   2 78.2753  8.0353   2
  14 -12   2 72.7228  8.1054   1
  12 -14  -2 64.4041  8.6868   1
 -12  14  -2 93.6494  8.7912   1
 -14  12   2 69.5419  8.4669   1
  -2 -12  -2 70.3940  6.5547   2
 -14   2  -2 67.7111  6.1828   2
 -14   1   2 23.1469  4.5121   2
 -14  13  -2 30.5368  7.2241   1
  14 -13  -2 28.8049  7.1687   1
 -13  14   2 27.1665  7.4543   1
  13 -14   2 18.2947  7.2213   1
  -1 -13   2 17.2480  5.7215   2
   1 -14  -2 13.2419  6.1986   2
 -14   1  -2 22.6669  4.7887   2
  13 -14  -2 26.6969  7.5552   1
   1 -14   2 24.8963  6.5986   2
 -13  14  -2 25.4360  7.2239   1
 -14  13   2 26.5410  7.3321   1
  14 -13   2 23.1313  6.9552   1
  -1 -13  -2 21.2756  5.7649   2
 -14   0   2 118.552   7.932   2
   0 -14   2 133.494  10.274   2
  14 -14  -2 114.956  10.762   1
 -14  14   2 140.682  11.069   1
  14 -14   2 131.689  10.721   1
   0 -14  -2 115.842   9.301   2
 -14  14  -2 132.351  10.819   1
  15  -7   2 60.1601  4.6180   1
  15  -8  -2 51.8504  5.5819   1
   7 -15  -2 50.2913  8.4495   1
  -8  15   2 54.0163  7.1470   1
   8 -15   2 59.5259  8.7026   1
  -7  15  -2 40.8870  6.6839   1
  -8  15  -2 51.0043  7.1687   1
   8 -15  -2 71.0089  8.9540   1
  -7  15   2 71.3667  7.4019   1
   7 -15   2 64.4204  8.7879   1
  15  -8   2 61.1658  5.8631   1
  15  -9  -2 63.2615  6.5508   1
   9 -15   2 71.3328  9.1367   1
  -6  15  -2 67.2478  6.8335   1
  -9  15   2 56.2765  7.4004   1
  -9  15  -2 64.8959  7.7230   1
   9 -15  -2 72.4850  9.1685   1
  -6  15   2 49.2415  6.8299   1
  15  -9   2 58.8687  6.5596   1
 -10  15   2 70.4542  8.3400   1
  -5  15  -2 67.7979  6.6761   1
  15 -10  -2 77.5992  7.5331   1
  10 -15   2 92.3160  9.5534   1
 -10  15  -2 68.4126  8.2047   1
  15 -10   2 72.0716  7.4158   1
  -5  15   2 81.8542  7.0051   1
  10 -15  -2 80.8003  9.5353   1
  -4  15  -2 219.587  11.072   1
 -11  15   2 222.523  13.916   1
 -15  11  -2 225.684  13.518   1
  -4 -11   2 207.632  10.788   2
  15 -11  -2 228.208  12.990   1
  11 -15   2 227.725  14.492   1
  -4  15   2 219.480  11.105   1
  -4 -11  -2 215.011  10.814   2
  15 -11   2 214.053  12.887   1
 -15  11   2 229.203  14.125   1
  11 -15  -2 220.517  14.610   1
 -11  15  -2 229.946  13.837   1
 -15  12  -2 32.0184  7.2176   1
 -12  15   2 36.6162  7.7736   1
  12 -15   2 27.1151  7.8339   1
  15 -12  -2 18.8916  6.9432   1
  -3 -12   2 19.8453  5.2583   2
 -15   3   2 33.4450  5.6502   2
  -3 -12  -2 25.0661  5.3282   2
 -12  15  -2 39.3439  7.5405   1
 -15  12   2 37.6408  7.6527   1
 -15   3  -2 26.0421  5.5073   2
  12 -15  -2 20.8849  7.8751   1
  15 -12   2 25.4245  7.0360   1
 -15   2   2 7.70144 4.93936   2
  15 -13  -2 2.47741 6.53094   1
  -2 -13   2 10.8327  5.6850   2
  13 -15   2 -4.2066  7.1214   1
 -15  13  -2 9.27512 7.01281   1
 -13  15   2 -0.4514  6.8518   1
 -15  13   2 -4.4919  6.8348   1
 -15   2  -2 2.65731 4.97115   2
  -2 -13  -2 -0.4348  5.4069   2
 -13  15  -2 6.13142 6.85576   1
  13 -15  -2 0.87963 7.13736   1
  15 -13   2 -2.0109  6.5036   1
 -15   1   2 25.9656  5.1351   2
 -15  14  -2 22.1397  7.7375   1
 -14  15   2 16.0639  7.7656   1
  -1 -14   2 17.5104  6.3599   2
 -14  15  -2 9.83159 7.32652   1
  -1 -14  -2 19.0592  6.3547   2
 -15  14   2 15.4143  7.5616   1
 -15   1  -2 15.5088  5.1946   2
  -8  16  -2 107.367   8.918   1
  -8  16   2 105.044   9.126   1
   8 -16  -2 104.017  10.825   1
   8 -16   2 100.674  10.748   1
  -9  16   2 20.8347  6.7651   1
  -7  16  -2 13.4119  5.9419   1
   9 -16   2 11.1658  8.0788   1
  16  -9  -2 5.42700 4.72606   1
   9 -16  -2 9.61764 7.86716   1
  -9  16  -2 20.9632  6.6523   1
  -7  16   2 20.2727  6.1601   1
  16  -9   2 13.8807  5.0507   1
  -6  16  -2 12.7645  5.6013   1
 -10  16   2 14.1339  6.5867   1
  10 -16   2 5.14618 7.73225   1
  16 -10  -2 15.1507  5.5449   1
  -6  16   2 14.0993  5.8209   1
  10 -16  -2 20.4950  8.0515   1
  16 -10   2 3.22518 5.40512   1
 -10  16  -2 12.0189  6.5420   1
  16 -11  -2 11.6389  6.0558   1
 -11  16   2 4.40266 6.83065   1
  -5  16  -2 3.66184 4.93769   1
  -5 -11   2 15.8947  4.3594   2
  11 -16   2 23.8685  8.2822   1
  -5 -11  -2 18.2475  4.5518   2
  11 -16  -2 11.9485  7.8294   1
  16 -11   2 13.5083  6.1315   1
 -11  16  -2 21.7734  7.0669   1
  -5  16   2 20.3533  5.3541   1
  16 -12  -2 20.7097  6.7666   1
  -4 -12   2 27.8541  5.3135   2
  12 -16   2 20.4952  8.1369   1
 -12  16  -2 21.1503  7.4237   1
  -4 -12  -2 30.6007  5.3730   2
  12 -16  -2 18.2875  8.2209   1
  16 -12   2 21.3203  6.9844   1
  -3 -13   2 11.1925  5.6348   2
 -16  13  -2 9.68253 7.40115   1
  -3 -13  -2 5.52118 5.60916   2
 -16  13   2 11.7365  7.5473   1
   9 -17   2 -3.4959  8.0600   1
   9 -17  -2 4.77403 7.97342   1
  10 -17   2 10.1075  8.4078   1
  -7  17  -2 10.2592  6.0222   1
  17 -10  -2 7.53604 5.07818   1
  10 -17  -2 -5.6168  7.7836   1
  17 -10   2 -3.3061  5.1056   1
  -7  17   2 12.1472  6.0856   1
   0   0  -3 1.40232 1.42634   1
   0   0   3 -1.3552  1.4515   1
   0   0  -3 2.52293 1.38087   2
   0   0   3 0.41468 1.14794   2
   0   0   3 -1.8140  1.3930   1
   1  -1  -3 64.6973  3.7300   1
   0  -1  -3 64.0273  3.6046   2
   1   0   3 66.1507  3.6140   1
  -1   0  -3 67.1570  3.6257   1
   1  -1   3 61.0518  3.6773   1
   1  -1  -3 65.8650  3.8517   1
   0   1   3 58.4801  3.6940   1
   0  -1   3 66.3214  3.6985   1
   1   0   3 60.6094  3.6448   1
   0  -1  -3 59.0997  3.7337   1
   0   1   3 67.5668  3.7148   1
   1   0  -3 66.1220  3.5441   1
  -1   0  -3 60.1525  3.7406   1
  -1   1   3 61.9229  3.7801   1
  -1   0   3 63.8404  3.5855   1
  -1   0   3 59.5015  3.3682   2
   0  -1   3 60.0366  3.4398   2
   0  -1  -3 66.1010  3.7159   1
  -1   1   3 63.0176  3.8150   1
   1  -1  -3 62.7531  3.5111   2
   0   1  -3 63.0050  3.4262   2
  -1   0   3 61.9696  3.6801   1
  -1   1  -3 66.1474  3.5926   1
   0   1  -3 54.5820  3.2057   2
   0   1   3 61.9903  3.5275   2
   1   0  -3 62.6764  3.2682   2
   0   1  -3 64.5849  3.6434   1
  -2   1   3 -3.1857  2.0448   1
   1   1   3 -1.4678  1.6453   1
  -2   1   3 -3.9326  1.8400   2
  -1  -1  -3 -3.6383  1.8477   1
  -1   2  -3 -4.2346  1.8433   2
  -1   2   3 -3.2343  1.9201   2
  -1   2  -3 -0.0601  1.8941   1
   1   1   3 -2.8528  1.7282   1
   2  -1  -3 -3.1355  1.7188   2
   1  -2   3 -4.4620  1.9549   2
   2  -1  -3 -3.3261  1.9426   1
  -1   2   3 2.62158 2.19515   1
   1  -2  -3 -4.5432  1.9027   1
   2  -1  -3 -1.6296  1.8426   1
   1  -2   3 -3.7503  2.0821   1
  -1  -1   3 -1.2638  1.4833   2
   1  -2  -3 -0.1867  2.0058   2
  -2   1  -3 -2.2763  1.8983   1
  -1  -1  -3 -3.6135  1.6276   1
  -1  -1   3 -3.8021  1.3906   2
   1   1  -3 -1.9243  1.4459   1
  -1  -1   3 -0.6970  1.6625   1
   1  -2  -3 -1.1310  2.1863   1
  -1   2   3 -4.3843  2.0752   1
  -2   1   3 -3.3471  1.9432   1
   2  -1   3 -1.4536  1.9969   1
  -2   2  -3 46.4023  3.3466   2
   0   2   3 55.8592  3.6233   2
   2  -2  -3 52.1880  3.8947   2
   0  -2   3 49.1167  3.5390   2
   0   2   3 44.6774  3.8546   1
   0  -2  -3 42.9693  3.7986   1
  -2   2  -3 50.8899  4.3898   1
   0   2   3 45.6499  3.8172   1
   0   2  -3 42.5651  3.1789   2
  -2   0  -3 49.1861  3.7834   1
   0  -2  -3 53.1072  4.1598   1
  -2   0   3 52.3711  3.7219   1
   2   0   3 51.8312  3.7362   1
   2  -2  -3 53.2684  4.0973   1
   0  -2   3 45.5872  3.9025   1
   0   2  -3 50.2133  3.7519   1
  -2   0   3 50.0308  3.1826   2
  -2   2   3 53.2838  3.6080   1
  -2   2   3 49.0269  3.6093   1
   0  -2  -3 52.9463  3.7638   2
   0   2  -3 49.6234  3.2586   2
   2  -2   3 48.1922  3.5982   1
   0  -2   3 54.4178  3.6101   2
  -2   0   3 50.2476  3.7759   1
   2   0  -3 42.8686  3.2672   1
   2  -2  -3 47.4666  3.6497   1
   2   0   3 48.2309  3.6691   1
  -2   3   3 205.047   9.223   1
   3  -2  -3 209.621   8.969   1
   3  -1   3 198.338   8.804   1
   1  -3  -3 208.974   9.045   1
   1   2   3 207.476   8.433   1
  -1  -2   3 194.136   8.055   2
  -3   1   3 205.539   8.545   2
  -2  -1  -3 204.490   8.507   1
  -1  -2   3 203.151   8.586   1
  -3   1   3 207.779   8.913   1
   2  -3   3 195.030   8.946   2
   1  -3  -3 213.906   8.819   2
  -2   3   3 203.294   9.357   1
  -2   3   3 201.646   8.863   2
   3  -2  -3 198.024   9.092   1
   1  -3  -3 192.327   9.107   1
   3  -2  -3 209.740   8.678   2
  -2  -1  -3 212.040   8.420   1
  -3   1   3 200.708   8.788   1
   2  -3   3 187.255   9.100   1
  -1   3  -3 199.298   8.615   2
  -3   2  -3 210.546   9.226   1
  -1   3  -3 205.241   8.845   1
   2   1   3 199.542   8.275   1
   2  -3  -3 202.638   8.908   2
   3  -1  -3 207.984   8.582   1
  -2  -1   3 214.001   8.420   1
  -1   3   3 197.986   8.957   1
  -3   2   3 210.391   9.056   1
  -1  -2  -3 207.422   8.668   1
  -3   2   3 219.516   9.196   1
   1   2  -3 197.887   8.189   1
   2  -3  -3 205.897   9.174   1
  -2   3  -3 192.457   8.800   2
   1  -3   3 200.198   8.849   2
   2   1   3 193.429   8.218   1
   2  -3  -3 192.044   9.234   1
  -3   2   3 200.962   8.789   2
   1  -3   3 203.516   9.076   1
  -1   3   3 197.890   8.676   2
   3  -1  -3 202.454   8.166   2
   3  -2   3 201.667   9.089   1
  -1  -2  -3 198.586   8.682   1
  -2   3  -3 205.990   9.187   1
   3  -1  -3 208.365   8.703   1
  -1   3   3 193.599   8.946   1
  -3   1  -3 205.741   8.887   1
   0  -3  -3 575.202  22.961   1
  -3   3   3 583.254  23.236   1
  -3   0   3 595.726  22.769   1
   0  -3  -3 596.623  22.690   2
   0  -3   3 591.781  22.909   1
   3  -3   3 568.265  23.215   1
   0   3  -3 607.619  22.783   1
   0   3   3 578.880  22.856   1
  -3   0   3 598.495  22.725   1
   3  -3   3 609.537  22.959   2
   0  -3  -3 595.716  22.942   1
   3  -3  -3 594.793  22.936   2
  -3   3  -3 598.440  23.276   1
   3   0   3 581.762  22.670   1
   3   0  -3 595.566  22.589   1
  -3   0  -3 604.271  22.804   1
   3   0   3 543.816  22.570   1
  -3   3  -3 586.313  22.846   2
   3  -3  -3 599.729  23.293   1
  -3   3   3 610.322  23.294   1
   0   3   3 557.253  22.820   1
   0  -3   3 576.847  22.624   2
   3  -3  -3 616.787  23.161   1
   0   3  -3 577.562  22.779   1
   2  -4  -3 -1.7014  3.0024   1
   4  -2  -3 1.52724 2.09092   2
   4  -2  -3 -2.6139  2.3588   1
  -2   4   3 -0.3110  2.8393   1
   2  -4   3 -3.8613  2.9869   1
  -2  -2   3 -2.2413  1.7673   1
  -4   2   3 -1.0546  2.8069   1
   2  -4  -3 -5.1831  2.7528   2
  -2   4  -3 3.04628 2.60263   2
  -4   2  -3 3.00849 2.67206   1
  -4   2   3 -0.8303  2.6156   1
  -2  -2  -3 0.43470 1.89715   1
  -4   2   3 -4.5745  2.6041   2
  -2   4  -3 4.31293 2.69222   1
   2  -4  -3 0.61068 2.75965   1
  -2   4   3 1.33413 2.94975   1
   2  -4   3 -2.6744  2.8660   2
   4  -2   3 0.62171 2.64315   1
  -2   4   3 2.53477 2.72448   2
   4  -2  -3 2.26315 2.65008   1
  -2  -2  -3 3.28434 2.07627   1
   4  -3  -3 445.368  18.087   1
  -4   1   3 461.722  17.390   2
   3  -4   3 486.240  18.048   2
   4  -1   3 482.329  17.654   1
  -1   4  -3 429.895  17.386   2
  -4   1   3 471.452  17.733   1
   1   3   3 428.419  17.338   1
  -3   4   3 466.690  18.189   1
  -1   4  -3 423.535  17.735   1
   1  -4  -3 423.875  18.026   1
   1  -4  -3 428.603  17.694   2
  -4   1   3 489.065  17.848   1
  -3  -1  -3 425.086  17.429   1
  -3   4   3 477.409  17.940   2
  -1   4  -3 396.005  17.741   1
   3  -4   3 448.452  18.211   1
   1   3   3 463.077  17.375   1
   1  -4  -3 426.646  17.927   1
   4  -3  -3 425.812  17.652   2
   4  -3  -3 435.067  18.096   1
  -3   4   3 478.770  18.358   1
  -3  -1  -3 423.257  17.405   1
  -1  -3   3 469.583  17.560   1
  -4   3  -3 435.025  18.186   1
  -4   3  -3 407.502  17.736   2
  -4   3   3 427.686  17.857   2
  -4   3   3 469.055  18.278   1
   1  -4   3 422.407  17.976   1
  -1   4   3 419.701  17.889   1
   4  -1  -3 491.825  17.613   1
   3  -4  -3 439.034  18.240   1
   1   3  -3 440.842  17.269   1
   3  -4  -3 497.124  18.280   1
   3  -4  -3 496.185  17.985   2
  -1  -3  -3 452.586  17.652   1
  -3  -1   3 433.591  17.345   1
  -4   1  -3 498.284  17.872   1
  -1   4   3 444.928  17.492   2
  -3   4  -3 483.344  18.299   1
   4  -3   3 414.027  18.124   1
  -1  -3  -3 494.244  17.669   1
   1  -4   3 400.646  17.646   2
  -1   4   3 414.515  17.848   1
  -3   4  -3 472.289  17.933   2
  -4   3   3 430.985  18.026   1
  -4   4  -3 372.854  14.624   1
  -4   0   3 353.529  13.745   1
   0  -4  -3 322.047  14.052   1
   0  -4  -3 353.166  13.792   2
  -4   4  -3 344.639  14.164   2
  -4   0   3 337.257  13.652   1
   0  -4   3 342.481  14.038   1
   4  -4  -3 354.755  14.508   1
   4  -4  -3 353.303  14.175   2
   0   4   3 339.024  13.838   1
  -4   4   3 342.912  14.557   1
  -4   4   3 358.849  14.575   1
   0  -4  -3 368.531  14.152   1
   0  -4   3 336.476  13.708   2
  -4   0  -3 359.617  13.849   1
   0   4  -3 329.994  13.744   1
  -4   4   3 294.677  13.842   2
   4  -4   3 344.391  14.304   2
   0   4   3 341.763  13.850   1
   4  -4  -3 347.961  14.592   1
   4  -4   3 338.912  14.608   1
  -2   5  -3 59.3142  4.6536   2
  -3  -2  -3 69.7078  3.9220   1
  -5   3  -3 71.3121  4.9588   2
   5  -3  -3 58.3137  4.3605   2
  -2   5  -3 63.6841  5.2560   1
   5  -3  -3 74.3673  5.3340   1
  -2   5  -3 69.0723  5.2255   1
  -3   5   3 73.9224  5.2181   2
  -5   2   3 71.3583  5.2816   1
   5  -2   3 64.9072  4.7726   1
  -3   5   3 66.1190  4.7766   1
   5  -3  -3 81.2273  5.1386   1
   2  -5  -3 68.1794  5.1674   2
  -3   5   3 71.9989  4.9303   1
  -5   3  -3 77.8732  4.7416   1
   2  -5  -3 66.6264  5.4586   1
  -5   2   3 62.2625  4.9686   1
   3  -5   3 66.7354  4.6911   2
   3  -5   3 79.9838  6.0047   1
  -2  -3   3 65.8761  3.9910   1
  -3  -2  -3 67.1609  3.9680   1
   2  -5  -3 68.1112  4.8449   1
  -5   2   3 58.9606  4.6061   2
   2  -5   3 62.2841  5.1348   2
  -3   5  -3 67.5135  4.7432   1
  -3   5  -3 73.4161  5.7593   1
  -2  -3  -3 64.4845  4.1947   1
   2  -5   3 70.3923  4.8220   1
   3  -5  -3 74.4566  5.0649   1
   3  -5  -3 78.8849  4.8756   1
  -3  -2   3 62.9964  3.6097   1
  -2   5   3 68.5756  5.4634   1
   5  -2  -3 60.1046  4.7535   1
  -5   2  -3 70.8613  5.4004   1
  -5   3   3 76.6525  5.2714   1
  -2   5   3 75.7104  5.4242   1
  -5   3   3 67.9318  5.5058   1
  -5   3   3 66.4009  5.1400   2
   5  -3   3 70.4492  5.2390   1
  -2   5   3 71.8908  5.0828   2
  -3   5  -3 74.9313  5.1909   2
  -2  -3  -3 68.7503  4.3230   1
   3  -5  -3 65.6534  5.2327   2
   5  -2  -3 78.6084  4.5547   1
  -5   4  -3 54.2232  4.3365   1
   5  -4  -3 52.9991  4.1657   1
  -1  -4   3 44.9688  2.9648   2
  -1   5  -3 38.5263  3.2394   2
   1   4   3 46.8737  3.1093   1
   5  -4  -3 55.4752  3.8094   2
   1  -5  -3 48.9382  4.1011   1
   1  -5  -3 52.2090  3.9278   1
   1   4   3 48.0632  3.2135   1
  -4  -1  -3 50.3847  3.6659   1
  -1   5  -3 48.5875  3.4973   2
   4  -5   3 45.1651  4.1200   2
  -5   1   3 45.9723  3.5973   2
  -4   5   3 56.4901  4.4337   1
  -5   1   3 51.8269  3.4571   1
   5  -4  -3 55.1572  4.3127   1
   5  -1   3 49.6196  3.1783   1
  -4   5   3 49.6766  4.0666   2
  -1   5  -3 41.4563  3.6147   1
   4  -5   3 50.8601  4.4794   1
  -5   1   3 52.9509  3.7003   1
  -1  -4   3 50.6580  3.3576   1
  -4  -1  -3 47.6227  3.6067   1
  -5   4  -3 47.2622  3.9179   2
   5  -1   3 49.9143  3.1970   1
   1  -5  -3 47.4746  3.7547   2
  -1   5  -3 49.4831  3.5291   1
  -4   5   3 51.9881  4.4328   1
   1  -5   3 54.3320  4.0824   1
  -5   1  -3 50.2388  3.6115   1
  -5   4   3 58.2989  4.4750   1
  -5   4   3 56.8102  4.0802   2
  -5   4   3 53.0741  4.3412   1
   4  -5  -3 52.2316  4.3383   1
  -1   5   3 53.3568  3.8583   1
  -1  -4  -3 50.8020  3.5350   1
   1  -5   3 44.0651  3.7304   2
   4  -5  -3 56.7431  4.1381   2
  -1  -4  -3 54.6871  4.3167   1
  -1   5   3 51.3187  3.7902   1
  -4   5  -3 45.2244  3.9987   2
   4  -5  -3 46.6693  4.4668   1
   5  -4   3 47.4177  4.2971   1
  -1  -4  -3 43.6371  3.3575   2
  -4  -1   3 53.2740  3.2566   1
  -1   5   3 45.5823  3.6454   2
  -4   5  -3 53.5486  4.2978   1
   5  -5  -3 31.1553  3.8661   1
  -5   0   3 28.7916  2.5918   1
   0   5  -3 29.0177  2.5767   1
  -5   5  -3 29.3578  3.7180   2
  -5   5   3 25.5097  3.9541   1
   0  -5   3 40.3732  3.4861   1
   0  -5  -3 26.9460  3.1932   1
  -5   0   3 31.0332  2.7758   1
   5  -5  -3 31.7162  3.5605   2
   5  -5  -3 32.0682  4.0943   1
  -5   5  -3 28.8575  3.9550   1
   0  -5   3 28.3427  3.0319   2
   0  -5  -3 31.3108  3.1339   2
   5  -5   3 32.3642  3.7435   2
   0   5  -3 29.0881  2.7178   1
   0   5   3 27.6339  2.9094   1
   0  -5  -3 22.9431  3.3538   1
  -5   5   3 28.6448  3.6451   2
  -5   5   3 36.0496  4.1346   1
   5  -5   3 30.4119  4.1075   1
  -5   0  -3 27.8143  2.8720   1
   3  -6   3 4.12400 3.59641   1
  -6   3   3 3.43685 2.97277   1
  -6   3  -3 3.33242 2.79631   2
   3  -6   3 -0.6474  3.3030   2
   6  -3  -3 0.99634 1.96176   2
   3  -6  -3 0.83795 3.49871   1
   3  -6  -3 -3.3359  3.1063   1
  -6   3   3 2.61609 3.20871   1
  -3   6  -3 0.42035 2.96665   1
  -3  -3  -3 6.60898 2.00866   1
  -3   6   3 -0.9150  3.1864   1
  -6   3   3 -2.2882  2.8161   2
  -3   6   3 -2.7720  3.2673   1
  -3   6   3 -1.1933  3.0172   2
   3  -6  -3 -4.8140  3.1115   2
  -3   6  -3 0.14728 3.10745   1
   6  -3   3 0.78614 3.00485   1
  -3   6  -3 3.64800 2.77625   2
   6  -3  -3 0.57455 2.96381   1
  -3  -3  -3 3.00532 1.83548   1
  -6   3  -3 -2.3324  2.9825   1
  -2   6  -3 39.2458  3.2338   2
  -6   2   3 42.0560  3.4108   2
   4  -6   3 44.4808  4.6226   1
  -4  -2  -3 39.4149  2.7154   1
   4  -6   3 44.3687  4.3057   2
  -4   6   3 45.5420  4.1123   2
   6  -4  -3 42.9858  3.9939   1
   6  -4  -3 47.4895  3.5722   2
   6  -2   3 37.6769  3.4137   1
   2  -6  -3 31.1600  4.1383   1
   2  -6  -3 42.8688  4.0232   2
   6  -4  -3 41.7613  4.1648   1
  -6   2   3 45.8210  3.7130   1
  -6   2   3 46.1411  3.9080   1
  -2  -4   3 39.8497  2.9485   1
  -4   6   3 37.9837  4.3328   1
  -6   4  -3 38.8130  3.8735   2
  -2   6  -3 39.2001  3.7318   1
  -4   6   3 39.9789  4.4421   1
  -2   6  -3 36.8717  3.8260   1
  -4  -2  -3 44.7339  2.6747   1
  -6   2  -3 45.7170  3.8538   1
  -2   6   3 43.1877  3.9944   1
  -4   6  -3 44.0341  4.2955   1
  -2   6   3 36.5717  3.8542   1
   4  -6  -3 45.2413  4.3608   1
   2  -6   3 44.6909  4.0700   2
  -2  -4  -3 35.4081  3.1311   1
  -4   6  -3 42.5344  4.0057   2
  -2   6   3 42.6369  3.5262   2
  -6   4   3 32.8871  3.9558   2
   2  -6   3 34.1953  4.1115   1
   6  -4   3 38.0954  4.1567   1
  -4   6  -3 46.8598  4.3935   1
  -2  -4  -3 48.7955  3.1717   1
   6  -2  -3 41.7721  3.3442   1
   4  -6  -3 38.7004  4.0574   2
   4  -6  -3 49.0376  4.6867   1
  -6   4   3 43.8599  4.2151   1
  -6   1   3 46.0895  3.0877   2
  -5   6   3 42.5433  4.6595   1
   6  -5  -3 52.9149  4.5378   1
  -5   6   3 44.6273  4.7894   1
  -6   1   3 50.4604  3.8500   1
  -5  -1  -3 48.4897  3.8164   1
  -1   6  -3 46.8448  3.7451   1
  -1  -5   3 40.0360  3.4060   2
   5  -6   3 57.0404  4.9991   1
  -1  -5   3 46.3195  3.6577   1
  -1   6  -3 54.0376  3.7100   1
  -1  -5   3 47.8163  3.4903   2
   1  -6  -3 58.7107  4.4897   1
   5  -6   3 42.1497  4.4946   2
  -5  -1  -3 52.8143  3.2518   1
  -6   1   3 51.6374  3.5776   1
   1  -6  -3 59.0282  4.0888   2
  -5   6   3 60.8056  4.5378   2
  -6   5  -3 50.3309  4.2942   2
   6  -5  -3 57.7707  4.7611   1
   6  -5  -3 51.7108  4.1244   2
  -1   6   3 57.8832  4.0575   1
   1  -6   3 49.2045  4.0735   2
  -6   5   3 47.0457  4.6165   1
  -5   6  -3 48.5043  4.6454   1
  -1  -5  -3 51.3006  3.2874   2
  -1  -5  -3 56.1954  3.7822   1
  -6   1  -3 56.8603  3.9379   1
   6  -5   3 38.4867  4.5360   1
  -5   6  -3 60.9948  4.8195   1
  -1  -5  -3 47.1293  3.7717   1
   1  -6   3 41.3028  4.2121   1
  -5  -1   3 43.1812  3.3221   1
  -6   5   3 53.9066  4.4868   2
  -1   6   3 51.0916  3.8360   1
   5  -6  -3 45.5754  4.8407   1
  -5   6  -3 43.4576  4.3791   2
   5  -6  -3 56.7851  4.8113   1
   5  -6  -3 45.8190  4.3430   2
   6  -6  -3 45.0415  4.6796   1
   6  -6  -3 44.9507  4.8623   1
   0  -6  -3 55.2591  3.8734   2
   0   6  -3 43.6002  3.1879   1
   0  -6   3 43.8726  4.0420   1
  -6   6  -3 48.1610  4.6515   1
   0   6  -3 46.8217  3.1695   1
  -6   6   3 51.9167  4.5397   2
  -6   0   3 48.4376  3.4639   1
  -6   6  -3 45.0230  4.4038   2
   6  -6   3 46.8530  4.8770   1
   6  -6  -3 55.1502  4.4139   2
   0   6   3 41.7833  3.2969   1
  -6   0   3 45.0780  3.2282   1
  -6   6   3 44.2676  4.8109   1
   0  -6  -3 45.3534  4.1999   1
   0   6   3 42.0325  3.4373   1
   6  -6   3 51.2718  4.6360   2
   0  -6   3 40.9162  3.6898   2
  -6   0  -3 51.7035  3.6091   1
  -4  -3  -3 370.708  14.099   1
  -4   7   3 369.243  15.196   2
   7  -4  -3 366.007  14.442   2
  -7   4  -3 346.545  15.015   2
  -3   7  -3 371.214  14.795   2
   4  -7   3 360.235  15.847   1
  -3   7  -3 359.467  15.335   1
  -3  -4   3 355.639  14.177   1
   3  -7  -3 369.688  15.287   2
  -4   7   3 357.663  15.847   1
   7  -4  -3 348.823  15.176   1
  -3   7  -3 358.146  15.349   1
   4  -7   3 359.732  15.331   2
   3  -7  -3 336.520  15.577   1
  -7   3   3 346.777  14.793   2
   7  -3   3 369.135  14.897   1
  -7   3   3 355.183  15.143   1
  -4   7   3 363.395  15.527   1
  -3   7   3 372.530  15.663   1
   7  -3  -3 366.378  14.897   1
  -3   7   3 375.772  14.976   2
   3  -7   3 342.696  15.598   1
  -3  -4  -3 375.549  14.345   1
   7  -4   3 370.138  15.226   1
  -7   4   3 368.630  15.095   2
   4  -7  -3 332.064  15.328   2
   3  -7   3 361.284  15.255   2
  -7   4   3 372.544  15.422   1
  -7   3  -3 356.022  14.815   2
  -4   7  -3 373.438  15.157   2
  -4   7  -3 348.185  15.480   1
  -3  -4  -3 365.889  14.371   1
  -3   7   3 327.752  15.262   1
   4  -7  -3 345.250  15.696   1
  -4   7  -3 361.096  15.732   1
  -5   7   3 45.4292  4.7485   1
  -5   7   3 52.5447  5.0867   1
   7  -5  -3 45.2325  4.6428   1
  -2  -5   3 33.7411  3.1923   1
  -7   2   3 34.4807  3.4371   2
  -5   7   3 38.5285  4.3568   2
   5  -7   3 36.0749  4.9203   1
  -7   2   3 39.2329  3.6597   1
  -5  -2  -3 41.6437  2.7832   1
   7  -5  -3 43.8862  3.8472   2
  -5  -2  -3 43.5946  3.3378   1
   2  -7  -3 37.2558  4.1748   2
   7  -5  -3 49.3044  4.3880   1
  -2   7  -3 39.5612  3.8755   1
   2  -7  -3 37.4264  4.5622   1
  -2   7  -3 34.9190  3.9612   1
   5  -7   3 37.9485  4.5275   2
  -7   5  -3 44.1040  4.3056   2
   7  -2   3 37.7786  3.1771   1
  -5   7  -3 46.6064  4.4236   2
   2  -7   3 49.3268  4.6751   1
  -2   7   3 32.7850  4.0033   1
  -2  -5  -3 37.5761  3.4081   1
  -2   7   3 39.3118  4.1412   1
  -7   5   3 44.0726  4.3038   2
   2  -7   3 37.4400  4.2652   2
  -7   5   3 32.7998  4.4686   1
   7  -5   3 35.4277  4.4758   1
  -5   7  -3 47.1359  4.7509   1
   5  -7  -3 39.2955  4.4759   2
   5  -7  -3 42.6031  4.9544   1
  -5   7  -3 40.5906  4.6585   1
   7  -2  -3 42.0184  3.0599   1
   1  -7  -3 158.231   8.619   1
  -1   7  -3 145.982   7.484   1
  -7   1   3 150.219   6.933   2
  -1  -6   3 147.701   7.775   1
  -6   7   3 162.839   8.965   1
   6  -7   3 146.881   9.185   1
   6  -7   3 170.774   8.904   2
  -7   1   3 161.031   7.591   1
   7  -6  -3 176.581   9.143   1
   1  -7  -3 156.075   7.979   2
  -1  -6   3 153.380   7.143   2
  -1   7  -3 154.790   7.283   1
  -7   6  -3 157.516   8.645   1
  -6   7   3 171.530   8.884   2
  -7   6  -3 117.490   7.909   2
  -6  -1  -3 157.148   7.278   1
   7  -6  -3 148.027   8.819   1
   7  -6  -3 149.669   8.180   2
  -1  -6  -3 152.459   8.020   1
  -6   7  -3 169.216   8.658   2
   6  -7  -3 150.901   8.481   2
   7  -6   3 146.655   8.826   1
  -1   7   3 158.736   7.916   1
  -1   7   3 158.612   7.755   1
   6  -7  -3 169.215   9.215   1
  -6  -1   3 159.949   7.060   1
  -6   7  -3 151.643   8.923   1
  -7   6   3 147.444   8.416   2
   7  -6   3 177.822   8.783   2
  -1  -6  -3 146.109   7.234   2
  -7   6   3 164.193   8.958   1
   1  -7   3 152.435   8.417   1
   1  -7   3 153.629   8.105   2
  -6  -1   3 158.037   6.890   1
   7  -7  -3 424.937  18.156   2
   7  -7  -3 489.701  18.916   1
  -7   7  -3 440.573  18.371   2
   0   7  -3 435.292  17.046   1
  -7   7   3 432.846  18.775   1
   7  -7   3 432.813  18.799   1
   0  -7  -3 419.738  17.493   2
  -7   0   3 442.702  17.285   1
   0  -7   3 416.954  17.895   1
  -7   7  -3 447.607  18.551   1
  -7   7   3 440.744  18.350   2
   0  -7  -3 437.504  18.162   1
   0   7  -3 397.973  16.920   1
   0   7   3 432.651  17.171   1
   0   7   3 426.794  17.117   1
   0  -7   3 416.271  17.521   2
   7  -7  -3 428.407  18.749   1
   7  -7   3 457.823  18.486   2
   8  -4  -3 0.98625 3.49259   1
   4  -8   3 3.78933 4.33959   1
  -8   4   3 -3.1617  3.6176   1
  -4   8   3 -1.0823  3.6081   2
   4  -8  -3 -0.0794  4.0630   2
  -8   4  -3 1.95066 3.47189   2
   8  -4   3 7.27031 3.66100   1
  -4  -4  -3 1.13099 2.11254   1
  -4   8  -3 9.30949 3.89683   1
   4  -8  -3 3.38025 4.35868   1
  -8   4   3 3.48364 3.58111   2
  -4  -4  -3 4.88898 2.34133   1
   4  -8   3 4.37093 4.12635   2
  -4   8  -3 -3.0445  3.6823   1
  -4   8   3 1.85326 3.81010   1
  -4   8   3 -1.8997  4.0922   1
   5  -8   3 5.99362 4.46481   1
  -8   3   3 -0.4676  3.1753   1
   8  -5  -3 0.31608 3.58246   1
  -5   8   3 -2.0477  4.0367   1
  -3  -5   3 -1.0583  2.1910   1
  -8   5  -3 -2.2311  3.5270   2
  -8   3   3 -3.9157  3.1259   2
   3  -8  -3 2.96107 3.86294   2
   8  -3   3 -1.5495  2.8815   1
  -3   8  -3 0.99467 3.30126   1
  -5   8   3 0.88886 3.97086   1
  -5   8   3 3.50369 3.75497   2
  -3   8  -3 -5.8581  3.4430   1
   5  -8   3 1.49739 3.97965   2
   3  -8  -3 5.48464 4.22202   1
   3  -8   3 0.06934 3.93063   2
   8  -3  -3 1.82076 2.79043   1
  -8   5   3 2.35440 3.71838   2
  -5   8  -3 1.29717 3.76572   1
  -5   8  -3 2.64540 3.47180   2
   3  -8   3 5.65543 4.20629   1
   5  -8  -3 4.29791 3.97518   2
   5  -8  -3 8.41770 4.47211   1
  -8   3  -3 2.04012 3.25988   2
  -3  -5  -3 1.73147 2.59400   1
  -5   8  -3 -0.0189  3.8972   1
   8  -5   3 1.20151 3.72067   1
  -3   8   3 4.08750 3.62570   1
  -3   8   3 -4.0268  3.5599   1
  -8   5   3 -1.1301  3.7488   1
   6  -8   3 29.8743  5.1589   1
   2  -8  -3 20.8542  4.5210   1
   8  -6  -3 24.0904  3.8893   2
  -8   6  -3 26.5244  4.3891   2
  -2  -6   3 26.7094  3.2411   1
   2  -8  -3 14.2938  4.1103   2
  -2   8  -3 25.6892  3.7353   1
  -8   2   3 18.8366  3.4128   1
   8  -6  -3 24.1077  4.4871   1
  -2   8  -3 18.5969  3.6990   1
   6  -8   3 30.6861  4.7068   2
  -6   8   3 25.6371  4.4864   2
  -6  -2  -3 25.2791  2.6436   1
  -8   2   3 24.6992  3.3287   2
  -6   8   3 21.5720  4.6761   1
   6  -8  -3 32.9437  4.6040   2
   8  -6   3 21.1298  4.4280   1
  -6   8  -3 22.1990  4.6362   1
  -2   8   3 26.6433  4.0039   1
  -2  -6  -3 24.2859  3.4605   1
  -8   6   3 18.9065  4.4656   1
   2  -8   3 25.3304  4.3643   2
   2  -8   3 22.5014  4.5976   1
   6  -8  -3 21.8221  4.9256   1
  -6   8  -3 18.4406  4.2777   2
  -2   8   3 21.0044  3.7663   1
  -8   6   3 22.7666  4.3118   2
   8  -7  -3 -0.4535  3.7715   2
  -1  -7   3 3.46646 3.05170   2
  -7   8   3 5.08733 4.39358   1
  -8   1   3 -3.1770  2.7758   1
  -7   8   3 5.79426 4.20219   2
   1  -8  -3 2.83470 3.71679   2
  -1   8  -3 -4.9475  2.8479   1
   7  -8   3 1.55187 4.71193   1
   8  -7  -3 -0.0617  4.3378   1
   7  -8   3 4.91836 4.35177   2
  -8   1   3 1.91509 2.45049   2
  -8   7  -3 0.33075 0.86019   2
  -1   8  -3 -2.4176  2.6117   1
  -8   7  -3 5.49842 4.15956   1
   1  -8  -3 2.06410 4.05606   1
  -1  -7   3 0.28899 3.26270   1
   7  -8  -3 1.93291 3.91749   2
   1  -8   3 -3.0513  4.0509   1
  -7   8  -3 -0.4707  3.9864   2
  -1  -7  -3 5.66275 3.62009   1
  -7   8  -3 3.84572 4.30995   1
  -1   8   3 4.50015 3.14832   1
  -7  -1   3 1.20273 2.22181   1
   8  -7   3 2.70143 4.45837   1
   8  -7   3 5.89574 4.13942   2
  -1   8   3 -0.3859  0.8336   1
  -1  -7  -3 0.80709 3.08442   2
   1  -8   3 -4.9863  3.8252   2
  -8   7   3 0.78952 1.62202   2
   7  -8  -3 0.45797 4.59338   1
  -8   7   3 -4.9377  4.1827   1
   0  -8  -3 21.4651  4.5352   1
   8  -8  -3 30.7202  4.7790   2
   0  -8   3 31.9007  4.5557   1
   0  -8   3 22.6263  4.1858   2
   8  -8   3 34.1313  5.6457   1
   0  -8  -3 21.2336  4.0112   2
  -8   8   3 40.8448  5.5776   1
   0   8   3 33.5216  2.9076   1
  -8   8  -3 20.2554  4.7654   2
   8  -8  -3 23.0478  5.3779   1
   8  -8   3 28.4207  4.9549   2
  -8   0   3 31.7595  3.3001   1
  -8   8   3 29.1956  5.0439   2
  -8   8  -3 21.7129  5.0509   1
   4  -9  -3 55.1620  6.2313   1
  -4   9  -3 64.5326  5.6643   1
  -9   4   3 62.9828  5.3798   1
   5  -9   3 69.4455  6.6185   1
   4  -9  -3 68.9713  5.8956   2
  -9   4   3 63.1856  5.2556   2
  -5   9   3 63.8451  6.0062   1
  -5   9   3 70.4299  5.9897   1
  -4   9  -3 64.5687  5.5238   1
   9  -4   3 60.5244  4.9261   1
   5  -9   3 61.0218  6.0272   2
   9  -5  -3 69.7964  5.3770   1
  -9   5  -3 57.8639  5.4344   2
  -9   5   3 60.3909  5.4993   2
   9  -5   3 57.9227  5.3422   1
   4  -9   3 59.0685  5.9392   2
   4  -9   3 57.0481  6.2908   1
  -4  -5  -3 63.0633  4.7393   1
  -9   4  -3 58.9103  5.1291   2
  -5   9  -3 66.2128  5.8962   1
  -9   5   3 68.2635  5.7946   1
   5  -9  -3 50.5317  6.2367   1
  -5   9  -3 54.1164  5.6129   1
   9  -4  -3 71.7745  4.9325   1
   5  -9  -3 59.1205  5.8007   2
  -4   9   3 66.3148  5.8467   1
  -4   9   3 61.4676  5.6422   1
  -9   3   3 1.08908 3.42264   2
  -3   9  -3 0.14655 3.59043   1
  -3   9  -3 1.26147 3.58199   1
   9  -3   3 0.61321 2.69414   1
  -9   3   3 0.71229 3.37782   1
  -3  -6   3 -4.6214  2.6332   1
  -6   9   3 -4.8515  4.0395   2
   6  -9   3 0.78674 4.40141   2
  -6   9   3 2.11276 4.41749   1
   3  -9  -3 -2.7296  4.2765   2
   3  -9  -3 2.29417 4.58120   1
   9  -6  -3 0.05474 3.92515   1
  -9   6  -3 3.60538 3.96332   2
   6  -9   3 -4.7737  4.7508   1
   3  -9   3 0.62448 4.61228   1
  -9   6   3 -3.2438  4.0507   1
  -3  -6  -3 4.58307 3.01077   1
  -9   3  -3 -0.2910  3.5569   2
   6  -9  -3 -5.9538  4.5730   1
  -9   6   3 0.70572 4.21780   2
   9  -3  -3 1.25131 2.49964   1
   9  -6   3 -3.4463  3.9795   1
  -6   9  -3 2.02316 3.99543   2
   3  -9   3 -0.1305  4.2756   2
   6  -9  -3 -11.980   4.175   2
  -3   9   3 -7.4409  3.6306   1
  -3   9   3 2.60168 3.80359   1
  -6   9  -3 5.09978 4.28172   1
  -2  -7   3 16.3839  2.7432   2
  -7   9   3 17.1446  4.8140   2
   2  -9  -3 15.7963  4.6257   2
  -9   7  -3 13.1235  4.5588   1
  -2   9  -3 15.9172  3.5014   1
  -9   2   3 13.3186  3.3998   2
  -9   2   3 10.2187  3.4678   1
  -9   7  -3 9.17385 4.31622   2
  -2   9  -3 15.5444  3.7921   1
   7  -9   3 16.8293  4.8546   2
   2  -9  -3 11.7868  4.7629   1
   9  -7  -3 22.1870  4.8477   1
  -7   9   3 10.2405  4.9279   1
  -2  -7   3 13.7801  3.3705   1
   9  -7  -3 20.4883  4.1086   2
   7  -9   3 23.5591  5.5446   1
   7  -9  -3 9.99809 5.16272   1
  -9   7   3 16.0025  4.6020   2
   2  -9   3 10.6563  4.7280   1
   7  -9  -3 6.91903 4.40660   2
  -2  -7  -3 16.0054  3.7331   1
   2  -9   3 13.4564  4.5069   2
  -9   7   3 6.44523 4.61971   1
  -7   9  -3 5.01568 4.56213   1
  -7   9  -3 5.96622 4.43292   2
   9  -7   3 14.6518  4.7274   1
  -2  -7  -3 13.0472  2.9281   2
  -2   9   3 11.1864  3.6439   1
  -2   9   3 23.7251  3.9919   1
  -9   1   3 3.07531 2.73548   2
  -9   8  -3 4.10307 4.18888   2
   1  -9  -3 0.54269 4.04840   2
   8  -9   3 6.38567 5.25165   1
   8  -9   3 2.90453 4.71933   2
  -8   9   3 4.93549 4.90083   1
  -1   9  -3 0.43288 2.92829   1
  -1  -8   3 6.66395 3.88350   1
   1  -9  -3 9.47011 4.81081   1
   9  -8  -3 0.68837 4.83792   1
  -1   9  -3 2.24805 2.80491   1
  -9   8  -3 7.03965 4.56163   1
  -9   1   3 2.71865 3.08510   1
  -8   9   3 4.75315 4.57399   2
   9  -8  -3 8.38455 4.35134   2
  -1  -8   3 3.24291 3.45587   2
  -1   9   3 1.90863 3.13050   1
  -8  -1   3 1.99692 2.49512   1
   1  -9   3 -2.0839  4.1880   2
   8  -9  -3 6.99784 4.64167   2
  -9   8   3 -0.5234  3.1467   2
  -8   9  -3 -1.0328  4.6197   1
   9  -8   3 11.7719  4.6250   2
  -1   9   3 6.41155 3.05994   1
  -1  -8  -3 4.62256 4.15009   1
   9  -8   3 11.2294  5.0323   1
   8  -9  -3 4.50808 5.14796   1
   1  -9   3 4.23535 4.56860   1
  -9   8   3 1.69106 4.70653   1
  -1  -8  -3 0.29058 3.49268   2
  -8   9  -3 8.45521 4.66588   2
   0  -9   3 55.6886  5.3795   2
   0  -9  -3 64.3097  6.0315   1
   9  -9  -3 63.1035  5.9006   2
  -9   0   3 60.8712  4.3438   1
   9  -9   3 69.4445  6.4968   2
  -9   9   3 59.9567  6.2998   2
   0  -9   3 63.3578  5.8730   1
   9  -9   3 52.0028  6.6396   1
   9  -9  -3 68.9747  6.8350   1
  -9   9  -3 60.0018  6.0896   2
  -9   9  -3 60.3670  6.3653   1
  -9   9   3 56.1694  6.6274   1
   0  -9  -3 52.8985  5.2990   2
 -10   5  -3 -2.3548  4.0355   2
 -10   5   3 4.24139 4.24584   1
  -5  10   3 -4.4098  4.2716   1
  -5  10  -3 -4.0582  4.1858   1
   5 -10  -3 -1.5297  4.5702   2
  -5  10  -3 0.71327 4.39694   1
   5 -10   3 -2.3532  5.1888   1
  -5  -5  -3 0.82605 2.63285   1
  -5  10   3 -1.2774  4.5658   1
   5 -10  -3 0.48765 4.97794   1
  10  -5  -3 2.08857 3.69112   1
 -10   5   3 -0.6467  4.0108   2
   5 -10   3 -1.2885  4.9140   2
  10  -5   3 0.05033 3.83151   1
   6 -10   3 77.9238  7.3824   1
   4 -10  -3 73.1193  7.1075   1
 -10   6  -3 74.8494  6.1083   2
 -10   4   3 79.9476  5.8600   2
   4 -10  -3 78.1674  6.6760   2
  -4  10  -3 72.4220  6.1100   1
  10  -6  -3 88.8346  6.9403   1
  10  -4   3 73.1341  5.1462   1
  -4  10  -3 71.8458  6.0672   1
   6 -10   3 81.1360  6.9228   2
  -6  10   3 79.7142  6.7823   1
 -10   4   3 67.2965  5.8225   1
  -4  -6   3 77.1931  5.1859   1
  -4  -6  -3 74.2791  5.5251   1
  10  -6   3 73.8464  6.2632   1
  -4  10   3 80.0348  6.3885   1
   4 -10   3 73.1301  7.0298   1
  -6  10  -3 77.7320  6.5818   1
  10  -4  -3 75.0890  5.6782   1
 -10   4  -3 70.7529  5.8463   2
   6 -10  -3 76.1705  6.7246   2
 -10   6   3 72.2980  6.4055   2
   6 -10  -3 74.4773  7.2952   1
 -10   6   3 84.6976  6.6778   1
   4 -10   3 75.9585  6.8144   2
  -4  10   3 80.8730  6.4914   1
  10  -7  -3 30.9975  5.2077   1
   3 -10  -3 22.8246  5.6298   1
  -7  10   3 41.0299  5.9196   1
 -10   3   3 32.8537  4.3646   1
  -3  10  -3 33.9700  4.7303   1
 -10   7  -3 33.7153  5.2369   1
  -3  -7   3 33.9528  3.8468   1
   3 -10  -3 34.4279  5.4587   2
   7 -10   3 23.6955  6.1443   1
  -7  10   3 37.1340  5.4160   2
  -3  10  -3 38.4111  4.5761   1
   7 -10   3 35.3178  5.6580   2
 -10   7  -3 28.1530  5.0414   2
 -10   3   3 30.2785  4.2982   2
  -3  10   3 23.1597  4.6199   1
   3 -10   3 29.5840  5.8475   1
 -10   3  -3 29.0933  4.3554   2
 -10   7   3 36.3017  5.1353   2
  10  -7   3 29.1650  5.2423   1
   7 -10  -3 26.2777  5.3797   2
  -3  10   3 27.3046  4.6831   1
  -3  -7  -3 32.0672  4.0471   1
 -10   7   3 32.4780  5.4988   1
   7 -10  -3 37.4496  6.1608   1
   3 -10   3 27.7398  5.4027   2
  -7  10  -3 26.8384  5.4506   1
   8 -10   3 3.74823 5.18805   2
 -10   8  -3 7.82202 4.75836   1
  10  -8  -3 4.07823 4.81873   1
  -8  10   3 2.90370 5.15689   1
  -2  -8   3 1.90387 3.11494   2
   8 -10   3 -0.4618  5.5361   1
  -2  -8   3 3.37421 3.64898   1
  -2  10  -3 -0.7714  0.7959   1
 -10   8  -3 0.38822 4.42865   2
   2 -10  -3 3.25453 4.72596   2
  -8  10   3 3.66299 4.90383   2
 -10   2   3 4.77586 3.50708   2
   2 -10  -3 5.66096 5.02199   1
 -10   2   3 4.43332 3.49980   1
  -2  10  -3 2.61507 3.55135   1
   2 -10   3 4.44879 4.80936   2
   2 -10   3 -8.0086  4.7757   1
  -2  -8  -3 7.14979 3.96518   1
  -2  -8  -3 3.75547 3.31778   2
 -10   8   3 1.38277 4.87560   1
   8 -10  -3 12.4568  5.5964   1
  -8  10  -3 5.60729 4.64474   2
  10  -8   3 5.54878 4.96881   1
  -2  10   3 1.55596 3.80580   1
   8 -10  -3 0.03924 4.61941   2
 -10   8   3 -5.3369  4.7466   2
  -2  10   3 4.68512 3.11884   1
  -8  10  -3 8.83929 4.97226   1
  10  -9  -3 5.42979 5.19223   1
  -9  10   3 0.02907 5.14138   1
  -1  10  -3 5.06771 2.79295   1
  10  -9  -3 -1.3948  4.4990   2
 -10   1   3 -0.2940  3.2457   1
  -1  -9   3 -6.5804  4.0945   1
  -1  -9   3 -3.3893  3.7936   2
   9 -10   3 -0.1052  5.3873   1
   1 -10  -3 2.08445 4.86787   1
 -10   1   3 -3.9362  3.0479   2
 -10   9  -3 3.94279 4.87255   1
   1 -10  -3 -1.3978  4.4227   2
  -1  10  -3 -1.3715  2.6286   1
 -10   9   3 -3.8418  4.9492   1
  10  -9   3 -3.0060  5.0441   1
  -1  -9  -3 8.06465 3.93847   2
   1 -10   3 -4.9445  4.7673   1
  -1  -9  -3 3.38488 4.42321   1
  -9  10  -3 -7.9534  4.7109   1
  -1  10   3 -1.1023  3.1343   1
  -1  10   3 -1.0217  2.7842   1
   1 -10   3 -5.1992  4.5527   2
   9 -10  -3 -1.6506  5.3157   1
 -10  10   3 30.0508  6.2218   1
 -10  10  -3 36.2943  5.9774   1
  10 -10   3 30.7479  6.1967   1
  10 -10  -3 31.3873  6.2054   1
   0 -10   3 26.5730  4.9489   2
   0 -10   3 27.3744  5.4324   1
   0 -10  -3 25.0835  5.3811   1
   0 -10  -3 21.2395  4.7913   2
   5 -11  -3 3.87325 5.11787   2
  11  -6  -3 2.87067 4.14173   1
 -11   6  -3 -5.4735  4.1864   1
  -6  11   3 4.53179 4.65699   1
 -11   5   3 0.73975 4.37247   2
 -11   6  -3 -1.4919  4.2168   2
   5 -11  -3 -7.7915  5.1905   1
   6 -11   3 -4.2925  5.1497   2
   6 -11   3 -5.9954  5.6466   1
  11  -5   3 -0.2072  3.6694   1
  -5  11  -3 2.63982 4.59010   1
 -11   5   3 1.98694 4.42220   1
  -5  11  -3 -1.8412  4.5014   1
  -6  11  -3 -3.1679  4.5228   1
  -5  11   3 -1.6176  4.5039   1
  11  -6   3 0.60178 4.34033   1
   6 -11  -3 5.92510 5.30594   2
   5 -11   3 -1.2793  5.4978   1
 -11   6   3 1.64662 4.56159   1
   6 -11  -3 -0.7407  5.5621   1
 -11   5  -3 -0.3365  4.2934   2
   5 -11   3 -5.5820  5.3179   2
  -6  11  -3 -8.1170  4.4716   1
 -11   6   3 1.09385 4.41166   2
  -5  11   3 6.83880 4.91426   1
  11  -5  -3 -0.6629  3.5238   1
   7 -11   3 16.7442  6.2797   1
   4 -11  -3 34.6683  6.2711   1
  11  -4   3 19.6261  3.1840   1
  11  -7  -3 23.8025  4.9885   1
   4 -11  -3 26.4941  5.5816   2
   7 -11   3 22.7697  5.9009   2
 -11   7  -3 29.5207  5.1592   2
 -11   7  -3 20.2883  5.2338   1
 -11   4   3 19.1766  4.5024   1
 -11   4   3 13.8717  4.5194   2
  -7  11   3 21.2993  5.6585   1
  -4  11  -3 17.3778  4.7825   1
 -11   7   3 23.4258  5.4601   1
 -11   7   3 19.1467  5.1628   2
  -7  11  -3 10.3220  5.3103   1
   4 -11   3 17.5840  6.0991   1
 -11   4  -3 27.4552  4.6010   2
  11  -7   3 17.9399  5.1580   1
   7 -11  -3 13.7905  6.1011   1
  -4  11   3 20.0063  5.0063   1
   4 -11   3 18.4361  5.6990   2
   7 -11  -3 19.7062  5.5850   2
 -11   3   3 85.3580  6.3327   1
  -8  11   3 99.2682  8.1426   1
 -11   8  -3 102.268   7.706   1
   8 -11   3 100.651   8.451   1
   3 -11  -3 86.0889  7.3406   2
 -11   3   3 88.5430  6.2044   2
  -3  11  -3 94.4559  6.4741   1
  11  -8  -3 89.5223  7.5256   1
   3 -11  -3 89.1476  8.0607   1
  11  -8   3 89.3208  7.3866   1
  -3  11   3 89.9899  6.5769   1
   3 -11   3 108.813   8.243   1
 -11   3  -3 86.2622  6.2367   2
  -8  11  -3 92.6874  7.6042   1
   8 -11  -3 85.6843  8.3124   1
  -3  -8  -3 72.7858  5.6342   2
 -11   8   3 105.550   7.601   2
   3 -11   3 80.8391  7.4107   2
 -11   8   3 89.8202  7.7521   1
 -11   9  -3 58.7468  6.7473   1
   2 -11  -3 55.6329  6.3111   2
  -2  -9   3 51.3750  4.9379   2
  -2  11  -3 67.5922  4.9114   1
  -9  11   3 58.6496  7.1655   1
   2 -11  -3 69.1377  7.1497   1
 -11   2   3 61.5563  5.0336   2
   9 -11   3 66.6927  7.5314   1
  11  -9  -3 77.4312  7.0603   1
 -11   9   3 64.4451  7.0907   1
   9 -11  -3 76.0869  7.6203   1
  11  -9   3 66.5383  6.9634   1
  -2  -9  -3 56.5054  5.1014   2
  -2  11   3 64.9989  5.2067   1
  -9  11  -3 55.3365  6.7582   1
   2 -11   3 62.2794  7.0204   1
   2 -11   3 67.0476  6.5048   2
 -11  10  -3 19.3555  5.7543   1
  -1 -10   3 21.8912  4.6541   2
  10 -11   3 21.2107  6.2962   1
  11 -10  -3 12.9705  5.7901   1
 -10  11   3 16.8673  5.9711   1
 -11   1   3 22.0867  3.7215   2
   1 -11  -3 11.5304  5.2372   2
  10 -11  -3 14.4276  6.1788   1
   1 -11   3 29.0069  5.4434   2
  11 -10   3 25.8040  6.0786   1
 -10  11  -3 20.8339  5.7360   1
  -1 -10  -3 14.8270  4.5030   2
 -11  10   3 22.4890  6.2012   1
   0 -11   3 58.1011  6.0497   2
   0 -11  -3 53.9665  5.8976   2
  11 -11  -3 54.8136  7.3547   1
  11 -11   3 61.0086  7.3615   1
 -11  11   3 66.1018  7.4862   1
 -11  11  -3 49.1962  6.8014   1
   6 -12  -3 -1.7330  5.0953   2
  -6  12   3 -2.0289  4.7489   1
  12  -6  -3 -3.7756  3.6852   1
   6 -12   3 0.46102 5.40212   2
   6 -12  -3 -6.6159  5.6972   1
  12  -6   3 7.52921 4.05657   1
 -12   6   3 2.44171 4.55790   2
 -12   6   3 -2.2504  4.5711   1
   6 -12   3 -0.3695  5.9026   1
 -12   6  -3 -2.3652  4.3223   1
 -12   6  -3 -0.0082  4.4648   2
  -6  12  -3 -2.3977  4.4651   1
 -12   7  -3 4.97916 4.59378   1
  12  -7  -3 9.51144 4.49381   1
 -12   5   3 5.93633 4.57311   2
 -12   7  -3 5.35613 4.62373   2
  12  -5   3 5.59871 3.38657   1
   5 -12  -3 9.13589 6.01010   1
  -7  12   3 -0.1994  4.9936   1
   5 -12  -3 3.41585 5.34013   2
   7 -12   3 -3.6876  5.9944   1
 -12   5   3 0.92222 4.58766   1
  -5  12  -3 10.1587  4.7792   1
  12  -5  -3 3.30413 3.12576   1
  -7  12  -3 2.82216 4.91852   1
  12  -7   3 8.67021 4.73712   1
 -12   7   3 6.10696 5.04507   1
   5 -12   3 5.12890 6.04157   1
  -5  12   3 -2.4602  4.5110   1
   5 -12   3 -2.1847  5.6077   2
 -12   7   3 3.45031 4.94851   2
   7 -12  -3 2.93236 5.95426   1
 -12   5  -3 0.83408 4.43732   2
 -12   8  -3 55.5497  6.3543   1
   4 -12  -3 45.5618  6.4347   2
  -8  12   3 46.1715  6.5600   1
  -4  12  -3 51.4633  5.6804   1
 -12   4   3 48.8492  5.4370   2
   4 -12  -3 52.1948  6.9983   1
   8 -12   3 60.5904  7.7047   1
  12  -8  -3 52.6835  6.1443   1
  12  -8   3 40.3206  6.0894   1
   4 -12   3 51.2279  6.7808   2
 -12   8   3 53.9997  6.4918   1
  -4  12   3 58.5307  5.9084   1
  -8  12  -3 51.4391  6.5867   1
 -12   4  -3 55.6328  5.5773   2
   8 -12  -3 55.3878  7.3940   1
   4 -12   3 58.9758  7.1655   1
   3 -12  -3 39.2724  6.6581   1
 -12   3   3 44.5339  4.9724   2
  -9  12   3 38.3275  6.6538   1
   3 -12  -3 46.6845  6.3182   2
  12  -9  -3 43.3391  6.2265   1
   9 -12   3 50.9248  7.2319   1
  -3  -9   3 41.4888  4.0707   2
 -12   9  -3 42.1836  6.1828   1
  -3  12  -3 39.1334  4.8372   1
 -12   3  -3 42.7430  4.9484   2
   9 -12  -3 35.2442  6.9233   1
 -12   9   3 47.0714  6.4553   1
  -3  -9  -3 38.4074  4.3406   2
   3 -12   3 33.1857  6.1632   2
  -3  12   3 48.2794  5.1494   1
  12  -9   3 36.6806  6.1771   1
   3 -12   3 43.2148  6.9100   1
  -9  12  -3 48.1358  6.5513   1
 -12   2   3 3.59965 3.80180   2
  10 -12   3 -1.6377  5.8939   1
  -2 -10   3 0.11963 3.88610   2
 -10  12   3 3.16702 5.74448   1
  12 -10  -3 -4.1330  5.2394   1
 -12  10  -3 1.61124 5.30280   1
  -2  12  -3 8.10315 3.23158   1
   2 -12  -3 5.75585 5.27683   2
  10 -12  -3 -7.4791  5.6470   1
  12 -10   3 4.43066 5.30377   1
  -2 -10  -3 -4.0273  3.9871   2
 -12  10   3 7.19151 5.57659   1
  -2  12   3 0.60943 3.40771   1
   2 -12   3 1.83869 5.38716   2
 -10  12  -3 -0.4835  5.1380   1
 -12  11  -3 10.9719  5.6307   1
  -1 -11   3 11.7915  4.7610   2
   1 -12  -3 6.51733 5.17403   2
  11 -12   3 5.60750 6.35540   1
 -11  12   3 7.53994 6.08222   1
  12 -11  -3 9.25268 5.90184   1
 -12   1   3 5.74246 3.59279   2
 -11  12  -3 5.73002 5.60451   1
  -1 -11  -3 1.88382 4.57850   2
   1 -12   3 11.3305  5.3854   2
  12 -11   3 20.8355  6.1194   1
  11 -12  -3 8.22689 6.13999   1
 -12  11   3 3.60773 5.92212   1
   0 -12   3 15.6309  5.4842   2
  12 -12  -3 4.45011 6.36259   1
  12 -12   3 28.8036  6.7658   1
 -12  12   3 5.40500 6.28064   1
 -12  12  -3 27.2749  6.1570   1
   0 -12  -3 12.6213  5.5466   2
  -6  13  -3 0.89352 4.89285   1
  13  -7  -3 -1.6191  4.1094   1
  -7  13   3 3.09838 5.34026   1
   7 -13   3 -2.5608  6.1982   1
  13  -6   3 4.19904 3.75368   1
 -13   7  -3 0.95207 4.79326   1
 -13   6   3 -5.1904  4.6027   2
   6 -13  -3 -2.6409  6.0917   1
   7 -13  -3 2.50508 6.22850   1
  -6  13   3 -1.1998  4.9105   1
   6 -13   3 -4.5297  6.1064   1
 -13   6  -3 5.91111 4.75719   2
 -13   7   3 7.14125 5.23906   1
  13  -7   3 7.70983 4.42566   1
  13  -6  -3 2.65271 3.53827   1
  -7  13  -3 0.81925 5.10493   1
   5 -13  -3 37.2425  7.1352   1
  -5  13  -3 30.3100  5.4809   1
 -13   8  -3 21.8854  5.7471   1
   8 -13   3 35.7692  7.2200   1
 -13   5   3 33.1661  5.4374   2
  -8  13   3 30.9716  6.2119   1
  13  -8  -3 34.7916  5.6146   1
   5 -13   3 31.8992  7.1416   1
 -13   5  -3 29.2223  5.2927   2
   8 -13  -3 39.0670  7.1556   1
  -5  13   3 29.0927  5.6004   1
   5 -13   3 30.1083  6.7713   2
  13  -8   3 32.4431  5.5256   1
 -13   8   3 35.5166  6.1181   1
  -8  13  -3 25.1969  6.0268   1
  13  -9  -3 5.52988 5.11868   1
   9 -13   3 -9.3537  5.9778   1
  -4  13  -3 11.7914  4.4072   1
   4 -13  -3 12.9489  6.0800   2
   4 -13  -3 0.53207 5.95509   1
  -9  13   3 10.0519  5.7542   1
 -13   9  -3 -0.2815  5.0750   1
 -13   4   3 -0.4399  4.4012   2
  -4  -9  -3 5.98574 3.42000   2
   4 -13   3 6.05950 5.82508   2
  13  -9   3 -4.8688  4.9349   1
 -13   9   3 7.83831 5.53021   1
  -9  13  -3 -1.1983  5.2953   1
   4 -13   3 -0.4945  6.1844   1
  -4  13   3 -1.2054  4.3713   1
 -13   4  -3 -6.1397  4.3610   2
   9 -13  -3 -10.434   5.910   1
  13 -10  -3 13.8995  5.6851   1
 -13   3   3 4.21158 4.40440   2
  10 -13   3 -2.9172  6.3142   1
  -3 -10   3 10.7909  4.0091   2
 -13  10  -3 15.0462  5.6775   1
  -3  13  -3 7.01198 4.02465   1
 -10  13   3 5.45332 6.16924   1
   3 -13  -3 11.3413  5.6764   2
  -3  13   3 6.18039 4.04899   1
  -3 -10  -3 16.0008  4.2424   2
   3 -13   3 8.39505 5.94956   2
  10 -13  -3 9.22213 6.49578   1
  13 -10   3 7.46864 5.55165   1
 -13   3  -3 8.05941 4.51283   2
 -10  13  -3 4.54074 5.81728   1
 -13  10   3 12.6078  6.0221   1
 -13   2   3 13.5536  4.3452   2
 -11  13   3 13.2887  6.4103   1
  11 -13   3 12.6443  6.6168   1
 -13  11  -3 0.42920 5.40751   1
  13 -11  -3 14.8961  6.0563   1
  -2 -11   3 17.0205  4.8207   2
   2 -13  -3 11.8751  5.7216   2
 -13  11   3 6.68560 6.25975   1
 -13   2  -3 9.00584 4.39711   2
  13 -11   3 20.4263  6.1313   1
 -11  13  -3 6.09654 6.06930   1
  -2 -11  -3 5.20040 4.46641   2
  11 -13  -3 3.01421 6.54913   1
   2 -13   3 21.8660  5.9720   2
 -13   1   3 32.1416  4.4977   2
 -12  13   3 26.0046  7.0754   1
  12 -13   3 32.8354  7.1968   1
 -13  12  -3 34.9926  6.5963   1
  -1 -12   3 30.8762  5.6232   2
  13 -12  -3 30.9353  6.8859   1
   1 -13  -3 26.6308  6.2272   2
   1 -13   3 16.4120  6.1346   2
  13 -12   3 40.6886  7.1247   1
  -1 -12  -3 24.5020  5.4874   2
 -13  12   3 32.1989  7.0505   1
 -12  13  -3 25.1452  6.8033   1
  12 -13  -3 33.7409  7.3941   1
  13 -13   3 23.1982  6.9058   1
   0 -13  -3 30.9071  6.0445   2
  13 -13  -3 22.3889  7.0570   1
 -13  13  -3 23.6236  6.9566   1
   0 -13   3 13.4897  5.8949   2
 -13  13   3 16.8024  6.9342   1
  14  -7   3 7.03610 4.23671   1
  14  -7  -3 -1.3847  3.9705   1
   7 -14  -3 -3.1159  6.7704   1
  -7  14   3 -2.2647  5.4210   1
  -7  14  -3 14.6840  5.5112   1
   7 -14   3 13.6990  7.0276   1
  -6  14  -3 8.55191 5.21121   1
   6 -14  -3 10.2546  6.7929   1
  14  -8  -3 -1.6008  4.4407   1
  -8  14   3 8.39964 5.75207   1
   8 -14   3 6.39622 6.92470   1
   6 -14   3 4.63514 6.80014   1
  -6  14   3 6.52979 5.30002   1
   8 -14  -3 -3.5822  6.5251   1
  -8  14  -3 1.12633 5.46970   1
  14  -8   3 2.13018 4.67302   1
 -14   9  -3 7.67098 5.52711   1
  -9  14   3 1.75615 5.77729   1
 -14   5   3 4.04335 4.96605   2
  14  -9  -3 3.61430 5.04299   1
  -5  14  -3 3.45709 4.68700   1
   5 -14  -3 3.31143 6.59606   1
   9 -14   3 4.83788 6.59585   1
 -14   9   3 13.1735  5.8946   1
   5 -14   3 4.86421 6.62054   1
  -9  14  -3 -2.8180  5.5400   1
  -5  14   3 -4.7393  4.8003   1
   9 -14  -3 3.11516 6.62120   1
  14  -9   3 8.81859 5.18341   1
  -4  14  -3 -8.3252  4.1430   1
 -10  14   3 1.57165 5.96530   1
  10 -14   3 -5.4461  6.6238   1
  -4 -10   3 5.78066 3.75771   2
 -14   4   3 -3.1265  4.6870   2
  14 -10  -3 -2.7478  5.3173   1
 -14  10  -3 4.24286 5.48080   1
 -14  10   3 -1.6941  5.7688   1
  10 -14  -3 -6.7529  6.4645   1
  14 -10   3 3.48108 5.53673   1
 -10  14  -3 8.91982 6.10822   1
  -4 -10  -3 -1.9326  3.9276   2
 -14   4  -3 7.71135 4.95065   2
  -4  14   3 12.8205  4.7184   1
   3 -14  -3 26.7360  6.6753   2
 -11  14   3 20.2343  6.8599   1
  -3  14  -3 18.2812  3.8995   1
  14 -11  -3 29.0772  6.4499   1
 -14   3   3 17.9275  5.1159   2
  -3 -11   3 14.4598  4.6259   2
 -14  11  -3 24.2479  6.3783   1
  11 -14   3 11.2891  7.0810   1
 -11  14  -3 19.9288  6.5848   1
  14 -11   3 17.2727  6.3506   1
 -14  11   3 30.3280  6.9979   1
  -3 -11  -3 20.7591  4.8690   2
   3 -14   3 20.9387  6.7055   2
 -14   3  -3 26.6954  5.1908   2
  -3  14   3 30.2173  4.3188   1
  11 -14  -3 25.3819  7.4917   1
  14 -12  -3 2.47622 6.11947   1
  12 -14   3 18.4976  7.0711   1
 -14   2   3 6.00403 4.66031   2
  -2 -12   3 9.69277 5.12300   2
 -14  12  -3 3.37958 5.80572   1
   2 -14  -3 3.46111 5.91137   2
 -12  14   3 9.25209 6.73099   1
 -14  12   3 3.23856 6.35776   1
  -2 -12  -3 13.9285  5.2361   2
  14 -12   3 4.91955 6.09460   1
  12 -14  -3 3.05568 6.81627   1
 -12  14  -3 10.6768  6.6124   1
   2 -14   3 5.18820 6.16801   2
 -14   2  -3 6.07505 4.63426   2
 -14   1   3 -3.4365  4.2693   2
 -14  13  -3 -2.7839  5.9982   1
  14 -13  -3 0.12834 6.35025   1
   1 -14  -3 4.55834 5.95249   2
 -13  14   3 1.49082 6.61721   1
  -1 -13   3 7.44997 5.57959   2
  13 -14   3 -1.7780  6.6583   1
  14 -13   3 -3.7739  6.1279   1
  13 -14  -3 10.8262  7.1157   1
  -1 -13  -3 -3.1559  5.3059   2
 -14   1  -3 3.69253 4.53939   2
 -14  13   3 -3.4136  6.5044   1
 -13  14  -3 -3.9539  6.3036   1
   1 -14   3 -1.1351  6.1410   2
 -14  14   3 5.01394 7.16818   1
  14 -14   3 3.80362 6.83201   1
 -14  14  -3 16.0984  7.1125   1
 -14   0   3 -1.5387  4.1151   2
   0 -14  -3 7.82075 6.35583   2
  14 -14  -3 0.43192 6.99019   1
   0 -14   3 6.39526 6.42183   2
  15  -7   3 19.0560  3.6927   1
   8 -15   3 7.59428 7.21309   1
  -7  15  -3 22.9307  5.9580   1
  15  -8  -3 12.5436  4.4320   1
  -8  15   3 11.2204  6.0841   1
   7 -15  -3 7.47834 7.15910   1
  -7  15   3 10.7872  5.9282   1
  15  -8   3 10.0536  4.6073   1
   7 -15   3 22.8617  7.6050   1
  -8  15  -3 17.0562  5.9763   1
   8 -15  -3 22.8935  7.7281   1
  -9  15   3 20.9281  6.5654   1
  -6  15  -3 33.3613  5.7982   1
   9 -15   3 20.7076  7.9045   1
  15  -9  -3 28.6317  5.4592   1
   9 -15  -3 9.77677 7.34285   1
  -9  15  -3 22.4585  6.3575   1
  -6  15   3 20.4522  5.7348   1
  15  -9   3 22.7382  5.4959   1
  -5  15  -3 37.8430  5.6196   1
  15 -10  -3 42.4323  6.4161   1
 -10  15   3 40.0546  7.4129   1
  10 -15   3 58.4137  8.5738   1
  -5 -10  -3 34.3206  4.6467   2
  -5  15   3 34.5215  5.8611   1
 -10  15  -3 43.3086  7.2670   1
  15 -10   3 39.6620  6.4658   1
  10 -15  -3 26.2155  8.0622   1
  -4 -11   3 13.5608  4.6212   2
 -15  11  -3 20.9555  6.6135   1
  15 -11  -3 28.3389  6.6826   1
  -4  15  -3 21.6780  4.6986   1
  11 -15   3 12.2986  7.6417   1
 -11  15   3 18.0495  7.0532   1
  -4  15   3 13.9749  4.8261   1
  -4 -11  -3 17.6528  4.9219   2
 -15  11   3 26.6445  7.4484   1
  15 -11   3 17.4334  6.4821   1
 -11  15  -3 14.2399  6.7375   1
  11 -15  -3 22.7545  7.9921   1
 -15  12  -3 -1.2902  6.0181   1
 -12  15   3 -18.515   6.247   1
  -3 -12   3 5.78386 5.14929   2
  15 -12  -3 2.03679 6.11886   1
 -15   3   3 -6.9443  4.7498   2
  12 -15   3 -2.2471  6.9677   1
 -15   3  -3 3.22019 5.04425   2
  15 -12   3 -17.288   5.780   1
 -12  15  -3 2.26883 6.48649   1
  -3 -12  -3 8.44624 4.91908   2
 -15  12   3 16.0791  7.0106   1
  12 -15  -3 1.24301 7.32255   1
 -13  15   3 -0.5998  6.9536   1
  13 -15   3 -5.3600  6.9576   1
 -15  13  -3 -3.7215  6.2952   1
  15 -13  -3 6.89201 6.65054   1
  -2 -13   3 -1.4579  5.4805   2
 -15   2   3 -3.6893  4.7593   2
  13 -15  -3 10.6112  7.7304   1
  -2 -13  -3 3.25688 5.68726   2
  15 -13   3 0.93990 6.72096   1
 -15   2  -3 0.39044 4.96182   2
 -13  15  -3 3.05743 6.71278   1
 -15  13   3 4.16290 6.88147   1
 -14  15   3 4.17621 7.46856   1
 -15   1   3 8.59440 4.93253   2
 -15  14  -3 4.08618 7.26498   1
  -1 -14   3 3.94264 6.19424   2
 -15  14   3 3.81728 7.36715   1
 -15   1  -3 5.24154 4.90329   2
 -14  15  -3 8.20956 7.17383   1
  -1 -14  -3 -8.1809  5.9436   2
  -8  16   3 6.01236 6.34731   1
  -8  16  -3 7.26032 6.01373   1
   8 -16   3 -10.961   7.434   1
   8 -16  -3 -0.0757  7.6557   1
  -7  16  -3 5.41500 5.68786   1
   9 -16   3 4.74510 7.79251   1
  -9  16   3 8.17834 6.29630   1
  16  -9  -3 1.51253 4.50140   1
  -9  16  -3 0.22505 5.94650   1
  16  -9   3 7.17362 4.89098   1
   9 -16  -3 0.03790 7.35186   1
  -7  16   3 13.2096  6.0021   1
  10 -16   3 4.62900 7.92346   1
  16 -10  -3 -5.7972  5.0815   1
 -10  16   3 -6.4105  6.1745   1
  -6  16  -3 -2.7653  5.1823   1
  16 -10   3 2.28160 5.47025   1
  -6  16   3 0.23481 5.32710   1
 -10  16  -3 -3.5271  5.9624   1
  10 -16  -3 14.9005  7.8262   1
  -5 -11   3 0.75379 4.25869   2
 -11  16   3 -7.0557  6.4789   1
  16 -11  -3 7.23053 5.92684   1
  -5  16  -3 -1.9549  4.9053   1
  11 -16   3 -8.3019  7.5498   1
 -11  16  -3 2.61329 6.58190   1
  11 -16  -3 -6.0552  7.6857   1
  -5  16   3 -10.126   4.695   1
  -5 -11  -3 7.50299 4.60978   2
  16 -11   3 4.24030 6.11915   1
  -4 -12   3 9.12859 5.06275   2
  16 -12  -3 2.53507 6.19509   1
  12 -16   3 -1.5647  7.6831   1
  16 -12   3 -3.6469  6.4109   1
  12 -16  -3 2.92062 8.00646   1
  -4 -12  -3 2.47393 4.95790   2
 -16  13  -3 11.4714  7.1908   1
  -3 -13   3 4.20888 5.55367   2
 -16  13   3 -3.0688  7.0797   1
  -3 -13  -3 4.81824 5.56260   2
   9 -17   3 14.8619  8.6121   1
   9 -17  -3 7.63591 8.21772   1
   0   0   4 9793.34  372.59   1
   0   0  -4 9999.99  370.59   2
   0   0   4 9738.33  370.33   2
   0   0  -4 9921.17  372.37   1
   0  -1  -4 1423.21   53.44   1
   0  -1  -4 1387.37   53.48   1
  -1   1  -4 1429.56   53.43   1
  -1   0   4 1405.74   53.45   1
   1   0  -4 1457.20   53.40   1
   1   0   4 1390.98   53.41   1
   0   1  -4 1410.52   53.43   1
   1  -1  -4 1413.69   53.14   2
  -1   0   4 1403.44   53.12   2
   0  -1   4 1388.19   53.14   2
   1  -1  -4 1372.45   53.47   1
   0  -1   4 1383.26   53.45   1
   0   1   4 1415.65   53.14   2
   0   1  -4 1402.79   53.10   2
  -1   0   4 1425.97   53.45   1
   1   0  -4 1466.86   53.10   2
   0   1   4 1360.43   53.45   1
   1  -1  -4 1466.24   53.47   1
  -1   0  -4 1434.21   53.42   1
   0  -1  -4 1383.17   53.15   2
   0   1   4 1415.35   53.48   1
  -1   1   4 1392.57   53.47   1
   1   1  -4 799.460  31.831   2
   2  -1   4 836.868  32.334   1
  -2   1   4 851.430  32.383   1
  -1   2  -4 824.277  32.060   2
   1   1   4 816.125  32.201   1
   1  -2   4 829.118  32.397   1
   1  -2  -4 832.932  32.462   1
   1  -2  -4 843.458  32.354   1
  -1   2  -4 826.814  32.306   1
   2  -1  -4 820.869  31.995   2
   2  -1  -4 846.343  32.342   1
   2  -1  -4 825.076  32.266   1
   1   1   4 821.613  32.240   1
  -2   1  -4 863.758  32.330   1
  -2   1   4 858.057  32.093   2
   1   1  -4 848.162  32.147   1
   1  -2  -4 859.756  32.139   2
  -2   1   4 860.975  32.415   1
  -1   2   4 882.357  32.170   2
  -1  -1  -4 865.621  32.293   1
  -1  -1   4 883.350  32.024   2
  -1   2   4 841.158  32.409   1
  -1   2   4 841.093  32.450   1
   1   1  -4 845.412  31.864   2
  -1  -1   4 842.691  32.269   1
  -1  -1  -4 835.282  32.300   1
  -2   2   4 47.7625  4.0072   1
   2  -2   4 52.0399  3.9608   1
  -2   0   4 46.5230  3.9576   2
  -2   2   4 65.9881  4.1749   1
   2   0   4 57.4114  4.2408   1
   0  -2  -4 64.6233  4.4303   2
  -2   0  -4 54.7913  4.1849   1
   0   2   4 54.8520  4.4192   1
   0  -2   4 48.2905  3.5216   2
   2  -2  -4 57.0830  3.8192   1
  -2   0   4 56.4090  3.6963   1
   0   2  -4 61.7530  3.7056   1
   0   2   4 51.8553  4.2852   2
   0   2   4 51.4067  3.7870   1
  -2   0   4 55.1305  4.4680   1
   2   0  -4 51.5123  3.4992   2
   0   2  -4 44.8148  3.7936   2
   2   0   4 53.9455  3.6439   1
   0  -2  -4 59.0480  4.4316   1
  -2   2  -4 62.9261  4.8229   1
   0  -2  -4 53.1229  3.9019   1
   0   2  -4 52.6583  3.8410   2
   2   0  -4 53.3736  4.0344   1
   0  -2   4 52.3812  4.1503   2
   2  -2  -4 59.0624  3.7373   2
   2  -2  -4 55.1641  4.0498   1
  -2   2  -4 49.3916  4.1774   2
   0  -2   4 61.1718  4.6035   1
   1  -3  -4 2.49494 2.67149   2
  -3   2  -4 1.59106 2.63518   1
  -1   3  -4 7.31886 2.41498   1
   2   1  -4 -0.1514  0.4885   1
   3  -2  -4 6.73044 2.91632   1
  -3   1   4 3.08636 2.63813   1
   1   2   4 6.30924 2.33678   1
   1  -3  -4 1.36555 2.97821   1
  -3   1   4 1.60302 2.39947   2
   3  -1   4 6.72378 2.63472   1
  -2   3   4 -0.7236  2.9221   1
   1  -3  -4 3.82274 2.64449   1
   2  -3   4 5.44915 3.02934   1
  -1  -2   4 6.21142 2.50156   1
  -2   3   4 4.07941 2.97961   1
  -1  -2   4 2.83052 2.15181   2
  -3   1   4 4.24001 2.71655   1
  -1   3  -4 -0.2050  2.4406   2
  -2   3   4 4.87878 2.75765   2
   2  -3   4 4.21642 2.83010   2
   3  -2  -4 1.98615 2.41885   2
  -1  -2   4 1.57011 2.07598   2
  -2  -1  -4 3.23676 2.12532   1
   1   2   4 -0.6237  2.2597   1
  -2  -1  -4 2.99072 2.37356   1
   3  -2  -4 2.42704 2.57017   1
  -1   3   4 1.73843 2.54440   2
   1   2  -4 2.78960 1.67731   1
   3  -1  -4 3.63462 2.29194   1
  -1  -2  -4 0.87024 2.58554   1
  -3   2   4 4.40157 2.59766   2
   3  -1  -4 5.08980 2.53327   1
   2   1   4 1.39468 1.91982   1
  -2   3  -4 3.33585 2.71879   1
   1  -3   4 6.26861 2.97038   1
  -1   3   4 0.89199 2.74411   1
   2  -3  -4 2.77515 2.74404   2
  -2  -1   4 0.23899 1.93891   2
  -1   3   4 0.58332 2.82845   1
  -3   2   4 4.18630 2.90134   1
   2  -3  -4 3.86975 3.05974   1
   3  -2   4 -0.1416  2.7226   1
   2   1   4 1.90874 2.10033   1
   2  -3  -4 5.94742 2.73403   1
   3  -1  -4 0.54587 1.95760   2
   1  -3   4 5.20943 2.83880   2
  -2  -1   4 -0.3873  2.2335   1
  -2   3  -4 1.14403 2.60353   2
  -3   2   4 4.10844 2.95555   1
  -3   1  -4 3.51284 2.52559   1
  -1  -2  -4 2.48508 2.34553   1
   3   0   4 826.225  32.184   1
  -3   3   4 845.077  32.645   1
   0  -3   4 831.776  32.394   1
   3  -3   4 836.116  32.609   1
   0  -3  -4 827.315  32.122   2
   3   0   4 831.496  32.177   1
  -3   0  -4 861.065  32.293   1
   3  -3  -4 856.784  32.273   2
   0   3  -4 877.746  31.870   2
  -3   3  -4 828.368  32.267   2
  -3   0   4 839.918  32.252   1
   0   3   4 816.481  32.360   1
   3  -3  -4 838.559  32.628   1
   0   3  -4 847.804  32.276   1
  -3   0   4 848.068  32.300   1
   0  -3   4 820.909  32.060   2
   0  -3  -4 821.874  32.469   1
  -3   3   4 885.443  32.753   1
   0   3   4 835.538  32.327   1
   0  -3  -4 866.500  32.409   1
   0   3  -4 839.699  31.838   2
   0  -3   4 826.584  32.060   2
  -3   0   4 837.656  31.919   2
  -3   3  -4 851.825  32.590   1
   3  -3  -4 845.942  32.584   1
   4  -2  -4 1728.27   65.22   1
  -2  -2  -4 1775.45   65.10   1
  -2  -2   4 1679.64   65.06   1
   2  -4  -4 1726.49   65.45   1
  -2   4  -4 1730.08   64.93   2
   4  -2  -4 1760.91   64.75   2
  -4   2   4 1799.88   65.44   1
   2  -4  -4 1735.50   65.02   2
  -4   2   4 1715.87   65.36   1
   2   2   4 1669.71   65.03   1
  -4   2  -4 1812.78   65.41   1
   2  -4  -4 1678.28   65.49   1
  -2   4   4 1667.62   65.42   1
  -2   4  -4 1716.17   65.37   1
   4  -2  -4 1738.20   65.31   1
  -4   2   4 1739.88   64.93   2
   2  -4   4 1666.54   65.01   2
  -2   4   4 1740.78   65.46   1
   4  -2   4 1686.91   65.29   1
  -2  -2  -4 1677.07   65.11   1
   2   2   4 1676.47   64.99   1
  -2   4   4 1809.04   65.04   2
   2  -4   4 1671.11   65.44   1
  -4   1   4 4347.84  152.07   1
   1  -4  -4 3827.91  151.27   2
   3  -4   4 4204.89  153.71   1
  -1   4  -4 3908.01  151.62   2
  -3   4   4 4145.43  152.25   1
  -1   4  -4 3972.54  152.04   2
  -4   3  -4 4015.13  153.35   1
  -1  -3   4 4075.16  151.76   2
  -4   1   4 4283.91  153.03   1
   1   3   4 4140.44  152.76   1
  -3   4   4 4211.40  153.68   1
   1  -4  -4 3908.78  152.03   1
   4  -1   4 4110.01  152.57   1
  -4   1   4 4228.37  151.75   2
   3  -4   4 4350.89  151.49   2
   1  -4  -4 3708.85  152.06   1
  -1  -3   4 3964.35  152.66   1
   4  -3  -4 3942.40  153.41   1
  -1  -3   4 4273.06  152.03   2
  -1   4  -4 3795.43  151.89   1
  -3   4   4 4218.83  151.43   2
  -4   3  -4 3812.43  151.29   2
   4  -3  -4 3988.74  152.07   1
   4  -3  -4 3842.56  151.87   2
  -3  -1  -4 3824.71  152.46   1
  -3  -1  -4 3900.71  152.31   1
   4  -1  -4 4226.57  152.58   1
  -4   3   4 3932.27  151.35   2
  -1  -3  -4 4223.42  152.50   1
   3   1   4 3772.12  152.27   1
  -1   4   4 3892.65  152.15   2
   3  -4  -4 4470.04  152.29   1
  -1  -3  -4 4000.45  151.99   1
  -4   1  -4 4447.36  152.76   1
   1  -4   4 3737.64  151.26   2
  -3  -1   4 3995.65  152.30   1
   4  -3   4 3842.93  153.45   1
   3   1   4 3650.96  152.39   1
  -1   4   4 3753.95  151.99   1
   1  -4   4 3793.06  152.03   1
  -1   4   4 3842.34  152.98   1
   3  -4  -4 4026.38  152.27   1
  -1  -3  -4 4241.87  152.00   2
   4  -1  -4 4350.18  152.38   1
   3  -4  -4 4360.98  152.52   2
  -3   4  -4 4320.73  153.52   1
  -4   3   4 4147.18  152.21   1
   1   3  -4 3996.53  152.27   1
   1   3  -4 4101.84  152.52   1
  -4   3   4 3932.80  152.16   1
  -3   4  -4 4218.19  151.39   2
   0   4  -4 1902.88   74.85   1
   0   4  -4 1990.99   74.85   1
   4   0   4 1933.46   74.79   1
  -4   4   4 2113.69   75.44   1
   4  -4  -4 2008.10   75.29   1
  -4   0   4 1970.16   74.44   2
  -4   4  -4 1939.68   74.76   2
   0  -4   4 2003.18   75.03   1
   0   4   4 1973.10   74.90   1
   0  -4   4 1960.56   74.51   2
   0  -4  -4 1933.16   75.05   1
  -4   4  -4 2002.59   75.31   1
   0  -4  -4 2029.74   75.04   1
   0   4   4 1959.61   74.95   1
   4   0  -4 1982.59   74.84   1
  -4   0   4 1990.40   74.85   1
  -4   4   4 1958.16   74.77   2
   4  -4  -4 2045.27   75.40   1
  -4   0  -4 2040.66   74.90   1
  -4   4   4 1958.20   75.29   1
   4   0   4 1985.19   74.78   1
   4  -4   4 1924.12   75.28   1
   0  -4  -4 2022.83   74.57   2
   4  -4  -4 1960.95   74.72   2
  -4   0   4 1981.09   74.85   1
  -2  -3   4 167.737   7.543   1
  -5   3  -4 171.908   8.630   1
   5  -3  -4 180.376   8.238   1
  -5   2   4 170.528   7.808   2
  -3   5   4 159.512   8.291   2
   5  -3  -4 172.879   7.718   2
   2  -5  -4 161.351   8.438   1
  -5   3  -4 155.496   7.957   2
  -3   5   4 173.478   8.788   1
  -2   5  -4 155.205   8.121   1
  -2   5  -4 158.903   7.806   2
  -2   5  -4 173.032   8.263   1
  -5   2   4 173.327   8.420   1
   5  -3  -4 169.018   8.390   1
  -5   2   4 166.702   8.041   1
   5  -2   4 156.157   7.990   1
   2  -5  -4 173.636   8.587   1
  -3  -2  -4 168.802   7.494   1
  -3  -2  -4 167.563   7.508   1
   3  -5   4 170.097   8.828   1
   2  -5  -4 172.639   8.135   2
   3  -5   4 180.560   8.438   2
  -3   5   4 165.363   8.636   1
  -2   5   4 159.117   8.450   1
  -5   3   4 168.059   8.199   2
   5  -2  -4 166.026   7.949   1
  -5   3   4 165.809   8.326   1
  -2   5   4 178.409   8.023   2
   2  -5   4 157.230   8.201   2
  -2  -3  -4 174.199   7.765   1
  -5   2  -4 186.368   8.377   1
   3  -5  -4 175.003   8.646   1
  -2   5   4 167.435   8.338   1
   3  -5  -4 166.960   8.368   2
   3  -5  -4 159.971   8.497   1
   2  -5   4 147.155   8.433   1
   5  -2  -4 171.394   7.828   1
  -3   5  -4 173.180   8.643   1
  -5   3   4 177.945   8.571   1
  -3   5  -4 164.632   8.109   2
   5  -3   4 170.116   8.323   1
  -3  -2   4 169.986   7.363   1
  -2  -3  -4 167.421   7.707   1
  -5   4  -4 191.634   9.659   1
  -4  -1  -4 189.565   8.242   1
  -5   4  -4 185.680   8.812   2
  -4   5   4 197.888   9.006   2
  -5   1   4 182.721   8.130   2
   4  -5   4 188.585   9.589   1
   1   4   4 186.983   8.055   1
  -1   5  -4 179.879   7.902   2
   1  -5  -4 190.552   9.050   1
   1   4   4 182.620   8.032   1
  -4   5   4 200.461   9.308   1
  -1  -4   4 182.052   7.912   2
  -4  -1  -4 188.772   8.279   1
  -1  -4   4 185.531   7.953   2
   5  -4  -4 189.268   8.628   2
   5  -4  -4 183.272   9.234   1
   1  -5  -4 182.882   9.125   1
  -1   5  -4 195.059   8.572   1
  -1   5  -4 194.443   8.062   2
   1  -5  -4 192.767   8.650   2
  -5   1   4 194.757   8.781   1
  -5   1   4 185.731   8.516   1
   4  -5   4 184.066   9.203   2
  -4   5   4 193.393   9.638   1
  -1   5  -4 177.752   8.605   1
  -1  -4   4 189.885   8.474   1
   5  -1   4 192.394   8.321   1
   5  -4  -4 181.446   9.180   1
  -4  -1   4 187.343   8.094   1
   1  -5   4 190.401   9.021   1
  -1   5   4 189.835   8.921   1
   1   4  -4 184.297   7.728   1
  -1  -4  -4 184.111   8.557   1
   1  -5   4 171.624   8.663   2
  -5   1  -4 203.192   8.919   1
   4  -5  -4 191.557   9.069   2
   1   4  -4 179.066   7.736   1
  -1  -4  -4 186.976   8.163   2
   5  -4   4 178.846   9.323   1
  -4   5  -4 181.711   8.955   2
  -1  -4  -4 194.319   8.634   1
  -1   5   4 193.926   8.192   2
  -5   4   4 203.638   9.682   1
   4  -5  -4 186.481   9.439   1
   4  -5  -4 185.867   9.431   1
  -4   5  -4 190.140   9.376   1
  -5   4   4 184.029   9.279   1
  -5   4   4 192.140   8.940   2
  -1   5   4 185.688   8.759   1
   5  -5   4 1347.55   54.67   1
   0  -5  -4 1447.72   54.40   1
   0  -5  -4 1376.26   54.41   1
  -5   5   4 1527.69   54.94   1
  -5   5   4 1460.80   54.35   2
   5  -5  -4 1431.83   54.23   2
  -5   5   4 1424.21   54.76   1
   0  -5   4 1382.98   54.32   1
  -5   0  -4 1479.08   54.19   1
   0   5   4 1409.22   54.18   1
  -5   5  -4 1411.02   54.26   2
   0  -5   4 1358.27   53.85   2
   0   5   4 1327.05   54.06   1
  -5   0   4 1450.09   54.08   1
   0   5  -4 1333.69   54.01   1
  -5   5  -4 1486.72   54.88   1
  -5   0   4 1451.51   54.12   1
   5  -5  -4 1419.39   54.80   1
   5  -5   4 1499.44   54.36   2
   5  -5  -4 1521.06   54.81   1
   0  -5  -4 1419.86   53.93   2
  -3   6  -4 1631.49   61.86   2
  -3   6  -4 1591.01   62.37   1
  -3  -3  -4 1679.28   61.82   1
  -3  -3  -4 1635.34   61.85   1
   3  -6   4 1590.12   62.51   1
  -3   6   4 1635.10   62.50   1
   6  -3  -4 1649.03   62.22   1
  -3   6   4 1681.55   61.95   2
   3  -6  -4 1638.69   62.08   2
   3  -6   4 1619.58   62.09   2
   6  -3  -4 1676.48   61.46   2
  -6   3   4 1638.52   62.34   1
  -6   3   4 1662.07   61.88   2
  -3   6   4 1582.77   62.40   1
  -3  -3   4 1619.54   61.77   1
   6  -3   4 1590.81   62.20   1
   6  -3  -4 1675.43   62.13   1
   3  -6  -4 1611.14   62.61   1
  -3   6  -4 1645.08   62.41   1
  -2   6  -4 88.3839  5.3236   2
  -2   6  -4 89.6865  5.8896   1
  -4  -2  -4 89.6707  5.0687   1
  -4   6   4 92.6013  6.6479   1
   6  -4  -4 91.3795  5.6179   2
   4  -6   4 97.9068  6.9877   1
   4  -6   4 93.0322  6.5164   2
  -4   6   4 92.1686  6.7403   1
  -4   6   4 84.1485  6.2382   2
  -4  -2  -4 93.0343  4.9902   1
   2  -6  -4 87.4241  5.9464   2
   6  -2   4 84.6346  5.5825   1
  -6   4  -4 80.7360  6.0670   2
  -2   6  -4 77.3464  5.9302   1
   6  -4  -4 99.1249  6.1907   1
   6  -4  -4 92.8174  6.3706   1
  -2  -4   4 82.7541  5.1750   1
   2  -6  -4 84.7647  6.5084   1
  -6   2   4 96.1632  5.8794   1
  -6   2   4 89.6779  5.4756   2
   6  -4   4 95.8063  6.4380   1
   4  -6  -4 88.9093  6.3293   2
   4  -6  -4 86.6063  6.5362   1
  -2  -4  -4 91.6130  5.3186   1
   2  -6   4 83.9806  6.1864   2
  -4  -2   4 86.8106  4.7265   1
  -4   6  -4 88.6021  6.8527   1
  -2   6   4 88.6930  5.6946   2
  -4   6  -4 86.3214  6.1181   2
  -2   6   4 90.3407  6.5111   1
  -6   4   4 105.025   6.552   1
  -2  -4  -4 83.0994  5.4819   1
   2  -6   4 88.6947  6.6800   1
   4  -6  -4 98.6373  6.9759   1
  -6   4   4 93.1229  6.1739   2
  -4   6  -4 84.0102  6.1028   1
   6  -2  -4 89.6325  5.4331   1
  -2   6   4 84.3315  6.1803   1
  -1  -5   4 15.3779  2.5408   2
  -5  -1  -4 19.7148  2.6426   1
   6  -5  -4 15.5613  3.7233   1
  -5  -1  -4 20.7561  2.7205   1
   5  -6   4 17.5957  4.1806   1
   1  -6  -4 14.2523  3.3340   2
   1   5   4 16.8970  2.1556   1
  -6   1   4 16.6103  2.8598   1
   1  -6  -4 15.0776  3.7594   1
  -1   6  -4 17.9004  3.1376   1
   1   5   4 19.1580  2.1480   1
  -5   6   4 14.7175  3.9064   1
  -5   6   4 20.5424  3.7844   2
   6  -5  -4 12.0847  3.8026   1
   6  -1   4 17.3395  2.3227   1
   6  -5  -4 19.0495  3.2278   2
  -1  -5   4 14.7845  2.6091   2
  -6   1   4 15.7543  2.5902   2
  -5   6   4 18.4539  4.0392   1
  -1  -5   4 14.4984  2.9599   1
  -1   6  -4 22.0970  2.9917   1
  -6   5  -4 14.8706  3.4431   2
   5  -6   4 14.9711  3.7814   2
   6  -1   4 15.7800  2.3185   1
  -5  -1   4 14.7345  2.3874   1
  -5   6  -4 15.7789  3.6071   2
  -1   6   4 16.2862  3.2588   1
  -1  -5  -4 14.0621  3.1839   1
  -1  -5  -4 18.1123  2.8157   2
  -1   6   4 14.3224  3.1010   1
   1  -6   4 16.2362  3.4638   2
  -5   6  -4 19.9114  3.9232   1
  -6   5   4 16.2411  3.5752   2
   5  -6  -4 16.5016  4.0227   1
   1  -6   4 19.5291  3.7411   1
   6  -5   4 10.3984  3.8733   1
   5  -6  -4 16.1733  3.7345   1
   5  -6  -4 16.5799  3.5135   2
  -5  -1   4 19.8356  2.5540   1
  -6   5   4 14.0087  3.7541   1
   6  -6   4 844.778  31.291   2
   0  -6  -4 798.409  30.714   2
  -6   6   4 830.644  31.724   1
   0  -6   4 806.120  31.110   1
   0  -6  -4 777.630  31.116   1
  -6   6  -4 796.426  31.198   2
   0  -6   4 783.794  30.636   2
  -6   0   4 807.430  30.638   1
   0   6  -4 805.549  30.585   1
   0   6   4 780.957  30.686   1
   0   6   4 670.443  30.469   1
   6  -6   4 779.653  31.638   1
   6  -6  -4 802.945  31.095   2
   0   6  -4 752.518  30.477   1
   6  -6  -4 821.593  31.701   1
  -6   6   4 836.702  31.309   2
   6  -6  -4 860.908  31.771   1
   4  -7   4 477.676  19.882   1
   7  -3   4 464.910  19.073   1
   4  -7   4 460.365  19.441   2
  -4   7   4 489.248  19.989   1
  -3  -4   4 470.571  18.563   1
  -7   4  -4 471.549  19.204   2
  -4  -3  -4 478.528  18.577   1
   7  -4  -4 481.797  18.563   2
  -3   7  -4 460.685  19.477   1
  -4  -3  -4 479.595  18.538   1
   7  -4  -4 487.347  19.422   1
  -3   7  -4 482.328  18.915   2
   3  -7  -4 444.966  19.318   2
  -3   7  -4 453.432  19.455   1
  -7   3   4 468.928  19.314   1
  -4   7   4 494.008  19.398   2
  -7   3   4 473.543  18.993   2
   3  -7  -4 459.714  19.799   1
  -4   7   4 456.973  19.636   1
   7  -4  -4 478.484  19.265   1
  -3   7   4 484.836  19.121   2
  -7   4   4 478.316  19.241   2
  -3  -4  -4 469.672  18.669   1
  -3  -4  -4 489.236  18.762   1
  -4   7  -4 493.190  19.775   1
  -3   7   4 434.645  19.432   1
   7  -4   4 470.650  19.368   1
  -4   7  -4 486.182  19.259   2
   3  -7   4 464.754  19.758   1
   4  -7  -4 486.466  19.486   2
  -4   7  -4 455.165  19.540   1
   7  -3  -4 481.062  19.016   1
   4  -7  -4 453.893  19.870   1
  -7   4   4 484.087  19.585   1
   3  -7   4 462.724  19.303   2
  -4  -3   4 477.356  18.384   1
  -3   7   4 469.022  19.662   1
   7  -2   4 517.980  21.224   1
  -5   7   4 548.631  22.011   2
  -2  -5   4 518.253  21.319   1
  -5   7   4 512.705  22.324   1
   2  -7  -4 551.071  21.778   2
   7  -5  -4 541.884  22.173   1
  -5  -2  -4 570.640  21.139   1
  -2   7  -4 556.223  21.769   1
  -5   7   4 548.552  22.633   1
   5  -7   4 503.479  22.447   1
  -7   2   4 501.116  21.600   1
  -2   7  -4 529.190  21.736   1
  -7   5  -4 585.074  21.993   2
  -7   2   4 523.232  21.279   2
  -5  -2  -4 584.807  21.201   1
   7  -5  -4 585.195  21.536   2
   7  -5  -4 603.725  22.215   1
   5  -7   4 522.250  22.092   2
   2  -7  -4 532.355  22.200   1
  -5   7  -4 529.859  21.923   2
  -7   5   4 572.591  22.007   2
  -5   7  -4 503.498  22.126   1
   2  -7   4 544.781  21.795   2
  -5  -2   4 568.771  20.990   1
  -5   7  -4 528.760  22.476   1
  -2   7   4 558.878  21.996   1
  -2   7   4 535.631  21.888   1
  -2  -5  -4 523.239  21.450   1
   2  -7   4 546.932  22.223   1
   7  -5   4 576.505  22.245   1
   5  -7  -4 516.962  21.954   2
   5  -7  -4 523.708  22.457   1
   7  -2  -4 521.153  21.153   1
  -7   5   4 544.297  22.292   1
  -1  -6   4 249.531  11.212   1
  -7   1   4 256.951  10.918   1
  -1  -6   4 238.301  10.542   2
  -7   1   4 257.023  10.470   2
  -6   7   4 235.200  12.104   1
   7  -6  -4 252.972  11.478   2
   1  -7  -4 234.285  11.108   2
   7  -6  -4 261.000  12.061   1
  -1   7  -4 249.772  10.850   1
   1  -7  -4 248.605  11.621   1
   7  -6  -4 257.130  12.070   1
   6  -7   4 248.143  12.389   1
   6  -7   4 269.244  12.125   2
  -6   7   4 253.689  11.921   2
  -1   7  -4 233.833  10.819   1
   6  -7  -4 256.684  11.629   2
  -7   6   4 260.786  12.130   1
  -1  -6  -4 251.154  10.679   2
  -1  -6  -4 248.016  11.230   1
   6  -7  -4 237.041  12.078   1
   1  -7   4 246.782  11.632   1
  -6   7  -4 236.913  11.929   1
  -6  -1   4 248.178  10.438   1
   7  -6   4 249.670  12.050   1
  -7   6   4 262.160  11.662   2
  -6   7  -4 256.526  11.722   2
  -1   7   4 246.352  11.033   1
   1  -7   4 235.310  11.203   2
  -1   7   4 249.680  11.198   1
   0  -7  -4 2436.08   93.56   1
  -7   7   4 2549.23   94.11   1
   0   7   4 2386.69   93.00   1
   7  -7  -4 2484.56   94.10   1
  -7   0   4 2432.09   93.01   1
   7  -7   4 2619.90   93.40   2
   0   7  -4 2450.27   92.90   1
   0  -7  -4 2411.50   92.80   2
   7  -7   4 2490.49   94.02   1
  -7   7  -4 2504.64   93.35   2
   7  -7  -4 2464.97   93.22   2
  -7   7  -4 2355.27   93.88   1
   0  -7   4 2487.62   93.48   1
   0  -7   4 2404.31   92.78   2
   7  -7  -4 2649.34   94.17   1
   0   7   4 2452.32   92.95   1
   0   7  -4 2297.39   92.84   1
  -7   7   4 2528.47   93.44   2
  -4   8  -4 1510.95   56.34   1
  -8   4   4 1522.69   55.72   2
   4  -8   4 1406.22   55.91   2
   4  -8  -4 1420.86   56.51   1
  -4  -4  -4 1479.04   55.37   1
  -4   8   4 1374.78   56.19   1
   4  -8  -4 1458.28   56.00   2
   4  -8   4 1439.41   56.45   1
  -4  -4   4 1481.36   55.24   1
  -8   4   4 1502.69   56.16   1
  -8   4  -4 1452.99   55.62   2
  -4   8   4 1546.10   56.49   1
   8  -4   4 1391.21   55.83   1
  -4   8  -4 1377.23   56.14   1
   8  -4  -4 1517.31   55.92   1
  -5   8   4 243.145  11.984   1
   3  -8  -4 224.408  11.520   1
  -8   3   4 216.701  10.599   1
   8  -3   4 222.793  10.148   1
  -3   8  -4 219.003  10.750   1
  -5  -3  -4 212.732   9.597   1
  -3   8  -4 224.047  10.972   1
  -3  -5   4 216.028   9.782   1
  -5   8   4 211.579  11.230   1
   5  -8   4 226.185  11.711   1
  -5   8   4 241.015  11.117   2
   3  -8  -4 231.524  11.039   2
   5  -8   4 224.025  11.277   2
  -8   3   4 225.890  10.286   2
  -8   5  -4 227.639  10.899   2
   8  -5  -4 237.383  11.019   1
   5  -8  -4 227.961  11.173   2
  -3  -5  -4 229.768   9.995   1
  -5   8  -4 203.913  11.073   1
  -5   8  -4 241.467  11.666   1
   3  -8   4 217.911  11.348   1
  -8   5   4 223.512  10.907   2
   8  -3  -4 223.947  10.007   1
  -3   8   4 208.429  10.881   1
  -5   8  -4 236.310  11.040   2
   3  -8   4 213.017  10.928   2
  -8   5   4 220.074  11.266   1
  -3   8   4 234.423  11.204   1
  -5  -3   4 224.080   9.335   1
   8  -5   4 215.381  10.846   1
   5  -8  -4 215.467  11.583   1
   2  -8  -4 68.7473  5.4974   2
  -2  -6   4 66.0230  4.2864   2
  -6  -2  -4 60.0306  4.7917   1
  -2   8  -4 68.8084  5.0040   1
   6  -8   4 79.0198  6.0614   2
  -2   8  -4 63.9070  5.1027   1
   8  -6  -4 81.7207  5.2981   2
  -8   2   4 72.6923  4.9972   1
   8  -6  -4 69.7009  5.7033   1
   8  -2   4 70.0321  4.1877   1
   2  -8  -4 64.1591  5.9426   1
  -2  -6   4 67.8285  4.6495   1
  -8   6  -4 75.0181  5.5579   2
  -6   8   4 67.8930  5.6774   2
   6  -8   4 70.5940  6.4826   1
  -6   8   4 73.0978  6.2148   1
   8  -6  -4 62.0846  5.7703   1
  -8   2   4 74.7589  5.3698   2
  -2  -6  -4 66.3318  4.9081   1
  -2   8   4 74.0930  5.3075   1
  -6   8  -4 69.8314  5.6086   2
  -8   6   4 60.6097  5.8217   1
   2  -8   4 68.8572  5.7944   1
  -6   8  -4 72.1754  5.9659   1
   2  -8   4 67.1580  5.5757   2
   6  -8  -4 60.5134  6.2345   1
  -8   6   4 72.1740  5.7623   2
   6  -8  -4 67.9402  5.6639   2
  -2   8   4 61.7366  5.1413   1
   8  -6   4 67.2258  5.8653   1
  -6  -2   4 56.9326  4.3294   1
  -2  -6  -4 69.1477  4.7155   2
  -8   1   4 330.139  13.877   1
   8  -7  -4 329.777  15.158   1
  -1  -7   4 315.248  13.621   2
  -7   8   4 324.033  15.200   1
  -1   8  -4 296.031  13.606   1
   1  -8  -4 323.738  14.230   2
  -8   1   4 321.169  13.351   2
  -1  -7   4 328.348  14.210   1
  -7   8   4 337.836  15.093   2
   7  -8   4 351.528  15.303   2
   1  -8  -4 325.797  14.790   1
  -8   7  -4 318.270  14.972   1
   8  -7  -4 328.911  14.461   2
   8  -7  -4 376.420  15.516   1
   7  -8   4 335.321  15.301   1
  -1  -7  -4 337.743  14.373   1
   7  -8  -4 317.658  15.330   1
  -7  -1   4 336.400  13.406   1
   1  -8   4 319.371  14.293   2
  -1   8   4 320.576  13.861   1
   8  -7   4 316.302  15.110   1
  -1  -7  -4 320.989  13.688   2
  -7   8  -4 350.833  14.929   2
  -8   7   4 336.919  15.133   1
   7  -8  -4 331.428  14.718   2
   1  -8   4 316.358  14.739   1
  -7   8  -4 325.682  15.156   1
  -8   8   4 493.157  20.744   1
  -8   0   4 483.597  19.105   1
   0  -8  -4 452.529  19.937   1
   8  -8  -4 499.060  20.171   2
  -8   8  -4 484.152  20.322   2
   0  -8   4 461.065  19.465   2
   8  -8  -4 476.430  20.690   1
   0   8   4 464.433  18.831   1
  -8   8  -4 446.893  20.311   1
   8  -8   4 480.179  20.785   1
   8  -8   4 513.374  20.456   2
  -8   8   4 483.701  20.348   2
   0   8   4 477.884  18.790   1
   0  -8  -4 477.713  19.432   2
   0  -8   4 471.254  19.911   1
   9  -4   4 105.554   6.947   1
   5  -9   4 102.430   8.127   2
  -9   5  -4 111.343   7.612   2
   5  -9   4 113.123   8.877   1
  -5  -4  -4 118.916   6.113   1
   9  -5  -4 104.018   7.488   1
  -9   4   4 120.936   7.833   1
  -4   9  -4 107.945   7.635   1
  -4   9  -4 110.667   8.236   1
  -5   9   4 119.803   9.031   1
   4  -9  -4 105.357   8.498   1
  -4  -5   4 110.138   5.953   1
  -9   4   4 107.300   7.319   2
   4  -9  -4 107.646   8.176   2
  -5   9   4 107.537   7.951   1
   4  -9   4 105.194   7.839   2
  -4  -5  -4 113.408   6.265   1
   9  -4  -4 113.661   6.962   1
   5  -9  -4 111.659   8.463   1
   4  -9   4 110.285   7.847   1
  -4   9   4 96.8654  7.6438   1
  -5   9  -4 115.408   8.599   1
  -9   4  -4 114.012   7.446   2
   9  -5   4 112.812   7.761   1
  -9   5   4 126.852   7.973   2
  -4   9   4 112.963   8.766   1
  -9   5   4 121.205   8.149   1
  -5   9  -4 100.410   7.710   1
   5  -9  -4 100.979   7.975   2
  -3   9  -4 2.23252 3.73674   1
  -9   6  -4 -3.5763  4.0242   2
  -6  -3  -4 1.86206 2.57110   1
   9  -3   4 1.34896 2.92635   1
   9  -6  -4 -1.4109  4.0285   1
   3  -9  -4 -4.1887  4.2452   2
   6  -9   4 2.63759 4.64933   2
  -6   9   4 9.81237 4.46000   2
   6  -9   4 3.37973 5.07135   1
  -6   9   4 -0.1390  4.3890   1
  -9   3   4 -3.0081  3.5424   2
  -3  -6   4 1.32953 2.90492   1
  -9   3   4 -1.3667  3.5196   1
   3  -9  -4 -3.6362  4.6277   1
  -3   9  -4 -4.2682  3.7807   1
   9  -6   4 2.72023 4.23279   1
  -3  -6  -4 -2.8916  3.2359   1
  -9   6   4 0.99340 4.09757   2
   3  -9   4 2.26451 4.63892   1
  -6   9  -4 -1.3431  4.1081   2
  -3   9   4 -1.7559  3.8389   1
  -9   6   4 -1.4245  4.1148   1
   9  -3  -4 -1.0905  2.6705   1
   6  -9  -4 -0.0756  4.8970   1
   3  -9   4 -8.9062  4.3425   2
  -3   9   4 1.18810 3.97141   1
  -6   9  -4 -2.6307  4.2064   1
   6  -9  -4 -0.0245  4.2865   2
  -9   7  -4 33.5930  5.1793   1
  -2  -7   4 38.8523  3.5634   2
  -2   9  -4 37.5682  4.2131   1
  -2   9  -4 29.5285  4.3277   1
  -9   2   4 31.8233  4.2518   1
  -7   9   4 31.7597  5.6717   1
   7  -9   4 42.1545  6.2038   1
  -9   7  -4 44.8788  5.2544   2
   2  -9  -4 44.0567  5.1922   2
  -2  -7   4 43.4148  4.2595   1
   7  -9   4 41.8022  5.6106   2
   9  -7  -4 41.3792  5.5193   1
   9  -7  -4 50.3888  4.7626   2
  -7   9   4 43.0111  5.4499   2
   2  -9  -4 42.8319  5.6330   1
  -9   2   4 43.9439  4.1036   2
  -2   9   4 40.8220  4.5373   1
  -2  -7  -4 36.7790  3.8495   2
   9  -7   4 45.8682  5.6501   1
  -7   9  -4 38.4423  5.2399   2
  -7  -2   4 37.7096  3.2178   1
  -2   9   4 35.0057  4.6428   1
   2  -9   4 33.3412  5.1248   2
  -9   7   4 45.1161  5.7979   1
   2  -9   4 35.9074  5.4692   1
  -9   7   4 37.4770  5.3090   2
   7  -9  -4 44.7105  6.1380   1
  -2  -7  -4 35.3373  4.4318   1
  -7   9  -4 30.8339  5.3202   1
   7  -9  -4 33.9447  5.1346   2
  -1  -8   4 351.377  14.688   1
   1  -9  -4 321.289  14.525   2
  -8   9   4 322.522  15.722   1
   9  -8  -4 331.375  15.582   1
  -1  -8   4 311.615  14.008   2
  -1   9  -4 319.629  13.697   1
   8  -9   4 327.231  15.967   1
  -9   8  -4 313.039  15.036   2
  -9   8  -4 320.679  15.451   1
  -1   9  -4 335.529  13.865   1
  -9   1   4 323.418  14.163   1
   9  -8  -4 351.299  14.918   2
  -9   1   4 300.624  13.538   2
  -8   9   4 365.886  15.669   2
   8  -9   4 360.219  15.637   2
   1  -9  -4 340.794  15.286   1
   8  -9  -4 342.417  15.902   1
  -1   9   4 330.607  13.972   1
  -9   8   4 331.957  14.978   2
   9  -8   4 309.256  15.479   1
  -8   9  -4 334.075  15.310   2
   1  -9   4 331.955  15.203   1
  -1  -8  -4 335.085  14.050   2
   1  -9   4 333.896  14.757   2
  -9   8   4 321.361  15.633   1
   8  -9  -4 335.050  15.285   2
  -1  -8  -4 337.254  14.776   1
  -8   9  -4 325.923  15.533   1
  -1   9   4 329.941  14.037   1
  -8  -1   4 326.817  13.655   1
   0  -9  -4 3.11843 4.49519   1
   9  -9   4 2.08834 5.32802   1
  -9   9  -4 -3.3368  4.6453   1
   0  -9   4 2.19557 4.27787   2
  -9   0   4 -1.1952  2.9842   1
  -9   9  -4 -1.1711  4.5148   2
  -9   9   4 -0.1120  4.7359   2
  -9   9   4 5.72074 5.07778   1
   9  -9  -4 -2.2171  4.5341   2
   9  -9  -4 5.50752 5.29037   1
   0  -9   4 -2.4530  4.2979   1
   0  -9  -4 -1.0132  3.9939   2
   9  -9   4 1.01192 4.85999   2
   5 -10  -4 17.6151  5.6184   1
 -10   5   4 22.9543  4.8721   2
   5 -10  -4 33.6064  5.5111   2
  -5  10  -4 24.2509  4.8732   1
 -10   5   4 27.5974  4.8946   1
  10  -5   4 25.5762  4.6340   1
  -5  10   4 31.1653  5.4166   1
  10  -5  -4 28.5131  4.4531   1
 -10   5  -4 29.9709  4.7030   2
  -5  10  -4 28.5731  5.0558   1
  -5  10   4 28.0681  5.1813   1
   5 -10   4 30.6105  5.6679   2
   5 -10   4 23.6966  5.8707   1
  -5  -5  -4 26.6689  3.5383   1
  -6  -4  -4 330.821  13.251   1
  -6  10   4 304.691  15.043   1
  -4  10  -4 313.162  14.616   1
  -4  10  -4 342.783  15.019   1
  10  -6  -4 322.745  14.624   1
 -10   6  -4 320.635  14.787   2
   4 -10  -4 324.516  15.580   1
  10  -4   4 311.437  13.645   1
 -10   4   4 306.848  14.194   2
   6 -10   4 332.225  15.852   1
  -4  -6   4 326.075  13.477   1
   6 -10   4 321.331  15.238   2
 -10   4   4 312.580  14.659   1
   4 -10  -4 324.765  15.077   2
  -4  10   4 315.639  15.339   1
  -4  10   4 309.466  14.716   1
 -10   6   4 331.562  15.266   1
 -10   6   4 327.065  14.933   2
   4 -10   4 305.641  15.003   2
  -4  -6  -4 324.350  13.661   1
   4 -10   4 319.841  15.534   1
  10  -6   4 317.487  14.702   1
  10  -4  -4 319.175  13.601   1
   6 -10  -4 321.176  15.717   1
 -10   4  -4 331.327  14.334   2
  -6  10  -4 312.954  15.048   1
   6 -10  -4 330.011  15.150   2
  -7  10   4 130.315   9.155   2
  -3  10  -4 113.340   7.676   1
 -10   7  -4 125.931   8.858   2
 -10   3   4 110.707   7.496   2
  -7  10   4 114.810   8.889   1
 -10   7  -4 104.796   8.519   1
  -3  -7   4 110.905   7.211   1
   3 -10  -4 110.361   8.979   1
   3 -10  -4 115.427   8.522   2
  -7  -3  -4 118.572   6.501   1
   7 -10   4 121.419   9.614   1
  -3  10  -4 121.274   8.031   1
  10  -7  -4 120.615   8.477   1
 -10   3   4 110.132   7.860   1
   7 -10   4 130.810   9.121   2
  -3  10   4 120.909   7.975   1
   3 -10   4 111.924   8.632   2
 -10   7   4 130.820   8.991   2
  -7  10  -4 119.690   8.786   1
  -3  -7  -4 123.340   7.441   1
  10  -7   4 113.383   8.654   1
  -3  10   4 134.502   8.741   1
 -10   7   4 127.121   9.119   1
   7 -10  -4 126.260   8.894   2
   3 -10   4 121.462   9.353   1
  -3  -7  -4 120.929   6.260   2
   7 -10  -4 119.475   9.358   1
 -10   2   4 172.082   9.425   1
   8 -10   4 191.382  11.171   2
   8 -10   4 164.504  11.200   1
 -10   2   4 180.730   8.897   2
 -10   8  -4 191.348  10.314   2
  -8  10   4 198.230  10.943   2
  -2  -8   4 176.990   9.275   1
 -10   8  -4 173.036  10.308   1
  -2  -8   4 165.772   8.471   2
  10  -8  -4 187.445  10.552   1
  -2  10  -4 163.700   8.916   1
   2 -10  -4 178.045  10.086   2
  -8  10   4 173.537  10.845   1
   2 -10  -4 195.579  10.701   1
 -10   8   4 168.723  10.865   1
  -8  -2   4 177.698   8.131   1
   2 -10   4 150.692  10.021   2
  -8  10  -4 201.755  10.911   2
  -2  -8  -4 169.307   8.624   2
 -10   8   4 165.413  10.406   2
  -2  -8  -4 176.151   9.578   1
  -8  10  -4 176.346  10.623   1
  -2  10   4 181.567   9.512   1
  -2  10   4 152.965   9.010   1
   2 -10   4 161.193  10.617   1
  10  -8   4 167.319  10.413   1
   8 -10  -4 178.237  10.329   2
   8 -10  -4 165.776  11.033   1
  10  -9  -4 5.10758 5.25046   1
  -1  -9   4 0.05942 3.95915   2
  -9  10   4 6.86605 5.32651   1
   1 -10  -4 3.71704 4.57003   2
 -10   1   4 3.51314 3.27951   2
   9 -10   4 13.3555  5.9375   1
  10  -9  -4 -6.4479  4.3027   2
 -10   9  -4 2.95780 4.87444   1
   1 -10  -4 -0.1647  4.9360   1
  -1  10  -4 1.60789 2.82042   1
  -1  10  -4 -1.0488  2.8105   1
  -1  -9   4 -0.2170  4.2881   1
   1 -10   4 1.79369 4.81033   1
  -1  -9  -4 6.80663 4.10895   2
  10  -9   4 8.20198 5.34986   1
  -1  10   4 0.10199 2.99632   1
   9 -10  -4 7.99804 5.45749   1
  -1  -9  -4 2.02768 4.51788   1
  -1  10   4 6.65001 3.34484   1
 -10   9   4 -2.3072  5.0281   1
  -9  10  -4 5.57680 5.13919   1
   1 -10   4 5.91955 4.75751   2
   0 -10   4 130.403   8.748   1
   0 -10   4 114.858   8.021   2
  10 -10   4 120.422   8.979   1
  10 -10  -4 116.272   9.468   1
   0 -10  -4 107.370   7.860   2
 -10  10  -4 118.947   8.642   1
 -10  10   4 136.902   9.691   1
   0 -10  -4 124.261   8.997   1
  11  -6  -4 6.00940 4.14342   1
   6 -11   4 -1.0554  5.4303   2
   6 -11   4 2.34495 5.82412   1
   5 -11  -4 -0.4636  5.5935   1
 -11   5   4 6.41352 4.52902   2
   5 -11  -4 -8.6938  4.8890   2
  -5  11  -4 2.01814 4.49852   1
 -11   6  -4 4.21320 4.42722   2
 -11   5   4 0.31329 4.34469   1
  -6  11   4 8.14915 4.98130   1
  11  -5   4 5.49862 3.91934   1
   6 -11  -4 5.76312 5.22975   2
 -11   5  -4 4.48042 4.39516   2
 -11   6   4 3.68144 4.71779   1
  -5  11   4 9.44553 4.81991   1
   5 -11   4 11.3364  5.8331   1
   5 -11   4 2.35726 5.36806   2
 -11   6   4 8.75354 4.89780   2
   6 -11  -4 7.89433 5.67040   1
  11  -6   4 -0.0967  4.3817   1
  11  -5  -4 1.10707 3.59345   1
  -6  11  -4 13.7738  4.9978   1
  -6  11  -4 11.4266  4.8913   1
   7 -11   4 256.268  14.073   1
  11  -7  -4 251.592  12.707   1
 -11   7  -4 259.974  13.079   1
  -7  11   4 241.389  13.192   1
 -11   7  -4 261.117  13.094   2
 -11   4   4 265.737  12.764   1
   7 -11   4 258.005  13.520   2
 -11   4   4 260.130  12.297   2
  11  -4   4 258.185  10.975   1
   4 -11  -4 264.952  13.768   1
  11  -4   4 256.113  11.205   1
  -4  11  -4 246.549  12.396   1
   4 -11  -4 254.827  13.248   2
 -11   7   4 280.977  13.245   2
   7 -11  -4 249.354  13.308   2
  11  -7   4 244.642  12.694   1
  -4  11   4 232.043  12.445   1
   4 -11   4 257.439  13.236   2
   4 -11   4 270.014  13.960   1
   7 -11  -4 256.981  13.936   1
  11  -4  -4 254.029  10.778   1
 -11   7   4 263.098  13.532   1
  -7  11  -4 245.043  13.008   1
 -11   4  -4 247.033  12.191   2
  -8  11   4 803.313  32.890   1
 -11   3   4 782.138  31.343   2
  -3  -8   4 771.407  30.595   2
   8 -11   4 790.531  33.145   1
  11  -8  -4 793.708  32.407   1
   3 -11  -4 808.311  32.879   1
   3 -11  -4 813.647  32.240   2
 -11   3   4 820.456  31.910   1
 -11   8  -4 790.409  32.631   1
  -3  11  -4 768.080  31.507   1
 -11   8   4 821.074  32.864   1
 -11   3  -4 802.398  31.409   2
  11  -8   4 801.777  32.400   1
   3 -11   4 849.198  32.913   1
   8 -11  -4 802.820  33.175   1
  -8  11  -4 811.233  32.761   1
   3 -11   4 807.057  32.238   2
  -3  11   4 776.848  31.713   1
  -3  -8  -4 750.863  30.743   2
   9 -11   4 120.284   9.180   1
   2 -11  -4 122.483   8.678   2
  -9  11   4 114.316   8.836   1
   2 -11  -4 119.565   8.655   1
  -2  -9   4 108.162   7.121   2
  -2  11  -4 116.564   6.910   1
 -11   2   4 112.915   7.272   2
 -11   9  -4 113.855   8.356   1
  11  -9  -4 122.258   9.012   1
  -9  11  -4 110.968   8.923   1
  -2  -9  -4 100.372   7.135   2
  -2  11   4 108.815   7.142   1
   2 -11   4 130.462   8.876   2
 -11   9   4 121.241   9.478   1
   2 -11   4 118.851   9.468   1
   9 -11  -4 116.013   9.186   1
  11  -9   4 119.216   9.093   1
 -10  11   4 347.402  16.487   1
  -1 -10   4 312.363  14.569   2
  11 -10  -4 324.015  16.146   1
 -11  10  -4 340.580  16.200   1
  10 -11   4 333.249  16.549   1
   1 -11  -4 314.213  15.193   2
 -11   1   4 326.629  13.937   2
 -11  10   4 349.135  16.532   1
  11 -10   4 348.121  16.247   1
  -1 -10  -4 312.248  14.582   2
  -1  11   4 336.295  13.582   1
 -10  11  -4 321.112  16.097   1
  10 -11  -4 345.583  16.691   1
   1 -11   4 329.976  15.372   2
 -11  11   4 134.638  10.304   1
   0 -11  -4 124.001   8.463   2
 -11  11  -4 133.394   9.790   1
   0 -11   4 115.656   8.545   2
  11 -11   4 125.271   9.476   1
  11 -11  -4 120.245   9.434   1
  12  -6   4 55.9177  5.4985   1
  12  -6  -4 62.3660  5.3665   1
  -6  12  -4 53.5332  6.3095   1
  -6  12   4 62.8401  6.5679   1
 -12   6   4 65.5591  6.4929   1
 -12   6  -4 55.7879  6.1707   2
   6 -12   4 64.5430  7.1985   2
   6 -12   4 44.5413  7.3324   1
 -12   6   4 60.2329  6.2704   2
   6 -12  -4 62.8837  7.5477   1
  12  -5   4 303.246  13.317   1
 -12   5   4 301.986  14.873   1
 -12   5   4 306.997  14.470   2
 -12   7  -4 328.192  15.198   1
  12  -7  -4 327.029  14.616   1
   7 -12   4 322.849  16.284   1
  -5  12  -4 291.721  14.576   1
   5 -12  -4 326.784  15.571   2
   5 -12  -4 303.497  15.908   1
  -7  12   4 292.145  15.150   1
   5 -12   4 315.284  15.326   2
 -12   7   4 330.856  15.479   1
  -7  12  -4 294.603  15.142   1
 -12   5  -4 325.097  14.673   2
   7 -12  -4 317.154  16.178   1
  -5  12   4 290.448  14.720   1
  12  -5  -4 326.262  13.300   1
   5 -12   4 298.461  16.009   1
  12  -7   4 318.474  14.576   1
 -12   4   4 146.748   9.058   2
  -4  12  -4 137.376   9.005   1
  -8  12   4 154.156  10.339   1
  12  -8  -4 147.387   9.552   1
   4 -12  -4 154.230  10.744   1
   4 -12  -4 145.754  10.094   2
 -12   8  -4 175.404  10.228   1
   8 -12   4 155.428  11.350   1
   4 -12   4 141.688  10.321   2
   8 -12  -4 137.743  10.426   1
 -12   8   4 165.260  10.552   1
  -4  12   4 152.230   9.259   1
   4 -12   4 156.108  11.189   1
 -12   4  -4 153.428   9.111   2
  -8  12  -4 147.535  10.100   1
  12  -8   4 153.067   9.757   1
  -3  -9   4 37.9499  4.1416   2
 -12   9  -4 33.8717  5.9366   1
   9 -12   4 35.1578  7.2290   1
 -12   3   4 35.7353  4.8928   2
  -9  12   4 34.8331  6.5385   1
   3 -12  -4 41.7539  6.3811   2
  12  -9  -4 40.7492  6.0761   1
  -3  12  -4 35.6248  4.7474   1
   3 -12  -4 44.0995  6.9139   1
  -9  12  -4 36.8892  6.2150   1
  12  -9   4 31.5863  6.0571   1
   3 -12   4 37.9993  6.3854   2
  -3  12   4 37.1812  5.0039   1
   9 -12  -4 41.1372  7.1775   1
 -12   9   4 30.9245  6.2783   1
 -12   3  -4 37.9069  5.0346   2
  -3  -9  -4 35.5074  4.4308   2
   3 -12   4 34.9078  6.6811   1
 -12   2   4 6.85471 3.97167   2
  -2 -10   4 9.79619 4.28472   2
 -12  10  -4 3.24679 5.25689   1
  10 -12   4 9.66608 6.31694   1
  12 -10  -4 7.69088 5.47648   1
 -10  12   4 8.61390 5.95231   1
   2 -12  -4 12.0791  5.3511   2
  -2  12  -4 11.4872  3.4438   1
 -12  10   4 5.95980 5.65912   1
  -2  12   4 10.6801  3.8767   1
  12 -10   4 6.21557 5.40801   1
 -10  12  -4 4.99238 5.42604   1
  -2 -10  -4 8.06088 4.40921   2
   2 -12   4 10.6028  5.6644   2
  10 -12  -4 8.82555 6.20186   1
  -1 -11   4 40.5441  5.6129   2
 -11  12   4 45.3720  7.2216   1
 -12   1   4 34.6897  4.4626   2
  12 -11  -4 45.4014  6.9546   1
  11 -12   4 36.5327  7.2208   1
   1 -12  -4 32.3358  5.9892   2
 -12  11  -4 32.9090  6.4343   1
 -12  11   4 52.8848  7.2483   1
   1 -12   4 29.4937  5.9709   2
 -11  12  -4 34.3194  6.4871   1
  -1 -11  -4 41.7484  5.5271   2
  12 -11   4 45.9911  6.8862   1
  11 -12  -4 38.3386  7.2739   1
  12 -12   4 169.786  11.614   1
  12 -12  -4 161.529  11.546   1
   0 -12   4 167.592  10.328   2
 -12  12  -4 183.343  11.550   1
   0 -12  -4 158.667  10.313   2
 -12  12   4 174.593  11.878   1
 -12   0   4 168.773   8.453   2
  13  -7  -4 38.0593  5.0964   1
  -6  13  -4 32.6581  5.9321   1
   7 -13   4 36.2928  7.5232   1
   6 -13  -4 36.7740  7.3482   1
 -13   7  -4 41.0403  5.9758   1
  13  -6   4 45.3992  4.7297   1
  -7  13   4 26.0730  5.9861   1
  -6  13   4 37.8896  6.1874   1
 -13   7   4 42.0203  6.2569   1
   6 -13   4 41.0329  7.5516   1
  13  -7   4 46.5714  5.4628   1
  13  -6  -4 38.0221  4.3759   1
   7 -13  -4 39.1475  7.2291   1
  -7  13  -4 35.0466  6.1555   1
  13  -8  -4 0.05046 4.71436   1
 -13   8  -4 -0.8800  4.8757   1
  -8  13   4 4.61450 5.54455   1
   5 -13  -4 7.56694 6.26657   1
 -13   5   4 -1.9822  4.7406   2
  -5  13  -4 1.98146 4.87484   1
   8 -13   4 -1.6048  6.4026   1
   8 -13  -4 -4.8306  6.0666   1
  13  -8   4 -0.5731  4.8124   1
  -8  13  -4 4.11221 5.38838   1
   5 -13   4 -1.3224  6.1287   1
 -13   8   4 -4.5379  5.1752   1
 -13   5  -4 7.48952 4.82013   2
  -5  13   4 -4.9472  4.7074   1
   9 -13   4 23.5312  7.0318   1
  -4  13  -4 22.1147  4.8493   1
  -4  -9   4 22.4290  3.5862   2
  -9  13   4 24.1656  6.2241   1
   4 -13  -4 26.9933  6.7517   1
 -13   4   4 27.4391  5.2102   2
   4 -13  -4 30.6287  6.2200   2
  13  -9  -4 27.8038  5.8550   1
 -13   9  -4 33.4561  6.0713   1
   4 -13   4 29.7601  6.4868   2
 -13   9   4 26.6747  6.1741   1
  13  -9   4 28.1541  5.9627   1
  -9  13  -4 22.9324  6.0493   1
  -4  -9  -4 23.6223  4.0281   2
   9 -13  -4 37.6593  7.2092   1
  -4  13   4 21.3963  5.0356   1
 -13   4  -4 22.6489  5.0947   2
   4 -13   4 29.0967  6.8622   1
 -13  10  -4 48.2940  6.9836   1
  -3  13  -4 57.7944  5.1987   1
   3 -13  -4 54.8938  7.1748   2
  10 -13   4 45.8995  7.8649   1
 -13   3   4 56.4566  5.7457   2
 -10  13   4 59.2616  7.6128   1
  13 -10  -4 62.5475  6.9663   1
  -3 -10   4 59.1465  5.2854   2
 -13  10   4 66.0432  7.6150   1
  13 -10   4 59.3104  7.2315   1
  10 -13  -4 55.4798  8.0153   1
 -10  13  -4 60.4655  7.3668   1
 -13   3  -4 62.0168  5.9254   2
  -3  13   4 58.9992  5.4603   1
  -3 -10  -4 48.5246  5.2980   2
   3 -13   4 62.1170  7.2632   2
 -13  11  -4 0.74919 5.57450   1
  -2 -11   4 7.30540 4.59034   2
 -11  13   4 3.81509 6.15573   1
 -13   2   4 3.88999 4.32828   2
  13 -11  -4 -1.1646  5.7094   1
  11 -13   4 8.03827 6.51928   1
   2 -13  -4 12.6705  5.9558   2
  11 -13  -4 16.0556  6.8908   1
 -11  13  -4 -0.5620  5.4018   1
   2 -13   4 18.5154  5.9687   2
  -2 -11  -4 0.70253 4.57283   2
  13 -11   4 2.90600 5.62083   1
 -13   2  -4 0.95187 4.43872   2
  -2  13   4 5.07143 3.30121   1
 -13  11   4 10.7937  6.1427   1
   1 -13  -4 23.4342  5.9467   2
  -1 -12   4 13.0844  5.3463   2
 -12  13   4 5.19004 6.47923   1
 -13  12  -4 8.33548 5.88475   1
 -13   1   4 10.8449  4.2087   2
  12 -13   4 16.4315  6.9852   1
  13 -12  -4 8.47763 6.36454   1
  -1 -12  -4 18.7279  5.2747   2
   1 -13   4 13.2531  5.9732   2
  13 -12   4 5.10398 6.25139   1
  12 -13  -4 14.4296  6.9054   1
 -12  13  -4 10.9378  6.0091   1
 -13  12   4 16.6869  6.6787   1
   0 -13   4 10.3273  5.8216   2
  13 -13   4 15.2276  6.7917   1
 -13  13  -4 10.8970  6.0974   1
 -13   0   4 1.00685 3.80520   2
  13 -13  -4 3.98953 6.57040   1
 -13  13   4 7.71938 6.70340   1
   0 -13  -4 12.8722  5.6923   2
  -7  14  -4 258.258  14.095   1
   7 -14  -4 298.619  15.909   1
  14  -7   4 267.303  12.849   1
  14  -7  -4 291.253  12.885   1
   7 -14   4 286.505  15.844   1
  -7  14   4 262.474  14.370   1
  -8  14   4 54.6801  7.1963   1
  -6  14  -4 47.6409  6.3501   1
  14  -8  -4 50.1226  5.8552   1
   8 -14   4 53.3775  8.4270   1
   6 -14  -4 57.2909  8.3539   1
  14  -6   4 63.1808  4.4328   1
   6 -14   4 50.0409  8.3087   1
   8 -14  -4 56.0354  8.2964   1
  -6  14   4 51.6206  6.6829   1
  -8  14  -4 58.4622  7.0726   1
  14  -8   4 47.6945  6.0852   1
 -14   9  -4 24.8281  6.0885   1
  14  -9  -4 21.3888  5.4928   1
  -9  14   4 17.2871  6.4529   1
  -5  14  -4 27.1094  5.4526   1
   9 -14   4 26.0513  7.3844   1
   5 -14  -4 27.8068  7.3018   1
 -14   9   4 10.9181  6.1217   1
  -9  14  -4 13.6929  6.0439   1
  14  -9   4 18.9646  5.6897   1
   9 -14  -4 26.5660  7.2927   1
  -5  14   4 21.8006  5.4992   1
  -5  -9  -4 22.8167  3.9249   2
 -10  14   4 64.8759  7.7773   1
  10 -14   4 41.0966  8.1465   1
 -14  10  -4 52.5791  7.2005   1
  14 -10  -4 68.9913  7.0454   1
  -4 -10   4 47.4841  4.8715   2
 -14   4   4 49.7760  6.0425   2
  -4  14  -4 55.0665  5.6843   1
 -10  14  -4 59.9310  7.5852   1
  -4 -10  -4 50.1859  5.3874   2
  -4  14   4 56.6346  5.9695   1
 -14   4  -4 56.5865  6.2825   2
  14 -10   4 54.0242  7.0134   1
  10 -14  -4 58.4401  8.5473   1
 -14  10   4 63.1020  7.7029   1
  14 -11  -4 78.8152  7.9068   1
 -14  11  -4 71.0177  7.9065   1
  -3  14  -4 65.9638  5.1360   1
  11 -14   4 59.4688  8.6698   1
 -11  14   4 80.3506  8.5039   1
  -3 -11   4 62.1364  6.0037   2
 -14   3   4 67.0694  6.3506   2
  -3  14   4 60.9730  5.5888   1
 -14  11   4 78.1887  8.4323   1
  11 -14  -4 86.9865  9.2458   1
  -3 -11  -4 65.2919  6.1378   2
 -14   3  -4 66.8702  6.4240   2
 -11  14  -4 74.7360  8.2331   1
  14 -11   4 57.5086  7.5591   1
 -12  14   4 65.2520  8.5445   1
  12 -14   4 58.5759  8.5146   1
  -2 -12   4 66.4980  6.5688   2
 -14   2   4 63.0088  6.0940   2
  14 -12  -4 97.8057  8.5573   1
 -14  12  -4 65.5824  7.9581   1
   2 -14  -4 51.9671  7.4300   2
 -12  14  -4 63.9178  8.3230   1
  14 -12   4 47.5557  7.7665   1
   2 -14   4 58.7952  7.8801   2
  -2 -12  -4 62.1834  6.4673   2
 -14  12   4 61.9184  8.3279   1
  12 -14  -4 52.8915  8.4694   1
 -14   2  -4 70.3205  6.1871   2
  13 -14   4 23.6421  7.5122   1
 -13  14   4 20.8456  7.5549   1
 -14  13  -4 33.3829  6.9604   1
   1 -14  -4 23.4414  6.8182   2
 -14   1   4 32.5638  5.0344   2
  14 -13  -4 30.9998  7.3241   1
  -1 -13   4 33.3844  6.3660   2
  14 -13   4 26.1425  7.2713   1
 -14  13   4 21.7020  7.3916   1
 -13  14  -4 33.3950  7.3886   1
   1 -14   4 23.3897  6.6571   2
  -1 -13  -4 27.6445  6.1745   2
  13 -14  -4 23.0058  7.7109   1
   0 -14   4 157.338  10.754   2
  14 -14   4 131.043  11.111   1
 -14  14  -4 157.563  12.169   1
 -14   0   4 130.096   8.466   2
   0 -14  -4 137.509  10.545   2
 -14  14   4 130.801  11.368   1
  14 -14  -4 126.784  11.106   1
  15  -7   4 39.5934  4.3980   1
  -8  15   4 35.8559  6.7278   1
  -7  15  -4 38.9840  6.3978   1
   8 -15   4 52.6531  8.6189   1
  15  -8  -4 45.2705  5.2864   1
   7 -15  -4 36.3385  8.1295   1
   8 -15  -4 51.4484  8.4838   1
  -8  15  -4 39.6846  6.6618   1
  15  -8   4 41.7969  5.4975   1
   7 -15   4 27.2754  8.1823   1
  -7  15   4 38.1873  6.7089   1
  -6  15  -4 44.4628  6.4522   1
  -9  15   4 53.9182  7.5798   1
   9 -15   4 52.7584  8.5777   1
  15  -9  -4 53.3737  6.1703   1
   9 -15  -4 38.5928  8.3606   1
  -6  15   4 54.6584  6.8188   1
  -9  15  -4 59.6994  7.4852   1
  15  -9   4 45.7596  6.3095   1
  10 -15   4 67.8157  9.0401   1
  15 -10  -4 67.5646  7.1405   1
  -5 -10   4 53.5324  4.8755   2
  -5  15  -4 70.6846  6.4446   1
 -10  15   4 48.5292  7.9356   1
  15 -10   4 65.7488  7.2985   1
  -5 -10  -4 51.1966  5.4381   2
 -10  15  -4 59.6224  7.6758   1
  -5  15   4 57.8160  6.6452   1
  10 -15  -4 68.2344  9.2668   1
  11 -15   4 262.639  15.669   1
 -15  11  -4 278.130  15.055   1
 -11  15   4 267.482  15.118   1
  15 -11  -4 266.282  14.280   1
  -4 -11   4 247.517  12.238   2
  -4  15  -4 252.932  12.328   1
  -4  15   4 228.203  12.352   1
 -11  15  -4 273.034  15.005   1
  -4 -11  -4 242.080  12.361   2
  15 -11   4 268.494  14.389   1
 -15  11   4 264.186  15.160   1
  11 -15  -4 266.602  15.988   1
 -15  12  -4 51.1159  7.8558   1
  15 -12  -4 55.3748  7.8059   1
  12 -15   4 58.9210  8.9780   1
  -3 -12   4 38.5376  6.1098   2
 -12  15   4 61.0168  8.6503   1
 -15   3   4 51.8383  6.3942   2
 -15  12   4 56.8173  8.4087   1
 -12  15  -4 49.5297  7.9814   1
  12 -15  -4 67.6842  9.3298   1
  15 -12   4 46.1547  7.8403   1
  -3 -12  -4 52.5542  6.1379   2
  13 -15   4 6.47030 7.44990   1
  15 -13  -4 17.8136  6.9745   1
 -15  13  -4 7.11509 6.62025   1
 -13  15   4 10.9622  7.3227   1
  -2 -13   4 22.9284  6.0353   2
 -15   2   4 9.63570 5.18761   2
  13 -15  -4 16.6652  7.8775   1
  -2 -13  -4 11.1208  5.8790   2
 -15  13   4 15.2971  7.3720   1
  15 -13   4 -3.2756  6.6382   1
 -15   2  -4 16.6631  5.4625   2
 -13  15  -4 19.0578  7.3198   1
 -14  15   4 16.4285  7.8438   1
  -1 -14   4 11.8117  6.3691   2
 -15   1   4 13.9887  5.1209   2
 -15  14  -4 25.7264  7.6342   1
 -15  14   4 16.6335  8.0005   1
  -1 -14  -4 31.0027  6.7251   2
 -15   1  -4 24.3211  5.5059   2
 -14  15  -4 26.1134  7.9059   1
  -8  16  -4 70.6056  7.9054   1
   8 -16  -4 64.3529  9.4707   1
  -8  16   4 53.3681  7.8074   1
   8 -16   4 73.3434  9.7199   1
  16  -9  -4 4.98675 4.65489   1
  -9  16   4 9.73294 6.33763   1
  -7  16  -4 11.9846  5.8314   1
   9 -16   4 14.2623  8.2950   1
   9 -16  -4 5.05345 7.71523   1
  -9  16  -4 9.93715 6.27061   1
  -7  16   4 15.5393  6.2983   1
  16  -9   4 9.80166 5.10766   1
  -6  16  -4 3.15687 5.38345   1
  10 -16   4 9.78383 8.02698   1
 -10  16   4 -0.3100  6.4841   1
  16 -10  -4 6.33526 5.30641   1
  16 -10   4 1.71715 5.43380   1
  -6  16   4 5.83711 5.58896   1
  -6 -10  -4 2.56772 4.26398   2
  10 -16  -4 12.7526  8.0371   1
 -10  16  -4 9.31709 6.53973   1
  -5  16  -4 41.2115  5.7140   1
  -5 -11   4 23.3161  4.9628   2
  11 -16   4 45.5535  8.9771   1
  16 -11  -4 29.2875  6.5710   1
 -11  16   4 39.6429  7.9345   1
 -11  16  -4 47.7479  7.8611   1
  -5 -11  -4 39.5386  5.4470   2
  11 -16  -4 32.1038  8.8050   1
  16 -11   4 27.0621  6.7667   1
  -5  16   4 27.7728  5.6928   1
  -4 -12   4 7.92958 5.27122   2
  12 -16   4 13.6953  8.3164   1
  12 -16  -4 11.6491  8.3033   1
  -4 -12  -4 16.2460  5.3087   2
   0   0   5 -1.0574  2.6426   1
   0   0   5 -5.6470  2.4792   2
   0   0   5 -5.0443  2.6500   1
   0   0  -5 2.78870 2.55641   1
   0   0  -5 -1.0987  2.3512   2
  -1   0   5 610.962  23.657   2
   1   0  -5 611.588  23.552   2
   0   1  -5 614.148  23.599   2
   1  -1  -5 612.757  23.859   1
   1  -1  -5 623.852  23.662   2
   0   1   5 586.164  23.941   1
  -1   1  -5 624.874  23.888   1
   0  -1   5 609.106  23.903   1
   1   0   5 605.332  23.874   1
   0  -1  -5 600.216  23.898   1
  -1   1   5 618.547  23.672   2
  -1   1  -5 616.803  23.617   2
  -1   0  -5 612.526  23.886   1
   1   0   5 592.315  23.912   1
   0  -1  -5 613.811  23.665   2
  -1   0   5 635.826  23.941   1
  -1   1   5 592.601  24.000   1
   0   1   5 628.779  23.714   2
   0  -1  -5 603.778  23.946   1
  -1   1   5 609.756  23.914   1
   1   0  -5 619.818  23.782   1
   0  -1   5 606.649  23.671   2
   1  -1  -5 603.840  23.920   1
   1  -1   5 601.833  23.919   1
   0   1   5 601.350  23.892   1
   0   1  -5 618.184  23.844   1
  -1  -1   5 -0.1509  2.7149   1
   1   1   5 1.43902 2.75385   1
  -1  -1  -5 -1.2023  2.7428   1
   1  -2  -5 0.67337 2.95369   1
  -1  -1  -5 1.00010 2.56251   1
  -1   2   5 -2.8851  2.8026   1
  -2   1   5 0.11510 2.67146   2
   1   1  -5 1.74517 2.13663   2
   2  -1  -5 2.32964 2.70010   1
  -1   2   5 0.59429 3.01042   1
   1  -2  -5 2.59144 2.74207   2
   2  -1  -5 -2.3590  2.4401   1
  -1  -1  -5 -0.5574  2.4944   2
  -2   1   5 5.57668 2.90442   1
  -2   1  -5 2.08768 2.41867   1
  -1   2  -5 1.08439 2.61246   2
  -1   2  -5 -1.0799  2.4741   1
   1   1  -5 -1.5316  2.0483   2
  -2   1   5 -0.6750  2.8036   1
  -1  -1   5 -0.2610  2.5778   2
  -1   2   5 0.36210 2.69875   2
   1  -2  -5 -0.9624  2.5680   1
  -1   2  -5 -1.9668  2.4511   2
   1   1   5 1.34052 2.59741   1
   2  -1   5 -1.5461  2.7061   1
   2  -1  -5 -2.2930  2.4432   2
   1   1  -5 3.89137 2.31982   1
   1  -2   5 -2.2855  2.8155   1
   0   2   5 115.754   5.994   2
  -2   2   5 106.740   5.853   2
   0   2  -5 105.228   5.605   2
   2  -2  -5 103.800   6.340   1
   0  -2  -5 103.681   6.415   1
  -2   2   5 100.228   6.716   1
  -2   0   5 104.068   5.868   2
  -2   0  -5 103.340   6.015   1
   0   2   5 107.393   6.185   1
   2   0   5 106.896   6.103   1
   2  -2   5 106.278   6.466   1
  -2   0   5 103.546   6.235   1
   0   2  -5 96.3293  5.4875   2
   2  -2  -5 109.651   6.436   1
   0  -2   5 110.750   6.231   1
   0   2   5 102.857   6.339   1
   2   0  -5 108.095   5.828   1
  -2   0   5 106.719   6.164   1
   2   0   5 100.176   6.268   1
   2   0  -5 105.867   5.331   2
  -2   2   5 114.738   6.607   1
   0  -2  -5 109.906   6.201   1
   0  -2  -5 115.731   6.130   2
  -2   2  -5 110.949   6.227   1
   0   2  -5 107.670   6.141   1
   0  -2   5 106.798   5.950   2
   2  -2  -5 115.436   6.006   2
   1  -3  -5 157.170   8.659   1
   1   2   5 174.911   8.096   1
   1  -3  -5 186.280   8.583   1
   3  -2  -5 169.979   8.474   1
   3  -2  -5 170.209   8.025   2
  -3   1   5 182.131   8.563   1
  -2  -1  -5 174.149   8.289   1
  -2   3   5 174.798   8.377   2
  -1   3  -5 176.716   7.969   2
  -2   3   5 169.806   8.729   1
   3  -1   5 183.389   8.296   1
  -1   3  -5 178.107   8.329   1
  -3   1   5 173.619   8.071   2
  -3   2  -5 167.581   8.624   1
  -1  -2   5 182.910   7.948   2
  -1  -2   5 177.660   8.274   1
   2  -3   5 168.128   8.775   1
   1   2   5 177.268   8.100   1
  -1  -2   5 157.225   7.770   2
  -3   1   5 181.014   8.514   1
  -2  -1  -5 186.929   8.112   1
   3  -2  -5 171.561   8.362   1
  -2   3   5 173.745   8.743   1
   1  -3  -5 179.974   8.247   2
  -1   3  -5 177.257   8.009   2
   2   1  -5 182.795   7.728   1
   1   2  -5 172.814   7.195   2
  -1  -2  -5 184.083   8.293   1
   2  -3  -5 182.587   8.224   2
   1  -3   5 162.272   8.260   2
   2  -3  -5 180.798   8.450   1
  -1  -2  -5 162.954   8.209   1
  -2  -1   5 166.555   7.768   2
  -3   2   5 176.136   8.593   1
   1   2  -5 179.253   7.837   1
   3  -1  -5 173.828   8.091   1
   3  -2   5 176.485   8.553   1
  -1   3   5 184.309   8.473   1
   3  -1  -5 169.118   7.711   2
   3  -1  -5 169.432   8.323   1
  -3   2   5 171.378   8.758   1
  -3   2   5 172.698   8.248   2
  -1   3   5 179.342   8.125   2
   1   2  -5 170.903   7.139   2
  -1   3   5 167.964   8.554   1
  -2   3  -5 173.875   8.189   2
   2  -3  -5 164.119   8.807   1
  -3   1  -5 181.380   8.444   1
   1  -3   5 177.470   8.588   1
   2   1   5 171.109   7.945   1
  -1  -2  -5 167.421   7.825   2
   2   1   5 163.244   8.010   1
  -2   3  -5 186.436   8.326   1
  -2  -1   5 181.106   8.125   1
  -3   3   5 16.2278  3.5164   1
   0   3   5 11.6068  3.0090   1
  -3   3   5 19.8020  3.1009   2
   3   0   5 17.5349  2.7278   1
   0  -3   5 21.2067  2.9940   2
  -3   0   5 13.6406  2.6800   2
   0  -3  -5 18.2838  3.0373   2
   3  -3  -5 16.7695  3.2032   1
   0   3  -5 19.6880  2.8772   1
  -3   0   5 15.4247  2.9395   1
  -3   0   5 17.5437  2.9441   1
   0   3   5 15.0044  3.0183   1
   3   0  -5 12.4463  2.3866   1
   3  -3  -5 26.6040  3.2133   2
   3  -3  -5 14.4989  3.4649   1
  -3   0  -5 18.9781  2.7810   1
   0   3  -5 20.1613  2.3471   2
   0  -3  -5 13.7676  3.3072   1
   0  -3  -5 17.5079  2.8900   1
   0   3  -5 22.6196  2.4043   2
   3  -3   5 16.9261  3.5297   1
  -3   3   5 18.6662  3.4637   1
   0  -3   5 20.0007  3.0520   2
  -3   3  -5 20.2585  3.2003   2
  -3   3  -5 20.1733  3.1842   1
   3   0   5 24.2980  2.8964   1
   0  -3   5 17.7662  3.1371   1
   4  -2  -5 1.47169 2.79226   1
   4  -2   5 2.17220 2.86663   1
   2   2   5 -0.0576  2.1810   1
  -2   4   5 -1.5486  2.7214   2
  -2  -2  -5 -4.2212  2.3958   1
  -2  -2  -5 1.08454 2.62356   1
   2   2   5 -1.5458  0.4554   1
   2  -4  -5 -0.1538  2.8294   2
  -2   4  -5 -1.6515  2.6120   2
   2   2  -5 -3.1245  1.7597   1
  -4   2   5 -5.0929  2.7303   2
  -2   4   5 0.55777 3.04291   1
   4  -2  -5 2.66736 2.27137   2
   2  -4  -5 -3.5385  3.1883   1
   4  -2  -5 2.31255 2.56236   1
  -2  -2   5 -2.3736  2.4484   1
   2  -4   5 -3.3795  3.0657   1
   2  -4   5 -5.1976  3.0045   2
  -4   2   5 -1.2157  2.9156   1
  -2  -2   5 -1.4623  2.1453   2
  -2   4   5 -0.5121  3.1022   1
  -2  -2   5 -2.3929  2.0679   2
  -4   2  -5 -1.0428  2.7145   1
  -4   2   5 3.30689 3.02734   1
   2  -4  -5 -3.3729  2.6823   1
  -2   4  -5 -1.4023  2.6743   1
   4  -3  -5 240.451  10.315   1
  -3   4   5 242.636  10.531   1
   4  -1   5 246.378  10.066   1
   1  -4  -5 206.763  10.504   1
  -1   4  -5 207.954   9.656   2
   3   1  -5 207.447   9.215   1
  -1  -3   5 229.518  10.020   1
   4  -1   5 241.635  10.129   1
  -4   3  -5 230.089  10.471   1
  -1  -3   5 230.105   9.667   2
  -3   4   5 241.435  10.283   2
  -3  -1  -5 206.102   9.873   1
   4  -3  -5 221.152  10.395   1
  -1  -3   5 228.028   9.600   2
  -4   3  -5 218.297  10.056   2
   1   3   5 214.611   9.708   1
  -1   4  -5 228.504  10.023   1
  -3  -1  -5 224.733   9.828   1
  -4   1   5 239.596  10.302   1
   1  -4  -5 245.294  10.361   1
   1   3   5 230.062   9.806   1
   3  -4   5 231.914  10.301   2
  -1   4  -5 237.090   9.766   2
   1  -4  -5 227.933   9.995   2
  -4   1   5 245.119   9.840   2
   3  -4   5 228.035  10.676   1
  -4   1   5 246.272  10.172   1
   4  -3  -5 219.529   9.940   2
  -3   4   5 224.411  10.579   1
  -3   4  -5 244.621  10.621   1
   3  -4  -5 233.635  10.553   1
  -4   3   5 224.209  10.519   1
   3  -4  -5 216.654  10.626   1
   3  -4  -5 244.412  10.195   2
  -1   4   5 224.953  10.205   1
   3   1   5 212.236   9.591   1
  -4   3   5 223.607  10.178   2
  -1   4   5 231.554   9.878   2
   4  -3   5 203.494  10.494   1
   1  -4   5 215.814  10.072   2
   4  -1  -5 221.605   9.932   1
  -1  -3  -5 231.260  10.150   1
  -4   3   5 210.863  10.451   1
  -1  -3  -5 245.732  10.155   1
  -1  -3  -5 237.705   9.743   2
  -1   4   5 223.650  10.296   1
  -4   1  -5 255.133  10.262   1
  -3  -1   5 213.488   9.345   2
  -3  -1   5 222.307   9.821   1
   4  -1  -5 244.358   9.800   1
  -3   4  -5 242.341  10.250   2
   1  -4   5 207.286  10.412   1
   4   0  -5 450.638  17.342   1
  -4   0   5 440.527  17.743   1
   0   4   5 437.248  17.857   1
   4   0   5 422.417  17.542   1
   4  -4  -5 484.066  18.346   1
   0  -4   5 407.112  17.631   2
  -4   4   5 443.049  18.006   2
  -4   4   5 471.868  18.577   1
   4  -4  -5 449.634  17.906   2
  -4   4   5 449.339  18.406   1
   0   4   5 443.493  17.860   1
  -4   0  -5 474.060  17.918   1
  -4   4  -5 472.726  18.376   1
  -4   0   5 436.449  17.835   1
  -4   0   5 445.757  17.369   2
   4  -4  -5 434.390  18.293   1
   0  -4   5 447.300  18.016   1
   0  -4  -5 441.162  18.113   1
   0   4  -5 453.686  17.797   1
   0  -4  -5 430.838  17.699   2
   4  -4   5 433.461  18.364   1
   0  -4  -5 450.701  18.022   1
  -4   4  -5 439.850  17.975   2
   3  -5   5 0.83150 3.41250   1
   2   3   5 1.20189 1.99101   1
  -3   5   5 3.28710 3.03596   2
  -3  -2  -5 5.11818 2.32305   1
   2  -5  -5 -0.7812  2.9888   2
   5  -3  -5 0.52077 2.48404   2
  -3  -2  -5 0.87420 2.43887   1
  -5   2   5 -2.9803  2.9053   1
  -5   2   5 5.59697 3.05973   1
   2  -5  -5 -1.7078  3.3355   1
   5  -3  -5 3.41449 2.80325   1
   5  -2   5 2.93967 2.87021   1
  -5   3  -5 5.33610 3.02949   1
  -2   5  -5 4.41893 2.80484   1
  -3   5   5 1.08614 3.30270   1
   5  -3  -5 -1.5449  2.9029   1
   3  -5   5 2.08813 3.34895   2
   2  -5  -5 6.92588 3.02306   1
  -2  -3   5 1.78864 1.87241   2
  -5   2   5 3.84135 2.81650   2
  -2   5  -5 -1.1036  2.5979   2
  -3   5   5 5.67279 3.38546   1
   2   3   5 -0.3742  1.9548   1
  -2  -3   5 0.01017 2.07334   2
  -2  -3   5 0.95610 2.49902   1
  -3  -2   5 1.07302 2.31441   1
  -2   5   5 0.71334 3.12130   1
  -5   3   5 -1.1390  3.0453   1
  -2   5   5 4.20928 2.85377   2
  -2   5   5 6.74424 3.19298   1
   5  -2  -5 -0.8766  2.7239   1
   5  -2  -5 3.77428 1.92305   2
   2  -5   5 -1.7752  3.2382   1
  -3  -2   5 1.93428 1.57747   2
   5  -2  -5 4.45909 2.57368   1
   3  -5  -5 2.59666 3.46577   1
  -5   2  -5 -1.8497  2.7762   1
   3  -5  -5 4.24645 3.03114   2
   3   2   5 2.97719 1.66613   1
  -5   3   5 2.57170 3.15286   1
   2  -5   5 1.77536 3.19830   2
  -2  -3  -5 -0.0195  2.6814   1
  -3   5  -5 0.87700 3.05243   2
  -5   3   5 0.72485 2.89221   2
   5  -3   5 6.55383 3.16931   1
  -3   5  -5 -0.6918  2.8916   1
  -2  -3  -5 4.84975 2.55972   1
   3  -5  -5 -1.1983  3.0229   1
   5  -1   5 61.0868  4.1228   1
  -4   5   5 57.4335  4.6626   2
   4  -5   5 57.4015  5.0898   1
  -1  -4   5 54.8051  4.4934   2
   5  -4  -5 67.1091  5.1431   2
  -4   5   5 64.6248  5.1309   1
   1  -5  -5 62.4853  4.5016   2
  -5   4  -5 74.5253  5.0092   1
   1  -5  -5 52.2923  4.7005   1
  -5   1   5 64.2063  4.7544   2
  -4  -1  -5 66.3019  4.7599   1
  -1   5  -5 60.7876  4.4473   2
  -1   5  -5 62.6526  4.3776   1
   4  -5   5 62.4410  4.8043   2
  -1   5  -5 57.5096  4.2119   2
   5  -1   5 61.5457  4.1333   1
  -1  -4   5 57.0064  4.4743   2
  -1   5  -5 68.9738  4.3769   1
   1  -5  -5 63.2759  4.5654   1
  -4  -1  -5 57.9844  4.1625   1
  -5   4  -5 65.3244  4.6044   2
  -5   1   5 66.5647  4.4123   1
  -4   5   5 75.8998  5.8813   1
  -1  -4   5 64.4036  4.3253   1
   5  -4  -5 78.8471  5.0080   1
   5  -4  -5 55.4208  4.8501   1
  -5   1   5 65.7867  4.5173   1
  -5   4   5 67.5360  4.7462   2
  -1   5   5 63.4329  4.5804   1
  -5   1  -5 68.4908  4.4424   1
   4   1   5 62.3938  3.7218   1
  -1   5   5 64.6818  4.5985   1
  -1   5   5 59.1957  4.6089   2
   1  -5   5 66.4861  4.8623   1
   4  -5  -5 78.5425  6.0221   1
  -4  -1   5 67.6719  4.6934   1
  -4   5  -5 63.5310  4.6759   2
   4  -5  -5 66.5276  5.2795   1
   1  -5   5 64.9580  4.5490   2
   5  -4   5 68.9608  5.0205   1
   1   4  -5 60.7195  4.1685   1
  -4   5  -5 73.2006  5.0021   1
  -1  -4  -5 62.6984  4.7064   2
  -5   4   5 65.4590  5.1788   1
   4  -5  -5 68.1090  4.7315   2
   1   4  -5 49.7908  4.0197   1
  -5   4   5 72.8987  5.1306   1
   0   5  -5 37.9718  3.4429   1
   0   5   5 37.4531  3.7271   1
  -5   0   5 51.5176  3.7680   1
   5   0   5 39.9193  2.9548   1
   5  -5   5 50.2814  4.7818   1
  -5   0  -5 49.8468  3.6871   1
  -5   5   5 44.2926  4.2445   2
   5  -5  -5 36.0073  4.5284   1
  -5   5  -5 40.7097  4.1453   2
   0  -5  -5 37.8707  3.8221   2
  -5   5   5 46.8088  4.6722   1
   0  -5  -5 42.6997  4.2790   1
   0   5  -5 45.4855  3.3864   1
   0  -5   5 40.8386  4.0218   1
   5  -5  -5 48.9443  4.5567   1
   5   0   5 45.7983  3.0195   1
   0  -5   5 39.5665  3.7378   2
   5  -5  -5 42.5218  4.1321   2
  -5   0   5 43.5529  3.5242   1
   0   5   5 40.5818  3.6268   1
  -5   0   5 39.4366  3.0521   2
  -5   5   5 47.9086  4.6600   1
  -5   5  -5 47.7243  4.5640   1
  -6   3   5 -2.0510  3.1120   2
  -3   6  -5 -3.5353  2.8750   2
   3  -6   5 -1.6682  3.6096   1
  -3  -3  -5 1.00697 2.64845   1
   6  -3  -5 -3.5974  2.2187   2
  -3   6   5 -0.6767  3.3634   1
  -3   6   5 -3.2279  2.9635   2
   6  -3   5 3.76878 3.28009   1
   3  -6  -5 -1.9410  3.1842   2
  -3  -3  -5 0.69645 2.46471   1
   3  -6   5 1.44871 3.50772   2
  -3   6  -5 4.81676 3.16689   1
  -3  -3   5 2.19877 2.44581   1
  -3   6   5 2.28230 3.48912   1
  -3   6  -5 -2.4433  3.1835   1
   6  -3  -5 -2.0202  2.6858   1
   6  -3  -5 -1.2763  2.9465   1
  -6   3   5 -0.6543  3.1367   1
   3  -6  -5 4.86471 3.75189   1
  -6   4  -5 87.1888  6.2106   2
  -2   6  -5 92.3989  5.4416   2
  -2   6  -5 86.6574  5.4272   2
   6  -4  -5 87.2847  6.2990   1
  -6   2   5 90.1670  5.9440   1
  -4   6   5 87.9642  6.7278   1
   4  -6   5 89.0330  7.0351   1
  -4   6   5 97.3799  7.0374   1
  -2  -4   5 79.0472  5.4708   1
  -6   2   5 78.6694  5.7486   2
  -2   6  -5 87.7433  5.8912   1
  -2  -4   5 84.1209  4.7165   2
   2  -6  -5 91.3449  6.6003   1
  -4  -2  -5 86.6953  5.3246   1
   6  -2   5 95.0724  5.8911   1
  -4  -2  -5 82.2893  5.2125   1
   6  -4  -5 82.9691  6.4877   1
   2  -6  -5 81.5312  6.0273   2
   6  -4  -5 88.7806  5.6335   2
  -4   6   5 95.4994  6.5209   2
  -2  -4   5 80.0799  4.5582   2
  -2   6  -5 75.4883  5.9967   1
   4  -6   5 91.6226  6.7387   2
  -2  -4  -5 84.3485  5.6714   1
  -2   6   5 84.9727  6.5681   1
   6  -2  -5 89.8751  5.6225   1
  -6   4   5 84.7841  6.4884   1
  -6   4   5 88.3711  6.1168   2
   2  -6   5 92.1335  6.2005   2
  -4   6  -5 92.1768  6.2086   2
   6  -4   5 84.9981  6.6542   1
  -4  -2   5 84.4993  5.1139   1
   4  -6  -5 74.6267  6.2308   2
   2  -6   5 93.5096  6.7980   1
   6  -2  -5 96.1771  5.2561   1
  -4   6  -5 91.9148  6.9747   1
  -2   6   5 91.9321  6.2196   1
  -2   6   5 84.5074  5.6797   2
   4  -6  -5 85.0180  6.6270   1
  -5   6   5 58.2006  4.8032   2
  -6   1   5 48.2632  3.7077   2
   5  -6   5 46.3478  4.7197   2
  -1  -5   5 66.8416  5.1221   1
   6  -5  -5 45.2966  4.8494   1
  -1  -5   5 54.0386  3.7732   2
   5  -6   5 47.4706  5.1728   1
  -1   6  -5 54.2564  3.9206   1
   6  -1   5 48.8463  3.5797   1
   6  -5  -5 58.2966  4.7457   1
   1  -6  -5 44.0022  4.2679   2
  -1   6  -5 43.9132  4.0223   1
  -6   1   5 49.0634  4.0589   1
  -5   6   5 46.9734  5.1658   1
  -1  -5   5 55.6213  3.8087   2
   1   5   5 49.2177  3.4822   1
   6  -1   5 52.1169  3.5944   1
   6  -5  -5 60.0599  4.3757   2
   1  -6  -5 54.2511  4.8335   1
   1   5   5 44.4529  3.3381   1
  -5   6   5 51.2671  4.9665   1
   5  -6  -5 45.7237  5.0364   1
  -1  -5  -5 53.5626  3.9678   2
   1   5  -5 49.2076  3.4380   1
  -5  -1   5 48.0716  3.6608   1
  -5   6  -5 44.6008  4.6109   2
  -5   6  -5 49.3274  4.8043   1
   1   5  -5 53.9999  3.4928   1
   1  -6   5 42.6872  4.2595   2
  -6   5   5 58.9935  5.1139   1
   6  -5   5 54.6434  4.9589   1
   5  -6  -5 57.2251  5.0385   1
  -6   5   5 54.8916  4.6765   2
  -1  -5  -5 49.8216  4.2830   1
   1  -6   5 57.4064  4.7412   1
  -1   6   5 48.8643  4.2928   1
   5  -6  -5 47.8371  4.4966   2
  -1   6   5 46.2243  4.2458   1
  -5  -1   5 53.2319  3.8430   1
  -6   0   5 33.7532  2.8539   2
  -6   6  -5 34.9825  4.3050   2
   0  -6   5 37.1659  4.1299   1
   0   6   5 34.4522  3.6333   1
   0  -6  -5 41.8791  3.9769   2
   0  -6   5 33.4403  3.8292   2
   6  -6  -5 32.8168  4.0214   2
   0   6  -5 34.8629  3.0885   1
  -6   6   5 35.0853  4.7581   1
  -6   6   5 29.5549  4.2454   2
   6  -6  -5 35.0479  4.7364   1
   0   6  -5 29.5112  3.2138   1
   6  -6   5 31.8987  4.7598   1
  -6   0   5 33.5331  3.4971   1
   0  -6  -5 28.7575  4.2398   1
   6  -6  -5 31.8530  4.6057   1
   4  -7   5 344.738  15.586   2
  -3   7  -5 395.235  15.672   1
   7  -4  -5 381.773  15.450   1
  -7   4  -5 358.554  15.334   2
   7  -4  -5 365.178  15.517   1
  -4  -3  -5 364.130  14.778   1
  -3   7  -5 348.701  15.516   1
   3  -7  -5 346.323  15.982   1
  -3  -4   5 362.000  14.753   1
  -7   3   5 368.961  15.199   2
   4  -7   5 360.942  16.105   1
  -7   3   5 356.484  15.423   1
  -4   7   5 358.208  15.812   1
   3  -7  -5 347.569  15.443   2
  -4   7   5 377.423  15.534   2
   7  -4  -5 365.253  14.655   2
   7  -3   5 373.921  15.317   1
  -4   7   5 376.604  16.192   1
  -3   7   5 336.585  15.598   1
  -4   7  -5 370.212  15.722   1
  -4  -3   5 361.153  14.626   1
   7  -3  -5 374.671  15.026   1
  -3   7   5 343.407  15.789   1
  -3  -4  -5 365.883  14.928   1
   4  -7  -5 363.317  15.558   2
   3  -7   5 382.158  15.619   2
  -7   4   5 353.621  15.647   1
  -3   7   5 363.820  15.201   2
   3  -7   5 351.230  15.906   1
   7  -4   5 352.753  15.524   1
   4  -7  -5 354.955  15.999   1
  -4   7  -5 363.650  15.870   1
  -7   4   5 352.196  15.413   2
  -4   7  -5 363.730  15.314   2
   7  -3  -5 370.615  15.160   1
  -2  -5   5 3.21861 2.41036   2
   7  -5  -5 7.56776 3.80889   1
   7  -2   5 0.64321 1.10295   1
   7  -5  -5 8.99100 3.20933   2
  -2   7  -5 10.0823  3.4253   1
   7  -5  -5 10.6360  3.6327   1
   2  -7  -5 10.7230  4.1302   1
  -5   7   5 9.77903 4.11774   1
  -2  -5   5 1.44645 2.86089   1
  -5   7   5 5.68540 3.72993   2
  -7   2   5 5.59757 3.12822   1
  -2  -5   5 5.31783 2.32205   2
   5  -7   5 6.27152 4.08158   2
  -2   7  -5 6.54367 3.21706   1
   5  -7   5 13.8286  4.4052   1
  -5  -2  -5 2.77084 2.64568   1
   2  -7  -5 7.73165 3.72341   2
  -7   2   5 1.56031 3.10557   2
  -5   7   5 12.5257  4.3081   1
   7  -2   5 4.50221 2.89618   1
  -7   5  -5 8.91518 3.62005   2
  -5   7  -5 6.00205 3.84466   1
   2  -7   5 4.16845 3.87884   1
   2  -7   5 7.39117 3.69976   2
  -2   7   5 6.03687 3.54217   1
   7  -2  -5 8.24912 2.76907   1
   7  -5   5 8.82590 3.97632   1
  -5  -2   5 7.55294 2.55967   1
  -5   7  -5 3.99647 3.63676   2
  -2   7   5 11.2071  3.5865   1
  -7   5   5 0.45522 3.80263   1
  -2  -5  -5 6.91826 2.65208   2
   5  -7  -5 12.7849  4.3734   1
   5  -7  -5 9.21790 3.79165   2
  -7   5   5 9.91332 3.69373   2
  -2  -5  -5 6.71791 3.17200   1
  -5   7  -5 9.18273 3.88943   1
   6  -7   5 108.635   8.344   1
   7  -6  -5 114.512   7.906   1
  -1  -6   5 110.376   7.111   1
  -1  -6   5 108.073   6.359   2
   7  -6  -5 134.815   7.329   2
  -7   1   5 111.522   6.147   2
   1  -7  -5 119.795   6.975   2
  -1   7  -5 121.986   6.693   1
   1   6   5 96.3062  5.6556   1
   7  -6  -5 130.442   8.180   1
   1   6   5 116.900   5.645   1
  -6   7   5 117.033   7.919   1
   6  -7   5 119.442   7.940   2
  -1   7  -5 114.246   6.554   1
   1  -7  -5 115.411   7.713   1
  -7   1   5 112.013   6.715   1
  -6   7   5 110.676   7.875   2
   7  -6   5 106.462   8.173   1
  -1   7   5 110.664   6.947   1
  -7   6   5 113.188   7.944   1
  -6  -1   5 115.446   6.275   1
   6  -7  -5 111.891   7.405   2
  -1   7   5 122.509   6.844   1
  -1  -6  -5 101.196   6.464   2
  -6   7  -5 126.730   7.827   2
   1  -7   5 115.652   7.464   1
  -7   6   5 92.6060  7.0064   2
  -1  -6  -5 104.332   7.075   1
   6  -7  -5 115.905   7.994   1
   1  -7   5 105.509   7.088   2
   0  -7  -5 168.831   9.612   1
   7  -7  -5 191.665   9.698   2
   0   7  -5 186.798   8.422   1
  -7   7   5 193.273  10.199   2
   7  -7   5 183.488  10.604   1
  -7   7   5 186.206  10.388   1
   0  -7  -5 175.880   8.965   2
   0   7   5 169.557   8.589   1
  -7   7  -5 194.921   9.909   2
  -7   0   5 179.457   8.560   1
   0   7  -5 177.319   8.093   1
   0  -7   5 172.714   9.499   1
   0  -7   5 166.617   8.982   2
   7  -7  -5 174.918  10.290   1
   0   7   5 175.073   8.599   1
  -4   8  -5 3.39911 3.89079   1
  -8   4   5 0.51287 3.81646   2
   8  -4   5 4.95536 3.84380   1
   8  -4  -5 1.88110 3.44851   1
  -8   4   5 6.00264 3.86558   1
  -4  -4   5 1.11995 2.69066   1
   4  -8  -5 0.02201 4.03790   2
  -4  -4  -5 1.61014 2.92499   1
  -4   8   5 -0.1576  4.2361   1
  -4   8   5 -3.0564  3.9298   1
  -4   8  -5 1.43090 3.86466   1
   4  -8  -5 -6.5599  4.3527   1
   4  -8   5 5.80399 4.45501   2
   4  -8   5 5.65988 4.65205   1
  -8   4  -5 2.47111 3.82981   2
   8  -5  -5 9.96542 3.73508   1
   3  -8  -5 5.90043 4.58525   1
  -3  -5   5 6.99425 3.00638   1
  -3   8  -5 6.79294 3.80163   1
  -5  -3  -5 12.9855  2.9545   1
   8  -3   5 10.6739  3.4660   1
   5  -8   5 6.82330 4.62078   2
  -5   8   5 7.67839 4.21298   2
  -8   3   5 8.77885 3.81520   1
  -8   5  -5 7.21076 3.92647   2
  -5   8   5 11.7837  4.7071   1
  -3   8  -5 13.0789  3.8108   1
   8  -5  -5 17.2249  4.1977   1
   5  -8   5 5.53381 4.78685   1
  -5   8   5 8.84409 4.38365   1
   3  -8  -5 6.18429 4.05466   2
  -8   3   5 8.39137 3.74113   2
  -3   8   5 16.1557  4.1388   1
  -3  -5  -5 7.10097 3.27648   1
  -8   5   5 13.5805  4.2239   1
  -8   5   5 13.4230  4.1829   2
   8  -5   5 7.78703 4.12378   1
   3  -8   5 5.21808 4.38668   2
  -5   8  -5 12.1557  4.3279   1
   5  -8  -5 4.37885 4.64263   1
  -5  -3   5 11.6738  2.6512   1
   8  -3  -5 13.9191  3.3217   1
  -5   8  -5 14.4577  4.1252   2
   5  -8  -5 11.3885  4.1979   2
  -3   8   5 8.28648 4.07273   1
  -5   8  -5 7.30000 4.16362   1
   3  -8   5 8.20262 4.53174   1
   8  -2   5 10.6971  2.7674   1
  -6  -2  -5 6.47420 2.99868   1
  -8   2   5 11.0481  3.5010   1
   6  -8   5 4.03637 4.80125   1
  -8   2   5 6.69546 3.39925   2
  -6   8   5 13.5741  4.7374   1
   8  -6  -5 7.48486 3.63599   2
  -6   8   5 6.90643 4.18581   2
  -8   6  -5 4.13320 4.02266   2
  -2   8  -5 7.41904 3.52221   1
   8  -6  -5 7.13038 3.98196   1
   8  -6  -5 6.52096 4.27296   1
  -2  -6   5 7.69219 3.34275   1
   6  -8   5 13.4995  4.7577   2
   2  -8  -5 6.82372 4.53302   1
  -2   8  -5 2.13329 3.31751   1
   2  -8  -5 7.94512 3.97728   2
  -2  -6   5 7.74435 3.02230   2
  -2  -6   5 11.5324  2.7944   2
   8  -2   5 6.13742 2.74768   1
  -2   8   5 5.15271 3.84979   1
   2  -8   5 3.95123 4.24833   2
   8  -6   5 8.00959 4.49696   1
  -2  -6  -5 12.6245  3.2442   2
  -6   8  -5 8.84343 4.08873   2
  -6  -2   5 6.62118 2.69445   1
   6  -8  -5 6.63739 4.85306   1
  -2   8   5 12.8651  3.8509   1
  -6   8  -5 5.71014 4.28275   1
  -8   6   5 7.87791 4.20100   2
   6  -8  -5 6.47165 4.07209   2
  -8   6   5 5.71457 4.40730   1
   2  -8   5 4.83023 4.42511   1
  -2  -6  -5 10.3660  3.6393   1
   8  -7  -5 19.1548  4.3333   2
   7  -8   5 27.6191  5.1530   2
   8  -7  -5 18.0688  4.6663   1
   1  -8  -5 17.6324  4.8442   1
  -8   1   5 11.8395  3.4251   1
   8  -7  -5 15.7072  4.9146   1
   1  -8  -5 12.9929  4.1780   2
  -7   8   5 17.0957  4.9747   1
  -8   7  -5 18.3328  4.0333   2
  -1  -7   5 25.2384  4.0971   1
   7  -8   5 19.1904  5.4462   1
  -7   8   5 20.7666  4.8006   2
  -8   1   5 13.0765  3.2789   2
  -1  -7   5 16.4063  3.6747   2
  -1   8  -5 15.5394  3.4941   1
  -1   8   5 19.9392  3.5920   1
  -1  -7  -5 12.3468  3.7651   2
   1  -8   5 16.9654  4.7366   1
   1  -8   5 15.3322  4.4017   2
   7  -8  -5 15.5303  5.1922   1
   8  -7   5 14.5599  5.0529   1
  -1   8   5 22.3087  3.8055   1
  -1  -7  -5 20.1414  4.3218   1
  -7   8  -5 23.6783  4.6485   2
   7  -8  -5 15.0067  4.3535   2
  -7   8  -5 20.0901  4.8136   1
  -8   7   5 19.4209  5.0107   1
  -7  -1   5 16.9995  3.1653   1
   0  -8  -5 67.7925  5.5060   2
   0   8   5 67.0221  4.5702   1
   8  -8  -5 82.7923  6.8907   1
   0  -8   5 58.5321  5.3938   2
   0  -8   5 62.5651  5.7656   1
   0   8  -5 58.1304  4.3743   1
   0   8   5 63.9088  5.2244   1
  -8   8  -5 66.3851  6.2986   1
  -8   8  -5 66.1176  6.0627   2
   8  -8   5 83.3919  6.9837   1
  -8   0   5 72.2602  4.8649   1
  -8   8   5 67.8346  6.6988   1
   0  -8  -5 70.9338  6.0662   1
   8  -8  -5 67.5771  5.8351   2
  -8   8   5 76.7666  6.4174   2
  -4  -5   5 2.19982 2.87915   1
  -4   9  -5 -0.2060  4.0013   1
   4  -9  -5 0.70842 4.89347   1
  -9   5  -5 1.55082 4.09846   2
  -9   4   5 -2.0845  4.0170   1
   4  -9  -5 0.99050 4.53457   2
   9  -4   5 2.52990 3.85671   1
  -5   9   5 -2.1884  4.4049   1
   5  -9   5 -1.2834  4.8297   2
  -9   4   5 1.53731 3.97284   2
  -5  -4  -5 0.27641 2.97414   1
   5  -9   5 -2.5693  5.0500   1
  -5   9   5 8.81938 4.80127   1
   9  -5  -5 4.13493 3.89912   1
  -4   9  -5 0.83768 4.16124   1
   5  -9  -5 -1.8526  4.8315   1
  -4  -5  -5 0.94985 3.26608   1
  -9   5   5 -6.1643  4.0323   2
  -5  -4   5 -0.7332  2.6584   1
  -5   9  -5 3.83652 4.28996   1
  -9   5   5 -2.6266  4.0642   1
   9  -5   5 -0.7287  4.1067   1
   4  -9   5 -2.6604  4.7360   2
   9  -4  -5 4.45017 3.63312   1
  -4   9   5 4.75193 4.29771   1
   5  -9  -5 0.61940 4.46079   2
  -5   9  -5 4.18719 4.37875   1
  -4   9   5 -10.685   4.128   1
  -9   4  -5 -3.0678  3.8399   2
   4  -9   5 1.78290 5.02184   1
  -9   6  -5 16.9280  4.5089   2
  -3   9  -5 5.50992 3.85246   1
   3  -9  -5 5.94236 5.00910   1
  -6   9   5 3.70564 4.37234   2
   9  -3   5 9.14850 3.33055   1
   9  -3   5 9.43183 3.34245   1
   6  -9   5 12.0258  4.9438   2
  -6  -3  -5 10.0806  3.0317   1
  -6   9   5 8.26698 4.84733   1
  -3   9  -5 8.52634 4.04728   1
  -9   3   5 6.93622 3.88389   2
   3  -9  -5 8.35343 4.63904   2
   6  -9   5 6.19780 5.25052   1
  -3  -6   5 7.97821 3.32191   1
   9  -6  -5 6.37389 4.30589   1
  -9   3   5 6.27336 3.88051   1
   9  -3  -5 10.5314  3.1499   1
  -3   9   5 5.75468 4.20720   1
  -6   9  -5 7.13570 4.38885   2
  -3  -6  -5 9.54384 3.62400   1
   6  -9  -5 11.1376  5.2997   1
   3  -9   5 5.58054 4.74764   2
  -9   6   5 4.60142 4.44738   1
  -3  -6  -5 15.9357  2.9501   2
   9  -6   5 3.97913 4.53003   1
  -6   9  -5 8.26206 4.49252   1
  -6  -3   5 14.3932  2.7861   1
   6  -9  -5 8.06712 4.51550   2
  -9   6   5 16.7158  4.6415   2
  -3   9   5 9.43380 4.23824   1
   3  -9   5 12.5283  5.0491   1
  -2   9  -5 56.0551  5.1229   1
  -9   2   5 56.5878  4.8918   2
   9  -7  -5 63.8515  6.1073   1
  -2  -7   5 67.8770  5.2223   1
  -2   9  -5 56.1180  4.9843   1
   2  -9  -5 71.5554  5.9877   2
   2  -9  -5 70.7501  6.5104   1
  -2  -7   5 60.8218  4.5602   2
  -7   9   5 77.6181  6.4161   2
   9  -7  -5 58.9252  6.1446   1
  -9   7  -5 69.0336  5.9309   2
  -9   2   5 68.1997  5.3242   1
   7  -9   5 57.5895  6.9575   1
   7  -9   5 72.1550  6.6097   2
  -7   9   5 62.7915  6.4956   1
   9  -7   5 58.9559  6.2751   1
  -9   7   5 71.8924  6.2183   2
  -9   7   5 65.2380  6.4751   1
   7  -9  -5 81.2196  6.3904   2
  -7   9  -5 66.5399  6.3920   1
  -2   9   5 76.3303  5.6287   1
   7  -9  -5 57.0676  6.8377   1
  -7   9  -5 78.4926  6.1855   2
  -2  -7  -5 57.6899  4.7391   2
  -2  -7  -5 61.1421  5.4439   1
  -7  -2   5 65.7490  4.3747   1
   2  -9   5 63.0597  6.3666   1
   2  -9   5 58.1665  6.0357   2
  -2   9   5 69.2911  5.4280   1
   8  -9   5 11.4427  5.0825   2
   9  -8  -5 1.06333 4.83809   1
  -9   1   5 -2.9224  3.1982   2
   9  -8  -5 2.50952 4.43996   2
   8  -9   5 -1.7607  5.3090   1
   1  -9  -5 3.13847 4.88921   1
   1  -9  -5 3.59867 4.33166   2
  -1   9  -5 1.65916 3.14137   1
  -9   8  -5 1.09630 4.50147   1
  -9   1   5 -4.2607  3.3451   1
  -9   8  -5 7.54258 4.44192   2
  -8   9   5 6.14940 5.27373   1
  -8   9   5 -1.1411  4.7029   2
  -1  -8   5 7.66615 4.13525   1
  -1  -8   5 7.05305 3.85357   2
  -1   9  -5 1.96265 3.07172   1
   9  -8   5 3.55690 5.02310   1
  -8   9  -5 1.12424 4.77610   1
  -8  -1   5 4.56409 3.18865   1
  -9   8   5 1.92186 4.41231   2
   1  -9   5 -8.5871  4.5257   1
  -9   8   5 5.51130 4.98155   1
  -1  -8  -5 5.42800 4.39932   1
   1  -9   5 -1.3687  4.4261   2
  -8   9  -5 2.11609 4.53502   2
   8  -9  -5 0.46082 4.48904   2
  -1   9   5 2.03008 3.15603   1
  -1   9   5 5.93606 3.72184   1
  -1  -8  -5 -2.7558  3.9925   2
   8  -9  -5 -10.262   5.036   1
   0   9   5 20.8625  2.9545   1
   9  -9  -5 25.8415  5.8325   1
  -9   9  -5 16.0457  5.0516   2
  -9   9  -5 32.3062  5.5615   1
   0  -9  -5 20.4722  5.2722   1
   9  -9   5 26.5333  6.0314   1
  -9   9   5 19.1105  5.5919   1
   0  -9   5 14.5936  4.8791   1
   9  -9  -5 24.9804  5.0290   2
   0  -9  -5 25.2107  4.5980   2
   0  -9   5 16.6079  4.5912   2
  -9   9   5 21.4532  5.4647   2
  -9   0   5 14.6179  3.6241   1
 -10   5   5 0.01898 4.43268   2
  -5  10  -5 -8.1767  4.1979   1
 -10   5  -5 -4.1443  4.0929   2
  10  -5   5 4.63776 4.19998   1
  -5  10  -5 -0.2545  4.4324   1
  10  -5  -5 -3.2795  3.6386   1
   5 -10  -5 4.54560 5.27162   1
  -5  -5   5 -6.0117  2.8518   1
   5 -10   5 0.11709 5.10882   2
 -10   5   5 -5.6321  4.2441   1
   5 -10   5 3.35386 5.42894   1
  -5  10   5 -3.9686  4.4355   1
  -5  10   5 -1.9586  4.7047   1
   5 -10  -5 -5.6291  4.6841   2
  -5  -5  -5 -1.6918  3.2940   1
 -10   6  -5 54.6924  5.8114   2
  -4  10  -5 61.6170  5.7913   1
  -4  10  -5 55.4779  5.8496   1
   4 -10  -5 55.7484  6.8013   1
  10  -4   5 59.7592  5.0637   1
 -10   4   5 61.3670  5.7635   2
   6 -10   5 58.9492  6.6563   2
  -4  -6   5 71.2323  4.7593   1
  -6  -4  -5 69.1438  5.3118   1
   4 -10  -5 63.8488  6.3160   2
  10  -6  -5 61.1767  5.9407   1
 -10   4   5 62.9423  5.7744   1
  -6  10   5 60.6018  6.5279   1
   6 -10   5 56.1106  7.0143   1
  10  -4  -5 61.6600  4.8297   1
  -6  -4   5 63.5878  4.2292   1
 -10   4  -5 56.8335  5.6081   2
   6 -10  -5 58.3207  6.9586   1
  -6  10  -5 55.3908  6.2338   1
 -10   6   5 67.9945  6.3182   2
   4 -10   5 60.1230  6.8610   1
   4 -10   5 58.7153  6.4173   2
  -4  10   5 62.2790  6.0243   1
  10  -6   5 65.2554  6.1122   1
   6 -10  -5 67.7854  6.4932   2
 -10   6   5 60.6401  6.2905   1
  -4  10   5 65.0887  6.2712   1
  -4  -6  -5 55.5719  4.9446   1
  10  -7  -5 70.5541  6.3852   1
  -7  -3  -5 58.5413  4.5421   1
  -7  10   5 67.0477  6.6821   1
  -3  -7   5 62.5066  5.1286   1
   7 -10   5 60.8974  6.7254   2
  -3  10  -5 68.0280  5.5117   1
   7 -10   5 64.5632  7.2776   1
  10  -3   5 58.5033  4.2996   1
 -10   7  -5 70.0526  6.1497   2
 -10   3   5 50.9765  5.3396   2
 -10   3   5 66.6891  5.6283   1
  -3  10  -5 66.0314  5.7050   1
   3 -10  -5 63.0372  6.3623   2
   3 -10  -5 62.1627  6.9249   1
  -3  -7   5 54.1803  4.1465   2
  -7  -3   5 62.6595  4.3100   1
   3 -10   5 54.6603  6.7866   1
   7 -10  -5 64.7950  6.4262   2
  10  -7   5 67.1906  6.5133   1
  -3  10   5 65.4813  5.8994   1
  -3  -7  -5 56.1635  4.5759   2
   3 -10   5 54.9691  6.4283   2
   7 -10  -5 55.1437  6.9821   1
 -10   7   5 65.2561  6.4572   2
  -3  10   5 70.8731  5.9993   1
  -3  -7  -5 65.9418  5.3606   1
 -10   7   5 76.4201  6.7078   1
  -7  10  -5 50.2158  6.3383   1
   8 -10   5 1.27583 5.76980   1
   2 -10  -5 -0.2486  4.7386   2
 -10   2   5 -2.9839  3.7529   1
  -8  10   5 1.89154 5.22350   1
 -10   2   5 -3.9159  3.7991   2
 -10   8  -5 -4.5462  4.4723   1
  -2  -8   5 -0.6987  3.9560   1
  -2  10  -5 -2.9356  2.4684   1
  -2  10  -5 6.36163 3.80643   1
   2 -10  -5 -3.1588  5.1407   1
  -8  10   5 -0.1928  5.0535   2
  -2  -8   5 -1.1915  3.6354   2
   8 -10   5 -1.5160  5.3804   2
 -10   8  -5 5.87405 4.34674   2
  10  -8  -5 3.47763 4.96749   1
   2 -10   5 -0.9437  5.1424   1
  -2  -8  -5 -3.7004  4.3255   1
  -2  -8  -5 1.12440 3.80744   2
  -8  10  -5 -1.2147  4.8732   1
 -10   8   5 5.06251 5.10621   1
  10  -8   5 2.59304 5.14014   1
   2 -10   5 -1.9145  4.8421   2
   8 -10  -5 -0.5803  5.5313   1
  -8  10  -5 -2.1947  4.7954   2
  -2  10   5 2.99089 4.04523   1
  -2  10   5 5.69507 3.98844   1
 -10   8   5 1.79319 4.80033   2
  -1  -9   5 8.97390 4.54837   1
   1 -10  -5 16.1958  4.7747   2
 -10   1   5 8.84664 3.58395   2
  -1  10  -5 10.5366  3.1049   1
  10  -9  -5 11.4159  5.4812   1
  -9  10   5 6.50845 5.58072   1
   1 -10  -5 12.7883  5.4150   1
  -1  10  -5 9.00353 3.04087   1
   9 -10   5 11.1476  5.9941   1
 -10   9  -5 11.6564  5.1825   1
  -1  -9   5 10.0851  4.3865   2
  -9  10  -5 17.9409  5.2948   1
  10  -9   5 1.44441 5.39745   1
   1 -10   5 3.85281 4.81139   2
  -1  -9  -5 11.4693  4.8764   1
   1 -10   5 9.35861 5.24862   1
 -10   9   5 18.8953  5.7069   1
  -1  10   5 12.3274  3.7058   1
   9 -10  -5 9.97569 5.78113   1
  -1  10   5 6.54860 3.34817   1
  -1  -9  -5 9.77899 4.32762   2
 -10  10   5 71.0713  7.3251   1
 -10  10  -5 47.0560  6.4973   1
  10 -10  -5 66.1549  7.2059   1
 -10   0   5 57.9384  4.2724   2
   0 -10   5 48.1222  5.7109   2
  10 -10   5 61.8748  7.3240   1
   0 -10  -5 62.5056  6.5868   1
   0 -10  -5 62.0285  5.8898   2
 -11   6  -5 9.44502 4.79794   2
 -11   5   5 18.6701  4.9069   1
  -6  11   5 15.1013  5.1696   1
   6 -11   5 11.0875  5.9440   1
  11  -5   5 13.4469  4.2739   1
   5 -11  -5 6.47830 5.22580   2
   5 -11  -5 13.7461  5.9602   1
   6 -11   5 15.6936  5.9521   2
  11  -6  -5 4.66144 4.39469   1
  -5  11  -5 11.0940  4.9044   1
 -11   5   5 18.9923  4.7762   2
  -5  11   5 11.8739  5.0621   1
   5 -11   5 12.5617  5.6886   2
  11  -6   5 17.9644  4.6692   1
   5 -11   5 20.6210  6.2660   1
   6 -11  -5 14.4544  6.0019   1
 -11   6   5 24.6823  5.3501   2
  11  -5  -5 9.58643 3.84562   1
 -11   6   5 16.2495  5.0960   1
 -11   5  -5 9.01088 4.64381   2
   6 -11  -5 9.98840 5.21397   2
  -6  11  -5 16.6504  5.0257   1
  11  -7  -5 9.88918 4.72416   1
  -7  11   5 6.33560 5.15823   1
  11  -4   5 5.28958 3.15289   1
 -11   4   5 0.60952 4.41333   2
   7 -11   5 4.03030 5.96300   1
  11  -4   5 4.81369 3.37680   1
   4 -11  -5 6.63577 5.25656   2
 -11   7  -5 4.85824 4.58734   2
 -11   4   5 9.96400 4.53034   1
  -4  11  -5 3.04193 4.43383   1
   4 -11  -5 2.79687 5.65516   1
 -11   4  -5 4.67933 4.35832   2
  -7  11  -5 3.93282 5.03571   1
   7 -11  -5 21.1830  6.1641   1
  -4  -7  -5 -9.9343  2.9789   2
  -4  11   5 8.41958 4.75424   1
 -11   7   5 3.67231 5.17988   2
 -11   7   5 5.91475 5.08095   1
   4 -11   5 8.52864 5.52793   2
  11  -7   5 4.83276 4.93407   1
   4 -11   5 13.8312  5.9721   1
   3 -11  -5 40.9654  6.4538   1
 -11   8  -5 36.6200  5.8200   1
   8 -11   5 31.1206  6.7961   1
  -3  -8   5 30.2530  3.9000   2
  11  -8  -5 37.1768  5.7593   1
  -3  11  -5 30.7540  4.7393   1
   3 -11  -5 38.6322  5.8507   2
  -8  11   5 29.8759  6.1385   1
 -11   3   5 20.3350  4.6782   2
   3 -11   5 25.1605  6.0269   2
 -11   8   5 36.0043  6.0714   1
  11  -8   5 29.6668  5.6533   1
  -3  -8  -5 24.3388  4.1930   2
   8 -11  -5 32.0360  6.6025   1
  -3  11   5 32.3213  5.1316   1
   3 -11   5 32.7825  6.3910   1
  -8  11  -5 37.6466  5.9707   1
  -9  11   5 21.9401  5.9577   1
 -11   9  -5 28.0475  5.5630   1
  11  -9  -5 24.0022  5.6100   1
   2 -11  -5 22.2876  5.5554   2
 -11   2   5 14.9207  4.1778   2
  -2  11  -5 22.7461  3.8986   1
   2 -11  -5 15.3381  5.7357   1
   9 -11   5 22.1987  6.6819   1
  -2  -9   5 16.7420  4.3533   2
   9 -11  -5 15.3849  6.2046   1
   2 -11   5 17.4486  5.7311   1
   2 -11   5 24.0983  5.5769   2
 -11   9   5 26.9690  6.1138   1
  -2  11   5 20.2128  4.2533   1
  11  -9   5 13.7544  5.6356   1
  -2  -9  -5 17.0282  4.5676   2
  -9  11  -5 29.9116  5.8144   1
  -1 -10   5 1.46661 4.45090   2
  10 -11   5 24.3984  6.5208   1
 -11  10  -5 18.5749  5.6871   1
 -10  11   5 5.11370 5.79024   1
   1 -11  -5 0.67601 4.79671   2
  11 -10  -5 7.97329 5.73143   1
 -11   1   5 10.3420  3.7659   2
  -1 -10  -5 9.39250 4.58533   2
  11 -10   5 20.2307  5.9268   1
 -11  10   5 18.8230  5.8632   1
 -10  11  -5 12.7974  5.5464   1
  -1  11   5 6.83020 3.21932   1
  10 -11  -5 5.03947 5.98422   1
   1 -11   5 11.8549  5.2066   2
  11 -11  -5 55.2538  7.3629   1
   0 -11  -5 51.9634  5.8248   2
 -11  11   5 35.8033  7.0493   1
 -11   0   5 47.6955  4.2085   2
   0 -11   5 34.1308  5.7511   2
 -11  11  -5 50.6597  6.8924   1
  11 -11   5 40.7647  6.9679   1
 -12   6   5 0.71762 4.78881   1
 -12   6  -5 2.86475 4.64315   2
  -6  12  -5 -8.6105  4.6248   1
  12  -6   5 -4.0531  4.2380   1
  12  -6  -5 0.48476 3.91685   1
  -6  12   5 2.77455 5.17255   1
 -12   6   5 3.66018 4.87602   2
   6 -12  -5 0.87963 5.89333   1
   6 -12   5 -0.3295  6.0822   1
 -12   5   5 7.65289 4.86201   1
   5 -12  -5 -4.1067  5.7226   1
   5 -12  -5 2.22210 5.37423   2
 -12   5   5 4.83704 4.77993   2
  12  -7  -5 7.20482 4.59200   1
  -5  12  -5 -1.1721  4.5866   1
  12  -5   5 3.42241 3.55172   1
   7 -12   5 8.79241 6.23381   1
  -7  12   5 -7.5467  4.8245   1
   5 -12   5 -12.916   5.719   1
  12  -5  -5 5.96783 3.37882   1
  -5  12   5 8.80474 5.04676   1
   7 -12  -5 5.63975 6.13351   1
   5 -12   5 -2.6111  5.6912   2
  12  -7   5 -0.8359  4.6828   1
 -12   7   5 2.01997 5.10161   1
  -7  12  -5 1.14382 4.90576   1
 -12   5  -5 4.36654 4.67244   2
 -12   8  -5 69.9466  6.8816   1
   4 -12  -5 60.3678  6.9322   2
   4 -12  -5 65.0268  7.7180   1
   8 -12   5 64.9827  8.0904   1
  -4  12  -5 62.4223  6.1443   1
 -12   4   5 72.6099  6.3489   2
  -8  12   5 78.9792  7.6115   1
  12  -8  -5 75.8140  6.8079   1
  -4  -8  -5 60.4166  4.9370   2
  12  -8   5 70.6022  6.9304   1
 -12   4  -5 72.1117  6.1797   2
  -4  12   5 63.8269  6.3175   1
   4 -12   5 63.2090  7.7203   1
   4 -12   5 57.5993  7.1767   2
 -12   8   5 78.7136  7.2573   1
   8 -12  -5 77.4289  8.1789   1
  -8  12  -5 69.0763  7.0166   1
  12  -9  -5 39.0911  6.1719   1
  -3  12  -5 37.2733  4.9381   1
 -12   9  -5 55.3843  6.4890   1
 -12   3   5 38.3313  5.1106   2
  -9  12   5 50.6629  7.0985   1
   3 -12  -5 40.7153  6.2838   2
   3 -12  -5 52.8342  7.2291   1
   9 -12   5 49.2412  7.4997   1
  -3  -9   5 41.4792  4.5153   2
  -3  12   5 34.3410  5.2084   1
   3 -12   5 35.6679  6.5864   2
  -9  12  -5 38.5170  6.3438   1
 -12   3  -5 55.3097  5.5462   2
   9 -12  -5 44.2971  7.3610   1
  -3  -9  -5 44.9836  4.8462   2
 -12   9   5 51.5384  6.8922   1
  12  -9   5 38.5258  6.5069   1
   3 -12   5 38.9573  6.9107   1
  12 -10  -5 -0.7450  5.2874   1
 -12  10  -5 1.81753 5.22582   1
   2 -12  -5 -1.4520  5.1894   2
  -2  12  -5 0.15622 3.21094   1
  10 -12   5 -2.5966  6.1425   1
  -2 -10   5 -6.4428  4.1836   2
 -12   2   5 8.07302 4.17482   2
 -10  12   5 2.07298 5.78016   1
  10 -12  -5 -3.4739  6.0334   1
   2 -12   5 0.35800 5.32659   2
  -2 -10  -5 1.39864 4.36071   2
 -12  10   5 0.34569 5.70525   1
 -10  12  -5 1.73754 5.43355   1
  12 -10   5 -3.8690  5.4863   1
  -2  12   5 -3.2318  3.7391   1
   1 -12  -5 5.37805 5.28907   2
  -1 -11   5 8.52022 4.92167   2
 -12  11  -5 10.8595  5.7180   1
 -12   1   5 10.5603  3.9929   2
 -11  12   5 11.0716  6.3079   1
  11 -12   5 14.6234  6.4789   1
  12 -11  -5 19.2463  6.1452   1
  12 -11   5 10.0641  6.0882   1
  -1 -11  -5 6.98923 4.88032   2
   1 -12   5 -4.1718  5.3316   2
 -12  11   5 3.23147 6.05382   1
 -11  12  -5 11.1475  5.7109   1
  11 -12  -5 12.6071  6.4953   1
 -12  12  -5 7.08069 5.67778   1
   0 -12  -5 10.5532  5.3103   2
  12 -12  -5 8.59411 6.49115   1
 -12   0   5 8.80659 3.80104   2
  12 -12   5 14.1766  6.4779   1
 -12  12   5 11.6509  6.5782   1
   0 -12   5 7.73218 5.43591   2
  13  -6   5 8.04128 4.02646   1
  -6  13  -5 0.06013 5.02817   1
   6 -13  -5 12.1215  6.5053   1
  13  -7  -5 9.12501 4.35945   1
  -7  13   5 2.52579 5.46309   1
   7 -13   5 -16.215   6.138   1
 -13   7  -5 10.9167  5.0725   1
   6 -13   5 4.39326 6.46535   1
  13  -7   5 8.64225 4.65917   1
  -7  13  -5 3.48143 5.14572   1
  13  -6  -5 1.93663 3.71089   1
 -13   7   5 16.4888  5.5192   1
  -6  13   5 -0.0219  5.3214   1
   7 -13  -5 4.80194 6.52250   1
 -13   8  -5 16.3029  5.3871   1
  -5  13  -5 12.8657  5.0559   1
   5 -13  -5 5.09140 6.50734   1
  -8  13   5 16.3510  5.8904   1
   8 -13   5 20.9291  7.1051   1
 -13   5   5 20.5279  5.3643   2
  13  -8  -5 8.37267 4.84813   1
 -13   8   5 3.71665 5.44244   1
  13  -8   5 23.2543  5.4860   1
  -5  -8  -5 19.2103  3.7253   2
  -5  13   5 11.0949  5.1308   1
   8 -13  -5 12.1816  6.7119   1
 -13   5  -5 18.3158  5.2085   2
  -8  13  -5 7.82103 5.60696   1
   5 -13   5 13.0469  6.6952   1
  -4  -9   5 3.71290 3.54074   2
 -13   9  -5 1.33523 5.21729   1
  -9  13   5 1.82041 5.81516   1
 -13   4   5 3.26848 4.84104   2
   4 -13  -5 -4.7683  6.0504   1
  -4  13  -5 9.07242 4.67849   1
   9 -13   5 2.92085 6.66127   1
  13  -9  -5 1.80443 5.04234   1
  13  -9   5 -10.745   5.169   1
  -4  -9  -5 7.10803 3.93365   2
  -9  13  -5 3.81080 5.44199   1
   9 -13  -5 -2.1410  6.3441   1
  -4  13   5 -0.0115  4.6741   1
 -13   4  -5 -1.4507  4.6458   2
 -13   9   5 2.33146 5.58219   1
   4 -13   5 -2.6849  5.7306   2
   4 -13   5 6.59829 6.35997   1
 -10  13   5 16.5547  6.5235   1
  -3 -10   5 28.6191  4.6224   2
 -13   3   5 23.2400  4.9468   2
  13 -10  -5 16.7078  5.9631   1
 -13  10  -5 16.0907  5.9813   1
  10 -13   5 12.1488  6.9289   1
   3 -13  -5 28.0479  6.5238   2
  -3  13  -5 17.6964  4.2494   1
 -13   3  -5 28.8914  5.2053   2
 -13  10   5 8.67229 6.25572   1
   3 -13   5 21.6078  6.3953   2
  -3  13   5 13.7151  4.5073   1
  13 -10   5 25.5319  6.2418   1
  10 -13  -5 27.4449  7.2176   1
  -3 -10  -5 19.9079  4.7401   2
 -10  13  -5 16.6325  5.8862   1
  11 -13   5 3.33385 6.56178   1
 -13  11  -5 9.05181 5.80006   1
 -13   2   5 -0.9298  4.2861   2
 -11  13   5 7.80341 6.21809   1
  -2 -11   5 4.30743 4.76524   2
  13 -11  -5 2.22673 5.66381   1
   2 -13  -5 3.50649 5.73355   2
  11 -13  -5 -5.8880  6.3736   1
   2 -13   5 2.87781 6.02731   2
  13 -11   5 18.8519  6.3350   1
 -13  11   5 12.0535  6.3090   1
 -11  13  -5 3.91052 5.73870   1
  -2 -11  -5 0.09910 4.79855   2
  -2  13   5 3.04240 3.42415   1
 -12  13   5 9.30052 6.64822   1
   1 -13  -5 9.10842 5.78842   2
 -13  12  -5 7.98140 6.04074   1
  13 -12  -5 7.38338 6.30296   1
 -13   1   5 13.0904  4.3112   2
  -1 -12   5 8.78478 5.26138   2
  12 -13   5 -1.0484  6.4248   1
   1 -13   5 9.37536 5.89060   2
  13 -12   5 2.64144 6.16620   1
 -12  13  -5 6.25965 5.89785   1
  12 -13  -5 0.54942 6.60631   1
 -13  12   5 20.3311  6.8272   1
  -1 -12  -5 7.13679 5.19771   2
 -13  13   5 1.86818 6.62847   1
 -13   0   5 7.75738 4.05783   2
 -13  13  -5 0.73103 5.86767   1
   0 -13   5 -1.7274  5.6503   2
  13 -13   5 11.4788  6.7840   1
   0 -13  -5 0.99018 5.70994   2
  13 -13  -5 19.2458  6.8445   1
  -7  14  -5 11.9195  5.5423   1
  14  -7   5 3.63435 4.25056   1
   7 -14   5 11.6943  7.1271   1
  -7  14   5 -0.3436  5.6344   1
   7 -14  -5 3.64014 6.92757   1
  14  -7  -5 0.56171 3.93634   1
  -6  14  -5 15.0939  5.3412   1
   8 -14   5 4.51312 7.01549   1
  14  -8  -5 0.51052 4.51883   1
   6 -14  -5 11.1061  6.8458   1
  14  -6   5 5.39148 3.33061   1
  -8  14   5 5.63323 5.79025   1
  -6  14   5 5.96944 5.30142   1
  14  -8   5 15.0924  5.0896   1
   8 -14  -5 -2.4449  6.7747   1
  -8  14  -5 12.0645  5.7812   1
   6 -14   5 10.5680  7.0866   1
  -9  14   5 2.39279 5.95573   1
  -5  14  -5 -4.6200  4.8456   1
  14  -9  -5 -3.6932  4.8144   1
   5 -14  -5 -0.8891  6.5433   1
 -14   9  -5 2.71336 5.60051   1
   9 -14   5 -2.3539  6.6756   1
  -9  14  -5 5.20178 5.72439   1
  -5  -9  -5 0.24641 3.85159   2
 -14   9   5 2.74390 5.77144   1
   9 -14  -5 10.3028  7.0329   1
  -5  14   5 3.71787 5.00228   1
  14  -9   5 6.07041 5.50490   1
  -4  14  -5 -1.6334  4.3400   1
 -14  10  -5 -1.3872  5.5905   1
 -10  14   5 -2.0592  6.0317   1
  10 -14   5 0.53971 6.93389   1
  -4 -10   5 9.87708 4.11182   2
 -14   4   5 8.85710 5.12467   2
  14 -10  -5 -1.8918  5.4117   1
  14 -10   5 -2.2038  5.5013   1
 -14  10   5 6.89445 6.23919   1
  10 -14  -5 0.80258 6.86505   1
  -4  14   5 -3.0125  4.6588   1
 -10  14  -5 24.2689  6.3810   1
  -4 -10  -5 -5.2965  4.3002   2
  11 -14   5 14.6700  7.1542   1
 -11  14   5 13.4182  6.8114   1
  14 -11  -5 29.2306  6.6463   1
  -3 -11   5 19.8885  5.0262   2
 -14  11  -5 31.1184  6.7511   1
 -14   3   5 18.0901  5.2612   2
  -3  14  -5 23.7507  4.0782   1
  14 -11   5 19.9947  6.4347   1
  -3 -11  -5 18.5641  5.1755   2
  11 -14  -5 20.2725  7.5830   1
  -3  14   5 15.0603  4.4621   1
 -11  14  -5 16.2502  6.5654   1
 -14  11   5 23.0124  6.9903   1
 -14   3  -5 22.2440  5.2947   2
 -14   2   5 4.92694 4.68732   2
  -2 -12   5 -6.9464  5.1620   2
 -14  12  -5 1.31626 5.88842   1
 -12  14   5 0.39304 6.71340   1
  12 -14   5 -1.8161  6.8895   1
  14 -12  -5 10.4589  6.3396   1
  -2 -12  -5 7.67008 5.20810   2
 -12  14  -5 -1.6151  6.0859   1
   2 -14   5 5.97361 6.54127   2
 -14  12   5 0.86787 6.64947   1
  14 -12   5 -12.057   5.815   1
 -14   2  -5 -5.5993  4.8013   2
  12 -14  -5 -6.9255  6.8673   1
  14 -13  -5 4.61267 6.54748   1
  -1 -13   5 4.88641 5.78436   2
 -14  13  -5 -4.5409  6.0214   1
  13 -14   5 -3.2837  6.7613   1
   1 -14  -5 1.34670 6.29309   2
 -13  14   5 -0.7230  6.7709   1
 -14   1   5 5.55182 4.51660   2
  13 -14  -5 9.58145 7.34674   1
  -1 -13  -5 7.33998 5.80644   2
  14 -13   5 -1.8185  6.4971   1
   1 -14   5 -7.1330  6.1065   2
 -13  14  -5 3.36255 6.15581   1
 -14  13   5 7.43628 7.20845   1
   0 -14   5 12.0932  6.5168   2
 -14  14  -5 -4.6626  6.1749   1
 -14  14   5 -5.4997  7.2311   1
  14 -14   5 15.1593  7.3660   1
  14 -14  -5 -4.4541  6.9763   1
   0 -14  -5 12.9433  6.5854   2
 -14   0   5 15.2863  4.7137   2
  -7  15  -5 17.3859  5.9606   1
  -8  15   5 15.9168  6.5610   1
  15  -7   5 11.7530  3.9130   1
  15  -8  -5 13.6961  4.4945   1
   7 -15  -5 12.9288  7.5784   1
   8 -15   5 17.6726  7.7481   1
   8 -15  -5 20.3620  7.7862   1
  -7  15   5 12.0219  6.0661   1
   7 -15   5 13.1755  7.5966   1
  -8  15  -5 26.1760  6.3584   1
  15  -8   5 23.7070  5.0864   1
   9 -15   5 3.67988 7.67283   1
  -9  15   5 2.13718 6.14677   1
  -6  15  -5 21.8687  5.7174   1
  15  -9  -5 10.6686  5.1189   1
  -9  15  -5 13.0274  6.2117   1
  15  -9   5 8.23061 5.37508   1
   9 -15  -5 10.2230  7.7354   1
  -6  15   5 18.4585  5.8283   1
  -5 -10   5 26.8907  4.4542   2
  -5  15  -5 32.5713  5.4334   1
 -10  15   5 23.9669  7.0840   1
  10 -15   5 30.9169  7.9759   1
  15 -10  -5 15.0513  5.8898   1
  15 -10   5 16.8109  6.1257   1
  -5  15   5 32.0259  5.8088   1
  10 -15  -5 34.3035  8.4097   1
 -10  15  -5 30.8661  6.9001   1
  -5 -10  -5 19.4934  4.9276   2
 -11  15   5 8.68396 6.81643   1
  -4 -11   5 1.87079 4.81059   2
  15 -11  -5 15.1482  6.3454   1
 -15  11  -5 3.21022 6.29004   1
  11 -15   5 19.5591  7.9440   1
  -4  15  -5 7.84515 4.46365   1
  -4 -11  -5 -2.1822  4.9888   2
  11 -15  -5 17.4238  7.8558   1
 -11  15  -5 14.5779  6.6726   1
 -15  11   5 22.1826  7.3104   1
  -4  15   5 16.4995  5.0498   1
  15 -11   5 13.4846  6.4380   1
 -12  15   5 0.24600 6.77550   1
  12 -15   5 -3.8920  7.4048   1
 -15  12  -5 11.2897  6.5829   1
  15 -12  -5 1.55380 6.21069   1
  -3 -12   5 -7.7835  5.1095   2
  15 -12   5 3.10177 6.49412   1
  12 -15  -5 7.24420 7.65994   1
 -15  12   5 11.1755  6.9684   1
  -3 -12  -5 11.0467  5.3354   2
 -12  15  -5 12.0567  6.8801   1
  13 -15   5 1.55612 7.48888   1
  -2 -13   5 -4.2912  5.6225   2
 -15   2   5 -8.2179  5.0022   2
 -15  13  -5 -3.3761  6.2907   1
 -13  15   5 1.75404 7.07305   1
 -15  13   5 8.73068 7.52591   1
  13 -15  -5 -9.4889  7.1962   1
  -2 -13  -5 9.00414 5.82152   2
 -13  15  -5 -5.8115  6.7885   1
  -1 -14   5 7.44311 6.53042   2
 -14  15   5 -0.0605  7.4214   1
 -15  14  -5 16.9075  7.0907   1
 -15   1   5 7.38008 5.09841   2
 -15  14   5 15.8715  7.7239   1
 -14  -1   5 4.22135 4.31770   2
  -1 -14  -5 15.5552  6.5236   2
 -14  15  -5 -1.2205  7.0981   1
 -15   1  -5 -1.9623  5.3390   2
   8 -16   5 -2.8038  8.0512   1
  -8  16  -5 9.98841 6.15514   1
  -8  16   5 1.55139 6.10222   1
   8 -16  -5 -0.0346  7.8802   1
  -7  16  -5 -2.5505  5.6311   1
  16  -9  -5 -1.9080  4.4515   1
  -9  16   5 -1.3299  6.4259   1
   9 -16   5 -7.8250  7.7866   1
   9 -16  -5 -2.3391  7.7148   1
  -7  16   5 -2.8405  5.9424   1
  16  -9   5 1.36002 5.05940   1
  -9  16  -5 10.5297  6.3280   1
  16 -10  -5 -0.4982  5.0946   1
  10 -16   5 4.45700 7.92579   1
  -6  16  -5 -0.8051  5.1835   1
 -10  16   5 -3.5126  6.6298   1
  10 -16  -5 13.2921  8.2087   1
  -6 -10  -5 3.05991 4.53573   2
  16 -10   5 -1.4089  5.5136   1
  -6  16   5 2.88164 5.79604   1
 -10  16  -5 -0.6302  6.2286   1
  16 -11  -5 -1.2809  5.7643   1
  11 -16   5 -3.2450  7.8954   1
  -5  16  -5 2.56987 5.02364   1
  -5 -11   5 12.0896  4.8859   2
  -5 -11  -5 14.1029  5.1504   2
  11 -16  -5 16.1989  8.3700   1
  -5  16   5 9.56256 5.24125   1
  16 -11   5 2.98549 6.13144   1
  -4 -12   5 3.76307 5.24671   2
  12 -16   5 8.75517 8.32645   1
  12 -16  -5 5.28749 7.99268   1
  -4 -12  -5 1.05872 5.28220   2
   0   0  -6 126.783   7.226   1
   0   0  -6 128.599   6.729   2
   0   0   6 126.549   7.246   1
   0   0   6 133.500   6.948   2
   0   0   6 108.614   7.232   1
   0  -1  -6 160.302   8.043   2
   1   0   6 154.438   8.247   1
   1   0  -6 167.778   7.834   2
  -1   0   6 169.155   8.040   2
  -1   1   6 158.194   8.064   2
  -1   0  -6 174.579   8.356   1
   0   1  -6 160.343   7.919   2
  -1   0   6 170.418   8.543   1
   1  -1  -6 163.977   7.878   2
  -1   0  -6 169.040   7.900   2
  -1   1  -6 164.760   8.269   1
   0  -1  -6 161.885   8.421   1
   0   1   6 171.925   8.171   2
  -1   1   6 167.812   8.600   1
   0   1   6 174.135   8.405   1
   1   0  -6 162.436   7.973   1
   1  -1  -6 170.185   8.181   1
   0   1  -6 171.259   8.288   1
   0  -1   6 160.213   8.360   1
   1  -1   6 173.792   8.227   1
  -1   0   6 168.670   8.301   1
   1  -1  -6 159.724   8.426   1
   0  -1   6 164.443   7.938   2
  -1   1   6 162.525   8.331   1
  -1   1  -6 167.405   7.870   2
   0  -1  -6 187.273   8.422   1
   1   0   6 162.071   8.418   1
   0   1   6 165.522   8.505   1
  -1  -1  -6 199.321   8.708   2
  -1  -1   6 197.091   8.826   2
   1  -2  -6 205.531   8.915   2
   2  -1  -6 201.388   8.629   2
   2  -1  -6 193.456   8.983   1
   2  -1  -6 187.108   9.136   1
  -1  -1  -6 211.949   9.161   1
   1   1   6 192.068   9.127   1
   1   1   6 182.107   8.929   1
  -1  -1  -6 173.186   9.055   1
   1   1  -6 187.985   8.695   1
   1  -2   6 185.449   9.256   1
  -1   2   6 195.895   8.919   2
   1  -2  -6 186.652   9.099   1
  -1   2   6 185.236   9.140   1
  -1  -1   6 197.276   9.119   1
  -2   1  -6 187.145   9.044   1
   1   1  -6 193.221   8.396   2
  -1   2  -6 201.463   8.729   2
   2  -1   6 187.473   9.079   1
  -1   2  -6 196.282   8.987   1
   1  -2  -6 183.286   9.234   1
  -2   1   6 189.374   9.163   1
  -1   2   6 188.215   9.335   1
  -2   1   6 187.610   9.366   1
  -2   1   6 187.163   8.835   2
   2  -2  -6 67.5064  5.4965   1
   0   2  -6 65.0192  4.8656   2
   0  -2   6 70.6238  5.6540   1
   0  -2  -6 69.1979  4.5237   1
   0   2  -6 63.3386  4.7217   2
   2   0   6 70.4642  5.6099   1
   0   2  -6 73.8758  5.3985   1
   0   2   6 67.5150  5.4467   1
   2   0  -6 71.3811  4.4510   2
  -2   0  -6 67.6483  5.2875   1
   0  -2  -6 71.8080  5.3563   2
   2   0  -6 69.0829  5.1372   1
  -2   0   6 75.3379  4.7986   1
   2  -2   6 87.2150  5.7212   1
  -2   2  -6 73.4048  5.3778   1
   0   2   6 73.7595  5.3727   2
  -2   2   6 72.8234  5.3731   2
  -2   2   6 81.8717  5.9186   1
   0  -2  -6 71.5947  4.8336   1
   2  -2  -6 64.1715  4.7991   1
  -2   2   6 64.4214  4.9229   1
   0   2   6 70.5359  5.6311   1
   2   0   6 63.9028  4.4960   1
   0  -2   6 69.9550  5.3398   2
  -2   0   6 73.6075  5.1665   2
   2  -2  -6 61.6330  5.0201   2
  -2   0   6 70.9967  4.6491   1
   3  -1   6 77.7897  5.5007   1
  -2  -1  -6 71.5839  5.1582   1
   3  -2  -6 64.5192  4.8865   2
   1  -3  -6 64.8215  4.8108   1
   2   1  -6 61.6250  3.8168   2
  -3   1   6 69.3714  4.7521   1
   1   2   6 73.5893  4.5546   1
  -2   3   6 73.0043  5.0147   1
  -1   3  -6 72.7463  4.9932   2
  -3   1   6 72.1880  4.7873   1
  -1   3  -6 64.9518  4.4151   1
   1   2   6 65.0226  5.2262   1
  -1  -2   6 73.4455  5.3129   1
  -3   1   6 63.5638  5.1153   2
   1  -3  -6 71.2917  5.4858   1
   3  -2  -6 66.0063  4.4769   1
  -2   3   6 67.0896  5.3130   2
   2   1  -6 71.4162  4.6521   1
   3  -2  -6 68.7556  5.4665   1
   1  -3  -6 63.2835  5.1355   2
  -2  -1  -6 61.5611  4.5056   1
   2  -3   6 66.1770  4.8579   1
  -1  -2   6 75.3166  4.9788   2
  -1   3  -6 69.1678  4.6609   2
   2   1  -6 58.7302  3.7533   2
  -2   3   6 72.9959  5.8119   1
  -3   2  -6 73.3592  5.1911   1
   3  -1   6 73.3055  5.3077   1
  -1   3   6 58.5226  4.5947   1
  -1   3   6 63.0856  4.7673   1
   3  -2   6 69.0831  4.7607   1
   2  -3  -6 58.5659  4.7775   1
  -1  -2  -6 66.3031  5.1993   1
  -3   2   6 66.8098  4.8385   1
   2   1   6 73.1348  5.0922   1
  -3   2   6 66.4661  4.5583   2
  -2   3  -6 77.6339  5.4392   1
   3  -1  -6 65.2783  4.9968   1
  -2   3  -6 62.4641  4.3443   2
  -1  -2  -6 64.1558  4.9006   2
   2  -3  -6 62.5101  5.0375   2
   1   2  -6 70.4021  4.1503   2
   2   1   6 67.7733  5.1505   1
  -3   2   6 76.6142  5.8541   1
   1   2  -6 62.4691  4.0620   2
  -1   3   6 70.4902  5.1066   2
   3  -1  -6 61.8313  4.4778   2
   1   2  -6 70.2174  4.7887   1
  -1  -2  -6 72.1208  5.5241   1
   1  -3   6 71.5743  5.6704   1
   2  -3  -6 69.5430  4.6548   1
  -2  -1   6 72.4948  5.1343   1
  -2  -1   6 61.0102  4.8174   2
  -3   1  -6 70.8972  5.1968   1
   3  -1  -6 74.6671  5.4811   1
   0   3  -6 508.796  19.885   1
   0  -3   6 493.369  19.725   2
  -3   0   6 480.375  19.926   1
   3  -3  -6 503.975  19.784   2
   3  -3   6 499.939  20.191   1
   3   0   6 488.093  19.763   1
   3   0  -6 499.256  19.106   2
   0  -3  -6 493.393  20.062   1
   3  -3  -6 505.500  20.259   1
  -3   3   6 499.302  20.169   1
   0  -3  -6 512.554  20.010   1
  -3   0   6 489.701  19.573   2
   0   3   6 471.921  19.936   1
  -3   0  -6 509.133  19.841   1
  -3   3  -6 508.199  20.111   1
   0  -3   6 495.840  19.967   1
   0   3   6 506.855  19.963   1
  -3   3   6 505.325  20.351   1
   0  -3  -6 508.837  19.767   2
  -3   3   6 490.942  19.899   2
  -3   0   6 499.159  19.922   1
   3  -3  -6 512.677  20.147   1
  -3   3  -6 500.313  19.797   2
   3   0   6 481.276  19.815   1
   3   0  -6 501.344  19.623   1
   0   3  -6 511.814  19.391   2
   0   3  -6 488.577  19.348   2
   2  -4  -6 1630.47   65.99   1
   2  -4   6 1704.79   65.95   1
   2   2   6 1692.71   65.54   1
   2   2   6 1685.73   65.55   1
   2  -4  -6 1793.97   65.98   1
   4  -2  -6 1717.75   65.74   1
  -4   2   6 1733.39   65.96   1
  -4   2   6 1734.99   65.43   2
  -2  -2   6 1762.22   65.72   1
   4  -2  -6 1732.31   65.81   1
  -2   4   6 1763.66   66.03   1
   4  -2   6 1689.54   65.81   1
   4  -2  -6 1681.03   65.18   2
  -4   2   6 1742.06   65.91   1
   2  -4  -6 1723.27   65.48   2
   2  -4   6 1698.71   65.51   2
  -2   4   6 1707.87   65.94   1
  -2  -2  -6 1826.25   65.77   1
  -2   4  -6 1728.55   65.84   1
  -2   4  -6 1759.22   65.42   2
  -2  -2  -6 1696.13   65.71   1
  -2   4   6 1778.88   65.50   2
  -2  -2   6 1760.51   65.22   2
  -4   2  -6 1789.77   65.93   1
  -3  -1  -6 3696.51  149.75   1
  -3   4   6 4103.76  150.12   1
   4  -3  -6 3879.02  150.01   1
  -4   1   6 4235.34  149.97   1
  -1  -3   6 4107.08  149.95   2
  -3   4   6 4096.46  149.29   2
  -1  -3   6 3987.39  149.01   2
  -3   4   6 4181.61  150.20   1
   4  -3  -6 3902.63  149.09   2
  -1   4  -6 3909.40  148.99   2
  -1   4  -6 3850.22  148.94   2
   1   3   6 3729.92  149.67   1
  -4   1   6 4096.71  149.07   2
   1  -4  -6 3733.83  149.98   1
   4  -1   6 4087.62  150.78   1
   3  -4   6 4164.27  150.14   1
   4  -3  -6 3825.66  149.88   1
  -1  -3   6 3958.58  149.82   1
   1  -4  -6 4092.44  149.98   1
   1  -4  -6 3953.53  149.17   2
  -4   1   6 4150.05  149.94   1
   4  -1   6 4309.24  149.89   1
  -1   4  -6 3871.30  149.78   1
  -4   3  -6 3996.09  150.00   1
  -3  -1  -6 3962.74  149.70   1
   1   3   6 3891.46  149.73   1
   3  -4  -6 3709.09  150.05   1
   4  -1  -6 4118.78  148.86   2
  -1   4   6 3833.97  149.90   1
  -1   4   6 3436.90  149.78   1
   3  -4  -6 4370.66  150.13   1
  -1  -3  -6 4281.75  149.88   1
  -3  -1   6 3770.67  149.71   1
   3  -4  -6 4331.75  149.31   2
   3   1   6 3703.23  149.61   1
  -4   3   6 3901.28  149.21   2
  -3   4  -6 4333.90  150.08   1
  -3   4  -6 3954.62  149.17   2
   3   1   6 3761.70  149.63   1
   1  -4   6 3753.56  149.93   1
   4  -3   6 3802.22  151.65   1
  -1   4   6 3943.97  149.08   2
   1   3  -6 4133.70  149.65   1
   4  -1  -6 4233.99  149.75   1
  -4   1  -6 4510.25  149.97   1
  -1  -3  -6 4007.27  149.89   1
  -4   3   6 4015.79  150.13   1
   4  -1  -6 3927.32  149.79   1
  -1  -3  -6 4246.79  149.98   2
  -3  -1   6 3795.27  148.92   2
  -4   3   6 3774.66  149.99   1
   1  -4   6 3666.35  149.09   2
   0  -4  -6 2696.38   99.13   1
   4  -4   6 2536.11   99.28   1
   0   4  -6 2643.99   98.19   2
   0  -4   6 2536.77   98.48   2
  -4   4   6 2682.99   98.77   2
   0   4   6 2464.37   98.96   1
  -4   4   6 2573.99   99.35   1
  -4   0   6 2641.48   99.00   1
   0   4  -6 2662.17   98.17   2
   0  -4   6 2645.15   99.12   1
   4  -4  -6 2715.17   98.69   2
  -4   0   6 2675.42   98.38   2
  -4   4   6 2722.07   99.47   1
  -4   0   6 2624.46   99.01   1
  -4   0  -6 2683.28   99.00   1
  -4   4  -6 2740.27   99.38   1
   4   0   6 2568.80   98.85   1
   0  -4  -6 2578.62   98.53   2
   0  -4  -6 2537.80   99.18   1
   0   4  -6 2665.47   98.96   1
  -4   4  -6 2555.65   98.66   2
   0   4   6 2525.53   99.04   1
   4  -4  -6 2684.19   99.30   1
   4  -4  -6 2590.59   99.37   1
   4   0   6 2604.44   98.87   1
  -2  -3   6 59.8196  4.3188   1
   2  -5  -6 58.8674  5.1776   1
  -3   5   6 64.1644  4.7249   2
  -2  -3   6 58.4366  4.5401   2
  -2   5  -6 59.7744  4.2739   2
  -2  -3   6 51.7790  3.8189   2
   5  -3  -6 63.9772  4.1550   2
   3  -5   6 61.8335  5.1983   1
  -5   2   6 66.0342  4.4993   2
  -5   2   6 65.1200  4.8396   1
  -3   5   6 54.4508  5.0341   1
  -3  -2  -6 65.3478  4.3495   1
   2  -5  -6 67.9133  4.6896   2
   3  -5   6 64.2926  4.9386   2
   2   3   6 54.2161  4.4504   1
   5  -2   6 60.7567  4.5779   1
  -3  -2  -6 55.2279  4.0900   1
   3   2  -6 52.1268  3.5555   1
  -2   5  -6 69.7472  4.6299   1
   5  -3  -6 62.8022  4.6877   1
   5  -3  -6 65.7746  4.5959   1
  -3   5   6 48.7115  4.8469   1
   2  -5   6 53.0999  4.9795   1
   2   3  -6 48.2218  3.8770   1
  -5   3   6 62.7119  4.9431   1
  -2   5   6 65.4895  4.5840   2
  -2  -3  -6 56.1836  4.2321   1
  -3   5  -6 63.2414  4.6404   2
   5  -2  -6 62.4541  4.3041   1
  -3   5  -6 67.4142  4.7379   1
   3  -5  -6 61.0405  5.1504   1
   5  -2  -6 58.9409  4.1724   2
  -2   5   6 58.4358  4.7839   1
   5  -3   6 62.3538  4.7901   1
  -3  -2   6 52.6469  4.2551   2
   3   2   6 52.8350  4.2902   1
  -2  -3  -6 61.5066  4.4748   1
  -5   3   6 73.5860  4.8167   2
   3  -5  -6 70.5628  4.8168   2
   5  -2  -6 64.4634  4.4782   1
   3  -5  -6 64.2904  4.8750   1
   2  -5   6 62.6569  4.9079   2
  -3  -2   6 62.9929  4.2130   1
  -3  -2   6 55.5448  4.1108   2
   3   2   6 57.7702  4.0242   1
  -2   5   6 61.7554  4.8842   1
  -1  -4   6 193.509   9.304   1
   5  -4  -6 195.224   9.826   1
  -1   5  -6 198.796   8.721   2
   1   4   6 178.408   8.767   1
   4   1  -6 191.954   8.034   1
  -1   5  -6 188.960   8.609   2
   5  -4  -6 216.935   9.732   1
   5  -4  -6 187.040   9.168   2
  -4  -1  -6 185.653   9.127   1
   1  -5  -6 196.664   9.198   2
  -5   1   6 199.563   8.934   2
  -4   5   6 200.791  10.084   1
   5  -1   6 194.685   9.078   1
  -1   5  -6 196.083   9.226   1
  -5   4  -6 199.082  10.076   1
   4  -5   6 201.188   9.972   1
   1  -5  -6 186.690   9.697   1
   5  -1   6 190.211   9.068   1
  -4   5   6 200.178   9.838   1
   1   4   6 186.610   8.941   1
  -1  -4   6 179.966   8.850   2
  -5   1   6 197.110   9.336   1
  -1  -4   6 199.339   8.902   2
  -4   5   6 201.362   9.630   2
  -4   5  -6 207.920  10.113   1
  -1   5   6 191.115   9.480   1
   4   1   6 191.262   8.471   1
   4   1   6 186.679   8.501   1
   4  -5  -6 179.099   9.943   1
  -1  -4  -6 202.644   8.999   2
  -1   5   6 216.667   8.898   2
  -5   4   6 191.587   9.937   1
   1  -5   6 204.072   9.475   2
   4  -5  -6 201.773   9.972   1
  -5   4   6 198.338   9.441   2
  -1   5   6 197.407   9.421   1
  -4  -1   6 192.555   9.031   1
   1  -5   6 197.694   9.724   1
   4  -5  -6 210.563   9.505   2
  -4  -1   6 213.958   9.242   1
   5  -1  -6 201.427   8.643   1
  -4   5  -6 193.515   9.481   2
   5  -4   6 186.986   9.874   1
  -4  -1   6 191.481   8.451   2
  -1  -4  -6 189.581   9.406   1
  -5   5   6 1208.15   45.93   2
   0   5   6 1149.96   45.75   1
  -5   5  -6 1222.92   45.84   2
   0   5  -6 1135.43   45.58   1
   5   0  -6 1185.98   45.23   1
  -5   5   6 1210.39   46.30   1
   0  -5   6 1221.54   46.01   1
  -5   5  -6 1268.00   46.41   1
  -5   0   6 1229.99   45.75   1
   0  -5  -6 1184.98   46.07   1
   5  -5  -6 1215.82   46.26   1
   0  -5  -6 1194.38   45.56   2
   5   0   6 1201.16   45.44   1
   5  -5   6 1212.62   46.33   1
   0   5   6 1155.88   45.71   1
   5  -5  -6 1162.19   46.31   1
   5   0   6 1185.94   45.42   1
   0  -5   6 1162.42   45.48   2
  -5   0   6 1183.23   45.23   2
   5  -5  -6 1210.21   45.74   2
   0   5  -6 1182.62   45.65   1
  -6   3   6 492.664  20.218   1
  -3  -3   6 464.546  19.025   2
   3  -6   6 464.869  20.402   1
  -3  -3   6 494.421  19.084   2
   6  -3   6 474.647  20.039   1
   6  -3  -6 496.555  20.008   1
  -3   6   6 525.162  20.004   2
  -3  -3   6 488.485  19.615   1
  -3   6   6 484.427  20.294   1
  -6   3   6 502.125  19.892   2
  -3  -3  -6 485.537  19.704   1
   3  -6  -6 486.044  20.454   1
   6  -3  -6 507.434  19.265   2
  -3   6  -6 511.397  20.232   1
  -3   6   6 514.100  20.522   1
   3  -6  -6 492.802  20.022   2
  -3   6  -6 501.095  19.840   2
   6  -3  -6 484.029  19.857   1
   3  -6   6 485.137  20.126   2
  -6   2   6 90.5851  6.0059   2
  -4   6   6 90.8607  7.1542   1
   4  -6   6 94.0420  7.4190   1
   6  -4  -6 98.2558  5.8924   2
  -2  -4   6 88.2923  5.3760   2
  -4   6   6 104.207   7.472   1
  -4   6   6 104.243   6.868   2
  -2   6  -6 98.2243  6.4256   1
  -6   4  -6 92.9547  6.4788   2
   4  -6   6 86.7085  6.9194   2
  -2  -4   6 107.426   6.157   1
   2   4   6 93.1106  5.0726   1
   2   4   6 86.6284  5.0592   1
  -4  -2  -6 107.866   6.000   1
  -6   2   6 89.6308  6.5331   1
   6  -4  -6 95.3902  6.8810   1
   6  -2   6 88.0048  6.2787   1
   2  -6  -6 98.5002  6.3610   2
   2  -6  -6 86.5144  6.9292   1
  -2   6  -6 91.6852  5.8087   2
  -2  -4   6 84.2342  5.3749   2
   6  -4  -6 103.622   6.722   1
   4  -6  -6 93.5544  6.5921   2
   6  -2  -6 92.6897  5.9167   1
  -2  -4  -6 88.1200  5.4562   2
  -6   4   6 92.5788  7.0363   1
  -2  -4  -6 100.765   6.272   1
  -2   6   6 105.485   6.142   2
  -2   6   6 105.050   7.046   1
   4  -6  -6 98.9081  7.3515   1
  -2   6   6 78.2133  6.4808   1
   6  -2  -6 100.044   6.085   1
   2  -6   6 96.3573  7.0763   1
  -4  -2   6 89.1009  4.8450   2
  -6   4   6 101.563   6.673   2
   6  -4   6 103.707   6.978   1
  -4   6  -6 100.244   6.672   2
  -4   6  -6 98.0048  7.1492   1
  -4  -2   6 98.2581  5.8011   1
  -4  -2   6 82.4342  4.8468   2
   2  -6   6 88.4493  6.6975   2
  -6   1   6 87.7910  5.6716   2
  -5   6   6 92.0666  7.2726   1
  -1  -5   6 92.0603  5.6697   2
  -6   1   6 81.2725  5.4277   1
   6  -5  -6 92.3418  6.2802   2
   6  -5  -6 86.2415  6.2043   1
   1  -6  -6 84.6485  6.6797   1
   6  -1   6 99.8117  5.6522   1
  -1  -5   6 84.3847  5.6301   2
  -5   6   6 95.0613  6.7253   2
   1  -6  -6 89.5715  6.0534   2
  -1  -5   6 97.9560  6.3413   1
   6  -5  -6 97.3841  6.8818   1
   1   5   6 88.6682  5.5370   1
   5  -6   6 91.9811  6.5590   1
  -1   6  -6 86.0418  5.9385   1
  -1   6  -6 72.3278  5.7850   1
   1   5   6 74.2826  4.9673   1
   5  -6  -6 96.2817  6.6979   2
  -5  -1   6 84.8040  4.9170   2
  -5   6  -6 95.8434  6.2613   1
  -1  -5  -6 94.6133  5.9605   2
  -5   6  -6 94.8161  6.8916   2
   1   5  -6 83.3155  4.9453   1
  -5  -1   6 89.4274  5.7987   1
  -6   5   6 89.0950  6.5991   2
   5  -6  -6 83.7182  6.3901   1
   5  -6  -6 104.523   7.312   1
   1  -6   6 89.3385  6.7787   1
   6  -5   6 88.6289  6.2169   1
  -1   6   6 87.9802  6.1826   1
   6  -1  -6 87.9044  4.9381   1
  -1   6   6 92.6222  6.4511   1
  -6   5   6 89.2743  6.8851   1
   1  -6   6 84.8218  6.4033   2
   1   5  -6 78.5335  4.8404   1
  -1  -5  -6 90.8990  6.4823   1
   0   6  -6 713.591  28.633   1
  -6   6  -6 772.769  29.333   2
   0  -6  -6 744.734  29.360   1
  -6   0   6 744.178  28.376   2
  -6   6   6 742.815  29.719   1
   6  -6  -6 715.677  29.684   1
   6   0   6 730.156  28.185   1
  -6   0   6 755.151  28.874   1
   6  -6   6 723.865  29.680   1
   0  -6  -6 740.986  28.850   2
   0   6   6 724.492  28.849   1
   6  -6  -6 756.433  29.660   1
  -6   6   6 759.200  29.375   2
   6  -6  -6 756.950  29.185   2
   0  -6   6 762.450  29.274   1
   0  -6   6 704.768  28.740   2
   0   6   6 705.566  28.780   1
  -4   7   6 163.099   9.561   1
  -7   4  -6 151.108   8.445   2
   7  -4  -6 154.390   8.653   1
  -3  -4   6 157.551   7.848   1
  -3   7  -6 143.224   8.700   1
  -7   3   6 146.554   8.294   2
   3  -7  -6 157.384   8.665   2
  -4  -3  -6 168.409   7.881   1
   4  -7   6 148.316   8.994   2
  -3  -4   6 141.336   7.002   2
  -3   7  -6 156.585   8.558   1
   7  -4  -6 159.059   8.565   1
  -4   7   6 174.232   9.007   2
   4  -7   6 148.906   9.221   1
   3  -7  -6 149.299   9.209   1
  -4   7   6 144.483   9.060   1
   7  -3   6 158.251   8.501   1
  -3  -4   6 151.402   7.135   2
   3  -7   6 150.909   8.938   2
  -4   7  -6 150.788   8.756   1
  -3  -4  -6 158.550   8.096   1
  -7   4   6 166.676   8.570   2
  -4   7  -6 170.241   8.527   2
  -3   7   6 154.691   9.401   1
   4  -7  -6 150.756   9.365   1
  -4   7  -6 170.481   9.279   1
   3  -7   6 163.690   9.332   1
   7  -4   6 156.467   8.856   1
   4  -7  -6 161.665   8.690   2
   7  -3  -6 162.459   8.265   1
  -4  -3   6 156.847   7.693   1
  -7   4   6 156.221   8.969   1
   7  -3  -6 160.991   8.048   1
  -3   7   6 149.045   8.843   1
  -2  -5   6 221.635  10.854   1
  -5   7   6 221.600  11.767   1
  -2  -5   6 212.884  10.202   2
   7  -5  -6 259.749  10.952   2
  -2  -5   6 228.448  10.289   2
   2  -7  -6 239.575  11.220   2
   2  -7  -6 246.121  11.903   1
  -7   2   6 233.532  11.198   1
  -5  -2  -6 254.392  10.752   1
  -7   2   6 236.157  10.833   2
  -7   5  -6 262.714  11.459   2
   5  -7   6 251.706  11.977   2
   7  -2   6 243.547  10.763   1
   5  -7   6 246.467  12.226   1
  -5   7   6 225.636  11.640   2
   7  -2   6 224.131  10.556   1
  -2   7  -6 225.873  11.108   1
   7  -5  -6 270.351  11.797   1
   7  -5  -6 247.059  11.667   1
  -2   7  -6 246.855  11.172   1
  -7   5   6 262.052  11.578   2
  -5   7  -6 245.810  11.465   2
   2  -7   6 234.542  11.767   1
  -5   7  -6 259.474  12.222   1
  -2  -5  -6 221.708  10.476   2
   2  -7   6 233.362  11.377   2
  -2   7   6 244.726  11.581   1
   7  -5   6 255.277  11.803   1
  -5  -2   6 233.439  10.495   1
  -7   5   6 265.241  11.955   1
  -2  -5  -6 230.398  11.044   1
   5  -7  -6 223.752  11.884   1
   5  -7  -6 228.251  11.442   2
  -2   7   6 226.104  11.264   1
  -7   1   6 304.680  12.582   2
  -1  -6   6 286.228  13.292   1
   1   6   6 279.445  12.267   1
  -1   7  -6 310.566  12.949   1
   6  -7   6 293.343  14.173   1
   7  -1   6 293.438  12.146   1
   7  -6  -6 307.466  13.277   2
  -1  -6   6 284.598  12.656   2
   1  -7  -6 298.551  13.120   2
   1  -7  -6 289.580  13.597   1
   6  -7   6 331.031  14.045   2
  -6   7   6 298.561  14.102   1
  -6   7   6 315.090  13.804   2
   7  -6  -6 328.575  14.111   1
  -1   7  -6 289.422  12.821   1
   1   6   6 296.701  12.329   1
   7  -6  -6 299.538  13.926   1
   7  -1   6 298.026  12.206   1
  -7   1   6 306.743  13.092   1
   1   6  -6 278.202  11.814   1
  -6   7  -6 313.202  13.733   2
   6  -7  -6 310.887  13.632   2
  -1   7   6 293.090  13.187   1
  -1   7   6 276.458  13.005   1
  -1  -6  -6 289.020  12.796   2
  -6  -1   6 285.977  11.958   2
  -6  -1   6 298.120  12.697   1
  -7   6   6 273.630  13.952   1
  -1  -6  -6 292.532  13.362   1
   1  -7   6 299.342  13.239   2
   1  -7   6 304.402  13.726   1
   7  -6   6 294.446  14.003   1
   6  -7  -6 305.012  14.267   1
   0   7   6 2395.25   90.68   1
   0  -7  -6 2426.79   90.50   2
   0  -7   6 2288.79   90.39   2
  -7   7   6 2502.93   91.02   2
   0   7  -6 2366.46   90.48   1
   7  -7  -6 2433.55   91.68   1
  -7   7   6 2415.13   91.66   1
   0   7  -6 2295.97   90.42   1
   7  -7   6 2328.83   91.56   1
   0  -7   6 2402.68   91.14   1
  -7   7  -6 2501.34   90.97   2
   0  -7  -6 2386.43   91.23   1
  -7   0   6 2405.42   90.71   1
   7  -7  -6 2434.57   90.81   2
  -7   0   6 2380.02   89.99   2
  -4   8  -6 635.655  24.727   1
  -8   4   6 600.663  24.232   2
   8  -4  -6 616.143  24.246   1
   4  -8  -6 594.401  24.436   2
  -4   8   6 589.688  24.677   1
  -4   8   6 626.226  25.016   1
  -8   4   6 591.692  24.607   1
   4  -8   6 600.320  24.623   2
  -4  -4   6 597.568  23.707   1
  -4   8  -6 566.646  24.519   1
  -4  -4  -6 613.394  23.862   1
   4  -8   6 575.551  24.932   1
   4  -8  -6 575.796  24.955   1
  -8   4  -6 588.290  24.137   2
   8  -4   6 590.095  24.322   1
   8  -4  -6 641.475  24.247   1
   5  -8   6 95.8403  7.1589   1
  -5   8   6 91.0740  6.3384   2
   5  -8   6 88.9752  6.7667   2
  -5   8   6 75.7448  6.5210   1
   3  -8  -6 70.7986  6.0488   2
  -3   8  -6 81.5604  5.8975   1
  -8   5  -6 81.9480  6.0972   2
   8  -3   6 78.2752  6.2654   1
  -3  -5   6 77.9550  5.2311   1
  -8   3   6 80.1654  5.7271   2
  -5   8   6 89.4639  6.8988   1
  -5  -3  -6 69.1423  5.6905   1
   8  -5  -6 83.4271  6.0641   1
  -3  -5   6 66.5943  4.8825   2
  -3   8  -6 79.2453  5.8638   1
  -8   3   6 75.2195  5.9060   1
  -3  -5   6 73.9721  4.9580   2
   3  -8  -6 80.0220  6.7212   1
   8  -5  -6 92.4934  6.0426   1
   5  -8  -6 80.0181  6.2706   2
  -5   8  -6 85.2788  6.0176   2
  -5   8  -6 82.6383  6.3692   1
  -3   8   6 79.8034  6.1322   1
  -5  -3   6 77.0543  5.6888   1
   8  -5   6 85.0174  6.2694   1
  -3   8   6 79.0514  6.2681   1
   3  -8   6 76.3431  6.3753   2
   5  -8  -6 72.7324  6.7918   1
   8  -3  -6 82.8582  6.1216   1
  -8   5   6 81.3707  6.1535   2
   3  -8   6 67.8090  6.4864   1
  -3  -5  -6 78.3517  5.4968   1
  -8   5   6 75.1674  6.2985   1
  -5   8  -6 99.8787  6.6472   1
  -2  -6   6 19.6011  3.5058   2
  -2  -6   6 23.9564  3.9495   1
   8  -6  -6 20.1062  4.7492   1
  -8   6  -6 24.1368  4.5944   2
  -2  -6   6 17.0373  3.6465   2
  -2   8  -6 28.2814  4.1864   1
  -6  -2  -6 23.4071  3.6202   1
   8  -6  -6 30.0322  4.1097   2
  -8   2   6 26.9193  4.1230   1
  -6   8   6 16.5147  4.9883   1
  -8   2   6 26.8888  3.9887   2
  -6   8   6 19.8242  4.7852   2
  -2   8  -6 19.9861  3.7156   1
   6  -8   6 15.2950  5.0548   2
   8  -2   6 19.3497  3.3942   1
   8  -2   6 31.6783  3.5520   1
   2  -8  -6 23.9294  5.0662   1
   2  -8  -6 23.2484  4.5027   2
   6  -8   6 20.5057  5.3474   1
   8  -6  -6 25.0193  4.5438   1
  -6  -2   6 19.1467  3.3690   1
   6  -8  -6 11.9252  5.0952   1
   8  -6   6 24.9107  4.9806   1
  -8   6   6 24.9560  5.0034   1
  -2  -6  -6 20.5364  3.7763   2
  -6   8  -6 19.1746  4.4723   2
  -2  -6  -6 22.3718  4.2515   1
  -2   8   6 16.1822  4.1959   1
  -6   8  -6 17.5490  4.6490   1
  -2   8   6 13.0919  4.0797   1
   6  -8  -6 17.8770  4.5439   2
   2  -8   6 29.1685  5.1426   1
   2  -8   6 15.4640  4.8184   2
  -8   6   6 24.4498  4.8660   2
  -1   8  -6 230.997  10.802   1
   1  -8  -6 237.993  12.220   1
   8  -7  -6 248.439  11.833   2
  -8   1   6 250.233  11.536   1
  -7   8   6 232.363  12.606   1
  -8   1   6 235.681  10.913   2
   8  -7  -6 247.880  12.427   1
  -8   7  -6 263.958  12.328   2
   7  -8   6 256.623  12.538   2
   7  -8   6 237.355  12.924   1
  -1  -7   6 231.561  11.061   2
  -1  -7   6 245.091  11.842   1
  -1   8  -6 227.392  10.986   1
   8  -7  -6 268.168  12.981   1
   1   7   6 238.077  10.102   1
   1  -8  -6 241.075  11.527   2
  -7   8   6 256.566  12.501   2
   8  -7   6 252.933  12.657   1
   1  -8   6 226.883  12.204   1
  -1  -7  -6 235.777  11.171   2
  -7   8  -6 258.648  12.448   1
   7  -8  -6 256.757  12.879   1
   7  -8  -6 248.256  12.152   2
  -7   8  -6 249.246  12.246   2
  -1  -7  -6 247.241  11.913   1
  -1   8   6 247.521  11.389   1
  -8   7   6 258.310  12.772   1
   1  -8   6 213.933  11.569   2
  -1   8   6 254.492  11.563   1
  -7  -1   6 247.876  11.016   1
  -8   8  -6 515.297  20.814   2
  -8   8   6 507.857  20.875   2
   0   8  -6 469.765  19.036   1
   0   8  -6 469.032  19.127   1
   8  -8  -6 475.543  21.141   1
   0  -8   6 488.377  20.436   1
   0  -8  -6 477.054  19.906   2
   8  -8  -6 504.031  20.530   2
  -8   8   6 507.219  21.244   1
  -8   0   6 499.271  19.802   1
   0   8   6 469.300  19.485   1
   0  -8  -6 474.132  20.518   1
   0  -8   6 468.428  19.958   2
  -8   0   6 471.392  19.101   2
   8  -8   6 483.415  21.235   1
   0   8   6 484.694  19.452   1
   5  -9   6 98.2882  7.8180   1
   4  -9  -6 87.2611  6.8933   2
   5  -9   6 89.2063  7.3279   2
  -9   4   6 106.279   7.590   1
   9  -5  -6 94.2528  7.2172   1
  -9   4   6 93.8584  7.4152   2
  -9   5  -6 101.848   7.642   2
  -4   9  -6 99.4508  6.8647   1
  -5   9   6 85.5456  7.2364   1
  -5  -4  -6 79.9821  6.2546   1
   4  -9  -6 98.0421  7.6846   1
  -5   9   6 123.282   7.890   1
   9  -4   6 95.5283  7.1016   1
  -4   9  -6 90.0523  6.9053   1
  -4  -5   6 99.3163  6.3288   1
   4  -9   6 99.5742  7.6909   1
   5  -9  -6 95.1943  7.7949   1
  -5  -4   6 90.7913  6.1626   1
  -5   9  -6 84.5819  6.8295   1
   9  -4  -6 104.652   6.947   1
  -4  -5  -6 97.3178  6.6444   1
  -9   5   6 98.6306  7.5411   2
   9  -5   6 99.8445  6.9242   1
  -9   5   6 98.9787  7.0877   1
   5  -9  -6 93.4509  7.0562   2
   4  -9   6 94.9467  7.3974   2
  -4   9   6 92.0881  6.9084   1
  -4   9   6 93.3614  7.1683   1
  -5   9  -6 109.131   7.260   1
  -9   4  -6 91.1071  7.2041   2
  -9   6  -6 -2.4101  4.1447   2
  -6  -3  -6 0.67180 3.24866   1
   9  -6  -6 1.30645 4.03034   1
   3  -9  -6 -0.4668  4.9306   1
   9  -3   6 0.01664 3.35696   1
  -9   3   6 3.06212 3.96952   1
   6  -9   6 4.38600 5.30894   1
  -9   3   6 0.76282 3.91545   2
  -3   9  -6 7.37405 3.92276   1
  -6   9   6 11.2109  4.7002   2
  -3  -6   6 -0.3484  2.8322   2
   6  -9   6 1.32444 4.96023   2
   9  -6  -6 1.84135 4.26046   1
  -3  -6   6 4.24034 3.50946   1
  -3   9  -6 4.27718 4.08650   1
   3  -9  -6 6.88024 4.54115   2
   9  -3   6 -0.1207  3.3458   1
  -3  -6   6 -1.5653  2.9657   2
  -6   9   6 4.22048 4.76675   1
  -3   9   6 -6.4344  4.0940   1
  -6   9  -6 9.37621 4.64307   1
  -3  -6  -6 5.52964 3.27202   2
  -6   9  -6 1.23652 4.24692   2
   3  -9   6 2.22866 4.89609   1
  -6  -3   6 2.27306 3.04957   1
   6  -9  -6 6.10051 5.31498   1
  -3  -6  -6 -0.6912  3.7384   1
   9  -6   6 5.20233 4.59984   1
  -3   9   6 2.76812 4.33279   1
  -9   6   6 -3.5357  4.3859   1
  -9   6   6 0.47091 4.44780   2
   6  -9  -6 -3.9816  4.3607   2
   3  -9   6 1.15748 4.79495   2
   7  -9   6 78.4734  7.6662   1
   2  -9  -6 87.5685  6.6372   2
  -7   9   6 87.1368  7.3229   1
  -9   2   6 86.8656  5.8866   2
  -2  -7   6 90.1836  6.1534   1
  -9   7  -6 86.2026  6.5485   2
  -7   9   6 86.4874  6.9912   2
  -2   9  -6 82.8541  6.5190   1
   7  -9   6 88.2112  7.3242   2
   9  -7  -6 103.408   6.988   1
   2  -9  -6 88.7224  7.2457   1
   9  -7  -6 91.7864  7.0823   1
  -9   2   6 86.8225  6.8944   1
  -2   9  -6 84.2223  5.7193   1
  -2  -7   6 78.6288  6.0855   2
  -9   7   6 77.2278  6.6826   2
   7  -9  -6 88.5318  7.6300   1
  -7  -2   6 76.9032  6.1133   1
   2  -9   6 88.6023  6.8165   2
   2  -9   6 82.4131  7.1774   1
  -2  -7  -6 81.0711  6.3106   2
  -9   7   6 99.2002  7.5254   1
  -2   9   6 69.4653  5.9909   1
  -7   9  -6 77.4730  6.6643   2
   7  -9  -6 78.9951  6.6890   2
  -7   9  -6 95.6217  7.1230   1
   9  -7   6 94.0141  7.2923   1
  -2  -7  -6 81.6095  6.2672   1
  -2   9   6 80.6066  6.1349   1
  -8   9   6 378.547  15.786   2
  -9   1   6 321.910  14.392   1
  -1  -8   6 324.829  14.847   1
  -9   8  -6 331.668  15.323   2
   1  -9  -6 334.877  15.442   1
   8  -9   6 366.883  15.943   2
  -1   9  -6 312.039  14.032   1
  -1   9  -6 310.101  13.741   1
   1  -9  -6 299.364  14.558   2
   9  -8  -6 340.359  14.980   2
  -8   9   6 325.864  15.829   1
  -1  -8   6 312.990  14.177   2
  -9   1   6 314.911  13.813   2
   9  -8  -6 315.297  15.460   1
   8  -9   6 336.977  16.080   1
  -1  -8  -6 320.130  14.260   2
  -1   9   6 313.508  14.145   1
  -9   8   6 338.483  15.706   1
   9  -8   6 320.057  15.693   1
   8  -9  -6 326.286  15.221   2
  -8  -1   6 328.430  13.956   1
  -1  -8  -6 329.213  14.868   1
   8  -9  -6 343.077  16.006   1
   1  -9   6 324.296  15.322   1
  -8   9  -6 296.113  15.349   1
  -9   8   6 352.637  15.556   2
   1  -9   6 309.408  14.684   2
  -8   9  -6 318.010  15.202   2
   0  -9  -6 17.1981  5.1107   1
  -9   0   6 17.3991  3.8638   1
   0  -9   6 20.8309  4.8355   2
   9  -9   6 27.2773  6.1628   1
   0   9   6 19.7621  3.1161   1
  -9   0   6 16.9031  3.4668   2
   0  -9  -6 16.0632  4.6883   2
   9  -9  -6 23.9408  5.8854   1
  -9   9  -6 20.4682  5.3469   1
   0   9   6 18.9217  3.2794   1
   0  -9   6 25.9327  5.3138   1
  -9   9   6 28.9427  6.0303   1
  -5  -5   6 15.4977  3.6380   1
   5 -10   6 12.0425  5.6618   2
  10  -5  -6 19.1299  4.3661   1
  -5  -5  -6 12.1142  3.7657   1
  10  -5   6 15.8985  4.6198   1
 -10   5   6 23.1652  5.0984   2
   5 -10  -6 21.5784  5.9671   1
   5 -10   6 11.0594  5.8948   1
 -10   5   6 18.1692  5.0010   1
  -5  10  -6 9.74184 4.89134   1
  -5  10   6 9.61525 5.38113   1
   5 -10  -6 15.8980  5.2596   2
  -5  10  -6 14.0946  4.9292   1
 -10   5  -6 18.4494  4.7032   2
  -5  10   6 15.9310  5.1188   1
   6 -10   6 333.445  15.398   2
  -6  -4  -6 307.690  13.483   1
 -10   6  -6 304.043  14.737   2
  -6  10   6 276.706  14.977   1
 -10   4   6 311.642  14.410   2
   4 -10  -6 329.974  14.968   2
 -10   4   6 310.037  14.659   1
  -4  10  -6 322.821  14.795   1
  10  -4   6 316.772  13.768   1
  10  -6  -6 298.212  14.494   1
   4 -10  -6 313.966  15.499   1
   6 -10   6 340.699  15.928   1
  -4  -6   6 311.607  13.646   1
  -4  10  -6 292.579  14.370   1
   4 -10   6 298.791  15.546   1
 -10   4  -6 320.866  14.302   2
   4 -10   6 315.845  15.042   2
 -10   6   6 319.126  15.130   1
  -4  10   6 302.100  14.647   1
   6 -10  -6 287.259  15.517   1
   6 -10  -6 316.887  14.942   2
  -4  -6  -6 306.034  13.840   1
  10  -6   6 323.534  14.629   1
  -4  10   6 346.290  15.470   1
  -6  10  -6 308.335  14.920   1
 -10   6   6 307.687  14.682   2
  10  -4  -6 318.026  13.639   1
  -6  -4   6 314.255  13.337   1
  -7  -3  -6 172.410   9.004   1
   3 -10  -6 175.629  10.985   1
   7 -10   6 163.797  11.450   1
  -3  -7   6 162.794   8.413   2
 -10   7  -6 197.573  10.513   2
  10  -7  -6 175.594  10.432   1
 -10   3   6 176.981   9.919   1
   7 -10   6 190.169  11.212   2
  10  -3   6 181.694   8.100   1
  -3  -7   6 155.825   8.505   2
  -3  10  -6 173.608   9.581   1
 -10   3   6 171.117   9.653   2
  -3  -7   6 186.760   9.586   1
  -7  10   6 174.039  10.921   1
  10  -3   6 170.260   8.455   1
   3 -10  -6 174.742  10.410   2
  -3  10  -6 184.597   9.723   1
  10  -7   6 177.745  10.531   1
  -3  10   6 169.572  10.258   1
   7 -10  -6 157.481  11.153   1
   3 -10   6 176.093  10.410   2
 -10   7   6 167.562  10.305   2
  -3  -7  -6 184.734   9.741   1
  -3  10   6 167.121   9.735   1
 -10   7   6 199.551  10.864   1
  -7  -3   6 173.855   8.724   1
  -3  -7  -6 168.518   8.718   2
  -7  10  -6 152.075  10.297   1
   3 -10   6 179.863  11.099   1
   7 -10  -6 185.026  10.624   2
 -10   2   6 196.971  10.610   1
  -2  -8   6 211.790  10.784   1
  -2  -8   6 196.652   9.991   2
  -2  10  -6 206.953  10.135   1
  10  -8  -6 198.543  11.530   1
   8 -10   6 210.676  12.497   1
 -10   2   6 215.181  10.406   2
  10  -8  -6 232.641  12.221   1
   2 -10  -6 208.614  11.978   1
   2 -10  -6 204.642  11.153   2
  -8  10   6 204.305  12.034   1
  -2  -8  -6 212.362  11.039   1
   8 -10  -6 212.029  12.378   1
  -8  10  -6 200.881  11.672   1
  -2  -8  -6 221.031  10.229   2
   2 -10   6 202.406  11.210   2
   2 -10   6 213.835  11.840   1
  10  -8   6 210.200  11.647   1
 -10   8   6 204.444  12.064   1
  -2  10   6 183.667  10.311   1
   1 -10  -6 1.79990 5.33724   1
 -10   1   6 9.59128 3.75419   2
 -10   9  -6 -2.9179  4.7249   1
  10  -9  -6 -1.7506  5.0722   1
  -1  10  -6 2.89647 3.05313   1
  -9  10   6 3.00712 5.42522   1
   1 -10  -6 6.59289 4.73912   2
  -1  -9   6 -2.7422  4.2089   2
   9 -10   6 9.05663 5.92804   1
   1 -10   6 2.02014 5.06131   1
 -10   9   6 6.51945 5.49030   1
  -1  -9  -6 1.79686 4.80060   1
   1 -10   6 7.28837 4.98072   2
  10  -9   6 9.93644 5.51582   1
  -1  -9  -6 2.33458 4.38307   2
  -9  10  -6 0.81467 4.96829   1
  -1  10   6 5.32129 3.75521   1
   9 -10  -6 2.83790 5.66220   1
  10 -10   6 60.3262  7.2826   1
 -10  10  -6 63.2772  6.8784   1
  10 -10  -6 52.3803  7.0590   1
 -10  10   6 63.8310  7.2552   1
   0 -10   6 50.7943  5.9584   2
 -10   0   6 61.8976  4.5926   2
   0 -10  -6 53.5201  5.9221   2
   6 -11   6 -2.4900  5.5653   2
  -6  11   6 -1.2689  4.9700   1
 -11   5   6 5.69446 4.69487   1
  -5  11  -6 4.09711 4.61768   1
   6 -11   6 -6.1668  5.8782   1
   5 -11  -6 8.02996 5.24618   2
  11  -6  -6 8.32991 4.20517   1
 -11   6  -6 1.87005 4.67216   2
  11  -5   6 1.08353 4.18112   1
   5 -11  -6 5.59180 5.84624   1
 -11   5   6 3.59424 4.66420   2
   5 -11   6 -0.9554  5.6095   2
  -6  11  -6 -1.2040  4.7698   1
  11  -6   6 6.93185 4.76046   1
   6 -11  -6 -1.4730  4.8840   2
 -11   5  -6 11.0377  4.6407   2
   6 -11  -6 1.16896 5.76074   1
  -5  11   6 5.22012 4.86203   1
 -11   6   6 -1.3765  4.7065   1
   5 -11   6 1.83371 5.91826   1
  11  -5  -6 1.45850 3.74643   1
 -11   6   6 2.75681 4.86414   2
 -11   4   6 205.878  10.885   1
   7 -11   6 210.202  12.259   1
   4 -11  -6 194.685  11.951   1
   4 -11  -6 184.544  11.250   2
  -4  11  -6 186.079  10.364   1
 -11   4   6 206.165  10.688   2
  -7  11   6 189.981  11.285   1
  -4  -7   6 176.095   8.556   2
  11  -4   6 195.823   9.075   1
  11  -7  -6 207.302  11.007   1
  11  -7   6 188.306  10.820   1
 -11   7   6 204.523  11.466   1
   4 -11   6 207.893  12.084   1
 -11   4  -6 197.959  10.472   2
   7 -11  -6 194.427  12.039   1
  -7  11  -6 193.052  11.116   1
   4 -11   6 192.138  11.351   2
  -4  11   6 169.361  10.506   1
  -4  -7  -6 166.691   8.981   2
 -11   7   6 207.031  11.111   2
   3 -11  -6 679.798  28.866   1
   3 -11  -6 688.194  28.175   2
   8 -11   6 696.193  29.214   1
 -11   3   6 690.255  27.463   2
  -8  11   6 692.305  28.859   1
  -3  -8   6 666.915  26.773   2
  11  -8  -6 709.268  28.444   1
  -3  11  -6 660.137  27.448   1
   8 -11  -6 693.873  29.208   1
  11  -8   6 680.940  28.373   1
  -8  11  -6 659.416  28.581   1
  -3  11   6 664.938  27.709   1
   3 -11   6 661.651  28.099   2
 -11   8   6 733.279  28.910   1
   3 -11   6 730.243  28.965   1
  -3  -8  -6 652.993  26.960   2
   2 -11  -6 48.8554  6.2462   2
  11  -9  -6 62.1658  6.7460   1
   9 -11   6 56.2231  7.7912   1
 -11   9  -6 57.2531  6.7514   1
   2 -11  -6 62.9818  7.2055   1
 -11   2   6 54.5291  5.2842   2
  -9  11   6 51.7698  6.9544   1
  -2  -9   6 53.9582  5.2998   2
  -2  11  -6 62.2399  5.0828   1
  -9  11  -6 51.1224  6.5739   1
  -2  11   6 60.8977  5.5013   1
   2 -11   6 65.9422  7.0816   1
  -2  -9  -6 54.6454  5.6061   2
   9 -11  -6 59.6766  7.5673   1
 -11   9   6 63.8481  7.2752   1
  11  -9   6 46.2638  6.7685   1
   2 -11   6 61.7352  6.5723   2
 -11   1   6 155.773   8.295   2
   1 -11  -6 153.082   9.714   2
  11 -10  -6 153.852  10.372   1
  -1 -10   6 149.571   9.105   2
  10 -11   6 152.315  10.968   1
 -10  11   6 147.860  10.876   1
 -11  10  -6 153.988  10.387   1
 -10  11  -6 143.665  10.200   1
   1 -11   6 161.766   9.845   2
 -11  10   6 163.983  10.942   1
  11 -10   6 153.680  10.602   1
  -1 -10  -6 147.245   9.086   2
  10 -11  -6 144.388  10.892   1
  -1  11   6 147.638   7.954   1
  11 -11  -6 53.0690  7.4283   1
 -11  11   6 62.1804  7.5098   1
 -11   0   6 48.2188  4.6393   2
   0 -11  -6 53.6972  6.0849   2
  11 -11   6 55.6619  7.5337   1
   0 -11   6 55.6098  6.3232   2
 -11  11  -6 62.2136  7.1687   1
   6 -12   6 145.241  11.047   1
 -12   6   6 139.376   9.672   1
 -12   6   6 140.257   9.543   2
  12  -6  -6 135.247   8.352   1
  12  -6   6 128.173   8.505   1
   6 -12  -6 151.117  10.865   1
  -6  12  -6 125.204   9.182   1
  -6  12   6 118.034   9.325   1
   7 -12   6 322.108  16.335   1
   5 -12  -6 322.464  16.097   1
  12  -7  -6 311.221  14.509   1
  12  -5   6 297.163  13.474   1
  -7  12   6 306.442  15.262   1
 -12   5   6 323.227  14.910   2
  -5  12  -6 291.378  14.593   1
  -7  12  -6 289.378  14.887   1
   7 -12  -6 319.687  16.099   1
   5 -12   6 295.683  16.056   1
  -5  12   6 286.000  14.806   1
 -12   7   6 299.413  15.352   1
   5 -12   6 312.413  15.579   2
  12  -7   6 317.217  14.662   1
 -12   5  -6 318.646  14.645   2
  12  -5  -6 323.186  13.456   1
  -4  -8   6 112.696   6.587   2
   4 -12  -6 104.508   8.367   2
  -8  12   6 124.167   9.489   1
   8 -12   6 126.867   9.738   1
  -4  12  -6 114.588   7.917   1
 -12   4   6 110.130   8.339   2
  12  -8  -6 120.415   8.733   1
   4 -12  -6 119.424   9.305   1
  -4  -8   6 102.260   6.640   2
  12  -8   6 106.470   8.208   1
  -4  12   6 105.763   8.231   1
  -4  -8  -6 99.5246  6.9543   2
 -12   8   6 123.153   9.492   1
  -8  12  -6 100.993   8.431   1
   8 -12  -6 116.082   9.546   1
   4 -12   6 122.535   9.263   1
   4 -12   6 117.504   8.816   2
 -12   4  -6 101.972   8.210   2
  -3  -9   6 24.9584  4.4803   2
   3 -12  -6 32.9520  6.1752   2
 -12   3   6 30.7274  5.1794   2
  -9  12   6 41.1470  6.7671   1
  -3  12  -6 32.2128  4.7687   1
 -12   9  -6 31.9397  6.0442   1
  12  -9  -6 30.5933  5.9683   1
   9 -12   6 27.3227  7.1975   1
   3 -12  -6 33.6579  6.7656   1
  -9  12  -6 26.1082  6.0202   1
  -3  12   6 32.6731  5.1281   1
  -3  -9  -6 29.8983  4.7793   2
  12  -9   6 26.8249  6.1365   1
   3 -12   6 44.3524  6.4978   2
   9 -12  -6 29.7732  7.0093   1
 -12   9   6 41.3326  6.6444   1
   3 -12   6 43.5467  6.8058   1
  12 -10  -6 12.9389  5.7533   1
   2 -12  -6 8.37605 5.67310   2
 -12  10  -6 9.32031 5.65972   1
 -10  12   6 14.7109  6.2538   1
 -12   2   6 12.4901  4.5045   2
  10 -12   6 20.9132  6.8486   1
  -2  12  -6 10.6172  3.5789   1
  -2 -10   6 19.7636  4.7085   2
  10 -12  -6 13.5459  6.5518   1
  -2  12   6 8.62683 4.14436   1
 -10  12  -6 13.9263  5.8657   1
  12 -10   6 17.2958  6.1035   1
   2 -12   6 10.1605  5.7700   2
 -12  10   6 7.35331 6.06170   1
  -2 -10  -6 10.2830  4.8170   2
  12 -11  -6 15.8951  6.2687   1
  -1 -11   6 32.9843  5.6308   2
 -11  12   6 31.1742  7.1204   1
 -12   1   6 24.5379  4.5334   2
  11 -12   6 22.6320  7.0481   1
 -12  11  -6 27.2946  6.2430   1
   1 -12  -6 34.9083  5.9929   2
 -11  12  -6 28.9972  6.4301   1
  11 -12  -6 23.2790  6.8361   1
  -1 -11  -6 33.5048  5.5330   2
   1 -12   6 32.1006  6.1731   2
 -12  11   6 24.4834  6.7437   1
  12 -11   6 27.6421  6.6677   1
   0 -12   6 113.250   9.195   2
 -12  12  -6 125.994   9.672   1
   0 -12  -6 122.732   9.083   2
  12 -12  -6 132.141  10.152   1
  12 -12   6 124.831   9.955   1
 -12  12   6 125.189  10.021   1
 -12   0   6 115.437   7.382   2
  13  -6   6 6.12974 4.11211   1
   6 -13  -6 17.9700  6.7699   1
  13  -7  -6 6.44163 4.41623   1
   7 -13   6 -3.0136  6.5966   1
  -7  13   6 3.77868 5.53939   1
  -6  13  -6 5.03710 5.11670   1
   7 -13  -6 8.49477 6.62300   1
  13  -6  -6 12.1575  3.9485   1
   6 -13   6 10.0066  6.7650   1
 -13   7   6 0.92816 5.30406   1
  -6  13   6 4.27861 5.50619   1
  -7  13  -6 11.3840  5.5424   1
  13  -7   6 11.6788  4.9761   1
  -5  13  -6 4.36343 4.85468   1
   5 -13  -6 3.71310 6.40682   1
  13  -8  -6 12.6347  4.9441   1
 -13   8  -6 4.90935 5.13481   1
  13  -5   6 6.81003 3.11041   1
 -13   5   6 8.41380 5.13852   2
   8 -13   6 8.82145 6.85337   1
  -8  13   6 -7.9929  5.5356   1
   8 -13  -6 -5.3304  6.4257   1
  -5  -8  -6 6.33339 3.85819   2
  -8  13  -6 7.92954 5.41443   1
  -5  13   6 1.38493 4.94073   1
   5 -13   6 3.75397 6.42087   1
  13  -8   6 -1.5082  5.1573   1
 -13   8   6 8.25716 5.69277   1
  -4  13  -6 8.74816 4.69720   1
   4 -13  -6 4.82636 6.45073   1
  13  -9  -6 10.8712  5.4141   1
 -13   4   6 5.25980 4.97095   2
  -9  13   6 3.26617 6.07386   1
  -4  -9   6 9.90264 3.94655   2
 -13   9  -6 6.86922 5.52943   1
   9 -13   6 0.56573 6.73351   1
 -13   9   6 6.34902 5.83487   1
   4 -13   6 0.92645 6.47365   1
  -9  13  -6 12.8678  5.6079   1
   9 -13  -6 10.8342  6.7350   1
 -13   4  -6 6.10135 4.94638   2
  13  -9   6 11.1075  5.7826   1
  -4  13   6 12.1514  4.9425   1
  -4  -9  -6 7.93240 4.26577   2
  -3 -10   6 79.7674  6.1366   2
 -10  13   6 85.6763  8.6741   1
  -3  13  -6 61.6061  5.6969   1
 -13  10  -6 87.6830  8.1751   1
   3 -13  -6 74.3069  7.6796   2
  13 -10  -6 80.9597  7.8022   1
 -13   3   6 77.2356  6.7115   2
  10 -13   6 81.3274  9.0527   1
  -3 -10  -6 84.9524  6.5626   2
  13 -10   6 90.2571  8.0237   1
   3 -13   6 74.5345  8.0035   2
 -13  10   6 78.4778  8.4065   1
  -3  13   6 64.5786  6.1712   1
 -13   3  -6 80.5307  6.7908   2
 -10  13  -6 79.4640  8.0728   1
  10 -13  -6 91.4194  9.2000   1
  11 -13   6 2.83526 6.71449   1
 -11  13   6 1.94223 6.26610   1
  -2 -11   6 10.3032  4.9676   2
   2 -13  -6 5.49985 5.77677   2
  13 -11  -6 1.13207 5.63052   1
 -13  11  -6 9.68307 5.87296   1
 -13   2   6 7.56518 4.62136   2
  -2  13   6 -2.5314  3.6024   1
  -2 -11  -6 -2.9972  4.9229   2
  11 -13  -6 3.72784 6.68057   1
   2 -13   6 0.48975 5.83957   2
 -13  11   6 1.62929 6.27141   1
  13 -11   6 11.4039  6.2512   1
 -11  13  -6 4.99648 5.72305   1
 -13  12  -6 1.11852 5.95140   1
 -12  13   6 13.0075  6.8357   1
  12 -13   6 -0.9124  6.5509   1
 -13   1   6 8.10442 4.47580   2
  -1 -12   6 7.02448 5.39592   2
   1 -13  -6 0.74502 5.73965   2
  13 -12  -6 5.41461 6.26477   1
 -12  13  -6 -1.3914  5.7357   1
  13 -12   6 -1.5267  6.3862   1
 -13  12   6 22.4910  7.1466   1
  -1 -12  -6 2.58595 5.25440   2
   1 -13   6 5.18969 5.99069   2
 -12  -1   6 6.25713 3.66417   2
  12 -13  -6 12.3312  6.9224   1
 -13  13   6 25.0868  7.3678   1
   0 -13   6 10.6772  6.1439   2
  13 -13  -6 17.8566  6.9528   1
 -13   0   6 13.9580  4.3350   2
 -13  13  -6 1.53238 6.18211   1
   0 -13  -6 20.4650  6.1384   2
  13 -13   6 13.7881  7.0698   1
  14  -7  -6 138.941   8.383   1
  -7  14  -6 135.162   9.692   1
  -7  14   6 120.782   9.852   1
  14  -7   6 125.948   8.384   1
   7 -14   6 143.862  11.012   1
   7 -14  -6 124.917  10.827   1
  14  -6   6 28.7097  3.9799   1
   6 -14  -6 44.6301  7.9030   1
  14  -8  -6 25.1252  5.1320   1
  -6  14  -6 30.2157  5.9599   1
  -8  14   6 25.0256  6.6467   1
   8 -14   6 26.1243  7.8099   1
   6 -14   6 27.3120  7.4170   1
  14  -8   6 29.2072  5.7657   1
  -8  14  -6 34.1024  6.5165   1
   8 -14  -6 36.2096  7.9144   1
  -6  -8  -6 28.8850  4.2254   2
  -6  14   6 14.8338  5.8141   1
  -5  -9   6 32.6589  4.1590   2
  14  -9  -6 23.0189  5.7044   1
 -14   9  -6 24.8408  6.1698   1
  -5  14  -6 21.7914  5.3803   1
  -9  14   6 22.0942  6.7223   1
   9 -14   6 39.1815  7.9964   1
  -5  14   6 20.1086  5.6569   1
  -5  -9  -6 25.5722  4.6361   2
  -9  14  -6 16.8147  6.2778   1
   9 -14  -6 34.7870  7.8097   1
  14  -9   6 26.9722  6.0351   1
 -14   9   6 23.5202  6.5210   1
  14 -10  -6 58.5449  6.8815   1
  10 -14   6 55.3412  8.6469   1
 -10  14   6 30.4483  7.4490   1
 -14  10  -6 56.7715  7.3651   1
  -4  14  -6 40.0776  5.4129   1
  -4 -10   6 42.2707  5.0862   2
  14 -10   6 43.3652  6.8992   1
  -4  14   6 48.0898  5.8852   1
  10 -14  -6 41.9131  8.1880   1
 -10  14  -6 55.5075  7.3736   1
  -4 -10  -6 47.7991  5.6671   2
 -14  10   6 44.7585  7.5068   1
 -14  11  -6 64.6297  7.9966   1
  -3 -11   6 81.5172  6.5946   2
  -3  14  -6 74.2558  5.4452   1
  11 -14   6 76.9288  9.2122   1
 -14   3   6 63.9181  6.7296   2
 -11  14   6 84.3294  9.1279   1
  14 -11  -6 78.6131  8.1862   1
  11 -14  -6 74.0887  9.2396   1
 -14  11   6 89.3475  8.9895   1
 -14   3  -6 77.0455  7.0490   2
 -11  14  -6 57.4451  7.8864   1
  -3  14   6 72.6486  6.1000   1
  -3 -11  -6 80.8950  6.9514   2
  14 -11   6 72.9341  8.0532   1
 -14  12  -6 61.6094  8.0243   1
  12 -14   6 52.3351  8.6678   1
 -14   2   6 59.6183  6.2612   2
 -12  14   6 54.3208  8.4307   1
  -2 -12   6 50.1393  6.5522   2
  14 -12  -6 69.3553  8.0561   1
 -14  12   6 63.8588  8.4842   1
 -14   2  -6 55.7075  6.3962   2
 -12  14  -6 57.4560  7.6611   1
  12 -14  -6 51.8280  8.7935   1
  -2 -12  -6 45.5975  6.3757   2
  14 -12   6 46.3750  7.6152   1
 -14   1   6 32.3805  5.3860   2
  14 -13  -6 34.7554  7.6127   1
  -1 -13   6 37.6955  6.7443   2
  13 -14   6 42.8272  8.4818   1
 -13  14   6 21.3149  7.7083   1
 -14  13  -6 40.4433  7.4718   1
 -14  13   6 39.7437  8.1001   1
  14 -13   6 22.8320  7.3163   1
 -13  14  -6 39.8916  7.4491   1
  13 -14  -6 27.1282  7.9798   1
  -1 -13  -6 19.2570  6.2819   2
 -13  -1   6 29.9520  4.6234   2
   1 -14   6 36.3013  7.2346   2
 -14  14   6 161.774  12.085   1
 -14   0   6 127.815   8.890   2
   0 -14   6 136.542  10.254   2
 -14  14  -6 146.636  11.513   1
   0 -14  -6 126.188  10.065   2
   7 -15  -6 45.4764  8.5095   1
  15  -7   6 27.6052  4.4141   1
  -8  15   6 38.9100  6.8545   1
  -7  15  -6 23.2823  6.1009   1
   8 -15   6 18.3137  8.1086   1
  15  -8  -6 32.3097  5.0781   1
   7 -15   6 23.5086  8.2480   1
  -7  15   6 28.5453  6.7145   1
  -8  15  -6 33.5959  6.6075   1
   8 -15  -6 27.8884  8.2146   1
  15  -8   6 30.4499  5.3643   1
   9 -15   6 28.5574  8.3742   1
  15  -9  -6 41.6668  5.8024   1
  -6  15  -6 41.5159  6.2332   1
  -9  15   6 35.9396  7.2109   1
   9 -15  -6 33.8239  8.5138   1
  -6  15   6 27.3274  6.3485   1
  -9  15  -6 42.0815  6.9870   1
  -6  -9  -6 24.8710  4.8435   2
  15  -9   6 29.8033  6.1185   1
  10 -15   6 35.3354  8.6187   1
  -5 -10   6 34.4713  4.8966   2
  -5  15  -6 48.3248  5.9490   1
 -10  15   6 42.1761  7.8912   1
  15 -10  -6 48.9735  6.6147   1
 -10  15  -6 58.0484  7.6636   1
  -5  15   6 28.6696  6.0482   1
  15 -10   6 48.6767  7.0326   1
  10 -15  -6 39.1627  8.6534   1
  -5 -10  -6 27.3531  5.3983   2
 -15  11  -6 261.984  14.625   1
  11 -15   6 252.546  15.488   1
  15 -11  -6 257.938  13.997   1
 -11  15   6 240.492  14.846   1
  -4  15  -6 227.085  11.622   1
  -4 -11   6 218.817  11.913   2
  -4 -11  -6 232.808  12.220   2
 -15  11   6 250.071  14.936   1
  11 -15  -6 243.634  15.615   1
  15 -11   6 233.162  13.821   1
  -4  15   6 222.120  12.150   1
 -11  15  -6 247.587  14.487   1
  15 -12  -6 66.1298  8.3401   1
 -12  15   6 82.9302  9.4450   1
  -3 -12   6 59.6197  6.9906   2
  12 -15   6 77.4651  9.7752   1
 -15  12  -6 79.6347  8.9540   1
  15 -12   6 60.6262  8.2784   1
 -15  12   6 82.3025  9.4127   1
 -12  15  -6 77.5377  9.0494   1
  12 -15  -6 77.7278  9.8714   1
  -3 -12  -6 56.3644  6.9266   2
  -2 -13   6 11.0938  6.1981   2
 -13  15   6 16.0546  7.8381   1
 -15  13  -6 18.1291  7.0256   1
  13 -15   6 26.9553  8.4873   1
 -13  15  -6 20.2132  7.3713   1
 -15  13   6 25.4264  7.9593   1
  13 -15  -6 23.1482  8.0828   1
  -2 -13  -6 10.8948  6.0268   2
   8 -16   6 38.8915  9.0842   1
  -8  16   6 53.7589  7.7285   1
  -8  16  -6 44.4533  7.2488   1
   8 -16  -6 37.0569  9.0146   1
  -7  16  -6 9.35169 5.97150   1
   9 -16   6 9.57776 8.36447   1
  16  -9  -6 0.45196 4.63350   1
  -9  16   6 9.42717 6.77551   1
  16  -9   6 -3.0716  5.0698   1
  -7  -9  -6 -2.2397  4.3031   2
  -7  16   6 7.03396 6.11971   1
   9 -16  -6 15.2408  8.1549   1
  -9  16  -6 -0.8374  6.0367   1
  -6  16  -6 10.0935  5.5403   1
  -6 -10   6 2.84362 4.26094   2
  10 -16   6 3.56894 8.27007   1
  16 -10  -6 2.47173 5.18947   1
  10 -16  -6 6.26878 8.04830   1
  16 -10   6 0.56393 5.80499   1
  -6 -10  -6 7.69277 4.81518   2
  -6  16   6 -3.7859  5.5512   1
  -5  16  -6 39.5591  5.8738   1
  11 -16   6 45.1524  9.2894   1
  16 -11  -6 33.4741  6.8057   1
  -5 -11   6 35.9743  5.5666   2
  -5 -11  -6 29.3292  5.7492   2
  -5  16   6 29.9351  5.9109   1
  11 -16  -6 38.6460  9.2037   1
  16 -11   6 42.8706  7.2093   1
  12 -16   6 -18.702   7.569   1
  -4 -12   6 8.94438 5.49450   2
  -4 -12  -6 9.73618 5.57526   2
  12 -16  -6 1.92847 8.15255   1
   0   0   7 -1.2901  3.0289   1
   0   0   7 -2.2738  2.9179   2
   0   0   7 2.02996 3.29743   1
   0   0  -7 -0.9052  2.8362   2
   0   0  -7 -0.0141  2.9740   1
   0  -1  -7 429.711  18.305   1
   0   1  -7 442.848  17.860   2
  -1   1  -7 461.505  17.979   2
   0   1   7 460.624  18.072   2
  -1   0   7 448.690  17.984   2
   1   0  -7 460.595  17.857   2
  -1   0  -7 439.788  18.291   1
   1  -1  -7 440.176  18.269   1
   1  -1  -7 462.066  18.207   1
   0   1   7 429.331  18.308   1
   0  -1  -7 464.321  18.305   1
  -1   1   7 451.335  18.045   2
   1   0  -7 446.829  18.076   1
   0   1   7 416.726  18.336   1
  -1   0   7 449.362  18.358   1
  -1   1   7 463.725  18.315   1
   1  -1   7 439.786  18.320   1
  -1   0   7 455.471  18.356   1
   1   0   7 433.137  18.338   1
  -1   1  -7 461.971  18.263   1
   0  -1  -7 456.629  17.981   2
   0   1  -7 461.456  18.254   1
   1   0   7 425.055  18.160   1
  -1   0  -7 435.358  17.949   2
   0  -1   7 447.930  18.306   1
  -1   1   7 453.853  18.476   1
   1  -1  -7 448.808  17.893   2
  -1   2  -7 2.35213 2.83509   1
  -1  -1  -7 2.31410 2.86228   1
   2  -1   7 1.06927 3.25760   1
  -2   1   7 -0.0977  3.1335   1
   1  -2   7 -2.0826  3.1675   1
   1  -2  -7 -0.7654  2.7485   1
   2  -1  -7 -1.4447  2.7721   1
  -1  -1   7 -5.7587  2.9838   1
  -1   2   7 -1.7803  3.2525   1
  -1   2   7 -4.0122  2.8804   2
  -2   1   7 1.36339 3.14806   1
  -1  -1  -7 -0.6114  3.0799   1
   1   1  -7 -0.6663  2.5144   2
  -1  -1   7 0.49159 2.91845   2
   1   1   7 -1.0351  2.9095   1
  -2   1  -7 0.98950 2.68099   1
  -1   2  -7 -1.5662  2.6498   2
   1   1  -7 -0.7869  2.5587   1
   2  -1  -7 -1.3528  3.0332   1
   2  -1   7 -0.7471  2.9878   1
  -1  -1  -7 2.90887 2.88600   2
  -2   1   7 -0.5342  2.8748   2
  -1   2   7 1.17570 3.14523   1
   1   1   7 1.08332 3.10336   1
   1  -2  -7 -2.4053  2.8008   2
   2  -1  -7 -4.3500  2.4765   2
   1  -2  -7 0.80658 3.14572   1
   0   2  -7 4.09954 2.70845   2
  -2   0   7 0.51579 2.93936   2
   0   2   7 -1.0458  3.1975   1
   2  -2   7 9.57870 3.32372   1
   0  -2   7 3.10065 2.99864   2
  -2   0   7 2.27575 2.98005   1
   0  -2  -7 7.15183 3.23352   1
   2   0   7 6.23945 3.17685   1
   0  -2   7 6.96696 3.28466   1
  -2   0  -7 1.90821 2.64404   1
  -2   2  -7 5.62158 2.81222   1
   0  -2  -7 7.42560 3.02484   2
  -2   2   7 -0.8773  3.2891   1
   2   0  -7 8.25011 2.72963   1
  -2   2   7 4.70220 3.41494   1
   2  -2  -7 1.28137 3.07944   1
   2  -2  -7 1.49566 2.86005   2
   2  -2  -7 5.48035 3.00353   1
  -2   2   7 7.07906 3.03714   2
   2   0  -7 2.80978 2.45551   2
  -2   0   7 6.19255 3.10119   1
   0   2   7 2.96617 3.07840   1
   0   2  -7 -0.0799  2.8007   1
   0   2   7 2.38079 2.75943   2
   2   0   7 -0.7424  2.9188   1
   0  -2  -7 3.49238 2.82754   1
   0   2  -7 1.12415 2.47663   2
  -3   1   7 108.850   6.948   1
  -2  -1  -7 121.607   6.620   1
   1  -3  -7 94.2841  6.7088   1
  -1  -2   7 110.535   6.713   1
   3  -2  -7 106.584   6.749   1
   2   1  -7 106.654   5.394   2
  -2   3   7 108.427   6.788   1
  -1   3  -7 105.416   6.083   2
   2   1  -7 100.100   5.392   2
  -2  -1  -7 101.189   6.683   1
  -2   3   7 108.795   6.601   2
   1   2   7 103.448   6.536   1
  -1  -2   7 110.077   6.285   2
   1   2   7 105.472   6.647   1
   3  -2  -7 111.714   6.653   1
   1  -3  -7 109.731   6.429   2
  -3   1   7 116.684   6.850   1
  -1   3  -7 111.832   6.305   2
   2   1  -7 112.773   6.126   1
   3  -2  -7 109.742   6.248   2
  -3   2  -7 112.817   6.560   1
  -2   3   7 103.879   7.132   1
  -1   3  -7 105.842   6.721   1
   2  -3   7 119.922   6.915   1
   1  -3  -7 118.860   6.916   1
  -3   1   7 102.375   6.370   2
   3  -1   7 103.949   6.677   1
   3  -1   7 106.176   6.508   1
   1   2  -7 112.278   5.599   2
   2  -3  -7 101.641   7.022   1
  -1   3   7 114.130   7.061   1
   2  -3  -7 121.021   6.726   1
  -2  -1   7 114.525   6.598   1
  -2  -1   7 113.825   6.232   2
  -1   3   7 105.427   6.366   2
   1   2  -7 103.341   5.463   2
  -2   3  -7 106.391   6.330   2
  -3   2   7 107.536   6.491   2
   3  -2   7 105.480   6.842   1
  -1  -2  -7 100.100   6.562   1
   2   1   7 109.364   6.645   1
  -1   3   7 100.922   6.702   1
  -3   2   7 114.343   6.958   1
   3  -1  -7 108.492   6.626   1
  -1  -2  -7 109.067   6.363   2
  -1  -2  -7 119.451   6.788   1
   1  -3   7 106.995   6.953   1
  -3   1  -7 106.798   6.479   1
  -2   3  -7 130.338   6.801   1
   2   1   7 109.122   6.442   1
   3  -1  -7 116.410   6.453   1
  -3   2   7 110.299   7.165   1
   3  -1  -7 103.339   5.866   2
   2  -3  -7 115.185   6.317   2
   1   2  -7 119.652   6.238   1
   0   3  -7 196.825   8.682   2
   0   3   7 192.860   9.486   1
  -3   0  -7 200.508   9.236   1
   0   3   7 181.263   9.358   1
   3  -3  -7 196.880   9.695   1
  -3   3  -7 188.976   9.133   2
   3  -3  -7 207.775   9.617   1
   0  -3  -7 193.040   9.503   1
   3  -3   7 194.217   9.714   1
  -3   3   7 201.486   9.466   2
   0  -3   7 184.158   9.488   1
   3   0   7 192.630   9.147   1
   3   0   7 191.067   9.345   1
   0  -3  -7 193.324   9.153   2
   0   3  -7 194.462   8.657   2
   0   3  -7 207.786   9.358   1
   0  -3  -7 196.579   9.405   1
  -3   3   7 205.043   9.818   1
  -3   3  -7 199.580   9.534   1
   3  -3  -7 190.276   9.144   2
  -3   3   7 201.130   9.650   1
  -2  -2  -7 -0.6515  2.8525   1
   2  -4  -7 4.93027 3.65815   1
  -4   2   7 -1.4345  3.3978   1
   2   2   7 -2.0368  2.9247   1
  -2  -2   7 -1.5675  3.0047   1
   4  -2  -7 1.77355 3.10960   1
  -2   4  -7 2.50675 2.91935   1
  -4   2   7 0.12012 3.34028   1
   2  -4  -7 3.89369 3.18399   2
   2  -4   7 2.95043 3.58372   1
  -2   4   7 2.55479 3.53756   1
  -4   2  -7 -4.4159  2.8063   1
  -4   2   7 -0.4952  3.1625   2
  -2   4  -7 -2.9601  2.9139   2
   4  -2   7 2.36739 3.24920   1
   4  -2  -7 3.68637 2.59996   2
   2   2   7 1.31258 2.92378   1
  -2  -2   7 -0.6258  2.8820   2
   2  -4  -7 -3.8239  2.9239   1
  -2  -2  -7 -3.7298  3.0508   1
   4  -2  -7 -4.1122  2.6954   1
  -2   4   7 -0.9548  3.3929   1
  -2   4  -7 0.31081 2.76684   2
  -2   4   7 -2.3587  3.2183   2
   2   2  -7 0.24769 2.43088   1
  -4   1   7 15.4206  3.3678   2
   3  -4   7 21.1494  4.0409   1
  -3   4   7 16.9381  3.5952   2
  -3   4   7 12.4965  3.8382   1
  -1  -3   7 15.8258  3.4524   2
   1   3   7 18.3676  3.3338   1
   4  -3  -7 18.0411  3.1862   2
  -1   4  -7 17.8862  3.0079   2
   4  -3  -7 20.9953  3.4438   1
  -1   4  -7 17.6840  3.0226   2
   1   3   7 23.0137  3.4872   1
  -4   1   7 19.7545  3.6125   1
   1  -4  -7 14.3325  3.9124   1
  -1   4  -7 12.2571  3.1259   1
  -3  -1  -7 14.8739  3.1017   1
  -3  -1  -7 19.9560  3.6008   1
  -1  -3   7 18.4473  3.5505   1
   3   1  -7 13.6613  2.6667   1
   4  -1   7 11.9259  3.3262   1
  -4   3  -7 19.3582  3.4574   1
  -4   1   7 16.0854  3.6165   1
  -3   4   7 23.2573  4.0642   1
   1  -4  -7 20.8381  3.5008   1
   4  -3  -7 21.6523  3.7261   1
   4  -1   7 17.6427  3.6353   1
   1  -4  -7 16.7093  3.5037   2
  -1  -3  -7 15.3339  3.5957   1
  -1  -3  -7 17.6380  3.2800   1
  -4   1  -7 17.4946  3.1060   1
   4  -3   7 20.1749  3.8754   1
  -1   4   7 18.9790  3.6996   1
  -4   3   7 21.0910  4.0038   1
   1   3  -7 13.8106  2.0350   2
   3  -4  -7 16.2720  3.9177   1
  -3  -1   7 17.0476  3.4161   1
  -4   3   7 16.2038  3.5266   2
   3   1   7 14.7003  3.2688   1
   1  -4   7 12.2786  3.7146   1
  -4   3   7 19.2180  3.8864   1
  -3   4  -7 20.1977  3.4377   2
  -1   4   7 18.5306  3.3853   2
   1   3  -7 20.1917  2.9216   1
  -3  -1   7 16.4396  3.2966   1
   1   3  -7 18.1196  2.0281   2
  -3  -1   7 10.7666  3.1521   2
  -1   4   7 18.1515  3.5667   1
  -1  -3  -7 18.0469  3.3744   2
   4  -1  -7 24.3187  3.0928   1
  -3   4  -7 18.2768  3.4557   1
   3  -4  -7 23.3773  3.6611   1
   3   1   7 12.9280  3.0177   1
   4  -1  -7 19.1557  2.5266   2
   3  -4  -7 15.6981  3.3661   2
   0  -4   7 325.483  14.450   2
   4  -4  -7 360.978  14.652   2
   4  -4  -7 386.420  15.145   1
   0  -4  -7 332.326  14.896   1
  -4   4   7 354.446  14.837   2
  -4   0   7 363.828  14.709   1
  -4   4  -7 372.848  15.116   1
   4   0   7 339.636  14.472   1
  -4   0   7 339.835  14.297   2
  -4   4  -7 332.483  14.660   2
  -4   4   7 346.086  15.230   1
   0   4  -7 343.155  13.867   2
   0  -4  -7 335.551  14.495   2
   0   4   7 351.543  14.736   1
   4   0  -7 365.368  14.199   1
   0   4   7 343.277  14.692   1
   4   0   7 328.340  14.451   1
   0  -4   7 346.403  14.939   1
   0   4  -7 347.962  14.560   1
   4  -4  -7 326.451  15.093   1
  -4   4   7 364.391  15.343   1
   4  -4   7 346.788  15.213   1
   0   4  -7 340.827  13.842   2
  -2   5  -7 19.8179  3.5700   1
  -2  -3   7 23.7374  3.3327   2
  -3   5   7 20.4390  4.1289   1
   5  -3  -7 22.2649  3.4860   1
   5  -2   7 14.2987  3.6249   1
   2   3   7 22.4288  3.1585   1
  -2   5  -7 20.8838  3.3844   2
  -3   5   7 22.7799  3.8440   2
  -2   5  -7 18.2872  3.3939   2
   3  -5   7 28.3952  4.3958   1
   5  -3  -7 22.8055  3.2545   2
   5  -3  -7 24.4890  3.8760   1
  -3  -2  -7 18.2666  3.5207   1
   2   3   7 14.1029  2.9295   1
  -2  -3   7 22.9583  3.5438   1
   3   2  -7 19.8452  2.4700   1
  -2  -3   7 18.3579  3.1990   2
  -3   5   7 23.6613  4.2725   1
  -5   2   7 22.6178  3.9509   1
  -5   2   7 24.2323  3.6560   2
   2  -5  -7 24.4628  3.7909   2
   2  -5  -7 20.2088  4.1699   1
   3   2   7 19.4265  2.9679   1
   5  -2  -7 18.6929  3.5144   1
  -2   5   7 20.5533  3.9047   1
   2  -5   7 23.3792  4.0671   2
  -2  -3  -7 17.8938  3.5838   1
  -3  -2   7 19.4522  3.3753   1
  -3   5  -7 22.6812  3.6955   1
   3  -5  -7 15.0359  4.1370   1
   3  -5  -7 19.6532  3.6990   2
  -3  -2   7 16.7703  3.1909   2
   5  -2  -7 20.2785  3.2557   1
  -2   5   7 27.9243  4.1573   1
  -2  -3  -7 22.5297  3.3103   2
  -5   3   7 17.7866  3.7281   2
   2  -5   7 26.2798  4.2963   1
   5  -2  -7 20.6133  2.7288   2
  -5   3   7 19.5708  4.0150   1
  -3   5  -7 23.9270  3.6527   2
  -2   5   7 22.1317  3.6015   2
   5  -3   7 26.4662  4.0067   1
   1   4   7 36.2541  3.7813   1
   4  -5   7 26.4548  4.6021   1
   5  -4  -7 32.7880  4.3538   1
  -5   1   7 38.7353  4.2116   1
  -1  -4   7 35.8229  4.2524   1
   5  -1   7 33.0376  3.9244   1
  -5   1   7 41.2087  3.9300   2
   1   4   7 37.4081  3.8109   1
  -1  -4   7 33.2235  3.9072   2
  -4   5   7 42.3225  4.8488   1
  -4   5   7 38.9119  4.3958   2
   5  -1   7 37.3432  3.8998   1
   1  -5  -7 29.8038  4.6003   1
   4   1  -7 33.9327  2.8761   1
  -4  -1  -7 35.9029  4.0543   1
   1  -5  -7 39.6772  4.2047   2
  -1   5  -7 32.6082  3.7181   1
  -1  -4   7 34.5518  3.8751   2
  -4   5   7 34.1250  4.7011   1
   5  -4  -7 41.2921  3.9384   2
   5  -4  -7 43.8948  4.3460   1
  -1   5  -7 32.9062  3.3600   2
  -4  -1   7 44.0459  3.6668   2
  -1   5   7 38.2826  3.6606   2
  -4   5  -7 36.0472  4.3833   1
  -5   4   7 41.2296  4.7202   1
   5  -1  -7 38.5017  3.4556   1
   1  -5   7 42.1698  4.7124   1
  -4   5  -7 39.0290  4.2337   2
  -1  -4  -7 29.7126  4.2152   1
   1  -5   7 35.8871  4.3110   2
   5  -4   7 32.0236  4.5282   1
   4  -5  -7 36.5437  4.6444   1
  -4  -1   7 42.5966  3.8872   1
   4  -5  -7 48.3573  4.5406   1
   4   1   7 40.6852  3.4987   1
   1   4  -7 36.7479  3.2614   1
   4  -5  -7 37.2624  4.1763   2
  -5   4   7 39.6171  4.2082   2
  -1   5   7 39.2747  4.2175   1
  -1  -4  -7 34.9329  3.9266   2
  -1   5   7 41.7320  4.2164   1
  -5   5  -7 45.6944  4.4423   2
   0  -5  -7 43.0764  4.3233   2
   5  -5   7 41.9718  4.9446   1
   0   5  -7 45.1725  3.9479   1
   0  -5  -7 44.1459  4.6789   1
   0  -5   7 37.4997  4.2778   2
   5   0  -7 37.6186  3.0918   1
   5  -5  -7 43.1031  4.9375   1
   5  -5  -7 45.7456  4.4167   2
  -5   0   7 41.4501  3.8357   2
   0   5   7 35.3615  4.1043   1
   0   5   7 42.7077  4.1228   1
   5   0   7 42.0916  3.7585   1
   5  -5  -7 47.2496  4.6398   1
  -5   5   7 47.5110  4.6614   2
  -5   0   7 37.0140  4.0389   1
  -5   5   7 35.0295  4.8411   1
   0  -5   7 39.5695  4.5203   1
   3  -6  -7 3.06768 3.52148   2
  -3   6   7 -2.3912  3.3097   2
  -3   6   7 -3.2725  3.5751   1
   3   3   7 1.34699 2.27916   1
  -3   6  -7 -1.0893  3.3004   1
   6  -3  -7 -2.8119  2.4608   2
  -3   6  -7 1.73101 3.35832   2
  -6   3   7 -1.1592  3.3986   2
   3  -6   7 -1.3613  3.9815   1
   6  -3  -7 -0.8989  2.9870   1
   6  -3  -7 -0.8706  3.2712   1
   3  -6  -7 1.45022 3.99798   1
  -3  -3   7 1.49851 3.06858   1
   3   3   7 2.38486 2.39006   1
  -6   3   7 4.87133 3.80169   1
  -3  -3   7 -3.4724  2.6443   2
  -3   6   7 6.16659 3.96164   1
  -3  -3  -7 -1.4127  3.1349   1
  -3  -3   7 -0.5299  2.8290   2
   3  -6   7 1.12308 3.90739   2
   6  -3   7 1.54334 3.50688   1
  -4   6   7 109.039   7.865   1
   2  -6  -7 116.154   7.947   1
   4  -6   7 128.732   8.050   2
  -4   6   7 109.973   7.934   1
   4  -6   7 127.005   8.137   1
  -4   6   7 128.567   7.905   2
  -2  -4   7 113.924   6.553   2
  -4  -2  -7 122.318   7.083   1
   2   4   7 118.187   6.290   1
   2  -6  -7 114.581   7.137   2
  -2   6  -7 128.087   6.862   2
   6  -4  -7 126.445   6.865   2
  -6   2   7 114.971   7.071   2
  -6   4  -7 111.061   7.238   2
   6  -2   7 121.458   7.351   1
  -6   2   7 126.507   7.571   1
  -2   6  -7 123.571   7.305   1
  -2  -4   7 115.839   6.575   2
   6  -4  -7 136.243   7.607   1
   2   4   7 121.148   6.292   1
  -2  -4   7 119.625   7.190   1
   6  -4  -7 110.834   7.607   1
   6  -2   7 114.584   7.155   1
  -6   4   7 118.198   7.458   2
  -4  -2   7 128.135   6.263   2
   2  -6   7 113.960   8.063   1
  -2  -4  -7 122.170   6.616   2
  -2   6   7 124.973   7.045   2
   4  -6  -7 118.762   7.601   2
  -2   6   7 122.623   7.461   1
   4   2   7 109.018   5.697   1
  -4  -2   7 120.100   6.845   1
  -2  -4  -7 106.921   7.071   1
   2  -6   7 107.551   7.717   2
  -4   6  -7 137.511   8.083   1
   4  -6  -7 108.525   8.083   1
   6  -2  -7 122.166   7.067   1
   4   2   7 116.456   5.999   1
  -2   6   7 116.139   7.887   1
  -4   6  -7 122.439   7.669   2
   6  -2  -7 115.950   6.735   1
   2   4  -7 110.047   5.844   1
  -6   4   7 116.701   7.894   1
   2   4  -7 116.868   5.789   1
   6  -4   7 126.302   7.786   1
   1   5   7 18.4316  2.7718   1
  -1   6  -7 17.4019  3.6905   1
  -1  -5   7 23.4689  3.7521   2
   6  -5  -7 24.6304  4.4092   1
  -1  -5   7 31.8276  4.1865   1
  -5   6   7 23.6941  4.7400   1
   6  -5  -7 18.2766  3.7557   2
   1  -6  -7 19.7511  3.9375   2
   1  -6  -7 23.7335  4.4733   1
  -6   1   7 28.8228  3.7182   2
   6  -1   7 23.4293  3.3835   1
  -1  -5   7 24.0788  3.8177   2
  -1   6  -7 25.0559  3.6160   1
   6  -5  -7 34.2699  4.4548   1
  -5   6   7 32.7073  4.5499   2
   6  -1   7 25.6185  3.5990   1
   1   5   7 29.0196  3.6228   1
  -6   1   7 21.7365  3.9185   1
   5  -6   7 22.5165  4.8029   1
  -5  -1   7 26.0253  3.2712   2
   6  -5   7 25.5756  4.6752   1
   1  -6   7 27.9204  4.5489   1
   5  -6  -7 25.8597  4.7718   1
   5  -6  -7 28.3499  4.2295   2
   1   5  -7 23.6424  2.9039   1
   5   1   7 23.7576  2.7782   1
  -5  -1   7 33.2193  3.7437   1
   5   1   7 27.1029  2.7881   1
   1   5  -7 20.0862  3.0969   1
   6  -1  -7 24.6749  2.5886   1
  -1  -5  -7 21.7242  3.8209   2
  -6   5   7 3.23105 3.26500   2
   1  -6   7 26.8661  4.2517   2
  -1   6   7 29.2061  4.0376   1
  -1   6   7 28.5752  4.0951   1
  -1  -5  -7 25.8993  4.2950   1
  -5   6  -7 25.3154  4.2507   2
  -6   5   7 18.0388  4.6303   1
   6  -6   7 2.80588 4.45630   1
  -6   6   7 3.50351 4.42115   1
   0  -6   7 -1.9176  3.7223   2
   6   0   7 2.91210 2.66176   1
   0  -6  -7 7.66375 3.73668   2
   0   6  -7 3.22447 3.09588   1
   0   6  -7 -1.7731  2.8397   1
   0   6   7 -1.9090  3.3543   1
   0  -6  -7 -5.1375  3.8347   1
  -6   6   7 -4.2542  3.9615   2
   6  -6  -7 -2.4976  3.8850   1
  -6   6  -7 6.34345 3.78987   2
   0  -6   7 0.56769 3.89634   1
   6   0   7 1.40248 2.64052   1
   6  -6  -7 -4.6445  3.6389   2
   0   6   7 2.38449 3.29627   1
   6  -6  -7 1.34768 4.21962   1
  -6   0   7 4.79469 3.18053   2
  -6   0   7 -4.3431  3.2684   1
  -3   7  -7 210.341  10.620   1
   3  -7  -7 204.858  11.152   1
   7  -3   7 200.602  10.379   1
  -3  -4   7 197.043   9.259   2
  -4   7   7 216.046  10.572   2
  -3  -4   7 195.367   9.228   2
  -4  -3  -7 204.725   9.890   1
  -7   4  -7 206.972  10.320   2
   4  -7   7 196.784  11.160   1
   7  -4  -7 215.030  10.338   1
  -4   7   7 218.337  11.324   1
   4  -7   7 208.880  11.028   2
  -4   7   7 210.704  10.880   1
   7  -4  -7 213.965  10.340   1
   3  -7  -7 202.642  10.336   2
  -7   3   7 212.124  10.193   2
  -3  -4   7 212.984   9.937   1
  -7   3   7 205.409  10.648   1
  -3   7   7 189.214  10.510   1
   7  -3  -7 206.439  10.058   1
   3  -7   7 212.905  10.918   2
  -7   4   7 206.731  10.437   2
  -4  -3   7 208.668   9.097   2
  -4  -3   7 225.834   9.876   1
   3  -7   7 199.157  10.989   1
  -4   7  -7 197.597  10.358   2
  -4   7  -7 208.444  10.768   1
  -3   7   7 201.167  10.930   1
  -7   4   7 218.885  10.880   1
  -4  -3   7 202.023   9.068   2
   7  -3  -7 203.191  10.109   1
   7  -4   7 201.294  10.625   1
   4  -7  -7 203.753  11.221   1
  -3  -4  -7 204.790  10.054   1
   4  -7  -7 213.961  10.618   2
   2   5   7 5.61892 2.60095   1
  -5   7   7 6.24668 4.19333   2
  -5  -2  -7 13.9852  3.6437   1
   7  -2   7 6.99629 3.54118   1
  -2   7  -7 10.2807  3.7685   1
  -2  -5   7 4.09999 3.67099   1
   7  -5  -7 8.89773 3.50522   2
   7  -5  -7 5.55082 4.06110   1
  -5   7   7 9.25096 4.48744   1
   5  -7   7 9.68289 4.58557   2
   2  -7  -7 10.3859  4.6078   1
   5  -7   7 16.5586  4.9156   1
  -7   5  -7 7.90425 4.05891   2
  -7   2   7 9.42860 3.95985   1
  -7   2   7 5.90357 3.68210   2
   7  -2   7 7.41757 3.62523   1
  -2   7  -7 6.99877 3.48691   1
  -2  -5   7 10.1927  3.3117   2
   7  -5  -7 11.9446  4.1182   1
   2  -7  -7 10.6700  4.0313   2
  -2  -5   7 8.34044 3.55969   2
   2   5   7 9.29991 2.53839   1
   2  -7   7 13.1287  4.6528   1
  -7   5   7 9.72472 4.40135   1
  -5   7  -7 7.90809 4.13918   2
   5  -7  -7 13.1218  4.1012   2
  -2  -5  -7 11.7557  3.6087   2
   2  -7   7 11.2990  4.4760   2
  -2   7   7 10.1237  4.0938   1
   5  -7  -7 11.0766  4.7863   1
  -5  -2   7 9.74983 2.89743   2
   7  -5   7 6.66034 4.27451   1
  -2   7   7 11.7624  4.0474   1
  -5  -2   7 4.68194 3.24981   1
  -7   5   7 8.83247 4.23078   2
  -2  -5  -7 10.7387  3.9430   1
  -6   7   7 15.0465  4.8781   1
   7  -6  -7 21.1879  4.5972   1
  -1   7  -7 16.9762  3.5793   1
  -7   6  -7 11.8407  4.2127   2
   7  -1   7 19.5421  3.3297   1
  -1  -6   7 20.1063  3.9951   2
  -1   7  -7 17.4321  3.7687   1
  -6   7   7 21.0952  4.6734   2
   1  -7  -7 11.3212  4.2321   2
  -7   1   7 17.3284  3.6929   2
   7  -6  -7 16.3193  4.7365   1
  -1  -6   7 28.6374  4.4815   1
   7  -1   7 18.4335  3.2305   1
   6  -7   7 17.5257  5.2634   1
  -7   1   7 17.4639  4.0215   1
   7  -6  -7 20.5719  4.1688   2
   1  -7  -7 22.3990  4.8536   1
   1   6   7 15.3277  3.4156   1
   1   6   7 18.3407  3.2402   1
  -1  -6  -7 12.2652  4.4746   1
   6  -7  -7 19.7057  4.3650   2
   7  -6   7 29.8863  5.0949   1
  -1   7   7 15.8573  4.1506   1
  -6  -1   7 18.0855  3.7427   1
  -7   6   7 14.7369  4.8871   1
   1  -7   7 26.6484  4.8414   1
   6  -7  -7 9.91897 4.93954   1
   1   6  -7 21.3116  2.7999   1
  -1  -6  -7 15.1048  4.0298   2
  -1   7   7 22.4222  4.1768   1
   1   6  -7 23.5311  2.7993   1
  -6  -1   7 12.8732  3.1807   2
   1  -7   7 21.2967  4.5845   2
  -6   7  -7 26.6361  4.6354   2
   0  -7   7 7.23122 4.57962   1
   0  -7   7 11.9706  4.3657   2
  -7   0   7 0.89652 3.64818   1
  -7   7  -7 15.0274  4.4762   2
   7  -7  -7 5.47919 4.13530   2
  -7   0   7 14.7269  3.5159   2
  -7   7   7 12.4754  5.1032   1
   7  -7  -7 12.0935  5.0214   1
   0   7  -7 8.17622 3.11763   1
   0   7   7 11.7443  2.8846   1
  -7   7   7 14.6946  4.7974   2
   7  -7   7 19.2627  5.3668   1
   0  -7  -7 7.81848 4.69786   1
   0  -7  -7 12.9982  4.3796   2
   0   7   7 21.3202  3.9675   1
  -4  -4   7 0.79673 2.88150   2
  -4   8  -7 3.13276 4.14265   1
   4  -8   7 0.24863 4.91459   2
   4  -8  -7 -0.2603  4.2836   2
  -4   8   7 -5.4699  4.3719   1
   4  -8  -7 -0.1541  4.9770   1
   8  -4  -7 1.16109 3.69835   1
  -8   4   7 0.58632 4.24473   1
   4  -8   7 -2.2840  4.8450   1
  -4  -4   7 8.28186 2.84102   2
   8  -4  -7 -0.9684  3.4345   1
  -8   4   7 -3.9739  4.2002   2
  -4  -4  -7 -1.6744  3.4897   1
   8  -4   7 7.38474 4.28398   1
  -8   4  -7 1.89546 4.18175   2
  -4   8   7 8.19252 4.50323   1
  -4   8  -7 -1.2730  4.0329   1
  -4  -4   7 3.07440 3.43393   1
  -3   8  -7 71.2460  5.6932   1
  -5   8   7 73.6088  6.2048   2
  -3  -5   7 76.9257  5.4256   2
  -3  -5   7 72.0689  5.4136   1
  -5  -3  -7 69.0389  5.1989   1
   5  -8   7 85.5351  7.1939   1
   8  -5  -7 79.6992  6.1007   1
   3  -8  -7 64.8618  6.5707   1
  -8   5  -7 74.5833  5.8977   2
  -5   8   7 63.9788  6.4644   1
   8  -5  -7 80.6106  5.8849   1
   5  -8   7 81.0947  6.7423   2
   8  -3   7 73.5698  5.6569   1
  -3   8  -7 81.5762  6.0647   1
   3  -8  -7 59.8229  5.8154   2
  -8   3   7 74.4131  6.0544   1
  -3  -5   7 69.0185  5.4121   2
  -8   3   7 68.4191  5.7193   2
  -3  -5  -7 74.6403  5.6263   1
  -8   5   7 83.0902  6.5791   1
   8  -3  -7 76.8027  5.7871   1
   3  -8   7 72.5321  6.6759   1
  -5  -3   7 56.1561  4.7546   2
  -3  -5  -7 69.9212  4.9764   2
  -8   5   7 71.3802  6.1632   2
   8  -3  -7 80.5288  5.4389   1
   5  -8  -7 73.8558  6.8854   1
  -3   8   7 77.3402  6.2478   1
   8  -5   7 76.2684  6.4593   1
  -5   8  -7 78.1028  6.4107   1
  -5  -3   7 82.4536  5.7948   1
  -3   8   7 81.0218  6.2495   1
  -5   8  -7 69.4747  6.1723   1
   3  -8   7 68.8211  6.4349   2
  -5   8  -7 75.0842  5.8494   2
   5  -8  -7 71.7512  6.1875   2
  -2  -6   7 3.85163 3.78427   2
  -8   2   7 13.2135  4.0220   1
   6  -8   7 11.4306  4.9754   2
  -6   8   7 13.8952  4.6745   2
  -2   8  -7 5.56875 3.64677   1
  -2   8  -7 12.3734  4.0579   1
   2  -8  -7 14.1238  5.0653   1
   8  -6  -7 0.84788 4.33553   1
  -2  -6   7 3.41226 3.51426   2
  -6  -2  -7 5.08220 3.60894   1
  -2  -6   7 1.69037 3.81953   1
   2  -8  -7 2.84077 4.18992   2
   6  -8   7 4.11563 5.24228   1
   8  -2   7 5.10076 3.56376   1
  -8   2   7 5.45319 3.89133   2
   8  -6  -7 7.53994 4.33079   1
  -8   6  -7 6.14247 4.21778   2
   8  -2   7 5.62620 3.36185   1
   8  -6  -7 4.91235 3.75993   2
  -6   8   7 6.97022 4.91572   1
  -2  -6  -7 4.38989 3.79077   2
   8  -6   7 -1.9158  4.6616   1
   6  -8  -7 -3.8824  4.9767   1
  -8   6   7 9.53813 4.61345   2
  -6  -2   7 8.10985 3.43139   1
  -2  -6  -7 1.95484 4.18817   1
   2  -8   7 6.98286 4.84515   1
  -2   8   7 2.02437 3.98897   1
  -6  -2   7 6.39670 2.77078   2
  -2   8   7 8.60251 4.29072   1
   2  -8   7 -1.5648  4.6399   2
  -6   8  -7 5.56117 4.23144   2
   6  -8  -7 4.00751 4.15928   2
  -8   6   7 4.57307 4.67245   1
   1  -8  -7 94.6132  7.4536   2
  -8   1   7 119.238   7.547   1
  -7   8   7 121.082   8.813   2
  -1  -7   7 96.0616  7.1764   2
  -1   8  -7 109.209   7.194   1
  -8   1   7 105.990   6.932   2
   1  -8  -7 114.376   8.521   1
   7  -8   7 117.294   9.226   1
   8  -7  -7 101.628   7.787   2
  -8   7  -7 118.336   8.387   2
  -1  -7   7 107.074   7.984   1
   1   7   7 99.8931  6.0557   1
   8  -7  -7 109.313   8.456   1
   1   7   7 112.226   6.164   1
  -7   8   7 111.181   8.047   1
  -1   8  -7 93.6689  6.7561   1
   1  -8   7 98.0822  7.6764   2
   1  -8   7 97.4787  7.4771   1
  -1  -7  -7 107.003   8.167   1
  -1   8   7 106.070   7.237   1
  -1   8   7 104.306   7.470   1
  -8   7   7 114.553   8.878   1
   8  -7   7 115.250   8.062   1
  -7   8  -7 96.6401  7.1489   2
  -1  -7  -7 107.489   7.213   2
   7  -8  -7 97.9740  7.8073   2
  -7  -1   7 99.9416  6.1105   2
   7  -8  -7 106.082   7.992   1
  -8   7   7 113.652   7.474   2
  -7  -1   7 115.238   7.048   1
  -8   8  -7 77.3245  6.7406   2
   0   8   7 75.2272  6.1764   1
  -8   0   7 72.1535  5.9577   2
  -8   8   7 87.7847  7.1028   2
   0   8  -7 81.5660  5.3330   1
   0  -8   7 89.1039  6.8804   1
   8  -8  -7 76.6804  7.2853   1
   8  -8   7 108.075   8.008   1
   0   8  -7 76.9238  5.5541   1
  -8   8   7 86.7193  7.4067   1
   0  -8  -7 83.5243  6.3576   2
   0  -8  -7 87.1576  6.9787   1
  -8   0   7 86.8236  5.9156   1
   0   8   7 87.6545  6.3548   1
   0  -8   7 81.2894  6.3107   2
   8  -8  -7 80.8782  6.5787   2
  -4  -5   7 53.4504  4.0898   2
   9  -5  -7 53.4830  5.3613   1
  -4   9  -7 48.2777  5.5944   1
  -9   4   7 47.0556  5.5112   2
   5  -9   7 50.9688  6.4819   2
  -9   5  -7 44.4509  5.4755   2
   9  -4   7 55.1086  5.4161   1
  -4   9  -7 50.9814  5.5876   1
  -5   9   7 41.7371  5.9634   1
  -4  -5   7 51.1959  4.7028   1
  -4  -5   7 52.0995  3.8682   2
  -9   4   7 42.9826  5.6822   1
   4  -9  -7 55.8966  6.0303   2
   9  -5  -7 51.9836  5.1991   1
   4  -9  -7 52.2909  6.5830   1
   5  -9   7 38.2346  6.5141   1
  -5  -4  -7 48.8591  4.7551   1
  -4   9   7 47.2696  6.0110   1
  -4  -5  -7 50.5856  5.0013   1
  -5   9  -7 49.5750  5.8220   1
  -5   9  -7 54.0378  5.8723   1
  -5  -4   7 51.5479  4.0669   2
  -9   5   7 53.7763  6.0251   1
   9  -5   7 54.6645  5.7550   1
  -9   4  -7 55.9685  5.6159   2
   9  -4  -7 54.2055  4.9924   1
  -4   9   7 42.7225  5.7163   1
   4  -9   7 45.3237  6.4355   1
   4  -9   7 44.8248  6.2093   2
   5  -9  -7 62.2360  6.7991   1
   5  -9  -7 54.0652  5.8530   2
  -9   5   7 47.0927  5.7264   2
  -5  -4   7 56.3501  4.7680   1
  -6   9   7 21.2718  5.1583   2
  -3   9  -7 13.0329  4.2299   1
  -3  -6   7 14.8183  3.5132   2
   6  -9   7 14.9741  5.8145   1
  -6   9   7 17.7792  5.2851   1
  -3  -6   7 15.3169  3.8400   2
   9  -6  -7 6.07921 4.55622   1
  -9   6  -7 22.2321  4.7499   2
   3  -9  -7 10.7322  4.7505   2
  -6  -3  -7 16.9868  3.8438   1
   3  -9  -7 17.0717  5.4175   1
  -9   3   7 13.1267  4.4591   1
  -3   9  -7 17.4697  4.5560   1
  -9   3   7 17.3103  4.5175   2
  -3  -6   7 24.7669  4.2726   1
   9  -6  -7 12.8371  4.3854   1
   6  -9   7 25.4065  5.7856   2
   9  -3   7 14.9122  3.9694   1
   3  -9   7 20.1200  5.5789   1
   3  -9   7 20.1438  5.3195   2
  -3   9   7 14.6423  4.8540   1
  -6  -3   7 22.1501  3.7648   1
   6  -9  -7 21.6100  5.8866   1
  -3  -6  -7 23.3091  4.5273   1
  -3   9   7 20.4943  4.8483   1
  -9   6   7 24.1467  5.3312   1
   9  -6   7 18.4306  5.2243   1
  -6   9  -7 24.6296  5.1561   1
  -9   6   7 21.9302  5.1485   2
   6  -9  -7 7.10475 4.57881   2
  -3  -6  -7 10.4859  3.9317   2
  -2   9  -7 73.8564  5.6543   1
   9  -7  -7 89.0716  6.7927   1
  -7   9   7 88.7985  7.2373   2
  -7   9   7 79.5321  7.2705   1
  -2  -7   7 77.8639  6.1994   1
   9  -2   7 74.4285  5.3602   1
  -2  -7   7 75.0680  5.5153   2
  -9   7  -7 84.3885  6.4960   2
   9  -7  -7 81.1791  6.9933   1
  -9   2   7 72.8176  5.8859   2
  -9   2   7 79.4425  6.2319   1
   7  -9   7 78.5488  7.7403   1
   9  -2   7 76.2486  5.1523   1
   7  -9   7 81.2490  7.2866   2
   2  -9  -7 67.5370  6.5199   2
  -2   9  -7 83.8237  6.5372   1
   2  -9  -7 83.4564  7.2513   1
  -2   9   7 71.8126  6.1497   1
  -2   9   7 68.4651  6.0671   1
  -7   9  -7 92.3740  7.0911   1
   7  -9  -7 90.7433  6.9196   2
  -9   7   7 75.5629  6.8004   2
  -7  -2   7 83.4378  5.5448   1
  -2  -7  -7 78.7804  6.4403   1
  -2  -7  -7 73.1111  5.7385   2
  -9   7   7 70.1052  7.0003   1
  -7   9  -7 81.5256  6.6822   2
   9  -7   7 77.1860  7.0141   1
   7  -9  -7 74.2255  7.4480   1
   2  -9   7 82.5417  7.2677   1
   2  -9   7 79.8134  6.8553   2
  -8   9   7 2.89814 5.41522   1
  -8   9   7 12.7192  5.3477   2
  -1  -8   7 1.47499 4.61406   1
  -9   8  -7 7.42144 4.79247   2
   9  -8  -7 3.88497 4.29775   2
   1  -9  -7 -1.1825  5.1399   1
  -9   1   7 -2.7557  3.9284   1
   1  -9  -7 0.00852 4.67948   2
  -1  -8   7 7.42288 4.25539   2
   8  -9   7 -0.1809  5.6971   1
  -1   9  -7 0.44020 3.41635   1
  -1   9  -7 3.38058 3.22043   1
  -9   1   7 0.95399 3.89799   2
   9  -8  -7 -3.0201  5.0550   1
  -8   9  -7 14.3744  4.9991   2
   1  -9   7 0.60295 5.07125   1
   8  -9  -7 8.30058 4.86385   2
  -1   9   7 -0.5165  4.0259   1
  -1   9   7 3.60892 3.31780   1
  -1  -8  -7 -4.8880  4.3411   2
  -9   8   7 9.09022 5.06291   2
  -9   8   7 3.27774 5.36430   1
  -8  -1   7 3.87879 3.61771   1
  -1  -8  -7 1.88515 4.83104   1
  -8   9  -7 2.46103 4.82665   1
   8  -9  -7 2.51278 5.42109   1
  -8  -1   7 1.83129 3.18293   2
   9  -8   7 7.16304 5.41776   1
   1  -9   7 1.12740 4.87956   2
  -9   9  -7 2.00814 4.80860   1
   0   9   7 -1.8710  3.2980   1
  -9   9   7 -1.6001  5.3475   1
   0  -9  -7 -2.1440  4.9734   1
   9  -9   7 -0.0306  5.6298   1
   0  -9  -7 4.43320 4.78015   2
   9  -9  -7 0.33410 5.32302   1
   0  -9   7 -2.5468  4.5718   2
  -9   0   7 0.96233 3.46135   2
   0  -9   7 -3.4993  4.9032   1
   0   9  -7 -4.4445  2.3549   1
   0   9   7 -1.6670  3.0786   1
  -5  10   7 -3.9196  4.7026   1
  -5  10  -7 5.57657 4.69308   1
 -10   5   7 -1.0349  4.7264   2
   5 -10   7 5.11932 5.43223   2
   5 -10  -7 -2.6345  5.4949   1
  -5  10  -7 -3.1494  4.5369   1
  -5  -5  -7 3.83785 3.88317   1
  -5  -5   7 -2.8249  3.5862   1
   5 -10  -7 5.44895 5.14913   2
  -5  10   7 -1.2609  5.0257   1
   5 -10   7 -2.3253  5.7865   1
  10  -5  -7 5.85101 4.19600   1
 -10   5  -7 -3.2019  4.4407   2
 -10   5   7 8.33843 4.87382   1
  10  -5   7 -3.1298  4.4849   1
  -6  10   7 5.54951 5.24589   1
  -4  10  -7 9.93008 4.63243   1
  -6  -4  -7 9.38369 3.81169   1
   4 -10  -7 7.28807 5.71352   1
 -10   4   7 9.50594 4.82889   1
  -4  -6   7 -1.2700  3.3301   2
   4 -10  -7 4.87780 5.05846   2
   6 -10   7 10.8393  6.0919   1
   6 -10   7 4.44085 5.96749   2
  -4  -6   7 4.91107 3.88570   1
  10  -6  -7 9.91977 4.54625   1
 -10   6  -7 6.26630 4.69413   2
  -4  -6   7 12.8944  3.3543   2
  10  -4   7 9.04512 4.25207   1
 -10   4   7 8.51657 4.65392   2
  -4  -6  -7 6.52954 3.67562   2
   4 -10   7 5.36352 5.48579   2
 -10   4  -7 8.10472 4.59409   2
  10  -6   7 4.11070 5.02757   1
  -4  -6  -7 3.18180 4.21068   1
   4 -10   7 13.7735  5.8659   1
 -10   6   7 3.22089 5.08050   1
 -10   6   7 8.20575 5.10347   2
  -4  10   7 7.36916 5.06600   1
   6 -10  -7 9.63790 5.89935   1
  10  -4  -7 6.82945 3.85407   1
  -4  10   7 16.2625  5.0561   1
  -6  10  -7 5.85850 4.88948   1
   6 -10  -7 7.42819 5.10957   2
  10  -7  -7 63.3138  6.5905   1
 -10   3   7 65.4052  6.0791   1
   7 -10   7 69.9980  7.6012   1
  -3  10  -7 63.6542  5.8433   1
   7 -10   7 60.6545  7.0805   2
  10  -3   7 71.0053  5.4448   1
   3 -10  -7 68.1262  7.3049   1
  -3  -7   7 60.5208  5.0720   2
 -10   7  -7 61.4420  6.3808   2
  10  -3   7 82.0721  5.8807   1
  -3  -7   7 63.6212  5.7511   1
  -7  10   7 68.9262  7.2777   1
  -3  -7   7 64.2754  5.3652   2
 -10   3   7 63.9895  5.9755   2
   3 -10  -7 75.9159  6.6906   2
  -3  -7  -7 64.0061  5.4342   2
   3 -10   7 69.7699  7.0630   2
  -3  -7  -7 70.9856  6.1220   1
  -7  10  -7 69.1774  6.8003   1
 -10   7   7 73.5230  6.9084   2
  10  -7   7 67.2481  6.8439   1
   3 -10   7 62.0845  7.0641   1
  -3  10   7 64.6717  6.2438   1
   7 -10  -7 69.1078  7.7189   1
 -10   7   7 71.9775  7.0650   1
   2 -10  -7 -2.2390  5.3388   1
   2 -10  -7 9.92753 5.24761   2
  -8  10   7 10.2425  5.6758   1
 -10   2   7 4.65783 4.35579   2
  -2  -8   7 17.7433  4.3600   2
   8 -10   7 13.0709  6.4351   1
  10  -8  -7 -0.2171  5.0613   1
  -2  10  -7 16.3306  4.1378   1
 -10   2   7 8.25857 4.30853   1
  -2  10   7 4.30399 4.40961   1
  10  -8   7 2.92627 5.42787   1
  -2  -8  -7 8.74823 4.42380   2
   8 -10  -7 8.07709 5.96720   1
   2 -10   7 10.3208  5.5440   1
  -2  -8  -7 10.9805  4.9520   1
   2 -10   7 11.7371  5.4909   2
  -8  10  -7 5.39448 4.99111   1
 -10   8   7 14.8202  5.7116   1
  -9  10   7 43.7340  6.7619   1
   1 -10  -7 37.7026  5.4988   2
 -10   9  -7 41.4144  6.0847   1
  -1  -9   7 38.8330  5.2555   2
   1 -10  -7 43.9008  6.2613   1
  10  -9  -7 18.3770  5.9223   1
  -1  10  -7 46.5002  4.1068   1
 -10   1   7 36.3385  4.5817   2
   9 -10   7 40.7887  6.9627   1
  -1  -9  -7 29.9893  5.1947   2
   9 -10  -7 28.7193  6.4557   1
 -10   9   7 48.2888  6.7973   1
  -1  10   7 39.1527  4.7286   1
  -9  -1   7 37.2386  3.8427   2
   1 -10   7 29.8734  5.9967   1
  -9  10  -7 27.4078  5.8100   1
  10  -9   7 31.6299  6.3777   1
   1 -10   7 41.3157  5.7976   2
   0 -10   7 69.6772  6.5364   2
 -10  10   7 73.1239  7.8382   1
 -10   0   7 72.8253  5.2586   2
  10 -10  -7 77.4933  7.7146   1
  10 -10   7 79.7091  7.9981   1
 -10  10  -7 64.7523  7.0831   1
   0 -10  -7 70.9220  6.4126   2
   5 -11  -7 48.6502  6.3285   2
  -5  11  -7 46.4334  5.9940   1
 -11   5   7 59.5602  6.4000   1
  -6  11   7 47.8768  6.4376   1
  11  -5   7 59.1428  5.6305   1
 -11   6  -7 46.1583  5.8134   2
   6 -11   7 45.3272  7.1916   1
  11  -6  -7 51.1061  5.5107   1
 -11   5   7 52.9042  6.0840   2
   5 -11  -7 60.4560  7.3662   1
 -11   6   7 51.1636  6.1227   2
 -11   5  -7 40.1430  5.6044   2
   6 -11  -7 53.3572  7.2515   1
 -11   6   7 55.8038  6.5167   1
  11  -6   7 60.2471  5.9468   1
   5 -11   7 57.3465  7.0593   2
  -6  11  -7 47.9704  6.1898   1
  -5  11   7 53.5847  6.2546   1
  11  -5  -7 64.2470  5.2576   1
   5 -11   7 55.1279  7.2167   1
  11  -7  -7 123.350   8.462   1
  -7  11   7 116.265   8.719   1
  -4  -7   7 93.8710  6.6912   2
   4 -11  -7 127.221   9.246   1
 -11   4   7 115.651   8.824   1
  11  -4   7 114.009   6.953   1
 -11   4   7 117.980   8.365   2
  -4  -7   7 111.331   6.585   2
   7 -11   7 109.507   9.294   1
  -4  11  -7 108.575   7.899   1
   4 -11  -7 120.089   9.105   2
  -4  -7  -7 94.5904  6.9862   2
   4 -11   7 117.907   8.708   2
  -4  11   7 106.504   7.886   1
 -11   4  -7 114.980   8.251   2
  11  -7   7 106.729   8.568   1
 -11   7   7 126.582   9.607   1
   7 -11  -7 112.746   9.270   1
  -7  11  -7 110.899   8.821   1
   4 -11   7 112.303   9.125   1
  -3  -8   7 2.38216 4.00327   2
  -8  11   7 13.1067  5.8135   1
   8 -11   7 7.52838 6.40265   1
  11  -8  -7 10.7643  5.1738   1
  -3  11  -7 9.70753 4.42081   1
 -11   3   7 12.2973  4.7640   2
   3 -11  -7 13.9368  6.1516   1
   3 -11  -7 8.36813 5.36614   2
  -3  11   7 16.0336  4.9934   1
   3 -11   7 24.0387  6.0184   2
  -8  11  -7 8.14534 5.23039   1
  11  -8   7 24.2556  5.8366   1
   3 -11   7 11.2374  6.0608   1
  -3  -8  -7 19.5638  4.4690   2
 -11   8   7 15.4985  5.7067   1
   8 -11  -7 13.5277  6.4089   1
   9 -11   7 4.16357 6.18162   1
 -11   9  -7 11.1122  5.2980   1
  -2  -9   7 -7.2087  4.3172   2
   2 -11  -7 0.05867 5.62160   1
 -11   2   7 -0.9858  4.2273   2
   2 -11  -7 0.03045 4.90499   2
  -2  11  -7 -0.6249  3.7205   1
  11  -9  -7 2.20983 5.27270   1
  -9  11   7 1.51385 5.70857   1
  -2  -9  -7 -6.2219  4.4424   2
  -2  11   7 -2.4339  4.1903   1
  11  -9   7 6.62082 5.67005   1
   9 -11  -7 -1.7864  5.8338   1
 -11   9   7 -3.2151  5.3979   1
  -9  11  -7 1.41174 5.04939   1
   2 -11   7 5.45236 5.53668   2
   2 -11   7 5.68724 5.63500   1
  10 -11   7 1.55312 6.11376   1
  -1 -10   7 1.08159 4.70716   2
  -1  11  -7 6.41142 2.85243   1
 -11   1   7 -1.0562  3.9718   2
 -11  10  -7 4.79806 5.31451   1
  11 -10  -7 -3.7496  5.5129   1
 -10  11   7 6.83150 5.88911   1
   1 -11  -7 6.50120 5.05359   2
  -1  11   7 2.27036 3.56465   1
 -10  11  -7 4.60132 5.31996   1
 -11  10   7 16.4961  6.0762   1
  11 -10   7 0.12870 5.62713   1
 -10  -1   7 0.88600 3.36917   2
   1 -11   7 3.04463 5.29698   2
  -1 -10  -7 0.92220 4.84083   2
  10 -11  -7 -3.5557  5.9221   1
 -11   0   7 18.9069  4.1728   2
  11 -11  -7 26.8667  6.6095   1
   0 -11  -7 19.8033  5.3685   2
  11 -11   7 19.3007  6.6354   1
 -11  11  -7 29.2093  6.2420   1
   0 -11   7 22.3862  5.5707   2
 -11  11   7 16.7691  6.4202   1
   6 -12   7 13.6038  6.5527   1
  12  -6   7 -3.4014  4.5161   1
  -6  12  -7 8.52836 4.94120   1
 -12   6   7 6.97792 5.21483   1
  12  -6  -7 2.96367 4.15404   1
  -6  12   7 -0.6603  5.1928   1
   6 -12  -7 4.38333 6.24180   1
   7 -12   7 3.91233 6.43877   1
  -5  -7   7 7.62837 3.46568   2
  -5  12  -7 8.99689 4.98518   1
  -5  -7   7 10.4192  3.2934   2
   5 -12  -7 9.53424 6.48103   1
 -12   5   7 9.30578 5.22219   2
  12  -7  -7 4.93279 4.56262   1
  -7  12   7 10.2601  5.7340   1
  12  -5   7 11.3574  4.1811   1
  12  -5  -7 9.61845 3.75109   1
 -12   7   7 14.5369  5.6053   1
  -7  12  -7 22.4286  5.4834   1
  12  -7   7 3.37020 4.94783   1
 -12   5  -7 3.41371 4.94569   2
   7 -12  -7 -2.8027  6.1700   1
   5 -12   7 14.2993  6.5826   1
  -5  12   7 9.08072 5.10892   1
  -5  -7  -7 7.18696 3.83216   2
  12  -8  -7 38.7264  5.9769   1
  -4  12  -7 36.6566  5.4622   1
   4 -12  -7 40.3310  6.4055   2
  -8  12   7 42.8060  6.6904   1
  -4  -8   7 25.3018  4.5518   2
  -4  -8   7 42.5437  4.5642   2
   4 -12  -7 32.3640  7.0716   1
   8 -12   7 50.7563  7.6918   1
 -12   4   7 35.9608  5.6256   2
   4 -12   7 43.8024  6.9703   2
  12  -8   7 39.0969  6.1654   1
 -12   4  -7 40.1685  5.6761   2
   8 -12  -7 42.0044  7.3238   1
  -4  -8  -7 34.3752  4.8901   2
  -4  12   7 41.8213  5.8177   1
   4 -12   7 39.6520  7.3261   1
 -12   8   7 53.2115  6.9704   1
  -8  12  -7 41.3697  6.3466   1
   9 -12   7 10.8891  6.7646   1
  -3  12  -7 19.6762  4.5817   1
  -3  -9   7 18.8234  4.5630   2
  12  -9  -7 18.4393  5.6718   1
   3 -12  -7 22.0365  6.4465   1
   3 -12  -7 19.6725  5.9285   2
  -9  12   7 12.6933  6.1454   1
 -12   3   7 21.8948  5.1363   2
 -12   9  -7 19.0331  5.8452   1
 -12   9   7 16.0744  6.1609   1
   3 -12   7 22.9717  6.5919   1
  -3  12   7 21.1171  4.9389   1
  12  -9   7 16.0891  5.8439   1
  -3  -9  -7 14.0469  4.7528   2
   3 -12   7 16.9316  6.1775   2
  -9  12  -7 12.5646  5.8132   1
   9 -12  -7 16.5801  6.6808   1
   2 -12  -7 9.73552 5.50919   2
  -2 -10   7 6.55051 4.76397   2
  12 -10  -7 12.6120  5.8863   1
 -12   2   7 3.17267 4.47628   2
  -2  12  -7 5.05190 3.51131   1
 -10  12   7 -5.7877  5.7693   1
 -12  10  -7 0.75764 5.27735   1
  10 -12   7 0.10019 6.59825   1
   2 -12   7 -0.9321  5.6815   2
  -2  12   7 2.55230 4.19933   1
 -10  12  -7 7.64482 5.79262   1
 -12  10   7 8.63832 6.12248   1
  10 -12  -7 13.0283  6.6551   1
  12 -10   7 11.5639  5.9645   1
  -2 -10  -7 3.04168 4.77742   2
 -12   1   7 8.21501 4.36753   2
  11 -12   7 12.4127  6.6516   1
 -12  11  -7 8.70115 5.75629   1
  12 -11  -7 11.1195  6.1632   1
 -11  12   7 11.0223  6.4632   1
  -1 -11   7 12.0482  5.3135   2
   1 -12  -7 22.7608  5.9505   2
  12 -11   7 15.1642  6.4308   1
 -11  12  -7 2.89293 5.61520   1
 -11  -1   7 15.8864  3.8196   2
 -12  11   7 16.1313  6.6529   1
  -1 -11  -7 17.8563  5.3444   2
  11 -12  -7 12.3353  6.5928   1
   1 -12   7 8.60418 5.76832   2
   0 -12  -7 2.76920 5.31968   2
  12 -12   7 3.40625 6.48376   1
   0 -12   7 15.2924  5.7768   2
 -12  12   7 17.7621  6.7769   1
 -12   0   7 4.00296 4.12530   2
 -12  12  -7 0.38919 5.72306   1
  12 -12  -7 6.73687 6.47280   1
   6 -13  -7 26.0486  7.2428   1
  13  -6   7 27.9066  4.9287   1
  -7  13   7 40.0527  6.4191   1
  -6  13  -7 33.9679  6.0870   1
   7 -13   7 20.4040  7.4069   1
  13  -7  -7 21.0678  4.8636   1
  13  -7   7 30.0279  5.6482   1
   7 -13  -7 37.2987  7.4947   1
  -7  13  -7 32.6036  6.0764   1
   6 -13   7 27.2722  7.4228   1
  -6  13   7 28.5350  6.2505   1
  13  -6  -7 28.2496  4.5789   1
   8 -13   7 -6.5196  6.5073   1
  -8  13   7 -9.2293  5.5789   1
  13  -5   7 -1.4652  3.1255   1
  -5  13  -7 -7.0279  4.7552   1
  13  -8  -7 -1.3215  4.6011   1
  -5  -8   7 3.74386 3.50670   2
  -5  -8   7 6.25748 4.00629   2
   5 -13  -7 3.12266 6.56796   1
   8 -13  -7 -4.0594  6.5429   1
  13  -8   7 5.41081 5.38626   1
  -5  -8  -7 -0.3924  4.0624   2
   5 -13   7 -7.9354  6.4213   1
  -8  13  -7 -0.9896  5.1873   1
 -13   8   7 -1.2099  5.6593   1
  -5  13   7 5.28164 5.30081   1
   9 -13   7 9.95600 7.13887   1
 -13   9  -7 8.35496 5.61378   1
  13  -9  -7 12.6084  5.5198   1
   4 -13  -7 -1.4059  6.4147   1
  -9  13   7 8.03268 6.35484   1
 -13   4   7 19.5609  5.3116   2
  -4  -9   7 8.67321 4.20354   2
  -4  13  -7 12.5927  4.8083   1
 -13   9   7 11.9991  6.2084   1
   9 -13  -7 17.9890  7.0755   1
  -4  -9  -7 5.05114 4.57005   2
  -9  13  -7 14.1075  5.8406   1
  -4  13   7 6.73059 5.00181   1
  13  -9   7 5.74312 5.70803   1
 -13  10  -7 9.40101 5.72088   1
 -10  13   7 12.7407  6.4198   1
  13 -10  -7 8.47735 5.74035   1
  -3 -10   7 4.51003 4.76316   2
  -3  13  -7 11.5975  4.2306   1
  10 -13   7 20.3703  7.3473   1
 -13   3   7 18.8314  5.2532   2
  -3  13   7 9.56621 4.78449   1
   3 -13   7 6.32709 6.29035   2
 -10  13  -7 5.89822 5.93494   1
  10 -13  -7 2.88159 6.82472   1
  13 -10   7 6.95516 5.97247   1
  -3 -10  -7 11.4640  5.0770   2
 -13  10   7 8.38056 6.32384   1
 -13   3  -7 8.89977 5.19257   2
  13 -11  -7 -3.9592  5.7423   1
 -13  11  -7 6.79922 5.72841   1
  -2  13  -7 3.04148 3.03264   1
 -13   2   7 6.88750 4.78847   2
  11 -13   7 -8.2179  6.5947   1
  -2 -11   7 8.52225 5.28055   2
   2 -13  -7 0.32780 5.78176   2
 -11  13   7 -3.1575  6.4258   1
  11 -13  -7 -5.9921  6.5302   1
 -13  11   7 3.29037 6.32779   1
  -2  13   7 -11.736   3.697   1
   2 -13   7 2.93714 6.14547   2
  13 -11   7 -0.9504  6.0985   1
 -11  13  -7 -0.8788  5.6344   1
  -2 -11  -7 -2.5991  5.0465   2
 -13  12  -7 4.71277 6.00958   1
 -12  13   7 -2.0539  6.7605   1
  -1 -12   7 6.18298 5.53617   2
   1 -13  -7 -5.3453  5.6849   2
 -13   1   7 7.87627 4.58279   2
  12 -13   7 -10.282   6.448   1
  13 -12  -7 2.65729 6.22630   1
 -13  12   7 5.76608 6.73159   1
   1 -13   7 -3.6112  5.9646   2
 -12  13  -7 -4.8065  5.8865   1
 -12  -1   7 5.86453 3.92613   2
  13 -12   7 1.14517 6.34098   1
  12 -13  -7 0.70141 6.65353   1
  -1 -12  -7 3.24580 5.34736   2
 -13   0   7 1.81836 4.26682   2
  13 -13  -7 -0.1843  6.6294   1
 -13  13   7 0.55796 6.88104   1
   0 -13   7 1.29190 5.94224   2
  13 -13   7 0.71249 6.77448   1
 -13  13  -7 1.60108 6.20287   1
   0 -13  -7 7.39192 5.89156   2
  14  -7  -7 2.96897 4.25701   1
   7 -14  -7 0.70772 6.94785   1
  -7  14   7 -0.0051  5.8770   1
  14  -7   7 10.7379  4.7182   1
  -7  14  -7 2.56362 5.39146   1
   7 -14   7 4.88697 6.99088   1
   6 -14  -7 11.5268  7.2078   1
   8 -14   7 13.9922  7.5607   1
  -8  14   7 17.0869  6.4215   1
  -6  14  -7 19.3032  5.5105   1
  14  -8  -7 13.6894  4.8791   1
  14  -6   7 11.4967  3.7475   1
  -6  -8   7 12.7620  3.6649   2
  -6  -8  -7 15.1672  4.4511   2
  -8  14  -7 20.6787  6.1668   1
   6 -14   7 9.73734 7.36101   1
  -6  14   7 18.8160  6.0557   1
   8 -14  -7 4.27723 7.20386   1
  14  -8   7 13.1732  5.4906   1
 -14   9  -7 -4.3741  5.3437   1
  -5  14  -7 -7.0698  4.7809   1
  14  -9  -7 2.68329 5.20262   1
  -9  14   7 1.19606 6.32544   1
  -5  -9   7 2.27647 3.98092   2
   9 -14   7 -0.2049  7.1301   1
  -5  -9  -7 -2.0606  4.4626   2
   9 -14  -7 0.63558 6.80593   1
  -5  14   7 -2.3094  5.3360   1
  -9  14  -7 10.8557  5.8508   1
  14  -9   7 -8.1710  5.2353   1
  10 -14   7 4.03127 7.40628   1
  14 -10  -7 12.1923  5.8944   1
 -14  10  -7 4.91725 5.85822   1
 -10  14   7 8.89123 6.68660   1
  -4 -10   7 10.7608  4.6927   2
  -4  14  -7 17.9205  4.8348   1
 -14  10   7 14.2572  6.7904   1
 -10  14  -7 7.71099 5.99038   1
  -4 -10  -7 13.8751  5.0744   2
  -4  14   7 13.3577  5.2018   1
  14 -10   7 9.65753 6.09006   1
  10 -14  -7 18.7921  7.6491   1
  -3 -11   7 14.8046  5.2843   2
  -3  14  -7 8.00999 3.93063   1
 -14  11  -7 16.5666  6.3726   1
 -11  14   7 1.88849 6.86782   1
  14 -11  -7 -0.5704  5.9185   1
  11 -14   7 10.5031  7.6767   1
  14 -11   7 12.3222  6.3529   1
 -11  14  -7 10.8266  6.1827   1
  -3  14   7 1.62980 4.52918   1
 -14  11   7 1.84097 6.61585   1
  -3 -11  -7 12.9455  5.3313   2
  11 -14  -7 12.2863  7.6514   1
  12 -14   7 3.77826 7.44281   1
  -2 -12   7 -2.6589  5.4604   2
 -14   2   7 -1.0286  5.0117   2
 -12  14   7 7.85678 7.18016   1
 -14  12  -7 -2.1117  6.1531   1
  14 -12  -7 12.3756  6.5259   1
  12 -14  -7 7.25684 7.30894   1
  -2 -12  -7 4.75221 5.53691   2
 -14  12   7 5.38347 7.09253   1
 -12  14  -7 -1.4938  6.1060   1
  14 -12   7 -3.8829  6.3310   1
  14 -13  -7 8.20951 6.89627   1
 -14   1   7 2.30251 4.89531   2
  -1 -13   7 -1.4714  5.8897   2
 -13  14   7 -5.4786  7.1361   1
  13 -14   7 -1.7708  7.4268   1
 -14  13  -7 1.98918 6.48752   1
 -13  -1   7 -0.2153  4.3329   2
  -1 -13  -7 1.16239 5.96017   2
 -13  14  -7 0.24200 6.35062   1
 -14  13   7 15.7958  7.5712   1
  13 -14  -7 0.65553 7.12429   1
  14 -13   7 -1.6305  6.8268   1
 -14  14  -7 5.56923 6.83677   1
 -14  14   7 15.2441  7.8554   1
   0 -14   7 0.91127 6.82216   2
 -14   0   7 16.0361  5.1845   2
  15  -8  -7 4.51961 4.51737   1
  -8  15   7 3.12087 6.18879   1
   7 -15  -7 2.40570 7.48207   1
   8 -15   7 10.5657  7.7353   1
  15  -7   7 13.4686  4.2147   1
  -7  15  -7 16.2408  6.0309   1
  15  -8   7 14.1023  5.1718   1
  -8  15  -7 13.5615  5.9769   1
  -7  15   7 8.20846 6.07234   1
  -7  -8  -7 15.9234  4.3740   2
   8 -15  -7 25.3484  8.1998   1
   7 -15   7 15.1462  7.7856   1
   9 -15   7 13.2945  7.9666   1
  15  -9  -7 4.80099 5.07263   1
  -6  -9   7 -7.2161  4.1841   2
  -6  15  -7 1.30545 5.32834   1
  -6  -9   7 9.82669 4.12379   2
  -9  15   7 5.63015 6.48583   1
  -9  15  -7 -5.7759  5.9240   1
  -6  -9  -7 1.61868 4.60490   2
  15  -9   7 -0.4333  5.5294   1
  -6  15   7 -0.0759  5.6555   1
   9 -15  -7 12.3453  7.7476   1
  -5 -10   7 -5.5623  4.5122   2
  10 -15   7 -0.3274  7.7998   1
  15 -10  -7 13.0455  5.6822   1
  -5  15  -7 14.5835  5.2814   1
 -10  15   7 1.03594 6.71226   1
  -5  15   7 -8.5026  5.2152   1
 -10  15  -7 3.07790 6.26118   1
  15 -10   7 -4.3756  5.7491   1
  10 -15  -7 4.83217 7.56179   1
  -5 -10  -7 -1.8422  5.0095   2
  15 -11  -7 17.6092  6.5291   1
 -15  11  -7 19.7283  6.9603   1
 -11  15   7 16.0472  7.5340   1
  -4  15  -7 12.0905  4.5818   1
  11 -15   7 7.26305 7.94391   1
  -4 -11   7 12.7719  5.4457   2
  11 -15  -7 23.5055  8.4391   1
 -11  15  -7 5.95479 6.70506   1
  -4  15   7 13.3190  5.3207   1
  15 -11   7 15.8721  6.7091   1
  -4 -11  -7 18.3130  5.7529   2
 -15  12  -7 14.8834  7.0094   1
  -3 -12   7 27.1811  6.0841   2
  12 -15   7 35.1432  8.7344   1
 -12  15   7 29.1061  7.9447   1
  15 -12  -7 22.5083  7.0498   1
 -15  12   7 17.5017  7.5623   1
 -12  15  -7 18.1134  7.0613   1
  -3 -12  -7 13.5772  5.9991   2
  12 -15  -7 17.7974  8.2197   1
  15 -12   7 20.5359  7.2898   1
 -15  13  -7 -1.3476  6.5277   1
  -2 -13   7 -1.1673  6.0235   2
 -15  13   7 4.06491 7.65280   1
  -2 -13  -7 3.74310 5.87468   2
 -13  -2   7 10.2122  4.3490   2
  -8  16  -7 3.55824 6.21674   1
   8 -16  -7 13.1459  8.2714   1
  -8  -8  -7 -3.7088  4.3030   2
   8 -16   7 -1.9314  8.1911   1
  -8  16   7 7.12103 6.41946   1
  16  -9  -7 3.50744 4.80869   1
  -7  16  -7 -2.5879  5.9134   1
   9 -16   7 0.73997 8.13101   1
   9 -16  -7 -9.4427  8.0768   1
  -7  16   7 -2.8251  5.9768   1
  -7  -9  -7 0.30079 4.79318   2
  16  -9   7 -3.3423  5.1734   1
  16 -10  -7 -5.1008  5.1504   1
  10 -16   7 7.40322 8.51913   1
  -6  16  -7 11.7013  5.6705   1
  10 -16  -7 -6.3886  7.8397   1
  -6  16   7 -3.6999  5.7955   1
  16 -10   7 1.37492 5.85395   1
  -6 -10  -7 -3.0874  4.9281   2
  16 -11  -7 6.76628 5.98231   1
  -5  16  -7 3.08700 5.07739   1
  11 -16   7 10.6762  8.4491   1
  -5  16   7 3.48009 5.46085   1
  -5 -11  -7 12.9195  5.5966   2
  11 -16  -7 -0.4443  8.1146   1
   0   0   8 2198.12   86.02   1
   0   0  -8 2336.96   85.46   2
   0   0  -8 2410.58   86.06   1
   0   0   8 2114.87   85.97   1
   0   0   8 2279.26   85.53   2
  -1   0   8 287.651  12.892   1
   1   0  -8 291.561  12.347   2
   0   1   8 288.412  12.954   1
   0  -1   8 269.021  12.849   1
   0   1  -8 299.824  12.444   2
  -1   0  -8 296.378  12.575   2
   0  -1   8 305.010  13.047   1
  -1   0   8 311.508  13.137   1
   1   0   8 261.690  12.784   1
   1  -1  -8 290.540  12.728   1
   1  -1   8 271.389  12.912   1
   1  -1   8 298.117  13.098   1
   1   0  -8 290.436  12.602   1
  -1   1  -8 297.600  12.959   1
   0  -1  -8 288.443  12.782   1
   1  -1  -8 294.144  12.457   2
   0   1   8 296.320  12.618   2
  -1   1   8 286.243  12.897   1
   0  -1  -8 304.912  12.531   2
   1  -1  -8 282.143  12.907   1
   0   1   8 300.935  13.074   1
   0   1  -8 300.846  12.879   1
  -1   1  -8 306.092  12.558   2
   1   0   8 298.161  13.072   1
   0  -1  -8 285.972  12.818   1
  -1   0  -8 303.888  12.917   1
  -1   1   8 285.109  12.962   1
  -1   1   8 290.855  12.570   2
   1   1  -8 106.626   6.046   2
  -1   2  -8 105.552   6.364   2
  -2   1  -8 106.389   6.808   1
   2  -1   8 102.834   6.869   1
   1  -2  -8 103.731   6.557   1
   1  -2  -8 106.681   6.315   2
  -1  -1   8 99.6514  6.9348   1
   2  -1   8 102.931   6.974   1
  -1   2   8 103.729   6.511   2
  -1  -1  -8 102.774   6.872   1
  -1  -1   8 98.8815  6.8449   1
  -1  -1   8 104.013   6.411   2
  -1  -1  -8 95.8441  6.3852   2
  -1   2  -8 105.786   6.880   1
   1  -2   8 101.338   7.048   1
   2  -1  -8 102.988   6.473   1
   1   1  -8 98.7286  6.3493   1
  -2   1   8 104.790   7.121   1
  -1   2   8 104.682   7.077   1
  -1  -1  -8 105.308   6.889   1
   1   1   8 112.536   7.026   1
   1  -2  -8 102.857   6.966   1
   2  -1  -8 106.060   6.101   2
  -1   2   8 99.5677  6.7017   1
  -2   1   8 108.081   6.247   2
   2  -1  -8 104.643   6.760   1
  -2   1   8 103.504   6.715   1
   1   1   8 112.253   6.810   1
  -2   2  -8 354.699  14.466   1
  -2   2   8 315.288  14.490   1
   0   2   8 336.292  14.526   1
   0  -2  -8 328.898  14.441   1
   0  -2  -8 338.366  14.502   1
   0   2   8 333.803  14.616   1
  -2   0   8 327.707  14.477   1
   2   0   8 315.847  14.494   1
  -2   2   8 341.170  14.765   1
   0  -2   8 308.415  14.358   1
   0   2  -8 343.972  14.425   1
  -2   2   8 347.677  14.315   2
  -2   2  -8 325.558  14.026   2
   2  -2  -8 361.086  14.562   1
   0   2  -8 350.506  13.961   2
   2  -2  -8 342.278  14.103   2
   0  -2  -8 341.813  14.201   2
  -2   0   8 335.051  14.660   1
  -2   0   8 338.077  14.180   2
  -2   0  -8 360.720  14.527   1
   2  -2   8 325.758  14.578   1
   2   0  -8 337.487  13.801   2
   2   0   8 321.511  14.332   1
   2  -2  -8 346.799  14.646   1
   2   0  -8 346.313  14.239   1
   0  -2   8 338.332  14.186   2
   0   2  -8 331.773  13.864   2
  -2   3   8 138.342   8.624   1
   2  -3   8 143.488   8.570   1
  -1  -2   8 156.159   7.833   2
  -1   3  -8 145.679   7.582   2
  -1  -2   8 151.510   8.181   1
  -2  -1  -8 151.512   7.611   2
  -1   3  -8 152.969   7.816   2
  -3   1   8 147.698   7.842   2
   2   1  -8 145.540   7.645   1
  -2  -1  -8 146.944   8.286   1
  -3   2  -8 149.017   8.243   1
  -2   3   8 136.150   8.182   1
   3  -2  -8 160.745   7.655   2
   2   1  -8 155.497   7.036   2
   3  -2  -8 154.632   8.308   1
  -1   3  -8 162.553   8.289   1
   3  -1   8 172.952   8.475   1
  -3   1   8 142.256   8.345   1
  -2  -1  -8 141.937   8.136   1
  -2   3   8 144.597   7.987   2
   3  -1   8 145.088   8.106   1
   1  -3  -8 146.179   7.860   2
   3  -2  -8 159.007   8.171   1
   1  -3  -8 144.036   8.365   1
   1  -3  -8 143.105   8.158   1
  -3   1   8 144.353   8.276   1
   1   2   8 146.828   8.086   1
   2   1  -8 147.603   6.981   2
   1   2   8 142.317   8.041   1
   2  -3  -8 137.240   8.342   1
   2   1   8 139.447   7.862   1
  -1   3   8 155.288   7.918   2
  -2  -1   8 140.955   7.777   2
  -2   3  -8 162.330   8.257   1
   2   1   8 148.853   8.208   1
  -1  -2  -8 147.849   8.228   1
   3  -1  -8 164.608   8.009   1
  -1   3   8 142.187   8.265   1
   1   2  -8 157.242   7.189   2
  -1  -2  -8 168.783   7.939   2
  -3   2   8 149.076   8.464   1
  -3   2   8 149.621   7.805   2
  -2   3  -8 143.080   7.730   2
   2  -3  -8 143.822   7.769   2
  -3   2   8 145.596   8.357   1
   1   2  -8 152.345   7.798   1
   2  -3  -8 150.154   8.177   1
   1   2  -8 150.428   7.129   2
  -2   3  -8 150.229   7.764   2
  -1  -2  -8 148.898   8.208   1
   1  -3   8 149.790   8.487   1
  -1   3   8 146.231   8.532   1
  -2  -1   8 151.149   8.123   1
  -3   1  -8 160.311   7.959   1
  -2  -1   8 149.167   8.360   1
   3  -1  -8 141.760   8.131   1
   3  -2   8 127.944   8.144   1
   3  -1  -8 158.752   7.433   2
   3   0  -8 373.438  15.188   1
  -3   0   8 344.847  15.489   1
   0   3   8 364.359  15.557   1
   0   3   8 356.716  15.619   1
   0  -3  -8 359.385  15.287   2
   0   3  -8 382.192  15.492   1
  -3   3  -8 383.021  15.611   1
   3   0  -8 361.718  14.655   2
   3   0   8 346.623  15.394   1
   3   0   8 370.907  15.588   1
   3  -3  -8 359.966  15.767   1
   0   3  -8 363.829  14.903   2
   3  -3   8 366.875  15.833   1
  -3   3   8 369.747  15.451   2
  -3   3   8 361.356  15.859   1
   3  -3  -8 381.299  15.679   1
  -3   0   8 371.821  15.235   2
   0   3  -8 359.519  14.874   2
  -3   3   8 381.767  16.056   1
   3  -3  -8 358.382  15.234   2
   0  -3   8 381.930  15.763   1
   0  -3  -8 358.385  15.642   1
   2   2  -8 452.947  17.908   2
   2   2   8 465.087  18.890   1
  -2   4  -8 470.746  18.825   2
   2   2   8 435.344  18.961   1
   4  -2  -8 482.474  19.071   1
  -2  -2   8 459.331  19.118   1
   2   2  -8 457.550  18.655   1
   2  -4   8 469.266  19.529   1
   4  -2  -8 480.121  18.591   2
  -2  -2  -8 455.453  18.684   2
   4  -2  -8 449.105  19.102   1
  -4   2   8 469.116  19.338   1
  -2   4   8 490.214  19.575   1
   2  -4  -8 466.427  19.513   1
   4  -2   8 441.918  19.159   1
   2  -4  -8 461.171  18.908   2
  -4   2   8 455.561  18.947   2
  -2   4  -8 463.039  18.761   2
  -2   4   8 445.354  19.293   1
  -2  -2   8 473.078  18.765   2
  -2  -2  -8 470.293  19.200   1
  -2   4  -8 487.352  19.227   1
  -2   4   8 470.924  19.008   2
   2  -4  -8 492.821  19.395   1
  -4   1   8 2533.61   94.79   1
   1   3   8 2541.13   94.64   1
  -1   4  -8 2527.65   94.00   2
  -3  -1  -8 2341.38   94.61   1
   4  -1   8 2683.17   94.78   1
  -3   4   8 2463.56   94.93   1
   1  -4  -8 2378.09   94.17   2
  -1   4  -8 2413.88   93.93   2
   1  -4  -8 2415.69   94.86   1
   4  -3  -8 2474.24   94.09   2
  -3   4   8 2591.00   95.08   1
  -1  -3   8 2522.71   94.71   1
  -1  -3   8 2532.18   94.16   2
   3   1  -8 2362.96   94.27   1
  -4   1   8 2591.81   94.17   2
   4  -3  -8 2466.05   94.72   1
   4  -1   8 2534.76   94.65   1
  -3   4   8 2596.18   94.36   2
   4  -3  -8 2417.95   94.80   1
  -1   4  -8 2461.00   94.65   1
   1   3   8 2462.25   94.58   1
   3  -4   8 2563.84   94.97   1
  -1  -3  -8 2673.76   94.21   2
   1   3  -8 2583.38   94.45   1
   3   1   8 2349.22   94.47   1
  -3  -1   8 2360.16   94.60   1
  -3   4  -8 2557.08   94.22   2
   1   3  -8 2594.66   93.63   2
  -4   3   8 2347.22   94.85   1
   4  -1  -8 2642.58   93.77   2
   1  -4   8 2379.88   94.78   1
  -1   4   8 2496.30   94.11   2
   3   1   8 2307.29   94.42   1
  -3   4  -8 2691.22   94.85   1
   3  -4  -8 2747.55   94.97   1
  -1   4   8 2481.31   94.84   1
  -1   4   8 2337.57   94.74   1
  -1  -3  -8 2574.61   94.78   1
   3  -4  -8 2591.80   94.26   2
  -3  -1   8 2374.48   94.00   2
   3  -4  -8 2477.75   94.96   1
   4  -3   8 2354.80   94.78   1
  -4   3   8 2447.63   94.26   2
   4  -1  -8 2698.32   94.58   1
   4  -4  -8 1476.06   52.32   1
  -4   0   8 1336.96   51.55   2
   0   4  -8 1391.47   51.93   1
   0   4  -8 1332.75   51.21   2
  -4   0   8 1369.22   52.06   1
  -4   4   8 1372.91   51.92   2
  -4   4   8 1380.11   52.43   1
   4  -4  -8 1347.15   52.33   1
   0   4   8 1348.21   52.06   1
   0  -4  -8 1326.54   51.66   2
   4  -4   8 1364.52   52.34   1
  -4   4  -8 1336.24   51.79   2
   4   0  -8 1353.10   51.66   1
  -4   4  -8 1397.52   52.26   1
   0  -4  -8 1325.05   52.19   1
   4   0   8 1302.00   51.81   1
   4   0   8 1291.73   51.86   1
   0  -4   8 1349.79   52.16   1
   0   4   8 1315.04   52.02   1
   4  -4  -8 1380.20   51.76   2
  -3   5   8 66.8142  5.5698   1
  -3   5   8 56.7523  5.2965   1
  -2  -3   8 56.2095  4.9164   1
   3  -5   8 54.8446  5.4027   1
  -2   5  -8 50.7365  4.4857   2
  -5   2   8 50.3191  4.7690   2
  -2   5  -8 56.4877  4.4709   2
  -5   2   8 62.5192  5.1970   1
   5  -3  -8 60.3248  4.7354   1
  -2   5  -8 56.9136  4.7329   1
   2  -5  -8 54.4762  4.8628   2
   5  -2   8 48.6121  4.8755   1
   2  -5  -8 55.3272  5.4139   1
  -3  -2  -8 58.7415  4.7675   1
   2   3   8 55.5308  4.4112   1
   2   3   8 54.6746  4.3589   1
   5  -3  -8 57.4946  4.9230   1
   5  -3  -8 57.7140  4.3228   2
  -3   5   8 64.3297  5.1271   2
  -2  -3   8 60.7707  4.6219   2
   3  -5  -8 46.7840  5.3009   1
   2   3  -8 58.2957  3.9463   1
   3   2   8 54.6012  4.3110   1
   2  -5   8 60.4186  5.4488   1
   3  -5  -8 60.5852  4.9517   2
  -5   3   8 62.6410  5.0660   2
   5  -2  -8 60.2688  3.9440   2
   5  -3   8 44.7054  4.8932   1
  -2   5   8 51.2364  5.0547   1
  -3  -2   8 56.0437  4.4722   2
  -3  -2   8 53.9520  4.7047   1
  -2   5   8 62.5749  4.8562   2
  -5   3   8 58.8898  5.3683   1
  -3   5  -8 57.1947  4.8088   1
  -2  -3  -8 58.0918  4.5496   2
  -2   5   8 58.7888  5.3127   1
  -3   5  -8 53.5581  4.7315   2
   5  -2  -8 58.0854  4.8312   1
   3   2   8 55.9496  4.4123   1
  -2  -3  -8 56.0833  4.9491   1
   5  -2  -8 53.1907  4.4232   1
   5  -4  -8 174.047   8.980   2
  -5   1   8 178.107   9.421   1
   4  -5   8 161.911   9.880   1
   5  -1   8 179.196   9.190   1
  -1   5  -8 174.089   8.514   2
   1   4   8 178.893   9.046   1
  -1  -4   8 180.652   8.910   2
   1  -5  -8 175.180   8.972   2
   5  -4  -8 185.674   9.493   1
  -4   5   8 187.485   9.605   2
   1   4   8 185.848   8.915   1
   1  -5  -8 161.475   9.531   1
  -4   5   8 180.017  10.261   1
  -1   5  -8 174.717   9.225   1
  -4   5   8 177.883   9.863   1
  -1  -4   8 183.234   9.449   1
   5  -1   8 176.146   9.038   1
  -5   4  -8 160.458   8.353   2
  -5   1   8 190.804   8.948   2
   5  -4  -8 174.974   9.543   1
   4  -5  -8 184.015   9.263   2
   5  -4   8 183.925   9.819   1
   1  -5   8 169.904   9.251   2
   4   1   8 186.219   8.685   1
  -4  -1   8 189.061   8.676   2
   4  -5  -8 185.694   9.891   1
  -4  -1   8 183.937   9.138   1
  -5   4   8 180.912   9.838   1
   1  -5   8 169.186   9.747   1
  -1  -4  -8 181.517   9.368   1
  -4   5  -8 178.754   9.388   2
   1   4  -8 166.983   8.525   1
   4   1   8 178.435   8.731   1
  -4   5  -8 174.459   9.542   1
  -1  -4  -8 184.644   8.992   2
  -1   5   8 189.546   9.626   1
   5  -1  -8 181.067   8.534   1
  -1   5   8 178.764   9.384   1
   0  -5  -8 527.793  21.090   2
  -5   0   8 520.590  20.803   2
   5  -5  -8 545.324  21.311   2
   0  -5  -8 477.643  21.462   1
   5  -5  -8 543.418  21.725   1
   0  -5   8 546.691  21.171   2
  -5   5  -8 516.840  21.275   2
  -5   5   8 503.363  21.823   1
   5  -5  -8 529.792  21.840   1
   0   5   8 515.889  21.203   1
   0   5   8 510.627  21.215   1
  -5   5   8 523.977  21.429   2
   5  -5   8 490.266  21.760   1
  -5   0   8 534.332  21.263   1
   0  -5   8 536.373  21.549   1
   5   0   8 514.663  20.937   1
   5   0   8 517.437  20.957   1
   0   5  -8 524.596  21.049   1
  -6   3   8 144.961   8.556   1
  -3   6   8 135.883   8.977   1
  -3   6  -8 143.441   8.128   2
   6  -3  -8 138.933   7.129   2
  -3   6   8 132.482   8.525   1
   3   3   8 115.372   6.607   1
   3  -6  -8 139.926   8.178   2
  -3   6  -8 152.702   8.516   1
   3   3  -8 134.216   6.558   1
  -3  -3  -8 137.969   7.931   1
   3  -6  -8 131.777   8.826   1
  -6   3   8 148.237   8.180   2
  -3  -3   8 137.423   7.426   2
   6  -3  -8 145.823   8.060   1
   3   3   8 137.761   7.092   1
   6  -3  -8 137.417   8.024   1
   3  -6   8 145.159   9.056   1
  -3   6   8 145.929   8.307   2
   6  -3   8 150.863   8.509   1
  -3  -3   8 145.544   8.002   1
   4   2  -8 0.87849 2.02778   1
   4  -6   8 0.47269 4.42175   1
  -6   4  -8 -0.8153  3.6183   2
  -2   6  -8 4.50861 3.19515   2
   2   4   8 -0.5441  2.9901   1
   2  -6  -8 -0.0997  4.2179   1
   6  -4  -8 0.03134 3.48942   1
   2  -6  -8 -3.1620  3.6319   2
  -2  -4   8 11.0863  3.7220   1
  -6   2   8 -3.0448  3.5425   2
   2   4   8 0.33323 1.40763   1
  -4   6   8 0.21049 4.29670   1
  -2   6  -8 -3.6212  3.2889   1
  -4   6   8 -5.8651  4.0017   1
  -6   2   8 4.58751 3.83149   1
   6  -2   8 -2.5119  3.5795   1
  -2  -4   8 0.91882 3.42461   2
  -4   6   8 -1.2309  3.7552   2
  -4  -2  -8 0.15005 3.47708   1
   6  -2   8 2.57541 3.71029   1
  -2  -4   8 4.35780 3.55609   2
   6  -4  -8 -2.5440  3.0917   2
   6  -4  -8 -2.2341  3.7116   1
  -4  -2   8 -3.0011  3.3254   1
   2  -6   8 3.03771 4.30508   1
  -2  -4  -8 -0.0506  3.7331   1
  -4  -2   8 -0.2956  3.2548   2
   4   2   8 -1.0779  2.6174   1
  -2   6   8 2.43512 3.94212   1
   2  -6   8 -5.2931  4.0940   2
   4  -6  -8 -4.7669  3.5755   2
   6  -2  -8 2.08480 3.13117   1
   4  -6  -8 -0.4380  4.2052   1
   6  -4   8 -6.1060  3.8714   1
  -2  -4  -8 3.20524 3.52758   2
  -4   6  -8 -2.0856  3.5928   2
   6  -2  -8 -2.0506  3.4199   1
  -4   6  -8 -5.1418  3.4970   1
  -2   6   8 8.08210 3.92858   1
  -6   4   8 -2.8318  3.9686   1
   2   4  -8 -0.9147  2.3637   1
   4   2   8 2.99779 2.84449   1
  -6   4   8 0.84971 3.89637   2
   5  -6   8 38.5285  5.5253   1
   6  -5  -8 39.3087  4.4787   2
   6  -5  -8 47.5663  4.9805   1
   6  -1   8 47.5178  4.4303   1
  -1   6  -8 35.0733  4.2769   1
  -1  -5   8 41.0306  4.6430   2
   1   5   8 44.5933  4.4116   1
   1  -6  -8 41.5444  4.7620   2
  -5   6   8 47.5781  5.5880   1
   1   5   8 43.9979  4.2269   1
  -5   6   8 39.2813  5.1472   2
   6  -1   8 39.4951  4.3166   1
  -6   1   8 46.3255  4.9095   1
   6  -5  -8 39.3935  5.1957   1
   5   1  -8 42.9508  3.0603   1
  -6   5  -8 39.3227  4.7311   2
   1  -6  -8 33.5847  5.3189   1
  -1  -5   8 46.3437  4.6807   2
  -6   1   8 46.9954  4.5274   2
  -1  -5   8 48.2517  5.0609   1
   5   1   8 46.2341  3.8194   1
  -5  -1   8 45.8311  4.6013   1
   5  -6  -8 42.4969  5.5382   1
   5  -6  -8 43.4112  4.8436   2
   1  -6   8 54.4854  5.2212   2
  -1  -5  -8 48.6731  5.1527   1
  -1  -5  -8 49.5722  4.6858   2
   6  -5   8 53.5138  5.5087   1
  -1   6   8 51.6336  4.9054   1
  -6   5   8 45.1439  5.4399   1
  -5   6  -8 41.3894  4.9560   2
   1  -6   8 48.6083  5.3353   1
   5   1   8 45.7814  3.7908   1
  -5  -1   8 39.9213  4.2000   2
  -1   6   8 44.5873  4.8360   1
   6   0  -8 171.690   7.652   1
  -6   6   8 170.047   9.805   2
  -6   6  -8 157.231   9.671   2
   6  -6   8 167.049  10.207   1
   0   6  -8 172.135   8.585   1
   0  -6   8 184.774   9.391   2
   0  -6  -8 167.223   9.104   2
   6   0   8 167.720   8.373   1
  -6   0   8 172.151   8.598   2
   6   0   8 162.649   8.261   1
  -6   0   8 169.469   9.253   1
   0   6  -8 174.263   8.842   1
   0  -6   8 182.908   9.834   1
   0   6   8 181.224   9.132   1
   6  -6  -8 167.513   9.521   2
  -6   6   8 177.298  10.033   1
   0  -6  -8 155.557   9.569   1
   0   6   8 167.938   9.112   1
   6  -6  -8 171.945  10.210   1
   4  -7   8 156.887   9.366   2
  -7   3   8 136.425   8.429   2
   3   4   8 131.898   6.854   1
  -4   7   8 127.393   8.899   1
   4  -7   8 131.385   9.164   1
   3  -7  -8 137.521   8.410   2
  -7   4  -8 136.486   8.465   2
  -3   7  -8 141.684   8.020   2
   3  -7  -8 124.066   8.922   1
  -3  -4   8 131.360   8.102   1
   3   4   8 134.369   6.868   1
  -4   7   8 146.565   8.750   2
   7  -3   8 149.806   8.657   1
  -4   7   8 153.838   9.602   1
  -3  -4   8 141.083   7.556   2
  -3   7  -8 139.775   8.768   1
   7  -4  -8 143.384   8.527   1
  -4  -3  -8 140.970   8.061   1
  -7   3   8 163.213   8.859   1
   7  -4  -8 156.631   8.526   1
  -3  -4   8 133.591   7.471   2
  -7   4   8 137.644   8.519   2
  -4  -3   8 139.087   7.959   1
  -3   7   8 141.538   9.339   1
   4  -7  -8 124.741   9.170   1
  -3   7   8 132.076   8.763   1
   3  -7   8 142.388   9.173   2
   7  -3  -8 133.556   8.151   1
   7  -4   8 146.090   8.846   1
   4  -7  -8 142.912   8.597   2
  -4  -3   8 144.198   7.477   2
   7  -3  -8 140.147   7.947   1
  -3  -4  -8 115.893   7.958   1
   3  -7   8 136.000   9.248   1
   4   3   8 135.142   6.551   1
  -4   7  -8 152.453   8.542   2
  -4   7  -8 135.887   8.901   1
  -7   4   8 144.813   8.939   1
  -3  -4  -8 135.799   7.518   2
  -2  -5   8 105.706   7.594   1
   7  -5  -8 112.859   7.026   2
   7  -2   8 107.441   7.251   1
   5  -7   8 85.5176  7.5224   1
   2   5   8 93.7216  6.1311   1
   2   5   8 84.0906  6.0025   1
  -2   7  -8 109.044   7.437   1
   7  -5  -8 113.166   7.927   1
  -2  -5   8 88.6279  6.7643   2
   7  -2   8 103.128   7.088   1
  -7   5  -8 121.079   7.815   2
  -2  -5   8 99.8111  6.8538   2
  -5   7   8 95.2130  7.3307   1
  -7   2   8 102.831   7.194   2
  -5   7   8 107.376   7.177   2
   2  -7  -8 112.477   8.275   1
  -5  -2  -8 97.3316  6.9531   1
   2  -7  -8 108.690   7.381   2
  -7   2   8 92.1304  7.5282   1
   7  -5  -8 114.769   7.799   1
  -5  -2   8 119.308   7.142   1
   7  -2  -8 94.9250  6.4399   1
  -7   5   8 107.144   7.768   2
  -5  -2   8 101.082   6.280   2
   2  -7   8 112.137   8.475   1
  -2  -5  -8 89.0939  6.8055   2
  -2  -5  -8 102.725   7.426   1
  -2   7   8 126.111   8.168   1
   2  -7   8 101.470   7.996   2
   7  -5   8 113.048   8.030   1
  -7   5   8 100.536   8.102   1
   2   5  -8 97.1457  5.3275   1
   5  -7  -8 99.4883  7.4098   2
   5  -7  -8 93.6833  7.5183   1
   2   5  -8 92.6638  5.3650   1
  -2   7   8 95.1542  7.3707   1
  -5   7  -8 104.633   7.862   2
   7  -6  -8 351.883  14.792   2
  -7   1   8 333.020  14.365   2
  -6   7   8 331.833  15.677   1
   7  -1   8 307.322  13.915   1
  -7   6  -8 335.109  15.068   2
  -7   1   8 339.819  14.842   1
   6  -7   8 318.618  15.829   1
  -1  -6   8 341.165  14.505   2
  -1  -6   8 341.560  15.142   1
   7  -1   8 344.155  14.167   1
   1  -7  -8 321.768  15.400   1
   1   6   8 326.559  14.175   1
   7  -6  -8 372.147  15.589   1
   1  -7  -8 332.205  14.708   2
  -1   7  -8 348.347  14.761   1
   7  -6  -8 326.246  15.427   1
  -6   7   8 351.791  15.421   2
  -1   7  -8 317.535  14.423   1
   1  -7   8 330.975  15.031   2
   7  -1  -8 330.805  13.612   1
   6  -7  -8 357.841  15.111   2
  -1   7   8 349.389  14.909   1
  -1  -6  -8 307.992  15.020   1
   1   6  -8 323.585  13.770   1
   1  -7   8 338.095  15.426   1
  -1  -6  -8 327.193  14.501   2
  -1   7   8 314.776  14.723   1
  -6  -1   8 312.544  13.941   2
   1   6  -8 306.968  13.650   1
   6  -7  -8 339.357  15.799   1
  -6  -1   8 320.430  14.548   1
  -7   6   8 349.709  15.660   1
   7  -6   8 342.745  15.594   1
  -6   7  -8 362.938  15.359   2
   0   7   8 1641.78   63.84   1
   0  -7   8 1576.75   63.66   2
   7  -7  -8 1632.25   64.75   1
   0  -7  -8 1671.01   64.47   1
   7  -7  -8 1748.03   64.06   2
  -7   7   8 1768.10   64.31   2
   7   0   8 1658.22   63.14   1
   0  -7   8 1675.39   64.33   1
   7  -7   8 1636.57   64.71   1
   0  -7  -8 1645.55   63.76   2
   0   7   8 1684.28   63.80   1
  -7   7  -8 1706.48   64.15   2
  -7   0   8 1647.07   63.32   2
  -7   7   8 1697.63   64.81   1
   0   7  -8 1647.13   63.59   1
  -7   0   8 1695.13   64.02   1
   8  -4   8 613.471  25.122   1
  -4   8  -8 582.784  25.196   1
   4  -8   8 628.389  25.554   2
  -4   8   8 657.477  25.893   1
   4  -8   8 623.505  25.840   1
  -8   4  -8 604.361  24.979   2
  -8   4   8 634.234  25.518   1
  -8   4   8 610.757  25.056   2
  -4   8  -8 636.056  25.547   1
  -4   8   8 568.007  25.330   1
   8  -4  -8 634.315  25.061   1
   8  -4  -8 640.036  25.031   1
  -4  -4  -8 628.066  24.840   1
   4  -8  -8 594.374  25.098   2
  -4  -4   8 609.345  24.790   1
   4  -8  -8 612.251  25.879   1
  -4  -4   8 586.479  24.074   2
  -4  -4   8 612.995  24.162   2
  -8   5  -8 60.9427  5.7400   2
   3  -8  -8 52.7198  5.7544   2
   8  -5  -8 54.4855  5.4902   1
  -8   3   8 67.3670  5.9893   1
  -3  -5   8 59.5868  4.9029   2
   8  -5  -8 70.4982  5.9321   1
  -5  -3  -8 51.3817  5.1304   1
  -5   8   8 69.5131  6.0822   2
   8  -3   8 58.0101  5.5123   1
  -3  -5   8 60.0343  4.9865   2
   3  -8  -8 59.5162  6.6379   1
   5  -8   8 60.1365  6.7705   1
  -8   3   8 64.0450  5.7388   2
   8  -3   8 66.1646  5.6178   1
  -3  -5   8 49.8722  5.2404   1
  -3   8  -8 55.1107  5.6078   1
  -3   8  -8 72.8399  5.6659   1
  -5   8   8 56.9847  6.3169   1
   5  -8   8 58.4639  6.5109   2
   8  -3  -8 60.8962  5.1894   1
   5  -8  -8 51.5656  5.7341   2
  -3  -5  -8 58.8246  5.5133   1
  -5  -3   8 64.4670  4.6257   2
  -8   5   8 68.1938  6.3738   1
  -8   5   8 63.1989  6.1216   2
   8  -5   8 52.9716  6.0073   1
  -3   8   8 60.2408  5.9619   1
   8  -3  -8 52.8050  4.6702   1
   3  -8   8 56.3885  6.3907   2
   3  -8   8 58.0558  6.5151   1
  -3   8   8 68.8108  6.2699   1
   5  -8  -8 54.9025  6.5852   1
  -3  -5  -8 59.8290  5.0617   2
  -5  -3   8 65.7844  5.2424   1
  -2   8  -8 39.4664  4.9336   1
  -2  -6   8 40.9106  4.8786   2
   2   6   8 53.3083  3.6332   1
   2  -8  -8 41.8856  6.0814   1
  -2  -6   8 42.0464  4.8227   2
  -8   6  -8 52.5403  5.3718   2
  -8   2   8 44.5834  5.2794   1
  -2  -6   8 56.6260  5.4163   1
  -8   2   8 49.7268  5.0627   2
   6  -8   8 48.0037  6.5548   1
   2   6   8 48.0930  3.4762   1
   8  -6  -8 52.7032  5.5219   1
   8  -2   8 40.3088  4.5963   1
  -6   8   8 38.2865  5.9421   1
   8  -6  -8 50.5403  4.8467   2
  -2   8  -8 37.1891  4.7097   1
   8  -6  -8 38.5108  5.5213   1
  -6   8   8 64.2255  5.9794   2
   2  -8  -8 33.4009  5.2563   2
   2  -8   8 38.1489  5.7220   2
  -2  -6  -8 49.0452  4.9782   2
  -8   6   8 45.3780  5.9660   1
  -6  -2   8 47.6751  4.2420   2
   6  -8  -8 42.2273  6.2221   1
  -6  -2   8 39.0257  4.6569   1
   6  -8  -8 33.5704  5.2941   2
   2  -8   8 48.5564  6.0265   1
   8  -6   8 50.3460  5.9700   1
  -2   8   8 36.4524  5.2742   1
  -2  -6  -8 32.0117  5.1823   1
  -2   8   8 43.2369  5.2201   1
  -6   8  -8 49.2057  5.6035   2
  -8   6   8 41.2563  5.5279   2
   7  -8   8 177.397  11.140   1
  -7   8   8 199.551  11.182   2
  -7   8   8 200.081  11.260   1
   1   7   8 187.268   8.895   1
  -1   8  -8 184.948   9.448   1
  -8   1   8 186.151   9.379   2
   1  -8  -8 179.149   9.954   2
   1   7   8 178.108   8.893   1
  -1   8  -8 180.578   9.807   1
   8  -7  -8 191.971  10.151   2
  -8   7  -8 205.452  10.843   2
   8  -7  -8 182.440  10.801   1
  -1  -7   8 177.731   9.720   2
  -1  -7   8 176.220  10.404   1
   8  -1   8 176.409   8.495   1
  -8   1   8 186.977   9.922   1
   8  -1   8 171.429   8.446   1
   1  -8  -8 189.200  10.896   1
  -7  -1   8 189.145   9.768   1
  -7  -1   8 182.243   8.897   2
   1  -8   8 180.382  10.927   1
  -1   8   8 175.083   9.774   1
   7  -8  -8 200.000  10.623   2
  -7   8  -8 206.244  10.892   2
   1   7  -8 166.501   8.051   1
  -1  -7  -8 197.897  10.586   1
   8  -7   8 181.773  11.052   1
  -1   8   8 193.251  10.160   1
   7  -8  -8 169.375  11.049   1
   1  -8   8 166.468  10.314   2
   1   7  -8 170.291   8.127   1
  -1  -7  -8 193.121   9.793   2
  -8   7   8 181.005  11.196   1
  -8   7   8 183.137  10.573   2
  -8   0   8 206.288  10.405   2
   0  -8  -8 212.296  12.059   1
  -8   8  -8 229.374  12.306   2
   0  -8   8 223.048  12.084   1
  -8   8   8 238.315  12.439   2
  -8   0   8 226.356  11.106   1
   8  -8   8 224.171  12.674   1
   8  -8  -8 220.190  11.665   2
   0  -8   8 211.715  11.459   2
   0  -8  -8 228.313  11.252   2
   0   8  -8 223.780  10.239   1
   0   8  -8 224.325  10.100   1
   0   8   8 216.699  10.697   1
   8  -8  -8 228.604  12.471   1
  -8   8   8 237.042  12.723   1
   9  -4   8 109.004   8.041   1
   5  -9   8 111.724   8.646   1
  -4   9  -8 108.395   8.156   1
  -4  -5   8 110.919   7.617   1
  -5  -4  -8 126.014   7.691   1
   4  -9  -8 120.109   9.400   1
  -4  -5   8 101.996   6.803   2
  -4  -5   8 111.466   6.784   2
  -4   9  -8 118.104   8.700   1
   9  -5  -8 99.4057  7.9504   1
  -5   9   8 110.892   8.627   1
   4  -9  -8 111.841   8.657   2
  -9   4   8 122.444   8.887   1
  -9   5  -8 105.953   8.482   2
   5  -9   8 121.342   9.398   2
  -9   4   8 116.864   8.273   2
   9  -5  -8 105.993   8.188   1
  -5  -4   8 114.867   6.626   2
   4  -9   8 129.813   9.544   2
  -4  -5  -8 102.536   7.656   1
  -5  -4   8 122.031   6.741   2
   4  -9   8 99.0464  8.3548   1
  -4   9   8 125.059   9.436   1
   9  -4  -8 124.786   7.803   1
  -9   5   8 131.443   8.794   2
  -4   9   8 112.330   8.469   1
  -5   9  -8 104.567   7.773   1
  -9   5   8 120.789   8.931   1
  -9   4  -8 100.353   8.117   2
   5  -9  -8 125.302   8.766   2
   5  -9  -8 107.281   8.630   1
   9  -4  -8 125.496   7.591   1
  -5  -4   8 121.988   7.494   1
   9  -5   8 109.225   7.768   1
   9  -3   8 0.95129 3.57090   1
   9  -3   8 -2.0746  3.9833   1
  -9   3   8 -4.5880  4.3453   2
   6  -9   8 1.20184 5.55636   1
  -3  -6   8 5.26375 4.21280   1
   3  -9  -8 -0.1563  4.5803   2
  -3  -6   8 1.47897 3.77864   2
  -6  -3  -8 1.87282 3.90643   1
   9  -6  -8 -1.8635  4.2174   1
   6  -9   8 1.13528 5.31361   2
  -3   9  -8 0.10761 3.97762   1
  -3   9  -8 6.70740 4.40985   1
  -9   6  -8 4.77888 4.69085   2
  -9   3   8 3.21498 4.53896   1
  -3  -6   8 8.76426 4.11948   2
   3  -9  -8 0.86016 5.46685   1
   9  -6  -8 1.72067 4.52469   1
  -6   9   8 6.07357 5.23956   1
   3  -9   8 -3.5473  5.1876   2
  -6   9  -8 6.06600 4.78090   1
  -6  -3   8 1.91858 3.27834   2
  -3   9   8 1.35567 4.63569   1
  -3   9   8 -10.945   4.344   1
  -9   6   8 -4.0157  4.7638   2
  -3  -6  -8 -3.6127  4.0101   2
  -9   6   8 11.8604  5.2701   1
  -3  -6  -8 7.18865 4.46842   1
   9  -6   8 2.40571 5.12373   1
   6  -9  -8 6.52151 5.69556   1
  -6  -3   8 -1.6680  3.6174   1
   6  -9  -8 2.27697 4.81568   2
   3  -9   8 -9.2108  5.1808   1
   2  -9  -8 47.6390  5.8634   2
   9  -7  -8 55.7540  6.3036   1
  -2  -7   8 46.0073  5.1221   2
  -7   9   8 44.7371  6.1287   2
   2  -9  -8 47.7648  6.6336   1
  -2   9  -8 42.0640  5.1576   1
   9  -2   8 41.6562  4.2404   1
  -2   9  -8 49.1052  4.9911   1
  -7   9   8 45.1545  6.5502   1
  -9   2   8 49.6930  5.5230   1
   7  -9   8 64.6715  7.2666   1
  -9   2   8 55.5122  5.2830   2
   9  -2   8 48.1868  4.3178   1
   9  -7  -8 58.6537  6.0245   1
  -2  -7   8 41.7702  5.5891   1
  -7   9  -8 45.8176  5.9747   2
  -7  -2   8 46.8270  4.9168   1
   7  -9  -8 60.3113  6.9918   1
   2  -9   8 46.5707  6.5066   1
   2  -9   8 45.6852  6.2674   2
  -7  -2   8 48.4456  4.2824   2
   7  -9  -8 53.1035  6.0764   2
  -2   9   8 45.9998  5.5938   1
  -7   9  -8 50.1639  6.2782   1
  -9   7   8 53.0424  6.6389   1
  -2  -7  -8 45.7961  5.1948   2
   9  -7   8 43.9110  6.4819   1
  -9   7   8 55.9849  6.0674   2
  -2  -7  -8 46.8254  5.8761   1
  -2   9   8 52.7046  5.5678   1
   8  -9   8 218.779  12.519   1
  -1  -8   8 185.342  10.566   2
  -9   1   8 187.402  10.072   2
   1  -9  -8 193.439  11.917   1
  -1   9  -8 201.906   9.931   1
   1   8   8 209.600   9.151   1
   9  -8  -8 207.866  11.794   1
   9  -8  -8 228.593  11.114   2
  -1  -8   8 205.138  11.538   1
  -8   9   8 191.500  11.973   1
   1  -9  -8 192.135  10.849   2
  -9   1   8 221.787  10.825   1
   9  -8   8 203.832  12.137   1
  -1   9   8 210.201  10.504   1
  -8  -1   8 205.643   9.676   2
  -1  -8  -8 199.891  11.389   1
   1  -9   8 201.243  11.268   2
   8  -9  -8 214.157  12.143   1
  -8  -1   8 213.269  10.534   1
  -9   8   8 199.272  12.155   1
  -1  -8  -8 201.113  10.655   2
   1  -9   8 212.389  11.920   1
  -9   0   8 55.1852  4.8343   2
   0  -9  -8 53.1379  6.6306   1
   0   9  -8 56.5773  3.9149   1
  -9   9   8 38.3875  6.8652   1
   9  -9   8 42.9088  7.0880   1
   0   9   8 54.4790  4.7717   1
   0  -9   8 48.0353  5.9755   2
   9  -9  -8 50.2094  6.8582   1
   0  -9   8 50.8665  6.3226   1
   0  -9  -8 49.0759  5.9779   2
   5 -10   8 29.0403  6.3306   2
   5 -10  -8 15.1669  5.3309   2
   5 -10  -8 12.5960  5.9370   1
 -10   5   8 10.9908  5.1085   2
   5 -10   8 15.3188  6.4556   1
 -10   5  -8 13.9519  5.0645   2
  -5  10   8 15.4590  5.4109   1
  10  -5   8 18.7493  5.1006   1
  10  -5  -8 16.6953  4.4365   1
  -5  10  -8 10.3013  4.8496   1
  -5  -5   8 7.49299 3.65395   2
  -5  -5   8 12.2111  3.4574   2
 -10   5   8 15.8714  5.2937   1
   6 -10   8 367.417  16.419   2
 -10   6  -8 328.049  15.570   2
  10  -6  -8 350.565  15.463   1
  -4  -6   8 312.509  14.058   2
  -4  -6   8 329.519  14.223   2
   6 -10   8 356.321  16.652   1
  -6  10   8 320.580  15.927   1
   4 -10  -8 339.532  15.833   2
  -4  10  -8 324.350  15.391   1
 -10   4   8 337.607  15.250   2
 -10   4   8 359.580  15.825   1
   4 -10  -8 328.487  16.501   1
  10  -4   8 344.552  14.896   1
  -4  -6  -8 347.229  15.222   1
  -6  -4   8 309.552  13.720   2
  10  -6   8 333.886  15.635   1
   6 -10  -8 336.134  16.482   1
 -10   4  -8 319.263  15.280   2
  10  -4  -8 351.768  14.737   1
 -10   6   8 356.625  16.228   1
  -4  -6  -8 314.156  14.266   2
   4 -10   8 367.030  16.268   2
  -4  10   8 306.810  15.445   1
   4 -10   8 341.215  16.494   1
  -6  -4   8 316.497  13.789   2
   6 -10  -8 330.221  15.864   2
 -10   6   8 342.988  15.894   2
  -6  10  -8 310.427  15.748   1
 -10   3   8 188.889  10.018   2
  -3  -7   8 162.374   9.344   2
   3 -10  -8 191.703  11.697   1
  -3  10  -8 175.895   9.885   1
 -10   3   8 186.193  10.612   1
   3 -10  -8 177.936  10.601   2
  10  -7  -8 195.989  10.825   1
  -3  -7   8 170.573   9.306   2
   7 -10   8 182.916  11.957   1
  -7  10   8 177.091  11.340   1
  10  -3   8 197.772   9.110   1
  10  -7   8 181.080  10.900   1
   7 -10  -8 174.071  11.668   1
 -10   7   8 209.564  11.662   1
  -3  10   8 163.006  10.162   1
  -7  -3   8 172.265   8.531   2
   3 -10   8 204.461  11.665   1
  -7  10  -8 176.620  10.627   1
   3 -10   8 180.139  11.077   2
  -3  -7  -8 182.091   9.635   2
   8 -10   8 89.1593  8.4360   1
   2 -10  -8 74.0743  6.9745   2
  -2  10  -8 84.0722  6.7714   1
 -10   2   8 81.5188  6.4071   2
  -2  -8   8 87.6546  6.4652   2
  -8  10   8 98.0509  8.3391   1
   2 -10  -8 86.9760  7.9998   1
  10  -8  -8 89.4308  7.6236   1
 -10   8   8 93.3301  8.0794   1
  -8  -2   8 92.2919  5.9111   2
   8 -10  -8 91.0780  8.4214   1
  10  -8   8 94.6162  7.9284   1
   2 -10   8 101.501   7.994   1
   2 -10   8 103.799   7.729   2
  -2  -8  -8 90.5767  6.6159   2
  -2  10   8 89.8255  6.9121   1
  -8  10  -8 83.6957  7.6075   1
  10  -9  -8 -2.3183  5.3197   1
   1 -10  -8 2.61087 4.89620   2
  -1  10  -8 3.95410 3.42713   1
   1 -10  -8 7.84182 5.52077   1
   9 -10   8 9.92950 6.26045   1
 -10   1   8 7.97209 4.10967   2
  -9  10   8 7.13826 5.82065   1
  -1  -9   8 5.14764 4.71405   2
  -9  10  -8 -1.3597  4.9768   1
   1 -10   8 5.73369 5.27931   2
  10  -9   8 4.71010 5.66873   1
   1 -10   8 -3.2002  5.3231   1
  -1  10   8 5.63039 4.18569   1
 -10   9   8 -2.5215  5.4991   1
  -1  -9  -8 0.47747 4.74550   2
   9 -10  -8 4.08051 5.87455   1
  -9  -1   8 6.26505 3.56924   2
 -10  10  -8 14.8534  5.5271   1
   0  10   8 13.1790  3.2838   1
  10 -10   8 20.5809  6.3992   1
  10 -10  -8 8.61111 5.99319   1
   0 -10  -8 17.8507  5.2797   2
 -10   0   8 14.8418  4.1057   2
   0 -10   8 9.93862 5.32306   2
 -10  10   8 15.7199  6.2636   1
  -5  11  -8 5.10818 4.90371   1
 -11   5   8 6.73788 5.13934   2
   5 -11  -8 5.63361 6.04658   1
  -5  -6   8 4.05629 3.66088   2
 -11   5   8 2.62153 4.96992   1
  11  -5   8 8.76909 4.56914   1
  -5  -6   8 8.34402 3.49514   2
   6 -11   8 7.18507 6.28601   1
  11  -6  -8 10.0160  4.4949   1
  -6  11   8 6.16530 5.40213   1
  -6  11  -8 10.0768  5.1031   1
  -6  -5   8 10.8635  3.5040   2
   6 -11  -8 14.2192  6.3867   1
  11  -6   8 5.79667 4.84509   1
 -11   5  -8 10.0240  4.9072   2
  11  -5  -8 6.95380 4.10262   1
   5 -11   8 8.23842 6.27594   1
  -6  -5   8 4.57877 3.15471   2
  -5  11   8 5.77520 5.16693   1
 -11   6   8 2.60992 5.08273   1
   5 -11   8 4.06236 6.03383   2
   4 -11  -8 145.337  10.145   2
  11  -4   8 153.187   8.423   1
  -4  -7   8 152.762   8.428   2
   4 -11  -8 149.838  10.930   1
  -4  11  -8 151.985   9.349   1
 -11   4   8 155.451   9.460   2
   7 -11   8 157.822  11.148   1
  -4  -7   8 144.978   8.142   2
 -11   4   8 152.077  10.104   1
  11  -7  -8 153.314   9.648   1
  -7  11   8 161.739  10.569   1
   7 -11  -8 160.267  11.287   1
  -7  -4   8 145.286   7.418   2
 -11   4  -8 156.435   9.668   2
   4 -11   8 165.659  10.680   2
  11  -7   8 148.531   9.898   1
  -7  11  -8 146.671   9.944   1
   4 -11   8 168.546  11.230   1
 -11   7   8 138.601  10.720   1
  -4  -7  -8 141.534   8.537   2
  -4  11   8 147.904   9.591   1
  -3  -8   8 433.226  19.016   2
   3 -11  -8 484.792  21.183   1
  11  -8  -8 473.914  20.515   1
  -8  11   8 461.048  20.980   1
   8 -11   8 465.894  21.441   1
   3 -11  -8 454.747  20.237   2
 -11   3   8 455.407  19.475   2
  -3  11  -8 456.363  19.561   1
  -8  -3   8 424.066  18.233   2
   8 -11  -8 466.048  21.420   1
  -8  11  -8 440.733  20.523   1
  -3  -8  -8 450.978  19.226   2
   3 -11   8 506.789  20.710   2
   3 -11   8 471.748  21.042   1
  -3  11   8 434.464  19.710   1
  11  -8   8 470.653  20.559   1
 -11   8   8 495.738  21.192   1
   2 -11  -8 44.7220  6.2311   2
  -9  11   8 57.6854  7.2720   1
   2 -11  -8 44.3785  7.0119   1
  11  -9  -8 39.1243  6.4326   1
  -2  11  -8 46.2039  4.9031   1
 -11   2   8 43.7686  5.3527   2
   9 -11   8 48.5438  7.5869   1
  -2  -9   8 36.9340  5.5556   2
 -11   9   8 41.4772  6.9232   1
  -9  -2   8 43.8969  4.2358   2
   2 -11   8 56.0598  6.9596   1
   9 -11  -8 34.8271  7.0440   1
  -9  11  -8 45.8684  6.4456   1
  -2  11   8 44.4226  5.4917   1
   2 -11   8 54.7370  6.8630   2
  -2  -9  -8 51.5073  5.7680   2
  11  -9   8 39.6472  6.6619   1
  10 -11   8 92.2417  8.8383   1
  -1  11  -8 87.9299  5.5506   1
 -10  11   8 90.6047  8.7067   1
  11 -10  -8 104.364   8.570   1
 -11  10  -8 82.8482  7.9245   1
  -1 -10   8 97.4059  7.3080   2
 -11   1   8 87.0629  6.9918   2
   1 -11  -8 78.2242  7.3762   2
 -10  -1   8 75.2822  6.2176   2
  11 -10   8 90.6505  8.4487   1
  -1  11   8 86.5570  6.7039   1
 -10  11  -8 82.6840  7.9894   1
 -11  10   8 108.491   8.961   1
  -1 -10  -8 97.2017  7.3492   2
   1 -11   8 107.669   8.013   2
  10 -11  -8 80.6134  8.5657   1
  11 -11  -8 46.4438  7.4287   1
 -11  11   8 43.8952  7.5322   1
 -11   0   8 46.3244  4.9856   2
   0 -11  -8 48.9264  6.2043   2
  11 -11   8 43.0503  7.4650   1
   0 -11   8 40.0068  6.3393   2
 -11  11  -8 33.6758  6.4638   1
   6 -12   8 102.421   9.228   1
  -6  -6   8 77.3346  5.9760   2
  12  -6  -8 93.4024  7.5043   1
  -6  12   8 107.174   8.228   1
  12  -6   8 96.1827  7.2101   1
 -12   6   8 83.0657  7.7728   1
   6 -12  -8 86.9604  8.8752   1
  -6  12  -8 98.0922  7.7703   1
  -5  12  -8 216.404  11.705   1
   7 -12   8 198.093  13.560   1
  -5  -7   8 210.476  10.326   2
  12  -7  -8 221.963  11.778   1
  -5  -7   8 203.853  10.182   2
  12  -5   8 224.681  10.961   1
  -7  12   8 224.305  12.560   1
   5 -12  -8 219.345  13.351   1
   7 -12  -8 220.187  13.511   1
  -7  12  -8 223.555  12.288   1
 -12   7   8 250.547  13.083   1
  12  -7   8 231.814  11.941   1
   5 -12   8 227.382  13.684   1
  -5  12   8 216.234  12.100   1
  -5  -7  -8 215.031  10.568   2
  -7  -5   8 214.887   9.663   2
 -12   4   8 51.2861  6.1589   2
  12  -8  -8 59.4873  6.5290   1
  12  -4   8 51.9937  4.2626   1
   8 -12   8 47.1260  7.9783   1
  -4  -8   8 39.6275  5.4284   2
  -8  12   8 54.4561  7.4832   1
   4 -12  -8 61.9033  7.7528   1
  -4  -8   8 49.2255  5.1970   2
  -4  12  -8 54.7064  6.1159   1
  -4  12   8 57.8515  6.4507   1
   8 -12  -8 64.0907  8.1401   1
  12  -8   8 60.2477  6.8571   1
  -8  12  -8 55.6378  6.9601   1
   4 -12   8 58.5300  7.8235   1
   4 -12   8 55.2656  7.5788   2
 -12   8   8 59.5613  7.3252   1
  -4  -8  -8 58.7132  5.6351   2
 -12   4  -8 53.4355  6.2828   2
 -12   3   8 17.7982  5.0539   2
  12  -9  -8 23.9227  5.8544   1
   3 -12  -8 17.8093  6.6707   1
  -3  12  -8 15.3239  4.5566   1
  -3  -9   8 13.6011  4.7108   2
   3 -12  -8 18.2775  5.9697   2
  -9  12   8 0.99101 6.18261   1
   9 -12   8 11.3704  6.9438   1
  -3  -9  -8 7.83193 4.84416   2
  -3  12   8 20.7723  5.1671   1
  -9  12  -8 28.1367  6.0115   1
  12  -9   8 8.38688 5.95952   1
 -12   9   8 14.0515  6.3441   1
  -9  -3   8 16.3254  3.5090   2
   9 -12  -8 19.8416  6.8636   1
   3 -12   8 8.84688 6.14802   2
  10 -12   8 14.0854  7.1259   1
 -10  12   8 19.3327  6.5846   1
   2 -12  -8 -2.5364  5.3437   2
  12 -10  -8 6.13865 5.82759   1
 -12  10  -8 19.1240  6.0793   1
  -2 -10   8 9.95287 5.16429   2
  -2  12  -8 14.1351  3.9010   1
 -12   2   8 11.0861  4.8318   2
 -10  -2   8 10.2860  3.6500   2
   2 -12   8 11.0586  6.2395   2
  12 -10   8 5.59578 6.07816   1
 -10  12  -8 7.63845 5.60235   1
  10 -12  -8 9.58575 6.62280   1
  -2 -10  -8 11.1433  5.1651   2
 -12  10   8 17.1093  6.4688   1
  -2  12   8 11.9735  4.6225   1
   1 -12  -8 15.9286  5.9078   2
  -1 -11   8 19.3769  5.7412   2
 -12  11  -8 25.5134  6.4769   1
  11 -12   8 23.4578  7.2593   1
  12 -11  -8 17.5305  6.5101   1
 -11  12   8 14.8012  7.0226   1
 -12   1   8 11.5967  4.6858   2
  -1 -11  -8 16.4868  5.5977   2
  11 -12  -8 12.1393  6.7890   1
 -11  -1   8 22.6271  4.3029   2
  12 -11   8 20.3265  6.7678   1
   1 -12   8 12.9766  6.1509   2
 -12  11   8 21.0533  6.9578   1
 -11  12  -8 25.6182  6.2915   1
   0 -12  -8 105.782   8.343   2
  12 -12  -8 112.059   9.761   1
 -12  12   8 109.999   9.873   1
  12 -12   8 110.039   9.913   1
 -12  12  -8 108.469   9.304   1
 -12   0   8 104.358   7.449   2
   0 -12   8 119.427   8.757   2
  -6  -7   8 9.97532 3.69529   2
  -6  -7   8 3.97885 3.84242   2
  13  -7  -8 3.17064 4.51098   1
  -7  13   8 2.30172 5.67767   1
  13  -6   8 7.67575 4.56273   1
   6 -13  -8 5.17446 6.99625   1
   7 -13   8 7.70418 6.96622   1
  -6  13  -8 8.55216 5.48702   1
  -6  13   8 -4.9759  5.5197   1
  -7  -6   8 6.84567 3.28098   2
   6 -13   8 4.21093 7.01926   1
  13  -6  -8 -2.4594  3.9064   1
  -6  -7  -8 6.18404 4.09638   2
  -7  13  -8 8.36604 5.39301   1
  13  -7   8 6.18909 5.05390   1
   7 -13  -8 2.78892 6.93768   1
   8 -13   8 4.67262 7.08358   1
  -5  -8   8 9.71258 4.16662   2
  -5  13  -8 13.6873  5.1671   1
  -8  13   8 -5.1370  5.8121   1
   5 -13  -8 8.34789 6.76733   1
  -5  -8   8 15.2778  4.5871   2
  13  -5   8 3.46075 3.55438   1
  13  -8  -8 10.7022  5.1271   1
  13  -8   8 2.15989 5.48021   1
 -13   8   8 3.44961 5.81299   1
   5 -13   8 5.29077 6.85214   1
   8 -13  -8 2.83688 6.76714   1
  -5  13   8 2.36256 5.47760   1
  -5  -8  -8 2.16368 4.58120   2
  -8  13  -8 -1.8323  5.4124   1
  -9  13   8 3.22665 6.33202   1
  -4  13  -8 4.08207 4.74738   1
  -4  -9   8 -0.3139  4.3919   2
   4 -13  -8 1.00332 6.67215   1
  13  -9  -8 -2.7452  5.1294   1
   9 -13   8 2.25343 6.84153   1
 -13   9   8 2.49229 6.14470   1
  -4  13   8 -1.6804  4.9634   1
  13  -9   8 3.31325 5.71086   1
  -9  13  -8 -7.9941  5.2850   1
  -4  -9  -8 -6.4425  4.5366   2
   9 -13  -8 1.08264 6.84529   1
 -13  10  -8 55.5841  7.4919   1
  -3  13  -8 66.7394  5.7527   1
 -10  13   8 70.9105  8.3168   1
  10 -13   8 54.8879  8.6593   1
  13 -10  -8 67.1813  7.3501   1
 -13   3   8 56.5183  6.3921   2
  -3 -10   8 60.0507  6.1976   2
 -10  13  -8 52.4014  7.3375   1
  10 -13  -8 64.5837  8.6077   1
 -13  10   8 69.3139  8.1851   1
  -3  13   8 44.9786  6.0728   1
  13 -10   8 63.1450  7.6088   1
  -3 -10  -8 61.2663  6.4649   2
  13 -11  -8 -3.0323  5.7691   1
  11 -13   8 4.18247 7.10201   1
 -11  13   8 -0.8892  6.4032   1
 -13   2   8 4.37565 4.81623   2
 -13  11  -8 15.3988  6.0457   1
  -2 -11   8 11.4170  5.5068   2
  11 -13  -8 -0.8049  6.7327   1
 -11  -2   8 5.88679 3.80578   2
 -13  11   8 1.21459 6.40927   1
  -2  13   8 -3.3768  4.0149   1
   2 -13   8 -9.0410  6.0267   2
  13 -11   8 13.2130  6.3935   1
 -11  13  -8 -7.6953  5.7395   1
  -2 -11  -8 4.84983 5.49361   2
  12 -13   8 10.0190  7.1644   1
   1 -13  -8 4.73158 5.93915   2
  13 -12  -8 6.21331 6.44951   1
 -13   1   8 -0.1663  4.6863   2
 -13  12  -8 1.43648 6.02841   1
 -12  13   8 3.92878 6.84980   1
  -1 -12   8 -7.7313  5.5801   2
   1 -13   8 5.83351 6.34875   2
 -12  13  -8 7.42243 6.31498   1
 -12  -1   8 3.26811 4.12781   2
  -1 -12  -8 3.52828 5.55338   2
 -13  12   8 7.01810 6.98813   1
  13 -12   8 -8.6185  6.1666   1
  12 -13  -8 5.60345 6.80757   1
   0 -13   8 17.4089  6.6466   2
   0 -13  -8 16.9277  6.3074   2
 -13  13  -8 21.3791  7.0550   1
 -13   0   8 26.8630  5.0613   2
 -13  13   8 30.1834  7.9124   1
  13 -13  -8 20.9787  7.2928   1
  13 -13   8 4.62079 7.21161   1
  -7  14   8 79.5772  8.0544   1
  -7  -7   8 87.1450  6.0771   2
   7 -14  -8 72.9281  9.3252   1
   7 -14   8 81.6210  9.5986   1
  14  -7   8 86.2368  7.0428   1
  -7  14  -8 87.8253  8.1347   1
  14  -7  -8 81.2905  6.4434   1
  14  -8  -8 6.11693 4.84741   1
   6 -14  -8 5.73992 7.21310   1
  -6  -8   8 14.1081  4.1621   2
  14  -6   8 15.4504  4.0979   1
  -6  -8   8 14.7849  4.5981   2
  -8  14   8 17.5472  6.2327   1
   8 -14   8 0.69664 7.34081   1
  -6  14  -8 19.9503  5.6476   1
   6 -14   8 13.1248  7.4184   1
   8 -14  -8 15.4138  7.6295   1
  -6  14   8 4.40598 5.80704   1
  14  -8   8 13.2296  5.5440   1
  -8  14  -8 11.6615  6.0011   1
  -6  -8  -8 15.3179  4.7631   2
 -14   9  -8 17.6296  6.2278   1
  14  -9  -8 18.0155  5.6577   1
  -5  -9   8 15.4739  4.6715   2
  -5  14  -8 25.4028  5.5682   1
  -9  14   8 22.4830  6.9601   1
   9 -14   8 12.6727  7.5455   1
  -5  14   8 24.9330  5.9631   1
   9 -14  -8 21.7646  7.7799   1
  -5  -9  -8 13.3197  4.9556   2
  14  -9   8 22.5627  6.4083   1
  -9  14  -8 16.7479  6.1626   1
  10 -14   8 18.9690  8.0133   1
 -10  14   8 21.2992  7.3573   1
  14 -10  -8 27.4453  6.2566   1
 -14  10  -8 23.9613  6.5495   1
  -4  14  -8 28.9353  5.3302   1
  -4 -10   8 24.9860  5.3159   2
  14 -10   8 18.8305  6.5398   1
 -14  10   8 10.9235  6.9891   1
  -4 -10  -8 25.1676  5.4698   2
  -4  14   8 16.4973  5.5497   1
 -10  14  -8 20.8472  6.5421   1
  10 -14  -8 19.4778  7.8452   1
  -3 -11   8 45.7596  6.4799   2
  11 -14   8 54.4430  8.8678   1
 -11  14   8 51.4498  8.6257   1
 -14  11  -8 56.2200  7.9516   1
  -3  14  -8 58.8994  5.0805   1
  14 -11  -8 60.7175  7.6574   1
  11 -14  -8 57.0640  8.8658   1
  14 -11   8 55.6769  7.9143   1
 -14  11   8 65.9058  8.6349   1
  -3  14   8 39.5397  5.8779   1
  -3 -11  -8 57.5375  6.6588   2
 -11  14  -8 50.1015  7.8600   1
  14 -12  -8 45.9831  7.8265   1
 -12  14   8 49.4399  8.5121   1
  12 -14   8 43.5807  8.7025   1
  -2 -12   8 46.7192  6.8013   2
 -14  12  -8 44.4601  7.6200   1
 -12  14  -8 42.2118  7.5323   1
  14 -12   8 37.8346  7.7331   1
  12 -14  -8 43.3566  8.4614   1
 -14  12   8 63.0447  8.7412   1
  -2 -12  -8 32.6807  6.4753   2
 -12  -2   8 35.3605  4.8372   2
 -14  13  -8 17.7067  7.1407   1
 -13  14   8 31.6926  8.3163   1
  14 -13  -8 26.7153  7.5957   1
 -14   1   8 18.6209  5.5080   2
  -1 -13   8 18.7444  6.7288   2
  13 -14   8 24.7110  8.2085   1
  13 -14  -8 26.8411  7.9045   1
  14 -13   8 15.5711  7.3377   1
 -13  14  -8 11.3933  7.0826   1
  -1 -13  -8 21.3968  6.4643   2
 -13  -1   8 18.0226  4.8838   2
 -14  13   8 24.8551  8.2089   1
 -14  14  -8 86.8268  9.6737   1
 -14   0   8 92.7170  7.2767   2
 -14  14   8 119.006  11.271   1
  15  -7   8 21.6384  4.6796   1
  -8  15   8 20.8299  6.8556   1
  -7  -8   8 32.6666  4.5176   2
  -7  15  -8 29.0596  6.5119   1
   8 -15   8 38.1013  8.6743   1
  15  -8  -8 26.4124  5.1821   1
   7 -15  -8 23.8078  8.3135   1
  -7  -8   8 24.3986  4.8000   2
  -7  -8  -8 23.9362  5.1619   2
   8 -15  -8 36.5378  8.6618   1
  -7  15   8 25.4822  6.9129   1
  15  -8   8 32.6566  5.7629   1
  -8  15  -8 30.1526  6.7552   1
   7 -15   8 23.2315  8.4352   1
  -6  -9   8 17.6783  4.7745   2
   9 -15   8 21.4509  8.5315   1
  15  -9  -8 26.9862  5.6635   1
  -9  15   8 21.0039  7.0684   1
  -6  15  -8 27.5070  6.1996   1
  -6  -9   8 17.1477  5.1107   2
  15  -9   8 27.4557  6.3671   1
  -6  -9  -8 12.1979  5.2053   2
  -6  15   8 28.6671  6.4877   1
  -9  15  -8 13.2343  6.6788   1
   9 -15  -8 13.8774  8.1406   1
  -5  15  -8 19.6364  5.7569   1
  10 -15   8 31.2912  8.8868   1
  -5 -10   8 32.9326  5.5124   2
 -10  15   8 27.2219  7.6771   1
  15 -10  -8 18.9218  6.2306   1
  15 -10   8 33.1362  6.8527   1
  10 -15  -8 32.7811  8.7955   1
  -5  15   8 33.9451  6.2148   1
 -10  15  -8 44.1378  7.4413   1
  -5 -10  -8 23.1318  5.7703   2
  15 -11  -8 165.944  11.666   1
  -4 -11   8 149.403  10.188   2
  11 -15   8 177.028  13.672   1
 -11  15   8 171.539  12.875   1
 -15  11  -8 188.883  12.466   1
  -4  15  -8 153.459   9.305   1
 -11  15  -8 172.344  11.908   1
  15 -11   8 153.828  11.629   1
  11 -15  -8 158.634  12.754   1
  -4  15   8 149.635  10.110   1
  -4 -11  -8 156.058  10.398   2
  12 -15   8 79.9580 10.2758   1
 -12  15   8 61.0066  9.3286   1
 -15  12  -8 52.7281  8.4511   1
  -3 -12   8 62.5490  7.1972   2
  -3 -12  -8 63.4353  7.3283   2
 -12  -3   8 55.9312  5.3742   2
 -15  12   8 70.6405  9.2828   1
  12 -15  -8 65.1745  9.6303   1
 -15  13  -8 6.70160 7.26896   1
   8 -16  -8 41.1453  9.5087   1
   9 -16   8 -2.3294  8.4201   1
  -7  16  -8 -0.5584  5.8696   1
  16  -9  -8 -1.1913  4.8833   1
  -7  -9   8 -8.3639  4.7037   2
  -7  -9  -8 3.73898 5.13802   2
   9 -16  -8 -7.8156  8.1862   1
  16  -9   8 -0.7753  5.3681   1
  16 -10  -8 2.02581 5.32790   1
  10 -16   8 -1.1743  8.4455   1
  -6  16  -8 0.35350 5.71054   1
  -6  16   8 -1.7895  5.9021   1
  -6 -10  -8 5.17111 5.29380   2
  10 -16  -8 6.77893 8.45569   1
  16 -10   8 -4.5118  5.8599   1
   0   0  -9 5.44920 3.25332   2
   0   0   9 0.43844 3.48676   1
   0   0   9 -1.2418  3.5454   1
   0   0  -9 -3.3730  3.1419   1
   0   0   9 4.19943 3.32340   2
   1   0  -9 417.963  17.362   1
   1  -1  -9 422.907  17.423   1
  -1   0  -9 448.330  17.753   1
  -1   1   9 411.775  17.325   2
  -1   0   9 422.451  17.718   1
  -1   0  -9 433.100  17.289   2
  -1   1   9 399.373  17.691   1
   1   0  -9 419.478  17.072   2
   1  -1   9 409.270  17.590   1
   1  -1  -9 415.691  17.558   1
  -1   1  -9 430.435  17.679   1
   0   1   9 397.002  17.698   1
   0   1  -9 427.530  17.623   1
   0   1   9 441.949  17.390   2
  -1   0   9 424.580  17.697   1
   0  -1   9 395.590  17.687   1
   0  -1   9 402.542  17.557   1
   1  -1  -9 429.827  17.162   2
  -1   1   9 435.417  17.692   1
  -1   1  -9 420.691  17.262   2
   1   0   9 401.144  17.563   1
   0  -1  -9 437.036  17.672   1
   1  -1   9 439.578  17.829   1
   0   1  -9 429.887  17.166   2
   0  -1  -9 409.585  17.202   2
   1   0   9 415.689  17.672   1
   0  -1  -9 393.121  17.506   1
   0   1   9 397.396  17.622   1
  -1  -1  -9 -1.0814  3.2950   2
   1   1  -9 -1.8313  2.9866   2
  -1   2   9 -1.9659  3.6831   1
  -1  -1   9 3.12361 3.44770   2
   1   1  -9 2.37156 3.03795   1
   1   1   9 -3.2744  3.4578   1
  -1   2  -9 -5.0726  3.0874   1
   2  -1  -9 -1.5534  3.4921   1
  -1  -1   9 4.67065 3.70521   1
   2  -1   9 2.10706 3.49449   1
  -2   1  -9 2.69603 3.14549   1
  -1  -1  -9 -1.7154  3.5280   1
   2  -1   9 -2.3755  3.5341   1
   1  -2   9 -4.6245  3.5694   1
   1  -2  -9 2.21277 3.50615   1
   1  -2  -9 -0.0632  3.0676   1
  -1   2   9 -0.3536  3.4691   2
  -2   1   9 4.99964 3.71167   1
   1   1   9 2.70192 3.47361   1
  -1  -1  -9 1.97334 3.23190   1
  -2   1   9 -3.6830  3.5947   1
  -1   2  -9 -0.8478  3.1173   2
   1  -2  -9 -1.8987  3.1120   2
  -2   1  -9 2.25297 3.17739   2
  -2   1   9 -0.3906  0.8397   2
   2  -1  -9 1.03128 3.08731   1
   2  -1  -9 -0.7768  3.0701   2
  -1   2   9 -2.3605  3.6032   1
  -2   0   9 84.5426  6.7225   1
   0  -2   9 104.161   6.937   1
   0   2   9 92.4664  6.7778   1
   2  -2   9 96.5791  6.7519   1
   0  -2  -9 79.5308  5.9115   1
  -2   2   9 79.2720  6.4205   2
   2  -2  -9 91.2157  6.8183   1
  -2   2  -9 97.3115  6.6665   1
   2  -2  -9 101.631   6.467   1
   2  -2  -9 91.0784  6.1170   2
   0   2  -9 85.9801  6.5164   1
  -2   2   9 89.3686  6.8527   1
   0   2   9 84.6494  6.9170   1
   0  -2  -9 85.9554  6.2184   2
  -2   0   9 85.1401  6.3339   2
   2   0   9 82.2929  6.5280   1
   2   0  -9 87.8590  6.1919   1
   2   0  -9 90.3018  5.7646   2
  -2   2  -9 83.9453  6.0003   2
   0  -2  -9 99.2114  6.7587   1
  -2   0  -9 82.8054  6.0196   2
  -2   2   9 95.5745  7.2047   1
   2   0   9 87.4355  6.8587   1
   0   2  -9 84.3724  5.9737   2
   3  -2  -9 77.9887  6.2335   1
  -2   3   9 65.8631  5.3376   2
  -3   1   9 76.8874  5.7277   1
   1  -3  -9 70.4072  5.6676   1
  -2   3   9 79.4002  5.9734   1
  -1  -2   9 73.8231  5.6528   1
  -2  -1  -9 78.8909  5.7261   1
   2  -3   9 80.5395  5.8204   1
   3  -1   9 80.5630  5.6084   1
  -1   3  -9 71.8113  5.6542   2
   2   1  -9 69.0576  5.1096   2
   2   1  -9 75.7241  5.7468   1
  -2  -1  -9 75.3110  5.2417   2
  -1   3  -9 82.5152  5.4722   1
   1   2   9 78.6247  5.5635   1
   1  -3  -9 78.6336  5.3914   2
  -2   3   9 77.3720  5.7699   1
   1   2   9 65.6542  5.5726   1
   3  -1   9 88.1912  6.7573   1
   3  -2  -9 73.5612  5.0438   2
  -1  -2   9 76.4169  5.4678   2
  -1   3  -9 72.0431  5.0252   2
  -3   1   9 77.0087  5.4531   2
   3  -2  -9 67.2508  5.4630   1
   1  -3   9 78.4787  5.8075   1
   3  -2   9 78.8676  5.8176   1
  -3   2   9 84.1022  5.9610   1
   3  -1  -9 72.5475  5.1859   1
  -2  -1   9 73.3150  5.2876   2
   1   2  -9 79.1226  5.2669   2
  -2   3  -9 72.2177  5.2733   1
   1   2  -9 77.9829  5.8634   1
   2  -3  -9 70.0188  5.2331   2
  -1  -2  -9 75.6964  5.3378   2
   2   1   9 74.6515  5.3407   1
  -1   3   9 70.7827  5.7539   1
   2  -3  -9 83.9020  5.6679   1
  -1  -2  -9 81.1735  6.4593   1
   3  -1  -9 76.2655  5.4883   2
   2  -3  -9 71.4600  5.6861   1
  -1   3   9 81.3329  5.7536   1
  -2  -1   9 84.1398  5.7858   1
  -2   3  -9 60.4786  5.0646   2
  -2   3  -9 73.6661  5.1675   2
   1   2  -9 71.4002  5.1019   2
   2   1   9 77.5447  5.6285   1
  -1   3   9 74.3269  5.3832   2
   3  -3   9 576.576  24.458   1
   0   3  -9 593.868  23.679   2
   3  -3  -9 610.719  24.043   2
   0   3   9 597.532  24.485   1
   0   3  -9 599.898  23.712   2
  -3   3   9 631.491  24.904   1
  -3   0   9 592.882  24.073   2
   3  -3  -9 634.484  24.453   1
   3   0  -9 605.350  23.528   2
  -3   0   9 595.287  24.414   1
   0  -3   9 612.728  24.550   1
   0  -3  -9 585.186  24.056   2
  -3   3   9 613.784  24.671   1
   3   0   9 579.552  24.232   1
   0   3   9 582.340  24.395   1
  -3   3  -9 634.572  24.494   1
  -3   3   9 607.470  24.253   2
   3   0  -9 643.925  24.144   1
   3   0   9 611.168  24.434   1
   0   3  -9 619.418  24.315   1
   0  -3  -9 585.187  24.397   1
   3  -3  -9 582.873  24.419   1
  -2   4   9 -0.7056  3.8406   1
  -2  -2  -9 1.64022 3.62860   1
  -2  -2   9 -2.2169  3.4094   2
   4  -2  -9 2.30282 3.52335   1
   2  -4  -9 0.63136 3.87664   1
  -2   4   9 3.06984 3.80895   1
   2   2  -9 -2.9904  2.7561   1
  -4   2   9 -1.7462  3.5209   2
   4  -2  -9 0.30674 3.11190   1
  -4   2   9 -0.6301  3.8720   1
  -2   4  -9 1.93297 3.22624   1
   2   2   9 2.60851 3.29087   1
  -2   4  -9 4.59681 3.28554   2
   4  -2  -9 -1.5600  2.8831   2
  -2   4   9 6.51509 3.66638   2
  -2   4  -9 6.62559 3.27475   2
  -2  -2   9 4.80914 3.79158   1
   2  -4   9 -5.0649  3.8609   1
  -2  -2  -9 1.23077 3.45331   2
   2  -4  -9 -3.4473  3.4397   2
   4  -2   9 4.38141 3.62823   1
   2   2   9 5.88394 3.59021   1
   4  -1   9 45.7268  4.7076   1
  -1  -3   9 35.1177  4.6091   1
   3   1  -9 43.3960  3.8907   1
   1   3   9 44.4929  4.5432   1
  -1   4  -9 34.8742  3.9349   2
  -3   4   9 44.9948  5.1734   1
   1   3   9 32.4690  4.3842   1
  -1   4  -9 43.9073  4.5270   1
   4  -3  -9 50.7282  4.5356   1
  -1   4  -9 45.9359  4.0447   2
  -3   4   9 37.9475  4.5202   2
   4  -1   9 50.6583  4.6042   1
   1  -4  -9 33.2743  4.7082   1
  -4   1   9 46.7712  4.9073   1
   4  -3  -9 43.4883  4.1696   2
  -1  -3   9 38.0572  4.4501   2
   3  -4   9 39.3348  5.0014   1
  -3   4   9 34.9695  4.8787   1
   4  -3  -9 30.7362  4.5396   1
  -4   1   9 39.3921  4.5750   2
   1  -4  -9 39.4378  4.5198   2
  -3  -1   9 42.3086  4.4250   2
   3  -4  -9 39.1533  4.3080   2
   1   3  -9 39.8158  3.4099   2
   3  -4  -9 54.5140  4.7076   1
   3   1   9 40.9339  4.3262   1
  -1  -3  -9 32.5342  4.3187   2
  -1   4   9 34.0098  4.5457   1
  -3   4  -9 31.9290  4.3706   2
  -1   4   9 49.7575  4.5066   2
  -1   4   9 29.0229  4.6422   1
   4  -3   9 38.3956  4.8768   1
   3   1   9 39.8580  4.4614   1
  -1  -3  -9 43.9239  4.7785   1
   3  -4  -9 41.7598  4.9070   1
   1  -4   9 36.2929  4.8615   1
  -3   4  -9 47.4821  4.5204   1
  -4   3   9 37.7313  4.9438   1
  -3  -1   9 40.9204  4.6932   1
   4  -1  -9 40.2023  3.5195   2
   4  -1  -9 37.4237  4.0612   1
   1   3  -9 34.6965  3.8877   1
   0   4   9 229.646  11.132   1
   4   0  -9 236.734  10.452   1
  -4   4   9 226.021  11.447   1
  -4   4   9 229.603  11.146   2
  -4   0   9 240.275  10.879   2
   0   4  -9 238.890  10.964   1
   4  -4  -9 237.264  11.289   1
   4  -4  -9 241.903  10.917   2
   4  -4   9 216.533  11.530   1
   0  -4   9 234.189  11.359   1
   4   0   9 216.179  10.818   1
   0   4  -9 222.798  10.103   2
  -4   4  -9 212.092  10.791   2
   0  -4  -9 226.569  10.741   2
  -4   0   9 228.620  11.125   1
   4   0   9 236.572  11.031   1
   4  -4  -9 221.587  11.233   1
   0  -4  -9 216.835  11.218   1
   0   4   9 235.383  11.239   1
  -2  -3   9 25.2586  4.2289   1
   2  -5  -9 21.1124  4.6937   1
   5  -2   9 22.8943  4.3816   1
   5  -3  -9 24.1285  4.2242   1
   3  -5   9 19.4104  4.7437   1
  -3   5   9 13.2290  4.5728   1
  -2   5  -9 16.9925  3.7467   2
  -3  -2  -9 17.1632  4.1659   1
   2  -5  -9 17.2714  4.1628   2
   5  -2   9 28.5020  4.3605   1
   5  -3  -9 22.1863  3.6621   2
  -3   5   9 17.4926  4.1123   2
  -2   5  -9 16.4634  3.7802   1
   3   2  -9 22.9563  3.1643   1
   2   3   9 20.8488  3.7958   1
  -5   2   9 16.7800  4.1519   2
  -5   2   9 26.5078  4.4739   1
  -3   5   9 25.9476  4.7068   1
   2   3   9 19.3957  3.7857   1
   5  -3  -9 9.36465 3.66426   1
  -2  -3   9 16.3346  4.0416   2
  -2   5  -9 21.0739  3.7846   2
  -3   5  -9 20.7878  3.9745   1
   3   2   9 20.6864  3.8111   1
  -2  -3  -9 15.8884  3.8897   2
   5  -2  -9 17.4562  3.5536   1
  -2  -3  -9 22.4952  4.2406   1
  -2   5   9 18.8318  4.3129   1
   2  -5   9 24.1674  4.8844   1
  -5   3   9 23.1426  4.3028   2
   5  -3   9 18.2283  4.3229   1
   3  -5  -9 16.1977  4.5083   1
   3  -5  -9 15.3653  3.9724   2
  -3  -2   9 18.2274  3.9030   2
  -2   5   9 18.1935  4.1016   2
  -3  -2   9 15.6011  4.1859   1
  -3   5  -9 13.7788  3.9232   2
  -5   3   9 20.7848  4.6495   1
  -2   5   9 22.6970  4.5909   1
   5  -2  -9 19.7310  4.0276   1
   5  -2  -9 24.5001  3.2236   2
   2   3  -9 13.6585  3.2096   1
   3   2   9 21.1792  3.7262   1
   5  -4  -9 106.430   7.284   2
  -1  -4   9 108.362   7.209   2
  -1   5  -9 111.588   7.688   1
   1  -5  -9 109.937   7.174   2
  -4   5   9 104.266   7.595   2
  -5   1   9 102.326   7.128   2
  -5   1   9 112.640   7.715   1
   5  -1   9 121.689   7.587   1
   4   1  -9 111.606   6.250   1
   1  -5  -9 107.158   7.959   1
  -1  -4   9 113.302   7.843   1
   4  -5   9 96.6338  7.9548   1
   5  -1   9 111.848   7.334   1
  -1   5  -9 109.684   6.599   2
   5  -4  -9 114.558   7.886   1
  -5   4  -9 115.151   7.427   2
   1   4   9 105.488   7.228   1
   5  -4  -9 112.155   7.736   1
  -4   5   9 113.630   8.176   1
   1   4   9 106.365   7.144   1
  -1   5   9 109.303   7.686   1
  -4  -1   9 114.654   7.165   2
  -1  -4  -9 104.461   7.235   2
  -5   4   9 119.436   8.039   1
   5  -4   9 116.386   8.054   1
   4  -5  -9 111.183   7.367   2
  -4   5  -9 111.814   7.447   2
   1  -5   9 105.704   8.220   1
  -1  -4  -9 104.806   7.480   1
  -4  -1   9 106.261   7.262   1
   5  -1  -9 117.131   6.756   1
   4   1   9 113.797   7.001   1
   4  -5  -9 101.479   8.172   1
   4   1   9 112.491   6.965   1
  -1   5   9 92.9745  7.3790   1
   1   4  -9 109.415   6.737   1
  -5   0   9 7.53476 3.94822   2
   5   0   9 3.50738 3.53996   1
   5  -5  -9 4.62060 3.73059   2
   0  -5  -9 7.54572 4.08002   2
  -5   0   9 14.7801  4.2347   1
   0  -5  -9 -0.1991  4.2363   1
   5   0  -9 10.8088  2.9063   1
   5  -5   9 10.5537  4.7084   1
  -5   5   9 7.64248 4.18666   2
   5  -5  -9 3.33029 4.38795   1
   0   5   9 -1.4965  3.7920   1
  -5   5  -9 5.74072 3.96395   2
   5  -5  -9 9.70502 3.99670   1
   0  -5   9 6.61776 4.32659   1
  -5   5   9 6.04927 4.65972   1
   0   5   9 9.68564 3.86421   1
   0   5  -9 4.58709 3.60098   1
   5   0   9 6.23313 3.62055   1
   3   3  -9 1.61005 2.55409   1
  -3   6   9 -1.0113  3.9420   2
   6  -3  -9 -2.1078  3.3676   1
  -3   6  -9 -1.3828  3.6181   1
  -3  -3  -9 2.34416 3.54524   2
  -3   6   9 -0.9797  4.3865   1
   3  -6  -9 -6.9678  4.3963   1
  -6   3   9 -0.4213  4.2492   1
  -3   6  -9 -1.7345  3.4971   2
   3   3   9 0.91591 3.30260   1
  -3  -3   9 4.14869 3.96277   1
  -3   6  -9 2.95423 3.80760   2
   3   3   9 -0.7454  2.8809   1
  -6   3   9 -1.4994  4.1553   2
   6  -3   9 -0.7029  4.0485   1
  -3  -3   9 3.03780 3.72163   2
   6  -3  -9 -0.4457  3.7962   1
  -3  -3  -9 7.10100 4.02484   1
  -3   6   9 1.12296 4.30455   1
   3  -6  -9 2.42216 3.99451   2
   3  -6   9 5.73780 4.69770   1
  -4  -2  -9 114.759   7.652   1
  -6   2   9 108.226   7.524   2
   2   4   9 119.631   7.083   1
   6  -4  -9 118.081   7.813   1
   6  -4  -9 111.901   7.162   2
   2  -6  -9 107.824   8.377   1
   6  -2   9 109.454   7.740   1
   6  -2   9 114.051   7.923   1
  -6   4  -9 114.467   7.679   2
   4  -6   9 105.968   8.566   1
  -2  -4   9 105.269   7.228   2
  -2   6  -9 109.305   7.259   2
   6  -4  -9 114.975   7.668   1
  -2  -4   9 107.935   7.722   1
  -6   2   9 104.393   8.065   1
  -4   6   9 119.389   8.102   2
   4   2  -9 104.987   5.949   1
  -4   6   9 110.355   8.327   1
  -2   6  -9 113.085   7.848   1
   2  -6  -9 120.840   7.545   2
   2   4   9 111.219   6.863   1
  -6   4   9 117.129   8.432   1
  -2  -4  -9 106.082   7.624   1
   6  -2  -9 113.811   7.084   1
  -2  -4  -9 102.632   7.146   2
   4  -6  -9 108.522   7.448   2
  -4   6  -9 129.117   8.382   1
  -4  -2   9 119.086   7.594   1
   4   2   9 117.559   6.785   1
   4  -6  -9 108.807   8.222   1
   2  -6   9 115.463   8.663   1
   6  -4   9 113.120   8.225   1
  -2   6   9 104.932   7.678   1
  -4   6  -9 103.015   7.824   2
  -6   4   9 100.914   7.798   2
  -4  -2   9 103.288   6.973   2
  -2   6   9 100.037   8.139   1
  -1  -5   9 -0.8662  4.1322   2
  -1   6  -9 0.61562 3.68932   1
  -6   1   9 -2.4917  3.8843   2
  -6   5  -9 0.78936 3.95574   2
  -5   6   9 3.99495 4.45033   2
   1  -6  -9 -7.4103  4.4299   1
   6  -1   9 -0.2988  3.6648   1
  -1  -5   9 3.06894 4.25681   1
   1  -6  -9 -3.1572  3.9668   2
  -5   6   9 2.96807 4.71343   1
   6  -5  -9 6.06586 4.39856   1
   6  -5  -9 -0.3339  3.9317   1
   1   5   9 -5.9815  3.6661   1
  -6   1   9 -2.3027  4.1310   1
  -1  -5   9 -1.5247  3.9521   2
   6  -1   9 0.88177 3.58406   1
   1   5   9 0.08345 3.53905   1
   6  -5  -9 2.15334 3.66290   2
   5   1  -9 0.99109 2.49168   1
   5  -6   9 -6.1121  4.6128   1
   5  -6  -9 -4.0482  3.9102   2
  -5  -1   9 -8.6666  3.8908   1
   5   1   9 -0.5506  0.7536   1
  -1  -5  -9 -6.9272  3.8158   2
  -1   6   9 -4.1128  3.9789   1
   1   5  -9 2.60678 2.92206   1
  -6   5   9 -1.3788  1.5490   2
   5  -6  -9 -4.0595  4.5200   1
  -5  -1   9 -1.8489  3.7378   2
  -6   5   9 -5.0311  4.5723   1
   1  -6   9 -3.6097  4.5579   1
   6  -1  -9 -1.8585  2.8553   1
  -1  -5  -9 3.96930 4.48647   1
  -1   6   9 -1.9346  3.9575   1
  -5   6  -9 -0.0777  3.9579   2
   1  -6   9 -3.3295  4.3760   2
   5   1   9 -4.5351  3.1974   1
   6  -5   9 -1.3579  4.4459   1
   6  -6  -9 47.8024  6.0328   1
   0  -6   9 48.3548  5.4783   2
   0   6   9 56.0333  5.2421   1
   0   6  -9 51.9377  4.7459   1
   6   0  -9 50.6557  3.8690   1
   0  -6  -9 43.6943  5.1898   2
   0  -6  -9 55.7157  5.9862   1
  -6   6   9 50.4449  6.2072   1
  -6   6   9 58.1072  5.8041   2
  -6   0   9 43.2934  4.9952   2
  -6   6  -9 51.9347  5.5238   2
  -6   0   9 54.3041  5.4226   1
   6  -6   9 64.0081  6.3270   1
   6  -6  -9 47.6968  5.2850   2
   6   0   9 55.9938  4.6618   1
   0  -6   9 52.5335  5.8381   1
   0   6   9 52.5713  5.2508   1
  -7   3   9 129.144   8.716   1
  -7   3   9 118.137   8.051   2
   7  -4  -9 115.191   8.088   1
   7  -3   9 102.485   8.134   1
   3  -7  -9 126.447   9.068   1
   7  -4  -9 122.227   8.187   1
  -3   7  -9 111.493   8.229   1
  -3  -4   9 124.593   7.950   1
  -4  -3  -9 118.920   7.940   1
   3   4   9 117.840   6.598   1
   4  -7   9 126.248   9.235   1
  -4   7   9 120.995   8.450   2
   3  -7  -9 110.013   8.032   2
  -4   7   9 115.157   8.642   1
  -3   7  -9 120.066   7.724   2
   3   4   9 118.896   6.733   1
  -3  -4   9 114.492   7.494   2
   3  -7   9 115.261   8.926   2
  -3   7   9 128.577   9.214   1
   4  -7  -9 128.325   9.159   1
   7  -3  -9 121.326   7.728   1
  -7   4   9 118.729   8.229   2
  -4  -3   9 129.472   7.813   1
  -4   7  -9 133.455   8.842   1
   7  -3  -9 123.796   8.100   1
   4   3   9 115.087   6.646   1
   7  -4   9 103.085   8.456   1
   4   3   9 115.732   6.364   1
  -3  -4  -9 106.675   7.215   2
   4  -7  -9 118.919   8.114   2
  -4  -3   9 114.382   7.341   2
  -3   7   9 114.618   8.387   1
  -3  -4  -9 124.110   8.034   1
  -4   7  -9 116.948   8.172   2
  -7   4   9 133.696   8.933   1
   3  -7   9 119.259   8.977   1
   3   4  -9 120.410   5.938   1
   2   5   9 -1.5165  3.3581   1
  -2  -5   9 -4.6997  4.1487   1
  -5  -2  -9 -0.1599  4.0984   1
  -2  -5   9 -2.9886  4.1038   2
   2  -7  -9 -1.5964  4.2675   2
  -2  -5   9 2.66392 4.16441   2
   7  -2   9 -0.7878  3.9289   1
  -5   7   9 -0.2869  4.5407   2
   7  -2   9 -0.5755  3.9150   1
  -7   2   9 1.68550 4.45433   1
   7  -5  -9 0.09710 4.04450   1
  -2   7  -9 1.28006 3.72869   1
   7  -5  -9 3.69772 3.68220   2
   7  -5  -9 2.29937 4.37018   1
  -7   2   9 2.33722 4.20197   2
  -5   7   9 -3.6903  4.8191   1
  -7   5  -9 3.91107 4.15160   2
   2  -7  -9 0.82260 4.89008   1
   5  -7   9 5.07876 5.17086   1
   2   5   9 -0.2946  2.4810   1
  -5  -2   9 12.1584  4.1147   1
   7  -5   9 -2.6034  4.5865   1
  -7   5   9 10.5091  4.6354   2
  -5  -2   9 -0.8504  3.8108   2
   2   5  -9 5.55378 2.75451   1
   2   5  -9 -2.7735  2.8199   1
   5  -7  -9 0.36170 4.11750   2
   7  -2  -9 -0.9946  3.2716   1
  -2  -5  -9 -6.9353  4.1810   1
  -5   7  -9 3.28634 4.47164   2
   5   2   9 -0.9314  2.8106   1
  -2   7   9 2.16688 4.51255   1
   5   2   9 -0.1475  2.7301   1
  -2  -5  -9 1.51353 4.10411   2
  -7   5   9 -2.2077  4.6179   1
   5  -7  -9 4.58698 5.06461   1
   2  -7   9 -4.7438  4.7401   2
   2  -7   9 2.41914 4.94203   1
  -2   7   9 -0.0038  4.1298   1
  -7   1   9 9.43738 4.25845   2
  -1  -6   9 -4.5342  4.4704   2
   7  -1   9 7.52356 3.73147   1
  -1   7  -9 8.98285 3.91958   1
  -6   7   9 4.28561 4.73887   2
   7  -6  -9 12.4892  5.0072   1
   1  -7  -9 9.56669 4.51618   2
  -7   1   9 8.90797 4.41958   1
   6  -7   9 3.16092 5.25873   1
  -6   7   9 7.76075 5.22477   1
   1  -7  -9 7.74358 5.12109   1
  -1   7  -9 8.51358 3.95685   1
  -1  -6   9 5.38101 4.59022   1
   1   6   9 0.33905 3.41047   1
   7  -1   9 -0.8089  1.6081   1
   7  -6  -9 7.73457 4.31537   2
   1   6   9 1.34826 3.87690   1
  -7   6  -9 8.17163 4.41812   2
  -6   7  -9 5.56396 4.42211   2
  -1   7   9 7.92277 4.25565   1
  -7   6   9 6.05724 4.53192   2
   6  -7  -9 8.56004 4.42137   2
   1   6  -9 6.09525 3.41444   1
   6   1   9 9.02362 2.91658   1
   6   1   9 6.54775 2.90981   1
  -7   6   9 7.72246 5.16723   1
  -1   7   9 6.07654 4.23390   1
   1   6  -9 0.96897 2.88439   1
   7  -6   9 12.5654  5.2280   1
   1  -7   9 6.84343 4.96637   2
   6  -7  -9 11.0390  5.2244   1
  -1  -6  -9 0.98008 4.25685   2
   7  -1  -9 8.14772 2.92004   1
  -6  -1   9 12.7837  4.2995   1
   1  -7   9 7.53908 5.09172   1
  -6  -1   9 -0.5232  3.9039   2
  -1  -6  -9 6.69708 4.78729   1
   0   7   9 95.2356  7.3352   1
   0  -7   9 109.894   7.669   1
   0   7   9 94.9325  7.5064   1
  -7   7   9 92.3674  7.8344   1
   0  -7  -9 98.0745  7.7233   2
  -7   0   9 99.0665  7.1212   2
   0   7  -9 95.1086  6.5049   1
   7  -7  -9 100.425   7.792   1
  -7   0   9 96.4096  7.6273   1
  -7   7   9 89.3678  7.4971   2
   7  -7   9 110.549   8.123   1
   7  -7  -9 105.552   8.103   2
   0  -7   9 87.4033  7.0419   2
  -7   7  -9 90.9590  7.0828   2
   0   7  -9 98.6576  6.7224   1
   7   0   9 92.7003  6.0818   1
   0  -7  -9 104.201   7.752   1
   7   0   9 102.965   6.066   1
  -8   4   9 7.89452 4.79897   1
   8  -4  -9 5.71275 3.89965   1
   4  -8   9 -5.5477  5.2719   1
  -4  -4  -9 7.48123 4.22940   1
   8  -4  -9 -4.5395  3.9679   1
   4  -8  -9 12.2296  4.7785   2
  -4  -4   9 5.05891 3.96821   2
  -4   8   9 -1.5142  4.9991   1
  -4   8  -9 9.31880 4.09891   2
  -4   8   9 6.42041 4.92146   1
   8  -4   9 5.35716 4.61331   1
   4  -8  -9 3.82921 5.35214   1
   4  -8   9 7.29282 5.42023   2
  -4  -4   9 6.36412 4.32963   1
  -8   4   9 2.62708 4.72642   2
  -4   8  -9 -2.5009  4.1313   1
  -3  -5   9 107.540   7.278   2
  -8   3   9 103.192   8.328   1
   8  -5  -9 114.523   8.459   1
   3   5   9 103.429   5.807   1
   8  -5  -9 115.468   8.193   1
  -3  -5   9 110.561   8.048   1
  -8   5  -9 98.3795  7.1886   2
   3  -8  -9 103.722   8.206   1
   5  -8   9 103.350   8.308   1
  -5  -3  -9 106.388   7.775   1
  -8   3   9 101.966   7.875   2
  -5   8   9 110.717   8.693   1
   8  -3   9 116.163   8.155   1
  -3   8  -9 114.618   8.198   1
   3  -8  -9 91.0814  7.2465   2
  -3  -5   9 92.0905  7.1691   2
   8  -3   9 115.235   7.950   1
  -5   8   9 105.581   8.405   2
  -3   8  -9 109.169   7.849   1
  -8   5   9 102.249   7.870   1
  -3  -5  -9 101.304   7.722   1
  -5  -3   9 103.047   7.475   1
  -3  -5  -9 101.235   7.276   2
  -3   8   9 119.344   9.099   1
   8  -3  -9 103.327   7.554   1
  -5  -3   9 109.531   7.053   2
   3  -8   9 111.190   8.204   1
  -8   5   9 123.493   8.411   2
   3  -8   9 107.304   7.907   2
   5  -8  -9 106.475   8.253   1
  -3   8   9 111.827   8.191   1
   8  -3  -9 103.257   7.234   1
   5  -8  -9 106.158   8.121   2
   8  -5   9 110.370   8.486   1
  -8   2   9 38.1614  5.4581   1
   8  -2   9 45.4094  4.9315   1
   2  -8  -9 51.4771  6.4083   1
  -2  -6   9 37.0275  5.1741   2
   2   6   9 47.2888  4.0872   1
   8  -6  -9 37.3524  5.7183   1
   2   6   9 38.4160  3.8974   1
  -8   2   9 42.2687  5.2372   2
   6  -8   9 49.0654  6.6980   1
  -2   8  -9 43.5770  5.0483   1
  -6   8   9 44.6180  6.2154   1
  -2  -6   9 43.3889  5.2073   2
   8  -6  -9 35.3814  5.5224   1
   8  -2   9 44.1140  4.7273   1
  -2   8  -9 32.7923  4.9544   1
   2  -8  -9 46.0687  5.6974   2
  -2  -6   9 40.7884  5.4636   1
  -6   8   9 48.9676  6.1001   2
  -2  -6  -9 35.2460  5.4574   1
  -8   6   9 43.5144  6.1886   1
   6  -8  -9 43.7489  5.5458   2
   2  -8   9 46.5761  6.1588   2
   6  -8  -9 36.2302  6.3159   1
  -2   8   9 38.4472  5.5097   1
  -6  -2   9 41.7669  4.6408   2
   8  -2  -9 40.5306  3.8932   1
  -6   8  -9 37.2421  5.6001   2
  -8   6   9 51.7319  5.9426   2
   2  -8   9 43.4131  6.2607   1
  -2  -6  -9 46.6629  5.2915   2
  -2   8   9 39.5924  5.2801   1
   8  -6   9 47.4673  6.1969   1
  -6  -2   9 40.7500  5.1455   1
  -1   8  -9 174.668   9.802   1
  -8   7  -9 191.127  10.748   2
  -7   8   9 196.318  11.224   2
   1  -8  -9 190.234  11.012   1
   8  -7  -9 186.141  10.187   2
  -8   1   9 177.069   9.756   2
  -7   8   9 206.013  11.524   1
   1  -8  -9 168.312  10.072   2
   8  -1   9 171.399   8.984   1
  -8   1   9 197.978  10.433   1
  -1   8  -9 177.712   9.482   1
   7  -8   9 185.848  11.375   1
   1   7   9 186.252   9.207   1
   8  -1   9 178.459   8.896   1
  -1  -7   9 173.952   9.909   2
  -1  -7   9 199.980  10.920   1
   1   7   9 179.624   9.206   1
   8  -7  -9 178.527  10.956   1
  -7  -1   9 169.202   9.281   2
   1  -8   9 174.391  11.098   1
  -7   8  -9 191.551  11.093   2
   8  -7   9 169.350  11.144   1
   1   7  -9 173.499   8.339   1
  -1  -7  -9 183.466  10.725   1
   7  -8  -9 192.029  10.654   2
   7  -8  -9 163.232  11.224   1
  -8   7   9 180.174  10.915   2
  -1   8   9 191.425  10.339   1
  -8   7   9 203.284  11.504   1
   1   7  -9 163.536   8.419   1
   1  -8   9 188.348  10.703   2
  -1   8   9 183.273   9.940   1
  -7  -1   9 192.356  10.102   1
  -1  -7  -9 165.569   9.869   2
   8  -8  -9 70.4179  6.5439   2
   8  -8  -9 72.9058  7.4322   1
   0   8  -9 83.7327  6.1423   1
   0  -8  -9 69.5125  6.4978   2
   0  -8  -9 81.5071  7.4623   1
  -8   8   9 85.2233  7.7713   1
   8  -8   9 83.6325  7.8726   1
   0  -8   9 87.2017  7.3736   1
   0   8   9 85.8260  6.1812   1
  -8   0   9 77.3019  6.0096   2
   0  -8   9 78.3976  6.9220   2
  -8   0   9 82.4705  6.5278   1
   0   8  -9 75.7595  5.3526   1
   9  -5  -9 105.798   7.923   1
  -4  -5   9 93.1096  6.9232   1
   9  -4   9 91.9295  7.1860   1
   4  -9  -9 95.5668  7.5361   2
  -4  -5   9 99.8952  7.0545   2
   4  -9  -9 98.8462  8.4104   1
  -4   9  -9 99.5954  7.4683   1
  -5   9   9 98.3708  7.8734   1
   9  -5  -9 101.333   6.992   1
  -5  -4  -9 98.6855  7.0014   1
   5  -9   9 108.102   8.394   2
  -9   4   9 109.998   8.441   2
   5  -9   9 115.747   8.746   1
  -9   5  -9 111.332   8.599   2
  -4  -5   9 101.219   7.061   2
  -9   4   9 111.437   8.555   1
  -4   9  -9 105.046   7.471   1
   9  -4  -9 90.0335  7.3416   1
  -4  -5  -9 123.909   7.905   1
  -5  -4   9 94.7048  6.8537   2
   5  -9  -9 90.7043  8.3622   1
  -9   5   9 100.745   7.500   2
  -9   5   9 118.743   8.990   1
  -5  -4   9 97.2063  7.6483   1
  -4  -5  -9 98.5057  7.0531   2
   4  -9   9 115.358   8.261   2
  -4   9   9 124.346   9.656   1
   4  -9   9 114.179   8.691   1
  -4   9   9 93.9032  7.6399   1
  -5   9  -9 101.269   8.082   1
   5  -9  -9 110.480   8.550   2
   9  -5   9 107.191   7.822   1
   9  -4  -9 109.254   7.807   1
   3  -9  -9 3.22006 5.62688   1
  -6   9   9 -0.9504  5.2684   1
   3  -9  -9 4.18264 4.87495   2
   6  -9   9 -7.5918  5.8427   1
   9  -6  -9 -5.8274  4.5615   1
   9  -6  -9 -1.2043  4.3034   1
  -3  -6   9 0.04766 4.42630   2
  -9   3   9 -6.7337  4.5226   2
  -3   9  -9 4.81100 4.16675   1
  -9   3   9 0.74283 4.70373   1
   9  -3   9 8.44796 4.23003   1
  -3  -6   9 -5.9061  4.1998   2
  -3  -6   9 0.49685 4.42422   1
   9  -3   9 1.01030 4.34133   1
  -9   6  -9 -5.1557  4.3042   2
  -3   9  -9 -6.0735  4.3434   1
  -6  -3  -9 0.28219 4.23507   1
  -3  -6  -9 -6.7759  4.2411   2
  -6  -3   9 -1.0569  3.8996   2
  -6  -3   9 -2.3031  4.0932   1
   6  -9  -9 -1.0377  4.7853   2
  -9   6   9 -5.2905  5.0120   2
  -3   9   9 -3.4271  4.5534   1
  -3   9   9 1.06859 4.94924   1
   6  -9  -9 0.06975 5.58664   1
   3  -9   9 -0.5542  5.4571   1
   9  -3  -9 -1.3922  1.1219   1
   9  -6   9 1.93104 5.26848   1
  -3  -6  -9 -0.3660  4.6539   1
   3  -9   9 -1.1467  5.3912   2
  -9   6   9 -2.7732  5.1863   1
   9  -7  -9 40.3009  5.9478   1
  -2  -7   9 23.1129  5.2720   1
   9  -2   9 35.3961  4.3125   1
  -9   2   9 37.2771  5.2323   2
  -7   9   9 31.3970  6.3192   1
  -7   9   9 26.4055  5.9369   2
   9  -2   9 24.1225  4.1229   1
   7  -9   9 33.1711  6.7127   1
   2  -9  -9 27.9609  6.2234   1
  -9   2   9 35.5196  5.4922   1
   2  -9  -9 28.4310  5.5097   2
  -2   9  -9 36.4383  5.1955   1
  -2  -7   9 30.5733  5.0125   2
   7  -9  -9 16.5136  6.2493   1
  -9   7   9 24.2798  6.0890   1
  -2   9   9 26.7382  5.4051   1
  -7  -2   9 40.3641  5.0445   1
  -2  -7  -9 23.8752  5.0078   2
   2  -9   9 20.1839  6.1147   2
   2  -9   9 29.6507  6.2472   1
  -2  -7  -9 23.3369  5.5504   1
  -7   9  -9 29.3318  5.4639   2
   9  -7   9 35.3531  6.2467   1
  -7  -2   9 23.2997  4.3591   2
   8  -9   9 -1.9979  5.8712   1
  -1   9  -9 3.18404 3.77071   1
   1   8   9 1.71645 3.27658   1
  -8   9   9 1.95289 5.56035   1
  -9   1   9 -3.4439  4.2672   2
  -9   1   9 -8.0898  4.2791   1
   1   8   9 6.87393 3.17744   1
  -1  -8   9 0.03521 4.79055   2
   1  -9  -9 -5.4968  5.3925   1
   1  -9  -9 -1.1005  4.8383   2
  -1  -8   9 2.65100 5.06565   1
   9  -8  -9 8.16169 5.23604   1
  -1  -8  -9 3.77314 5.29768   1
  -1   9   9 -0.0627  4.3997   1
   1  -9   9 -1.7125  5.3352   1
   1  -9   9 1.34668 5.25602   2
  -9   8   9 -1.9453  5.4302   1
   8  -9  -9 -1.7851  5.4609   1
   9  -8   9 -4.9391  5.6343   1
  -1  -8  -9 3.12892 4.81629   2
  -8  -1   9 2.82475 3.98414   2
   9  -9   9 0.07507 5.98745   1
   0   9  -9 -1.5061  2.9824   1
   0  -9   9 -2.0734  5.0846   2
   0  -9  -9 -5.1419  4.6452   2
   0   9   9 -6.0039  3.8132   1
  -9   9   9 -6.4860  5.4230   1
  -9   0   9 -4.3565  3.9446   2
   9  -9  -9 -6.2273  5.3043   1
   0  -9  -9 -4.1892  5.2936   1
   0  -9   9 7.56675 5.35208   1
  -5  -5   9 -0.7348  3.8103   2
   5 -10   9 8.83845 5.91698   2
  -5  -5   9 -4.3050  3.9204   2
  10  -5  -9 -4.4006  4.1060   1
   5 -10   9 -7.5143  5.8350   1
 -10   5  -9 4.08509 4.73202   2
  -5  10  -9 -3.9998  4.5301   1
 -10   5   9 1.99802 5.07869   1
  -5  10   9 3.64244 5.11390   1
   5 -10  -9 1.01236 5.86279   1
 -10   5   9 4.30719 5.00140   2
  10  -5   9 1.52635 4.84702   1
   5 -10  -9 -4.9632  4.8656   2
  10  -6  -9 15.2494  4.8225   1
   4 -10  -9 15.6578  6.2714   1
  -4  -6   9 8.86769 4.28214   2
  -4  -6   9 18.0396  4.5668   2
  -4  10  -9 21.5422  5.1596   1
   4 -10  -9 13.5136  5.3500   2
  -6  10   9 17.0484  5.7695   1
  10  -4   9 21.7230  4.7968   1
   6 -10   9 26.7730  6.7332   1
 -10   4   9 26.6243  5.4329   2
 -10   4   9 23.0090  5.5627   1
  -6  10  -9 18.4788  5.3380   1
 -10   6   9 16.7361  5.7222   1
  -4  -6  -9 14.3390  4.5756   2
 -10   6   9 15.9337  5.5680   2
   6 -10  -9 19.5558  6.3186   1
  -6  -4   9 21.3492  4.2546   2
  -4  10   9 15.2655  5.3710   1
   4 -10   9 22.1634  6.2721   2
  10  -4  -9 19.0545  4.4321   1
  10  -6   9 14.5472  5.5562   1
   4 -10   9 9.41484 5.93923   1
  -3  -7   9 56.0842  5.6787   2
 -10   3   9 57.9143  6.1166   2
 -10   3   9 51.5049  6.0614   1
   7 -10   9 55.8318  7.5343   1
  10  -7  -9 55.2999  6.3130   1
  -3  -7   9 58.4780  5.5387   2
  10  -3   9 60.5314  5.1443   1
   3 -10  -9 45.5860  6.2298   2
  -3  10  -9 56.1884  5.7486   1
  -7  10   9 55.1199  7.1123   1
   3 -10  -9 62.8935  7.3976   1
  -3  -7  -9 46.2186  5.5149   2
  -7  10  -9 49.6381  6.4274   1
 -10   7   9 68.2184  7.2656   1
  -7  -3   9 51.4849  4.9278   2
  -3  10   9 56.6259  6.1544   1
   3 -10   9 62.4079  7.2905   1
  10  -7   9 64.7229  6.8868   1
   3 -10   9 59.7719  7.0945   2
   7 -10  -9 63.6595  7.6122   1
   2 -10  -9 33.3013  6.6379   1
   2 -10  -9 29.7924  5.8509   2
   8 -10   9 31.9908  6.8246   1
  -8  10   9 31.1366  6.4809   1
  -2  10  -9 28.9438  4.7835   1
  -2  -8   9 41.8660  5.3671   2
 -10   2   9 30.2606  5.1690   2
  10  -8  -9 24.6122  5.8386   1
   2 -10   9 34.4756  6.5422   1
  -2  10   9 15.3591  5.1233   1
 -10   8   9 27.8846  6.4765   1
   8 -10  -9 24.3994  6.6008   1
  -8  10  -9 29.1867  6.0350   1
   2 -10   9 35.2994  6.2921   2
  10  -8   9 44.3013  6.5801   1
  -8  -2   9 40.0967  4.4320   2
  -2  -8  -9 33.7401  5.4193   2
   9 -10   9 30.8272  6.9514   1
  -9  10   9 41.5685  6.8793   1
  -1  10  -9 32.6746  4.2066   1
  10  -9  -9 32.3568  6.2427   1
  -1  -9   9 32.5770  5.5420   2
 -10   1   9 25.4137  4.8969   2
   1 -10  -9 37.9934  6.4396   1
   1 -10  -9 27.1915  5.6345   2
   9 -10  -9 25.2930  6.4775   1
   1 -10   9 37.1548  6.1849   2
  -1  -9  -9 33.4379  5.5027   2
  10  -9   9 24.1533  6.4214   1
 -10   9   9 38.4428  6.8044   1
  -9  -1   9 30.3962  4.4889   2
   1 -10   9 30.5535  6.1574   1
  -9  10  -9 31.2383  5.9233   1
  -1  10   9 32.0524  5.0121   1
 -10  10  -9 44.5186  6.5757   1
   0  10   9 45.5115  4.4934   1
   0 -10  -9 54.7007  6.4180   2
 -10   0   9 51.0975  5.2476   2
   0 -10   9 50.3176  6.4778   2
 -10  10   9 59.8816  7.4514   1
  10 -10   9 50.9475  7.5681   1
  10 -10  -9 51.0700  7.2290   1
  -5  -6   9 55.2206  5.1998   2
  11  -6  -9 51.6668  5.8199   1
  11  -5   9 51.4079  5.8856   1
   5 -11  -9 43.7097  7.3641   1
 -11   5   9 60.7451  6.7220   1
  -5  11  -9 49.3555  6.3099   1
  -5  -6   9 46.9928  5.0160   2
 -11   5   9 61.0314  6.6324   2
   6 -11   9 43.4474  7.4571   1
  -6  11   9 56.2616  6.8014   1
  11  -5  -9 48.9227  5.4272   1
  -5  11   9 49.8357  6.6408   1
 -11   6   9 50.1755  6.8149   1
  11  -6   9 59.5185  6.4808   1
   5 -11   9 45.3738  7.5640   1
  -6  11  -9 49.1152  6.2589   1
  -6  -5   9 49.0672  4.7214   2
  -6  -5   9 57.0741  5.0269   2
  -5  -6  -9 47.3445  5.2089   2
   6 -11  -9 57.8150  7.8070   1
   4 -11  -9 175.711  12.243   1
  -7  11   9 179.012  11.621   1
 -11   4   9 201.105  10.966   2
  -4  -7   9 174.919   9.624   2
  11  -4   9 197.390   9.979   1
 -11   4   9 198.941  11.412   1
  11  -7  -9 194.165  11.005   1
   4 -11  -9 185.831  11.553   2
  -4  -7   9 186.911  10.094   2
   7 -11   9 195.804  12.681   1
  -4  11  -9 192.232  10.651   1
  11  -7   9 183.527  11.176   1
  -4  -7  -9 174.567  10.018   2
   4 -11   9 198.626  12.239   2
  -7  11  -9 213.104  11.494   1
  -4  11   9 177.185  10.931   1
 -11   4  -9 183.067  10.936   2
   7 -11  -9 172.516  12.216   1
 -11   7   9 205.396  12.127   1
  -7  -4   9 197.545   9.437   2
   4 -11   9 180.449  12.229   1
  -3  -8   9 39.5429  5.4720   2
   3 -11  -9 37.4660  7.1175   1
  -8  11   9 45.3076  7.1515   1
  11  -8  -9 34.5404  6.0958   1
  -3  11  -9 52.2168  5.4841   1
   3 -11  -9 48.9852  6.4497   2
   8 -11   9 62.5244  7.8629   1
 -11   3   9 35.8317  5.7214   2
  11  -3   9 42.9265  3.9649   1
   3 -11   9 41.8604  7.0472   1
  -3  11   9 38.5677  5.8984   1
  11  -8   9 46.4729  6.6849   1
   8 -11  -9 48.6531  7.4384   1
 -11   8   9 53.1445  7.1523   1
  -8  11  -9 46.1928  6.5694   1
  -3  -8  -9 37.0208  5.4640   2
  -8  -3   9 37.9046  4.6178   2
   3 -11   9 42.8500  6.9096   2
  11  -9  -9 4.76008 5.49128   1
   2 -11  -9 5.57165 6.30541   1
   9 -11   9 0.51621 6.67282   1
 -11   2   9 6.52304 4.72906   2
  -9  11   9 1.52334 6.05110   1
  -2  -9   9 3.56075 4.98182   2
  -2  11  -9 10.6116  4.1351   1
   2 -11  -9 12.5980  5.6033   2
   9 -11  -9 4.37557 6.17258   1
  11  -9   9 -2.1800  5.8483   1
  -2  11   9 8.29500 4.67483   1
  -9  11  -9 18.4935  5.6759   1
  -2  -9  -9 9.41327 5.08830   2
 -11   9   9 5.12782 6.12946   1
  -9  -2   9 10.0627  4.0291   2
   2 -11   9 1.76884 5.91862   1
   2 -11   9 16.5824  5.9784   2
  -1  11  -9 -2.1961  3.2195   1
  10 -11   9 9.98367 6.51678   1
 -10  11   9 3.97591 6.30387   1
  11 -10  -9 3.40232 5.75642   1
   1 -11  -9 5.46276 5.29976   2
 -11  10  -9 3.48642 5.51736   1
  -1 -10   9 -2.1440  5.1941   2
 -11   1   9 3.24437 4.57989   2
 -11  10   9 16.8551  6.5377   1
  -1  11   9 4.62559 4.12820   1
 -10  -1   9 -3.7128  3.9796   2
   1 -11   9 3.72312 5.91380   2
  11 -10   9 4.71598 6.16833   1
  10 -11  -9 -2.6493  6.0445   1
  -1 -10  -9 -6.8912  5.0673   2
 -10  11  -9 0.55303 5.23158   1
 -11  11  -9 26.8717  6.3208   1
 -11  11   9 16.3094  6.7129   1
  11 -11   9 42.0773  7.4979   1
  11 -11  -9 36.2558  7.0082   1
 -11   0   9 28.3973  4.9104   2
   0 -11  -9 25.0445  5.8650   2
   0 -11   9 31.8109  6.2154   2
  12  -6   9 -5.7779  4.8031   1
  12  -6  -9 4.47389 4.44257   1
  -6  -6   9 2.78603 4.05281   2
  -6  -6   9 3.47070 3.90601   2
 -12   6   9 -4.6172  5.3828   1
  -6  12  -9 3.35197 5.19759   1
   6 -12  -9 2.69244 6.56185   1
  -6  12   9 2.05715 5.57017   1
   6 -12   9 0.80626 6.50332   1
   5 -12  -9 12.9932  6.7852   1
  12  -5   9 4.26521 4.59300   1
  -5  -7   9 5.87894 4.50331   2
  -7  12   9 7.18387 5.86817   1
  12  -7  -9 5.39769 4.86849   1
   7 -12   9 25.4237  7.2415   1
  -5  -7   9 10.8298  4.2163   2
  -5  12  -9 6.73245 5.03559   1
  -7  12  -9 3.46941 5.30758   1
   7 -12  -9 3.28886 6.61694   1
  -7  -5   9 5.36823 4.07420   2
  -5  12   9 1.43898 5.35931   1
 -12   7   9 14.0812  6.0136   1
   5 -12   9 5.50129 6.72324   1
  -5  -7  -9 6.05574 4.56319   2
  12  -7   9 21.8786  5.8029   1
  -4  -8   9 24.4249  4.8458   2
  -4  12  -9 22.2992  5.3699   1
  12  -4   9 23.7090  3.8963   1
  -4  -8   9 18.2652  5.0735   2
 -12   4   9 17.8233  5.4980   2
   8 -12   9 9.81248 7.09098   1
   4 -12  -9 20.1411  7.0080   1
  -8  12   9 18.9938  6.3478   1
  12  -8  -9 16.8107  5.4475   1
  -8  12  -9 20.5240  5.8528   1
   4 -12   9 3.37257 6.58902   1
   8 -12  -9 17.1338  6.9721   1
  -8  -4   9 17.6413  4.0699   2
  -4  12   9 21.3691  5.6500   1
 -12   8   9 27.1968  6.6004   1
  12  -8   9 17.9485  6.0649   1
  -4  -8  -9 7.28301 4.81948   2
   9 -12   9 0.30399 6.99505   1
  -3  -9   9 10.4562  4.9558   2
  -3  12  -9 9.14798 4.54696   1
  12  -9  -9 6.59517 5.50758   1
  -9  12   9 6.32801 6.39987   1
 -12   3   9 13.4196  5.2679   2
   3 -12  -9 9.23567 6.61775   1
   3 -12   9 2.33717 6.27091   2
   9 -12  -9 10.9137  6.7681   1
  -9  12  -9 3.66824 5.58030   1
  -3  12   9 2.65682 5.14358   1
  -9  -3   9 10.0513  3.9560   2
 -12   9   9 6.05131 6.26717   1
  12  -9   9 12.7525  6.1525   1
  -3  -9  -9 7.44320 5.06042   2
 -12   2   9 4.12935 4.94543   2
   2 -12  -9 2.85502 5.49706   2
 -12  10  -9 11.5850  5.9082   1
  -2  12  -9 8.45822 3.97736   1
  -2 -10   9 13.8078  5.3321   2
 -10  12   9 12.1754  6.6465   1
  12 -10  -9 8.42907 5.90864   1
  10 -12   9 3.22071 6.84758   1
  -2 -10  -9 9.19251 5.32439   2
 -10  12  -9 12.0633  5.9865   1
   2 -12   9 6.45149 6.33347   2
 -12  10   9 0.64778 6.35050   1
 -10  -2   9 6.11257 4.06900   2
  10 -12  -9 -4.2471  6.2861   1
  -2  12   9 11.9953  4.8102   1
  12 -10   9 8.07222 6.18414   1
 -12   1   9 19.6858  5.1476   2
  11 -12   9 26.8382  7.4583   1
 -11  12   9 44.3230  7.6762   1
  -1 -11   9 21.9126  6.0803   2
 -12  11  -9 16.7086  6.2590   1
  12 -11  -9 23.5181  6.8280   1
   1 -12  -9 24.1072  6.2569   2
  -1 -11  -9 18.5752  5.8438   2
  11 -12  -9 22.2617  7.2170   1
  -1  12   9 23.5843  3.8852   1
   1 -12   9 23.6718  6.6523   2
 -11  12  -9 25.2254  6.3347   1
 -11  -1   9 21.4633  4.6564   2
 -12  11   9 44.1464  7.7211   1
  12 -11   9 29.0814  7.1567   1
 -12  12   9 -2.5518  6.6521   1
   0 -12  -9 12.7069  5.8297   2
  12 -12   9 -0.0723  6.6872   1
   0 -12   9 10.2363  6.2668   2
  12 -12  -9 9.16559 6.65208   1
 -12  12  -9 -0.0176  5.8307   1
 -12   0   9 -0.0787  4.5788   2
  13  -6   9 28.1288  5.2571   1
   6 -13  -9 15.2376  7.4139   1
  -6  -7   9 24.7938  4.5438   2
  -7  13   9 26.8541  6.3379   1
  13  -7  -9 12.4970  4.9524   1
   7 -13   9 23.9148  7.6239   1
  -6  -7   9 24.0666  4.7083   2
  -6  13  -9 19.7120  5.7616   1
  -7  -6   9 29.7718  4.5318   2
   7 -13  -9 24.7280  7.6077   1
  -6  -7  -9 15.0995  4.7742   2
  -6  13   9 22.9608  6.2417   1
   6 -13   9 24.2657  7.5070   1
  13  -6  -9 21.2831  4.6985   1
  -7  13  -9 35.2541  6.2454   1
  13  -7   9 32.6446  5.8471   1
  -7  -6   9 28.8117  4.3234   2
  -5  -8   9 6.51029 4.53059   2
  13  -8  -9 1.64048 4.87377   1
  13  -5   9 -5.1485  3.6120   1
   8 -13   9 -8.9927  6.8463   1
   5 -13  -9 -4.7195  6.8009   1
  -8  13   9 -6.0659  5.8533   1
  -5  -8   9 -8.3059  4.5787   2
  -5  13  -9 -6.7551  4.8985   1
  13  -8   9 4.92327 5.59026   1
  -5  13   9 -7.2890  5.2129   1
   5 -13   9 2.17681 6.87983   1
  -5  -8  -9 2.81111 4.70634   2
  -8  13  -9 -2.5113  5.4396   1
 -13   8   9 -3.4226  6.0404   1
   8 -13  -9 -8.1756  6.5737   1
  -8  -5   9 4.76981 3.97067   2
  -9  13   9 3.04566 6.46509   1
  -4  13  -9 1.34449 4.72673   1
  13  -9  -9 14.0232  5.6005   1
   9 -13   9 2.55257 7.25000   1
  -4  -9   9 16.6498  4.9325   2
  -9  -4   9 8.52372 3.97582   2
  -4  -9  -9 6.64393 4.99517   2
 -13   9   9 5.24651 6.42104   1
  13  -9   9 10.4221  6.0686   1
   9 -13  -9 4.44941 6.97300   1
  -4  13   9 12.0249  5.3474   1
  -9  13  -9 8.95104 5.76909   1
  -3  13  -9 -3.6924  4.2852   1
  10 -13   9 7.25410 7.17993   1
  13 -10  -9 7.67353 5.71365   1
 -10  13   9 -9.9227  6.3456   1
 -13  10  -9 -5.6649  5.5511   1
  -3 -10   9 0.10673 5.06156   2
  -3 -10  -9 -0.4535  5.3286   2
 -13  10   9 -9.3420  6.3028   1
  10 -13  -9 -9.3322  6.5895   1
  13 -10   9 -3.2384  5.9217   1
  -3  13   9 -0.7525  4.9610   1
 -10  13  -9 -8.9534  5.7165   1
 -10  -3   9 6.26074 4.05579   2
 -11  13   9 -5.2578  6.5053   1
  -2 -11   9 -6.6844  5.3948   2
  11 -13   9 -6.7593  6.9358   1
  13 -11  -9 -9.0050  5.9249   1
 -13   2   9 10.1011  5.3107   2
  -2  13  -9 -0.0261  3.2715   1
 -13  11  -9 0.78047 5.84040   1
 -11  -2   9 -1.5528  4.1642   2
  13 -11   9 -1.1773  6.3110   1
 -11  13  -9 5.58227 6.14761   1
 -13  11   9 16.1819  7.0790   1
  11 -13  -9 -0.7748  6.8027   1
  -2  13   9 3.53160 4.25087   1
  -2 -11  -9 5.86246 5.69135   2
 -13   1   9 14.9254  5.2902   2
 -13  12  -9 18.7566  6.6401   1
  -1 -12   9 14.3429  6.3841   2
  13 -12  -9 20.6402  6.9491   1
 -12  13   9 9.47596 7.41270   1
  12 -13   9 18.7481  7.5471   1
  13 -12   9 22.3786  7.3770   1
  -1 -12  -9 16.3571  6.0980   2
   1 -13   9 11.3593  6.7352   2
 -13  12   9 24.8115  7.7364   1
 -12  -1   9 15.9173  4.7925   2
  12 -13  -9 17.4940  7.3923   1
 -12  13  -9 15.8210  6.5204   1
  13 -13   9 2.78799 7.43093   1
 -13  13  -9 15.0669  6.6979   1
   0 -13   9 -3.4999  6.4389   2
  13 -13  -9 7.28307 7.07414   1
 -13  13   9 -0.6425  7.1801   1
 -13   0   9 2.43264 5.02369   2
  -7  -7   9 5.43823 4.22125   2
  -7  -7  -9 -0.6417  4.5011   2
  -7  14   9 -1.9758  5.9454   1
  14  -7  -9 2.90398 4.42023   1
  -7  -7   9 2.11794 4.31580   2
  -7  14  -9 5.69510 5.73207   1
  14  -7   9 -5.2222  4.9067   1
   7 -14   9 11.9522  7.5697   1
   7 -14  -9 2.48179 7.25648   1
  -6  14  -9 4.06614 5.66189   1
   8 -14   9 -4.1924  7.4760   1
  -8  14   9 11.8502  6.3871   1
  -6  -8   9 10.1799  5.1088   2
   6 -14  -9 19.1036  7.7574   1
  14  -6   9 20.4728  4.3767   1
  -6  -8   9 11.1644  4.5914   2
  14  -8  -9 10.1051  5.1191   1
  -8  14  -9 15.2525  6.0102   1
  -6  -8  -9 16.0155  5.0830   2
  14  -8   9 15.8047  5.8378   1
  -6  14   9 14.5048  6.2398   1
  -8  -6   9 9.48270 4.27236   2
   8 -14  -9 8.99836 7.49513   1
   6 -14   9 5.46102 7.49693   1
  -5  14  -9 9.07839 5.29907   1
  -9  14   9 9.32145 6.77323   1
  -5  -9   9 7.24197 4.85240   2
  14  -9  -9 -3.6542  5.1581   1
   9 -14   9 -0.7571  7.5148   1
  -5  14   9 22.2097  5.8642   1
  14  -9   9 10.3153  6.1251   1
  -5  -9  -9 7.77094 5.05278   2
   9 -14  -9 -9.7784  7.1614   1
  -9  14  -9 4.56589 5.80822   1
  -4  14  -9 22.3320  5.3497   1
  14 -10  -9 19.6250  6.1443   1
  -4 -10   9 20.0397  5.5252   2
  10 -14   9 18.4766  8.2490   1
 -14  10  -9 35.1346  7.1858   1
 -10  14   9 27.4786  7.6318   1
 -14  10   9 15.1546  7.2916   1
 -10  -4   9 28.5566  4.5797   2
  14 -10   9 16.4858  6.5472   1
  -4 -10  -9 16.2234  5.6311   2
  10 -14  -9 23.4064  8.1211   1
  -4  14   9 27.6691  5.9114   1
 -10  14  -9 20.8029  6.5699   1
  -3  14  -9 13.0456  4.1617   1
  11 -14   9 -12.058   7.411   1
  14 -11  -9 -1.8786  6.1493   1
  -3 -11   9 17.0304  5.7956   2
 -14  11  -9 6.04791 6.27405   1
 -11  14   9 14.3042  7.5787   1
  11 -14  -9 3.38808 7.60959   1
  14 -11   9 3.94830 6.53180   1
 -11  -3   9 13.5942  4.4006   2
  -3  14   9 2.64986 5.11945   1
 -14  11   9 1.57482 7.20448   1
 -11  14  -9 5.29691 6.26160   1
  -3 -11  -9 7.56205 5.83064   2
  14 -12  -9 -4.1807  6.3929   1
  12 -14   9 13.8576  7.9417   1
 -12  14   9 7.47976 7.55924   1
  -2 -12   9 -0.0227  6.1051   2
 -14  12  -9 -4.3564  6.2065   1
  -2 -12  -9 0.93490 5.85221   2
 -12  -2   9 -1.2176  4.4277   2
 -14  12   9 -7.4783  7.2969   1
  14 -12   9 2.49454 6.89593   1
  12 -14  -9 13.4836  7.7053   1
 -12  14  -9 8.45495 6.64248   1
  -1 -13   9 0.84084 6.53925   2
 -13  14   9 -1.9886  7.5437   1
 -14  13  -9 1.14592 6.62587   1
 -13  14  -9 6.71327 6.81149   1
 -13  -1   9 6.70105 4.91297   2
  -1 -13  -9 3.87216 6.24322   2
 -14  13   9 -8.8124  7.3621   1
  -7  -8   9 3.74996 5.02441   2
   7 -15  -9 15.4226  8.3427   1
  -7  15  -9 12.5926  6.2385   1
  -8  15   9 12.6796  6.7502   1
  15  -7   9 18.2211  4.7537   1
  -7  -8   9 7.46464 4.74585   2
  15  -8  -9 14.7807  5.0659   1
   8 -15   9 5.19102 8.13830   1
   7 -15   9 5.19837 8.13967   1
  -8  -7   9 12.0548  4.5105   2
  15  -8   9 6.14428 5.67541   1
  -8  -7   9 6.38928 4.55673   2
  -8  15  -9 10.8006  6.2920   1
  -7  -8  -9 18.6710  5.3013   2
   8 -15  -9 12.1878  8.0460   1
  -7  15   9 17.1202  6.7452   1
  -6  15  -9 4.65396 5.68862   1
  15  -9  -9 0.02026 5.31930   1
  -9  15   9 0.18880 6.69306   1
  -6  -9   9 -3.0971  4.7650   2
   9 -15   9 -2.2948  7.7779   1
  -9  -6   9 10.6657  4.6148   2
  -9  15  -9 6.03828 6.37411   1
  -6  15   9 5.21666 6.16180   1
  15  -9   9 1.15474 5.88752   1
   9 -15  -9 -12.923   7.600   1
  -6  -9  -9 -7.9244  5.1272   2
 -10  15   9 3.99190 7.07487   1
  -5 -10   9 6.86947 5.33021   2
  -5  15  -9 6.35305 5.49662   1
  15 -10  -9 5.26688 5.77387   1
  10 -15   9 -5.3722  8.1680   1
  15 -10   9 -9.8849  6.0671   1
  -5 -10  -9 -5.9256  5.3878   2
  10 -15  -9 5.82218 8.13791   1
  -5  15   9 -14.303   5.378   1
 -10  15  -9 -0.7829  6.1021   1
  -4 -11   9 12.1501  5.8592   2
  11 -15   9 9.75698 8.56828   1
 -15  11  -9 33.4320  7.5982   1
  -4  15  -9 15.5233  4.8740   1
  15 -11  -9 16.5628  6.5879   1
  -4  15   9 19.1107  5.7988   1
  11 -15  -9 9.50457 8.06531   1
 -11  -4   9 26.6093  4.8415   2
  -4 -11  -9 4.92975 6.04570   2
  15 -11   9 25.3993  7.2655   1
  -3 -12   9 13.9196  6.5466   2
 -15  12  -9 40.2631  7.8505   1
  12 -15   9 38.0330  9.2327   1
  -3 -12  -9 19.8228  6.5676   2
 -15  12   9 34.4686  8.5440   1
 -12  -3   9 29.1851  5.1693   2
  -8  -8   9 6.24076 5.07934   2
   8 -16  -9 11.8087  8.8002   1
   0   0 -10 2051.34   74.40   1
   0   0  10 1924.88   74.49   1
   0   0  10 1873.12   74.38   1
   0   0 -10 1943.91   73.80   2
   1   0  10 294.653  13.960   1
   1  -1 -10 309.224  13.451   2
   0   1 -10 329.389  14.010   1
   1  -1 -10 304.455  13.763   1
  -1   0  10 298.956  14.058   1
   0  -1 -10 317.396  14.169   1
   1   0 -10 321.957  13.706   1
   1   0 -10 326.242  13.421   2
   1  -1  10 302.696  14.328   1
   1   0  10 313.042  14.189   1
  -1   0  10 279.883  13.313   2
   0  -1 -10 313.974  13.480   2
   0   1  10 304.080  14.035   1
  -1   1  10 336.267  14.395   1
  -1   1  10 295.101  13.676   2
   0   1  10 326.387  14.299   1
  -1   0 -10 322.196  13.670   2
   0   1 -10 323.427  13.450   2
   0  -1 -10 321.241  14.039   1
  -1   1 -10 294.679  14.067   1
  -1   0 -10 320.194  14.128   1
   1  -1  10 297.702  14.061   1
  -1   1  10 300.979  14.084   1
   0  -1  10 297.084  14.035   1
  -1   1 -10 309.283  13.594   2
   2  -1 -10 25.8804  3.7746   2
   1  -2 -10 29.1460  4.0789   1
  -1  -1  10 31.1038  4.6942   1
  -1   2  10 23.5027  4.5604   1
   1  -2 -10 27.3603  4.5064   1
  -1  -1 -10 27.9884  4.0764   2
   1  -2  10 20.3028  4.4435   1
  -2   1 -10 31.4648  4.0474   2
   1  -2 -10 22.7278  3.9717   2
  -1   2 -10 29.2879  4.2260   1
   2  -1 -10 30.8236  4.0551   1
  -1   2  10 17.0761  4.2784   1
   1   1  10 28.1152  4.4297   1
   1   1 -10 29.7490  3.7525   2
  -1   2 -10 26.0313  3.9243   2
   1   1 -10 23.6848  3.7835   1
  -1  -1 -10 32.3760  4.6303   1
  -1  -1  10 30.0493  4.3123   2
  -2   1  10 17.4220  4.3945   1
   2  -1  10 22.7602  4.4494   1
  -1   2  10 31.2010  4.3446   2
   2  -1  10 27.8187  4.4026   1
   0   2  10 674.365  27.709   1
   2  -2 -10 692.582  27.159   2
   0   2 -10 702.156  27.595   1
   0   2 -10 730.650  27.070   2
   0  -2  10 686.685  27.680   1
  -2   0 -10 684.582  27.199   2
   2  -2  10 646.275  27.669   1
   0  -2 -10 701.784  27.249   2
   2   0  10 696.426  27.695   1
   2   0  10 651.218  27.511   1
   0   2  10 674.615  27.643   1
  -2   0  10 674.787  27.714   1
  -2   2  10 682.372  27.366   2
  -2   2 -10 708.366  27.247   2
  -2   2  10 689.953  27.835   1
   2   0 -10 696.371  26.937   2
  -2   0  10 691.477  27.337   2
  -2   2 -10 717.625  27.720   1
   2  -2 -10 695.004  27.576   1
   0  -2 -10 656.029  27.649   1
   2   0 -10 690.013  27.375   1
   3  -2 -10 243.935  12.133   1
   1  -3 -10 252.554  11.660   2
   1  -3 -10 263.180  12.121   1
  -2   3  10 258.808  12.694   1
  -2   3  10 243.604  12.257   1
   3  -1  10 231.019  12.051   1
  -3   1  10 269.856  11.890   2
   1   2  10 268.541  12.323   1
  -1  -2  10 237.211  11.749   2
   3  -2 -10 266.140  11.513   2
  -3   1  10 241.403  12.157   1
  -1  -2  10 260.061  12.169   1
  -1   3 -10 240.979  11.410   2
  -2   3  10 256.520  11.904   2
   3  -2 -10 282.022  12.102   1
  -2  -1 -10 254.552  11.635   2
   3  -1  10 277.071  12.316   1
  -1   3 -10 275.987  11.716   2
  -1   3 -10 268.726  12.230   1
   1   2  10 226.208  11.845   1
   2  -3  10 255.515  12.411   1
   2   1 -10 246.677  11.589   1
   2   1 -10 252.503  11.039   2
  -1   3  10 245.907  12.149   1
   2  -3 -10 251.117  11.563   2
   2   1  10 252.016  11.908   1
   2  -3 -10 243.349  12.152   1
  -2   3 -10 242.988  11.539   2
  -1  -2 -10 249.318  11.692   2
   3  -1 -10 264.653  11.825   1
  -2  -1  10 245.659  11.727   2
  -2   3 -10 262.029  11.712   2
   1  -3  10 260.444  12.372   1
  -1  -2 -10 239.238  12.088   1
   3  -2  10 247.948  12.172   1
   1   2 -10 250.696  11.118   2
  -3   2  10 278.902  12.318   1
  -2   3 -10 262.022  12.109   1
  -1   3  10 268.268  12.141   2
   2   1  10 236.854  12.015   1
   1   2 -10 249.061  11.574   1
   3  -1 -10 256.715  11.286   2
  -2  -1  10 234.173  12.088   1
  -1   3  10 252.375  12.507   1
   1   2 -10 246.028  11.095   2
   3  -3 -10 276.556  12.125   1
   0  -3 -10 239.599  11.712   2
   0   3 -10 262.207  11.348   2
   3   0  10 265.165  12.251   1
   3   0  10 253.205  12.006   1
   0   3 -10 275.275  12.094   1
   0  -3 -10 249.531  12.210   1
  -3   3  10 271.896  12.076   2
   3   0 -10 249.884  11.095   2
   3  -3 -10 237.777  12.169   1
   0   3  10 252.374  12.390   1
   0  -3  10 255.042  12.373   1
   3  -3  10 257.434  12.329   1
   0   3 -10 237.917  11.285   2
   3  -3 -10 247.127  11.638   2
   0   3  10 232.575  12.152   1
  -3   0  10 251.121  12.227   1
  -3   3  10 251.680  12.357   1
  -3   0  10 249.094  11.826   2
   3   0 -10 262.854  11.694   1
   2   2  10 -0.7889  3.7811   1
   4  -2 -10 7.21557 3.50272   1
  -2   4  10 8.97044 4.00267   2
  -2  -2  10 -1.2902  4.1370   1
  -4   2  10 9.79722 4.14540   2
   4  -2  10 0.00215 3.95804   1
   2   2 -10 -0.3737  3.1467   1
  -2   4  10 3.34588 4.31120   1
   2  -4  10 7.63375 4.56244   1
  -2   4  10 6.57420 4.13819   1
  -2   4 -10 8.54503 3.70123   2
  -2  -2 -10 3.09392 3.80900   2
   4  -2 -10 3.93763 3.79894   1
   4  -2  10 -0.4044  4.0961   1
   4  -2 -10 9.00791 3.31741   2
   2   2  10 6.33715 3.75887   1
  -4   2  10 7.70148 4.41022   1
  -2  -2 -10 2.79619 4.13726   1
  -2   4 -10 8.13880 3.54757   2
  -2  -2  10 -2.2631  3.9582   2
   2  -4 -10 3.13884 3.65792   2
  -2   4 -10 3.52598 3.59773   1
   2  -4 -10 1.83994 4.22658   1
  -1   4 -10 1041.38   40.06   2
   4  -3 -10 1019.40   40.16   2
   3   1 -10 992.602  40.217   1
   1  -4 -10 995.155  40.813   1
  -3   4  10 1020.53   40.89   1
  -1   4 -10 1008.36   40.64   1
  -1  -3  10 1052.82   40.75   1
   1   3  10 1036.36   40.58   1
  -3   4  10 1076.94   40.57   2
  -1   4 -10 1043.18   40.06   2
   4  -1  10 1118.47   40.83   1
  -4   1  10 1054.64   40.87   1
   1  -4 -10 962.165  40.272   2
   1   3  10 1096.30   40.76   1
   4  -3 -10 1004.26   40.76   1
   4  -1  10 1008.57   40.57   1
  -4   1  10 1038.34   40.39   2
   3  -4  10 1079.96   41.02   1
  -1  -3  10 1055.02   40.36   2
   4  -3 -10 1039.83   40.67   1
   3   1  10 981.756  40.547   1
   1  -4  10 1025.50   40.87   1
  -1  -3 -10 1130.50   40.40   2
   4  -1 -10 1092.43   39.83   2
   4  -1 -10 1116.43   40.50   1
  -4   3  10 1029.87   40.96   1
   3  -4 -10 1064.86   40.37   2
  -3   4 -10 1097.01   40.42   2
  -1  -3 -10 1018.26   40.72   1
   1   3 -10 1055.32   40.37   1
   3  -4 -10 1019.35   40.92   1
  -3   4 -10 1146.58   40.92   1
  -1   4  10 1056.22   40.97   1
  -1   4  10 1035.36   40.33   2
   4  -3  10 1020.40   40.83   1
  -3  -1  10 990.603  40.681   1
  -3   4 -10 1096.57   40.34   2
  -3  -1  10 979.981  40.234   2
   3   1  10 979.924  40.411   1
  -1   4  10 921.713  40.650   1
   4  -4 -10 288.934  13.191   2
   4   0  10 287.212  13.318   1
   4  -4  10 302.583  13.905   1
   0   4  10 295.279  13.697   1
  -4   4 -10 286.888  13.263   2
  -4   4  10 293.796  13.515   2
   4   0 -10 301.623  12.952   1
  -4   0  10 313.929  13.307   2
  -4   0  10 277.294  13.513   1
   0   4  10 283.831  13.465   1
   0   4 -10 287.114  13.372   1
   4   0  10 292.853  13.461   1
   0  -4 -10 298.229  13.167   2
  -4   4  10 288.758  13.979   1
   0   4 -10 290.552  12.525   2
   4  -4 -10 300.326  13.832   1
   0  -4  10 267.597  13.723   1
   4  -4 -10 308.139  13.674   1
   0  -4 -10 276.044  13.620   1
  -2  -3  10 102.319   7.292   2
   5  -3 -10 103.531   7.575   1
  -2   5 -10 104.074   7.881   1
   2  -5 -10 100.857   7.249   2
  -3   5  10 105.434   8.116   1
  -5   2  10 106.716   8.061   1
   2  -5 -10 105.851   7.960   1
   5  -3 -10 110.710   7.011   2
   2   3  10 98.7418  7.1735   1
  -2  -3  10 103.267   7.153   1
  -3   5  10 106.243   7.705   2
  -2   5 -10 106.860   7.262   2
  -2   5 -10 110.375   7.499   2
   3  -5  10 107.997   7.590   1
   3   2 -10 110.367   6.608   1
   5  -2  10 97.9881  7.6327   1
  -3  -2 -10 104.881   7.667   1
   5  -2  10 104.170   7.115   1
  -3  -2 -10 106.861   6.984   2
  -5   2  10 95.7977  7.5837   2
   2   3  10 97.6249  7.4662   1
   5  -3 -10 117.177   7.600   1
   2   3 -10 104.487   6.636   1
   5  -2 -10 99.2201  7.2985   1
  -3   5 -10 106.642   7.960   1
  -2  -3 -10 112.200   7.788   1
   3  -5 -10 97.8438  7.9784   1
  -3   5 -10 98.8230  7.5339   2
  -5   3  10 107.491   8.279   1
  -2   5  10 107.733   7.502   2
  -3  -2  10 100.757   7.253   2
  -2   5  10 96.6003  7.7505   1
   2  -5  10 112.309   7.712   1
   3   2  10 98.3613  7.1381   1
   5  -2 -10 100.677   6.672   2
  -5   3  10 108.351   7.791   2
  -2   5  10 116.662   8.538   1
  -3  -2  10 104.926   7.688   1
  -3   5 -10 95.8184  7.2734   2
  -2  -3 -10 110.719   7.233   2
   5  -2 -10 104.200   7.632   1
   3   2  10 110.420   7.304   1
   5  -3  10 106.603   8.034   1
   3  -5 -10 106.237   7.377   2
   5  -1  10 118.760   8.102   1
  -5   4 -10 123.908   7.942   2
   4   1 -10 117.495   7.098   1
  -4   5  10 111.545   8.780   1
  -1  -4  10 127.987   8.539   1
  -4   5  10 126.944   8.353   2
   5  -4 -10 133.712   7.878   2
  -1  -4  10 127.778   7.914   2
   5  -1  10 110.191   8.151   1
  -1   5 -10 123.922   7.299   2
   5  -4 -10 118.102   8.278   1
   1  -5 -10 112.621   7.662   2
  -5   1  10 116.003   7.920   2
  -5   1  10 118.861   8.534   1
   1  -5 -10 109.692   8.526   1
   1   4  10 120.513   7.982   1
  -1   5 -10 125.397   8.360   1
   4  -5  10 120.082   8.641   1
   5  -4 -10 123.223   8.295   1
   1   4  10 131.302   8.015   1
   4   1  10 123.163   7.668   1
   1  -5  10 114.431   8.680   1
  -1  -4 -10 126.448   7.903   2
  -1   5  10 135.284   8.868   1
  -4  -1  10 130.154   7.812   2
  -4   5 -10 100.610   8.071   2
  -1  -4 -10 127.491   8.282   1
  -5   4  10 115.629   8.773   1
   4  -5 -10 118.553   7.771   2
  -4  -1  10 125.409   8.063   1
   4  -5 -10 120.093   8.654   1
   4   1  10 117.827   7.711   1
   5  -4  10 120.670   8.424   1
  -5   4  10 96.1414  6.8255   2
  -1   5  10 122.236   8.149   1
   5  -1 -10 128.734   7.517   1
   1   4 -10 117.141   7.244   1
   0   5  10 177.363   9.665   1
   0  -5  10 168.811  10.219   1
   5   0  10 169.956   9.265   1
   0  -5 -10 158.998   9.275   2
   5  -5 -10 170.578   9.450   2
   5   0 -10 173.974   8.640   1
  -5   5 -10 168.975   9.811   2
   0   5 -10 180.065   9.428   1
  -5   5  10 172.371   9.950   2
   0   5  10 171.292   9.587   1
   0  -5 -10 168.398   9.981   1
  -5   0  10 175.915   9.777   1
   5  -5 -10 152.638   9.958   1
  -5   5  10 174.826  10.350   1
   5  -5  10 162.504  10.327   1
   5   0  10 171.066   9.360   1
  -5   0  10 154.022   9.297   2
   3  -6  10 116.068   9.079   1
  -3  -3  10 116.335   7.762   2
  -6   3  10 122.503   8.093   2
   6  -3  10 122.772   8.353   1
   3  -6 -10 105.564   8.026   1
  -3   6  10 120.111   9.101   1
   3   3  10 117.504   7.363   1
  -6   3  10 105.728   8.636   1
  -3  -3  10 108.415   8.117   1
  -3  -3 -10 129.006   8.328   1
  -3   6  10 107.475   8.313   1
  -3  -3 -10 115.164   7.334   2
  -3   6 -10 108.461   8.306   1
   3   3  10 114.076   7.188   1
   6  -3 -10 116.965   7.948   1
  -3   6 -10 122.454   7.822   2
   3  -6 -10 108.964   7.938   2
   6  -3 -10 120.984   7.625   1
  -3   6  10 113.821   8.136   2
  -2  -4  10 53.5097  5.6706   1
   6  -4 -10 50.3788  4.7142   2
  -2   6 -10 43.1052  4.5870   2
   2   4  10 58.2167  4.9753   1
   6  -4 -10 50.8695  5.2197   1
  -2   6 -10 52.0859  5.0639   1
  -2  -4  10 52.4414  5.5119   2
  -4   6  10 54.5417  5.6172   2
   2  -6 -10 51.7464  6.1082   1
   6  -2  10 50.0336  5.3850   1
  -4   6  10 52.6712  6.1201   1
   6  -2  10 47.1388  5.4866   1
   2   4  10 45.5664  4.7145   1
   2  -6 -10 45.6160  5.2583   2
   6  -4 -10 38.6747  5.3723   1
  -6   2  10 52.6453  5.7485   1
   4   2 -10 34.0205  3.2454   1
  -6   2  10 60.4226  5.5990   2
   4  -6  10 40.9816  6.1054   1
  -4  -2 -10 46.3476  5.3672   1
  -2  -4 -10 46.6136  5.1187   2
   4  -6 -10 59.2659  6.2295   1
  -2   6  10 37.7944  5.3274   1
   2  -6  10 51.4602  6.2588   1
   4   2  10 47.8426  4.6658   1
   6  -4  10 44.8159  5.6840   1
   2   4 -10 43.8807  4.1042   1
  -6   4  10 50.4042  6.0456   1
  -4  -2  10 39.6463  5.3038   1
  -2  -4 -10 43.1517  5.4540   1
  -6   4  10 42.6402  5.3897   2
   4   2  10 44.9915  4.6305   1
  -2   6  10 38.7751  5.7607   1
   4  -6 -10 58.5354  5.3333   2
   6  -2 -10 46.4189  4.5781   1
  -4  -2  10 46.0613  5.1589   2
  -4   6 -10 52.9374  5.3014   2
   1  -6 -10 0.95350 4.84250   1
  -6   1  10 9.52358 4.62116   1
   6  -5 -10 1.36612 3.97828   2
  -6   1  10 -0.1518  4.3782   2
  -1  -5  10 -2.4319  4.6328   1
   5  -6  10 -1.7063  5.0193   1
   5   1 -10 0.11068 2.65740   1
  -5   6  10 0.79328 4.48419   2
  -5   6  10 11.4234  5.0646   1
  -1   6 -10 -2.6625  3.8378   1
   1  -6 -10 2.24251 4.36413   2
   6  -5 -10 -2.5574  4.0862   1
   6  -1  10 -0.3733  4.0873   1
   1   5  10 -1.9702  3.9496   1
   6  -5 -10 1.50182 4.58675   1
   1   5  10 1.44426 3.93669   1
  -6   5 -10 1.57094 4.19934   2
   6  -1  10 -0.2045  4.0737   1
   6  -1 -10 4.67953 3.20381   1
  -1  -5 -10 4.91208 4.26659   2
  -5  -1  10 6.83498 4.50819   1
  -5   6 -10 11.2614  4.4182   2
  -1   6  10 3.36914 4.45175   1
   6  -5  10 -3.0522  4.7970   1
   1   5 -10 -0.1268  3.1875   1
  -6   5  10 -3.2867  4.2315   2
  -6   5  10 0.00816 4.90956   1
  -1  -5 -10 -4.3352  4.5050   1
   5   1  10 1.37744 3.65421   1
  -1   6  10 4.39559 4.42232   1
  -5  -1  10 -3.2225  4.1668   2
   5   1  10 -1.5594  3.5967   1
   5  -6 -10 0.82681 4.93199   1
   1  -6  10 -0.0416  4.8043   1
   5  -6 -10 2.54451 4.11558   2
  -6   0  10 5.64498 4.40592   2
   6   0  10 3.34403 3.74322   1
  -6   6  10 2.32141 4.77632   2
   6  -6 -10 -0.0627  4.2452   2
   0   6  10 5.13081 4.15587   1
   0  -6 -10 7.04522 5.03777   1
   0  -6 -10 -4.1587  4.4282   2
   6  -6  10 8.93952 5.33834   1
   6   0 -10 6.33543 2.89923   1
   6   0  10 9.69589 3.91847   1
  -6   6 -10 3.64121 4.40925   2
   0   6  10 1.75052 4.41528   1
   0  -6  10 -0.7355  4.9037   1
   0   6 -10 5.47148 3.82397   1
  -6   0  10 9.61650 4.65996   1
  -6   6  10 3.13825 5.22590   1
   6  -6 -10 4.09324 4.93096   1
  -4  -3 -10 178.402   9.772   1
  -4   7  10 151.403  10.190   1
   7  -4 -10 171.993   9.836   1
  -3  -4  10 171.747   9.382   2
  -3   7 -10 173.126  10.110   1
   7  -3  10 174.482  10.206   1
  -3   7 -10 183.296   9.578   2
  -3  -4  10 165.202   9.784   1
   3  -7 -10 167.552   9.743   2
   7  -3  10 164.761   9.885   1
   3  -7 -10 171.401  10.715   1
   4  -7  10 158.771  10.703   1
  -7   3  10 167.838   9.779   2
   4   3 -10 162.400   7.616   1
  -7   3  10 153.713  10.148   1
   3   4  10 163.595   8.699   1
  -4   7  10 179.730  10.166   2
   7  -4 -10 182.138   9.859   1
   4  -7 -10 163.512   9.766   2
  -3  -4 -10 167.323   9.083   2
   3  -7  10 173.848  10.766   1
  -4  -3  10 169.376   9.201   2
   7  -4  10 176.894  10.253   1
  -7   4  10 178.623  10.516   1
   4   3  10 158.814   8.209   1
  -4  -3  10 165.300   9.703   1
   7  -3 -10 169.112   9.607   1
   4  -7 -10 168.252  10.660   1
   3   4 -10 164.270   7.985   1
  -3   7  10 149.894   9.914   1
  -3   7  10 155.031  10.448   1
   7  -3 -10 173.777   9.449   1
  -3  -4 -10 165.294   9.630   1
  -7   4  10 172.788   9.961   2
   4   3  10 161.122   8.585   1
  -5   7  10 76.9124  6.6300   2
  -2  -5  10 72.8173  6.2465   2
   5  -7  10 83.8074  7.4824   1
   2   5  10 68.9780  5.5674   1
  -7   2  10 82.5190  6.8597   1
   7  -2  10 81.9084  6.2531   1
   7  -2  10 87.5244  6.3648   1
  -2  -5  10 77.1117  6.5764   1
  -5   7  10 66.9163  7.0008   1
   7  -5 -10 70.6555  6.5214   1
   7  -5 -10 84.5076  5.8801   2
   5   2 -10 68.4463  4.6807   1
   7  -5 -10 85.6933  6.4391   1
   2  -7 -10 82.7411  6.4065   2
   2   5  10 69.8752  5.5930   1
  -2   7 -10 85.1523  6.2620   1
   2  -7 -10 76.3669  7.2446   1
  -7   2  10 72.8613  6.2790   2
  -7   5  10 72.8200  7.1115   1
  -7   5  10 77.6618  6.6605   2
   2   5 -10 76.6912  5.5250   1
  -2   7  10 77.3157  6.6675   1
   2  -7  10 82.7046  7.3065   1
   7  -2 -10 74.4079  5.3948   1
  -5  -2  10 76.0972  6.1383   2
  -2   7  10 77.1785  6.6590   1
   5   2  10 83.2865  6.1333   1
   7  -5  10 75.0924  6.9389   1
  -2  -5 -10 79.2807  6.6355   1
  -5   7 -10 89.3206  6.5319   2
  -5  -2  10 69.3869  6.3230   1
  -2  -5 -10 77.2263  6.1138   2
   5  -7 -10 75.3647  7.1755   1
   5  -7 -10 75.2759  6.3535   2
   5   2  10 82.1893  5.5613   1
  -6   7  10 280.730  14.416   1
  -1   7 -10 303.509  13.396   1
   7  -1  10 282.114  13.005   1
   7  -1  10 283.633  12.998   1
   6  -7  10 287.021  14.558   1
  -7   6 -10 304.188  13.833   2
   7  -6 -10 300.929  13.477   2
   1   6  10 277.151  13.042   1
  -7   1  10 296.717  13.240   2
   1  -7 -10 274.796  13.338   2
  -6   7  10 320.976  14.486   2
   1  -7 -10 276.940  14.219   1
  -1  -6  10 296.347  14.074   1
   1   6  10 276.906  12.983   1
  -7   1  10 281.373  13.685   1
   6   1 -10 266.623  11.588   1
   7  -6 -10 290.402  14.103   1
   7  -1 -10 231.724  11.824   1
  -6  -1  10 283.689  12.963   2
   7  -6  10 295.976  14.378   1
   6   1  10 285.921  12.388   1
  -1   7  10 273.580  13.359   1
   6   1  10 271.900  12.293   1
   1   6 -10 270.470  12.457   1
  -1  -6 -10 287.373  14.129   1
  -1  -6 -10 281.155  13.257   2
   1  -7  10 288.389  14.307   1
   6  -7 -10 290.556  13.844   2
  -1   7  10 318.549  13.918   1
  -7   6  10 291.328  13.942   2
  -6   7 -10 295.427  13.862   2
   1  -7  10 290.143  13.772   2
   6  -7 -10 262.466  14.181   1
  -7   6  10 284.307  14.476   1
  -6  -1  10 263.853  13.478   1
   7   0  10 798.972  30.767   1
  -7   7  10 754.279  32.390   1
  -7   0  10 818.232  31.763   1
   7  -7  10 783.279  32.444   1
   0   7 -10 764.891  31.050   1
   7   0  10 770.995  30.750   1
   0   7  10 826.166  31.515   1
   0  -7  10 800.696  32.207   1
   0   7 -10 762.593  31.030   1
   0  -7 -10 746.347  31.419   2
   7  -7 -10 771.324  32.295   1
   0   7  10 773.555  31.349   1
  -7   7 -10 822.407  31.940   2
   7   0 -10 801.216  30.250   1
  -7   7  10 820.842  32.114   2
   0  -7  10 764.038  31.489   2
   0  -7 -10 757.069  31.994   1
   7  -7 -10 834.959  31.627   2
  -7   0  10 778.382  31.124   2
   4   4  10 802.450  30.605   1
   4  -8 -10 813.157  32.778   1
   4   4  10 790.262  30.568   1
  -4   8  10 735.363  32.212   1
  -4  -4  10 770.406  31.265   2
   8  -4 -10 826.106  31.834   1
   4  -8  10 794.524  32.706   1
  -4   8 -10 811.647  32.238   1
   4  -8 -10 777.870  31.857   2
  -8   4  10 818.568  31.961   2
  -4  -4  10 801.983  31.861   1
   8  -4  10 775.228  31.982   1
  -4  -4 -10 760.168  31.218   2
  -4  -4 -10 794.828  31.803   1
  -4   8 -10 816.013  31.572   2
   8  -4 -10 796.812  31.886   1
  -8   4  10 805.124  32.440   1
  -3   8 -10 80.0758  6.5121   1
  -8   3  10 92.9767  7.4974   1
   5  -8  10 90.7733  8.0049   1
   3   5  10 78.4228  5.8262   1
  -8   3  10 95.6392  7.0453   2
   8  -3  10 89.1049  6.8397   1
  -5  -3 -10 83.4456  6.7476   1
  -5   8  10 85.8965  7.5699   1
   3  -8 -10 103.089   8.147   1
   3   5  10 80.5230  5.8682   1
   8  -5 -10 81.8873  6.5812   1
   8  -5 -10 85.3307  6.8570   1
  -8   5 -10 79.7100  6.7470   2
  -3  -5  10 80.9842  6.8627   1
  -3  -5  10 78.7418  6.5504   2
   3  -8 -10 79.2610  6.9111   2
   8  -3  10 100.451   7.053   1
  -5  -3  10 84.0878  6.3901   2
   5  -8 -10 93.3185  7.9745   1
  -3   8  10 86.1374  7.1003   1
   5  -8 -10 81.9940  6.9872   2
  -3   8  10 95.2641  7.5163   1
  -8   5  10 90.0083  7.1307   2
  -3  -5 -10 84.3149  6.5042   2
   8  -5  10 82.9855  7.2747   1
  -5  -3  10 86.9829  6.7355   1
  -3  -5 -10 91.3580  7.0155   1
  -8   5  10 78.9140  7.5267   1
   8  -3 -10 88.6707  6.8288   1
   3  -8  10 89.7058  7.7760   1
   5   3  10 78.7124  5.1659   1
  -2   8 -10 85.9665  6.7613   1
   2  -8 -10 93.7311  7.2011   2
  -2  -6  10 83.2111  7.1830   1
  -8   2  10 102.631   7.445   1
  -2   8 -10 86.4927  6.6903   1
   2   6  10 85.8310  6.3612   1
  -6   8  10 95.2139  7.5211   2
   8  -6 -10 97.1602  7.4090   1
  -2  -6  10 99.4212  7.7148   2
   2  -8 -10 89.2910  7.9812   1
  -2  -6  10 91.7088  6.9178   2
   6  -8  10 101.185   8.315   1
  -8   2  10 97.4198  7.0671   2
   2   6  10 88.8533  6.4686   1
   8  -2  10 97.6220  7.4680   1
   8  -2  10 98.7063  7.6200   1
  -6   8  10 71.0864  7.7597   1
   8  -6 -10 102.164   7.229   1
  -2   8  10 94.5187  7.3560   1
   6  -8 -10 90.5297  8.1892   1
  -8   6  10 85.0142  7.8297   1
  -2   8  10 103.021   7.244   1
  -2  -6 -10 100.336   7.779   2
  -2  -6 -10 91.5467  7.3636   1
  -6   8 -10 100.956   7.419   2
   2   6 -10 87.6026  5.4570   1
   2  -8  10 101.744   7.732   2
  -6  -2  10 81.9020  6.7012   1
   2   6 -10 83.0881  5.5408   1
  -8   6  10 94.7869  7.4331   2
   2  -8  10 98.8899  7.9346   1
   8  -6  10 87.6882  7.6707   1
  -6  -2  10 89.2207  6.5305   2
   6  -8 -10 81.7537  7.0124   2
  -7   8  10 97.4503  7.8994   2
  -1   8 -10 89.9538  7.3916   1
   8  -7 -10 105.973   8.147   1
   1   7  10 102.018   7.270   1
  -1  -7  10 104.502   7.961   1
   8  -7 -10 106.529   8.244   2
  -8   1  10 104.577   7.604   1
   7  -8  10 106.860   8.839   1
  -1  -7  10 117.863   8.453   2
  -8   1  10 103.626   7.769   2
   8  -1  10 101.442   7.035   1
  -7   8  10 104.071   8.440   1
   1  -8 -10 100.425   8.044   2
   8  -1  10 92.3781  7.1001   1
   1  -8 -10 100.928   8.278   1
   1  -8  10 109.443   8.032   2
   1   7 -10 102.774   6.471   1
   1   7 -10 95.0199  6.3133   1
  -7  -1  10 105.099   8.319   1
  -1  -7 -10 105.821   8.026   2
   1  -8  10 111.902   8.427   1
  -1  -7 -10 105.874   7.984   1
  -7  -1  10 107.157   7.536   2
   7  -8 -10 93.8542  8.2261   1
  -8   7  10 115.472   9.074   2
  -7   8 -10 103.954   7.731   2
  -1   8  10 104.350   8.084   1
   8  -7  10 99.0753  8.3262   1
  -8   7  10 110.131   8.572   1
   0  -8 -10 50.6550  6.8094   1
   0  -8  10 72.0353  7.2366   1
   0  -8 -10 65.0878  6.5516   2
  -8   0  10 72.8967  6.0293   2
   0  -8  10 65.2008  6.9071   2
   8  -8 -10 52.4794  6.8971   1
   0   8  10 60.8219  5.8431   1
   0   8 -10 67.3285  5.2085   1
  -8   0  10 81.1133  6.4905   1
   8  -8  10 62.8757  7.5001   1
  -8   8  10 66.8549  7.5657   1
  -4   9 -10 120.840   8.798   1
  -9   4  10 122.864   9.475   1
   4  -9 -10 139.483  10.331   1
  -4  -5  10 124.414   8.273   2
  -9   5 -10 115.383   9.200   2
  -9   4  10 140.899   9.283   2
   9  -5 -10 113.445   8.823   1
   4  -9 -10 128.594   9.137   2
  -5  -4 -10 134.357   9.013   1
  -5   9  10 131.543   9.671   1
   5  -9  10 132.334  10.341   1
  -4  -5  10 134.158   8.985   1
   9  -4  10 126.268   9.233   1
  -4  -5 -10 123.749   8.101   2
  -9   5  10 118.421   9.751   1
   5  -9 -10 157.012   9.475   2
   9  -5  10 118.909   9.379   1
   9  -4 -10 129.820   8.644   1
   4  -9  10 131.990  10.164   2
  -4   9  10 148.705  10.372   1
  -9   5  10 139.772   9.466   2
   4  -9  10 129.675   9.567   1
   5  -9 -10 131.718  10.346   1
  -4   9  10 130.146   9.244   1
  -4  -5 -10 128.681   8.801   1
  -5  -4  10 123.786   8.837   1
  -5  -4  10 142.051   8.251   2
  -3   9 -10 0.93615 4.40576   1
  -6  -3 -10 0.99252 4.50431   1
  -3  -6  10 -5.7212  4.8519   1
  -3  -6  10 3.43687 4.85062   2
   9  -6 -10 6.19482 4.92948   1
  -9   3  10 0.83775 5.00095   1
  -3  -6  10 1.64314 4.59448   2
   6  -9  10 3.81830 6.08533   1
   3  -9 -10 0.11690 4.90969   2
   9  -3  10 12.0259  4.7077   1
   3  -9 -10 4.06798 5.81585   1
  -9   3  10 1.03187 4.95852   2
  -6   9  10 4.68783 5.57903   1
  -3  -6 -10 5.53442 4.61344   2
  -6  -3  10 7.30015 4.42060   2
  -3  -6 -10 9.09036 5.00421   1
  -3   9  10 4.69796 4.90603   1
   3  -9  10 7.24133 5.75432   2
  -9   6  10 13.8307  5.7702   1
   9  -6  10 12.2217  5.4765   1
   3  -9  10 3.18865 5.85597   1
  -9   6  10 -1.7113  5.2408   2
   6  -9 -10 -0.3847  5.9028   1
  -6  -3  10 5.78869 4.63118   1
   2  -9 -10 11.1710  6.1063   1
   2   7  10 13.1142  3.2240   1
  -7   9  10 21.3786  6.2042   1
  -2  -7  10 9.99371 5.22495   1
   2  -9 -10 4.70004 5.07917   2
   9  -2  10 10.0730  4.1986   1
   7  -9  10 5.92378 6.07722   1
   2   7  10 7.40672 3.00042   1
  -2   9 -10 0.34478 4.46223   1
  -9   2  10 8.11596 4.92589   2
  -9   2  10 7.47484 5.11487   1
   9  -7 -10 8.21701 5.08966   1
  -2  -7  10 19.8222  5.1041   2
  -2  -7 -10 10.9376  4.8239   2
   9  -7  10 13.4740  5.8093   1
   2  -9  10 3.28292 5.92375   2
   7  -9 -10 10.3852  6.0435   1
  -9   7  10 10.2922  5.8305   1
  -2  -7 -10 11.1931  5.3872   1
   2  -9  10 10.5494  5.9015   1
  -7  -2  10 8.82711 4.43879   2
  -2   9  10 14.6703  5.1240   1
   1  -9 -10 84.1223  7.1638   2
   8  -9  10 90.8975  8.4894   1
  -1  -8  10 95.4632  7.5587   1
   1   8  10 85.9683  6.3601   1
  -9   1  10 88.2576  7.2608   1
   9  -1  10 85.4344  5.4464   1
  -8   9  10 94.2125  8.4717   1
   1  -9 -10 78.2373  7.9339   1
  -1  -8  10 100.367   7.375   2
  -9   1  10 93.5132  6.8321   2
   9  -8 -10 100.876   8.021   1
  -1   9 -10 88.8255  6.3132   1
  -9   8  10 90.4879  8.3086   1
   1  -9  10 90.4029  8.0920   1
  -1   9  10 84.6774  6.9190   1
   1   8 -10 81.3460  5.0713   1
  -1  -8 -10 101.041   7.228   2
   8  -9 -10 81.6612  8.1534   1
  -1  -8 -10 91.2620  7.7632   1
   1  -9  10 73.5935  7.5239   2
  -8  -1  10 92.8993  6.5475   2
   9  -8  10 94.3780  8.2159   1
  -9   0  10 35.0389  5.2024   2
   0  -9  10 37.4035  6.1688   2
   9  -9  10 40.4519  6.9606   1
   0  -9 -10 35.6517  6.4665   1
   0  -9 -10 25.3891  5.5404   2
   0  -9  10 18.9315  6.1951   1
   0   9 -10 33.7027  3.9914   1
  -9   9  10 27.2404  6.7320   1
   0   9  10 31.8372  4.8273   1
   9  -9 -10 28.0039  6.2997   1
   5 -10 -10 11.0342  6.1996   1
  10  -5  10 5.38006 4.90374   1
   5 -10  10 6.41159 6.34101   1
  -5  10  10 1.17619 5.33141   1
  -5  -5 -10 -0.0881  4.3943   2
  -5  -5  10 -0.4082  4.3769   2
 -10   5  10 6.34667 5.41360   2
 -10   5  10 11.2172  5.4629   1
  -5  10 -10 2.37892 4.67325   1
  10  -5 -10 5.94825 4.55034   1
   4 -10 -10 279.958  14.013   2
 -10   4  10 272.419  13.699   2
 -10   4  10 301.553  14.193   1
  10  -4  10 294.058  13.433   1
  -6  10  10 276.953  14.395   1
  -4  10 -10 268.952  13.611   1
   6 -10  10 274.611  15.216   1
  -4  -6  10 272.213  13.051   2
  10  -6 -10 276.719  13.659   1
   4 -10 -10 295.380  15.049   1
  -4  -6  10 272.559  12.900   2
  -6  -4  10 262.968  12.665   2
   4 -10  10 276.979  14.947   1
   6 -10 -10 275.430  14.929   1
   4 -10  10 307.029  14.739   2
  -4  10  10 264.888  13.923   1
 -10   6  10 275.052  14.603   1
  -6  10 -10 263.530  13.857   1
  10  -6  10 288.462  14.143   1
  -4  -6 -10 266.514  12.955   2
  -3  -7  10 133.919   8.864   2
  -7  10  10 146.810  10.359   1
  -3  10 -10 162.984   9.255   1
 -10   3  10 136.116   9.235   2
   3 -10 -10 134.723  10.664   1
  10  -3  10 149.480   8.465   1
 -10   3  10 131.513   9.719   1
   3 -10 -10 131.853   9.554   2
  -3  -7  10 139.050   8.895   2
  10  -7 -10 129.339   9.579   1
   7 -10  10 152.035  11.129   1
 -10   7  10 139.386  10.629   1
  -7  -3  10 137.637   8.337   2
   7 -10 -10 132.997  10.062   1
   3 -10  10 150.154  10.611   2
  -3  -7 -10 134.363   9.004   2
  -3  10  10 146.272   9.371   1
   3 -10  10 150.472  10.810   1
  -7  10 -10 119.566   9.442   1
  10  -7  10 142.762  10.193   1
 -10   2  10 10.2871  5.1438   2
  -2  10 -10 15.8232  4.6133   1
   2 -10 -10 6.31754 6.30453   1
  -8  10  10 5.92722 6.10836   1
  10  -2  10 17.1087  3.4005   1
   2 -10 -10 13.3435  5.4869   2
  10  -8 -10 7.88691 5.33986   1
  -2  -8  10 12.3347  5.1806   2
   8 -10  10 12.0065  6.5456   1
   2 -10  10 7.11615 6.03401   2
   2 -10  10 15.2155  6.2386   1
 -10   8  10 7.81049 6.13369   1
  10  -8  10 6.87140 6.05517   1
  -8  -2  10 11.1518  4.4259   2
  -2  10  10 10.1305  5.1224   1
   8 -10 -10 14.5937  6.3760   1
  -2  -8 -10 14.6626  5.1084   2
  10  -9 -10 6.54198 5.72181   1
  -1  -9  10 6.39054 5.31656   2
   1 -10 -10 3.25963 5.01339   2
   9 -10  10 -1.0940  6.2196   1
   1   9  10 -6.1404  2.8793   1
  -1  10 -10 7.62384 3.77102   1
  -9  10  10 -5.3540  5.8538   1
 -10   1  10 -8.4666  4.5381   2
   1 -10 -10 0.13929 5.79990   1
   1 -10  10 11.8137  5.8814   2
 -10   9  10 9.58374 6.10923   1
  10  -9  10 0.22308 6.28856   1
  -1  -9 -10 -6.1445  4.8311   2
   9 -10 -10 6.14896 6.13222   1
  -1  10  10 -0.5730  4.5340   1
   1 -10  10 5.01235 5.83740   1
  -9  -1  10 -2.2704  4.3811   2
   0 -10 -10 -0.6624  5.0909   2
  10 -10  10 -2.9520  6.5078   1
 -10   0  10 9.11668 4.63426   2
   0 -10  10 -0.4793  5.6946   2
 -10  10  10 -7.4138  5.9784   1
  10 -10 -10 1.32943 5.94296   1
   0  10  10 4.10990 3.85286   1
  11  -6 -10 12.6098  4.8817   1
  -6  11  10 17.8071  5.9186   1
  -5  11 -10 8.25760 5.04480   1
   5 -11 -10 0.72999 6.25257   1
 -11   5  10 2.50814 5.39523   1
  11  -5  10 10.3589  5.0720   1
   6 -11  10 11.8233  6.7855   1
  -5  -6  10 9.93714 4.54339   2
  -5  -6  10 12.5281  4.7125   2
   6 -11 -10 2.97198 6.50192   1
  -6  -5  10 6.51300 4.49280   2
  11  -6  10 5.20453 5.41852   1
  -6  11 -10 5.80600 5.10284   1
 -11   6  10 5.27820 5.55164   1
  -5  11  10 13.8709  5.6995   1
  11  -5 -10 14.5543  4.6098   1
   5 -11  10 10.0009  6.6910   1
  -5  -6 -10 8.18399 4.57260   2
   7 -11  10 106.485   9.360   1
  -4  -7  10 97.8608  7.0393   2
 -11   4  10 94.8590  7.8530   2
  -4  -7  10 98.2651  7.2075   2
  -7  11  10 114.157   8.867   1
  11  -7 -10 121.238   8.654   1
   4 -11 -10 92.8537  9.0293   1
  11  -4  10 95.6250  7.4115   1
  -4  11 -10 105.243   8.368   1
  -4  11  10 86.0586  7.7569   1
 -11   7  10 94.4215  8.5220   1
  -4  -7 -10 90.6256  7.1697   2
  -7  11 -10 74.3020  7.7182   1
  -7  -4  10 91.9268  7.3832   2
  11  -7  10 95.3187  8.1294   1
   7 -11 -10 108.034   9.333   1
   4 -11  10 108.162   9.177   1
  -3  -8  10 239.109  12.045   2
  -3  11 -10 245.242  11.976   1
   3 -11 -10 245.758  13.900   1
  -8  11  10 222.280  13.469   1
  11  -3  10 235.829  10.715   1
 -11   3  10 244.672  12.529   2
   8 -11  10 242.679  14.369   1
  11  -8 -10 230.170  12.784   1
  -3  11  10 221.624  12.465   1
   8 -11 -10 219.139  13.655   1
   3 -11  10 228.497  13.890   1
 -11   8  10 241.879  13.675   1
  -8  11 -10 218.465  12.881   1
  11  -8  10 228.873  13.110   1
  -8  -3  10 237.041  11.395   2
  -3  -8 -10 241.194  12.009   2
   3 -11  10 248.517  13.740   2
   2 -11 -10 54.2217  6.6780   2
  -2  11 -10 43.4649  5.2140   1
  -9  11  10 39.9778  7.4916   1
  -2  -9  10 49.5186  6.3529   2
   2 -11 -10 39.7282  7.3230   1
 -11   2  10 58.0742  6.2608   2
  11  -9 -10 43.7076  6.7707   1
   9 -11  10 54.4157  8.0466   1
  -9  -2  10 39.3018  5.2795   2
  -9  11 -10 48.1496  6.8134   1
  11  -9  10 40.5077  7.0317   1
  -2  11  10 48.3708  6.0510   1
  -2  -9 -10 49.0998  6.2675   2
 -11   9  10 55.5245  7.5946   1
   2 -11  10 40.0357  7.0584   2
   9 -11 -10 45.2295  7.4929   1
 -10  11  10 107.293   9.408   1
  -1  11 -10 95.7611  6.0739   1
  -1 -10  10 111.588   8.109   2
 -11   1  10 85.1263  7.1178   2
  10 -11  10 92.8519  9.4676   1
  11 -10 -10 86.1845  8.5378   1
   1 -11 -10 81.5227  7.6458   2
 -10  -1  10 93.9655  6.7446   2
 -10  11 -10 95.7819  8.4121   1
 -11  10  10 93.9354  9.1428   1
   1 -11  10 87.6114  8.3348   2
  11 -10  10 83.2896  8.8787   1
  10 -11 -10 85.4528  8.9344   1
  -1  11  10 102.420   7.588   1
  -1 -10 -10 76.4199  7.4657   2
  11 -11 -10 44.1702  7.5122   1
   0 -11 -10 53.2929  6.8613   2
 -11   0  10 61.6619  6.0622   2
 -11  11  10 52.6799  8.0530   1
 -11  11 -10 52.5242  7.3847   1
  11 -11  10 50.6373  8.1172   1
   0 -11  10 66.6635  7.3801   2
  -6  -6 -10 19.6705  4.9282   2
   6 -12  10 24.4053  7.5074   1
  12  -6 -10 32.1851  5.3060   1
  -6  -6  10 29.0532  4.9982   2
  12  -6  10 26.4932  5.6228   1
  -6  12  10 29.7868  6.4904   1
   6 -12 -10 33.5355  7.4145   1
  -6  12 -10 20.6022  5.8722   1
   7 -12  10 131.674  10.499   1
  12  -5  10 124.521   8.387   1
   5 -12 -10 119.549  10.170   1
  -5  -7  10 101.692   8.203   2
  -7  12  10 122.562   9.765   1
  -5  12 -10 126.023   9.169   1
  12  -7 -10 120.796   8.974   1
  -5  -7  10 113.142   8.045   2
  -7  -5  10 117.267   7.900   2
  -5  12  10 118.839   9.421   1
   7 -12 -10 120.166  10.230   1
   5 -12  10 127.197  10.379   1
  -5  -7 -10 115.890   8.218   2
 -12   7  10 133.075  10.462   1
  -7  12 -10 100.670   8.582   1
  12  -7  10 119.806   9.386   1
  -8  12  10 22.7715  6.6429   1
  -4  -8  10 17.2809  5.1800   2
  12  -4  10 16.1260  4.1812   1
   4 -12 -10 11.5277  6.7889   1
  -4  12 -10 26.2438  5.4520   1
   8 -12  10 16.4769  7.3031   1
  12  -8 -10 31.1239  5.8176   1
   4 -12  10 21.0929  7.3194   1
  -8  -4  10 17.7784  4.7341   2
  -4  12  10 15.9975  5.7923   1
   8 -12 -10 18.4117  7.0765   1
  12  -8  10 18.7128  6.1194   1
 -12   8  10 20.6925  6.5729   1
  -8  12 -10 16.5828  6.0050   1
  -4  -8 -10 23.5961  5.2776   2
  12  -9 -10 -1.3387  5.3364   1
  -3  12 -10 0.26890 4.59493   1
  -3  -9  10 3.07959 5.26790   2
  -9  12  10 5.86487 6.43415   1
   9 -12  10 5.13385 7.11595   1
 -12   9  10 6.82022 6.39527   1
   9 -12 -10 4.55084 6.79976   1
  -3  12  10 5.57716 5.23954   1
  12  -9  10 16.3973  6.1957   1
  -9  -3  10 1.06375 4.30523   2
  -3  -9 -10 3.85305 5.18960   2
  -9  12 -10 -4.0918  5.3687   1
 -12   2  10 0.53994 5.06106   2
 -10  12  10 10.2947  6.9425   1
  12 -10 -10 7.18059 6.00074   1
  -2  12 -10 10.0877  4.0842   1
  10 -12  10 2.46042 7.00047   1
  -2 -10  10 7.61502 5.67656   2
  -2  12  10 1.28924 4.78143   1
  12 -10  10 -4.0676  6.1490   1
 -12  10  10 2.90667 6.50843   1
 -10  -2  10 7.37590 4.58069   2
   2 -12  10 10.5884  6.5236   2
  10 -12 -10 8.35547 6.80008   1
  -2 -10 -10 12.2258  5.6325   2
 -10  12 -10 2.77156 5.84676   1
  -1 -11  10 23.2374  6.3299   2
 -12  11 -10 22.9205  6.5260   1
 -12   1  10 28.9243  5.5829   2
  12 -11 -10 14.1796  6.5865   1
 -11  12  10 30.4357  7.6435   1
  11 -12  10 12.8931  7.4389   1
 -12  11  10 18.7671  7.2368   1
  -1  12  10 20.4323  4.2195   1
  12 -11  10 18.3439  7.0049   1
 -11  12 -10 15.3842  6.3020   1
   1 -12  10 19.8136  6.9694   2
 -11  -1  10 22.0149  5.1071   2
  -1 -11 -10 23.7227  6.2405   2
  11 -12 -10 21.8489  7.3191   1
 -12   0  10 109.718   8.419   2
  12 -12  10 108.858  10.326   1
 -12  12 -10 112.456   9.592   1
 -12  12  10 109.793  10.259   1
  12 -12 -10 109.858   9.849   1
   0 -12  10 116.097   9.210   2
   0 -12 -10 103.491   8.724   2
  13  -6  10 11.8173  5.1372   1
  -6  -7  10 4.95295 4.60972   2
  -7  13  10 14.0496  6.2726   1
  -6  -7  10 8.73628 4.86407   2
  -6  13 -10 10.7104  5.5299   1
   7 -13  10 1.63263 7.08495   1
  13  -7 -10 13.2168  5.0233   1
   6 -13 -10 6.84052 7.13444   1
  -6  13  10 8.81853 6.04330   1
  -7  13 -10 -0.0312  5.4286   1
  -6  -7 -10 10.7927  4.9840   2
   7 -13 -10 15.0770  7.3051   1
   6 -13  10 5.59034 7.25696   1
  -7  -6  10 12.0411  4.6494   2
  13  -7  10 21.5035  5.8269   1
   8 -13  10 1.77959 7.23964   1
  -8  13  10 5.72189 6.23241   1
  -5  -8  10 -0.9217  4.7520   2
  -5  13 -10 5.35620 5.16998   1
  13  -8 -10 6.13370 5.07531   1
  13  -5  10 -0.0636  4.1233   1
   5 -13 -10 -5.7981  6.7365   1
  -5  -8  10 0.91629 5.00152   2
  -5  -8 -10 5.24604 5.08300   2
  -8  -5  10 4.23791 4.58510   2
   8 -13 -10 2.24017 6.90240   1
   5 -13  10 -13.475   6.860   1
  -8  13 -10 -0.8256  5.6504   1
  13  -8  10 -7.2195  5.3754   1
  -5  13  10 -8.8616  5.4237   1
 -13   8  10 2.42884 6.35687   1
   9 -13  10 3.18824 7.42448   1
  13  -9 -10 -7.8046  5.2614   1
  -4  -9  10 -3.7081  5.0251   2
  -4  13 -10 1.34793 4.84889   1
  -9  13  10 -2.7369  6.4481   1
  -4  -9 -10 6.28928 5.18483   2
  -4  13  10 1.96640 5.38172   1
  -9  13 -10 -3.3123  5.6752   1
  -9  -4  10 4.51061 4.55483   2
  13  -9  10 0.09038 5.76614   1
   9 -13 -10 -2.6224  6.9494   1
 -13   9  10 -1.5566  6.4316   1
  10 -13  10 39.0520  8.3033   1
  -3  13 -10 37.3380  5.2437   1
 -10  13  10 32.0344  7.7435   1
  13 -10 -10 40.3329  6.9226   1
  -3 -10  10 33.8137  6.1147   2
 -10  -3  10 30.6269  5.1869   2
 -13  10  10 21.8011  7.3782   1
  13 -10  10 32.3223  7.1860   1
 -10  13 -10 34.5738  6.8293   1
  10 -13 -10 34.1447  8.0042   1
  -3 -10 -10 23.5692  6.2427   2
  -3  13  10 41.5785  6.0976   1
  -2  13 -10 0.67589 3.39472   1
  11 -13  10 -0.8426  7.4148   1
 -13  11 -10 -6.7345  5.9370   1
 -11  13  10 7.62890 7.23534   1
  13 -11 -10 2.63972 6.32606   1
  -2 -11  10 -0.4606  5.8082   2
 -13  11  10 4.86278 6.81831   1
  -2  13  10 -3.6141  4.5658   1
  -2 -11 -10 5.42034 5.86547   2
  11 -13 -10 5.30342 7.22942   1
  13 -11  10 -10.556   6.367   1
 -11  13 -10 -2.0139  6.0083   1
 -11  -2  10 4.61493 4.80089   2
  -1 -12  10 -7.8584  6.0849   2
  13 -12 -10 4.50806 6.63530   1
 -13  12 -10 -1.0514  6.2709   1
  12 -13  10 0.80481 7.35556   1
 -12  13  10 4.97453 7.43013   1
 -12  -1  10 -0.5937  4.8491   2
 -12  13 -10 -5.1795  6.1345   1
  -1 -12 -10 18.0232  6.2117   2
 -13  12  10 -5.7890  7.2152   1
  12 -13 -10 -6.3709  6.9392   1
  13 -12  10 -3.6469  6.9177   1
 -13   0  10 36.7772  6.0064   2
  13 -13 -10 21.3764  7.7216   1
 -13  13  10 14.4170  7.9379   1
 -13  13 -10 24.0151  7.2899   1
  13 -13  10 21.0695  8.2073   1
  14  -7 -10 82.6916  6.7674   1
  -7  -7 -10 87.3252  6.9591   2
  -7  14 -10 79.5283  7.9765   1
   7 -14 -10 84.9087 10.0937   1
  -7  14  10 94.6990  8.8406   1
   7 -14  10 88.0584 10.1206   1
  14  -7  10 88.6207  7.3882   1
  -7  -7  10 76.2213  6.7022   2
  -6  -8  10 9.78356 5.37906   2
  14  -6  10 5.73186 4.51514   1
  -6  14 -10 10.5184  5.7279   1
  14  -8 -10 5.36104 5.08011   1
  -6  -8  10 7.51924 5.03423   2
   8 -14  10 1.55087 7.67230   1
  -8  14  10 9.12965 6.50931   1
   6 -14 -10 7.04955 7.55327   1
   8 -14 -10 6.03181 7.51142   1
   6 -14  10 11.6236  7.7657   1
  14  -8  10 4.34377 5.84015   1
  -8  14 -10 10.6031  6.1931   1
  -6  14  10 2.57167 6.11553   1
  -8  -6  10 4.79906 4.68623   2
  -6  -8 -10 3.66843 5.21884   2
  -9  14  10 7.32856 6.93281   1
  -5  -9  10 2.17062 5.25119   2
   9 -14  10 8.62432 8.07299   1
  -5  14 -10 4.25458 5.36265   1
  14  -9 -10 3.37036 5.47909   1
  14  -9  10 13.6169  6.4236   1
  -5  14  10 1.63971 5.71151   1
  -5  -9 -10 -0.1426  5.3082   2
  -9  -5  10 3.58986 4.76094   2
   9 -14 -10 15.2293  7.7803   1
  -9  14 -10 7.93464 6.05885   1
  14 -10 -10 5.42474 6.16174   1
  10 -14  10 7.70247 7.79126   1
 -10  14  10 -5.3096  6.8505   1
  -4 -10  10 0.33669 5.46128   2
  -4  14 -10 7.51947 5.04446   1
 -14  10 -10 0.54824 6.40196   1
 -14  10  10 9.63455 7.45394   1
  -4 -10 -10 1.95560 5.66878   2
  -4  14  10 5.95454 5.70532   1
  14 -10  10 2.61111 6.44245   1
  10 -14 -10 -4.3512  7.3985   1
 -10  14 -10 12.0954  6.3544   1
 -10  -4  10 11.2729  4.8343   2
 -14  11 -10 20.8426  7.1131   1
  14 -11 -10 25.6648  7.0462   1
  -3 -11  10 35.9026  6.7213   2
 -11  14  10 32.5188  8.4327   1
  -3  14 -10 33.0546  4.7935   1
  11 -14  10 31.9804  8.7728   1
  -3 -11 -10 39.3421  6.7465   2
  11 -14 -10 36.9836  8.6623   1
  14 -11  10 23.7548  7.3864   1
 -11  -3  10 32.6686  5.3870   2
 -11  14 -10 34.6665  7.4738   1
  -3  14  10 16.6645  5.6140   1
 -14  11  10 31.5525  8.2363   1
  12 -14  10 28.3020  8.6175   1
 -12  14  10 29.3057  8.4776   1
  -2 -12  10 20.4030  6.7429   2
 -14  12 -10 26.7306  7.4355   1
  12 -14 -10 26.4582  8.2373   1
 -12  -2  10 20.8576  5.4317   2
 -12  14 -10 34.4593  7.6147   1
  -2 -12 -10 22.5843  6.6632   2
 -14  12  10 38.7100  8.5362   1
 -14  13 -10 16.6605  7.2020   1
  -1 -13  10 7.19505 6.95611   2
 -13  14  10 7.45667 8.09338   1
 -13  -1  10 13.1374  5.5113   2
 -13  14 -10 13.1647  7.2672   1
 -14  13  10 11.1851  8.1306   1
  -8  15  10 29.6743  7.5887   1
  15  -7  10 30.0792  5.2871   1
  -7  -8  10 28.3804  5.6605   2
  -7  -8  10 27.9479  6.0269   2
   7 -15 -10 18.6336  8.7826   1
  -8  -7 -10 28.0819  5.5780   2
  -7  15 -10 31.5100  6.9673   1
  15  -8 -10 32.2309  5.5477   1
   8 -15  10 39.7078  9.2969   1
  -7  15  10 15.4474  6.8713   1
  -8  -7  10 27.3785  5.4537   2
   8 -15 -10 36.3631  9.0124   1
  -7  -8 -10 33.1416  5.9640   2
  -8  15 -10 22.1869  6.8579   1
  15  -8  10 23.7396  6.1227   1
   9 -15  10 31.9757  9.0281   1
  -6  -9  10 17.3205  5.7723   2
  -6  15 -10 27.1728  6.3659   1
  15  -9 -10 25.4659  5.9402   1
   9 -15 -10 24.4617  8.6159   1
  -9  -6  10 17.7638  5.2988   2
  15  -9  10 21.0835  6.6195   1
  -6  15  10 21.5671  6.7739   1
  -6  -9 -10 22.5499  5.9464   2
  10 -15  10 10.6569  8.7047   1
  -5 -10  10 10.6928  5.9111   2
  -5  15 -10 25.4225  5.8798   1
  15 -10 -10 22.8721  6.4541   1
  -5 -10 -10 2.47157 5.88068   2
  -5  15  10 17.6391  6.3328   1
 -10  -5  10 21.4863  5.3796   2
  10 -15 -10 18.3739  8.6316   1
  15 -10  10 22.2311  6.9741   1
  -4 -11  10 84.2654  8.0689   2
  -4  15 -10 88.7125  6.9033   1
  11 -15  10 101.151  11.156   1
  -4 -11 -10 62.1522  7.8524   2
  11 -15 -10 74.3204 10.3884   1
  -4  15  10 87.4995  7.7883   1
 -11  -4  10 90.6186  7.0646   2
   0   0 -11 -5.3299  3.5128   1
   0   0  11 -4.1567  4.0503   1
   0   0 -11 3.30980 3.55141   2
   0  -1 -11 152.156   8.320   2
  -1   1  11 154.377   9.016   2
   0   1 -11 149.763   8.304   2
   0   1  11 154.283   9.018   1
   0   1 -11 164.713   9.050   1
  -1   1 -11 157.475   9.126   1
  -1   0  11 147.207   8.710   2
   1   0  11 154.365   9.483   1
  -1   0  11 153.315   9.157   1
  -1   1  11 143.525   9.151   1
  -1   0 -11 137.122   8.328   2
   0  -1  11 150.679   9.161   1
   1   0  11 141.711   9.031   1
  -1   1 -11 128.287   8.365   2
   1   0 -11 152.419   8.211   2
   1  -1 -11 152.374   8.285   2
   1  -1 -11 158.639   8.745   1
   1   0 -11 152.870   8.555   1
   0   1  11 140.970   9.266   1
   1  -1  11 138.902   9.044   1
  -1   2 -11 3.38267 3.49969   2
   2  -1 -11 4.82341 3.66559   1
   1  -2 -11 -3.2199  4.1647   1
   2  -1 -11 -2.2467  3.3251   2
   1   1 -11 -4.0099  3.3989   1
  -2   1 -11 3.60324 3.69748   2
  -2   1  11 -2.6063  4.2890   1
   1   1  11 5.98861 4.05668   1
  -1   2  11 3.08973 4.30444   1
  -1   2  11 1.08126 4.25729   1
   1   1  11 -2.5898  4.0769   1
  -1  -1 -11 -6.1479  3.5116   2
   1  -2 -11 -0.2878  3.6527   2
   1   1 -11 0.43088 3.37919   2
   2  -1  11 -0.6952  4.1106   1
  -1  -1  11 2.62877 3.85898   2
  -1  -1  11 2.58276 4.27753   1
  -1   2  11 0.41925 3.87490   2
  -2   1  11 -3.6798  3.7123   2
   1  -2  11 -6.3744  3.9984   1
  -1   2 -11 -0.3499  3.7262   1
   2  -1  11 2.69274 4.23583   1
  -2   2 -11 147.994   8.593   2
   0  -2  11 150.340   9.286   1
   2   0 -11 162.777   8.265   2
  -2   0  11 158.211   9.263   1
   2   0  11 135.232   8.959   1
   0  -2 -11 151.455   9.394   1
  -2   0 -11 147.281   8.646   2
  -2   2  11 152.300   9.223   1
   0   2  11 160.037   9.234   1
   0   2 -11 165.890   9.149   1
  -2   2  11 148.347   8.832   2
   0   2  11 156.858   9.422   1
   2  -2 -11 139.300   8.304   2
   2   0  11 162.164   9.470   1
   2  -2 -11 149.057   9.259   1
  -2   0  11 157.351   8.847   2
   2  -2 -11 173.279   9.156   1
   0  -2 -11 151.267   8.650   2
   2   0 -11 142.635   8.711   1
   2  -2  11 164.704   9.420   1
   0   2 -11 155.489   8.367   2
   3  -2 -11 30.8710  4.2171   2
  -2  -1 -11 29.0979  4.6091   2
   3  -2 -11 28.3346  4.4533   1
  -1  -2  11 27.7697  4.9474   1
  -2   3  11 28.1716  5.1599   1
   1   2  11 26.0389  4.8728   1
   1  -3 -11 29.7777  4.4965   2
   3  -1  11 39.5686  5.1451   1
  -1   3 -11 35.4431  4.6490   1
   3  -2 -11 23.6351  4.7996   1
   1  -3 -11 35.4135  5.1350   1
  -1  -2  11 30.6597  4.6819   2
   2  -3  11 33.1763  5.2244   1
  -3   1  11 34.2990  4.8018   2
  -3   1  11 31.5848  5.1832   1
  -2   3  11 38.4617  5.0312   2
  -1   3 -11 29.3482  4.2149   2
   2   1 -11 28.3378  3.8247   2
   2   1 -11 32.2499  4.1717   1
  -1   3 -11 27.9079  4.3280   2
   1   2  11 36.6199  4.9773   1
  -3   2 -11 25.2913  4.3317   2
   3  -1  11 22.7623  4.8219   1
   3  -1 -11 24.1145  3.9917   2
  -1   3  11 29.9991  5.0415   1
  -2  -1  11 43.8646  5.4303   1
   3  -2  11 23.5480  4.9801   1
   3  -2  11 37.3166  5.2211   1
  -1   3  11 24.1493  4.4799   2
  -3   1 -11 16.5688  4.2344   2
  -2  -1  11 22.2959  4.7492   2
   2   1  11 30.2865  4.6320   1
  -1  -2 -11 19.9730  4.8909   1
   1   2 -11 25.6729  4.1697   1
  -1   3  11 30.8650  5.2150   1
  -1  -2 -11 27.3823  4.4676   2
   1   2 -11 23.7443  3.8413   2
   1  -3  11 20.9511  4.9853   1
  -3   2  11 30.7675  4.5564   2
   2   1  11 36.9066  5.0206   1
  -2   3 -11 32.6851  4.3211   2
   3  -1 -11 25.2858  4.3322   1
   2  -3 -11 28.4837  4.9804   1
  -2   3 -11 32.2727  4.6565   1
  -3   2  11 28.3732  5.1369   1
   2  -3 -11 24.3342  4.2680   2
   3   0  11 571.299  24.895   1
   0  -3 -11 592.332  24.640   2
   0   3  11 622.033  25.314   1
   3   0 -11 616.269  24.760   1
   3  -3 -11 581.632  25.056   1
   0  -3  11 605.358  25.246   1
  -3   3  11 616.339  24.918   2
   3   0 -11 609.499  24.124   2
  -3   0  11 606.211  25.188   1
   3  -3 -11 618.511  24.636   2
   3   0  11 638.844  25.219   1
  -3   0 -11 617.009  24.608   2
   0   3 -11 669.998  25.100   1
   0   3  11 591.708  25.065   1
   0  -3 -11 629.120  25.293   1
   3  -3  11 610.059  25.353   1
   0   3 -11 608.360  24.304   2
  -3   3 -11 590.616  24.609   2
  -3   3  11 610.626  25.348   1
  -3   0  11 624.482  24.821   2
  -2   4  11 2.00587 4.16302   2
   4  -2 -11 -4.7493  3.3600   2
   4  -2 -11 -1.2344  4.0532   1
   4  -2  11 -3.1277  4.4270   1
   2   2  11 -1.9903  3.9205   1
  -2   4  11 0.81617 4.64624   1
  -2  -2 -11 -5.9323  4.0469   2
  -2   4 -11 4.35003 3.99664   1
  -2  -2 -11 -3.3619  4.3314   1
   2  -4 -11 3.07293 4.53153   1
   2   2  11 0.15634 4.22583   1
  -4   2  11 -1.5269  4.6151   1
  -2  -2  11 0.91137 4.34328   2
  -4   2  11 -2.7105  4.0799   2
   2   2 -11 -4.6169  3.4457   1
  -2   4 -11 1.97349 3.98643   2
  -2   4 -11 -3.0875  3.6392   2
   2  -4  11 -11.206   4.479   1
   4  -2  11 -5.3083  4.3065   1
  -2  -2  11 -8.2656  4.2923   1
   4  -2 -11 -1.0375  3.7240   1
  -2   4  11 1.25049 4.52862   1
   2  -4 -11 1.52496 3.91520   2
   1  -4 -11 61.9706  6.0922   1
  -4   1  11 51.9968  5.5704   2
   4  -1  11 57.1350  5.6430   1
  -3  -1 -11 46.9206  5.3084   2
   1   3  11 47.4452  5.5033   1
  -3   4  11 52.5587  5.9519   1
   1   3  11 63.2326  5.8275   1
   4  -1  11 53.3777  5.7104   1
  -1   4 -11 58.7085  5.3961   1
   3  -4  11 50.4120  6.0654   1
   4  -3 -11 52.4210  5.7370   1
  -1  -3  11 51.1496  5.5511   2
  -4   1  11 65.7777  6.1501   1
  -1   4 -11 54.8979  4.9877   2
   4  -3 -11 58.9311  5.0895   2
   4  -3 -11 42.9652  5.1645   1
   3   1 -11 49.4798  4.8086   1
  -3   4  11 46.8705  5.4649   2
  -1  -3  11 59.2591  5.9515   1
   1  -4 -11 57.2942  5.4178   2
  -3   4 -11 57.1517  5.3878   2
  -1  -3 -11 57.5928  5.8025   1
  -1   4  11 60.4668  6.1301   1
  -3  -1  11 54.7950  5.8689   1
   4  -1 -11 55.1730  4.5184   2
   1  -4  11 61.7513  6.1981   1
   3   1  11 52.5947  5.3786   1
  -4   3  11 50.2575  6.1770   1
  -4   3  11 58.1142  5.4841   2
  -3  -1  11 48.7585  5.4675   2
  -3   4 -11 55.5902  5.3060   2
   3   1  11 51.5710  5.5518   1
  -1  -3 -11 59.7294  5.3961   2
   1   3 -11 60.7736  4.9872   1
  -1   4  11 63.3361  5.5613   2
   4  -3  11 49.6047  5.8211   1
  -1   4  11 45.1575  5.5945   1
   4  -1 -11 50.7623  4.9664   1
   3  -4 -11 63.8472  6.0048   1
   3  -4 -11 58.8927  5.3213   2
  -4   4  11 205.810  11.246   2
   0  -4 -11 195.729  11.246   1
  -4   0  11 225.234  11.387   1
   4   0 -11 228.910  10.765   1
  -4   0  11 218.908  11.087   2
   4   0  11 224.505  11.372   1
   4  -4  11 196.023  11.621   1
   4   0  11 201.459  10.930   1
   0  -4  11 220.663  11.632   1
  -4   4  11 226.632  11.722   1
   4  -4 -11 193.312  11.308   1
   4  -4 -11 228.759  10.950   2
   0   4  11 244.354  11.748   1
   0   4 -11 235.086  11.096   1
   0   4  11 199.474  11.125   1
  -4   4 -11 206.327  10.992   2
   0  -4 -11 212.729  10.875   2
   2  -5 -11 1.04793 4.88061   1
   2  -5 -11 6.07365 4.27717   2
   5  -3 -11 4.96915 4.00103   1
   2   3  11 -0.4571  4.1928   1
  -2  -3  11 13.4979  4.7686   2
   5  -3 -11 -0.5201  4.2256   1
   3  -5  11 5.38316 5.15056   1
   2   3  11 6.52232 4.17957   1
  -3  -2 -11 1.72713 4.18302   2
  -3   5  11 5.77842 4.54208   2
   5  -2  11 3.33780 4.50865   1
  -2  -3  11 0.96074 4.61465   1
  -5   2  11 7.20398 4.87610   1
   3   2 -11 4.63086 3.34570   1
   5  -3 -11 3.03518 3.71463   2
   5  -2  11 6.88887 4.69139   1
  -2   5 -11 3.56213 4.15883   1
  -3  -2 -11 0.07172 4.58857   1
  -2   5 -11 2.04855 3.75687   2
  -5   2  11 -0.0073  4.3329   2
  -3   5  11 0.13368 4.69525   1
  -3   5 -11 -0.9514  3.9839   2
  -2  -3 -11 0.67840 4.44262   1
  -2   5  11 6.49391 4.39369   2
   2  -5  11 6.65589 5.14482   1
   3  -5 -11 4.26660 4.95114   1
  -3   5 -11 5.45563 4.12584   2
   3   2  11 -1.5984  4.1088   1
  -2  -3 -11 6.03093 4.23137   2
  -5   3  11 7.38532 4.62155   2
  -3  -2  11 10.1879  4.6190   2
   2   3 -11 0.69475 3.34615   1
  -5   3  11 -2.1700  4.7925   1
   5  -2 -11 2.86987 3.77100   1
   3   2  11 6.48236 4.17628   1
  -3  -2  11 5.78605 4.63867   1
   5  -3  11 9.26040 4.75033   1
   3  -5 -11 7.46659 4.14013   2
  -2   5  11 14.3483  4.8946   1
  -2   5  11 10.1185  4.9861   1
   4  -5  11 173.596  10.837   1
  -4   5  11 181.695  10.405   2
   5  -4 -11 178.384  10.437   1
  -5   1  11 172.857   9.955   2
   5  -4 -11 189.439   9.824   2
   1   4  11 172.670   9.871   1
   5  -1  11 175.977  10.082   1
   5  -4 -11 166.689  10.245   1
  -5   1  11 186.989  10.588   1
  -1   5 -11 173.960  10.231   1
   5  -1  11 200.053  10.472   1
  -4   5  11 193.662  10.872   1
   1   4  11 194.920  10.232   1
   1  -5 -11 183.983   9.769   2
   1  -5 -11 170.557  10.434   1
  -1  -4  11 186.969  10.637   1
  -5   4 -11 177.182  10.046   2
   4   1 -11 179.841   9.131   1
  -1  -4  11 161.752   9.816   2
   4  -5 -11 173.169   9.870   2
  -4  -1  11 173.823   9.847   2
  -1  -4 -11 167.907  10.084   1
   4  -5 -11 183.242  10.656   1
  -4  -1  11 182.547  10.216   1
   5  -1 -11 178.280   9.522   1
   5  -4  11 172.910  10.583   1
  -5   4  11 173.528  10.101   2
  -1  -4 -11 179.494   9.848   2
   1  -5  11 173.444  10.775   1
  -5   4  11 167.745  10.626   1
  -4   5 -11 169.170  10.184   2
  -1   5  11 202.023  10.759   1
  -1   5  11 191.164  10.256   1
   4   1  11 177.825   9.728   1
   1   4 -11 174.236   9.306   1
   4   1  11 164.944   9.747   1
   0  -5  11 -3.9220  4.7189   1
   0  -5 -11 3.02801 4.97240   1
   5   0  11 4.39304 4.17610   1
  -5   5  11 1.45891 5.25351   1
   0   5  11 3.07902 4.49654   1
   5  -5  11 7.60415 5.17832   1
   5  -5 -11 9.66758 4.98464   1
  -5   0  11 -7.0392  4.2158   2
   5   0 -11 6.71718 3.31220   1
   5  -5 -11 6.33231 4.38125   2
  -5   5  11 2.14263 4.67300   2
  -5   0  11 -2.9152  4.7900   1
   5   0  11 -3.8096  4.1868   1
   0  -5 -11 9.18818 4.47284   2
   0   5  11 0.62542 4.38986   1
   0   5 -11 -2.3016  3.7856   1
  -5   5 -11 -5.8665  4.3687   2
  -3  -3 -11 5.11191 4.46536   2
  -6   3  11 0.43460 4.61791   2
  -3  -3  11 -1.3244  4.4742   2
  -3  -3 -11 5.51583 4.66576   1
   3   3  11 5.27328 4.01353   1
   3  -6 -11 -2.6418  4.2837   2
   6  -3 -11 -0.2104  3.8868   1
   3  -6 -11 3.69781 5.19579   1
   6  -3 -11 -3.2006  4.2706   1
  -3   6  11 -0.6826  4.5720   2
  -3   6 -11 -0.5388  3.9710   2
  -3   6 -11 6.97764 4.22199   1
   6  -3  11 3.19714 4.89776   1
   6  -3  11 5.10439 4.73555   1
   3   3  11 -4.7670  3.9773   1
   3  -6  11 -1.5451  5.1162   1
  -3   6  11 -3.7181  4.7380   1
   3   3 -11 1.91422 3.19207   1
  -3  -3  11 -0.5710  4.7533   1
  -6   3  11 -2.4164  4.9029   1
   2  -6 -11 56.9092  5.7922   2
  -4  -2 -11 52.0626  6.0136   1
  -2   6 -11 65.7901  5.8623   1
  -4   6  11 51.1611  5.9041   2
   6  -4 -11 46.2192  5.6822   1
   6  -2  11 58.1743  5.8033   1
   2  -6 -11 45.7873  6.4040   1
   2   4  11 52.2579  5.2592   1
  -6   2  11 50.1636  6.0163   2
   6  -4 -11 61.2395  5.6656   1
   6  -4 -11 62.3298  5.1675   2
  -2  -4  11 58.9697  6.1473   1
  -6   2  11 53.6721  6.4255   1
  -4   6  11 56.1162  6.5107   1
   4  -6  11 59.2828  6.7225   1
   6  -2  11 53.9092  5.8625   1
   2   4  11 57.6695  5.4053   1
   4   2 -11 41.8194  3.8951   1
  -2  -4  11 69.3635  6.1397   2
  -2  -4 -11 63.8169  5.6994   2
  -2  -4 -11 57.9708  6.0805   1
   4   2  11 51.7308  5.2614   1
   2  -6  11 46.4100  6.4061   1
   2   4 -11 57.0145  4.7675   1
   4   2  11 50.1081  5.0723   1
  -4  -2  11 51.6543  5.6903   2
  -2   6  11 47.4928  5.9631   1
  -6   4  11 56.4691  6.5746   1
  -4   6 -11 48.7082  5.5823   2
   4  -6 -11 50.7489  6.4932   1
   6  -4  11 59.7748  6.3406   1
  -2   6  11 64.7197  6.4781   1
   6  -2 -11 60.7909  5.2262   1
  -6   4  11 57.5489  5.9985   2
  -4   6 -11 54.1202  5.4391   2
   4  -6 -11 46.4818  5.5521   2
  -4  -2  11 63.7856  6.1621   1
  -5   6  11 0.05692 4.84415   2
  -6   1  11 8.52551 5.00611   1
  -1   6 -11 1.73329 4.21120   1
   6  -1  11 2.50878 4.39610   1
  -1  -5  11 3.24772 5.13905   1
  -5   6  11 3.58787 5.25614   1
   6  -5 -11 5.39155 4.15544   2
  -6   5 -11 -0.2539  4.3345   2
   6  -5 -11 6.01197 4.87960   1
   5  -6  11 -10.468   5.194   1
   6  -1  11 -0.9981  4.3757   1
  -6   1  11 2.57135 4.83920   2
   5   1 -11 0.74947 1.18372   1
   1  -6 -11 4.09895 4.65301   2
   1   5  11 1.74694 4.33351   1
   1   5  11 -0.2274  4.3752   1
   1  -6 -11 3.79134 5.29805   1
  -1   6  11 1.00096 4.47975   1
   5  -6 -11 1.62504 5.11217   1
  -6   5  11 12.4574  5.0895   2
   6  -1 -11 -3.0830  3.3087   1
   6  -5  11 3.53601 5.15265   1
  -1   6  11 4.14909 4.71077   1
  -1  -5 -11 -1.1862  4.5053   2
  -1  -5 -11 -0.4764  4.7681   1
   1  -6  11 -1.8896  5.1381   1
   5   1  11 3.78571 4.09559   1
   5  -6 -11 2.71415 4.43250   2
  -6   5  11 3.56410 5.20756   1
  -5  -1  11 7.00477 4.59956   2
  -5   6 -11 6.67495 4.61809   2
   1   5 -11 5.15915 3.51215   1
  -5  -1  11 3.62753 4.76866   1
   5   1  11 9.03018 4.13710   1
   0  -6 -11 112.699   9.029   1
   0  -6 -11 106.784   8.344   2
  -6   0  11 125.918   9.022   1
  -6   0  11 104.647   8.314   2
   0   6 -11 114.574   8.073   1
   0  -6  11 134.777   9.627   1
  -6   6 -11 112.313   7.838   2
   0   6  11 108.442   8.284   1
   6  -6 -11 123.093   8.799   2
  -6   6  11 124.823   9.472   1
   6   0  11 117.581   8.151   1
   6  -6  11 110.181   8.596   1
   0   6  11 117.265   8.373   1
  -6   6  11 118.548   9.217   2
   6  -6 -11 129.043   9.247   1
   6   0  11 113.312   7.998   1
  -7   3  11 131.183   9.367   1
   3  -7 -11 114.082   8.637   2
  -4  -3 -11 122.058   8.743   1
   3  -7 -11 113.294   8.807   1
  -4  -3 -11 116.106   8.034   2
  -3  -4  11 124.721   8.451   2
  -3   7 -11 143.874   9.197   1
   4  -7  11 119.524   9.043   1
   4   3 -11 121.683   6.717   1
   7  -4 -11 126.618   8.821   1
   3   4  11 124.635   7.331   1
   7  -3  11 131.646   9.092   1
   7  -4 -11 131.377   8.747   1
   3   4  11 123.863   7.733   1
  -7   3  11 127.350   8.841   2
   7  -3  11 134.727   9.321   1
  -4   7  11 110.667   8.569   1
  -3  -4  11 128.315   8.956   1
  -3  -4 -11 123.942   8.182   2
   7  -4  11 119.678   9.122   1
   3   4 -11 117.479   6.995   1
  -7   4  11 123.993   8.837   2
   4  -7 -11 115.146   8.873   1
  -4  -3  11 124.000   8.906   1
   7  -3 -11 118.033   8.717   1
   4  -7 -11 120.353   8.681   2
  -3  -4 -11 130.124   8.989   1
  -4   7 -11 121.460   8.498   2
   3  -7  11 137.040   9.941   1
  -4  -3  11 121.539   8.393   2
   7  -3 -11 131.479   8.404   1
  -3   7  11 114.079   8.951   1
  -3   7  11 124.239   8.761   1
  -7   4  11 128.259   9.701   1
   4   3  11 129.074   7.734   1
   2  -7 -11 14.2662  4.8472   2
   5   2 -11 7.54033 2.91667   1
   2   5  11 14.5574  4.3988   1
   7  -2  11 18.1576  4.9333   1
  -2  -5  11 17.4068  5.5145   1
  -7   5 -11 4.70678 2.24665   2
  -5   7  11 13.2751  5.6943   1
   5  -7  11 13.6138  5.9462   1
  -7   2  11 15.7715  5.1821   2
   2   5  11 20.2472  4.2814   1
  -7   2  11 17.7488  5.4145   1
  -2   7 -11 15.7567  4.6188   1
  -2  -5  11 9.80963 4.97295   2
   2  -7 -11 23.5084  5.8831   1
   7  -5 -11 15.5702  5.0085   1
   7  -2  11 9.93379 4.80311   1
   7  -5 -11 13.7662  4.7014   1
  -5   7  11 19.7265  5.2571   2
   5  -7 -11 16.0087  5.8679   1
  -7   5  11 10.1825  5.7167   1
  -7   5  11 15.9617  5.1185   2
   2  -7  11 15.2252  5.8676   1
   5   2  11 11.3763  2.8439   1
  -2  -5 -11 17.1022  4.9822   2
   5   2  11 8.38587 3.98875   1
   2   5 -11 4.57476 1.80642   1
   5  -7 -11 9.14533 4.81702   2
  -5  -2  11 4.15727 4.74063   2
   7  -5  11 13.3401  5.4587   1
  -2   7  11 9.21992 4.97426   1
   7  -2 -11 15.9355  4.0387   1
  -2  -5 -11 13.1052  5.1544   1
  -5  -2  11 12.0250  5.0153   1
  -2   7  11 9.24645 5.06366   1
  -5   7 -11 11.0502  4.9096   2
   6   1 -11 20.9819  3.1850   1
  -7   6 -11 18.1777  5.1601   2
   7  -1  11 24.8973  4.8226   1
  -6   7  11 24.4108  5.6086   2
   1   6  11 24.6595  4.7155   1
   1  -7 -11 24.4980  5.3999   2
  -7   1  11 30.1699  5.6862   1
  -7   1  11 30.6974  5.3788   2
   1   6  11 23.2039  4.9395   1
   7  -1  11 27.3830  4.7594   1
   7  -6 -11 21.1039  5.5824   1
   6  -7  11 28.3434  6.3807   1
  -6   7  11 23.6393  6.0920   1
   1  -7 -11 22.7748  5.9634   1
  -1   7 -11 29.2827  4.8529   1
  -1  -6  11 23.7601  5.7295   1
   7  -6 -11 29.1110  4.9261   2
  -6   7 -11 34.0472  5.5022   2
   6  -7 -11 20.5985  4.9488   2
  -7   6  11 23.5302  5.7267   2
   7  -1 -11 9.14588 2.27196   1
   6   1  11 21.8300  3.8989   1
   1   6 -11 21.1410  3.8056   1
  -1  -6 -11 11.8898  5.4358   1
   1  -7  11 22.5321  5.9537   1
   7  -6  11 25.2614  6.1278   1
  -1   7  11 21.2637  5.1803   1
   6  -7 -11 18.3633  5.9472   1
  -6  -1  11 21.7344  5.2605   2
  -7   6  11 17.4559  6.1196   1
  -6  -1  11 21.7489  5.4475   1
  -1  -6 -11 24.1860  5.1997   2
   6   1  11 24.2421  4.2710   1
  -1   7  11 31.3495  5.3615   1
   0   7 -11 58.2671  5.4835   1
  -7   7  11 59.6262  7.4040   1
   7   0 -11 66.2638  5.2007   1
   0  -7  11 69.9664  7.1530   1
  -7   0  11 66.4805  6.2306   2
   7   0  11 53.4551  5.1115   1
   0  -7 -11 65.8455  6.5694   2
   7   0  11 71.3098  5.4505   1
   7  -7 -11 63.8383  7.0878   1
   7  -7  11 62.1069  7.3407   1
   7  -7 -11 58.4863  6.0687   2
   0  -7 -11 57.8957  7.0224   1
  -7   0  11 75.3526  6.6998   1
   0   7 -11 56.0972  5.2975   1
   0   7  11 53.8301  6.0201   1
   4   4  11 2.04139 3.28767   1
   4   4  11 4.80579 3.53081   1
  -4  -4  11 6.19294 5.06088   1
   4  -8  11 6.10242 5.97956   1
  -4   8  11 3.58281 5.32434   1
   4  -8 -11 7.59595 5.96960   1
   4  -8 -11 -2.1892  4.6842   2
  -4  -4 -11 9.98603 4.71221   2
  -8   4  11 11.4759  5.3243   2
   8  -4  11 5.98405 5.20207   1
   8  -4 -11 8.52404 5.02278   1
   8  -4 -11 2.22962 4.14968   1
  -4  -4  11 5.78970 4.87657   2
  -8   4  11 -0.3020  5.3964   1
  -4  -4 -11 19.8789  5.2254   1
   3  -8 -11 119.238   8.875   1
   3  -8 -11 91.0762  7.4693   2
   3   5  11 102.191   6.883   1
  -8   5 -11 99.3491  7.5085   2
  -3   8 -11 110.599   8.835   1
   8  -3  11 111.954   7.634   1
  -3  -5  11 104.377   8.231   2
   5  -8  11 115.737   8.965   1
   8  -5 -11 105.041   7.704   1
   3   5  11 104.907   6.960   1
  -5  -3 -11 102.185   7.602   1
   8  -5 -11 112.692   8.503   1
  -8   3  11 102.142   7.779   2
  -3  -5  11 110.664   7.985   1
  -5   8  11 109.251   8.492   1
  -8   3  11 104.259   8.156   1
  -8   5  11 111.516   8.028   2
   8  -5  11 105.395   8.091   1
  -3  -5 -11 106.720   7.738   1
   3  -8  11 113.898   8.773   1
  -8   5  11 120.498   9.405   1
  -3   8  11 91.9887  7.7075   1
   5   3  11 102.036   6.674   1
  -3   8  11 118.757   8.430   1
   3   5 -11 93.9289  5.8627   1
  -5  -3  11 119.856   8.531   1
   5  -8 -11 96.7309  7.5581   2
  -5  -3  11 104.084   7.951   2
   5  -8 -11 93.2316  8.5008   1
   5   3  11 90.9603  6.2225   1
  -3  -5 -11 104.323   7.929   2
   6  -8  11 42.5858  7.0985   1
  -8   2  11 44.2981  6.0116   2
   8  -2  11 53.3971  5.7347   1
  -6   8  11 34.8392  6.0398   2
   2  -8 -11 39.0092  5.8021   2
  -8   2  11 45.1121  6.1193   1
   2  -8 -11 48.4359  6.7467   1
  -6   8  11 33.6525  6.4666   1
   2   6  11 36.3562  4.7936   1
  -2  -6  11 34.5704  6.2484   1
   8  -6 -11 33.3502  5.9053   1
   2   6  11 33.7712  4.2093   1
   6   2  11 32.2311  3.6547   1
   2  -8  11 46.9742  7.0326   1
  -2   8  11 32.9937  5.8621   1
   6   2  11 45.1944  3.9478   1
   2   6 -11 33.8498  3.8534   1
  -6  -2  11 36.5720  5.6359   2
  -8   6  11 27.8549  6.4876   1
  -6  -2  11 38.6727  5.9126   1
  -2  -6 -11 32.8146  5.5753   2
  -6   8 -11 42.3340  5.9741   2
   6  -8 -11 42.3198  6.6729   1
  -2  -6 -11 48.3531  6.2871   1
   2   6 -11 40.8040  4.0499   1
   8  -6  11 35.0184  6.4301   1
   1   7  11 142.774   8.687   1
   7  -8  11 134.745  10.669   1
   8  -7 -11 161.008  10.172   1
  -1   8 -11 136.925   8.771   1
  -8   1  11 134.413   9.135   2
  -1  -7  11 148.222  10.460   1
   8  -1  11 155.501   8.677   1
  -8   1  11 148.076   9.853   1
   1  -8 -11 158.407  10.454   1
  -7   8  11 141.106  10.543   1
   1  -8 -11 131.313   9.255   2
  -1  -7 -11 129.886   9.134   2
   1   7 -11 137.177   7.817   1
  -7  -1  11 147.667   9.548   1
  -8   7  11 153.002  10.602   1
   8  -1 -11 145.489   7.506   1
   7   1  11 146.965   7.512   1
   8  -7  11 145.807  10.492   1
   7   1  11 131.000   7.080   1
  -1   8  11 139.504   9.345   1
  -7  -1  11 139.943   9.017   2
  -1  -7 -11 145.621  10.207   1
   1  -8  11 129.723  10.543   1
   7  -8 -11 138.890  10.380   1
   0  -8 -11 87.3941  7.9973   1
  -8   0  11 90.5738  7.3466   1
   0  -8 -11 91.0932  7.3478   2
   8  -8  11 98.5096  8.4883   1
   0   8 -11 86.6548  6.6792   1
   0   8  11 100.028   6.993   1
  -8   0  11 91.1470  7.0122   2
   8   0  11 87.6662  6.0036   1
  -8   8  11 86.3902  8.3994   1
   0  -8  11 86.8547  8.0675   1
   0  -8  11 98.4874  7.7475   2
   8  -8 -11 89.0350  8.1328   1
  -9   4  11 27.1958  5.8968   2
  -5   9  11 48.2481  6.6028   1
  -5  -4 -11 34.9799  5.2335   2
   4  -9 -11 26.8467  5.5288   2
  -5  -4 -11 35.3646  5.7453   1
   4  -9 -11 30.8259  6.8101   1
  -4  -5  11 32.1131  5.7503   1
   9  -4  11 38.5079  5.9252   1
   9  -5 -11 39.2000  5.6424   1
  -9   4  11 42.4087  6.5592   1
  -4  -5  11 40.6431  5.6154   2
   5  -9  11 39.1433  7.1730   1
  -4  -5 -11 34.5925  5.4113   2
   9  -5  11 37.9996  6.1948   1
  -5  -4  11 33.0191  5.3099   2
  -9   5  11 35.7286  6.6184   1
  -4  -5 -11 39.3165  5.8492   1
  -9   5  11 32.0165  5.9781   2
   9  -4 -11 34.8698  5.1822   1
   5  -9 -11 34.4014  6.9046   1
   4  -9  11 35.3705  7.0456   1
  -4   9  11 38.6877  6.0961   1
   9  -3  11 32.9732  5.5450   1
  -3  -6  11 33.1297  5.9610   1
   6  -9  11 29.5006  6.8210   1
   3  -9 -11 29.1369  6.5783   1
   3   6  11 40.7232  3.6823   1
  -9   3  11 32.6963  5.8530   2
  -9   3  11 35.7362  6.1928   1
  -6   9  11 35.2672  6.6056   1
   9  -6 -11 30.1532  5.6115   1
   3  -9 -11 25.8471  5.6332   2
  -3   9 -11 37.9928  5.5403   1
  -3  -6  11 38.1752  5.6722   2
   3   6  11 30.6956  3.5284   1
   6  -9 -11 32.1261  6.7302   1
  -3  -6 -11 27.9056  5.3943   2
  -3  -6 -11 37.9224  5.9780   1
  -9   6  11 28.5407  6.5105   1
  -3   9  11 29.3486  5.7992   1
   3  -9  11 38.5635  6.7982   1
  -6  -3  11 35.2563  5.3010   2
   9  -6  11 29.7098  6.3338   1
   2  -9 -11 -10.119   4.763   2
  -9   2  11 -5.7098  4.7795   2
   2  -9 -11 3.38133 5.87910   1
   7  -9  11 -5.1675  6.0827   1
   9  -2  11 6.50014 4.31243   1
  -7   9  11 -0.8198  5.8038   1
  -2  -7  11 5.57552 5.18665   1
   2   7  11 0.58396 3.44251   1
   9  -7 -11 -3.9952  4.8628   1
  -2   9 -11 -3.2937  4.5383   1
  -9   2  11 -1.4195  5.1444   1
  -2  -7 -11 -1.2591  4.7398   2
   2  -9  11 -3.0251  5.6283   1
   7  -9 -11 -8.1484  5.4871   1
  -7  -2  11 -5.8640  4.5685   2
   2  -9  11 -4.1789  5.6204   2
   9  -7  11 -6.3378  5.5617   1
  -9   7  11 -3.1475  5.7443   1
  -2  -7 -11 -6.2304  5.2233   1
  -2   9  11 -5.5749  4.8975   1
   9  -1  11 -1.9923  3.3795   1
   1   8  11 -2.4933  3.8357   1
   1  -9 -11 -4.9587  5.7430   1
  -8   9  11 -2.4827  5.6689   1
   9  -8 -11 -7.6181  5.2135   1
  -1   9 -11 -4.0797  4.0515   1
  -1  -8  11 9.90187 5.64785   1
   1  -9 -11 -4.3633  4.9774   2
  -1  -8  11 13.0789  5.4660   2
  -9   1  11 2.27359 4.84199   2
   8  -9  11 4.89758 6.38013   1
  -9   8  11 2.01890 5.88917   1
  -1  -8 -11 -5.9261  5.4274   1
  -8  -1  11 0.18995 4.66348   2
   1   8 -11 2.78340 2.92797   1
   1  -9  11 8.15590 5.75830   2
  -1   9  11 -4.2478  4.8048   1
   9  -8  11 -5.1473  5.7896   1
   1  -9  11 -10.919   5.678   1
  -1  -8 -11 8.07565 5.23894   2
   8  -9 -11 -3.8312  5.5916   1
  -9   0  11 6.53140 4.93738   2
   0  -9 -11 12.8283  6.1717   1
   9  -9  11 17.4514  6.7646   1
   9  -9 -11 14.0341  6.1037   1
   0  -9 -11 15.4899  5.4418   2
   0  -9  11 9.68835 5.87734   2
   0   9  11 17.5192  4.6872   1
   0   9 -11 12.3130  3.7086   1
  -9   9  11 15.6309  6.5743   1
  10  -5  11 3.96245 5.30901   1
  -5  -5  11 -7.4365  4.6550   2
  -5  10  11 -7.1319  5.2897   1
  10  -5 -11 0.82494 4.56860   1
  -5  -5 -11 -2.9347  4.4416   2
 -10   5  11 1.53469 5.66004   1
  -5  10 -11 5.60907 4.97423   1
   5 -10  11 -7.3698  6.2119   1
   5 -10 -11 15.7103  6.4432   1
  -6  10  11 30.8788  6.4773   1
  10  -4  11 44.3456  5.6836   1
   6 -10  11 41.7294  7.3784   1
 -10   4  11 26.6353  6.3452   1
  -4  -6  11 27.5779  5.6548   2
 -10   4  11 44.8764  6.2859   2
   4 -10 -11 36.0952  7.0575   1
  10  -6 -11 35.1690  5.6286   1
  -4  10 -11 34.7013  5.7636   1
   4 -10  11 18.8448  6.7521   1
  -6  10 -11 33.0566  5.9020   1
  -6  -4  11 27.4755  5.2321   2
 -10   6  11 22.4752  6.4533   1
   6 -10 -11 37.4193  7.0751   1
  -4  -6 -11 28.5490  5.4207   2
  -4  10  11 35.7143  6.1007   1
  10  -6  11 34.6804  6.5194   1
  -3  10 -11 33.0794  5.6931   1
  -7  10  11 41.4889  6.9144   1
  -3  -7  11 41.4450  5.8743   2
 -10   3  11 43.3131  6.5501   1
 -10   3  11 41.6131  6.1112   2
   7 -10  11 29.7284  7.2937   1
   3 -10 -11 39.9394  7.1771   1
  10  -7 -11 44.4637  6.1853   1
  10  -3  11 50.6592  5.4689   1
   3 -10 -11 49.2055  6.3632   2
  -7  -3  11 36.0371  5.5518   2
 -10   7  11 51.2926  7.3561   1
   3 -10  11 39.9743  7.3631   1
   3 -10  11 44.0101  7.2748   2
  10  -7  11 47.0117  6.9247   1
   7 -10 -11 45.1535  7.3232   1
  -3  10  11 32.2501  6.2773   1
  -3  -7 -11 46.3022  5.8660   2
  -8  10  11 32.0889  6.9785   1
  10  -8 -11 43.8040  6.3732   1
  -2  10 -11 31.8732  5.2247   1
  10  -2  11 32.9462  4.3151   1
   8 -10  11 37.7287  7.4919   1
  -2  -8  11 37.7359  6.0028   2
 -10   2  11 37.7830  5.9121   2
   2 -10 -11 31.7912  7.0150   1
   2 -10 -11 34.3183  6.1059   2
   8 -10 -11 49.3015  7.3607   1
  -8  -2  11 33.8598  5.3785   2
  -2  10  11 29.0880  5.8619   1
   2 -10  11 35.9855  7.1017   1
   2 -10  11 34.8970  6.7368   2
  10  -8  11 35.6686  7.0184   1
 -10   8  11 38.6830  7.0708   1
  -2  -8 -11 27.4106  5.7700   2
   9 -10  11 14.0049  6.8791   1
  -1  -9  11 8.37389 5.63924   2
   1 -10 -11 8.27825 5.50433   2
   1   9  11 -2.4730  3.3741   1
  -1  10 -11 -0.1252  3.8188   1
   1 -10 -11 1.57800 6.03915   1
 -10   1  11 -2.1420  5.0116   2
  -9  10  11 11.0734  6.4680   1
  10  -9 -11 3.01250 5.79486   1
   1 -10  11 11.3330  6.1805   2
  -1  10  11 3.79214 4.77369   1
  -1  -9 -11 8.52177 5.31852   2
  -9  -1  11 6.25653 4.87478   2
   9 -10 -11 4.77413 6.12463   1
  10  -9  11 14.9750  6.6974   1
 -10   9  11 8.43788 6.54515   1
   0  10  11 21.8467  4.5674   1
   0 -10 -11 19.1938  5.9730   2
   0  10 -11 23.4436  3.3778   1
  10 -10  11 22.6419  7.2479   1
  10 -10 -11 17.4936  6.4707   1
 -10   0  11 20.3880  5.4166   2
 -10  10  11 32.1962  7.2118   1
   0 -10  11 21.9799  6.6232   2
  11  -5  11 29.4961  5.7227   1
  -6  -5 -11 27.0288  5.2947   2
 -11   5  11 39.1167  6.6715   1
  -5  11 -11 29.2634  5.7427   1
  11  -6 -11 24.4391  5.4028   1
   5 -11 -11 17.7538  6.9977   1
  -6  11  11 21.5887  6.4484   1
   6 -11  11 20.7476  7.3484   1
  -5  -6  11 30.2513  5.5384   2
  11  -6  11 20.4383  5.8597   1
  -6  11 -11 30.2348  5.9413   1
   5 -11  11 30.2623  7.4025   1
  -6  -5  11 21.8622  5.2973   2
   6 -11 -11 15.5885  6.9995   1
  11  -5 -11 24.1494  5.1507   1
  -5  11  11 23.9153  6.2335   1
  -5  -6 -11 22.6272  5.3212   2
 -11   6  11 27.8607  6.6613   1
  11  -4  11 150.020   9.008   1
  -4  11 -11 138.727   9.520   1
  -7  11  11 146.908  10.620   1
  -4  -7  11 122.360   9.093   2
   7 -11  11 135.886  10.899   1
  11  -7 -11 133.683   9.640   1
   4 -11 -11 143.168  11.219   1
  -4  -7 -11 141.726   9.333   2
  -4  11  11 132.152   9.748   1
   4 -11  11 139.579  10.626   1
 -11   7  11 141.205  10.887   1
  -7  -4  11 134.982   8.842   2
   7 -11 -11 133.934  10.547   1
  -7  11 -11 145.854   9.936   1
  11  -7  11 142.197  10.131   1
   3 -11 -11 18.4492  6.8333   1
   8 -11  11 20.0147  7.2647   1
  -3  11 -11 21.7121  5.3676   1
  -3  -8  11 20.9860  5.5860   2
  11  -8 -11 24.1029  6.0227   1
  11  -3  11 19.6770  4.3025   1
  -8  11  11 26.4246  6.8883   1
 -11   8  11 17.9978  6.5385   1
  -3  11  11 13.3353  5.8062   1
   3 -11  11 11.3839  6.5675   1
  -3  -8 -11 13.7780  5.3621   2
  -8  11 -11 12.9716  5.7319   1
  -8  -3  11 14.1143  5.1395   2
   8 -11 -11 24.6030  7.1279   1
  11  -8  11 21.4899  6.3454   1
  -9  11  11 2.73427 6.39067   1
  -2  11 -11 7.83671 4.36866   1
   2 -11 -11 2.92172 6.42347   1
  11  -9 -11 8.08126 5.74169   1
   9 -11  11 -8.3730  6.5219   1
  -2  -9  11 4.52261 5.54968   2
 -11   2  11 1.03966 5.21779   2
  -9  -2  11 2.40341 4.82029   2
 -11   9  11 3.46951 6.51285   1
  -2  -9 -11 4.90669 5.52391   2
  -2  11  11 9.54996 5.26785   1
  11  -9  11 -8.8440  5.9804   1
   9 -11 -11 8.25765 6.68541   1
  -9  11 -11 0.48899 5.26942   1
   2 -11  11 1.90420 6.33162   2
   1 -11 -11 0.88573 5.60285   2
  10 -11  11 -1.3569  6.7196   1
  -1 -10  11 4.11268 6.02236   2
 -10  11  11 -2.7337  6.6621   1
  11 -10 -11 7.84685 6.18487   1
  -1  11 -11 -0.2950  3.5231   1
 -11   1  11 6.69421 5.28921   2
  10 -11 -11 7.05549 6.50186   1
  11 -10  11 2.42719 6.60600   1
   1 -11  11 -0.1882  6.4681   2
  -1 -10 -11 10.3103  5.7865   2
 -10  -1  11 0.17821 4.95442   2
 -10  11 -11 -0.2972  5.6892   1
 -11  10  11 -5.9744  6.4625   1
  -1  11  11 -10.158   4.432   1
   0 -11  11 57.8371  7.5474   2
   0  11  11 47.4000  4.3631   1
  11 -11 -11 46.6894  7.6968   1
 -11   0  11 58.2661  6.3655   2
 -11  11  11 42.0428  8.2414   1
 -11  11 -11 43.4925  7.2012   1
   0 -11 -11 57.9380  6.9754   2
  11 -11  11 51.8006  8.2079   1
  -6  -6 -11 -1.3421  4.7627   2
   6 -12  11 -3.4504  6.8515   1
   6 -12 -11 -1.0936  6.7867   1
  12  -6  11 4.37457 5.52817   1
  -6  -6  11 4.92102 4.99653   2
  -6  12  11 2.71609 5.93465   1
  -6  12 -11 -4.6590  5.0540   1
  12  -6 -11 -1.0596  4.6316   1
  12  -7 -11 -6.5252  4.7471   1
  -5  12 -11 -2.7006  5.2876   1
  12  -5  11 -2.6963  4.7298   1
   5 -12 -11 5.25325 6.96053   1
   7 -12  11 1.05566 7.00378   1
  -7  12  11 8.18337 6.13720   1
  -5  -7  11 12.6546  5.5861   2
   7 -12 -11 -8.4364  6.6194   1
  -5  12  11 -2.3839  5.5971   1
  12  -7  11 -0.5772  5.4958   1
  -7  12 -11 -0.1970  5.3681   1
   5 -12  11 -1.7939  6.9824   1
  -7  -5  11 9.31284 4.95284   2
 -12   7  11 6.92658 6.19822   1
  -5  -7 -11 5.49144 5.09864   2
  -8  12  11 14.3992  6.6235   1
  -4  12 -11 12.3806  5.2930   1
   8 -12  11 15.9787  7.5613   1
  12  -8 -11 20.6221  5.7542   1
  -4  -8  11 12.8680  5.4660   2
  12  -4  11 14.9146  4.4701   1
   4 -12 -11 17.4637  7.2310   1
   4 -12  11 16.2145  7.2297   1
  -4  12  11 21.0807  5.9970   1
  -8  -4  11 15.7279  5.2210   2
  12  -8  11 25.5734  6.4913   1
  -4  -8 -11 16.9060  5.4018   2
 -12   8  11 16.1763  6.6957   1
  -8  12 -11 18.1432  5.9454   1
   8 -12 -11 16.1306  7.1787   1
   9 -12  11 2.26568 7.27390   1
  -9  12  11 5.10054 6.70127   1
  -3  -9  11 -3.0953  5.3828   2
  12  -9 -11 3.69311 5.65751   1
  -3  12 -11 10.7617  4.8800   1
  -9  -3  11 7.47466 4.91083   2
 -12   9  11 6.59358 6.61075   1
  -3  -9 -11 -8.7518  5.2209   2
  -9  12 -11 -5.6992  5.5971   1
   9 -12 -11 6.08248 6.88618   1
  12  -9  11 6.60784 6.21810   1
  -3  12  11 6.49559 5.47391   1
  -2  12 -11 11.3329  4.1889   1
  -2 -10  11 6.89284 5.93978   2
 -10  12  11 21.3200  7.1172   1
  12 -10 -11 2.87513 5.94242   1
  10 -12  11 4.79056 7.56150   1
  12 -10  11 4.68865 6.60065   1
 -10  12 -11 16.9789  6.1318   1
  -2 -10 -11 -0.3877  5.5984   2
  -2  12  11 4.66999 5.04983   1
  10 -12 -11 11.1570  7.0895   1
 -10  -2  11 8.74155 5.11091   2
 -12  10  11 4.27621 6.73072   1
 -12   1  11 43.5035  6.3331   2
 -11  12  11 40.5585  8.1759   1
  12 -11 -11 42.7162  7.5669   1
 -12  11 -11 38.2631  7.1696   1
  -1 -11  11 37.3495  7.0182   2
  11 -12  11 46.8273  8.4410   1
 -11  12 -11 37.0739  7.1107   1
  -1 -11 -11 35.8545  6.8431   2
  12 -11  11 57.5293  8.1843   1
 -11  -1  11 40.0840  5.9994   2
  -1  12  11 36.3088  4.9392   1
 -12  11  11 44.4601  8.2873   1
  11 -12 -11 36.9770  7.8594   1
  12 -12 -11 11.7991  7.1159   1
 -12   0  11 5.63693 5.38383   2
 -12  12  11 10.2490  7.5831   1
   0 -12  11 -5.1699  6.5566   2
 -12  12 -11 0.04561 6.10251   1
  12 -12  11 3.04612 7.49525   1
  13  -7 -11 5.14537 4.94145   1
  13  -6  11 4.02115 5.25848   1
  -6  13 -11 0.76882 5.40712   1
   7 -13  11 -11.715   7.011   1
   6 -13 -11 1.02406 7.20062   1
  -7  -6 -11 7.64653 5.02096   2
  -7  13  11 -5.2873  6.1721   1
  -6  -7  11 5.17325 5.27970   2
  13  -7  11 -7.3753  5.4041   1
  -6  -7 -11 2.22538 5.14458   2
  -7  13 -11 6.86903 5.64702   1
  -6  13  11 2.88747 6.11804   1
  -7  -6  11 5.54093 4.95343   2
   6 -13  11 -2.1401  7.1637   1
   7 -13 -11 7.59060 7.38412   1
  -5  -8  11 6.47305 5.59184   2
  13  -8 -11 4.63099 5.40805   1
  -5  -8  11 -1.6329  5.2289   2
   8 -13  11 -10.588   7.106   1
  13  -5  11 2.39844 4.41167   1
  -5  13 -11 -3.9975  5.2094   1
   5 -13 -11 -2.2945  7.1987   1
  -8  13  11 6.76855 6.58716   1
  -5  13  11 3.40934 5.86374   1
  13  -8  11 -5.3818  5.8073   1
  -5  -8 -11 4.12295 5.26782   2
   5 -13  11 -3.5780  7.2264   1
  -8  13 -11 5.24180 5.90457   1
  -8  -5  11 -5.4191  4.8654   2
   8 -13 -11 -0.3515  7.0676   1
   9 -13  11 2.75173 7.44190   1
  -4  -9  11 0.43759 5.40743   2
  -4  13 -11 3.23019 5.10987   1
  13  -9 -11 -9.9331  5.2762   1
  -9  13  11 -2.1599  6.6449   1
  -9  -4  11 10.0145  5.1553   2
  13  -9  11 8.22744 6.55243   1
 -13   9  11 -7.5635  6.5891   1
  -4  -9 -11 -1.8957  5.3249   2
   9 -13 -11 -3.2770  6.9748   1
  -9  13 -11 9.39468 6.05135   1
  -4  13  11 1.64501 5.63612   1
  -3 -10  11 6.40594 5.98386   2
 -10  13  11 9.28305 7.28706   1
  -3  13 -11 4.96905 4.54459   1
  13 -10 -11 0.23789 6.03167   1
  10 -13  11 7.11512 7.65415   1
  10 -13 -11 14.6880  7.5771   1
 -10  13 -11 9.49139 6.31415   1
  -3  13  11 4.50066 5.54144   1
  13 -10  11 27.0948  7.0473   1
 -10  -3  11 2.72405 5.19597   2
  -3 -10 -11 12.4885  5.9566   2
 -13  10  11 18.0351  7.3314   1
 -11  13  11 8.71543 7.51586   1
  13 -11 -11 9.74755 6.57398   1
 -13  11 -11 0.94943 6.27795   1
  11 -13  11 18.8027  8.0042   1
  -2 -11  11 16.4035  6.4761   2
 -13  11  11 8.50146 7.46878   1
  -2  13  11 14.3008  5.1139   1
  13 -11  11 12.5440  7.0130   1
  11 -13 -11 5.13529 7.48993   1
 -11  13 -11 8.97853 6.35293   1
  -2 -11 -11 13.4316  6.3313   2
 -11  -2  11 8.37179 5.19242   2
  -1 -12  11 13.6371  6.9315   2
 -12  13  11 3.38660 7.72557   1
 -13  12 -11 8.79608 6.56764   1
  12 -13  11 15.7396  7.9767   1
  13 -12 -11 13.2953  7.2592   1
 -13  12  11 21.5707  8.0306   1
 -12  13 -11 10.2542  6.7566   1
 -12  -1  11 11.3925  5.6115   2
  13 -12  11 13.5525  7.6258   1
  12 -13 -11 11.1123  7.3739   1
 -13  13 -11 -6.5477  6.4919   1
 -13  13  11 19.2436  8.4955   1
   7 -14 -11 9.03555 7.88479   1
  14  -7  11 10.6017  5.5571   1
  -7  14 -11 6.92398 5.94369   1
  -7  -7 -11 -1.0338  5.2743   2
   7 -14  11 11.2175  8.1286   1
  -7  -7  11 -0.1897  5.4223   2
  -7  14  11 -3.7471  6.2972   1
   6 -14 -11 7.64622 7.90163   1
  14  -6  11 15.1777  4.9946   1
  -6  -8  11 11.6234  5.7890   2
   8 -14  11 10.3120  8.2642   1
  14  -8 -11 10.2136  5.4569   1
  -8  -6 -11 6.42903 5.30083   2
  -6  14 -11 18.0616  6.0351   1
  -8  14  11 10.7704  6.9114   1
  -6  14  11 1.66437 6.28617   1
  -8  -6  11 9.05352 5.24656   2
  -6  -8 -11 -3.2673  5.5071   2
   8 -14 -11 17.9459  8.0425   1
  14  -8  11 14.9762  6.3498   1
  -8  14 -11 12.8185  6.2129   1
  -9  14  11 7.93812 6.99346   1
  14  -9 -11 10.3575  5.7531   1
   9 -14  11 8.55421 8.43109   1
  -5  -9  11 11.8172  5.8708   2
  -5  14 -11 6.29131 5.57539   1
  -9  -5  11 6.32730 5.23727   2
  -5  14  11 15.8488  6.3300   1
   9 -14 -11 7.57177 7.84465   1
  -5  -9 -11 4.20863 5.59181   2
  14  -9  11 2.29482 6.38270   1
  -9  14 -11 0.31077 6.16882   1
  -4  14 -11 47.6618  6.0741   1
  10 -14  11 46.4957  9.2838   1
  14 -10 -11 42.0655  7.1297   1
 -10  14  11 23.2435  8.0115   1
  -4 -10  11 21.5210  6.4309   2
  14 -10  11 34.4827  7.4355   1
  -4 -10 -11 38.7584  6.7202   2
 -10  14 -11 28.0123  7.3040   1
  10 -14 -11 23.6149  8.4793   1
 -10  -4  11 35.2598  6.0160   2
  -4  14  11 31.0522  6.6695   1
  11 -14  11 4.98105 8.22102   1
  14 -11 -11 14.4849  6.8249   1
 -11  14  11 14.6083  7.9283   1
  -3  14 -11 15.2273  4.7156   1
 -14  11 -11 13.6927  7.0356   1
  -3 -11  11 13.6350  6.5838   2
 -14  11  11 17.4258  7.9101   1
 -11  14 -11 4.97717 6.64377   1
 -11  -3  11 19.3338  5.8213   2
  14 -11  11 6.80371 7.10947   1
  11 -14 -11 7.99959 7.89758   1
  -3  14  11 1.17351 5.36684   1
  -3 -11 -11 10.5731  6.4380   2
 -14  12 -11 5.86684 6.68839   1
 -12  14  11 2.06405 7.89204   1
  -2 -12  11 -8.8351  6.5635   2
 -14  12  11 -6.0354  7.7771   1
  -2 -12 -11 -2.5591  6.4099   2
 -12  -2  11 -4.3287  5.4095   2
  15  -7  11 36.3783  5.6703   1
  -7  -8  11 27.1409  6.4747   2
   8 -15  11 35.8167  9.5468   1
  15  -8 -11 33.4708  5.7710   1
   7 -15 -11 18.8494  8.6557   1
  -8  -7 -11 21.8507  5.9798   2
  -7  15 -11 19.1598  6.7563   1
  15  -8  11 30.0070  6.4476   1
   8 -15 -11 20.4136  8.7107   1
  -8  -7  11 30.1959  6.1044   2
  -7  -8 -11 17.8261  6.1412   2
   9 -15  11 5.08635 8.59873   1
  15  -9 -11 -2.7617  5.3703   1
  -6  15 -11 7.00319 6.01382   1
  15  -9  11 7.94969 6.42812   1
   9 -15 -11 -2.7258  8.0427   1
  -6  15  11 0.65131 6.36657   1
  -6  -9 -11 -3.3409  5.5566   2
  -9  -6  11 -3.6011  5.3165   2
  10 -15  11 -4.4463  8.4573   1
  -5 -10  11 3.42814 6.16953   2
  15 -10 -11 -4.1764  5.7580   1
  -5  15 -11 3.38776 5.56338   1
  -5  15  11 -4.5233  6.2066   1
 -10  -5  11 -6.0256  5.2908   2
  10 -15 -11 -1.7777  8.2433   1
  -5 -10 -11 -1.0556  6.1209   2
   0   0 -12 2511.91   93.44   2
   0   0  12 2426.32   94.24   1
   1  -1 -12 336.564  15.334   2
   1   0 -12 351.230  15.365   2
  -1   1  12 378.889  16.098   2
   0   1  12 370.867  16.091   1
  -1   0 -12 346.551  15.504   2
   1   0 -12 372.263  15.774   1
   0  -1 -12 354.997  15.436   2
   0   1 -12 369.907  16.100   1
   1  -1  12 337.172  16.169   1
  -1   0  12 351.179  16.205   1
   1   0  12 341.473  16.103   1
  -1   1  12 350.153  16.249   1
  -1   0  12 367.107  15.918   2
   0   1 -12 349.508  15.360   2
   0  -1  12 370.584  16.266   1
  -1   1 -12 329.500  15.476   2
  -1   2  12 80.2082  6.7933   1
  -2   1 -12 67.3183  5.8349   2
  -1   2 -12 74.5647  5.8128   2
   1  -2 -12 76.4512  5.8479   2
  -2   1  12 77.2070  6.6809   1
   1   1 -12 77.6089  5.8636   1
   1  -2 -12 83.9388  6.6670   1
   2  -1  12 71.7218  6.5144   1
  -1  -1  12 89.7343  6.8763   1
   2  -1 -12 73.9408  5.6897   2
  -2   1  12 75.5409  6.2286   2
   2  -1 -12 72.8904  5.9780   1
  -1   2  12 76.9884  6.1646   2
   1  -2  12 52.4170  6.3174   1
   1   1  12 86.6641  6.5323   1
   1   1 -12 68.5475  5.5248   2
  -1  -1 -12 71.4606  5.8619   2
   2  -2 -12 278.323  13.700   2
  -2   0  12 309.779  14.148   2
   2  -2  12 303.611  14.696   1
  -2   2  12 307.797  14.291   2
  -2   2  12 288.571  14.593   1
   0   2  12 302.716  14.821   1
   0  -2  12 320.846  14.745   1
   0   2 -12 310.635  13.722   2
   0  -2 -12 296.338  13.832   2
  -2   0  12 332.890  14.834   1
  -2   0 -12 311.297  14.074   2
   2   0 -12 301.338  13.593   2
  -2   2 -12 319.748  14.106   2
   2   0 -12 319.918  14.242   1
   0  -2 -12 307.139  14.452   1
   0   2 -12 335.581  14.541   1
   2   0  12 317.272  14.804   1
   2   0  12 285.574  14.366   1
   2  -2 -12 319.183  14.617   1
   0   2  12 302.825  14.502   1
  -1  -2  12 106.500   8.104   2
   3  -2 -12 119.573   8.303   1
   1   2  12 119.989   8.896   1
  -1  -2  12 112.010   8.518   1
  -3   1  12 112.737   8.568   1
  -3   2 -12 114.722   7.590   2
   2   1 -12 99.2723  6.9447   2
   1  -3 -12 108.753   7.766   2
   3  -1  12 114.960   7.758   1
  -2  -1 -12 99.6472  7.6534   2
  -1   3 -12 108.064   8.422   1
   3  -2 -12 114.926   8.288   1
   2  -3  12 101.011   7.742   1
   2   1 -12 105.633   7.560   1
  -2   3  12 114.453   8.187   2
  -1   3 -12 104.449   7.542   2
  -2   3  12 104.350   8.492   1
   1  -3 -12 113.102   7.841   1
   1   2  12 105.614   8.085   1
  -3   1  12 105.744   8.008   2
   3  -2 -12 109.383   7.545   2
   3  -1  12 105.336   8.225   1
  -1   3 -12 106.042   7.602   2
  -3   1 -12 98.1036  7.5638   2
  -1   3  12 113.159   8.523   1
  -2  -1  12 107.577   7.964   2
   1  -3  12 113.101   8.688   1
   1   2 -12 115.425   7.637   1
   3  -1 -12 110.128   7.276   2
   2   1  12 105.479   8.060   1
   2   1  12 110.647   8.822   1
   2  -3 -12 105.294   8.230   1
  -1   3  12 125.082   8.595   2
   2  -3 -12 99.4423  7.3173   2
  -2   3 -12 128.893   8.029   2
  -3   2  12 111.474   8.666   1
  -2  -1  12 106.267   7.769   1
  -3   2  12 109.188   8.057   2
   3  -2  12 106.162   8.618   1
   3  -1 -12 103.868   7.944   1
  -1  -2 -12 106.477   7.858   2
  -1  -2 -12 103.265   7.592   1
   1   2 -12 104.475   6.996   2
   3   0  12 139.777   9.832   1
   0   3  12 141.300   9.287   1
   0  -3 -12 140.702   8.587   2
   3   0 -12 133.846   7.876   2
   3  -3 -12 146.762   9.401   1
  -3   0  12 129.630   8.986   2
   3   0 -12 149.000   8.948   1
   0   3 -12 138.278   8.260   2
   0  -3  12 135.637   9.571   1
  -3   3 -12 140.875   8.687   2
  -3   0 -12 154.349   8.737   2
  -3   3  12 142.289   9.566   1
  -3   0  12 137.559   9.360   1
   3  -3 -12 151.786   8.699   2
   0   3 -12 160.441   9.388   1
   0  -3 -12 140.232   9.482   1
   3   0  12 122.080   8.854   1
  -3   3  12 151.617   9.260   2
   3  -3  12 135.350   9.362   1
   0   3  12 152.778   9.857   1
   2  -4 -12 -1.3318  4.0834   2
  -4   2  12 -3.9183  4.8688   1
  -2   4  12 -9.0282  4.5771   1
  -2  -2  12 -6.8379  4.4886   2
  -2   4 -12 -1.0967  3.8719   2
  -2   4 -12 3.10930 4.17572   2
   2  -4  12 1.53717 5.09211   1
  -2   4  12 2.52785 4.57530   2
   2   2  12 -4.3797  4.5304   1
   4  -2 -12 0.49985 3.69873   2
  -2  -2 -12 -7.3674  4.2034   2
   4  -2  12 0.17931 4.80805   1
   4  -2 -12 -2.7974  3.8123   1
   2   2 -12 -4.0323  3.6042   1
  -2  -2 -12 2.36713 4.78872   1
   2   2  12 3.36601 4.36670   1
  -2  -2  12 -5.9156  4.9460   1
   2  -4 -12 -0.0048  4.7787   1
  -4   2  12 7.00755 4.49920   2
   4  -2  12 -3.9141  4.6963   1
   1  -4 -12 352.521  16.499   2
  -3  -1 -12 363.312  16.495   2
  -1   4 -12 395.841  16.354   2
   1   3  12 379.110  16.841   1
   4  -3 -12 360.472  17.090   1
   4  -3 -12 377.512  17.026   1
  -4   1  12 385.584  17.302   1
  -3   4  12 369.478  17.312   1
  -3   4  12 385.146  17.004   2
  -4   1  12 387.782  16.867   2
   3   1 -12 368.515  16.533   1
  -1   4 -12 390.235  17.115   1
  -1  -3  12 408.081  17.381   1
   4  -1  12 444.806  17.612   1
   1   3  12 414.444  17.374   1
   4  -1  12 353.114  16.841   1
   4  -3 -12 378.472  16.452   2
  -1  -3  12 367.178  16.757   2
   1  -4 -12 366.569  17.199   1
   3  -4  12 389.482  17.479   1
  -1  -3 -12 393.459  17.214   1
   3  -4 -12 395.198  17.358   1
  -1   4  12 364.152  17.430   1
   3  -4 -12 370.761  16.550   2
  -3   4 -12 415.251  16.695   2
   4  -1 -12 415.562  16.831   1
  -3  -1  12 357.326  17.153   1
   1   3 -12 392.457  16.481   1
  -1   4  12 351.223  17.092   1
  -3  -1  12 355.243  16.706   2
   1  -4  12 366.730  17.440   1
  -4   3  12 352.682  16.866   2
   3   1  12 367.606  17.103   1
   4  -3  12 380.640  17.260   1
  -1  -3 -12 402.720  16.711   2
  -3   4 -12 384.514  16.669   2
  -4   3  12 347.188  17.289   1
   3   1  12 345.607  16.722   1
  -1   4  12 387.667  16.866   2
   0  -4 -12 70.2297  6.1970   2
   0  -4  12 71.7986  6.9368   1
   4   0  12 66.8978  6.2664   1
  -4   4 -12 63.0318  5.8553   2
  -4   4 -12 67.5419  6.1545   2
   4  -4 -12 67.6485  6.6203   1
   0  -4 -12 71.7783  6.7943   1
   4   0 -12 60.0440  5.3726   1
   0   4  12 69.7233  6.4902   1
   4  -4  12 65.1824  6.8066   1
  -4   0  12 64.8080  6.6631   1
  -4   4  12 67.9116  6.4787   2
   0   4  12 81.2339  6.8684   1
   4   0  12 66.2023  6.4317   1
  -4   4  12 68.7505  6.9318   1
   0   4 -12 71.8977  6.0001   1
  -4   0  12 76.7040  6.5197   2
   4  -4 -12 77.8686  6.0716   2
   3   2 -12 86.0102  6.9158   1
   5  -3 -12 76.1037  6.4418   1
  -3  -2 -12 79.6849  6.9815   1
  -3   5  12 82.2378  6.8838   2
   5  -2  12 82.1948  7.0149   1
  -3  -2 -12 84.8166  6.6245   2
   5  -2  12 72.2630  6.8108   1
  -2  -3  12 98.7919  7.3809   1
  -2   5 -12 104.731   7.128   1
   3  -5  12 94.5143  7.7097   1
   2   3  12 83.2689  6.7955   1
   5  -3 -12 77.2096  6.7715   1
   2  -5 -12 81.9625  7.2756   1
  -2  -3  12 92.5636  7.0820   2
   2  -5 -12 80.1546  6.4861   2
   2   3  12 89.4691  6.6617   1
  -5   2  12 78.7089  7.3671   1
  -2   5 -12 90.6310  6.2500   2
   5  -3 -12 90.4301  7.0908   2
  -5   2  12 85.6857  6.9770   2
  -3   5  12 68.6124  7.0721   1
   5  -2 -12 84.3261  6.3525   1
  -5   3  12 81.0257  6.8898   2
   3  -5 -12 92.8013  7.4691   1
   5  -3  12 79.1303  7.1058   1
   3   2  12 78.0090  6.3986   1
  -3  -2  12 91.4114  6.9887   2
   5  -3  12 86.5442  7.3837   1
  -3   5 -12 84.6143  6.3821   2
   2   3 -12 69.5978  5.8278   1
   2  -5  12 79.4074  7.5809   1
  -2  -3 -12 98.2995  7.3788   1
  -2  -3 -12 83.1538  6.4834   2
   3   2  12 88.3937  6.7571   1
  -2   5  12 75.6861  7.0024   1
  -3  -2  12 81.6865  7.2727   1
  -3   5 -12 89.5542  6.5940   2
   3  -5 -12 74.5756  6.3560   2
  -5   3  12 88.2916  7.6888   1
   1  -5 -12 47.2558  5.4978   2
  -5   1  12 35.0436  5.9193   1
  -5   4 -12 32.8071  5.4044   2
   4   1 -12 36.1351  4.5190   1
  -4   5  12 39.3395  5.6445   2
   4  -5  12 38.7971  6.3869   1
   1   4  12 36.8626  5.4407   1
  -4  -1 -12 40.5346  5.2597   2
   5  -1  12 30.7298  5.4907   1
   1  -5 -12 39.0206  6.0668   1
  -1   5 -12 38.5888  5.3261   1
  -1  -4  12 39.2645  6.0920   1
   1   4  12 34.1118  5.3593   1
   5  -4 -12 33.3941  5.0252   2
  -4   5  12 42.4196  6.2519   1
   5  -4 -12 34.1105  5.6796   1
  -5   1  12 41.1751  5.6968   2
   5  -1  12 38.2225  5.6225   1
   4  -5 -12 39.0623  5.9799   1
  -1   5  12 31.8089  5.6741   1
   5  -4  12 41.0089  6.2187   1
  -4   5 -12 40.7700  5.2793   2
   5  -1 -12 35.3219  4.6917   1
  -5   4  12 48.5225  6.5655   1
   1  -5  12 35.1834  6.1258   1
  -1  -4 -12 41.9253  5.8955   1
  -1  -4 -12 35.7124  5.3030   2
   4  -5 -12 40.5950  5.3037   2
  -5   4  12 39.0668  5.8353   2
  -4  -1  12 41.9406  5.6565   2
  -4   5 -12 36.0956  5.4133   2
   4   1  12 34.2620  5.3673   1
  -4  -1  12 48.0822  6.0696   1
  -1   5  12 35.3758  5.8199   1
   1   4 -12 38.6404  4.6766   1
   4   1  12 51.0203  5.3843   1
   0   5  12 75.4177  6.7786   1
   0  -5 -12 76.6688  6.6278   2
   5   0  12 75.2532  6.5683   1
   5  -5  12 76.2342  7.3892   1
   0  -5 -12 66.7996  7.1002   1
  -5   0  12 81.4410  6.8048   2
   5  -5 -12 75.0895  7.0237   1
   0   5 -12 74.1353  6.1513   1
   5   0 -12 75.0189  5.6870   1
   0   5  12 80.7544  6.7345   1
  -5   0  12 81.7478  7.1022   1
   5   0  12 81.6951  6.4457   1
  -5   5  12 80.8175  7.6376   1
   0  -5  12 75.4220  7.1974   1
  -5   5  12 66.2958  6.7616   2
  -5   5 -12 88.0274  6.8124   2
   5  -5 -12 78.3899  6.3484   2
   3   3  12 200.903  10.534   1
  -3  -3 -12 183.635  10.340   2
   3   3  12 188.105  10.246   1
  -6   3  12 197.450  11.033   2
   6  -3 -12 193.600  10.667   1
   3  -6  12 169.061  11.583   1
   3  -6 -12 167.652  11.328   1
  -3  -3  12 202.975  11.186   1
   6  -3  12 197.917  11.669   1
  -3  -3  12 211.619  10.737   2
  -3   6 -12 208.789  10.851   2
  -6   3  12 197.458  11.632   1
  -3  -3 -12 185.103  11.197   1
   3   3 -12 190.986   9.695   1
   6  -3 -12 190.834  10.636   1
   6  -3  12 172.395  10.831   1
  -3   6  12 180.268  10.987   1
   3  -6 -12 179.562  10.529   2
   6  -4 -12 19.0162  4.4657   2
  -2   6 -12 16.4792  4.9060   1
   6  -4 -12 19.7542  5.1688   1
  -6   2  12 13.0060  5.4009   2
  -2  -4  12 25.7518  5.3524   2
   6  -2  12 25.5641  5.3939   1
  -4   6  12 17.6646  5.3900   2
   2  -6 -12 28.0601  5.1023   2
   2   4  12 26.0269  4.8568   1
   4   2 -12 19.7498  3.7630   1
   6  -4 -12 28.5696  5.0302   1
   2  -6 -12 22.8907  5.9123   1
  -6   2  12 13.4932  5.7904   1
  -2  -4  12 19.7225  5.5221   1
   4  -6  12 8.57100 5.87726   1
   2   4  12 32.4948  5.0054   1
  -4   6  12 19.5385  5.7871   1
  -4  -2 -12 20.2409  4.9090   2
   6  -2  12 21.6332  5.3502   1
   4   2  12 23.0264  4.9101   1
   4  -6 -12 32.7134  6.0314   1
  -4   6 -12 9.77381 4.91005   2
  -2   6  12 15.7719  5.3795   1
   4  -6 -12 14.7743  4.8550   2
   4   2  12 15.5468  4.6497   1
  -6   4  12 15.0746  5.1280   2
   6  -4  12 15.4370  5.4881   1
   2   4 -12 24.8716  4.0881   1
  -6   4  12 19.6850  5.9240   1
  -4   6 -12 19.7898  4.9489   2
  -4  -2  12 22.6473  5.5820   1
  -2  -4 -12 17.8394  5.4618   1
  -2  -4 -12 20.8100  4.9951   2
   6  -2 -12 18.8287  4.3300   1
  -4  -2  12 15.0884  5.1136   2
  -2   6  12 19.8034  5.5730   1
   2  -6  12 23.2360  6.0673   1
   1   5  12 0.11747 4.59508   1
   6  -5 -12 -1.5093  4.4168   2
   5  -6  12 -0.2827  5.6382   1
   6  -5 -12 5.47009 5.15011   1
  -5   6  12 -7.2579  4.9655   2
  -5   6  12 4.69729 5.74895   1
   6  -1  12 -1.7900  4.6772   1
   6  -1  12 -1.4414  4.6564   1
   1   5  12 0.37882 4.55522   1
  -1   6 -12 -4.5567  4.3544   1
   5   1 -12 -3.4937  3.2386   1
  -1  -5  12 -4.5283  5.3396   1
  -6   5 -12 -9.9885  4.5991   2
  -6   1  12 2.73860 5.36813   1
   1  -6 -12 8.94680 5.59332   1
  -6   1  12 8.98406 5.12542   2
   1  -6 -12 -1.7544  4.5524   2
   1  -6  12 3.57129 5.65377   1
  -6   5  12 6.08347 5.03066   2
   5   1  12 -5.1796  4.3086   1
   6  -1 -12 -3.2575  3.6800   1
  -1  -5 -12 -2.5962  5.1251   1
   1   5 -12 1.24239 3.69791   1
  -5  -1  12 -1.6175  4.8492   2
  -1   6  12 0.58325 4.93341   1
  -5  -1  12 -2.1488  5.1017   1
  -1   6  12 -5.4851  4.7409   1
  -6   5  12 -2.9390  5.4670   1
   5   1  12 5.29207 4.32803   1
  -5   6 -12 -6.8206  4.5795   2
  -1  -5 -12 -2.1387  4.5367   2
   5  -6 -12 -0.3542  5.3648   1
   5  -6 -12 -0.1397  4.5629   2
   6  -5  12 1.82687 5.43469   1
  -6   0  12 9.04695 5.09031   2
   0  -6 -12 -1.9429  4.8704   2
  -6   6  12 0.22347 5.77122   1
  -6   6  12 11.5975  5.4392   2
   0   6 -12 0.87518 4.05110   1
   0   6  12 -9.9134  4.6373   1
   0  -6  12 -1.8773  5.5046   1
  -6   6 -12 7.13836 5.04761   2
  -6   0  12 -7.8108  5.0612   1
   6   0  12 -0.9465  4.4847   1
   6  -6 -12 2.19180 5.34128   1
   0  -6 -12 0.23671 5.43169   1
   0   6  12 -6.9953  4.7057   1
   6   0  12 1.48294 4.54509   1
   6  -6 -12 -2.5092  4.4253   2
   6   0 -12 -4.5864  3.3088   1
   6  -6  12 3.53061 5.61158   1
   7  -3  12 172.570  10.555   1
   7  -3  12 182.275  11.064   1
   3   4  12 163.260   9.121   1
  -7   3  12 165.894  10.993   1
  -3   7 -12 169.538  10.701   1
  -4  -3 -12 155.590  10.390   1
   3   4  12 173.159   9.466   1
  -3  -4  12 153.154  10.424   1
  -7   3  12 174.070  10.494   2
   3  -7 -12 151.199  10.070   2
  -4   7  12 177.525  10.790   1
   4   3 -12 164.880   8.490   1
   7  -4 -12 164.802  10.270   1
   4  -7  12 146.574  10.998   1
   7  -4 -12 164.501  10.110   1
   3  -7 -12 173.173  11.204   1
  -3  -4  12 150.500   9.901   2
  -4  -3 -12 162.833   9.535   2
   4  -7 -12 167.475  10.116   2
   4  -7 -12 168.304  11.218   1
  -4   7 -12 182.548  10.174   2
  -3   7  12 150.059  10.363   1
  -4  -3  12 185.175  10.624   1
   4   3  12 169.783   9.227   1
  -3  -4 -12 140.856   9.618   2
  -7   4  12 170.352  10.580   2
  -4  -3  12 166.712  10.066   2
  -7   4  12 160.840  11.038   1
   7  -4  12 158.304  10.697   1
   7  -3 -12 172.131   9.749   1
  -3  -4 -12 172.447  10.648   1
   4   3  12 158.049   8.961   1
   3  -7  12 159.801  11.223   1
   7  -5 -12 86.2981  7.4364   1
   2   5  12 85.3465  6.6068   1
  -7   2  12 94.5292  7.9550   1
  -2  -5  12 85.2814  7.7229   1
  -7   2  12 89.4066  7.6794   2
  -2   7 -12 126.215   9.055   1
   5  -7  12 90.2662  8.2930   1
   7  -2  12 118.027   8.856   1
   2  -7 -12 94.7554  8.2451   1
   7  -2  12 85.9600  7.1341   1
   2   5  12 89.7422  6.7036   1
  -5   7  12 91.9116  8.2186   1
  -5   7  12 91.9087  7.7600   2
   2  -7 -12 104.095   7.995   2
  -7   5 -12 88.0170  7.0996   2
   5   2 -12 87.4768  6.0502   1
  -2  -5  12 88.4688  7.4127   2
  -7   5  12 98.3382  8.2587   1
   5   2  12 79.6109  6.5022   1
  -5  -2  12 96.8748  7.7375   1
   5   2  12 92.9213  6.5556   1
   5  -7 -12 97.7055  7.1579   2
   7  -5  12 97.0862  8.0289   1
   5  -7 -12 94.3731  8.3250   1
   2  -7  12 93.7046  8.3039   1
   2   5 -12 76.0006  5.8181   1
   7  -2 -12 99.1990  7.3790   1
  -2   7  12 90.6685  7.8040   1
  -2   7  12 85.6881  7.4752   1
  -2  -5 -12 93.6032  7.1944   2
  -5  -2  12 90.3074  7.2544   2
  -2  -5 -12 88.5231  7.5849   1
  -1  -6  12 145.863  10.215   1
   6   1 -12 124.300   7.382   1
   1   6  12 127.988   8.960   1
   1  -7 -12 133.565  10.263   1
  -6   7  12 138.820  10.470   1
   7  -6 -12 136.759   9.805   1
  -7   1  12 151.225  10.088   1
   6  -7  12 133.622  10.578   1
   1  -7 -12 122.257   9.059   2
   7  -6 -12 160.602   9.686   2
   7  -1  12 147.226   9.121   1
  -7   1  12 133.844   9.548   2
  -6  -1  12 140.692   9.127   2
  -7   6  12 133.426  10.411   1
  -1   7  12 133.991   9.514   1
   6   1  12 134.099   8.615   1
  -1  -6 -12 141.066   9.832   1
  -6  -1  12 128.813   9.599   1
  -6   7 -12 141.405   9.850   2
   1  -7  12 156.586  10.548   1
   6  -7 -12 157.737  10.314   1
   7  -6  12 125.515   9.410   1
  -1  -6 -12 125.846   9.167   2
   0  -7 -12 321.199  15.917   1
  -7   0  12 308.908  15.582   1
   7   0  12 330.111  14.556   1
   7  -7 -12 322.619  15.915   1
   7  -7  12 322.540  16.154   1
   0  -7  12 305.801  16.136   1
  -7   7  12 334.704  16.271   1
   0   7  12 318.655  15.054   1
   0  -7 -12 305.439  15.054   2
  -7   0  12 329.065  15.157   2
   4  -8 -12 663.437  27.421   2
  -4  -4  12 660.305  27.090   2
  -4   8  12 606.588  27.736   1
   4   4  12 690.060  26.414   1
  -8   4  12 675.897  27.542   2
  -4  -4 -12 660.653  26.977   2
   8  -4 -12 636.224  27.309   1
   4  -8  12 673.697  28.372   1
   4   4 -12 638.113  25.691   1
   8  -4  12 686.881  27.704   1
   4  -8 -12 666.084  28.334   1
  -4  -4 -12 684.543  27.641   1
  -4  -4  12 673.482  27.678   1
  -8   4  12 664.117  28.034   1
  -5  -3 -12 72.9819  6.7156   2
   8  -5 -12 87.9372  7.1390   1
  -3  -5  12 80.5376  7.5821   1
   8  -3  12 90.3281  7.3127   1
   3   5  12 83.7460  6.1071   1
  -8   3  12 95.2750  7.4381   2
  -3  -5  12 76.0625  7.1984   2
   3  -8 -12 81.6647  7.1407   2
  -5   8  12 89.2765  8.0753   1
   5  -8  12 92.3196  8.6083   1
  -8   3  12 90.5354  7.7511   1
  -5  -3 -12 79.2651  7.4231   1
   3  -8 -12 94.3041  8.3251   1
   3   5 -12 75.4072  5.8334   1
  -3  -5 -12 89.3714  7.5355   1
  -8   5  12 87.7150  8.0891   1
   8  -5  12 86.0167  7.7232   1
  -5  -3  12 83.6128  7.5264   1
   3  -8  12 93.1543  8.4531   1
   5  -8 -12 78.7778  8.2808   1
   5   3  12 81.4974  5.7390   1
  -5  -3  12 89.4433  7.0726   2
  -3  -5 -12 83.1802  7.0499   2
  -3   8  12 74.8044  7.5169   1
   8  -6 -12 33.6594  5.9905   1
   2  -8 -12 34.2345  5.8918   2
  -2  -6  12 53.5528  6.8051   1
  -6   8  12 51.0013  7.1472   1
   2  -8 -12 48.6051  7.1097   1
   8  -2  12 47.3458  5.8351   1
   6  -8  12 51.3361  7.3341   1
  -8   2  12 39.7627  6.3427   1
  -8   2  12 40.7319  6.1568   2
   2   6  12 47.3673  5.2015   1
   6  -8 -12 43.3400  7.0647   1
   8  -6  12 38.8024  6.7199   1
  -2  -6 -12 34.9880  5.8182   2
  -6  -2  12 51.4327  6.4032   1
   2   6 -12 36.8521  4.3693   1
  -8   6  12 48.7045  7.1834   1
  -6  -2  12 34.7949  5.8328   2
   6   2  12 46.0805  4.5683   1
  -2   8  12 40.9115  6.3204   1
  -2  -6 -12 42.2166  6.4192   1
   2  -8  12 33.8670  6.9816   1
   1  -8 -12 61.5530  7.3157   1
   8  -7 -12 53.4583  6.7386   1
  -7   8  12 47.8079  7.2519   1
   1   7  12 40.2362  5.5301   1
   1  -8 -12 53.4812  6.2891   2
   8  -1  12 54.0044  5.5293   1
   7  -8  12 47.8070  7.4118   1
  -8   1  12 47.7973  6.6340   1
  -1  -7  12 55.3936  7.0628   1
  -1   8 -12 55.2240  5.6326   1
  -8   1  12 51.7505  6.2154   2
  -8   7  12 47.9625  7.3461   1
  -1   8  12 55.9878  6.4364   1
  -1  -7 -12 49.5023  6.6944   1
   7  -8 -12 43.6249  7.0225   1
   1  -8  12 58.5907  7.4035   1
   1   7 -12 46.5961  4.9078   1
  -7  -1  12 51.9977  6.2905   2
  -7  -1  12 49.8401  6.5336   1
   7   1  12 54.1308  4.7021   1
  -1  -7 -12 41.2510  5.9952   2
   8  -7  12 52.5569  7.2534   1
   8  -8  12 20.3090  6.7652   1
   0  -8  12 26.4032  6.4426   1
   0  -8 -12 12.9205  5.3866   2
   8   0  12 31.4520  4.2749   1
   8  -8 -12 23.8218  6.2792   1
   0  -8 -12 19.4046  6.2310   1
   0   8  12 20.5382  5.4184   1
   0   8 -12 18.3085  4.5487   1
  -8   0  12 29.7522  5.6070   2
  -8   8  12 20.5603  6.5499   1
   9  -4  12 88.3631  7.4820   1
  -4  -5  12 74.3304  7.0486   2
   4   5  12 78.6670  5.8440   1
  -5  -4 -12 89.3835  7.3718   1
   4  -9 -12 78.3948  8.3167   1
   5  -9  12 75.3941  8.5394   1
  -5   9  12 85.6576  8.0129   1
  -9   4  12 82.6471  7.8904   1
  -5  -4 -12 85.5278  6.8299   2
   9  -5 -12 69.5369  6.9495   1
   5  -9 -12 86.5266  8.4043   1
   9  -5  12 79.8263  7.5890   1
   4  -9  12 86.1111  8.4106   1
  -4  -5 -12 83.5245  6.8885   2
  -5  -4  12 79.8882  6.8880   2
  -4   9  12 83.2709  7.5688   1
  -4  -5 -12 83.3829  7.4404   1
  -9   5  12 86.2594  8.0617   1
   3   6  12 5.86892 3.54448   1
   6  -9  12 -2.7495  6.3260   1
  -9   3  12 1.60589 5.27935   2
   3  -9 -12 -4.3916  5.1698   2
  -9   3  12 -2.9278  5.3831   1
   9  -6 -12 -1.3165  4.9955   1
   3  -9 -12 12.3145  6.2309   1
   9  -3  12 6.71204 5.12480   1
  -6   9  12 8.66773 6.10510   1
  -3   9 -12 5.58760 4.84146   1
  -3  -6  12 5.60755 5.31190   2
  -3  -6 -12 -2.4117  4.9762   2
   3  -9  12 -6.9999  6.1188   1
  -9   6  12 16.9752  6.3788   1
   6  -9 -12 3.99259 6.20594   1
  -3   9  12 4.94199 5.47983   1
  -3  -6 -12 9.71654 5.49597   1
   9  -6  12 -1.1598  5.6028   1
  -6  -3  12 10.6464  5.0646   2
  -2   9 -12 -7.3464  4.4841   1
  -9   2  12 -3.6829  5.0536   2
   9  -7 -12 -10.779   4.944   1
  -9   2  12 1.47151 5.37443   1
   2  -9 -12 -4.2196  5.1406   2
  -7   9  12 5.69002 6.02604   1
   2   7  12 2.49213 3.85361   1
   7  -9  12 4.60521 6.42728   1
   9  -2  12 -3.2937  4.5361   1
   2  -9 -12 3.65406 6.13297   1
   7  -9 -12 -2.0725  6.0035   1
  -2  -7 -12 -5.9807  5.2537   1
  -2  -7 -12 1.99036 4.95442   2
   9  -7  12 3.37131 5.97829   1
   2  -9  12 -11.342   5.695   1
  -9   7  12 6.21715 6.14651   1
  -7  -2  12 3.03791 4.94015   2
   2   7 -12 2.25233 2.75316   1
  -2   9  12 -6.4098  4.8903   1
  -8   9  12 52.3786  7.4460   1
   9  -8 -12 42.8001  6.6684   1
   9  -1  12 38.4107  4.6758   1
   1   8  12 41.1145  5.0029   1
   1  -9 -12 34.6350  6.0733   2
   8  -9  12 50.8560  7.6398   1
   1  -9 -12 27.9335  6.9042   1
  -9   1  12 37.9369  5.9953   2
  -1   9 -12 35.9852  5.1975   1
   9  -8  12 36.0930  7.0676   1
  -1   9  12 28.2730  5.7676   1
  -1  -8 -12 37.1739  6.6825   1
   1   8 -12 39.4636  4.1533   1
  -9   8  12 27.1482  6.9460   1
  -8  -1  12 36.0098  5.9576   2
  -1  -8 -12 35.4187  6.2159   2
   1  -9  12 33.9535  7.0392   1
   8  -9 -12 37.7968  7.0701   1
   0  -9 -12 1.32627 5.97191   1
  -9   0  12 -0.7378  5.1633   2
  -9   9  12 -7.9230  6.1251   1
   0  -9 -12 11.5917  5.4664   2
   9  -9 -12 15.0602  6.2305   1
   0   9 -12 -0.9985  3.7501   1
   0   9  12 7.19065 4.62328   1
   9  -9  12 1.35267 6.37059   1
  10  -5 -12 7.26825 4.78401   1
 -10   5  12 0.03913 5.80605   1
  -5  -5  12 2.25320 5.15367   2
  -5  10  12 -3.8593  5.4476   1
  -5  10 -12 4.75945 5.18398   1
   5 -10  12 0.63781 6.41221   1
  10  -5  12 0.09843 5.57049   1
   5 -10 -12 -5.6692  6.2521   1
  -5  -5 -12 3.17690 4.92505   2
  10  -4  12 114.097   9.097   1
  10  -6 -12 118.003   9.179   1
  -6  10  12 108.478   9.286   1
   6 -10  12 134.011  10.227   1
 -10   4  12 133.119  10.196   1
  -4  10 -12 130.466   9.119   1
   4 -10 -12 116.694   9.775   1
  -4  -6  12 124.611   9.120   2
  -4  -6 -12 117.160   8.898   2
  -6  -4  12 128.167   8.784   2
 -10   6  12 123.454   9.654   1
   6 -10 -12 123.610   9.897   1
   4 -10  12 118.888  10.029   1
  -4  10  12 117.843   9.399   1
  10  -6  12 123.916   9.900   1
  10  -3  12 49.8665  5.8932   1
   7 -10  12 51.7701  8.1335   1
  10  -7 -12 51.1427  6.6043   1
  -3  10 -12 56.6005  6.3398   1
   3 -10 -12 42.4335  7.6805   1
  -7  10  12 50.7820  7.5193   1
  -3  10  12 50.9974  6.9174   1
  -3  -7 -12 52.5536  6.2522   2
   3 -10  12 67.4773  8.0910   1
   7 -10 -12 65.7616  7.9886   1
  10  -7  12 52.2235  7.5134   1
 -10   7  12 51.3257  7.6709   1
  -7  -3  12 58.8723  6.2696   2
   2   8  12 -4.5746  3.2111   1
   2 -10 -12 -11.615   6.087   1
  -8  10  12 2.73372 6.22784   1
  10  -2  12 1.39749 4.08681   1
   8 -10  12 1.65843 6.71686   1
  10  -8 -12 -1.2518  5.4351   1
 -10   2  12 -4.9884  5.2362   2
  -2  10 -12 -3.6184  4.5001   1
  -2  -8 -12 4.98388 5.43080   2
 -10   8  12 0.31326 6.48147   1
  -8  -2  12 8.52820 5.29360   2
   2 -10  12 -1.0832  6.2686   1
   8 -10 -12 7.48455 6.42204   1
  10  -8  12 9.14820 6.39339   1
  -2  10  12 -8.7692  5.1312   1
   1   9  12 2.40528 3.84605   1
  -9  10  12 0.32551 6.47903   1
   1 -10 -12 2.82839 5.37700   2
  -1  10 -12 5.55360 4.20091   1
   9 -10  12 8.03976 6.88221   1
   1 -10 -12 1.16078 6.33739   1
 -10   1  12 -1.3327  5.2623   2
  10  -9 -12 0.01237 5.88269   1
   1 -10  12 -0.9414  6.1515   2
 -10   9  12 -5.9351  6.2451   1
   9 -10 -12 6.90030 6.33390   1
  -1  -9 -12 2.44273 5.47241   2
  -9  -1  12 0.92628 5.10714   2
  -1  10  12 5.52401 5.13588   1
  10  -9  12 0.51449 6.48642   1
 -10   0  12 11.9735  5.5201   2
   0 -10 -12 3.56431 5.58571   2
  10 -10  12 -0.4312  6.7851   1
   0  10 -12 14.5926  3.4416   1
  10 -10 -12 -1.7583  6.2664   1
 -10  10  12 7.61434 6.86628   1
   0 -10  12 11.2265  6.3452   2
   0  10  12 16.5591  4.6477   1
  -5  11 -12 4.11369 5.23889   1
  -6  11  12 9.03430 6.26564   1
   5 -11 -12 11.2963  6.9363   1
  -5  -6  12 1.79748 5.51282   2
  -6  -5 -12 0.73623 4.90397   2
  11  -6 -12 7.63692 5.10952   1
 -11   5  12 -2.1197  6.1786   1
  11  -5  12 4.90738 5.50179   1
   6 -11  12 4.75831 7.00474   1
 -11   6  12 2.20762 6.11159   1
  -6  -5  12 10.1939  5.2935   2
   5 -11  12 -6.3940  6.7296   1
  -5  -6 -12 7.45262 5.25346   2
  -5  11  12 3.54810 5.78521   1
   6 -11 -12 7.12648 6.82414   1
  11  -6  12 10.2753  5.7174   1
  -6  11 -12 9.37746 5.45509   1
  -4  11 -12 53.5290  6.4434   1
   4 -11 -12 47.5814  7.9431   1
  -4  -7  12 41.1247  6.4921   2
  11  -7 -12 46.8157  6.4506   1
  11  -4  12 43.7149  5.9154   1
  -7  11  12 51.6965  7.6521   1
   7 -11  12 58.6476  8.4628   1
  11  -7  12 42.9315  7.1288   1
  -4  11  12 45.5170  6.9673   1
  -7  -4  12 58.5597  6.3652   2
  -7  11 -12 44.2052  6.6266   1
   7 -11 -12 68.7263  8.3759   1
 -11   7  12 37.4009  7.5974   1
   4 -11  12 48.3058  8.1934   1
  -4  -7 -12 47.5646  6.3542   2
  11  -8 -12 105.162   8.545   1
   3 -11 -12 115.788   9.808   1
  11  -3  12 104.028   7.459   1
   8 -11  12 118.416  10.274   1
  -8  11  12 95.7792  9.3775   1
  -3  11 -12 100.985   7.774   1
 -11   8  12 109.869   9.711   1
   3 -11  12 102.857   9.691   1
  -3  -8 -12 100.816   8.022   2
  -3  11  12 86.1175  8.2407   1
  -8  11 -12 123.203   9.464   1
  -8  -3  12 108.145   8.447   2
  11  -8  12 114.160   9.267   1
   8 -11 -12 111.297   9.721   1
  11  -9 -12 28.1483  6.6224   1
   9 -11  12 38.9924  8.1211   1
  -9  11  12 35.8271  7.6169   1
  -2  11 -12 35.6514  5.2541   1
  -9  -2  12 46.2717  6.2214   2
 -11   9  12 24.1608  7.4220   1
  -9  11 -12 46.4925  7.0305   1
  -2  -9 -12 51.3690  6.8371   2
  -2  11  12 35.4933  6.1694   1
   9 -11 -12 36.9550  7.5571   1
  11  -9  12 32.0003  7.4061   1
  -1  11 -12 99.6352  6.7117   1
  10 -11  12 102.211  10.053   1
  -1 -10  12 92.2489  8.6826   2
 -10  11  12 116.640  10.068   1
  11 -10 -12 112.629   9.268   1
  10 -11 -12 102.210   9.628   1
 -10  -1  12 90.5968  7.8682   2
  -1  11  12 105.605   8.405   1
   1 -11  12 99.6542  9.0983   2
 -11  10  12 85.1732  9.6461   1
  -1 -10 -12 108.407   8.530   2
  11 -10  12 112.108   9.875   1
  11 -11 -12 41.8785  7.9121   1
  11 -11  12 58.1391  8.7034   1
 -11   0  12 63.8334  6.7942   2
 -11  11  12 73.8987  8.9870   1
   0  11  12 42.8221  4.7164   1
   0 -11  12 59.3376  7.7659   2
   6 -12  12 1.54589 7.18988   1
  -6  12  12 9.35114 6.41621   1
  -6  -6 -12 4.45810 5.25754   2
  12  -6  12 4.79384 5.66447   1
   6 -12 -12 6.87080 6.96582   1
  -6  12 -12 7.45726 5.65299   1
  -6  -6  12 4.96020 5.53690   2
  12  -6 -12 4.34880 4.99161   1
  -7  12  12 41.4911  7.4712   1
  -7  -5 -12 51.6648  6.2393   2
  12  -5  12 42.3182  6.1314   1
  -5  -7  12 54.5278  6.8066   2
  -5  12 -12 57.2146  6.8982   1
  12  -7 -12 38.9950  6.3036   1
   5 -12 -12 44.8639  8.3079   1
   7 -12  12 58.4319  8.7635   1
  -7  -5  12 43.6184  6.1700   2
 -12   7  12 41.8151  7.7123   1
   5 -12  12 55.1647  8.6835   1
  -5  -7 -12 42.9220  6.2737   2
   7 -12 -12 58.4082  8.5588   1
  -5  12  12 52.7590  7.2661   1
  12  -7  12 46.2009  7.2096   1
  -7  12 -12 46.0389  6.8685   1
  -8  12  12 21.9066  7.0197   1
   8 -12  12 5.50058 7.26470   1
  -4  12 -12 15.0747  5.5931   1
   4 -12 -12 17.4684  7.5152   1
  12  -8 -12 10.2354  5.8166   1
  12  -4  12 10.7579  4.7146   1
  -4  -8 -12 8.23915 5.50038   2
  -4  12  12 23.8396  6.2827   1
  -8  -4  12 13.0644  5.4815   2
   4 -12  12 17.1551  7.5398   1
  12  -8  12 9.36264 6.26483   1
   8 -12 -12 -2.6005  6.9960   1
  -8  12 -12 16.3967  6.0035   1
 -12   8  12 12.5965  6.9632   1
  -9  12  12 -2.2735  6.5764   1
   9 -12  12 2.86500 7.29426   1
  12  -9 -12 4.04751 5.90321   1
  -3  12 -12 -0.8916  4.6508   1
  12  -9  12 -3.9205  6.2408   1
   9 -12 -12 0.86193 6.92488   1
 -12   9  12 -2.3303  6.8592   1
  -3  -9 -12 -7.3334  5.4904   2
  -9  12 -12 -2.3063  5.5508   1
  -9  -3  12 0.45207 5.31135   2
  -3  12  12 -1.6401  5.5856   1
 -10  12  12 2.84680 7.05321   1
  -2  12 -12 2.62053 4.21319   1
  12 -10 -12 -1.7813  6.0912   1
  10 -12  12 9.13821 7.64915   1
  -2 -10  12 -2.6794  6.0881   2
 -12  10  12 13.5347  7.4816   1
  -2  12  12 -6.8090  5.0354   1
  -2 -10 -12 1.88866 5.86553   2
 -10  12 -12 5.87853 6.01190   1
  10 -12 -12 5.42710 7.13123   1
  12 -10  12 7.44369 6.73221   1
 -10  -2  12 0.71981 5.26737   2
  -1 -11  12 13.2674  6.9334   2
  12 -11 -12 14.8329  6.8737   1
  11 -12  12 25.0672  8.1734   1
 -11  12  12 32.1662  8.1533   1
 -11  12 -12 14.9946  6.7556   1
 -11  -1  12 32.4748  6.1603   2
  12 -11  12 16.7399  7.5433   1
 -12  11  12 11.8307  7.6934   1
  11 -12 -12 24.1700  7.6791   1
  -1 -11 -12 21.7096  6.5184   2
  -1  12  12 17.0635  4.8567   1
 -12  12 -12 79.0312  8.7556   1
 -12  12  12 81.6664 10.0821   1
  12 -12 -12 90.7268  9.6394   1
  12 -12  12 73.0807  9.5880   1
   7 -13  12 0.14538 7.69755   1
  -7  -6 -12 10.6372  5.3947   2
  -6  -7  12 8.19030 5.87183   2
   6 -13 -12 13.5370  7.6214   1
  13  -6  12 22.1228  5.7039   1
  -6  13 -12 -2.9402  5.7289   1
  -7  13  12 21.4722  6.9348   1
  13  -7 -12 13.9966  5.3454   1
  -6  -7 -12 14.3811  5.6668   2
  -6  13  12 20.2150  6.7630   1
   7 -13 -12 0.58013 7.26469   1
  -7  -6  12 12.8435  5.5220   2
  -7  13 -12 18.1091  6.1979   1
  13  -7  12 13.7607  6.0683   1
   6 -13  12 4.05357 7.62516   1
  -5  -8  12 -4.2181  5.6651   2
  13  -5  12 8.74508 4.80156   1
   8 -13  12 -9.4017  7.4834   1
  -5  13 -12 -12.788   5.161   1
  -8  13  12 -0.9977  6.5588   1
  13  -8 -12 6.07208 5.50727   1
   5 -13 -12 -0.1579  7.2706   1
  -8  13 -12 -3.6077  5.6198   1
  -5  -8 -12 8.08313 5.52363   2
  -5  13  12 -2.9877  6.0404   1
   8 -13 -12 -4.3659  7.2060   1
  -8  -5  12 3.67951 5.42591   2
   5 -13  12 -7.0481  7.3656   1
  13  -8  12 -9.4470  5.8135   1
  13  -9 -12 -5.8680  5.5265   1
   9 -13  12 -12.731   7.393   1
  -4  13 -12 -7.5927  5.0349   1
  -9  13  12 -6.6134  6.5904   1
 -13   9  12 -1.0538  6.9737   1
  -4  13  12 -2.3427  5.7582   1
  13  -9  12 2.07407 6.43838   1
  -4  -9 -12 11.4286  5.8958   2
   9 -13 -12 -5.2378  7.1895   1
  -9  13 -12 -9.7471  5.6846   1
  -9  -4  12 -5.6963  5.1780   2
 -10  13  12 10.8753  7.4627   1
  -3 -10  12 6.19661 6.35307   2
  13 -10 -12 13.1117  6.5702   1
  -3  13 -12 7.75333 4.85621   1
  10 -13  12 11.2023  8.1300   1
 -10  13 -12 7.75132 6.45346   1
  -3 -10 -12 13.6879  6.3789   2
  10 -13 -12 15.4335  7.7203   1
  13 -10  12 15.1759  7.1619   1
 -13  10  12 11.0234  7.7944   1
 -10  -3  12 12.7232  5.7605   2
  -3  13  12 8.32944 5.90775   1
 -11  13  12 4.80969 7.63783   1
  -2 -11  12 -13.343   6.325   2
  11 -13  12 -11.133   7.654   1
  13 -11 -12 10.5200  6.8306   1
 -13  11 -12 -7.5182  6.4012   1
  -2 -11 -12 -2.7553  6.2300   2
 -13  11  12 -0.6029  7.5689   1
 -11  13 -12 -10.553   6.166   1
  13 -11  12 -7.8047  6.8837   1
  -2  13  12 1.29626 5.24995   1
 -11  -2  12 15.0704  6.0451   2
  11 -13 -12 2.36837 7.26363   1
  12 -13  12 11.1311  8.2448   1
 -13  12 -12 5.51262 6.74561   1
 -12  13  12 8.76139 7.90875   1
 -13  12  12 1.54110 8.12041   1
 -12  13 -12 7.35330 6.85547   1
  12 -13 -12 9.15360 7.55756   1
 -13  13  12 5.27386 8.21286   1
 -13  13 -12 1.25126 7.02945   1
  -7  -7 -12 86.1878  7.8108   2
  -7  14 -12 86.9639  8.5988   1
  -7  -7  12 81.5096  8.0028   2
   7 -14 -12 87.6758 10.5055   1
   7 -14  12 101.073  11.083   1
  14  -7  12 98.4569  8.1551   1
  -7  14  12 92.6577  9.3717   1
   6 -14 -12 0.88756 7.90666   1
  14  -6  12 3.02654 5.12445   1
  -8  14  12 14.8791  7.2712   1
  14  -8 -12 16.2074  5.7845   1
  -6  -8  12 12.4401  6.2967   2
  -6  14 -12 7.97693 6.05563   1
  -8  -6 -12 4.30017 5.52672   2
   8 -14  12 -10.014   7.970   1
  -8  -6  12 12.4257  5.8708   2
  14  -8  12 9.30368 6.27663   1
  -8  14 -12 4.68438 6.32190   1
   8 -14 -12 -3.9010  7.7333   1
  -6  14  12 16.5290  6.8097   1
  -6  -8 -12 17.8580  6.0943   2
   9 -14  12 1.93129 8.18914   1
  14  -9 -12 -0.3656  5.8163   1
  -5  14 -12 -2.8505  5.5025   1
  -9  14  12 8.71225 7.23792   1
  14  -9  12 3.69987 6.52638   1
  -5  -9 -12 -7.2178  5.6079   2
  -9  14 -12 -2.8089  6.2291   1
  -5  14  12 -4.6614  6.0222   1
  -9  -5  12 2.67500 5.64605   2
   9 -14 -12 -4.9313  7.6874   1
  -4  14 -12 -1.0285  5.0476   1
 -10  14  12 10.6317  7.5573   1
  14 -10 -12 -2.2613  6.1968   1
  10 -14  12 -7.8528  8.2577   1
  -4 -10 -12 3.83875 6.25583   2
  14 -10  12 5.85438 6.73907   1
  -4  14  12 6.26448 6.27735   1
 -10  -4  12 3.49501 5.70061   2
  10 -14 -12 0.80066 7.90550   1
  11 -14  12 11.7235  8.5348   1
  -3  14 -12 17.8469  4.8423   1
  -3 -11  12 13.6481  7.0578   2
 -14  11 -12 8.78608 7.14223   1
  -3 -11 -12 11.4387  6.7059   2
 -11  -3  12 12.1605  6.1681   2
  -3  14  12 16.5723  5.8365   1
  11 -14 -12 23.9652  8.4094   1
 -14  11  12 15.3633  8.4020   1
   8 -15  12 22.9291  9.2889   1
  15  -7  12 29.7594  5.8418   1
   7 -15 -12 15.3955  8.8423   1
  -7  -8  12 17.0921  6.6887   2
  -8  -7 -12 10.1425  6.1856   2
  15  -8  12 18.8498  6.4136   1
   8 -15 -12 12.9121  8.7779   1
  -7  -8 -12 31.6350  6.5313   2
  -8  -7  12 24.6390  6.6602   2
   0   0  13 6.87460 5.11441   1
   0   0 -13 -1.6347  3.9815   2
   0  -1  13 78.3528  7.0872   1
   1  -1  13 88.8277  7.1614   1
   1   0  13 87.0712  7.1704   1
  -1   1  13 91.1674  7.3932   1
  -1   1 -13 74.8530  6.1520   2
   1   0 -13 80.2149  6.0401   2
  -1   0  13 83.9985  6.7272   2
   1  -1 -13 75.7182  6.1999   2
   0   1  13 80.7650  7.0364   1
   0  -1 -13 78.3833  6.2293   2
  -1   1  13 83.1906  6.7395   2
  -1   0  13 90.2141  7.4179   1
  -1   0 -13 69.7135  6.1242   2
   0   1 -13 71.0962  6.0765   2
  -2   1 -13 -2.2040  4.0257   2
  -1   2 -13 -2.1758  4.0988   2
   2  -1  13 -7.4724  4.8181   1
   1   1  13 -6.3089  4.7319   1
   2  -1 -13 -5.0230  3.8045   2
  -1   2  13 -5.4276  4.9939   1
  -2   1  13 -3.8109  5.0873   1
   1  -2 -13 -0.7591  4.8958   1
   1  -2  13 3.02588 4.99993   1
  -1  -1  13 -0.7207  1.4279   2
   1   1 -13 -6.9678  3.8440   1
   1   1 -13 -6.1741  3.7741   2
  -2   1  13 -0.9277  4.6995   2
  -1   2  13 -1.6422  4.5430   2
   1  -2 -13 -2.8274  4.1934   2
  -1  -1  13 -1.0529  4.9881   1
  -1  -1 -13 1.35439 4.15583   2
   2   0  13 67.6450  6.5854   1
   0   2  13 60.4060  6.5014   1
  -2   2 -13 51.8073  5.4750   2
   2  -2  13 63.5578  6.6841   1
   2  -2 -13 52.6866  5.4643   2
   2  -2 -13 54.0387  6.4092   1
   0   2 -13 57.7689  5.4489   2
   0  -2 -13 71.5647  6.6929   1
  -2   2  13 63.7590  6.2728   2
  -2   0  13 65.0122  6.9530   1
  -2   2  13 60.3882  6.7521   1
   2   0 -13 56.4203  5.3761   2
   2   0 -13 64.8524  5.7643   1
   0   2 -13 65.0757  5.9482   1
  -2   0 -13 62.9743  5.8904   2
   0  -2 -13 64.9970  5.9239   2
   0  -2  13 62.6444  6.6314   1
   2   0  13 58.2872  6.3210   1
  -1   3 -13 33.4788  4.9927   2
  -1   3 -13 35.2892  4.9396   2
  -2  -1 -13 27.7402  5.0682   2
  -1  -2  13 34.7280  6.0627   1
  -3   2 -13 37.8144  5.1333   2
  -2   3  13 29.3015  5.4704   2
   3  -1  13 28.6282  5.5992   1
  -1  -2  13 31.2036  5.5042   2
   3  -2 -13 41.3976  5.0120   2
   1   2  13 27.7148  5.5290   1
   2   1 -13 30.9882  4.9576   1
   2  -3  13 39.3890  6.0513   1
   1  -3 -13 37.2919  5.9319   1
   1   2  13 32.8012  5.8581   1
   2   1 -13 34.4529  4.4543   2
  -2   3  13 37.6890  6.0550   1
   1  -3 -13 22.9460  4.8521   2
  -3   1  13 38.6175  6.1416   1
  -1  -2 -13 30.5121  5.0862   2
   3  -1 -13 37.2101  4.7242   2
  -2  -1  13 38.2207  5.8186   2
  -1  -2 -13 28.9568  5.8280   1
   2   1  13 31.0386  5.8374   1
  -1   3  13 33.5465  5.8612   1
  -3   2  13 39.2689  5.7348   2
   2  -3 -13 28.8927  5.8424   1
  -3   2  13 32.4516  6.0617   1
  -1   3  13 31.5254  5.3292   2
   3  -1 -13 29.1066  5.0350   1
   3  -2  13 33.5314  5.9471   1
   1  -3  13 35.2056  6.0635   1
  -3   1 -13 24.6232  5.0427   2
  -2  -1  13 26.1950  5.9535   1
  -2   3 -13 26.6974  4.7141   2
   2   1  13 34.8499  5.5792   1
   1   2 -13 30.9462  4.8170   1
   1   2 -13 28.4204  4.4613   2
   2  -3 -13 34.9809  4.8997   2
   0  -3 -13 401.123  18.269   1
   0  -3 -13 365.146  17.441   2
   0  -3  13 386.576  18.272   1
  -3   0  13 410.692  17.876   2
   3  -3 -13 389.258  18.073   1
   3  -3 -13 417.121  17.558   2
   3   0  13 380.626  17.854   1
   3   0 -13 426.769  17.887   1
   0   3  13 410.057  18.538   1
  -3   3  13 408.033  18.326   1
   0   3  13 385.039  18.088   1
   3   0  13 451.851  18.649   1
  -3   3  13 400.937  18.033   2
  -3   3 -13 388.487  17.600   2
   0   3 -13 418.304  17.970   1
   3  -3  13 399.711  18.342   1
  -3   0 -13 396.476  17.578   2
   0   3 -13 408.585  17.168   2
  -3   0  13 407.875  18.284   1
  -2   4  13 -3.6254  5.0050   1
   2   2  13 -3.4491  4.9672   1
  -4   2  13 -7.7716  3.3185   2
   2  -4  13 -9.1900  5.1764   1
  -4   2 -13 -3.6912  4.4780   2
   4  -2 -13 9.41561 4.11900   2
   2   2  13 4.58097 4.73665   1
  -2  -2 -13 -5.4834  4.4402   2
   2   2 -13 -2.8638  3.9047   1
   4  -2 -13 -1.9246  4.2329   1
  -4   2  13 -3.8637  5.2711   1
   4  -2  13 0.91333 4.90067   1
   2  -4 -13 9.62341 4.53997   2
  -2  -2  13 0.02573 4.79469   2
  -2   4  13 3.50844 4.75905   2
  -2   4 -13 4.68934 4.61982   2
  -2  -2  13 3.68925 5.29938   1
  -2   4 -13 -1.5840  4.2289   2
   2  -4 -13 -1.1888  5.1169   1
  -1  -3  13 9.36548 4.93873   2
  -3  -1 -13 19.1503  5.0564   2
   4  -1  13 17.0734  5.1805   1
   1   3  13 12.1176  5.2873   1
  -4   3 -13 9.90496 4.52646   2
   1  -4 -13 7.74222 4.68209   2
  -1   4 -13 9.49382 4.80373   1
  -1  -3  13 9.95271 5.40728   1
  -4   1  13 17.1148  5.2500   2
   3  -4  13 14.2612  5.8866   1
  -4   1  13 14.2410  5.6707   1
   3   1 -13 10.2343  4.3591   1
   4  -3 -13 12.8703  4.5681   2
   1   3  13 11.3070  4.9660   1
  -1   4 -13 14.4136  4.5073   2
  -3   4  13 5.18684 5.10710   2
  -3   4  13 15.3553  5.6664   1
   1  -4 -13 14.6012  5.4854   1
   4  -1  13 11.2763  5.3175   1
   4  -3 -13 14.3023  5.2569   1
  -1  -3 -13 13.2378  5.4894   1
   4  -3  13 13.8122  5.5326   1
   3   1  13 14.3541  5.3913   1
  -3   4 -13 10.0927  4.6573   2
   1   3 -13 13.8840  4.2614   1
   1  -4  13 10.2315  5.6173   1
  -4   1 -13 12.0401  4.8731   2
   3  -4 -13 17.3366  5.4522   1
  -1  -3 -13 12.9098  4.7563   2
   3   1  13 5.85775 4.89458   1
  -3  -1  13 11.3821  5.2288   2
   3  -4 -13 23.4258  4.7857   2
  -4   3  13 12.8708  5.6638   1
  -3  -1  13 17.4702  5.8148   1
  -3   4 -13 13.8647  4.5999   2
  -4   3  13 10.8787  5.0812   2
  -1   4  13 15.1477  5.5467   1
   4  -1 -13 13.0999  4.5396   1
   0  -4 -13 265.154  13.540   1
   0  -4 -13 243.838  12.624   2
  -4   0  13 269.239  13.475   1
   0   4 -13 257.281  12.994   1
   0   4  13 269.227  13.830   1
  -4   4 -13 248.838  12.559   2
   4  -4 -13 266.117  12.693   2
  -4   0 -13 245.637  12.579   2
   4  -4  13 231.635  13.483   1
   4   0  13 262.521  12.930   1
   4   0 -13 253.304  12.495   1
   0   4  13 246.475  13.085   1
  -4   4  13 260.123  13.607   1
   4  -4 -13 276.481  13.450   1
  -4   4  13 258.777  13.354   2
   4   0  13 273.300  13.464   1
  -4   4 -13 241.718  12.919   2
  -4   0  13 250.178  13.012   2
   2   3  13 58.3228  6.2952   1
  -3  -2 -13 49.2764  5.9739   2
  -3   5  13 51.5065  6.2286   2
   5  -3 -13 50.4734  5.6421   1
   5  -2  13 42.9924  6.1041   1
  -2  -3  13 49.9262  6.5811   1
  -3   5  13 51.3524  6.7040   1
   2  -5 -13 66.1120  6.8564   1
   5  -3 -13 51.6014  5.1817   2
   3  -5  13 56.9825  6.9554   1
   2  -5 -13 41.6298  5.7318   2
  -5   2  13 41.3726  6.1784   2
   5  -2  13 49.4675  6.4069   1
   3   2 -13 33.9462  4.9459   1
  -2  -3  13 36.8647  6.0078   2
  -5   2  13 60.6544  6.8616   1
   5  -3 -13 51.6597  6.1015   1
   2   3  13 37.9544  5.7449   1
  -2   5 -13 43.7469  5.3255   2
  -2  -3 -13 34.3389  6.2860   1
  -3   5 -13 51.1285  5.7114   2
   2   3 -13 48.3632  5.0687   1
  -3  -2  13 43.9899  6.3091   2
  -2   5  13 60.6221  6.6520   1
  -5   3  13 58.6522  6.9262   1
  -2  -3 -13 47.3962  5.8707   2
   5  -2 -13 55.5826  5.6351   1
   5  -3  13 53.6932  6.4862   1
   3   2  13 47.7501  5.9199   1
   3  -5 -13 46.2899  5.5892   2
   2  -5  13 47.1664  6.8496   1
   3  -5 -13 46.6472  6.4475   1
  -3  -2  13 60.1526  6.9588   1
  -3   5 -13 57.6427  5.8701   2
   3   2  13 41.2582  5.9181   1
  -1   5 -13 209.768  11.463   1
  -4   5  13 207.669  11.583   2
  -5   1  13 200.943  11.308   2
   4   1 -13 200.793  10.380   1
   5  -4 -13 191.364  11.286   1
  -4   5  13 180.579  11.548   1
   4  -5  13 201.404  11.908   1
   5  -1  13 179.644  10.918   1
  -5   4 -13 186.080  11.010   2
  -5   1  13 202.566  11.648   1
   1   4  13 199.736  11.446   1
   1  -5 -13 194.742  11.622   1
  -1  -4  13 208.501  11.791   1
   5  -1  13 224.134  11.896   1
   1   4  13 190.409  10.950   1
   1  -5 -13 177.340  10.519   2
   5  -4 -13 197.860  10.875   2
  -4  -1 -13 175.237  10.473   2
   4  -5 -13 178.210  10.564   2
   4   1  13 187.287  11.196   1
  -1  -4 -13 192.683  10.766   2
  -4   5 -13 197.523  10.764   2
   1  -5  13 187.533  11.806   1
  -1  -4 -13 188.494  11.516   1
   1   4 -13 188.183  10.282   1
   4   1  13 204.965  10.836   1
   5  -4  13 173.488  11.514   1
  -5   4  13 190.927  11.887   1
   4  -5 -13 185.722  11.444   1
  -4  -1  13 202.902  11.372   1
  -4   5 -13 209.609  11.317   2
   5  -1 -13 210.157  10.796   1
  -1   5  13 189.981  11.265   1
  -5   4  13 184.270  11.306   2
  -1   5  13 198.219  11.856   1
  -4  -1  13 184.055  11.132   2
   0   5  13 9.15817 5.36468   1
  -5   0  13 13.5533  5.5017   2
   0  -5 -13 4.15478 5.56336   1
   0   5 -13 5.17023 4.48777   1
   0  -5 -13 6.58699 5.06135   2
   5  -5 -13 -3.8364  4.4611   2
   0   5  13 7.79704 5.22784   1
  -5   5  13 3.77089 5.88617   1
  -5   5 -13 7.58302 5.02998   2
  -5   5  13 13.7338  5.5189   2
   5   0  13 10.7646  4.9805   1
   5   0  13 8.51284 5.20547   1
  -5   0  13 14.2145  5.7523   1
   5  -5  13 4.37527 5.81365   1
   5  -5 -13 3.70686 5.37705   1
   5   0 -13 7.49217 3.98727   1
   0  -5  13 7.00055 5.78952   1
   3  -6 -13 -4.2242  5.6811   1
  -3  -3 -13 8.69318 5.49060   1
   6  -3 -13 -4.0672  4.1890   1
  -6   3  13 -8.4909  5.1041   2
  -6   3  13 4.22195 5.75438   1
  -3  -3 -13 -3.2957  4.6918   2
  -3   6  13 -8.1926  5.3760   1
   6  -3  13 -1.2988  5.2292   1
   3   3  13 2.66220 4.61492   1
   3  -6 -13 1.76701 4.77256   2
   3  -6  13 -3.0950  5.8147   1
   3   3 -13 -4.5808  3.6497   1
   6  -3 -13 -2.6259  4.9236   1
  -3  -3  13 11.7097  5.3477   2
  -3  -3  13 -2.3407  5.4453   1
   3   3  13 -3.8323  4.6894   1
  -3   6 -13 5.88515 4.58217   2
   6  -3  13 0.38967 5.42087   1
   2  -6 -13 16.5044  6.1938   1
   6  -2  13 29.6227  5.7637   1
   6  -2  13 19.0739  5.6083   1
  -4   6  13 16.3931  5.9218   1
  -2   6 -13 22.2445  5.2702   1
  -2  -4  13 18.2166  5.5103   2
   4  -6  13 24.1589  6.3817   1
  -6   2  13 24.2092  6.2400   1
  -6   2  13 10.8016  5.7027   2
  -2  -4  13 12.6002  5.8098   1
   4   2 -13 14.2248  3.9980   1
   2  -6 -13 18.4692  5.2576   2
   2   4  13 19.0954  5.1559   1
   6  -4 -13 13.8480  5.3631   1
  -4  -2 -13 16.2879  5.3246   2
  -4   6  13 23.0577  5.7500   2
   2   4  13 26.6024  5.3659   1
   4  -6 -13 14.7709  4.9068   2
   6  -4  13 21.0254  6.0451   1
   4  -6 -13 21.8656  6.2561   1
   4   2  13 25.6186  5.2565   1
   2   4 -13 26.4501  4.4647   1
   2  -6  13 13.1976  6.2827   1
  -2   6  13 10.3001  5.6722   1
  -4  -2  13 20.1621  5.5176   2
  -4   6 -13 14.7235  4.8908   2
   6  -2 -13 20.3497  4.5905   1
  -2  -4 -13 19.8032  5.9316   1
  -6   4  13 23.8992  6.3870   1
  -2  -4 -13 24.4419  5.2825   2
   4   2  13 12.4920  5.0164   1
  -4  -2  13 20.2200  6.0300   1
   5  -6  13 -0.9031  5.8555   1
  -1  -5  13 2.33859 5.69325   1
  -5   6  13 8.27913 5.53623   2
  -6   1  13 -0.8773  5.5759   1
   6  -5 -13 -1.4039  5.2342   1
  -6   1  13 9.11947 5.40711   2
   6  -1  13 5.99889 5.11105   1
  -5   6  13 4.28110 5.93859   1
   6  -1  13 9.53320 5.23614   1
   1  -6 -13 0.90735 4.99859   2
   1   5  13 5.34439 5.08230   1
   6  -5 -13 6.45981 4.73961   2
  -1   6 -13 2.47006 4.73662   1
   1  -6 -13 -5.6390  5.6494   1
   1   5  13 8.46814 4.99260   1
   5   1 -13 -0.1181  3.6928   1
  -5   6 -13 -7.3803  4.6527   2
   1  -6  13 3.69769 6.06581   1
   5  -6 -13 -3.1310  5.6451   1
  -1  -5 -13 -8.4322  5.3335   1
  -6   5  13 -5.4061  5.8687   1
  -1  -5 -13 7.51742 5.09831   2
   6  -1 -13 3.88152 3.98169   1
  -6   5  13 2.21044 5.44419   2
  -1   6  13 0.85668 5.31208   1
   5  -6 -13 2.73831 4.82092   2
   5   1  13 8.10245 4.88468   1
  -5  -1  13 0.74220 5.51336   1
   5   1  13 4.33461 4.84845   1
   6  -5  13 2.58629 5.65929   1
  -1   6  13 0.24550 5.37447   1
  -5   6 -13 8.00200 5.19831   2
   1   5 -13 0.44833 3.92582   1
  -5  -1  13 5.12335 5.38393   2
   6  -6 -13 108.214   8.516   1
   6  -6  13 103.405   8.902   1
   0  -6  13 108.831   8.773   1
   0  -6 -13 110.677   8.714   2
  -6   6  13 122.535   9.253   1
   0   6  13 93.6374  7.8304   1
  -6   0  13 120.002   8.631   1
   6   0  13 108.720   8.519   1
  -6   0  13 117.299   9.077   2
   0  -6 -13 99.8826  8.5281   1
   3  -7 -13 120.483   9.228   2
  -3  -4  13 144.100  10.171   1
   7  -3  13 140.956   9.913   1
  -7   3  13 150.102  10.223   2
  -3  -4  13 134.902   9.518   2
   3  -7 -13 112.851   9.508   1
  -4  -3 -13 119.591   8.933   2
  -4  -3 -13 129.157   9.947   1
   3   4  13 118.582   8.743   1
  -4   7  13 131.380   9.938   1
   7  -4 -13 133.313   9.391   1
   4  -7  13 136.372  10.379   1
  -7   3  13 146.730  10.724   1
   4   3  13 132.005   8.648   1
  -3   7  13 126.830   9.943   1
  -4  -3  13 127.189   9.902   1
   3  -7  13 150.915  10.796   1
  -7   4  13 148.239  10.716   1
  -7   4  13 151.879  10.044   2
   4  -7 -13 131.791  10.427   1
  -3  -4 -13 138.289   9.905   1
  -4  -3  13 146.369   9.546   2
   7  -4  13 140.933   9.943   1
  -3  -4 -13 124.333   9.142   2
   2  -7 -13 46.1502  6.1124   2
  -2  -5  13 43.4992  6.8093   1
   7  -5 -13 38.5432  6.1142   1
  -5   7  13 47.7002  7.1334   1
  -2  -5  13 40.1098  6.3078   2
   2  -7 -13 61.0703  7.2051   1
   5  -7  13 35.0270  7.0590   1
  -7   2  13 44.8484  6.6872   2
  -7   2  13 52.9646  7.0665   1
   2   5  13 51.9844  5.9488   1
   7  -2  13 52.9306  6.4076   1
  -5  -2 -13 41.8201  5.9133   2
  -2   7  13 49.8593  6.4789   1
   2  -7  13 57.4316  7.4670   1
   7  -5  13 41.6590  6.8724   1
  -5  -2  13 38.4467  6.2714   2
   5  -7 -13 51.3357  7.0459   1
  -2  -5 -13 39.7479  6.5374   1
  -7   5  13 62.7137  7.3893   1
   5   2  13 56.8589  5.6775   1
  -5  -2  13 45.8821  6.6804   1
  -2  -5 -13 43.5472  5.9563   2
   1  -7 -13 75.9132  7.7332   1
   6  -7  13 80.4751  8.1942   1
  -7   1  13 68.2432  7.1444   2
  -6   7  13 71.3360  8.0157   1
   1   6  13 76.0936  6.7623   1
   7  -6 -13 71.4049  7.2998   1
  -1  -6  13 75.1846  7.6624   1
   7  -1  13 82.8422  6.8062   1
  -7   1  13 69.8924  7.5302   1
   1  -7 -13 64.1104  6.6602   2
  -6  -1  13 66.0990  7.4620   1
  -7   6  13 87.2794  8.3942   1
  -1  -6 -13 77.3828  7.0325   2
  -1  -6 -13 69.9662  7.4915   1
  -6  -1  13 63.8453  7.0236   2
   6   1  13 80.4641  6.4128   1
   1  -7  13 86.2824  8.1439   1
   7  -6  13 71.4590  7.8427   1
  -1   7  13 69.3467  7.0934   1
   6  -7 -13 78.6598  7.8983   1
   7   0  13 3.94108 4.58824   1
  -7   7  13 -2.6897  6.0969   1
   7  -7 -13 5.05520 5.76068   1
   0  -7 -13 -6.8448  5.2371   2
  -7   0  13 4.81170 5.41635   2
  -7   0  13 0.81234 5.54535   1
   7  -7  13 5.31927 6.31646   1
   0  -7 -13 -0.0941  5.7809   1
   0   7  13 5.27655 5.12346   1
   0  -7  13 6.17830 6.17543   1
   8  -4  13 10.1585  5.6163   1
  -4  -4  13 9.04488 5.63521   1
   4  -8  13 -3.6683  6.2280   1
  -8   4  13 14.0262  6.0878   1
   4   4  13 2.76411 4.16533   1
  -4  -4  13 1.17958 5.45369   2
   8  -4 -13 5.87939 5.02976   1
  -4  -4 -13 12.2212  5.6094   1
  -4  -4 -13 -1.4276  5.0805   2
   4  -8 -13 1.68148 6.19711   1
  -4   8  13 0.32733 5.58507   1
  -3  -5  13 55.5702  6.6993   2
   8  -5 -13 51.1989  6.5191   1
  -8   3  13 66.2201  7.6040   1
  -3  -5  13 65.0207  7.3516   1
   3  -8 -13 58.6485  7.7245   1
  -5   8  13 59.4874  7.4235   1
  -8   3  13 64.4929  7.0489   2
   5  -8  13 69.7777  8.0030   1
   3   5  13 69.1910  5.8975   1
   8  -3  13 70.6830  7.0164   1
  -5  -3 -13 63.1956  6.4939   2
   5  -8 -13 67.5503  7.8422   1
   8  -5  13 58.0034  7.1272   1
  -5  -3  13 52.1377  7.1915   1
  -5  -3  13 56.3462  6.6094   2
  -3  -5 -13 52.3957  6.9557   1
   5   3  13 67.1148  5.6224   1
  -8   5  13 69.1219  7.8643   1
  -3   8  13 56.2360  6.9838   1
  -3  -5 -13 51.0414  6.2575   2
   3  -8  13 67.0332  7.9116   1
   2  -8 -13 2.96344 5.08818   2
  -6   8  13 9.55330 6.37499   1
  -8   2  13 19.2698  6.0747   1
  -2  -6  13 18.6225  6.1443   1
   2   6  13 11.5173  4.6873   1
  -8   2  13 16.6394  5.7043   2
   6  -8  13 8.01501 6.46330   1
   8  -6 -13 10.4145  5.4737   1
   8  -2  13 10.1179  5.1582   1
   2  -8 -13 -2.8880  6.1000   1
  -2   8  13 12.2456  5.5149   1
   6  -8 -13 21.4008  6.5196   1
  -8   6  13 22.5195  6.5009   1
  -6  -2  13 15.7382  5.5957   2
  -2  -6 -13 3.99746 5.18520   2
  -6  -2  13 23.9277  5.9265   1
   8  -6  13 7.41546 6.00159   1
   2  -8  13 11.6158  6.4414   1
  -2  -6 -13 18.9139  5.9299   1
   6   2  13 7.96496 4.17298   1
  -7   8  13 89.0293  8.6773   1
  -8   1  13 85.8742  7.5889   2
   1  -8 -13 72.5951  7.2128   2
   8  -7 -13 85.5886  7.8842   1
  -8   1  13 92.0383  8.0793   1
   1  -8 -13 111.809   8.773   1
   7  -8  13 89.7827  8.7155   1
  -1  -7  13 85.7061  8.2301   1
   1   7  13 96.7027  6.9942   1
   8  -1  13 85.4644  6.8107   1
   1   7 -13 79.9479  6.1230   1
   7   1  13 82.5875  6.0950   1
   7  -8 -13 92.2584  8.3248   1
  -1   8  13 84.3730  7.5136   1
   1  -8  13 84.7821  8.5380   1
  -8   7  13 94.7448  8.6868   1
  -1  -7 -13 75.9029  7.8811   1
  -1  -7 -13 85.8844  7.5510   2
   8  -7  13 81.8631  8.4393   1
  -7  -1  13 85.5442  7.3887   2
  -8   0  13 104.570   8.274   2
   0   8  13 98.9031  7.8104   1
   0  -8 -13 102.572   8.234   2
  -8   8  13 120.633   9.675   1
   8  -8  13 115.071   9.759   1
   0  -8  13 103.532   9.092   1
   8   0  13 106.569   7.684   1
   0   8 -13 123.324   7.870   1
   0  -8 -13 113.661   9.063   1
   8  -8 -13 112.297   9.064   1
   9  -4  13 6.21489 5.40084   1
  -9   4  13 2.85847 5.99544   1
   9  -5 -13 -3.0292  4.7949   1
  -5   9  13 12.5132  6.0990   1
  -5  -4 -13 8.06692 5.11428   2
  -4  -5  13 2.57268 5.54697   2
   4   5  13 3.05399 3.67101   1
   5  -9  13 -1.5682  6.4405   1
   4  -9 -13 -3.4494  6.2973   1
   4  -9  13 10.2429  6.5179   1
   5  -9 -13 4.50698 6.53279   1
   5   4  13 -2.7720  3.3287   1
  -4  -5 -13 6.96894 5.18885   2
  -9   5  13 3.51578 6.01996   1
  -5  -4  13 15.0324  5.5035   2
  -4   9  13 3.18200 5.72486   1
   9  -5  13 -6.9648  5.6844   1
   3  -9 -13 79.0001  8.4940   1
  -9   3  13 69.1351  7.7358   1
  -3  -6  13 50.8469  6.9342   2
   9  -3  13 56.4252  6.7552   1
   6  -9  13 62.7223  8.3337   1
   3   6  13 71.3848  5.5006   1
  -6   9  13 86.0361  8.2154   1
   9  -6 -13 56.9880  6.8928   1
  -3   9  13 61.3968  7.3225   1
  -3  -6 -13 62.3687  6.6341   2
   3   6 -13 65.7187  4.6794   1
  -6  -3  13 64.6733  6.8203   2
   3  -9  13 72.6506  8.3062   1
   6   3  13 68.6604  5.5014   1
  -9   6  13 70.7569  8.0441   1
   6  -9 -13 67.3100  8.2409   1
   9  -6  13 78.6759  7.8569   1
   2   7  13 2.25087 4.24015   1
   9  -2  13 -0.8941  4.7981   1
  -9   2  13 -3.2569  5.5196   1
   2  -9 -13 -2.0499  6.1749   1
   7  -9  13 -4.8557  6.4014   1
  -7   9  13 8.65826 6.43821   1
  -2   9 -13 4.24763 4.81492   1
   9  -7 -13 -8.2224  5.1749   1
  -7  -2  13 -1.0338  5.3286   2
  -2   9  13 -4.4646  5.5676   1
   7   2  13 0.76861 3.07873   1
  -9   7  13 1.09301 6.28146   1
  -2  -7 -13 5.26548 5.80434   1
   7  -9 -13 -0.9669  6.2575   1
   9  -7  13 7.58888 6.23890   1
   2   7 -13 6.13964 3.24811   1
  -2  -7 -13 -0.8254  5.2584   2
   2  -9  13 15.6245  6.6330   1
   8  -9  13 -2.7462  6.5520   1
   1  -9 -13 -2.3764  6.4091   1
   1  -9 -13 -10.064   5.384   2
   9  -8 -13 -2.6362  5.6381   1
  -8   9  13 5.48316 6.50343   1
   9  -1  13 -8.0553  4.2067   1
   1   8  13 2.47266 4.51641   1
  -9   1  13 1.05323 5.56327   2
  -1   9 -13 1.77673 4.61419   1
  -1  -8 -13 7.01749 5.72346   2
   1   8 -13 -0.8739  3.6661   1
  -9   8  13 -0.4697  6.3886   1
   1  -9  13 0.91993 6.46545   1
   8  -9 -13 0.52085 6.10974   1
  -1   9  13 -5.5970  5.1426   1
   9  -8  13 -7.0879  6.2814   1
  -8  -1  13 -1.0760  5.4234   2
  -9   9  13 30.6982  7.4461   1
   0   9  13 45.6183  5.8573   1
  -9   0  13 37.3523  6.4730   2
   9  -9 -13 38.6457  7.1674   1
   9  -9  13 40.2986  7.7712   1
   0   9 -13 34.6125  4.7978   1
   0  -9 -13 31.7289  6.1463   2
  10  -5 -13 1.72221 4.96468   1
  -5  10  13 -10.780   5.689   1
  -5  -5  13 -10.692   5.297   2
   5 -10  13 0.26443 6.54457   1
   5 -10 -13 10.8367  6.7462   1
  10  -5  13 4.16857 5.82307   1
  -5  -5 -13 -9.6136  5.0211   2
 -10   5  13 -3.6450  6.1445   1
   4 -10 -13 17.0432  7.1006   1
  -6  10  13 13.7438  6.5953   1
 -10   4  13 25.5468  6.5811   1
   6 -10  13 15.3319  7.2151   1
  10  -4  13 12.6391  5.7162   1
  -4  10 -13 18.3671  5.5543   1
  10  -6 -13 16.1293  5.5524   1
  -6  -4 -13 17.4576  5.4792   2
  -4  -6  13 14.4936  5.8349   2
 -10   6  13 14.0583  6.6676   1
  -4  10  13 10.4833  6.1279   1
  -4  -6 -13 21.2313  5.6544   2
  10  -6  13 13.0795  6.3091   1
   4 -10  13 17.0718  7.0641   1
   6 -10 -13 13.1652  6.9225   1
  -6  -4  13 17.0637  5.7427   2
  10  -7 -13 45.1511  6.6469   1
   3 -10 -13 34.6658  7.5830   1
   3   7  13 42.2445  4.0294   1
  -3  10 -13 37.0406  5.9365   1
  -7  10  13 42.7921  7.5669   1
  10  -3  13 42.1603  5.9531   1
   7 -10  13 38.4830  7.8465   1
   3 -10  13 35.1490  7.5662   1
  -7  -3  13 35.9000  6.2456   2
  -3  -7 -13 46.7459  6.2543   2
 -10   7  13 52.6049  7.8948   1
  10  -7  13 37.2853  7.1953   1
  -3  10  13 45.3951  6.8978   1
   7 -10 -13 54.0638  8.0563   1
  -8  10  13 28.2815  7.2092   1
  10  -8 -13 21.8861  6.1915   1
  10  -2  13 30.4893  5.0193   1
   8 -10  13 21.3398  7.4532   1
   2   8  13 20.6156  4.1222   1
  -2  10 -13 16.9777  5.2524   1
   2 -10 -13 15.7636  7.0167   1
 -10   8  13 29.2737  7.3389   1
  10  -8  13 19.2563  6.8884   1
  -2  -8 -13 35.4637  6.3095   2
  -8  -2  13 25.0878  5.9490   2
  -2  10  13 21.2317  6.0465   1
   8 -10 -13 25.8587  7.2051   1
   2 -10  13 16.3933  7.2718   1
  -1  10 -13 3.74326 4.38151   1
  -9  10  13 8.00737 6.91105   1
   1   9  13 -5.9465  4.0153   1
  10  -9 -13 4.40046 6.05501   1
   9 -10  13 7.82775 7.09170   1
 -10   9  13 -2.4502  6.6411   1
  -1  -9 -13 1.09927 5.48957   2
  -1  10  13 -6.0349  5.2302   1
  -9  -1  13 -0.1135  5.5874   2
  10  -9  13 4.18410 6.88566   1
   9 -10 -13 4.90114 6.43872   1
   1   9 -13 -1.0767  2.9056   1
   0  10  13 2.68988 4.72109   1
   0  10 -13 11.0551  3.6631   1
  10 -10 -13 0.99251 6.33028   1
  10 -10  13 -1.6772  7.0256   1
 -10  10  13 1.04454 7.10703   1
  -6  11  13 -0.6468  6.1572   1
  -5  -6  13 9.83073 6.05441   2
   5 -11 -13 4.80951 7.08337   1
  -6  -5 -13 22.4896  5.6299   2
  -5  11 -13 15.8979  5.6015   1
  11  -6 -13 22.2763  5.5525   1
  11  -5  13 2.78470 5.63725   1
   6 -11  13 7.42669 7.37318   1
 -11   6  13 6.24509 6.62989   1
  -6  11 -13 15.1102  5.8011   1
  -5  -6 -13 16.6270  5.7224   2
  -6  -5  13 14.2062  5.8750   2
   5 -11  13 13.5200  7.5155   1
  -5  11  13 5.08110 6.04479   1
   6 -11 -13 16.1794  7.1950   1
  11  -6  13 15.8746  6.2597   1
   7 -11  13 64.6974  8.9473   1
  -7  11  13 54.0090  7.9373   1
  -4  -7  13 55.0855  7.1040   2
  -7  -4 -13 59.7881  6.6768   2
  11  -7 -13 52.6009  6.9327   1
  -4  11 -13 56.6965  6.7314   1
  11  -4  13 59.5776  6.7145   1
   4 -11 -13 58.5252  8.5517   1
  -7  -4  13 62.5505  7.0053   2
  -7  11 -13 65.1510  7.3993   1
  -4  11  13 61.0356  7.6959   1
   7 -11 -13 73.9842  8.7183   1
  -4  -7 -13 55.2391  6.7712   2
 -11   7  13 76.4381  8.5123   1
   4 -11  13 66.9000  8.8715   1
  11  -7  13 84.4767  8.2434   1
  11  -3  13 -5.1790  4.4470   1
  -3  11 -13 -3.9281  4.9228   1
  -8  11  13 3.14905 6.50800   1
  11  -8 -13 4.57934 5.64503   1
   3 -11 -13 4.39772 6.94669   1
   8 -11  13 13.1556  7.5337   1
   3 -11  13 2.50657 6.86578   1
   8 -11 -13 2.37492 6.89991   1
  11  -8  13 5.41530 6.80933   1
  -3  -8 -13 2.24832 5.59885   2
  -8  -3  13 5.22518 5.56740   2
 -11   8  13 -13.532   6.333   1
  -3  11  13 -8.6995  5.3647   1
  11  -9 -13 6.16365 6.01392   1
  -2  11 -13 10.2565  4.8850   1
  -9  11  13 7.69695 7.01155   1
   9 -11  13 6.27144 7.44644   1
  -2  11  13 5.05512 5.59762   1
  -9  -2  13 9.48573 5.92972   2
   9 -11 -13 -1.2419  6.6627   1
  11  -9  13 19.9301  7.1846   1
 -11   9  13 8.25728 7.06042   1
  -2  -9 -13 10.5475  6.1833   2
  10 -11  13 6.71603 7.57752   1
  11 -10 -13 2.08582 6.23814   1
 -10  11  13 -1.5251  7.0302   1
  -1  11 -13 6.52937 4.11755   1
 -11  10  13 0.81668 7.08509   1
  10 -11 -13 11.7124  6.9995   1
  -1 -10 -13 8.31248 5.96422   2
  -1  11  13 6.81880 5.24530   1
  11 -10  13 -4.1938  7.0483   1
 -10  -1  13 -0.7252  5.8560   2
  11 -11 -13 80.2997  8.9500   1
   0  11  13 61.3440  5.6190   1
  11 -11  13 93.0016 10.0015   1
 -11  11  13 80.7554  9.7426   1
  -6  -6  13 -2.7909  5.7944   2
  12  -6  13 -2.7919  5.6069   1
  -6  12  13 -4.2113  6.1590   1
   6 -12  13 4.08528 7.60803   1
  -6  12 -13 5.80042 5.64860   1
  -6  -6 -13 -5.1057  5.3402   2
   6 -12 -13 0.23177 7.11401   1
  -5  -7  13 0.59204 5.79975   2
   7 -12  13 1.22310 7.51166   1
  12  -7 -13 6.33573 5.58485   1
  -7  12  13 16.6032  6.9888   1
  -7  -5 -13 2.85876 5.30351   2
  12  -5  13 2.55642 5.40500   1
   5 -12 -13 -4.6677  7.0579   1
  -5  12 -13 4.05786 5.24073   1
  -5  12  13 -4.3029  5.9503   1
  -5  -7 -13 0.43837 5.43642   2
   7 -12 -13 6.85610 7.27756   1
  -7  -5  13 0.30465 5.65097   2
  12  -7  13 -6.4207  5.9769   1
  -7  12 -13 2.39540 5.62111   1
   5 -12  13 -2.0758  7.2213   1
 -12   7  13 1.51368 6.74266   1
  -8  12  13 20.3819  7.3971   1
  12  -4  13 31.5750  5.3171   1
  -4  12 -13 24.3846  6.0908   1
  12  -8 -13 14.2236  6.0218   1
   4 -12 -13 32.6825  8.1534   1
   8 -12  13 24.8298  8.2388   1
  12  -8  13 19.0820  6.9531   1
  -8  -4  13 35.7391  6.2858   2
  -4  12  13 19.5936  6.7143   1
  -8  12 -13 27.5023  6.5682   1
   4 -12  13 23.3927  8.1028   1
  -4  -8 -13 25.8290  6.1332   2
   8 -12 -13 27.6343  7.8958   1
 -12   8  13 38.8492  7.8336   1
  -9  12  13 8.88451 7.05941   1
  -3  12 -13 11.4995  5.2752   1
  12  -9 -13 -3.0033  5.7191   1
   9 -12  13 5.27867 7.81576   1
  12  -9  13 -3.8065  6.4916   1
  -3  -9 -13 11.7130  6.0514   2
   9 -12 -13 -3.8855  6.9754   1
  -9  12 -13 -3.5197  5.9582   1
  -3  12  13 1.54920 5.88384   1
 -12   9  13 5.90875 7.13965   1
  -9  -3  13 4.67604 5.81236   2
  -2  12 -13 9.28682 4.71004   1
  10 -12  13 -1.1467  7.7757   1
  12 -10 -13 4.37315 6.41777   1
 -10  12  13 6.92912 7.23027   1
  12 -10  13 5.21386 6.88081   1
 -12  10  13 8.71721 7.45857   1
  -2 -10 -13 14.3207  6.4185   2
 -10  12 -13 6.16144 6.18933   1
  10 -12 -13 8.97089 7.35235   1
  -2  12  13 4.64724 5.58513   1
 -10  -2  13 4.86754 6.04056   2
  12 -11 -13 47.0032  7.9599   1
  11 -12  13 37.0499  8.9470   1
 -11  12  13 26.3381  8.4939   1
  -1  12  13 43.8625  5.6967   1
  12 -11  13 44.8203  8.3297   1
 -12  11  13 43.8742  8.8692   1
  11 -12 -13 27.3578  8.1687   1
 -11  12 -13 39.5800  7.4965   1
  12 -12  13 7.05738 7.87786   1
 -12  12  13 -0.1216  7.7275   1
 -12  12 -13 6.95686 6.83178   1
  12 -12 -13 0.21028 7.10099   1
  13  -7 -13 15.7259  5.6135   1
  -6  -7  13 2.47270 6.16740   2
  -6  13 -13 -10.918   5.519   1
   6 -13 -13 5.71611 7.86551   1
   7 -13  13 0.20772 7.71879   1
  -7  -6 -13 9.27093 5.90899   2
  -7  13  13 4.11003 6.76462   1
  13  -6  13 6.55535 5.69676   1
   7 -13 -13 10.2853  7.6298   1
   6 -13  13 -3.8695  7.6505   1
  -6  13  13 1.62942 6.56769   1
  -7  -6  13 2.14898 5.91925   2
  -6  -7 -13 -1.4446  5.6802   2
  13  -7  13 4.12200 6.22316   1
  -7  13 -13 10.7773  6.0313   1
  -5  13 -13 1.81170 5.67684   1
  -8  -5 -13 2.34691 5.59761   2
  13  -8 -13 14.1149  5.8001   1
   5 -13 -13 8.60577 7.89879   1
   8 -13  13 11.2732  8.0336   1
  -8  13  13 7.14119 7.19361   1
  13  -5  13 -1.1789  5.0507   1
  -8  -5  13 7.70815 5.96541   2
   8 -13 -13 5.08228 7.64873   1
  -5  13  13 9.12537 6.65904   1
  13  -8  13 7.74559 6.46130   1
  -8  13 -13 9.79238 6.20117   1
  -5  -8 -13 8.58945 5.89577   2
  -4  13 -13 3.13495 5.29399   1
  -9  13  13 -3.9542  7.2569   1
  13  -9 -13 -1.3587  5.8972   1
   9 -13  13 -7.6636  7.6520   1
  -4  -9 -13 -9.9969  5.8236   2
  -9  13 -13 -2.3785  6.0593   1
  13  -9  13 0.55253 6.48203   1
  -9  -4  13 -0.8340  5.8414   2
   9 -13 -13 -3.9645  7.4226   1
  -4  13  13 -0.8115  6.1556   1
 -13   9  13 -6.8159  7.2828   1
 -10  13  13 1.54739 7.32482   1
  10 -13  13 5.69312 8.39904   1
  13 -10 -13 6.58420 6.60295   1
  -3  13 -13 14.1473  5.2497   1
  -3  13  13 -4.5726  5.8912   1
 -10  -3  13 15.3445  6.1092   2
  -3 -10 -13 19.2222  6.7171   2
  13 -10  13 4.65215 7.03873   1
  10 -13 -13 13.4567  7.7928   1
 -10  13 -13 13.2015  6.6456   1
 -13  10  13 4.45854 7.89907   1
  11 -13  13 14.0598  8.5211   1
 -11  13  13 18.3409  8.1464   1
 -11  13 -13 14.7819  6.9357   1
 -13  11  13 30.3747  8.6844   1
  -2  13  13 15.3824  5.6704   1
  11 -13 -13 22.9671  8.3652   1
 -12  13  13 1.91846 8.11952   1
 -13  12 -13 -2.6122  6.7045   1
 -12  13 -13 4.55192 6.88531   1
 -13  12  13 5.39832 8.24393   1
  -7  -7 -13 4.92273 6.00751   2
   7 -14 -13 10.9100  8.4412   1
  -7  14 -13 7.50650 6.40383   1
   7 -14  13 -3.7638  8.4130   1
  14  -7  13 -7.0366  5.8293   1
  -6  14 -13 12.4237  6.2261   1
  14  -6  13 14.9524  5.5249   1
   6 -14 -13 14.9071  8.7106   1
  14  -8 -13 18.5924  5.9596   1
   8 -14  13 0.35033 8.50786   1
  -8  -6 -13 4.98727 5.99753   2
  -6  14  13 2.67093 6.91441   1
   8 -14 -13 12.0419  8.4523   1
  14  -8  13 4.87487 6.51143   1
  -6  -8 -13 18.6151  6.3878   2
  14  -9 -13 3.53589 6.14640   1
  -5  14 -13 11.1917  5.9313   1
   9 -14  13 -2.0966  8.4463   1
  -9  -5 -13 -8.7810  5.9047   2
   9 -14 -13 14.7935  8.3852   1
  -9  -5  13 9.87308 6.18547   2
  -5  14  13 -3.4838  6.6657   1
  -5  -9 -13 17.8344  6.4402   2
  14  -9  13 13.9877  7.0582   1
  -4  14 -13 31.3227  5.9935   1
  10 -14  13 40.9394  9.7290   1
  -4 -10 -13 31.2982  7.1445   2
  10 -14 -13 18.7580  8.6721   1
  -4  14  13 25.8543  6.9228   1
   0   0 -14 800.699  31.809   2
   0   0  14 792.577  32.621   1
  -1   0  14 121.235   8.905   1
  -1   0  14 132.455   9.425   2
  -1   0 -14 112.972   8.510   2
   1   0  14 118.189   9.473   1
   1   0 -14 112.538   8.284   2
   0   1 -14 136.511   8.452   2
   1  -1 -14 120.950   8.394   2
   0   1  14 124.632   9.542   1
  -1   1  14 132.808   9.741   1
   0  -1  14 138.212   9.733   1
   0  -1 -14 129.475   8.395   2
  -1   1 -14 127.401   8.697   2
   1  -1  14 120.161   9.422   1
  -1   1  14 126.148   9.511   2
  -1  -1  14 73.8399  6.7112   2
   2  -1  14 63.6660  7.0663   1
   2  -1 -14 79.1489  6.2664   2
  -1   2 -14 85.5857  6.5125   2
   1  -2  14 90.1563  7.5037   1
  -1  -1  14 74.4179  7.4121   1
  -2   1  14 75.4150  6.9536   2
  -2   1  14 59.5471  7.3108   1
  -1   2  14 75.6573  6.7026   2
   1   1  14 78.9364  7.1707   1
  -1  -1 -14 65.4005  6.2761   2
   1  -2 -14 71.2034  6.1986   2
  -2   1 -14 60.2192  6.0138   2
   1   1 -14 75.7548  5.9912   2
  -1   2  14 68.1269  7.2322   1
  -2   0  14 20.6780  6.0131   1
  -2   2  14 19.7112  5.4183   2
   2   0  14 13.7144  5.4535   1
   0  -2 -14 14.1196  4.8249   2
   2  -2 -14 15.4578  4.5888   2
  -2   2 -14 8.37854 4.49033   2
  -2   0 -14 13.6833  4.7882   2
   0   2  14 21.1126  5.6692   1
  -2   2  14 12.2484  5.8250   1
   0  -2  14 23.9453  6.0059   1
   2  -2  14 7.60335 5.58850   1
   0   2 -14 16.1774  4.5795   2
   2   0 -14 12.7024  4.4417   2
  -2   0  14 6.74512 3.91144   2
  -2   3  14 9.83547 5.83654   1
   3  -1  14 12.1055  5.4802   1
  -2  -1 -14 14.7245  4.8763   2
   1  -3 -14 12.2790  4.7485   2
  -1  -2  14 5.80294 5.65199   1
   1  -3 -14 12.4181  5.6326   1
   3  -2 -14 15.7766  4.5856   2
  -3   1  14 3.82299 2.39125   2
  -3   1  14 12.2220  5.8554   1
  -1   3 -14 19.7868  4.8880   2
   2  -3  14 13.7245  5.8410   1
   1   2  14 9.34704 5.44518   1
   2   1 -14 16.5241  4.6343   1
  -2   3  14 8.47417 5.33870   2
  -3   2 -14 21.8333  4.8783   2
  -2  -1  14 15.2947  6.0546   1
  -2  -1  14 12.7228  5.3275   2
  -3   1 -14 5.07078 4.76111   2
   3  -1 -14 17.2280  4.6269   2
   2   1  14 16.4419  5.3609   1
   2  -3 -14 8.65740 5.41573   1
   1   2 -14 17.5217  4.6069   1
  -3   2  14 7.39918 5.88098   1
   2   1  14 14.3720  5.5807   1
  -1   3  14 22.2396  5.8860   1
  -1  -2 -14 13.7749  4.9008   2
  -3   2  14 11.5577  5.3994   2
   1   2 -14 9.56017 4.27375   2
   3  -2  14 17.7561  5.8275   1
   2  -3 -14 6.32210 4.58644   2
  -2   3 -14 17.5761  4.6490   2
   1  -3  14 13.0658  5.9054   1
   3  -3  14 65.8826  7.1138   1
   3   0  14 48.9619  6.4757   1
   0   3 -14 55.3714  5.9778   1
   0   3 -14 50.7732  5.3733   2
   3   0 -14 48.0463  5.7663   1
   0  -3 -14 50.8052  5.9049   2
   3  -3 -14 47.6402  5.6551   2
   3  -3 -14 46.0792  6.4724   1
   3   0  14 52.7515  6.6853   1
  -3   0 -14 55.2132  6.1304   2
   0   3  14 58.3825  6.6998   1
   0  -3  14 68.4158  7.1646   1
  -3   3  14 55.1819  7.0873   1
  -3   0  14 50.7389  6.3670   2
  -3   3 -14 52.3430  5.9022   2
   0  -3 -14 60.9011  6.8275   1
  -3   3  14 55.4610  6.6593   2
  -3   0  14 50.1044  7.0550   1
   2   2 -14 19.7676  4.7171   1
  -2  -2 -14 21.6163  5.2842   2
   2   2  14 22.5612  5.5552   1
   2  -4  14 20.9003  6.1680   1
  -2  -2  14 26.2386  6.3029   1
  -2  -2  14 27.3852  5.8895   2
   2   2  14 17.8414  5.7911   1
   2  -4 -14 27.8308  6.1166   1
   4  -2 -14 24.0831  4.7354   2
  -2   4  14 22.8386  6.1838   1
   2  -4 -14 22.2358  4.9251   2
  -4   2 -14 18.0377  5.0253   2
   4  -2  14 26.8223  6.0057   1
  -4   2  14 13.8333  6.1193   1
  -2   4  14 23.6722  5.5764   2
  -2   4 -14 21.5035  4.9166   2
  -1   4 -14 182.622  10.031   2
  -3   4  14 191.408  11.106   2
   1  -4 -14 182.810  11.358   1
   1   3  14 190.360  11.530   1
   4  -3 -14 169.353  10.916   1
   4  -1  14 177.900  10.799   1
  -1  -3  14 199.978  11.611   1
   3   1 -14 176.834  10.462   1
  -3   4  14 164.058  11.244   1
   1  -4 -14 180.589  10.253   2
  -4   1  14 174.513  10.925   2
   4  -1  14 212.009  11.963   1
   3  -4  14 162.733  11.430   1
  -3  -1 -14 174.096  10.453   2
  -4   1  14 159.473  11.223   1
  -4   3 -14 171.580  10.262   2
   4  -3 -14 173.763  10.266   2
   1   3  14 171.770  10.787   1
  -4   3  14 154.574  11.378   1
  -1   4  14 153.272  11.067   1
   3  -4 -14 181.885  11.184   1
  -1  -3 -14 185.298  10.515   2
  -4   3  14 173.229  11.078   2
   1   3 -14 191.836  10.192   1
   3   1  14 167.667  10.743   1
  -3   4 -14 185.887  10.678   2
  -3  -1  14 171.201  10.684   2
   4  -1 -14 193.050  10.806   1
  -1  -3 -14 186.409  11.262   1
  -3   4 -14 192.396  10.669   2
   4  -3  14 188.987  11.208   1
   1  -4  14 163.341  11.424   1
   3   1  14 181.204  11.518   1
  -3  -1  14 158.218  11.371   1
  -4   1 -14 186.798  10.458   2
   3  -4 -14 181.363  10.289   2
  -4   4  14 67.2521  7.0530   2
   4  -4 -14 57.3145  7.0429   1
   0  -4  14 69.7931  7.6263   1
  -4   0 -14 57.1626  6.5249   2
   0  -4 -14 63.7510  6.4939   2
  -4   4  14 56.6982  7.4282   1
   4   0 -14 58.0635  6.0336   1
  -4   4 -14 59.5564  6.4623   2
   4  -4 -14 68.6987  6.1749   2
  -4   0  14 75.7778  7.1638   2
   0   4 -14 66.0602  6.3962   1
   4  -4  14 72.9069  7.5590   1
  -4   0  14 68.5636  7.5906   1
   0   4  14 65.1244  6.9766   1
   0   4  14 75.7613  7.3418   1
  -4   4 -14 61.9731  6.3492   2
   4   0  14 70.5887  6.9455   1
   0  -4 -14 76.8672  7.4630   1
   4   0  14 80.4309  7.1212   1
   3   2 -14 29.1984  5.0074   1
   5  -3 -14 28.2901  4.9693   2
  -2  -3  14 36.5052  6.1296   2
  -3   5  14 23.3424  6.4155   1
  -3   5  14 34.7241  6.1185   2
   2  -5 -14 20.9934  6.2400   1
   2   3  14 30.5717  5.7071   1
   5  -2  14 35.3111  6.1606   1
   2   3  14 19.9970  5.7888   1
  -5   2  14 27.6564  6.4915   1
   3  -5  14 34.7776  6.5814   1
   2  -5 -14 26.7592  5.4758   2
   5  -3 -14 29.4991  5.8669   1
  -5   3 -14 41.0944  5.8112   2
  -5   2  14 28.4981  6.0538   2
  -2   5 -14 25.7673  5.1148   2
  -3  -2 -14 21.1089  5.4392   2
  -2  -3  14 33.8020  6.5106   1
  -2   5  14 20.8001  6.1777   1
   2   3 -14 30.3002  4.8281   1
  -3  -2  14 30.8880  6.5073   1
  -2  -3 -14 28.0105  5.5910   2
  -3  -2  14 29.1758  6.0891   2
   2  -5  14 29.6551  6.7876   1
  -5   3  14 34.5638  6.7162   1
   3  -5 -14 19.3866  5.0729   2
  -2  -3 -14 22.2716  6.1340   1
   3   2  14 23.9297  5.5251   1
   5  -2 -14 30.8544  5.2144   1
   5  -3  14 32.4469  6.3225   1
   3   2  14 35.0271  6.0976   1
  -5   2 -14 25.4913  5.4627   2
  -3   5 -14 22.9827  5.0644   2
   3  -5 -14 27.9083  6.3411   1
  -4  -1 -14 8.20799 5.22754   2
   5  -1  14 8.19323 5.49005   1
  -5   1  14 -2.0216  5.5719   2
   1  -5 -14 7.23749 4.89562   2
   5  -4 -14 -0.8087  5.3682   1
   1  -5 -14 0.14934 5.93258   1
   5  -1  14 -1.2147  5.1937   1
  -1  -4  14 12.6821  6.0716   1
   1   4  14 10.5236  5.5579   1
  -5   4 -14 3.68444 5.05023   2
  -4   5  14 2.94899 5.58926   2
  -1   5 -14 4.57230 5.08326   1
  -5   4 -14 4.20083 4.97119   2
   4   1 -14 5.81376 4.29409   1
  -5   1  14 3.66056 6.00982   1
  -4   5  14 -8.8850  5.7168   1
   4  -5  14 -1.4689  5.8823   1
   1   4  14 -2.9366  5.0519   1
   5  -4 -14 2.53440 4.59446   2
  -1  -4 -14 4.66068 5.70143   1
  -4   5 -14 10.5288  5.2579   2
   4  -5 -14 4.56959 4.75663   2
  -5   1 -14 11.5981  5.2334   2
   5  -4  14 3.97148 5.78715   1
   1  -5  14 12.8695  6.2869   1
  -4  -1  14 3.30713 5.36134   2
  -4   5 -14 8.30470 4.78860   2
   1   4 -14 6.18557 4.36198   1
   4  -5 -14 8.38599 5.79799   1
   4   1  14 7.68389 4.98205   1
   5  -1 -14 3.55257 4.32418   1
  -1   5  14 9.97183 5.68322   1
   4   1  14 4.15616 5.21596   1
  -5   4  14 8.91741 5.53745   2
  -4  -1  14 -0.4463  5.7644   1
  -1  -4 -14 2.51678 4.86414   2
  -5   4  14 11.6672  6.2303   1
   5   0  14 86.1578  7.0676   1
   5  -5  14 59.7713  7.6475   1
  -5   0  14 63.4298  7.1087   2
  -5   5  14 62.2663  7.7733   1
   0  -5 -14 66.9095  7.5026   1
  -5   0  14 76.7215  7.6778   1
   5  -5 -14 55.0016  7.0723   1
  -5   0 -14 66.5819  6.7116   2
   0   5  14 61.1829  7.0151   1
   0  -5  14 65.7069  7.6271   1
   0  -5 -14 76.8925  6.9688   2
   3   3  14 220.602  12.062   1
  -3  -3  14 241.645  12.710   2
  -6   3  14 229.554  12.832   2
  -3  -3  14 241.286  13.150   1
  -3  -3 -14 229.846  12.193   2
  -6   3  14 248.614  13.499   1
   3  -6 -14 219.431  12.167   2
  -3   6  14 219.236  13.036   1
   3  -6 -14 226.334  13.229   1
   6  -3  14 231.648  12.916   1
   3  -6  14 225.212  13.466   1
  -3  -3 -14 235.518  12.931   1
  -4  -2 -14 7.07621 5.32297   2
  -2  -4  14 11.6960  5.8769   1
  -6   2  14 2.69516 6.04857   1
   4  -6  14 6.88968 6.19613   1
   6  -4 -14 6.45924 5.38325   1
   2   4  14 11.9079  5.3625   1
   2  -6 -14 1.53355 6.04973   1
  -6   2  14 0.59647 5.59193   2
  -2  -4  14 7.01205 5.56466   2
   2  -6 -14 7.76624 5.03117   2
   6  -2  14 5.19749 5.59472   1
  -4   6  14 1.00820 5.81849   1
  -2   6  14 3.55377 5.64269   1
   4  -6 -14 3.21873 5.83849   1
  -2  -4 -14 13.7308  5.9912   1
   6  -4  14 1.74644 5.90020   1
  -2  -4 -14 0.35205 4.86057   2
   4   2  14 -0.3042  4.8044   1
  -4  -2  14 4.63519 5.99942   1
  -6   4  14 -5.2549  6.0763   1
  -4  -2  14 5.29900 5.72976   2
   2  -6  14 8.82346 6.43468   1
  -5  -1 -14 -6.9966  5.0660   2
   6  -1  14 -0.2227  5.1805   1
  -6   1  14 2.99140 5.48438   2
  -5   6  14 -0.4982  6.0666   1
  -1  -5  14 -0.3572  5.8011   1
   1  -6 -14 -3.8879  5.0321   2
   5  -6  14 -6.4518  5.9553   1
   1   5  14 -5.5241  5.0986   1
   1  -6 -14 0.78587 5.91294   1
  -6   1  14 -7.8022  5.7821   1
   6  -5 -14 -0.1312  5.3038   1
   5   1  14 -4.8239  4.7032   1
  -6   5  14 -2.3321  6.0520   1
  -1  -5 -14 3.22000 5.23319   2
   1  -6  14 4.53377 6.31070   1
   6  -5  14 -4.7708  5.8417   1
  -5  -1  14 0.41721 5.32235   2
   5  -6 -14 -6.4381  5.5649   1
  -1   6  14 -4.9998  5.3034   1
  -5  -1  14 -3.5957  5.7309   1
  -1  -5 -14 -0.9079  5.8154   1
   6   0  14 23.8403  5.5505   1
   0  -6 -14 22.4446  6.1920   1
   6  -6 -14 12.0823  5.9632   1
   0  -6  14 15.2407  6.3878   1
  -6   0  14 23.3981  6.5085   1
   6  -6  14 23.1315  6.6123   1
   0   6  14 24.5231  5.8726   1
  -6   6  14 32.0442  7.0030   1
   0  -6 -14 23.9665  5.7452   2
  -6   0  14 13.2503  5.7120   2
   7  -3  14 89.0799  7.8894   1
   3  -7 -14 93.5860  8.5976   1
   7  -4 -14 90.4211  7.5934   1
  -4  -3 -14 96.7465  7.6111   2
  -4   7  14 78.5839  8.1995   1
  -7   3  14 87.2677  8.5925   1
   4  -7  14 90.1255  8.7525   1
  -3  -4  14 101.326   7.970   2
   3   4  14 96.0349  7.3157   1
  -3  -4  14 90.3298  8.1907   1
  -4  -3  14 100.605   8.465   1
  -7   4  14 92.8931  8.6172   1
   4  -7 -14 90.1661  8.4851   1
   3  -7  14 102.204   9.003   1
   4   3  14 81.2216  6.9270   1
   7  -4  14 80.5256  8.0144   1
  -3   7  14 90.6951  8.2149   1
  -3  -4 -14 84.1627  8.0068   1
  -4  -3  14 82.6435  7.7910   2
  -3  -4 -14 90.2130  7.3504   2
  -7   2  14 99.6630  8.1859   2
  -5   7  14 103.011   8.729   1
   2  -7 -14 100.563   8.659   1
   5  -7  14 86.3726  8.8384   1
   2   5  14 85.3673  7.2221   1
  -7   2  14 101.489   8.803   1
   7  -2  14 97.5804  7.7316   1
  -5  -2 -14 96.4468  7.5271   2
  -2  -5  14 99.0393  8.4280   1
   7  -5 -14 88.4253  7.8397   1
  -2  -5 -14 98.5150  8.3500   1
  -5  -2  14 99.7006  7.9118   2
   7  -5  14 92.0318  8.3947   1
  -2   7  14 80.8483  7.9548   1
  -7   5  14 107.533   9.065   1
  -5  -2  14 96.9395  8.4270   1
   5  -7 -14 89.4472  8.5679   1
   2  -7  14 108.885   9.011   1
   5   2  14 91.3690  7.1275   1
  -2  -5 -14 73.7617  7.2587   2
  -6   7  14 32.1651  7.0148   1
  -1  -6  14 28.5789  6.5955   1
  -7   1  14 18.4514  5.9976   2
   7  -6 -14 24.5887  6.2397   1
   7  -1  14 18.3319  5.5981   1
   1  -7 -14 28.8373  6.6923   1
  -7   1  14 20.0595  6.4958   1
   1  -7 -14 30.4317  5.6717   2
   6  -7  14 30.2608  6.9903   1
   1   6  14 29.2886  5.6553   1
   7  -6  14 27.5790  6.6584   1
   6   1  14 22.8909  5.4206   1
  -6  -1  14 25.4619  6.0367   2
  -1  -6 -14 23.5995  5.8698   2
  -1  -6 -14 21.5015  6.3142   1
  -6  -1  14 20.0663  6.2518   1
   6  -7 -14 21.7468  6.3454   1
  -1   7  14 16.9487  5.7991   1
   1  -7  14 29.2150  7.0937   1
  -7   6  14 21.5007  7.0123   1
   0  -7  14 153.426  11.499   1
   0   7  14 148.281  10.038   1
   7  -7  14 158.304  11.331   1
  -7   7  14 139.257  11.232   1
  -7   0  14 140.561  10.589   1
   7   0  14 163.937   9.636   1
   0  -7 -14 138.393   9.793   2
   0  -7 -14 147.513  11.090   1
   7  -7 -14 140.548  10.587   1
  -7   0  14 145.149  10.386   2
  -4  -4  14 310.338  15.528   1
  -4  -4 -14 313.758  15.423   1
   4   4  14 300.469  13.952   1
   8  -4  14 323.158  15.438   1
  -4  -4  14 288.032  14.897   2
  -8   4  14 322.054  16.176   1
   4  -8 -14 284.080  15.873   1
  -4  -4 -14 312.627  14.724   2
   4  -8  14 294.911  15.949   1
  -4   8  14 267.382  15.374   1
   8  -3  14 48.7094  6.7360   1
   5  -8  14 62.0236  8.0034   1
  -3  -5  14 44.8178  7.1180   1
  -3  -5  14 44.8391  6.6579   2
   3   5  14 43.6505  5.6044   1
  -8   3  14 60.2175  7.5336   1
  -5   8  14 37.5223  7.1667   1
  -5  -3 -14 39.9707  6.1434   2
   8  -5 -14 49.4500  6.5909   1
   3  -8 -14 58.2003  7.6843   1
  -5  -3  14 56.4893  6.8252   2
  -5  -3  14 50.0813  7.1945   1
   5   3  14 41.8215  5.4820   1
   8  -5  14 42.4913  6.9775   1
   3  -8  14 54.1216  7.8856   1
  -8   5  14 49.6897  7.7259   1
  -3  -5 -14 40.2208  6.1389   2
  -3  -5 -14 41.5411  6.8691   1
  -3   8  14 49.5021  6.9196   1
   5  -8 -14 41.5011  7.5182   1
  -6  -2 -14 5.55634 5.22408   2
   8  -6 -14 -4.5825  5.1989   1
   6  -8  14 5.60750 6.56117   1
  -6   8  14 -2.5647  6.1176   1
   2   6  14 3.15185 4.80126   1
   2  -8 -14 10.3755  6.3303   1
   8  -2  14 -3.9717  5.1135   1
  -2  -6  14 0.64438 6.15393   1
  -8   2  14 12.6389  6.3480   1
  -2  -6 -14 4.93515 5.86937   1
   2  -8  14 6.16202 6.48944   1
  -2   8  14 -2.5821  5.7526   1
  -6  -2  14 6.04231 5.70241   2
  -8   6  14 9.65408 6.67572   1
   8  -6  14 6.55251 6.11834   1
  -2  -6 -14 4.89669 5.35627   2
   6  -8 -14 -2.5524  6.0418   1
   6   2  14 -3.1873  4.3148   1
  -8   1  14 24.6156  6.6340   1
   1  -8 -14 20.2798  6.6499   1
  -7   8  14 23.0606  7.1079   1
   8  -1  14 23.3185  5.4667   1
   7  -8  14 18.5304  7.1008   1
  -1  -7  14 21.9814  6.8705   1
   1   7  14 13.7088  5.1985   1
   8  -7 -14 16.5766  6.0684   1
  -1  -7 -14 28.7954  6.6219   1
  -1  -7 -14 19.5371  5.9686   2
  -8   7  14 14.3434  6.9213   1
  -7  -1  14 23.5296  6.2501   2
   7   1  14 18.4572  4.7617   1
  -1   8  14 16.7450  5.8347   1
   7  -8 -14 24.6962  6.7815   1
   8  -7  14 12.0335  6.5936   1
   1  -8  14 27.8319  7.1830   1
   0  -8  14 24.7423  7.0952   1
  -8   0  14 41.2969  6.4656   2
  -8   8  14 30.9284  7.5182   1
   0   8 -14 31.0505  5.2085   1
   0  -8 -14 20.4913  6.0391   2
   8  -8  14 30.4175  7.4057   1
   0  -8 -14 29.3867  7.2002   1
   8   0  14 31.6563  5.1017   1
   0   8  14 32.0735  5.9484   1
   8  -8 -14 27.2204  6.8832   1
   4  -9 -14 32.8975  7.2589   1
  -4  -5  14 16.2561  6.2003   2
   9  -5 -14 21.0164  5.7122   1
   5  -9  14 33.8681  7.4315   1
  -5  -4 -14 15.9767  5.6914   2
  -5   9  14 11.1032  6.2830   1
   4   5  14 17.3322  4.4103   1
  -9   4  14 20.9838  6.7883   1
   9  -4  14 20.1860  6.2658   1
  -9   5  14 14.1025  6.6952   1
   4  -9  14 16.0186  7.1341   1
   5   4  14 21.2485  4.2702   1
   5  -9 -14 20.4804  7.0470   1
  -5  -4  14 22.5805  6.1730   2
  -4  -5 -14 21.4270  5.8724   2
  -4   9  14 20.5426  6.5445   1
   9  -5  14 10.5151  6.2189   1
   3  -9 -14 8.26468 6.72789   1
  -6  -3 -14 3.86364 5.34098   2
   9  -6 -14 -1.7334  5.3622   1
  -9   3  14 0.70673 6.28791   1
   3   6  14 11.4620  4.3639   1
   6  -9  14 6.77396 6.81259   1
   9  -3  14 -1.2289  5.4940   1
  -6   9  14 4.63148 6.31368   1
  -3   9  14 4.00955 5.94242   1
   6   3  14 12.7300  3.9040   1
  -9   6  14 4.32846 6.65928   1
   9  -6  14 -4.5660  5.9755   1
   3   6 -14 3.45858 3.29306   1
   6  -9 -14 -0.1102  6.5409   1
  -6  -3  14 2.78949 5.56715   2
  -3  -6 -14 3.08640 5.47896   2
   3  -9  14 7.01854 6.73487   1
   7  -9  14 -1.2671  6.5064   1
   9  -2  14 -4.6390  5.1067   1
  -7   9  14 -3.1635  6.4116   1
   9  -7 -14 6.30556 5.82386   1
   2   7  14 0.33753 4.49091   1
   2  -9 -14 4.82071 6.71308   1
  -9   7  14 -1.8505  6.5266   1
   2   7 -14 1.26149 3.57420   1
  -7  -2  14 -2.1493  5.4872   2
   9  -7  14 3.51700 6.46922   1
   7   2  14 -6.4642  3.4485   1
   7  -9 -14 -4.9930  6.2590   1
   2  -9  14 -5.8037  6.5501   1
  -2   9  14 -18.501   5.536   1
  -2  -7 -14 6.73018 5.57437   2
   1   8  14 21.1911  5.1888   1
   9  -1  14 15.7535  4.9543   1
   8  -9  14 17.2073  7.3961   1
   9  -8 -14 24.5584  6.4674   1
   1  -9 -14 8.80887 6.85263   1
  -8   9  14 17.2908  7.3024   1
  -1   9 -14 15.0644  5.1284   1
   8  -9 -14 4.66858 6.52904   1
  -1  -8 -14 14.5405  5.9889   2
   1  -9  14 10.0811  7.0634   1
  -1   9  14 17.3061  5.9844   1
   8   1  14 22.6760  4.1081   1
  -8  -1  14 30.5822  6.4170   2
  -9   8  14 21.8969  7.2736   1
   9  -8  14 23.2489  7.2437   1
   1   8 -14 23.5605  4.4218   1
   0   9  14 2.05575 5.19592   1
   0   9 -14 7.60881 4.30448   1
   9  -9 -14 1.35718 6.45659   1
  -9   9  14 14.1454  7.2831   1
   9   0  14 6.07007 3.75485   1
   9  -9  14 -1.4573  6.9880   1
  -5  -5  14 -3.3667  5.8894   2
   5 -10  14 -11.946   6.646   1
 -10   5  14 3.23950 6.47648   1
  10  -5  14 1.00254 5.81347   1
  -5  -5 -14 -0.1020  5.3814   2
   5 -10 -14 -11.642   6.626   1
  -5  10  14 4.01468 6.18470   1
   4 -10 -14 19.2666  7.3421   1
  -4  -6  14 25.5173  6.5098   2
   4   6  14 17.6122  3.5920   1
  -4  10 -14 16.2450  5.6245   1
  -6  -4 -14 21.1904  5.8082   2
   6 -10  14 14.1666  7.4850   1
  10  -4  14 21.3678  6.2642   1
 -10   4  14 18.7099  6.9920   1
  10  -6 -14 21.3349  5.9443   1
  -6  10  14 19.9020  6.8903   1
  -6  -4  14 27.4925  6.3197   2
 -10   6  14 26.6534  7.2131   1
   4 -10  14 32.9764  7.9266   1
   6 -10 -14 32.0159  7.7425   1
  -4  10  14 11.6868  6.4683   1
  -4  -6 -14 17.5476  5.8594   2
  10  -6  14 32.6950  7.0651   1
  -7  10  14 21.6608  7.0148   1
  -3  10 -14 -1.2201  5.1579   1
   7 -10  14 16.1415  7.4052   1
  10  -7 -14 4.44657 5.68290   1
  10  -3  14 8.40062 5.63640   1
   3   7  14 13.1892  3.8399   1
   3 -10 -14 13.3555  7.2247   1
  -7  -3 -14 11.7868  5.5713   2
  -3  -7 -14 12.3546  5.6665   2
  -7  -3  14 8.85695 5.92394   2
   3 -10  14 -9.5966  6.7361   1
   7 -10 -14 9.44284 6.95504   1
  10  -7  14 1.35421 6.57065   1
  -3  10  14 10.8973  6.0555   1
 -10   7  14 2.59943 6.89289   1
  10  -2  14 8.09877 4.87427   1
  -2  10 -14 1.16323 5.04506   1
   2   8  14 1.65621 4.10694   1
  -8  10  14 -2.7421  6.7615   1
   2 -10 -14 -1.4699  6.8843   1
  10  -8 -14 6.13946 5.98695   1
   8 -10  14 -6.1240  6.9551   1
 -10   8  14 -4.9657  6.5783   1
   2 -10  14 -8.4601  6.6565   1
  -2  -8 -14 1.80799 5.74827   2
  -2  10  14 -2.2037  5.6819   1
   8 -10 -14 6.37208 6.95826   1
  10  -8  14 13.0906  6.8946   1
  -8  -2  14 -5.0271  5.8111   2
  -1  10 -14 4.78322 4.76751   1
  10  -1  14 3.12787 3.76037   1
  -9  10  14 9.37419 7.15339   1
  10  -9 -14 3.30072 6.32208   1
   9 -10  14 16.1872  7.6054   1
   1   9  14 2.38379 4.57902   1
  10  -9  14 4.38573 6.96247   1
   1   9 -14 0.24925 3.15582   1
   9 -10 -14 -9.7493  6.2594   1
  -1  10  14 9.92624 5.78462   1
 -10   9  14 -6.7577  6.7856   1
   0  10  14 22.0897  5.2576   1
  10 -10 -14 10.6689  6.8313   1
  10 -10  14 36.2229  8.0089   1
   0  10 -14 24.7744  4.1475   1
 -10  10  14 6.00840 7.40660   1
   6 -11  14 -2.0261  7.1945   1
  -6  -5 -14 6.40159 5.68004   2
  11  -6 -14 1.76032 5.30090   1
  -5  11 -14 -2.4789  5.3606   1
   5 -11 -14 2.59135 7.26775   1
  11  -5  14 -9.7239  5.6076   1
  -6  11  14 13.8951  6.6645   1
   5 -11  14 -6.4547  6.9781   1
  -5  -6 -14 0.26299 5.73308   2
   6 -11 -14 2.02918 7.25213   1
  -5  11  14 6.49866 6.22852   1
  -6  11 -14 -4.8171  5.2797   1
  11  -6  14 0.50464 6.21136   1
  -6  -5  14 3.44331 6.05603   2
 -11   6  14 2.68353 6.68094   1
  -7  11  14 27.6315  7.4275   1
  11  -7 -14 21.2782  6.2840   1
  -7  -4 -14 14.8491  5.8423   2
   4 -11 -14 22.0078  7.6739   1
  -4  11 -14 15.3667  5.7349   1
  11  -4  14 24.6965  5.9496   1
   7 -11  14 20.1640  8.0157   1
 -11   7  14 17.3608  7.2303   1
  -4  -7 -14 22.6713  6.0870   2
  -4  11  14 5.34154 6.47416   1
  -7  -4  14 13.4171  6.1976   2
   7 -11 -14 9.70458 7.51272   1
   4 -11  14 16.0048  7.6946   1
  11  -7  14 10.8211  6.9097   1
   8 -11  14 47.4978  8.9151   1
  11  -8 -14 50.9890  7.2403   1
  -8  11  14 73.1067  8.6986   1
  -3  11 -14 52.1367  6.5563   1
   3 -11 -14 61.6761  8.8962   1
  11  -3  14 55.2126  6.1022   1
  11  -8  14 55.7397  8.2416   1
 -11   8  14 54.6502  8.4675   1
  -3  11  14 56.1589  7.5396   1
  -3  -8 -14 58.2482  7.1982   2
  -8  -3  14 51.5190  7.1283   2
   8 -11 -14 48.1477  8.4494   1
  -9  11  14 21.6479  7.6836   1
  -2  11 -14 18.6636  5.3259   1
   9 -11  14 34.5403  8.2670   1
  11  -9 -14 17.2827  6.5674   1
  11  -2  14 17.6233  4.1282   1
  -2  11  14 15.5984  6.1611   1
   9 -11 -14 13.7590  7.4029   1
 -11   9  14 16.8188  7.6976   1
  -2  -9 -14 17.4470  6.4132   2
  11  -9  14 18.1279  7.3265   1
   1  10  14 70.7891  5.5668   1
  -1  11 -14 77.4209  6.1427   1
  11 -10 -14 82.9942  8.9535   1
  10 -11  14 72.8880  9.7389   1
 -10  11  14 81.6058  9.7017   1
  10 -11 -14 69.8883  9.0384   1
  11 -10  14 77.4360  9.5353   1
  -1  11  14 87.6420  7.3226   1
 -11  10  14 75.7427  9.6313   1
   0  11  14 29.0183  5.0988   1
 -11  11  14 46.3454  8.7050   1
  11 -11 -14 26.6908  7.7049   1
  11 -11  14 11.8342  8.0603   1
  -6  -6 -14 2.18872 5.79818   2
  -6  12  14 -0.1293  6.4000   1
   6 -12 -14 -7.0107  7.3567   1
  -6  12 -14 3.95023 5.75747   1
  12  -6  14 -4.7255  6.0068   1
   6 -12  14 -2.1465  7.4720   1
   5 -12 -14 26.0936  8.1387   1
  -7  12  14 22.5606  7.4177   1
  -5  12 -14 17.7170  6.2676   1
  -7  -5 -14 12.6207  5.9662   2
   7 -12  14 23.2070  8.4303   1
  12  -5  14 17.9938  6.0537   1
  12  -7 -14 16.0136  5.9547   1
   5 -12  14 14.9327  8.1821   1
   7 -12 -14 23.2564  7.9552   1
  -7  12 -14 9.59798 6.13060   1
  -5  12  14 11.6925  6.7980   1
  -5  -7 -14 18.9393  6.2307   2
  12  -7  14 18.0288  6.9552   1
   8 -12  14 6.65788 8.09047   1
  -8  12  14 7.42975 7.20793   1
  -8  -4 -14 19.6123  6.1512   2
  12  -8 -14 17.3264  6.2422   1
  -4  12 -14 9.57807 5.85677   1
  12  -4  14 19.5583  5.4026   1
   4 -12 -14 13.2930  7.7798   1
   8 -12 -14 7.17806 7.66916   1
  -4  -8 -14 9.81443 5.99410   2
  -4  12  14 11.2852  6.5779   1
 -12   8  14 4.02186 7.30391   1
  -8  12 -14 3.90980 6.10597   1
  12  -8  14 10.2988  6.8206   1
   9 -12  14 -10.081   7.724   1
  -9  12  14 -4.1204  7.1289   1
  12  -9 -14 -12.885   5.993   1
  -3  12 -14 -0.1854  5.2604   1
   9 -12 -14 1.87381 7.56734   1
  -3  -9 -14 -8.7775  5.9196   2
 -12   9  14 2.89717 7.34915   1
  12  -9  14 7.27927 7.01911   1
  -9  12 -14 5.90434 6.22517   1
  -3  12  14 8.40807 6.33495   1
  10 -12  14 11.5895  8.2242   1
 -10  12  14 9.45397 7.57926   1
  -2  12 -14 -8.2307  4.5187   1
  12 -10 -14 9.53229 6.78676   1
 -10  12 -14 -7.1478  6.0830   1
  -2  12  14 -4.8572  5.7729   1
  10 -12 -14 -7.1119  7.3992   1
 -12  10  14 -1.4778  7.6533   1
  12 -10  14 3.82879 7.34188   1
  12 -11 -14 9.02204 7.09647   1
  11 -12  14 5.03938 8.49969   1
 -11  12  14 25.2919  8.3525   1
  -1  12  14 5.66627 5.09595   1
 -12  11  14 5.06430 8.13156   1
  11 -12 -14 17.2691  7.8697   1
  12 -11  14 5.59030 7.63281   1
 -11  12 -14 7.86983 6.76941   1
 -12  12 -14 21.0831  7.5348   1
 -12  12  14 35.6215  8.9989   1
  -6  13 -14 14.9546  6.3107   1
   6 -13 -14 13.3416  8.2690   1
   7 -13  14 2.56173 8.46090   1
  -7  13  14 1.27692 7.08172   1
  13  -6  14 6.59075 6.03344   1
  -7  -6 -14 14.4752  6.2579   2
  -7  13 -14 -2.7105  5.9142   1
   7 -13 -14 11.4105  8.0938   1
  -6  -7 -14 10.7153  6.3008   2
  13  -7  14 10.9085  6.5909   1
   6 -13  14 7.70682 8.16790   1
  -6  13  14 7.96835 7.03656   1
   8 -13  14 -7.6929  8.0049   1
  -8  -5 -14 10.6573  6.0550   2
  13  -8 -14 -7.5004  5.7165   1
  13  -5  14 2.13023 5.20147   1
  -5  13 -14 -3.4794  5.8356   1
  -8  13  14 12.1679  7.6748   1
   5 -13 -14 -0.6862  7.8062   1
  13  -8  14 2.76532 6.94900   1
   8 -13 -14 10.7353  8.1710   1
  -5  -8 -14 -3.3361  5.9619   2
  -5  13  14 -2.5861  6.5327   1
  -8  13 -14 -3.3654  6.0451   1
  -9  13  14 4.84714 7.61403   1
  13  -9 -14 3.60849 6.31886   1
   9 -13  14 -3.7048  8.2405   1
  -4  13 -14 1.71925 5.48524   1
 -13   9  14 -6.9718  7.5916   1
  -4  -9 -14 2.40494 6.25957   2
  -9  13 -14 0.75118 6.55037   1
   9 -13 -14 -7.9231  7.8896   1
  -4  13  14 -2.9867  6.4176   1
  13  -9  14 8.45835 7.08268   1
 -10  13  14 -5.7025  7.8441   1
  -3  13 -14 -0.9214  5.0322   1
  10 -13  14 -5.0070  8.4956   1
  -3  13  14 6.85916 6.19321   1
  10 -13 -14 12.7304  8.2632   1
 -13  10  14 -3.3463  7.6904   1
 -13  11  14 18.3658  8.4935   1
  -2  13  14 8.30270 5.65730   1
   7 -14  14 70.9755 10.8262   1
   7 -14 -14 72.0505 10.2887   1
  -7  -7 -14 52.0507  7.6913   2
  14  -7  14 65.7588  7.7720   1
  -8  -6 -14 19.0492  6.6168   2
  14  -8 -14 0.79031 5.88245   1
   8 -14  14 4.65738 8.86070   1
  14  -6  14 12.3490  5.8275   1
   8 -14 -14 2.79423 8.20155   1
  -6  -8 -14 18.0601  6.7139   2
  14  -8  14 16.1403  7.0548   1
   9 -14  14 -10.242   8.595   1
  -5  14 -14 -1.3914  5.7475   1
   0   0 -15 1.18503 4.53902   2
   0   0  15 8.62746 5.81610   1
  -1   0  15 45.1574  6.9042   1
   0  -1  15 55.7735  7.0882   1
   0   1 -15 42.7699  5.5254   2
   1   0 -15 43.1476  5.4990   2
   1  -1  15 39.1357  6.6241   1
  -1   1  15 60.6742  7.1559   1
   1   0  15 46.0881  6.7862   1
   0  -1 -15 46.4125  5.6646   2
   0   1  15 65.2943  7.0130   1
  -1   1 -15 38.2726  5.5871   2
   1  -1 -15 46.4283  5.6216   2
  -1   0 -15 44.7546  5.6728   2
   1  -2  15 -4.0055  5.7809   1
  -2   1  15 5.03992 6.04172   1
  -1   2 -15 -2.4854  4.6871   2
   1   1  15 2.00751 5.52984   1
   1  -2 -15 2.84566 4.58691   2
  -2   1  15 9.06826 5.39751   2
   2  -1 -15 -1.2870  4.6339   2
  -1   2  15 -1.3848  5.7606   1
   2  -1  15 1.34020 5.58746   1
  -2   1 -15 -12.576   4.220   2
  -1  -1 -15 0.31564 4.66314   2
   1   1 -15 -7.6164  4.2224   2
  -1  -1  15 0.79208 5.75830   1
  -2   0  15 12.6788  6.2849   1
   0  -2 -15 13.9117  4.9169   2
  -2   2 -15 15.2931  5.0051   2
   2   0 -15 11.8173  4.7636   2
  -2   0  15 17.9492  5.6221   2
   2  -2  15 12.3882  5.9778   1
   2   0  15 13.5531  5.6986   1
   0   2 -15 17.1960  4.7141   2
  -2   2  15 12.8016  6.2915   1
  -2   0 -15 16.8871  4.9232   2
   0  -2  15 25.7292  6.4135   1
   0   2  15 16.9701  5.9247   1
  -2   2  15 1.75463 5.54381   2
   2  -2 -15 19.1745  4.9511   2
   1  -3 -15 45.5695  6.8383   1
  -3   1  15 31.0296  6.9509   1
   3  -2 -15 50.9307  5.6117   2
   2  -3  15 39.1273  6.8901   1
   1   2  15 45.1049  6.6887   1
   3  -1  15 40.4188  6.6263   1
  -3   2 -15 39.6078  5.7772   2
   1  -3 -15 35.4512  5.6117   2
  -2  -1 -15 43.4780  5.9480   2
  -3   1  15 39.8017  6.4016   2
  -2   3  15 44.7976  7.1383   1
  -1   3 -15 34.3431  5.5074   2
  -2   3  15 40.7966  6.4891   2
   2   1 -15 41.4618  5.6012   1
  -1  -2  15 47.0208  6.9233   1
  -1   3  15 37.3926  6.7604   1
  -2  -1  15 42.2498  6.3316   2
  -2   3 -15 38.2045  5.7148   2
   3  -1 -15 39.9466  5.4157   2
   1  -3  15 30.3393  6.9060   1
   2  -3 -15 45.1579  6.7001   1
  -1  -2 -15 38.7111  5.8733   2
   2  -3 -15 41.8600  5.6731   2
   3  -2  15 45.2463  7.0009   1
  -3   2  15 39.9771  6.4962   2
  -3   2  15 52.6628  7.2942   1
   2   1  15 47.6110  6.5713   1
   1   2 -15 43.6805  5.5747   1
  -2  -1  15 51.9116  7.1880   1
  -3   1 -15 42.7785  5.9358   2
  -3   0  15 219.334  12.931   1
  -3   0  15 206.657  12.022   2
   0  -3  15 221.666  12.756   1
   3  -3 -15 204.256  12.313   1
   3  -3 -15 209.575  11.548   2
   3   0  15 191.449  12.071   1
   0  -3 -15 231.227  12.634   1
  -3   3  15 191.497  12.426   1
   3   0 -15 213.873  12.011   1
  -3   3 -15 200.688  11.755   2
   3  -3  15 209.569  12.444   1
  -3   3  15 230.928  12.358   2
   0   3  15 218.172  12.377   1
  -3   0 -15 218.346  11.754   2
   0  -3 -15 213.318  11.621   2
  -2  -2  15 -0.3454  5.8409   1
   4  -2 -15 -5.1485  4.3062   2
  -2   4 -15 -0.0397  4.6969   2
  -2  -2 -15 0.18732 4.94432   2
   2  -4 -15 1.99970 4.69144   2
   2   2 -15 -4.9127  4.1924   1
  -4   2  15 -13.075   5.866   1
  -4   2  15 1.33040 5.36830   2
   2  -4  15 0.78305 6.14294   1
  -2   4  15 -10.959   5.653   1
   4  -2  15 -1.0202  5.5137   1
   2  -4 -15 3.23725 5.78014   1
  -4   2 -15 3.76834 5.03715   2
   2   2  15 2.80523 5.42564   1
   2   2  15 -3.7736  5.7287   1
  -2  -2  15 -3.8933  5.3299   2
  -4   3 -15 0.06903 4.90590   2
   1   3  15 0.71083 5.51543   1
   1  -4 -15 3.36473 5.93080   1
   4  -1  15 -1.5409  5.4950   1
  -3   4  15 -3.5321  5.4491   2
  -3   4  15 4.93203 6.19192   1
   1  -4 -15 4.31581 4.93577   2
  -4   1  15 -1.7481  6.2622   1
   4  -3 -15 11.9283  5.7131   1
  -1  -3  15 -1.2715  6.0492   1
   3  -4  15 -0.1052  6.0714   1
   4  -3 -15 -2.5854  4.6128   2
   3   1 -15 -1.8657  4.5839   1
  -4   1  15 0.15259 5.56460   2
  -3  -1 -15 2.00340 5.06038   2
  -1   4  15 -4.8172  5.6882   1
  -3  -1  15 -10.438   5.990   1
   4  -1 -15 -7.5706  4.4689   1
   3  -4 -15 -1.1875  5.7047   1
  -4   3  15 -4.7735  5.8707   1
   1   3 -15 2.13282 4.42391   1
  -1  -3 -15 -5.5360  4.9135   2
   4  -3  15 -5.5556  5.5956   1
  -3   4 -15 15.4083  5.1725   2
  -3  -1  15 -4.8663  5.5996   2
   3   1  15 1.14416 5.36369   1
   1  -4  15 -5.9252  5.8743   1
   3   1  15 -0.5352  5.6726   1
  -4   1 -15 0.51890 5.24465   2
  -1  -3 -15 -8.3264  5.7763   1
   0  -4 -15 255.077  12.899   2
   0  -4 -15 254.362  13.759   1
  -4   0  15 221.870  13.235   2
   4  -4  15 230.176  13.564   1
  -4   0  15 262.259  13.999   1
  -4   4  15 235.390  13.801   1
   0   4 -15 259.416  13.079   1
   4   0  15 221.209  12.918   1
  -4   0 -15 228.680  12.765   2
   0  -4  15 275.723  14.189   1
   0   4  15 257.777  13.289   1
   4  -4 -15 235.124  13.462   1
   2  -5 -15 41.3527  6.8948   1
  -3  -2 -15 44.2085  6.0979   2
  -5   2  15 55.4881  7.6528   1
   5  -2  15 39.1880  6.5952   1
   2   3  15 49.9253  6.5994   1
  -2  -3  15 50.2194  6.8749   2
  -2  -3  15 47.0991  7.2042   1
   3  -5  15 48.0057  7.4346   1
  -3   5  15 48.2071  7.2995   1
   2  -5  15 50.5423  7.5699   1
  -2  -3 -15 40.5891  6.0586   2
   3  -5 -15 53.2574  7.1936   1
  -3  -2  15 57.5742  7.1643   2
  -2  -3 -15 54.1346  7.1754   1
   5  -3  15 47.0963  6.9471   1
  -3  -2  15 62.9014  7.6017   1
  -5   2 -15 36.4935  6.1726   2
   3   2  15 42.0476  6.4208   1
  -2   5  15 52.7535  7.1112   1
  -5   3  15 46.9164  7.3995   1
   4  -5  15 92.4593  8.8739   1
   1  -5 -15 104.704   8.817   1
  -4   5  15 92.7466  8.8895   1
   5  -1  15 115.701   9.196   1
  -4  -1 -15 96.7645  7.9522   2
   5  -4 -15 113.831   8.651   1
   1   4  15 93.0794  8.1598   1
   1  -5 -15 113.496   8.550   2
  -1  -4  15 128.650   9.189   1
  -5   1  15 108.367   9.178   1
  -5   1 -15 103.105   8.100   2
  -5   4  15 104.271   9.074   1
  -1   5  15 108.936   8.711   1
  -4  -1  15 104.667   8.475   2
  -4  -1  15 112.622   9.147   1
  -1  -4 -15 119.968   8.718   2
   1  -5  15 123.901   9.452   1
   4  -5 -15 110.383   8.700   1
  -1  -4 -15 105.010   8.891   1
   4   1  15 112.041   8.904   1
   5  -4  15 122.880   9.147   1
   0  -5 -15 -5.7932  5.6570   1
  -5   0  15 -7.3141  6.0435   1
  -5   5  15 7.99220 6.39417   1
   0  -5 -15 0.88548 5.22922   2
   0   5  15 0.96247 5.63388   1
   0  -5  15 0.40493 6.24451   1
   5  -5 -15 1.18495 5.78755   1
  -5   0  15 -10.453   5.396   2
   5   0  15 4.70467 5.33195   1
   5  -5  15 1.84096 6.09461   1
  -5   0 -15 2.93648 5.30795   2
  -3  -3 -15 4.72932 5.19033   2
  -3  -3  15 -10.798   5.579   2
   3  -6  15 4.54515 6.38582   1
   6  -3  15 5.10374 5.82440   1
   3   3  15 5.76601 5.35535   1
  -3  -3  15 4.86068 6.00130   1
  -6   3  15 -1.2653  6.1646   1
   3  -6 -15 6.00481 6.20519   1
  -3   6  15 4.18205 5.96440   1
  -2  -4  15 -2.0824  5.9084   1
  -4   6  15 14.8093  6.4182   1
  -6   2  15 16.2228  6.6310   1
   2   4  15 4.12692 5.39448   1
   6  -4 -15 2.15546 5.38519   1
  -4  -2 -15 -1.3579  5.3979   2
   4  -6  15 7.58042 6.37395   1
   6  -2  15 12.5278  5.8910   1
  -2  -4  15 11.4889  5.6739   2
   2  -6 -15 10.5347  6.2604   1
  -4  -2  15 8.67694 6.04126   2
   6  -4  15 4.68985 6.13564   1
   2  -6  15 13.0128  6.7159   1
  -2  -4 -15 -6.2475  5.0194   2
  -2   6  15 10.9918  6.0407   1
   4   2  15 5.98846 5.10123   1
  -4  -2  15 0.22944 6.06291   1
   4  -6 -15 8.97740 6.22224   1
  -6   4  15 10.5443  6.5637   1
  -2  -4 -15 14.6816  6.0325   1
  -5  -1 -15 -5.1243  5.1765   2
   6  -1  15 -3.5656  5.4868   1
  -6   1  15 4.63402 6.40148   1
   5  -6  15 -3.8076  6.2908   1
   1  -6 -15 0.70900 5.99622   1
  -1  -5  15 7.27787 6.34123   1
   1   5  15 0.90765 5.51249   1
  -5   6  15 -9.3292  6.0375   1
   6  -5 -15 -3.7945  5.4626   1
   5  -6 -15 -9.1367  5.6084   1
  -6   5  15 -8.8155  6.0261   1
  -1  -5 -15 -5.3924  5.7689   1
   1  -6  15 1.22991 6.33224   1
   6  -5  15 5.04839 6.20148   1
  -5  -1  15 0.29744 5.65993   2
  -1   6  15 -7.6718  5.4341   1
  -1  -5 -15 -0.7371  5.1494   2
   5   1  15 -5.0223  4.9599   1
  -5  -1  15 6.41064 6.19193   1
  -6   0 -15 40.4669  6.4091   2
  -6   0  15 54.9088  7.6173   1
   6  -6 -15 52.2142  7.2407   1
   6   0  15 50.8216  6.5965   1
   0  -6 -15 48.3751  6.6904   2
   0  -6 -15 46.5216  7.2340   1
   0   6  15 56.9186  6.8782   1
  -6   6  15 65.8167  8.0167   1
   6  -6  15 57.3975  7.7346   1
   0  -6  15 50.9348  7.6686   1
   3  -7 -15 108.020   9.307   1
  -4   7  15 111.023   9.182   1
   3   4  15 108.571   8.652   1
  -3  -4  15 113.777   9.071   1
  -7   3  15 98.1521  9.3074   1
   4  -7  15 136.234   9.851   1
  -4  -3 -15 102.233   8.174   2
   7  -3  15 108.279   8.664   1
  -3  -4  15 112.916   8.615   2
  -3  -4 -15 98.0931  8.7376   1
  -3  -4 -15 103.419   8.132   2
   7  -4  15 101.490   8.761   1
  -3   7  15 101.540   8.957   1
   4  -7 -15 98.2243  8.9549   1
   4   3  15 104.062   8.414   1
  -4  -3  15 91.5145  8.3989   2
  -4  -3  15 109.864   9.041   1
   3  -7  15 102.285   9.349   1
  -7   4  15 120.641   9.636   1
  -5   7  15 26.8612  6.9257   1
  -7   2  15 10.7766  6.4987   1
  -2  -5  15 20.9694  6.6276   1
   5  -7  15 27.5253  7.1472   1
   7  -5 -15 21.9804  6.0714   1
   2   5  15 21.1000  5.6525   1
   2  -7 -15 21.5423  6.8819   1
   7  -2  15 12.9250  6.0009   1
  -5  -2 -15 20.4496  5.7604   2
   2  -7  15 17.0607  7.0750   1
  -2   7  15 21.1460  6.3752   1
  -7   5  15 24.2616  7.1788   1
  -2  -5 -15 24.5714  6.6612   1
   7  -5  15 14.3919  6.4777   1
  -5  -2  15 26.2348  6.4523   2
   5   2  15 23.8099  5.6075   1
  -5  -2  15 18.7126  6.6656   1
  -2  -5 -15 24.4108  5.8881   2
   5  -7 -15 20.1609  6.5577   1
   1   6  15 66.4195  6.9920   1
  -7   1  15 73.6798  8.1684   1
  -1  -6  15 84.1505  8.6141   1
   7  -1  15 74.4981  7.2655   1
   7  -6 -15 59.8417  7.5277   1
   1  -7 -15 70.3819  8.2474   1
  -6  -1 -15 77.1162  7.3920   2
   6  -7  15 67.7791  8.3384   1
  -6   7  15 83.4346  8.6659   1
  -1  -6 -15 70.3658  8.0331   1
   6  -7 -15 73.8367  8.0354   1
   6   1  15 82.5024  7.0421   1
   7  -6  15 70.8741  8.2939   1
  -7   6  15 85.3313  8.9140   1
  -1  -6 -15 68.7474  7.1615   2
  -1   7  15 66.2105  7.5629   1
   1  -7  15 78.2050  8.5623   1
  -6  -1  15 78.6990  8.2314   1
   0  -7 -15 9.09631 6.38451   1
   0   7  15 -4.0219  5.5697   1
  -7   7  15 10.8818  6.8667   1
  -7   0  15 2.94845 6.32962   1
   7  -7  15 1.68855 6.50901   1
   7   0  15 -1.7750  5.1170   1
   0  -7  15 -3.4922  6.6718   1
   7  -7 -15 10.1741  6.0967   1
   4   4  15 -2.0657  4.7075   1
   4  -8 -15 8.06272 6.66222   1
   8  -4  15 -10.392   5.674   1
   4  -8  15 1.70882 6.62064   1
  -4  -4 -15 2.16178 5.30759   2
  -8   4  15 -1.3594  6.6302   1
  -4  -4 -15 -0.2232  5.8447   1
  -4   8  15 -5.9134  6.0891   1
  -5  -3 -15 23.8211  6.1411   2
   3   5  15 25.9088  5.4799   1
   8  -5 -15 39.3579  6.4679   1
   5  -8  15 33.3937  7.6342   1
   3  -8 -15 33.3584  7.4387   1
  -5   8  15 23.6270  7.0330   1
  -3  -5  15 35.6749  7.1356   1
  -8   3  15 25.4772  7.3750   1
   8  -3  15 41.0996  6.9502   1
   5  -8 -15 34.6733  7.4572   1
   3  -8  15 30.8302  7.5409   1
   5   3  15 36.8937  5.4917   1
  -3  -5 -15 24.1004  5.8434   2
  -8   5  15 32.1410  7.5459   1
  -3   8  15 33.3629  6.7713   1
   8  -5  15 49.0275  7.2662   1
  -3  -5 -15 41.1534  6.9964   1
  -6   8  15 -5.4446  6.3834   1
   8  -2  15 3.27096 5.60093   1
   8  -6 -15 -2.7790  5.4648   1
   6  -8  15 -7.8280  6.6207   1
  -8   2  15 9.05139 6.64882   1
   2   6  15 -1.8116  4.9717   1
  -2  -6  15 -3.5259  6.4593   1
   2  -8 -15 10.2558  6.7812   1
  -6  -2 -15 2.37411 5.59248   2
  -2  -6 -15 1.99369 5.53148   2
   6  -8 -15 0.63905 6.34847   1
   2  -8  15 -1.9941  6.7088   1
  -2   8  15 0.28061 6.00013   1
   6   2  15 -1.2530  4.7180   1
   8  -6  15 1.09106 6.32994   1
  -8   6  15 -0.7419  6.7416   1
  -2  -6 -15 -2.9929  6.0748   1
   8  -7 -15 52.5544  7.3341   1
  -1  -7  15 46.5589  7.9294   1
   7  -8  15 52.2967  8.1615   1
   8  -1  15 57.1462  6.5447   1
  -7   8  15 67.8278  8.4938   1
   1   7  15 58.5599  6.5481   1
   1  -8 -15 46.8774  7.7925   1
  -8   7  15 48.9777  8.1807   1
   1  -8  15 46.2696  7.9943   1
   7   1  15 55.2731  5.9484   1
  -1  -7 -15 43.5846  7.4474   1
  -1  -7 -15 39.1524  6.8571   2
   8  -7  15 56.2281  8.0525   1
   7  -8 -15 47.3792  7.5911   1
  -1   8  15 53.8650  7.2396   1
   0  -8 -15 104.971   9.356   1
   0  -8  15 99.8057  9.6757   1
   0   8  15 98.6040  8.1785   1
   8  -8  15 105.957   9.845   1
  -8   8  15 124.005  10.234   1
   8   0  15 102.212   7.421   1
   8  -8 -15 79.5645  8.6524   1
   5  -9  15 -4.5030  6.7849   1
   9  -4  15 -0.4074  5.8971   1
   9  -5 -15 1.02785 5.58716   1
   4  -9 -15 4.18919 6.80907   1
  -5  -4 -15 0.40007 5.67652   2
   4   5  15 -3.8718  4.3392   1
  -5   9  15 8.20788 6.35432   1
  -9   4  15 -4.1933  6.4426   1
  -9   5  15 -6.0066  6.5954   1
   5  -9 -15 5.76587 6.78543   1
   5   4  15 -7.1841  4.2490   1
  -4  -5 -15 -4.1981  5.3237   2
   9  -5  15 -4.1224  6.0570   1
   4  -9  15 -0.3012  6.8342   1
  -4   9  15 4.23002 6.20322   1
   6  -9  15 39.7565  7.9207   1
   9  -6 -15 27.3168  6.3898   1
   3   6  15 41.8547  5.4523   1
   9  -3  15 28.3012  6.3920   1
  -9   3  15 35.5184  7.6105   1
  -6  -3 -15 39.4617  6.3929   2
   3  -9 -15 24.3821  7.5194   1
  -6   9  15 24.0844  7.2514   1
  -9   6  15 41.9821  8.0525   1
   6  -9 -15 34.4443  7.5971   1
  -3   9  15 22.3117  6.6272   1
  -3  -6 -15 34.6040  6.3237   2
   6   3  15 29.7550  4.8009   1
   3  -9  15 35.5690  7.8581   1
   3   6 -15 35.0002  4.3152   1
   9  -6  15 40.6792  7.4442   1
   9  -2  15 -7.4255  5.3055   1
   7  -9  15 -9.8260  6.6706   1
   2   7  15 -5.2749  4.6710   1
   2  -9 -15 3.12727 6.88744   1
  -7   9  15 2.12252 6.97379   1
  -7  -2 -15 0.80537 5.58412   2
   9  -7 -15 -0.1112  5.6952   1
  -2   9  15 -3.7921  5.9809   1
   2  -9  15 7.59208 7.15016   1
  -9   7  15 -4.8047  6.8836   1
   2   7 -15 0.15902 3.88677   1
  -2  -7 -15 2.01543 5.89800   2
   9  -7  15 -2.7545  6.6882   1
   7   2  15 1.57722 4.15671   1
   7  -9 -15 -4.9050  6.5405   1
   9  -1  15 4.19383 5.00723   1
   1  -9 -15 -0.9429  6.7757   1
  -8   9  15 1.72000 6.96238   1
   8  -9  15 1.18736 7.01165   1
   1   8  15 -5.6201  4.9684   1
  -1   9 -15 -1.9688  4.9243   1
   9  -8 -15 3.02630 6.16490   1
   9  -8  15 14.1640  7.0645   1
   1   8 -15 4.22617 4.33623   1
   8   1  15 0.85087 4.07212   1
  -1   9  15 0.47140 5.92523   1
   8  -9 -15 2.87427 6.70748   1
  -9   8  15 8.51976 7.21236   1
   9  -9  15 26.4557  7.8695   1
   0   9 -15 24.2382  5.0961   1
   9  -9 -15 23.9399  7.0999   1
   0   9  15 24.2630  5.9852   1
  -9   9  15 20.8094  7.7659   1
   9   0  15 28.0728  4.6473   1
   5 -10 -15 3.22185 7.07729   1
 -10   5  15 10.1465  7.0918   1
   5   5  15 -7.1126  3.3351   1
  -5  -5 -15 -4.6307  5.5217   2
  -5  10  15 -0.8812  6.5617   1
  10  -5  15 -11.697   6.021   1
   5 -10  15 -1.8228  7.1075   1
   4 -10 -15 4.14551 6.95607   1
   4   6  15 -7.4250  3.6635   1
  -6  10  15 -0.6761  6.3704   1
  10  -6 -15 -1.0210  5.3216   1
  -6  -4 -15 -6.1701  5.6405   2
   6 -10  15 0.35701 7.21419   1
  10  -4  15 -6.7410  5.7389   1
   4 -10  15 -2.9808  7.1308   1
 -10   6  15 4.07574 7.00668   1
   6 -10 -15 -11.204   6.758   1
  -4  10  15 -9.4097  6.1300   1
  10  -6  15 -6.7395  6.3407   1
  -4  -6 -15 0.73951 5.55783   2
   7 -10  15 61.1531  8.8670   1
  -7  -3 -15 43.5393  6.6819   2
   3   7  15 45.4214  5.0034   1
   3 -10 -15 38.4817  8.1010   1
  -7  10  15 38.1013  7.9375   1
  -3  10 -15 45.1577  6.5859   1
  10  -7 -15 45.3900  6.9974   1
  10  -3  15 46.9185  6.6937   1
  10  -7  15 61.7106  8.1393   1
   7 -10 -15 55.6076  8.3749   1
  -3  -7 -15 33.6240  6.6112   2
 -10   7  15 52.4639  8.4503   1
   3 -10  15 55.4044  8.6728   1
  -3  10  15 42.4426  7.3990   1
  -8  10  15 14.7801  7.4981   1
  10  -2  15 15.3832  5.4448   1
   2   8  15 3.99012 4.50575   1
   2 -10 -15 -2.9395  7.0327   1
  10  -8 -15 14.5523  6.3394   1
   8 -10  15 11.6156  7.7190   1
  -2  10 -15 13.9896  5.3321   1
   8 -10 -15 6.50826 7.09224   1
  10  -8  15 14.7742  7.2112   1
  -2  10  15 10.2450  6.1498   1
 -10   8  15 18.2784  7.4876   1
  10  -9 -15 -7.8571  6.0257   1
  -1  10 -15 4.64193 4.81736   1
   9 -10  15 -5.9412  7.2780   1
   1   9  15 -3.2778  4.8172   1
  -9  10  15 -2.7325  7.3188   1
  10  -1  15 -7.8261  4.0692   1
  10  -9  15 2.65178 7.17632   1
   1   9 -15 3.32238 3.60191   1
 -10   9  15 8.44012 7.47164   1
  -1  10  15 13.1527  5.9065   1
   9 -10 -15 3.86365 6.89797   1
  10 -10 -15 9.88920 7.19241   1
  10 -10  15 2.19122 7.51115   1
   0  10 -15 3.89036 4.05728   1
   0  10  15 4.18346 5.33342   1
 -10  10  15 4.03862 7.64800   1
   6 -11  15 24.8610  8.2198   1
   5 -11 -15 7.14228 7.56700   1
  -6  -5 -15 15.1411  6.2236   2
  11  -5  15 29.5555  6.8946   1
  -6  11  15 26.0036  7.3729   1
  -5  11 -15 20.5350  6.2289   1
   6 -11 -15 14.8287  7.9073   1
  -6  11 -15 12.6254  6.1614   1
  -5  11  15 30.8231  7.2767   1
   5 -11  15 20.3559  8.1053   1
  11  -6  15 18.1836  6.9557   1
  -5  -6 -15 18.5158  6.2843   2
 -11   6  15 11.9552  7.4467   1
  -7  11  15 28.8832  7.8307   1
  -7  -4 -15 43.7851  6.8671   2
  11  -4  15 44.6639  6.8130   1
   7 -11  15 51.0147  8.9308   1
   4 -11 -15 27.9198  8.3572   1
  -4  11 -15 35.6979  6.5067   1
  11  -7 -15 44.6392  7.0441   1
   4 -11  15 41.3006  8.8243   1
   7 -11 -15 39.4332  8.3764   1
 -11   7  15 49.2779  8.4679   1
  -4  11  15 36.6780  7.2891   1
  11  -7  15 29.6894  7.5960   1
  -4  -7 -15 39.9331  6.8893   2
  -8  -3 -15 -5.6490  5.8709   2
   3 -11 -15 3.40897 7.65188   1
   8 -11  15 -4.4460  7.7412   1
  -3  11 -15 -5.2596  5.1846   1
  -8  11  15 8.39854 7.40571   1
  11  -3  15 -0.5423  5.2261   1
  11  -8 -15 12.1105  6.4096   1
  -3  11  15 4.77521 6.65125   1
 -11   8  15 14.5887  7.6557   1
  11  -8  15 -5.4974  6.9992   1
   8 -11 -15 4.94164 7.28287   1
   9 -11  15 6.34655 7.97960   1
  -9  11  15 26.9543  8.0619   1
  -2  11 -15 11.1507  5.3711   1
  11  -2  15 19.6306  4.6074   1
  11  -9 -15 19.0996  6.8227   1
 -11   9  15 6.77150 7.77512   1
  -2  11  15 20.6718  6.4594   1
  11  -9  15 7.98854 7.48718   1
   9 -11 -15 15.6738  7.5518   1
 -10  11  15 6.05216 7.83192   1
   1  10  15 5.48358 4.29999   1
  11 -10 -15 9.27216 6.85096   1
  10 -11  15 0.38402 7.91158   1
  -1  11 -15 0.41131 4.42873   1
 -11  10  15 -10.260   7.605   1
  10 -11 -15 -1.0301  7.2139   1
  11 -10  15 5.42344 7.84895   1
  -1  11  15 2.94109 5.71308   1
   0  11  15 59.4273  6.0835   1
  11 -11 -15 59.9278  8.9413   1
  11 -11  15 49.6083  9.5918   1
 -11  11  15 59.8815  9.6543   1
  -6  12  15 -9.5874  6.4878   1
  -6  -6 -15 4.08622 6.20505   2
   6 -12 -15 10.8830  7.9978   1
  -6  12 -15 -6.5602  5.7654   1
  12  -6  15 -5.8131  6.1716   1
   6 -12  15 8.43808 8.10378   1
  -7  -5 -15 8.24470 6.28877   2
  -7  12  15 -0.3498  7.0198   1
  12  -7 -15 14.1632  6.0830   1
  -5  12 -15 6.57422 6.01828   1
  12  -5  15 6.78554 6.16542   1
   7 -12  15 -1.4803  8.0889   1
   5 -12 -15 -10.482   7.626   1
  -5  12  15 4.12735 6.79802   1
  -5  -7 -15 0.49442 5.96270   2
   5 -12  15 -1.3698  7.7380   1
  12  -7  15 6.50116 6.78889   1
  -7  12 -15 -0.7797  5.9344   1
   7 -12 -15 17.5507  8.1796   1
  12  -8 -15 23.6421  6.7210   1
   8 -12  15 41.1083  9.2679   1
  -4  12 -15 28.5189  6.4268   1
  -8  12  15 27.0755  8.1783   1
   4 -12 -15 37.9621  8.9128   1
  12  -4  15 35.8981  6.1159   1
  -8  -4 -15 25.7794  6.5719   2
  -8  12 -15 37.3963  7.1505   1
   8 -12 -15 43.2574  9.0588   1
 -12   8  15 30.4742  8.5445   1
  -4  12  15 18.8000  7.1639   1
  12  -8  15 44.9631  8.0514   1
   9 -12  15 2.71284 8.30912   1
  12  -9 -15 6.89479 6.60557   1
  -9  12  15 6.27084 7.76190   1
  -3  12 -15 6.58969 5.53612   1
 -12   9  15 -11.426   7.645   1
   9 -12 -15 15.1194  8.0338   1
  -9  12 -15 -1.6615  6.4019   1
  12  -9  15 -11.916   7.114   1
  -3  12  15 8.58387 6.52073   1
  -2  12 -15 0.30789 4.84243   1
  10 -12  15 14.5492  8.6124   1
  12 -10 -15 -1.2449  6.7146   1
 -10  12  15 -11.555   7.612   1
  10 -12 -15 6.70181 7.87023   1
 -12  10  15 5.00096 8.09327   1
  -2  12  15 -1.8475  5.9982   1
 -10  12 -15 -6.5306  6.2858   1
  12 -10  15 -1.6804  7.6689   1
 -11  12  15 20.5806  8.7152   1
 -12  11  15 30.1638  9.1271   1
 -11  12 -15 26.9282  7.7168   1
  -1  12  15 21.5929  5.7166   1
   6 -13 -15 17.1914  8.6792   1
  -6  13 -15 -6.0850  6.0223   1
  13  -6  15 -5.8915  6.1706   1
   7 -13  15 -5.4668  8.3895   1
  -7  -6 -15 -3.0859  6.2701   2
  -6  -7 -15 8.30097 6.52036   2
  13  -7  15 -2.9802  6.5487   1
   6 -13  15 -1.1995  8.6249   1
   7 -13 -15 14.7706  8.5827   1
  -5  13 -15 6.30617 6.25178   1
  13  -8 -15 8.81393 6.24011   1
  13  -5  15 -0.4752  5.6948   1
  -8  -5 -15 3.45981 6.45153   2
   8 -13  15 -3.8407  8.4949   1
  13  -8  15 10.2389  7.3315   1
  -5  13  15 10.9322  7.1083   1
   8 -13 -15 17.0542  8.5749   1
   9 -13  15 -7.9330  8.4340   1
  -4  13 -15 -2.7250  5.7589   1
  -9  -4 -15 -7.0089  6.2517   2
  -4  13  15 -5.2004  6.6637   1
   9 -13 -15 0.25480 8.05788   1
  10 -13  15 -2.9317  8.4221   1
  -3  13 -15 -1.6007  5.2222   1
 -13  10  15 -1.7055  8.2706   1
  -3  13  15 4.30392 6.44877   1
   0   0  16 306.329  15.714   1
  -1   0 -16 31.7179  5.5902   2
   0  -1  16 48.1251  7.2209   1
   0   1  16 34.2128  6.7962   1
  -1   0  16 44.0565  7.1901   1
  -1   1  16 36.7606  7.0994   1
   1   0  16 40.8779  6.7778   1
   1  -1  16 32.6087  6.8278   1
   1   1  16 47.7644  7.0701   1
  -1  -1 -16 55.0953  6.2407   2
  -1  -1  16 57.3924  7.5536   1
  -2   1  16 50.0099  7.6570   1
   1   1 -16 51.4780  5.8323   2
   2  -1  16 51.7198  7.2413   1
   1  -2  16 64.6589  7.6242   1
  -1   2  16 47.3351  7.3178   1
  -2   0 -16 12.3419  5.2219   2
   2   0  16 17.4235  6.3155   1
   0   2  16 8.50175 6.17235   1
   0  -2  16 9.92371 6.29246   1
  -2   0  16 5.62241 6.48794   1
   2   0 -16 11.4891  4.7558   2
   2  -2  16 13.1731  6.3835   1
  -2   2  16 12.9775  6.6669   1
   1  -3 -16 -3.9562  5.9658   1
  -2   3  16 -6.7496  5.9745   1
  -1  -2  16 -0.2267  6.0074   1
   1   2  16 5.85024 5.86534   1
  -3   1  16 4.92595 6.49263   1
  -2  -1 -16 -2.2192  4.9023   2
   2  -3  16 5.71770 6.23515   1
   3  -1  16 -4.9983  5.7474   1
   2   1  16 -3.0412  5.6704   1
  -3   2  16 -3.3213  6.2188   1
  -2  -1  16 -4.0527  6.1482   1
   1  -3  16 11.1331  6.3410   1
   3  -2  16 4.76749 6.02336   1
  -1  -2 -16 9.89070 5.09125   2
  -1   3  16 0.44436 5.99601   1
   0  -3  16 21.7968  6.7471   1
   3   0  16 30.4736  6.4021   1
  -3   0 -16 32.4876  5.8980   2
   3  -3  16 26.4828  6.9535   1
  -3   3  16 19.8800  6.8793   1
   0   3  16 20.9593  6.4150   1
   0  -3 -16 36.2604  6.8136   1
  -3   0  16 31.1041  7.0529   1
   4  -2  16 91.9556  8.2118   1
  -2  -2 -16 78.2130  7.0897   2
  -4   2  16 91.2695  8.6176   1
   2  -4  16 77.6907  8.3921   1
  -2   4  16 78.5498  8.3890   1
   2  -4 -16 71.6722  8.0111   1
  -2  -2  16 84.1738  8.5002   1
   2   2  16 81.0373  7.8240   1
   1  -4 -16 95.4755  8.7819   1
   1   3  16 106.191   8.457   1
  -1  -3  16 112.963   9.244   1
  -4   1  16 97.1886  9.1351   1
  -3   4  16 103.812   9.238   1
   4  -1  16 94.5087  8.4517   1
   3  -4  16 102.742   9.081   1
  -3  -1 -16 96.2682  7.7738   2
   4  -3  16 106.434   8.824   1
   3   1  16 101.621   8.416   1
  -4   3  16 100.414   9.200   1
  -1   4  16 90.9889  8.7079   1
   3  -4 -16 100.265   8.609   1
  -3  -1  16 113.500   9.275   1
   1  -4  16 99.0227  9.2699   1
  -1  -3 -16 110.256   8.562   2
   0  -4 -16 76.8547  7.9642   1
  -4   4  16 83.0282  8.4216   1
   0   4  16 52.2006  7.2155   1
   0  -4  16 79.1405  8.1695   1
   4  -4 -16 63.2441  7.4894   1
  -4   0  16 73.5798  8.5305   1
  -4   0 -16 68.9701  7.1286   2
   4  -4  16 63.9537  7.9351   1
   4   0  16 62.7703  7.3932   1
   3  -5  16 5.67361 6.40789   1
   2  -5 -16 3.53464 6.01861   1
   5  -2  16 -3.1459  5.5801   1
  -3   5  16 3.32773 6.12179   1
  -3  -2 -16 5.49691 5.33430   2
  -5   2  16 0.77949 6.34072   1
   2   3  16 -0.6357  5.4787   1
  -2  -3  16 -4.4429  6.1275   1
  -5   3  16 -3.9640  6.2940   1
   2  -5  16 -0.8794  6.5661   1
   3  -5 -16 1.78863 5.98613   1
  -2   5  16 -2.3410  6.1150   1
   5  -3  16 3.22740 6.05886   1
   3   2  16 -1.7906  5.4955   1
  -3  -2  16 -0.4332  6.1305   1
  -2  -3 -16 7.37099 5.21245   2
   1  -5 -16 2.92175 6.39967   1
   5  -4 -16 3.98213 5.71357   1
  -4   5  16 -9.2857  6.1557   1
   1   4  16 -1.0992  5.5730   1
  -4  -1 -16 1.67244 5.47103   2
   4  -5  16 -0.9063  6.1441   1
   5  -1  16 -2.4870  5.6657   1
  -1  -4  16 0.39812 6.25274   1
  -5   1  16 -3.1668  6.3880   1
   4  -5 -16 -2.6155  5.8998   1
   4   1  16 -2.0841  5.4853   1
  -4  -1  16 2.23857 6.34757   1
   5  -4  16 -4.2631  6.0009   1
  -1  -4 -16 -3.0613  5.1679   2
  -1  -4 -16 -5.6677  5.8035   1
  -1   5  16 4.08675 6.06414   1
  -5   4  16 0.78237 6.52578   1
   1  -5  16 -4.0739  6.3321   1
   0  -5 -16 62.7545  7.8906   1
  -5   0  16 71.2548  8.1221   1
  -5   0 -16 67.6460  7.0622   2
   5  -5  16 52.3118  7.7643   1
  -5   5  16 58.1044  8.1804   1
   5   0  16 59.6823  7.0321   1
   5  -5 -16 43.0944  7.2527   1
   0  -5  16 65.5005  8.0255   1
   0   5  16 59.7505  7.3138   1
   6  -3  16 164.672  10.827   1
   3  -6  16 142.254  11.403   1
   3   3  16 130.366  10.101   1
  -3  -3  16 167.144  11.584   1
  -6   3  16 157.663  11.530   1
  -3  -3 -16 148.313  10.248   2
  -3   6  16 153.897  11.119   1
   3  -6 -16 156.542  11.251   1
   6  -2  16 23.7886  6.4039   1
   4  -6  16 39.9234  7.4518   1
  -4  -2 -16 20.0629  5.9756   2
  -6   2  16 25.8701  7.3452   1
  -4   6  16 35.0528  7.3491   1
   2  -6 -16 30.5960  7.0188   1
  -2  -4  16 32.4047  7.2565   1
   6  -4 -16 22.1083  6.2600   1
   2   4  16 37.1069  6.3025   1
   2  -6  16 42.3813  7.8447   1
   6  -4  16 36.4070  7.0864   1
  -2  -4 -16 40.2562  6.9749   1
  -4  -2  16 31.8527  7.2221   1
   4  -6 -16 41.2071  7.1080   1
   4   2  16 36.7709  6.4060   1
  -6   4  16 36.3393  7.4970   1
  -2  -4 -16 34.2765  6.1953   2
  -2   6  16 25.3744  7.0197   1
   1   5  16 1.87345 5.75130   1
   1  -6 -16 -2.7678  6.2573   1
  -5  -1 -16 -7.0965  5.3758   2
  -6   1  16 3.92438 6.64796   1
   6  -1  16 5.26821 5.76430   1
   6  -5 -16 -6.7357  5.6242   1
  -5   6  16 -5.4150  6.3338   1
  -1  -5  16 -5.5964  6.3986   1
   5  -6  16 0.21319 6.60737   1
  -6   5  16 -3.3723  6.4849   1
   5   1  16 -3.7761  5.4192   1
   5  -6 -16 -8.0197  5.8546   1
   6  -5  16 1.61307 6.27821   1
  -5  -1  16 -0.5495  6.4691   1
  -1  -5 -16 5.00461 6.43927   1
  -1   6  16 6.77250 6.02421   1
   1  -6  16 -2.3736  6.7251   1
   0  -6 -16 67.2964  8.0224   1
   0  -6  16 54.9739  8.1162   1
   6  -6  16 47.4564  8.0319   1
  -6   6  16 58.6597  8.1904   1
   0   6  16 52.7139  7.1177   1
  -6   0 -16 69.4473  7.1967   2
  -6   0  16 55.2762  7.9197   1
   6  -6 -16 61.2637  7.6209   1
   6   0  16 51.7718  6.9920   1
   7  -3  16 36.4367  6.9500   1
  -4  -3 -16 37.3480  6.3224   2
   3   4  16 31.3639  6.1707   1
   4  -7  16 43.9409  7.9233   1
  -4   7  16 30.9394  7.1884   1
  -7   3  16 35.4846  7.6736   1
  -3  -4  16 38.8052  7.2295   1
   3  -7 -16 29.2319  7.3139   1
  -3   7  16 38.6292  7.1985   1
  -7   4  16 12.7330  7.2864   1
  -3  -4 -16 41.1956  7.3433   1
   3  -7  16 50.7631  7.9918   1
   4  -7 -16 38.3445  7.4159   1
  -4  -3  16 28.9639  7.0166   1
  -3  -4 -16 38.3769  6.3240   2
   4   3  16 26.2395  5.9288   1
   7  -4  16 28.0007  6.8654   1
  -2  -5  16 48.7455  7.8334   1
   7  -5 -16 47.8196  6.8879   1
   2  -7 -16 44.0456  7.7362   1
  -5  -2 -16 36.4371  6.6043   2
  -5   7  16 46.8534  7.9750   1
  -7   2  16 50.2338  7.9969   1
   5  -7  16 37.2646  7.7806   1
   2   5  16 54.5632  6.8655   1
   7  -2  16 38.3278  6.9674   1
  -2  -5 -16 43.2792  7.6307   1
   5  -7 -16 47.5189  7.5773   1
  -5  -2  16 55.8969  7.9033   1
  -2   7  16 51.6921  7.4247   1
   2  -7  16 56.2783  8.1433   1
   5   2  16 45.1309  6.3800   1
  -7   5  16 51.0682  8.2261   1
   7  -5  16 48.8722  7.5961   1
   1   6  16 -5.9375  5.2571   1
  -1  -6  16 -0.3526  6.5166   1
   1  -7 -16 3.27057 6.47787   1
   6  -7  16 4.61538 6.85269   1
  -6  -1 -16 -2.7250  5.6232   2
  -7   1  16 4.45587 6.79110   1
   7  -6 -16 -2.4462  5.8548   1
  -6   7  16 1.02155 6.74190   1
   7  -1  16 8.29073 6.01115   1
   1  -7  16 -4.5168  6.7821   1
   6   1  16 1.83759 5.48210   1
   7  -6  16 6.74445 6.76638   1
  -1  -6 -16 -5.5429  6.1534   1
  -7   6  16 -8.4595  6.6760   1
   6  -7 -16 -1.1320  6.1828   1
  -6  -1  16 -8.3648  6.4636   1
  -1   7  16 8.57691 6.21817   1
   7   0  16 79.7258  7.4822   1
   0  -7  16 85.0988  9.2399   1
  -7   7  16 65.6139  8.8864   1
   7  -7 -16 89.0431  8.7041   1
   0  -7 -16 66.7470  8.6379   1
   7  -7  16 103.416   9.416   1
   0   7  16 81.9545  7.9998   1
   4   4  16 85.9248  7.2914   1
   8  -4  16 83.0621  8.4873   1
  -8   4  16 95.0172  9.5286   1
   4  -8 -16 70.5906  8.8711   1
  -4   8  16 82.0172  8.8047   1
   4  -8  16 92.8508  9.4787   1
  -4  -4 -16 85.2752  7.8839   2
  -5  -3 -16 8.84244 5.99324   2
   8  -5 -16 23.3578  6.2713   1
   5  -8  16 20.5517  7.4605   1
   3  -8 -16 21.9648  7.1464   1
  -8   3  16 19.3512  7.2443   1
   3   5  16 13.7176  5.4891   1
   8  -3  16 14.8420  6.3326   1
  -5   8  16 7.23878 6.89560   1
  -3  -5 -16 16.1509  6.6500   1
  -8   5  16 15.0300  7.3818   1
   5   3  16 10.0049  5.4441   1
   8  -5  16 18.1339  6.8702   1
  -3  -5 -16 16.1891  5.9461   2
   5  -8 -16 13.2584  6.9670   1
   3  -8  16 15.2331  7.3993   1
  -3   8  16 9.39416 6.57443   1
   6  -8  16 7.71838 7.17416   1
   8  -6 -16 -3.9226  5.7886   1
   2  -8 -16 -5.0510  6.4727   1
   8  -2  16 1.41132 5.97027   1
  -6   8  16 -0.5369  6.7436   1
   2   6  16 5.09310 5.50703   1
  -8   2  16 3.86158 6.82313   1
  -6  -2 -16 -10.690   5.501   2
  -2  -6 -16 4.65853 6.54310   1
  -2   8  16 1.49543 6.37291   1
   8  -6  16 -11.539   6.164   1
   6  -8 -16 3.12489 6.57771   1
   2  -8  16 -2.0755  6.9060   1
   6   2  16 4.44304 5.19627   1
  -8   6  16 -0.4376  7.0301   1
  -7   8  16 27.7176  7.6505   1
   8  -1  16 9.67644 5.86747   1
   1  -8 -16 13.2069  6.9522   1
   1   7  16 7.73830 5.61146   1
   7  -8  16 6.07723 7.27943   1
  -7  -1 -16 21.8733  6.4426   2
   8  -7 -16 8.24454 6.33028   1
  -1   8  16 5.12212 6.18770   1
   8  -7  16 17.5005  7.1845   1
   7   1  16 14.4798  5.4144   1
   1  -8  16 -4.3235  6.9542   1
  -8   7  16 21.3150  7.7423   1
   7  -8 -16 3.48043 6.49086   1
  -1  -7 -16 3.08721 6.77393   1
   8  -8 -16 14.7887  7.0449   1
   8  -8  16 18.7779  7.5952   1
   0   8  16 24.2860  6.4070   1
  -8   8  16 25.4086  8.0636   1
   0  -8 -16 36.5282  7.6306   1
   8   0  16 29.5627  5.7987   1
  -9   4  16 -14.871   6.743   1
   5  -9  16 -2.0440  7.1655   1
  -5  -4 -16 2.41378 5.90415   2
   4   5  16 3.19474 4.86328   1
  -5   9  16 -2.0114  6.4993   1
   9  -4  16 -3.2789  6.1487   1
   4  -9 -16 -4.5592  6.9617   1
  -9   5  16 14.2757  7.3584   1
   5   4  16 -4.7449  4.6399   1
   4  -9  16 5.61054 7.28227   1
  -4   9  16 -4.0071  6.3955   1
  -4  -5 -16 9.90652 6.04031   2
   5  -9 -16 -9.6663  6.6361   1
   9  -5  16 -3.7517  6.4691   1
   3   6  16 0.48353 4.85397   1
   6  -9  16 -10.599   6.917   1
   9  -6 -16 -2.6827  5.7235   1
   3  -9 -16 5.35951 7.24202   1
  -6   9  16 6.69670 6.92287   1
  -6  -3 -16 4.79811 5.98041   2
  -9   3  16 -4.3727  6.7867   1
   9  -3  16 -2.0329  5.8408   1
   3  -9  16 -8.0042  7.1491   1
  -9   6  16 -1.9821  7.0382   1
  -3   9  16 8.46678 6.52884   1
   6  -9 -16 -5.3365  6.7219   1
   9  -6  16 -0.2198  6.6465   1
   6   3  16 2.68731 4.64200   1
   9  -2  16 9.32131 5.95561   1
   2   7  16 3.95051 5.21283   1
   7  -9  16 2.39581 7.38358   1
  -7   9  16 -2.0215  7.1199   1
  -7  -2 -16 1.89675 5.86494   2
   2  -9 -16 1.39106 7.07053   1
   9  -7 -16 -1.9852  6.0037   1
  -9   7  16 -3.3949  7.0666   1
   7   2  16 2.97113 4.53280   1
  -2   9  16 4.85170 6.39538   1
   2  -9  16 5.25501 7.50801   1
   2   7 -16 -3.1646  4.0875   1
   9  -7  16 0.65402 6.72885   1
   7  -9 -16 8.18809 7.00264   1
   9  -8 -16 9.39655 6.71604   1
   1   8  16 14.0150  5.6098   1
   8  -9  16 18.5733  8.0120   1
  -8   9  16 22.5817  7.8794   1
   9  -1  16 15.7161  5.6784   1
  -1   9 -16 17.7252  5.4286   1
   1  -9 -16 5.22652 7.31935   1
  -1   9  16 15.6764  6.4086   1
   1   8 -16 13.6285  4.7658   1
   9  -8  16 10.6060  7.5023   1
   8   1  16 19.8254  4.8556   1
   8  -9 -16 17.8666  7.1459   1
  -9   8  16 23.9967  7.9871   1
  -9   9  16 9.81929 7.78216   1
   9  -9  16 17.0678  7.8994   1
   9   0  16 10.4817  4.7916   1
   0   9 -16 0.15624 4.82350   1
   9  -9 -16 3.71015 6.82999   1
   0   9  16 23.6279  6.1281   1
   5 -10  16 5.45111 7.60061   1
 -10   5  16 -10.554   7.164   1
  -5  -5 -16 -1.1660  5.9192   2
   5 -10 -16 3.38174 7.34703   1
   5   5  16 -2.4040  3.9375   1
  10  -5  16 -2.6686  6.3827   1
  -5  10  16 -3.6904  6.5846   1
   6 -10  16 -2.0776  7.3788   1
   4 -10 -16 5.68357 7.33326   1
  -6  10  16 -7.0511  6.6758   1
  10  -6 -16 7.41830 6.02764   1
   4   6  16 2.61765 4.38937   1
  10  -4  16 -8.4671  5.9229   1
  -6  -4 -16 -3.3151  5.9971   2
   6   4  16 -5.6272  3.6401   1
  10  -6  16 2.74941 6.65972   1
  -4  10  16 0.06896 6.61182   1
   4 -10  16 4.50210 7.64955   1
 -10   6  16 8.52032 7.53854   1
   6 -10 -16 1.52203 7.27173   1
  -3  10 -16 -1.8737  5.2786   1
  10  -7 -16 -6.5153  5.8477   1
   7 -10  16 -0.9715  7.5682   1
  -7  10  16 -11.321   6.762   1
   3 -10 -16 15.1952  7.5539   1
  10  -3  16 -0.7009  6.0261   1
  -7  -3 -16 8.36121 6.12838   2
   3   7  16 6.30633 4.52492   1
   7 -10 -16 -7.8986  6.9744   1
  10  -7  16 -1.0002  6.8407   1
  -3  10  16 -3.0595  6.6292   1
   3 -10  16 6.81401 7.70411   1
 -10   7  16 -12.909   7.064   1
   8 -10  16 -9.9503  7.5147   1
  10  -2  16 5.33260 5.59267   1
   2 -10 -16 3.04998 7.24831   1
  -8  10  16 -3.5777  7.3971   1
  10  -8 -16 5.13711 6.37753   1
   2   8  16 -1.1471  4.8069   1
  -2  10 -16 4.76242 5.54657   1
   8 -10 -16 6.45040 7.35430   1
   2   8 -16 5.81702 3.50037   1
 -10   8  16 18.9564  7.9879   1
  -2  10  16 7.19977 6.29125   1
  10  -8  16 6.32441 7.28729   1
  10  -1  16 -7.9743  4.5603   1
  -9  10  16 3.31112 7.78631   1
  10  -9 -16 -5.6553  6.7106   1
   1   9  16 -4.0577  5.0306   1
   9 -10  16 0.09414 7.70945   1
  -1  10 -16 -7.1945  4.8171   1
 -10   9  16 -3.5848  7.6480   1
   1   9 -16 3.88942 3.96122   1
  -1  10  16 -0.6386  5.9817   1
   9 -10 -16 2.87254 6.93163   1
  10  -9  16 3.17889 7.61820   1
 -10  10  16 17.6017  8.5236   1
  10 -10 -16 13.1104  7.3564   1
   0  10  16 13.7110  5.7773   1
   0  10 -16 15.0162  4.6003   1
  10 -10  16 26.5612  8.4694   1
  -6  -5 -16 6.80387 6.39136   2
   6 -11  16 10.1950  8.1581   1
  11  -5  16 -10.483   6.249   1
   5 -11 -16 -0.6223  7.4914   1
  -5  11 -16 -6.9404  5.4379   1
  -6  11  16 1.12605 7.12493   1
  11  -6  16 -5.2381  6.8016   1
   6 -11 -16 1.48742 7.63810   1
   5 -11  16 2.88844 7.66887   1
  -5  11  16 -3.4040  6.6574   1
  -4  11 -16 8.84991 6.13520   1
  11  -4  16 -10.995   6.121   1
  -7  11  16 6.97267 7.27104   1
   7 -11  16 12.0535  8.2294   1
  11  -7 -16 11.5569  6.2102   1
   4 -11 -16 10.2586  7.8453   1
   4 -11  16 9.41861 8.06520   1
  11  -7  16 6.25889 7.02874   1
   7 -11 -16 -1.3317  7.5774   1
  -4  11  16 8.80703 7.12122   1
 -11   7  16 7.88756 7.94466   1
  11  -8 -16 35.2304  7.4241   1
   8 -11  16 33.1185  8.9580   1
  11  -3  16 34.7614  6.4108   1
   3 -11 -16 33.1595  8.6876   1
  -3  11 -16 21.4940  6.2531   1
  -8  11  16 36.5322  8.4735   1
 -11   8  16 20.0993  8.4097   1
   8 -11 -16 35.5226  8.4923   1
  11  -8  16 37.0029  8.0262   1
  -3  11  16 38.1723  7.5491   1
  11  -2  16 0.69217 4.83780   1
   9 -11  16 6.41115 8.49631   1
  -2  11 -16 6.00641 5.42174   1
  -9  11  16 12.1238  8.2074   1
  11  -9 -16 8.06596 6.65210   1
  11  -9  16 7.64166 7.73047   1
 -11   9  16 26.7045  8.8675   1
   9 -11 -16 10.4772  7.7331   1
  -2  11  16 14.0418  6.6043   1
  -1  11 -16 36.0608  5.5633   1
  10 -11  16 33.6253  9.1920   1
   1  10  16 27.6165  5.3661   1
 -10  11  16 47.6487  9.5631   1
  11 -10 -16 34.4636  8.0688   1
  11 -10  16 36.4001  8.9071   1
 -11  10  16 50.6478  9.5899   1
  -1  11  16 42.5340  6.8550   1
  10 -11 -16 45.8524  8.6743   1
 -11  11  16 13.8784  8.6612   1
   0  11  16 7.23744 5.34581   1
  -6  12 -16 -3.7699  6.0777   1
   6 -12 -16 -1.3534  7.8393   1
  -6  12  16 -8.8632  6.8908   1
   6 -12  16 -3.9699  8.2152   1
  12  -6  16 2.68211 6.69344   1
  -7  12  16 6.88812 7.53592   1
   7 -12  16 -3.1075  8.4082   1
   5 -12 -16 16.5079  8.7602   1
  12  -5  16 4.06020 6.52225   1
  -5  12 -16 9.43849 6.36121   1
  -5  12  16 11.3227  7.3039   1
  12  -7  16 6.28892 7.45089   1
   5 -12  16 9.29052 8.69186   1
   7 -12 -16 17.6401  8.3859   1
  -7  12 -16 5.05476 6.19772   1
  -4  12 -16 5.97015 6.03533   1
  12  -4  16 15.8269  6.1102   1
  12  -8 -16 12.0483  6.4602   1
  -8  12  16 12.0250  8.1221   1
   8 -12  16 15.7258  8.8121   1
  -4  12  16 23.1345  7.4887   1
  12  -8  16 14.1332  7.9413   1
   8 -12 -16 3.69014 8.26968   1
  -8  12 -16 9.14617 6.57198   1
 -12   8  16 12.6891  8.2032   1
   9 -12  16 2.23960 8.53310   1
  -3  12 -16 -3.8623  5.6693   1
  -9  12  16 15.3796  8.4425   1
 -12   9  16 12.5967  8.5194   1
   9 -12 -16 -7.1271  7.7823   1
  -3  12  16 4.12872 6.63772   1
  -9  12 -16 -6.4359  6.6297   1
  -2  12 -16 6.58150 5.22335   1
  10 -12  16 -8.1246  8.2759   1
 -12  10  16 -3.6295  8.1476   1
  -2  12  16 -0.7330  6.2202   1
  13  -6  16 -2.8877  6.5172   1
   7 -13  16 -2.7758  9.0545   1
   6 -13 -16 4.15979 8.74987   1
   6 -13  16 1.98718 9.00958   1
   7 -13 -16 1.64086 8.79161   1
   8 -13  16 -12.311   8.655   1
  13  -5  16 -10.543   5.757   1
   8 -13 -16 -1.1473  8.6595   1
   0   0  17 0.98303 6.13666   1
   0  -1  17 64.9202  7.8708   1
  -1   0  17 44.8808  7.5070   1
  -1   1  17 55.3715  7.6811   1
   1   0  17 46.0079  7.2944   1
   1  -1  17 52.7126  7.6026   1
   0   1  17 48.4650  7.2690   1
   1  -2  17 3.50560 6.33652   1
   2  -1  17 -11.308   5.969   1
  -1  -1  17 -4.8348  5.9894   1
  -1   2  17 -10.374   5.837   1
  -2   1  17 -4.7837  6.2759   1
   1   1  17 -1.9810  5.6660   1
   2   0  17 -6.4986  5.7185   1
   0  -2  17 9.64670 6.27747   1
   2  -2  17 -4.0757  6.1413   1
  -2   0  17 -1.4648  6.3335   1
   0   2  17 -1.5230  5.9880   1
  -2   2  17 2.41872 6.59880   1
  -1  -2  17 58.1856  7.8833   1
  -3   1  17 62.0739  8.2381   1
   2  -3  17 55.5155  7.7835   1
   3  -1  17 57.9627  7.5752   1
  -2   3  17 64.8930  8.2108   1
   1   2  17 55.4503  7.4366   1
  -1   3  17 65.6775  7.8437   1
   2   1  17 67.2287  7.6819   1
  -2  -1  17 49.6648  7.8176   1
  -3   2  17 57.4160  8.1721   1
   3  -2  17 70.4723  7.9131   1
   1  -3  17 48.4572  7.7433   1
  -3   0  17 126.361  10.004   1
   0  -3  17 100.810   9.549   1
  -3   3  17 125.906  10.093   1
   0   3  17 110.829   9.167   1
   3  -3  17 112.642   9.567   1
   3   0  17 112.291   9.112   1
  -2   4  17 -1.7239  6.4495   1
   4  -2  17 -8.7687  5.8135   1
   2  -4 -17 2.14795 6.15498   1
   2  -4  17 -0.5776  6.3810   1
  -4   2  17 -9.5312  6.5052   1
  -2  -2  17 -0.2889  6.2669   1
   2   2  17 -4.6524  5.6232   1
  -3   4  17 5.00522 6.71886   1
   3  -4  17 -1.7527  6.6462   1
  -4   1  17 1.91920 6.67488   1
   4  -1  17 10.2257  6.2234   1
   1  -4 -17 9.03736 6.45075   1
  -1  -3  17 19.8224  6.9642   1
   1   3  17 9.56866 6.05585   1
   3  -4 -17 7.84148 6.23066   1
  -3  -1  17 2.42470 6.69518   1
   4  -3  17 10.1454  6.3983   1
   3   1  17 4.63711 5.91359   1
  -4   3  17 14.9964  6.8073   1
   1  -4  17 8.34696 6.90064   1
  -1   4  17 4.08924 6.33389   1
  -4   4  17 168.352  12.101   1
   0  -4  17 179.012  12.225   1
   4   0  17 172.065  11.317   1
   0   4  17 157.812  11.135   1
   4  -4 -17 180.026  11.694   1
   0  -4 -17 169.025  11.725   1
   4  -4  17 155.720  11.743   1
  -4   0  17 193.558  12.509   1
   5  -2  17 7.46221 6.20680   1
   3  -5  17 9.52675 6.85364   1
   2   3  17 14.4893  6.0982   1
  -5   2  17 15.8723  7.1054   1
  -2  -3  17 6.92358 6.65352   1
   2  -5 -17 18.9120  6.8932   1
  -3   5  17 6.18029 6.81284   1
  -3  -2  17 9.15281 6.68334   1
   2  -5  17 8.39012 6.85073   1
  -5   3  17 16.6115  7.1196   1
  -2   5  17 19.0601  6.8535   1
   5  -3  17 10.0978  6.4462   1
   3  -5 -17 1.38766 6.35650   1
   3   2  17 4.21747 5.98939   1
   1  -5 -17 34.9827  7.4399   1
   5  -1  17 28.0948  6.6747   1
  -1  -4  17 47.5446  7.7558   1
  -5   1  17 47.7282  8.0144   1
   4  -5  17 55.7874  7.9997   1
  -4   5  17 54.7321  7.9670   1
   1   4  17 45.4364  7.0777   1
   5  -4  17 30.9980  7.3066   1
  -1  -4 -17 47.6916  7.6215   1
   1  -5  17 46.3504  7.9383   1
  -1   5  17 41.0261  7.3025   1
  -4  -1  17 49.4547  7.8457   1
  -5   4  17 47.1138  7.9733   1
   4  -5 -17 42.6607  7.3533   1
   4   1  17 40.0746  6.7470   1
  -5   0  17 10.8978  6.9117   1
   5   0  17 4.95388 5.94702   1
   0  -5 -17 4.05193 6.72136   1
   5  -5  17 1.20316 6.72675   1
   5  -5 -17 13.7817  6.4018   1
   0  -5  17 6.17831 6.73530   1
   0   5  17 17.3983  6.3016   1
  -5   5  17 2.19422 6.94764   1
   3   3  17 -0.2537  5.6016   1
  -3  -3  17 1.16732 6.54535   1
   3  -6 -17 -1.2202  6.5092   1
  -6   3  17 -2.5698  6.8389   1
   3  -6  17 -1.5356  6.6775   1
   6  -3  17 12.2566  6.4271   1
  -3   6  17 9.12619 6.78653   1
   2  -6 -17 8.20611 6.75813   1
   2   4  17 3.53917 5.98972   1
   4  -6  17 3.36346 6.80954   1
   6  -2  17 7.56156 6.28172   1
  -2  -4  17 6.77547 6.80365   1
  -4   6  17 11.8982  6.9480   1
  -6   2  17 14.2279  7.1909   1
  -4  -2  17 15.7166  7.1551   1
  -2   6  17 12.9809  6.8916   1
   2  -6  17 -3.0083  6.9922   1
   6  -4  17 12.6604  6.7501   1
  -6   4  17 16.6280  7.4419   1
  -2  -4 -17 8.55152 6.74668   1
   4  -6 -17 17.3677  6.9224   1
   4   2  17 15.8639  6.0915   1
  -6   1  17 10.5515  7.2171   1
   1  -6 -17 9.05391 6.66288   1
  -1  -5  17 0.19384 6.97286   1
   5  -6  17 11.6906  7.1152   1
   6  -1  17 3.84587 6.24869   1
  -5   6  17 14.1642  7.1987   1
   1   5  17 6.75153 5.89398   1
   6  -5 -17 4.72597 6.10193   1
   1  -6  17 -5.5667  6.8586   1
  -5  -1  17 11.7444  7.1266   1
   5  -6 -17 -3.9022  6.1148   1
  -1  -5 -17 3.88805 6.57912   1
   6  -5  17 3.83466 6.65995   1
  -1   6  17 0.26650 6.11459   1
  -6   5  17 18.4564  7.4095   1
   5   1  17 9.53000 5.84969   1
   6  -6  17 30.0533  7.6689   1
  -6   0  17 16.2988  7.3295   1
   0  -6 -17 17.9925  7.2048   1
   0  -6  17 9.01940 7.38459   1
   0   6  17 27.6016  6.6090   1
  -6   6  17 17.9206  7.6950   1
   6  -6 -17 10.5749  6.7152   1
   6   0  17 17.1576  6.4725   1
   7  -3  17 80.6128  8.3030   1
   3   4  17 64.1681  7.4171   1
   3  -7 -17 64.5367  8.5533   1
  -4   7  17 63.1054  8.6588   1
   4  -7  17 66.6160  8.9544   1
  -3  -4  17 58.8878  8.4358   1
  -7   3  17 72.1107  8.9758   1
   3  -7  17 53.7139  8.6008   1
   4   3  17 55.7770  7.0191   1
  -7   4  17 78.1621  9.1656   1
   7  -4  17 74.6662  8.4402   1
  -4  -3  17 76.7965  8.8175   1
  -3   7  17 74.4297  8.5456   1
   4  -7 -17 64.2060  8.5194   1
   2  -7 -17 12.6796  6.9778   1
   7  -2  17 -1.1461  6.2684   1
  -2  -5  17 5.55511 6.94255   1
   2   5  17 7.01864 5.82829   1
   7  -5 -17 4.79723 5.97622   1
  -5   7  17 5.89344 7.05186   1
  -7   2  17 0.76550 7.04008   1
   5  -7  17 4.48567 7.21277   1
  -7   5  17 -3.5738  7.0260   1
   5   2  17 -1.0425  5.4803   1
   5  -7 -17 4.99543 6.59186   1
  -2  -5 -17 -4.2552  6.4336   1
  -2   7  17 -1.9958  6.4361   1
   7  -5  17 3.93958 6.73889   1
   2  -7  17 0.46812 7.11507   1
  -5  -2  17 5.60247 7.09016   1
   1  -7 -17 43.4575  7.8981   1
   6  -7  17 30.9369  7.9276   1
  -1  -6  17 43.2001  8.0926   1
   7  -6 -17 35.3162  7.1943   1
  -6   7  17 34.3961  7.9260   1
  -7   1  17 33.5577  7.8156   1
   7  -1  17 38.9006  7.0567   1
   1   6  17 39.3329  6.8263   1
   1  -7  17 32.8582  8.0958   1
   6  -7 -17 38.7288  7.5105   1
  -7   6  17 30.1862  8.0510   1
  -1   7  17 38.4607  7.2477   1
   7  -6  17 38.7193  7.9332   1
  -1  -6 -17 32.3392  7.7533   1
   6   1  17 35.0620  6.6543   1
   0   7  17 6.32644 6.28300   1
   7  -7  17 2.50219 7.12609   1
   0  -7 -17 6.58655 6.96091   1
  -7   7  17 -15.921   6.693   1
   7  -7 -17 -4.9120  6.2912   1
   7   0  17 8.12475 5.91906   1
   0  -7  17 6.10602 7.52575   1
   4  -8  17 9.60960 7.46380   1
  -4   8  17 5.46564 6.74675   1
  -8   4  17 -1.4034  7.0303   1
   4   4  17 3.09314 5.42668   1
   4  -8 -17 -8.1178  6.6397   1
   8  -4  17 -6.1042  6.4050   1
  -8   3  17 31.5375  7.8870   1
   8  -3  17 20.3738  6.8675   1
  -5   8  17 28.9468  7.6294   1
   3   5  17 35.0608  6.1098   1
   3  -8 -17 27.1921  7.6461   1
   5  -8  17 24.6266  7.8675   1
  -8   5  17 34.8913  8.2709   1
  -3  -5 -17 23.2338  7.2559   1
   5   3  17 19.3376  5.9091   1
   5  -8 -17 28.9180  7.6723   1
  -3   8  17 26.1203  7.3223   1
   8  -5  17 28.3135  7.4082   1
   3  -8  17 15.9231  7.5162   1
   2  -8 -17 -10.508   6.716   1
   8  -6 -17 2.14452 6.09681   1
  -8   2  17 -0.6899  7.2169   1
   2   6  17 -12.951   5.300   1
  -6   8  17 12.1110  7.5593   1
   8  -2  17 -8.3357  5.9300   1
   6  -8  17 0.80362 7.24558   1
   6   2  17 -2.5439  5.3326   1
  -2  -6 -17 -3.6918  6.8261   1
  -2   8  17 -6.9360  6.2963   1
   8  -6  17 3.77751 7.04607   1
  -8   6  17 -0.9729  7.3927   1
   6  -8 -17 1.19996 6.92157   1
   2  -8  17 -2.0643  7.1549   1
  -7   8  17 31.3570  8.3054   1
   8  -1  17 27.2685  6.4987   1
   1  -8 -17 48.8581  8.1379   1
   1   7  17 32.2571  6.5676   1
   8  -7 -17 36.5989  7.4089   1
   7  -8  17 32.0360  8.1967   1
  -1  -7 -17 31.0291  7.7105   1
  -8   7  17 32.8275  8.5053   1
   8  -7  17 27.1403  7.8588   1
  -1   8  17 41.4925  7.4675   1
   1  -8  17 32.4835  8.2719   1
   7  -8 -17 52.3678  8.0491   1
   7   1  17 38.7800  6.3634   1
   0  -8 -17 93.4938  9.4859   1
   8  -8  17 65.7359  9.4610   1
   8  -8 -17 69.7771  8.8323   1
  -8   8  17 87.6435  9.9313   1
   0   8  17 77.0562  7.9868   1
   8   0  17 75.0737  7.3737   1
   9  -4  17 15.5491  6.7747   1
  -5   9  17 10.6243  7.3076   1
  -9   4  17 0.60752 7.21704   1
   4  -9 -17 14.0202  7.4220   1
   4   5  17 -2.8442  5.0689   1
   5  -9  17 -4.9048  7.3341   1
   9  -5  17 4.36782 6.93553   1
   5  -9 -17 3.55750 7.17335   1
  -9   5  17 3.55646 7.44471   1
   5   4  17 7.90257 5.28523   1
  -4   9  17 3.76324 6.77563   1
   4  -9  17 -2.4065  7.4224   1
   9  -3  17 10.4947  6.4823   1
   6  -9  17 -16.426   7.143   1
   9  -6 -17 6.14443 6.26644   1
  -6   9  17 -2.5347  7.0557   1
   3  -9 -17 0.03245 7.10082   1
   3   6  17 9.85141 5.33306   1
   6  -9 -17 -0.3715  7.0522   1
   9  -6  17 -0.9163  6.8405   1
   6   3  17 3.02934 4.99807   1
  -3   9  17 -1.4910  6.7779   1
  -9   6  17 3.15461 7.62979   1
   3  -9  17 -2.5003  7.4555   1
   9  -2  17 12.0498  6.4733   1
   7  -9  17 16.7568  7.9997   1
  -7   9  17 16.8683  7.6781   1
   2  -9 -17 16.1011  7.5238   1
   2   7  17 9.80919 5.56908   1
   9  -7 -17 20.1356  6.8413   1
   9  -7  17 31.4291  7.8935   1
  -9   7  17 24.6624  8.3297   1
   2  -9  17 8.99732 7.83224   1
   7   2  17 10.9568  5.1427   1
  -2   9  17 13.2467  6.9709   1
   7  -9 -17 7.61064 7.24688   1
   9  -1  17 3.25807 5.67745   1
   8  -9  17 -5.3589  7.5802   1
  -8   9  17 15.0076  7.9337   1
   9  -8 -17 -3.8398  6.3506   1
   1  -9 -17 -2.5539  7.2523   1
   1   8  17 3.34101 5.72358   1
  -1   9  17 2.68848 6.35987   1
  -9   8  17 18.2873  8.3196   1
   8  -9 -17 9.80723 7.20894   1
   8   1  17 -3.2798  4.9086   1
   9  -8  17 5.96799 7.63306   1
   1   8 -17 1.78993 4.73789   1
   0   9 -17 -2.1413  4.9417   1
   0   9  17 10.0345  5.9845   1
  -9   9  17 9.54964 8.20065   1
   9  -9 -17 6.75705 7.09010   1
   9  -9  17 5.31027 8.04768   1
   9   0  17 12.3571  5.1891   1
   5 -10 -17 -10.333   7.174   1
  -5  10  17 16.5722  7.2857   1
 -10   5  17 -3.2704  7.5362   1
  10  -5  17 1.02267 6.81198   1
   5 -10  17 9.08844 7.98027   1
   5   5  17 -8.4272  4.3114   1
   6 -10  17 3.32336 7.68179   1
   4 -10 -17 -4.9076  7.5542   1
   4   6  17 -2.7109  4.6687   1
  -6  10  17 8.62450 7.50210   1
  10  -4  17 -4.1552  6.3787   1
   4 -10  17 -11.081   7.439   1
  10  -6  17 3.61934 7.03409   1
 -10   6  17 -10.292   7.411   1
   6   4  17 0.33049 4.19379   1
  -4  10  17 -9.6310  6.6516   1
   6 -10 -17 3.77778 7.69889   1
  -7  10  17 49.6020  8.7241   1
   3 -10 -17 25.2697  8.4559   1
   7 -10  17 30.0651  8.8567   1
   3   7  17 28.4291  5.5587   1
  10  -3  17 53.1150  7.4749   1
  10  -7 -17 45.2932  7.3509   1
   3 -10  17 41.2005  8.9151   1
   7 -10 -17 44.6711  8.6262   1
  10  -7  17 36.5803  8.2706   1
 -10   7  17 45.5107  9.1258   1
  -3  10  17 43.5399  7.8963   1
  -8  10  17 10.4837  8.0049   1
   2   8  17 2.93945 5.09078   1
   8 -10  17 -4.9829  7.8726   1
  10  -2  17 7.70912 5.97264   1
  10  -8 -17 0.56050 6.63834   1
  -2  10 -17 5.88335 5.62054   1
   8 -10 -17 7.27202 7.65492   1
 -10   8  17 -7.2401  7.9170   1
  10  -8  17 -9.9890  7.2399   1
  -2  10  17 0.76050 6.73635   1
   2   8 -17 6.38432 3.91384   1
  10  -1  17 2.04986 5.19591   1
   9 -10  17 2.04343 8.20376   1
  10  -9 -17 -11.432   6.604   1
  -1  10 -17 -4.7296  5.2086   1
   1   9  17 -5.2262  5.3544   1
  -9  10  17 -11.998   7.630   1
 -10   9  17 1.01672 8.40280   1
   1   9 -17 5.56822 4.39410   1
  10  -9  17 12.9012  8.1392   1
   9 -10 -17 -1.1099  7.3379   1
  -1  10  17 10.6961  6.4763   1
   0  10 -17 12.7409  4.9024   1
 -10  10  17 7.28656 8.51525   1
   0  10  17 18.6907  6.2147   1
  10 -10 -17 0.93578 7.43048   1
  10 -10  17 7.88143 8.83348   1
  11  -5  17 33.4267  7.7290   1
  -6  11  17 36.6238  8.4081   1
   5 -11 -17 43.1709  9.0917   1
   6 -11  17 43.9842  9.5004   1
  11  -6  17 19.1503  7.8257   1
   6 -11 -17 45.2561  9.0474   1
   5 -11  17 21.0838  9.0416   1
  -5  11  17 46.0767  8.4770   1
   4 -11 -17 22.8627  8.7724   1
  11  -7 -17 32.1315  7.1483   1
   7 -11  17 36.6727  9.0585   1
  -4  11 -17 26.9703  6.7727   1
  -7  11  17 19.8779  8.0899   1
  11  -4  17 35.8543  7.3358   1
   4 -11  17 31.1028  9.1062   1
  11  -7  17 37.5242  8.3169   1
  -4  11  17 31.7182  7.9932   1
 -11   7  17 43.1696  9.2223   1
  -3  11 -17 -3.5018  5.7688   1
  11  -8 -17 11.8632  6.9832   1
   8 -11  17 -17.030   8.000   1
  -8  11  17 -0.0997  7.8508   1
  11  -3  17 1.07138 6.01036   1
  11  -8  17 -4.6652  7.6098   1
   8 -11 -17 2.03819 7.83037   1
  -3  11  17 -8.5661  6.5774   1
 -11   8  17 -2.9038  8.1805   1
  -9  11  17 -8.0128  8.0598   1
  11  -2  17 -0.8404  5.2580   1
   9 -11  17 3.56244 8.80209   1
  -2  11 -17 12.4139  5.8243   1
 -11   9  17 17.2202  8.6898   1
   9 -11 -17 -0.4893  7.6486   1
  -2  11  17 5.48165 6.89344   1
 -10  11  17 7.85615 8.54561   1
  -1  11 -17 3.85331 5.05798   1
 -11  10  17 0.53034 8.50323   1
  -1  11  17 -5.7975  6.1057   1
  12  -6  17 1.09018 7.03144   1
   6 -12  17 -0.9227  8.7520   1
   6 -12 -17 -7.6566  8.1136   1
  12  -5  17 4.47617 6.67581   1
   5 -12 -17 -1.4050  8.3371   1
   7 -12  17 3.64992 8.68938   1
   5 -12  17 -1.9411  8.8176   1
   7 -12 -17 1.01964 8.24476   1
  12  -4  17 21.5886  6.6712   1
   8 -12  17 23.6051  9.5897   1
  -4  12 -17 29.5020  6.9482   1
   8 -12 -17 40.2816  9.3255   1
  -3  12 -17 12.1267  6.2571   1
   9 -12  17 9.90246 9.12988   1
 -12   9  17 14.1639  8.9331   1
   0   0  18 38.3018  7.4196   1
   0  -1  18 -5.7676  6.1906   1
   0   1  18 5.06299 6.34189   1
  -1   1  18 4.90540 6.44187   1
  -1   0  18 1.47202 6.38794   1
   1  -1  18 6.54855 6.59690   1
   1   0  18 2.44128 6.34496   1
   1  -2  18 9.05539 6.72779   1
  -1  -1  18 11.2260  6.7662   1
   1   1  18 6.92930 6.17367   1
  -1   2  18 12.4361  6.6698   1
  -2   1  18 10.2657  7.0455   1
   2  -1  18 6.90196 6.50340   1
   2  -2  18 9.15166 6.61223   1
   2   0  18 7.24098 6.29382   1
   0   2  18 6.22275 6.39839   1
  -2   2  18 1.73546 6.60866   1
  -2   0  18 -11.081   6.320   1
   0  -2  18 2.56184 6.63308   1
   1   2  18 4.23502 6.10063   1
  -1  -2  18 -9.4780  6.4670   1
  -2   3  18 -2.9829  6.6411   1
  -3   1  18 2.58896 7.03983   1
   2  -3  18 -5.9303  6.5518   1
   3  -1  18 5.86650 6.44427   1
   2   1  18 -5.1031  5.9994   1
   3  -2  18 -9.2933  6.3540   1
  -3   2  18 5.57064 7.09346   1
  -1   3  18 -2.4945  6.3107   1
  -2  -1  18 3.19441 6.75901   1
   1  -3  18 12.5916  6.8851   1
  -3   0  18 32.3098  7.6538   1
  -3   3  18 29.9691  7.5546   1
   3   0  18 21.2007  6.7172   1
   0  -3  18 5.96107 7.12991   1
   3  -3  18 22.8813  7.2282   1
   0   3  18 17.3571  6.6699   1
   2   2  18 50.0916  7.5366   1
   4  -2  18 44.6723  7.6196   1
  -2  -2  18 66.4725  8.3849   1
   2  -4 -18 45.1361  7.7186   1
  -4   2  18 58.4610  8.6080   1
  -2   4  18 44.0168  7.9426   1
   2  -4  18 72.9931  8.4947   1
  -3   4  18 53.2946  8.2848   1
   3  -4  18 48.3846  8.2230   1
  -4   1  18 48.2211  8.5119   1
   1  -4 -18 54.2495  7.9162   1
  -1  -3  18 51.0218  8.0531   1
   1   3  18 44.5177  7.3179   1
   4  -1  18 43.5371  7.4900   1
  -3  -1  18 48.3014  8.2233   1
   1  -4  18 51.1094  8.2940   1
  -4   3  18 52.3023  8.4128   1
   3   1  18 62.3443  7.6243   1
   4  -3  18 57.4996  8.0503   1
  -1   4  18 50.3932  7.9863   1
   4   0  18 11.6980  6.5578   1
  -4   0  18 36.9390  7.8274   1
   0  -4  18 23.5459  7.4216   1
   0   4  18 23.8337  6.8544   1
  -4   4  18 21.2406  7.7018   1
   4  -4  18 21.4853  7.2859   1
   2   3  18 -6.5790  5.8273   1
  -2  -3  18 4.22417 6.96712   1
   2  -5 -18 2.56509 6.51880   1
   5  -2  18 -0.0788  6.3835   1
  -3   5  18 1.72787 6.97941   1
  -5   2  18 6.34750 7.14791   1
   3  -5  18 -4.0215  6.5568   1
   2  -5  18 -4.9344  6.9765   1
   3  -5 -18 -5.2336  6.3613   1
  -3  -2  18 -1.8973  6.6457   1
   3   2  18 -9.7868  5.8826   1
   5  -3  18 -4.5285  6.5126   1
  -5   3  18 0.28255 7.06345   1
  -2   5  18 -2.8493  6.6699   1
  -1  -4  18 -5.3946  6.8556   1
  -5   1  18 5.83813 7.25700   1
   1   4  18 4.31000 6.17447   1
   5  -1  18 0.28403 6.32712   1
   4  -5  18 0.18214 6.86788   1
   1  -5 -18 16.5654  6.9999   1
  -4   5  18 4.31465 7.08215   1
  -5   4  18 -15.641   6.737   1
   5  -4  18 0.52138 6.71963   1
  -1   5  18 6.38069 6.69289   1
   4   1  18 -5.4483  6.0692   1
  -4  -1  18 -4.9836  6.9897   1
   4  -5 -18 14.7923  6.7061   1
   1  -5  18 -6.7335  6.9730   1
  -5   0  18 44.7902  8.5599   1
   0  -5 -18 29.9495  7.5778   1
  -5   5  18 14.5432  7.7611   1
   0  -5  18 38.1736  8.0499   1
   5   0  18 30.1778  6.8594   1
   5  -5  18 34.1007  7.8279   1
   5  -5 -18 37.8168  7.1661   1
   0   5  18 44.3136  7.3918   1
   6  -3  18 58.6146  8.0740   1
   3   3  18 45.7146  7.2531   1
  -3  -3  18 40.9821  8.0181   1
  -6   3  18 44.2323  8.4703   1
   3  -6 -18 53.7828  8.2285   1
   3  -6  18 55.2715  8.4920   1
  -3   6  18 36.8363  7.9838   1
  -2  -4  18 2.91234 7.07675   1
   4  -6  18 8.21700 7.27228   1
   6  -2  18 2.03749 6.53649   1
   2  -6 -18 9.17523 7.09044   1
  -4   6  18 15.7564  7.3110   1
  -6   2  18 -7.2984  7.0491   1
   2   4  18 -4.2624  6.1101   1
  -4  -2  18 6.20987 7.08494   1
   4  -6 -18 1.23631 6.83630   1
  -2   6  18 7.81949 6.97965   1
  -6   4  18 25.8606  7.9052   1
   4   2  18 2.66245 6.05984   1
   6  -4  18 12.9777  6.9777   1
   2  -6  18 9.53339 7.52468   1
   6  -5 -18 -3.7088  6.3111   1
   1   5  18 -6.5765  6.0446   1
  -6   1  18 -14.123   6.823   1
   6  -1  18 0.87769 6.25674   1
  -1  -5  18 1.25566 7.08570   1
  -5   6  18 6.77481 7.19029   1
   5  -6  18 -6.5407  6.9325   1
   1  -6 -18 4.16680 6.96250   1
   5   1  18 4.79777 6.24806   1
  -5  -1  18 -10.984   6.897   1
   5  -6 -18 0.48381 6.58300   1
  -1   6  18 0.52041 6.49645   1
  -1  -5 -18 -4.7484  6.5219   1
   1  -6  18 -5.6873  7.1306   1
   6  -5  18 -8.9208  6.8943   1
  -6   5  18 -16.070   6.915   1
   0  -6 -18 44.8193  8.1788   1
   0  -6  18 31.5826  8.0762   1
  -6   0  18 44.4934  8.4090   1
  -6   6  18 31.8455  8.2505   1
   0   6  18 35.8924  7.2178   1
   6  -6  18 30.4364  7.9529   1
   6   0  18 29.8653  7.1067   1
   6  -6 -18 25.8748  7.3906   1
   7  -3  18 0.91086 6.67921   1
  -4   7  18 -3.6117  7.0700   1
   3   4  18 2.00348 5.99443   1
   3  -7 -18 8.00325 7.15336   1
   4  -7  18 16.6800  7.7149   1
  -7   3  18 13.2598  7.7550   1
  -3  -4  18 8.46711 7.59770   1
   4  -7 -18 2.37361 7.04583   1
  -7   4  18 1.46615 7.55855   1
   3  -7  18 9.15893 7.62880   1
  -3   7  18 0.10253 6.89217   1
   7  -4  18 9.84793 7.07142   1
   4   3  18 6.66661 5.89117   1
   7  -2  18 14.0624  6.8006   1
   2  -7 -18 16.3260  7.3521   1
   5  -7  18 14.7460  7.6983   1
  -7   2  18 11.2818  7.7394   1
   2   5  18 -0.4452  6.2563   1
  -5   7  18 19.8722  7.5499   1
  -2  -5  18 0.34426 7.36903   1
   2  -7  18 1.05328 7.39306   1
   5   2  18 14.2706  6.1710   1
   5  -7 -18 10.8905  7.1420   1
  -7   5  18 3.01273 7.60444   1
  -2  -5 -18 6.37208 7.05819   1
  -2   7  18 15.4921  7.0683   1
   7  -5  18 8.86582 6.91666   1
   6  -7  18 -6.5451  7.1420   1
   7  -1  18 -4.5573  6.3159   1
  -6   7  18 -8.5004  7.1771   1
  -7   1  18 6.97913 7.55605   1
   1   6  18 -6.7062  6.1245   1
   7  -6 -18 -1.1360  6.4038   1
  -1  -6  18 -5.9352  7.2369   1
   1  -7 -18 -15.277   6.687   1
   6   1  18 10.3864  6.3451   1
  -1   7  18 1.14425 6.69244   1
  -7   6  18 -4.1216  7.4531   1
   1  -7  18 -3.5240  7.4365   1
   7  -6  18 -18.058   6.625   1
   6  -7 -18 -3.3084  6.7039   1
  -1  -6 -18 -10.113   6.987   1
   7   0  18 39.5620  7.0805   1
   0  -7  18 56.3208  9.0389   1
  -7   7  18 33.7495  8.6194   1
   0   7  18 42.9334  7.4863   1
   0  -7 -18 33.7132  8.1031   1
   7  -7  18 46.1241  8.5596   1
   7  -7 -18 35.2007  7.8057   1
   4  -8  18 6.58606 7.71534   1
   8  -4  18 23.5870  7.3368   1
   4   4  18 9.64722 5.87420   1
  -8   4  18 19.5607  7.9433   1
   4  -8 -18 10.8397  7.6580   1
  -4   8  18 17.9410  7.5664   1
  -5   8  18 3.70870 7.29297   1
   5  -8  18 -6.9769  7.3278   1
  -8   3  18 16.7433  7.9726   1
   3  -8 -18 -2.3516  7.1237   1
   3   5  18 1.28033 5.70965   1
   8  -3  18 4.40760 6.76495   1
  -3   8  18 -0.1883  6.9097   1
   5   3  18 4.63326 5.94100   1
  -8   5  18 -6.7348  7.4358   1
   3  -8  18 -6.3520  7.4072   1
   5  -8 -18 -10.310   6.763   1
   8  -5  18 -1.4021  6.8101   1
   2   6  18 -1.8575  5.7392   1
   8  -6 -18 4.99468 6.51629   1
   2  -8 -18 -1.9710  7.3469   1
  -6   8  18 0.86308 7.37065   1
   6  -8  18 7.16116 7.68954   1
   8  -2  18 -0.0319  6.5722   1
   6  -8 -18 -8.6554  6.7569   1
   6   2  18 -3.4216  5.7359   1
   2  -8  18 -9.4824  7.3692   1
  -8   6  18 9.47190 7.81028   1
   8  -6  18 -2.3068  7.1341   1
  -2   8  18 0.22482 6.72132   1
  -7   8  18 7.11783 7.78879   1
   8  -7 -18 10.1146  6.8398   1
   7  -8  18 3.27945 7.66954   1
   1  -8 -18 -4.7959  7.3335   1
   1   7  18 25.4951  6.5874   1
   8  -1  18 13.1944  6.4416   1
  -1   8  18 1.11115 6.49716   1
   8  -7  18 0.14038 7.51285   1
   1  -8  18 11.2301  7.8928   1
   7  -8 -18 1.21575 6.96567   1
  -8   7  18 9.54388 7.88974   1
   7   1  18 13.2153  6.1323   1
   8   0  18 16.7668  6.2028   1
  -8   8  18 19.3567  8.2348   1
   8  -8  18 -1.2877  7.7198   1
   0   8  18 10.5375  6.4419   1
   8  -8 -18 16.5688  7.3078   1
   4  -9 -18 -11.421   7.149   1
   4   5  18 8.02446 5.53249   1
  -9   4  18 -0.1589  7.6410   1
  -5   9  18 4.98520 7.46900   1
   5  -9  18 -7.5236  7.4475   1
   9  -4  18 -3.8777  6.7070   1
  -4   9  18 16.5283  7.5445   1
   4  -9  18 2.45195 7.73662   1
   5  -9 -18 -8.5377  7.0301   1
   5   4  18 1.98118 5.45651   1
  -9   5  18 -1.9938  7.6515   1
   9  -5  18 -3.3116  6.8332   1
   3  -9 -18 5.72966 7.47148   1
   9  -3  18 1.13328 6.67468   1
  -6   9  18 -2.5150  7.4316   1
   6  -9  18 -15.354   7.420   1
   3   6  18 -1.4022  5.4440   1
  -9   6  18 1.10994 7.89268   1
   6  -9 -18 8.34015 7.57943   1
   3  -9  18 -9.3906  7.5401   1
   6   3  18 -3.3650  5.3211   1
  -3   9  18 -6.6197  6.8098   1
   9  -6  18 2.88909 7.17218   1
   9  -2  18 -0.6957  6.4330   1
   2   7  18 1.44383 5.81091   1
  -7   9  18 -8.1381  7.5198   1
   2  -9 -18 1.40027 7.63427   1
   7  -9  18 -0.9386  7.7718   1
   9  -7 -18 -2.0110  6.4037   1
   2  -9  18 -13.173   7.473   1
   7  -9 -18 -7.0732  7.3121   1
  -9   7  18 3.37487 8.01337   1
  -2   9  18 3.17954 7.02132   1
   7   2  18 3.66549 5.39388   1
   9  -7  18 -6.4323  7.3591   1
   8  -9  18 -0.6094  7.9486   1
   1   8  18 12.0839  6.2205   1
   9  -1  18 14.0125  6.2878   1
   9  -8 -18 -5.2410  6.7692   1
  -8   9  18 5.72160 8.16029   1
   9  -8  18 0.05560 7.82879   1
   1   8 -18 5.68591 5.04359   1
   8  -9 -18 0.61735 7.30973   1
  -1   9  18 -1.2974  6.6695   1
  -9   8  18 -2.5010  8.0629   1
   8   1  18 1.91936 5.43424   1
  -9   9  18 -2.0177  8.2588   1
   9   0  18 0.23375 5.42352   1
   0   9 -18 5.68053 5.44517   1
   9  -9 -18 0.09510 7.10721   1
   0   9  18 1.63053 6.22883   1
   9  -9  18 1.80166 8.14039   1
   5 -10  18 -3.5135  8.1483   1
   5 -10 -18 1.28038 7.69653   1
   5   5  18 -6.8501  4.7718   1
  10  -5  18 9.89134 7.40246   1
  -5  10  18 -19.725   6.834   1
  10  -4  18 -6.5432  6.6847   1
   4 -10 -18 3.08904 7.73373   1
   6 -10  18 -5.3962  8.0020   1
   4   6  18 3.35286 5.14255   1
  -6  10  18 -15.620   7.184   1
  -4  10  18 0.64684 7.34202   1
  10  -6  18 -2.6965  7.1894   1
 -10   6  18 -7.0734  8.1000   1
   6   4  18 1.34851 4.72934   1
   6 -10 -18 0.21966 7.71070   1
   4 -10  18 -0.8862  8.0051   1
  10  -3  18 -6.5302  6.4120   1
  10  -7 -18 7.01638 6.74227   1
   7 -10  18 -9.7364  7.9656   1
   3 -10 -18 -4.5449  7.9486   1
  -7  10  18 -2.9205  7.7882   1
   3   7  18 13.2227  5.4462   1
   7 -10 -18 4.68259 7.56078   1
  10  -7  18 -6.0239  7.6856   1
   3 -10  18 -9.6245  7.9714   1
 -10   7  18 -4.1864  8.3370   1
  -3  10  18 -1.2669  7.0573   1
  10  -2  18 -5.5452  6.1582   1
  10  -8 -18 6.07248 7.02937   1
  -8  10  18 0.73173 8.24912   1
  -2  10 -18 8.22755 5.96953   1
   8 -10  18 -5.4615  8.2217   1
   2   8  18 1.59757 5.52537   1
   8 -10 -18 0.14340 7.50402   1
   2   8 -18 -0.3056  4.2124   1
  -2  10  18 10.8853  7.3441   1
  10  -8  18 -9.0853  7.6824   1
 -10   8  18 3.54887 8.49099   1
   9 -10  18 -10.954   8.326   1
   1   9  18 -8.5871  5.5079   1
  10  -1  18 -1.7479  5.5326   1
  -1  10 -18 -2.2116  5.5317   1
  -9  10  18 -0.0377  8.3842   1
   9 -10 -18 6.43844 7.83384   1
   1   9 -18 -4.3130  4.4453   1
  -1  10  18 -3.8047  6.6643   1
 -10   9  18 -5.6031  8.3642   1
 -10  10  18 22.5686  9.2584   1
   0  10 -18 7.49909 5.15348   1
   0  10  18 6.01240 6.19083   1
   5 -11 -18 9.77861 8.41912   1
  11  -5  18 6.98686 7.27840   1
   6 -11  18 1.44847 8.76789   1
  11  -6  18 7.41097 7.62511   1
   5 -11  18 9.48523 8.91552   1
   6 -11 -18 6.29588 8.39440   1
   4 -11 -18 -6.6155  8.0587   1
  -4  11 -18 16.5489  6.6386   1
   7 -11  18 7.70048 8.90133   1
  11  -4  18 11.0822  7.1113   1
   4 -11  18 1.70724 8.78335   1
   7 -11 -18 -6.8339  8.0812   1
 -11   7  18 -4.8521  8.4600   1
   8 -11  18 17.6105  9.3892   1
  -3  11 -18 33.2888  6.6655   1
  11  -3  18 31.2670  7.0688   1
 -11   8  18 4.82680 8.94691   1
   8 -11 -18 9.50616 8.22169   1
  11  -2  18 -5.5341  5.5649   1
  -2  11 -18 -5.1106  5.6608   1
  -2  11  18 0.02513 6.90212   1
 -11   9  18 -1.8000  8.6287   1
   0   0  19 -5.3300  6.6216   1
   0  -1  19 68.3135  8.4900   1
   1  -1  19 62.9344  8.5432   1
   1   0  19 67.7679  8.3784   1
   0   1  19 55.1784  8.3791   1
  -1   0  19 64.9220  8.5537   1
  -1   1  19 70.0093  8.5282   1
   1   1  19 11.5679  6.8197   1
   2  -1  19 2.13084 6.79189   1
  -1  -1  19 2.16293 7.04904   1
  -2   1  19 4.94297 7.01065   1
   1  -2  19 -3.2313  6.9634   1
  -1   2  19 -9.0588  6.5376   1
  -2   0  19 3.17770 7.01746   1
   0   2  19 -9.4421  6.5796   1
   2   0  19 0.08216 6.69617   1
   0  -2  19 5.19542 6.95514   1
  -2   2  19 1.36319 7.17189   1
   2  -2  19 10.5062  6.9458   1
   2  -3  19 29.8065  7.6345   1
   1   2  19 28.8467  7.1661   1
   3  -1  19 32.1786  7.6508   1
  -2   3  19 35.8305  7.9983   1
  -3   1  19 32.0380  7.8719   1
  -1  -2  19 36.6997  8.0751   1
   2   1  19 37.7068  7.4858   1
  -3   2  19 29.5163  8.1092   1
   1  -3  19 39.7796  7.9439   1
  -1   3  19 36.2566  7.7291   1
  -2  -1  19 18.7341  7.5429   1
   3  -2  19 37.6849  7.7677   1
   3   0  19 43.4622  7.7854   1
  -3   0  19 61.1205  8.8357   1
   0   3  19 67.0401  8.2865   1
   3  -3  19 58.2522  8.5252   1
  -3   3  19 48.8539  8.6720   1
   0  -3  19 85.3953  9.1149   1
   2   2  19 -0.9523  6.3751   1
  -4   2  19 4.09251 7.57327   1
  -2   4  19 -3.3389  6.8894   1
   4  -2  19 -2.3922  6.6229   1
   2  -4  19 2.50354 7.38352   1
  -2  -2  19 3.01526 7.13476   1
   1   3  19 -3.5737  6.3484   1
  -1  -3  19 2.75658 7.16578   1
  -4   1  19 1.84217 7.41840   1
   4  -1  19 -2.9703  6.6550   1
   3  -4  19 10.3419  7.3712   1
  -3   4  19 -2.5535  7.2479   1
   4  -3  19 15.0357  7.1343   1
  -1   4  19 11.7351  7.0340   1
   1  -4  19 1.82680 7.17424   1
  -4   3  19 -3.5110  7.3074   1
  -3  -1  19 8.08314 7.46891   1
   3   1  19 7.43399 6.62138   1
   4  -4  19 83.1744  9.4459   1
   4   0  19 91.5800  9.1144   1
   0   4  19 112.651   9.579   1
   0  -4  19 112.217  10.164   1
  -4   4  19 81.9229  9.9542   1
  -4   0  19 104.341  10.192   1
   5  -2  19 -4.7228  6.6270   1
  -3   5  19 -2.6089  7.1973   1
   2   3  19 -1.0631  6.3954   1
   2  -5 -19 2.08694 6.94697   1
  -5   2  19 -9.5110  7.4517   1
   3  -5  19 -10.519   6.859   1
  -2  -3  19 -5.9688  7.2160   1
  -3  -2  19 -11.705   6.892   1
   5  -3  19 0.35574 6.64054   1
   3  -5 -19 -5.4800  6.6493   1
  -2   5  19 -8.2653  6.8267   1
   3   2  19 -0.0211  6.3976   1
  -5   3  19 1.00359 7.49179   1
   2  -5  19 -3.3184  7.1111   1
   5  -1  19 8.06088 6.76089   1
  -5   1  19 13.2995  8.1605   1
  -1  -4  19 25.0872  7.8178   1
   1  -5 -19 29.8678  7.7607   1
   1   4  19 21.1732  6.8468   1
  -4   5  19 21.3796  7.7651   1
   4  -5  19 7.74981 7.40029   1
   4  -5 -19 6.81405 7.03464   1
  -4  -1  19 15.1283  7.7031   1
   1  -5  19 6.05680 7.76361   1
  -5   4  19 13.6409  7.8022   1
  -1   5  19 22.9468  7.3579   1
   5  -4  19 3.75449 7.02216   1
   4   1  19 16.1134  6.6896   1
   0  -5  19 9.97036 7.45778   1
  -5   0  19 8.63911 7.89788   1
   5   0  19 10.8066  6.7040   1
   5  -5  19 24.1429  7.8244   1
   0   5  19 4.43274 6.74341   1
  -5   5  19 5.01711 7.52718   1
   0  -5 -19 5.02820 7.10103   1
  -3  -3  19 -9.4784  7.1674   1
   3   3  19 -1.4049  6.3101   1
   3  -6 -19 1.65191 7.09684   1
   3  -6  19 4.82774 7.42360   1
  -3   6  19 3.60351 7.30616   1
   6  -3  19 2.52060 6.86631   1
  -6   3  19 15.7514  7.9951   1
  -2  -4  19 24.2000  7.9796   1
   2  -6 -19 -5.3174  7.0759   1
   4  -6  19 17.8031  7.8651   1
   6  -2  19 8.83861 6.98658   1
  -6   2  19 18.3355  8.1537   1
  -4   6  19 23.9028  7.9235   1
   2   4  19 11.3968  6.6007   1
   2  -6  19 9.98415 7.83119   1
   4  -6 -19 7.16410 7.28478   1
  -2   6  19 14.1036  7.4346   1
   6  -4  19 24.4755  7.6019   1
  -6   4  19 12.9234  7.9124   1
  -4  -2  19 8.02058 7.67517   1
   4   2  19 28.2847  6.8525   1
   1  -6 -19 7.96478 7.26153   1
  -6   1  19 16.0141  8.1026   1
   1   5  19 6.65318 6.57372   1
   6  -1  19 6.94511 6.86224   1
   5  -6  19 -11.358   7.201   1
  -1  -5  19 8.84725 7.72776   1
  -5   6  19 5.69357 7.58708   1
   5   1  19 0.51073 6.50335   1
  -5  -1  19 -5.1425  7.2851   1
   1  -6  19 2.13529 7.73570   1
  -1   6  19 9.09657 6.81511   1
   5  -6 -19 6.26764 7.05359   1
  -6   5  19 -1.4571  7.7057   1
  -1  -5 -19 13.3015  7.4431   1
   6  -5  19 -1.4399  7.1175   1
  -6   0  19 11.2183  8.0955   1
   6  -6  19 2.23041 7.32265   1
   6   0  19 5.75041 6.49606   1
   0  -6 -19 6.40642 7.25474   1
   6  -6 -19 11.7120  6.9666   1
  -6   6  19 3.21987 7.78476   1
   0  -6  19 15.5020  7.8628   1
   0   6  19 -12.271   6.415   1
   7  -3  19 32.0093  7.8300   1
  -7   3  19 51.1757  9.0592   1
   3   4  19 31.0166  7.2706   1
  -4   7  19 26.4925  8.1792   1
   3  -7 -19 44.0678  8.5252   1
   4  -7  19 39.1741  8.6474   1
   7  -4  19 34.1452  7.8101   1
  -3   7  19 41.1000  8.2628   1
   3  -7  19 35.7316  8.5805   1
  -7   4  19 35.2495  8.7506   1
   4  -7 -19 41.1817  8.3795   1
   4   3  19 37.8062  7.1466   1
   5  -7  19 3.44876 7.63207   1
   2  -7 -19 1.68461 7.42846   1
   7  -2  19 -1.1981  6.8952   1
  -5   7  19 8.22363 7.63839   1
  -7   2  19 12.2811  8.1140   1
   2   5  19 -1.8463  6.3497   1
  -7   5  19 -0.7185  7.8404   1
   7  -5  19 0.77027 7.32761   1
   5   2  19 1.70686 6.13414   1
   2  -7  19 -14.800   7.291   1
  -2   7  19 -8.2137  6.7965   1
   5  -7 -19 9.70583 7.31915   1
  -6   7  19 4.62926 7.76076   1
   6  -7  19 -3.5734  7.5986   1
   1   6  19 15.3103  6.7627   1
   7  -6 -19 12.9703  7.0319   1
   7  -1  19 9.25041 6.87417   1
   1  -7 -19 7.92927 7.63735   1
   6  -7 -19 20.9555  7.7396   1
  -1   7  19 10.6229  7.0322   1
  -7   6  19 4.14147 8.06476   1
  -1  -6 -19 3.35481 7.45137   1
   6   1  19 13.1128  6.6024   1
   1  -7  19 -10.280   7.428   1
   7  -6  19 21.1261  7.9740   1
   7  -7  19 -2.6694  7.6192   1
   0   7  19 -15.279   6.268   1
   7   0  19 13.0821  6.6183   1
   0  -7 -19 -6.1202  7.3687   1
   7  -7 -19 5.28776 7.04868   1
  -7   7  19 -8.3138  7.6836   1
   8  -4  19 0.00741 7.18597   1
  -4   8  19 -0.9807  7.2883   1
   4  -8  19 -5.6983  7.7584   1
  -8   4  19 7.74258 8.23246   1
   4  -8 -19 0.17625 7.37355   1
   4   4  19 0.31460 6.03258   1
   8  -3  19 9.27485 7.37596   1
  -8   3  19 12.6789  8.2762   1
   5  -8  19 29.6531  8.4398   1
   3  -8 -19 22.4934  7.9870   1
  -5   8  19 11.9963  7.8972   1
   3   5  19 20.4404  6.5356   1
   5  -8 -19 5.35306 7.75296   1
  -3   8  19 10.7076  7.5805   1
   5   3  19 21.9933  6.4651   1
   8  -5  19 30.0147  7.8651   1
  -8   5  19 12.5160  8.5161   1
   3  -8  19 16.8852  8.3169   1
   6  -8  19 7.79530 7.98929   1
   2   6  19 -6.3369  6.0489   1
   8  -2  19 -2.3758  6.6883   1
   2  -8 -19 -3.5118  7.4232   1
  -6   8  19 -10.009   7.428   1
   6  -8 -19 0.57517 7.38685   1
   2  -8  19 -1.3701  7.7874   1
   6   2  19 1.21091 6.11786   1
  -8   6  19 10.5963  8.2905   1
   8  -6  19 -0.9930  7.4034   1
  -2   8  19 -0.2741  7.0066   1
   1  -8 -19 34.4987  8.5116   1
   7  -8  19 25.7738  8.5482   1
   1   7  19 22.5428  7.0404   1
  -7   8  19 23.9898  8.7518   1
   8  -7 -19 16.2456  7.4262   1
   8  -1  19 16.3747  7.0297   1
   8  -7  19 14.5225  8.3387   1
   7  -8 -19 21.8086  7.9771   1
   7   1  19 21.5826  6.7060   1
  -8   7  19 31.0470  8.7337   1
  -1   8  19 37.3288  7.6902   1
  -8   8  19 30.9250  9.0240   1
   8  -8  19 35.7788  9.1376   1
   8  -8 -19 36.5762  8.2109   1
   0   8  19 27.1114  7.2375   1
   8   0  19 26.4696  6.8649   1
   4   5  19 -1.7073  5.7617   1
   4  -9 -19 20.4706  8.3701   1
   9  -4  19 7.82003 7.39165   1
   5  -9  19 23.2854  8.7436   1
  -5   9  19 6.25282 7.84089   1
  -4   9  19 6.88430 7.58983   1
  -9   5  19 8.85559 8.41009   1
   5   4  19 7.92554 5.92639   1
   4  -9  19 8.31342 8.20518   1
   9  -5  19 -4.2228  7.3395   1
   5  -9 -19 33.0191  8.5792   1
   9  -3  19 -6.2716  6.8675   1
  -6   9  19 -7.3122  7.7487   1
   3  -9 -19 -1.4287  7.7111   1
   3   6  19 -8.5940  5.6509   1
   6  -9  19 11.7319  8.3655   1
   6  -9 -19 -2.6067  7.6098   1
   3  -9  19 6.44562 8.26061   1
   9  -6  19 -11.472   7.267   1
  -3   9  19 7.40732 7.30573   1
  -9   6  19 4.15890 8.35055   1
   6   3  19 -0.7731  5.8441   1
   2   7  19 10.8103  6.4195   1
   9  -7 -19 14.2376  7.2673   1
  -7   9  19 6.56502 8.52179   1
   7  -9  19 29.6141  8.9580   1
   2  -9 -19 18.7738  8.5583   1
   9  -2  19 13.3115  7.0213   1
   7  -9 -19 17.0419  8.1000   1
   9  -7  19 30.0075  8.4982   1
  -9   7  19 16.4266  8.8521   1
   7   2  19 18.7673  6.2308   1
  -2   9  19 13.0847  7.5216   1
   9  -8 -19 7.36981 7.34832   1
   8  -9  19 11.6595  8.8259   1
   1   8  19 0.37051 6.30109   1
   9  -1  19 5.81128 6.54044   1
  -8   9  19 -3.5989  8.2707   1
   8   1  19 1.23468 5.86468   1
   9  -8  19 -13.986   7.864   1
  -9   8  19 12.2537  8.8191   1
   8  -9 -19 20.3544  8.0204   1
  -1   9  19 6.82602 6.96714   1
   0   9 -19 -1.6568  5.4766   1
  -9   9  19 -24.021   8.188   1
   0   9  19 5.32527 6.73166   1
   9   0  19 3.89182 5.95332   1
   5 -10  19 2.63347 8.57033   1
   5 -10 -19 8.77843 8.64853   1
  10  -5  19 -16.897   7.179   1
   5   5  19 -6.2271  5.2666   1
  -5  10  19 -4.4287  7.7415   1
  -6  10  19 12.4632  8.2420   1
   4 -10 -19 3.26895 8.21165   1
   4   6  19 -6.2131  5.4860   1
   6 -10  19 -15.884   8.168   1
  10  -4  19 -4.2970  7.1574   1
   6   4  19 0.78089 5.25761   1
   4 -10  19 -5.1979  8.4313   1
   6 -10 -19 -5.7638  8.0780   1
  -4  10  19 -18.149   7.598   1
  10  -6  19 5.57419 7.90315   1
 -10   6  19 -3.2989  8.4045   1
   3 -10 -19 2.84920 8.54632   1
  10  -3  19 19.5120  7.3985   1
   7 -10  19 30.7032  9.6680   1
  -7  10  19 20.6293  8.8114   1
   3   7  19 23.7590  6.0778   1
   7 -10 -19 26.8954  8.7650   1
 -10   7  19 15.5258  9.3110   1
  10  -2  19 0.93744 6.65001   1
   8 -10  19 1.28632 8.59478   1
   2   8  19 12.1822  6.0326   1
  -2  10 -19 -1.1156  5.9515   1
 -10   8  19 -2.3795  8.7335   1
  -1  10 -19 4.83982 5.80214   1
  10  -1  19 -0.8846  5.9701   1
   1   9  19 2.19962 6.05374   1
   1   9 -19 -1.7887  4.7903   1
  -1  10  19 4.29284 6.91291   1
 -10   9  19 7.36257 9.02120   1
   6 -11  19 28.8036  9.8662   1
   5 -11 -19 22.9561  9.1128   1
   5 -11  19 18.3246  9.5474   1
   6 -11 -19 26.7994  8.9939   1
   0   0  20 48.7989  8.2686   1
  -1   1  20 4.03707 7.19034   1
   0  -1  20 10.7001  7.3833   1
   1   0  20 -4.1160  6.9461   1
   0   1  20 1.43411 6.85799   1
   1  -1  20 -3.2620  7.0458   1
  -1   0  20 3.70081 7.30303   1
   1   1  20 1.82481 6.87518   1
  -1   2  20 -1.2334  6.9693   1
   2  -1  20 -5.1997  6.8254   1
   1  -2  20 -4.1746  7.0733   1
  -1  -1  20 1.65313 7.14703   1
  -2   1  20 11.4411  7.4965   1
   0   2  20 -1.0429  6.8543   1
   0  -2  20 4.51511 7.31958   1
   2   0  20 10.4339  7.1735   1
  -2   2  20 3.84276 7.59168   1
  -2   0  20 6.76278 7.35941   1
   2  -2  20 -2.1315  7.2048   1
  -2   3  20 1.98852 7.21699   1
  -3   1  20 12.5946  7.7842   1
   2  -3  20 1.73042 7.43934   1
   1   2  20 -0.5301  6.7356   1
   3  -1  20 -12.676   6.711   1
  -1  -2  20 -2.2805  7.0616   1
   1  -3  20 3.93015 7.30365   1
  -3   2  20 9.02290 7.72480   1
  -1   3  20 -3.9964  6.8802   1
  -2  -1  20 -0.4733  7.2086   1
   2   1  20 -8.3012  6.7857   1
   3  -2  20 -4.4347  7.0461   1
   0  -3  20 23.3367  7.8772   1
   3   0  20 9.18357 7.26909   1
   3  -3  20 14.7539  7.6407   1
  -3   0  20 13.0410  7.9206   1
  -3   3  20 18.1951  7.9918   1
   0   3  20 10.7030  7.4002   1
  -2   4  20 4.03692 7.38666   1
   4  -2  20 -2.0120  6.9161   1
   2   2  20 7.09841 6.90361   1
  -2  -2  20 9.17898 7.62226   1
  -4   2  20 2.31420 7.84900   1
   2  -4  20 -0.5306  7.5484   1
  -1  -3  20 17.2837  7.8756   1
   1   3  20 7.87195 6.96917   1
   3  -4  20 18.5056  7.9694   1
  -4   1  20 36.6017  8.4299   1
   4  -1  20 0.32209 6.82862   1
  -3   4  20 12.8716  7.7269   1
  -1   4  20 13.7537  7.3842   1
   4  -3  20 14.8531  7.5726   1
  -4   3  20 24.3059  8.2669   1
  -3  -1  20 21.1839  7.9880   1
   3   1  20 15.5845  7.2548   1
   1  -4  20 11.0330  7.7628   1
  -4   0  20 -3.9590  7.5231   1
   0  -4  20 -9.5646  7.1960   1
  -4   4  20 3.92709 7.76937   1
   0   4  20 2.49034 7.00143   1
   4   0  20 0.28222 6.67558   1
   4  -4  20 8.70285 7.52877   1
   2   3  20 -7.8651  6.6160   1
   5  -2  20 5.34015 7.04138   1
  -5   2  20 -0.0374  7.8455   1
   3  -5  20 -4.1395  7.3101   1
  -3   5  20 -8.8886  7.2189   1
  -2  -3  20 -6.0725  7.4183   1
  -5   3  20 -4.8301  7.8031   1
   2  -5  20 -2.5360  7.5257   1
  -3  -2  20 -6.0924  7.2509   1
   3   2  20 -2.5932  6.6639   1
   5  -3  20 -3.4076  7.1498   1
  -2   5  20 4.08534 7.37927   1
   4  -5  20 12.7319  7.9061   1
  -1  -4  20 4.63994 7.65882   1
  -4   5  20 10.8515  8.1599   1
  -5   1  20 1.84390 7.85486   1
   1   4  20 0.04559 6.74686   1
   5  -1  20 4.15912 6.94357   1
   5  -4  20 10.5320  7.5850   1
   4   1  20 16.5530  7.0129   1
  -5   4  20 6.36787 8.12869   1
  -1   5  20 11.8358  7.1532   1
   1  -5  20 -10.614   7.528   1
  -4  -1  20 -1.7645  7.6017   1
   0   5  20 14.2348  7.2285   1
  -5   5  20 1.06211 8.10265   1
   0  -5  20 15.1753  8.1796   1
   5   0  20 10.8218  7.1989   1
  -5   0  20 16.3338  8.2041   1
   5  -5  20 6.82659 7.61647   1
   3  -6 -20 6.08179 7.25787   1
  -3  -3  20 0.14349 7.71145   1
  -6   3  20 -15.393   7.674   1
  -3   6  20 -9.2010  7.0743   1
   3  -6  20 0.66780 7.62799   1
   6  -3  20 -15.821   6.948   1
   3   3  20 7.63308 7.00473   1
   2   4  20 -13.159   6.428   1
  -2  -4  20 -0.7895  7.7996   1
   2  -6 -20 -1.5605  7.1635   1
  -6   2  20 4.96998 8.21493   1
   4  -6  20 3.80094 7.76277   1
  -4   6  20 18.8601  8.2321   1
   6  -2  20 4.68178 7.17873   1
   4  -6 -20 -0.2082  7.0649   1
  -6   4  20 -2.9785  7.6290   1
   6  -4  20 10.2865  7.4915   1
   4   2  20 -5.7471  6.3623   1
   2  -6  20 -15.450   7.283   1
  -2   6  20 12.5433  7.5421   1
  -4  -2  20 17.5559  8.0666   1
   1  -6 -20 1.22234 7.42053   1
   6  -1  20 -8.6147  6.7934   1
  -6   1  20 -20.221   7.599   1
  -5   6  20 5.59874 8.23708   1
  -1  -5  20 -13.570   7.516   1
   5  -6  20 -12.557   7.384   1
   1   5  20 -6.3030  6.6468   1
   1  -6  20 -19.019   7.394   1
  -5  -1  20 -5.9053  7.7628   1
  -6   5  20 -5.6191  7.7348   1
   5  -6 -20 -7.3350  6.8739   1
   5   1  20 5.22870 6.62422   1
  -1   6  20 -9.4085  6.5933   1
   6  -5  20 11.2156  7.8390   1
   6   0  20 18.4998  7.0227   1
   0  -6 -20 5.23348 7.61166   1
   0  -6  20 0.21329 7.92658   1
   0   6  20 -9.0106  6.7424   1
   6  -6 -20 -2.4313  6.9329   1
  -6   6  20 -10.066   7.708   1
   6  -6  20 14.3851  8.2925   1
   7  -3  20 2.83739 7.41492   1
  -7   3  20 13.0038  8.4674   1
  -4   7  20 4.28998 8.06534   1
   3  -7 -20 1.01815 7.52623   1
   3   4  20 -9.0728  6.4937   1
   4  -7  20 -6.8021  7.9500   1
  -7   4  20 -0.2282  8.3832   1
   7  -4  20 0.45759 7.35655   1
   3  -7  20 5.78372 8.26861   1
  -3   7  20 5.21072 7.55295   1
   4   3  20 2.94990 6.67688   1
   4  -7 -20 1.02224 7.60442   1
   5  -7  20 5.13190 8.11657   1
  -7   2  20 -14.208   7.873   1
   2   5  20 -8.0431  6.4604   1
  -5   7  20 6.86361 8.27833   1
   2  -7 -20 -24.191   6.987   1
   7  -2  20 6.66235 7.18173   1
   2  -7  20 -0.1446  8.0765   1
   5  -7 -20 -0.7541  7.3954   1
   5   2  20 -2.4735  6.5648   1
   7  -5  20 3.54814 7.62542   1
  -2   7  20 -6.9452  7.1415   1
  -7   5  20 -4.4072  8.2006   1
   7  -1  20 10.0096  7.2178   1
   1   6  20 -7.0090  6.6847   1
   1  -7 -20 -1.1384  7.7236   1
  -6   7  20 -10.906   7.987   1
   6  -7  20 -1.5725  8.1087   1
  -1   7  20 -7.3235  6.8163   1
  -7   6  20 7.66296 8.47814   1
  -1  -6 -20 -3.9564  7.5205   1
   6   1  20 -7.1279  6.7637   1
   1  -7  20 4.44538 8.19710   1
   6  -7 -20 5.93262 7.53277   1
   7  -6  20 -13.254   7.479   1
   0   7  20 17.9075  7.2555   1
   0  -7 -20 23.1352  8.3530   1
  -7   7  20 7.91652 8.60073   1
   7  -7 -20 15.0019  7.8233   1
   7   0  20 9.60753 7.16429   1
   7  -7  20 13.3000  8.4281   1
   4   4  20 1.64594 6.42434   1
   8  -4  20 9.75779 7.75247   1
   4  -8  20 15.6312  8.6570   1
  -8   4  20 -4.4829  8.4418   1
  -4   8  20 -0.8484  7.9953   1
   4  -8 -20 14.0897  7.9945   1
  -8   3  20 -3.8897  8.2111   1
  -5   8  20 8.44176 8.33062   1
   3  -8 -20 10.2994  8.1667   1
   8  -3  20 -6.9821  7.0226   1
   5  -8  20 -6.3962  8.1744   1
   3   5  20 0.82932 6.56922   1
  -3   8  20 0.66163 7.40000   1
   5  -8 -20 15.7156  8.2265   1
   5   3  20 -2.3588  6.4060   1
   3  -8  20 -20.598   7.717   1
  -8   5  20 8.89001 8.57048   1
   8  -5  20 -5.3467  7.5319   1
  -6   8  20 1.38819 8.12383   1
   2   6  20 2.70990 6.66672   1
   6  -8  20 -9.7485  8.0443   1
   8  -2  20 22.0034  7.6796   1
   2  -8 -20 4.15150 8.06017   1
   8  -6  20 -0.2616  7.7892   1
  -8   6  20 -5.4391  8.2789   1
   6   2  20 11.9732  6.8513   1
   6  -8 -20 4.66151 7.80228   1
  -2   8  20 21.6543  8.0409   1
   2  -8  20 14.4243  8.6552   1
   8  -1  20 7.30513 7.07211   1
   1  -8 -20 14.7856  8.5245   1
   1   7  20 9.51059 6.96592   1
   7  -8  20 -11.522   8.261   1
   8  -7 -20 -3.4258  7.0972   1
  -7   8  20 11.4739  8.8446   1
  -1   8  20 -1.7258  7.3255   1
   7  -8 -20 1.89657 7.66231   1
  -8   7  20 11.3562  8.9488   1
   8  -7  20 -4.4306  8.2930   1
   7   1  20 3.30142 6.69615   1
  -8   8  20 -1.1007  8.6720   1
   0   8  20 -6.8485  6.9809   1
   8   0  20 2.66165 6.72379   1
   8  -8  20 -1.5758  8.5347   1
   8  -8 -20 3.27927 7.61609   1
  -5   9  20 -20.952   7.674   1
   4  -9 -20 -2.7531  8.0560   1
   4   5  20 -0.8168  6.0992   1
   9  -4  20 -1.4306  7.6412   1
   5  -9  20 -3.4299  8.7484   1
  -4   9  20 -11.511   7.647   1
   9  -5  20 -6.7967  7.6501   1
   5  -9 -20 -1.8949  8.1037   1
  -9   5  20 -12.374   8.427   1
   5   4  20 3.20716 6.23349   1
   4  -9  20 1.65221 8.43591   1
   6  -9  20 -1.7985  8.4629   1
   3   6  20 -6.7851  6.1564   1
  -6   9  20 2.24472 8.45262   1
   9  -3  20 7.75421 7.82378   1
   3  -9 -20 3.16332 8.26249   1
   6  -9 -20 5.58127 8.12937   1
   6   3  20 0.72975 6.32981   1
  -3   9  20 2.14845 7.79650   1
   3  -9  20 3.88797 8.81961   1
  -9   6  20 -4.6471  8.9222   1
   7  -9  20 -5.7350  8.3583   1
   2  -9 -20 -3.3126  8.2844   1
   9  -2  20 -2.3510  7.1188   1
  -7   9  20 2.85045 8.45193   1
   2   7  20 -3.9826  6.5278   1
   7   2  20 0.19235 6.11048   1
  -9   7  20 4.33431 8.98709   1
   7  -9 -20 -3.7151  7.6346   1
   1   8  20 0.67795 6.55136   1
  -8   9  20 -7.9499  8.7268   1
   9  -1  20 -0.1783  6.6779   1
  -9   8  20 4.19926 8.87555   1
   8   1  20 -1.9502  6.2748   1
   5 -10  20 -6.8879  8.7474   1
   5   5  20 -1.3487  5.8337   1
   5 -10 -20 20.1895  8.8727   1
   4   6  20 -5.8349  5.8670   1
   6 -10  20 -10.250   8.812   1
   4 -10 -20 -2.6491  8.5589   1
   6 -10 -20 10.0698  8.6567   1
   6   4  20 5.30099 5.75286   1
 -10   6  20 -25.811   8.489   1
   4 -10  20 -2.3452  8.7834   1
   0   0  21 7.35819 7.54637   1
   0   1  21 50.8762  8.6112   1
   0  -1  21 43.6412  8.8284   1
   1   0  21 52.3548  8.8032   1
  -1   0  21 61.1452  9.1916   1
   1  -1  21 37.6889  8.4977   1
  -1   1  21 51.7899  9.0246   1
  -1  -1  21 -1.5178  7.3021   1
   2  -1  21 1.15387 7.50793   1
   1  -2  21 -8.8476  7.4276   1
  -2   1  21 -6.2423  7.3658   1
  -1   2  21 -8.7693  7.1510   1
   1   1  21 -2.5802  7.1086   1
  -2   0  21 0.69374 7.46265   1
   2   0  21 1.33795 7.12575   1
   2  -2  21 -9.9669  7.2646   1
  -2   2  21 7.18373 7.57656   1
   0  -2  21 3.91183 7.76448   1
   0   2  21 4.71420 7.29202   1
  -2   3  21 15.1088  7.9241   1
   3  -1  21 8.65224 7.71780   1
   2  -3  21 8.97138 7.85353   1
   1   2  21 10.4261  7.5503   1
  -3   1  21 20.0652  8.4549   1
  -1  -2  21 10.0465  7.9480   1
  -2  -1  21 13.0874  7.9631   1
   2   1  21 -6.9672  7.2291   1
  -1   3  21 18.0475  7.7688   1
   3  -2  21 14.9748  7.8082   1
   1  -3  21 6.40222 7.91342   1
  -3   2  21 14.5584  8.0902   1
   0   3  21 34.2858  8.0520   1
   3   0  21 17.3895  7.9109   1
   0  -3  21 20.2222  8.3345   1
  -3   0  21 31.1521  8.4927   1
   3  -3  21 32.0829  8.4759   1
  -3   3  21 29.8914  8.7444   1
   4  -2  21 -10.270   6.979   1
   2  -4  21 -13.719   7.428   1
  -2   4  21 6.68860 7.77626   1
   2   2  21 -4.8524  6.9350   1
  -4   2  21 -2.1374  7.8184   1
  -2  -2  21 -10.943   7.573   1
  -3   4  21 -1.1749  7.7110   1
  -4   1  21 -4.1503  7.8192   1
   3  -4  21 -9.1954  7.5129   1
   1   3  21 -11.319   6.829   1
   4  -1  21 -5.0110  7.0806   1
  -1  -3  21 7.48439 7.98928   1
   4  -3  21 -7.4611  7.2367   1
  -4   3  21 6.40862 8.33326   1
   1  -4  21 -0.4487  7.8600   1
   3   1  21 8.49106 7.32170   1
  -1   4  21 0.46862 7.45119   1
  -3  -1  21 -1.7048  7.8764   1
  -4   4  21 54.0333  9.3972   1
   4   0  21 48.7698  8.2973   1
  -4   0  21 33.4783  8.9698   1
   0   4  21 43.6534  8.3308   1
   4  -4  21 46.3509  9.0990   1
   0  -4  21 37.9254  9.0809   1
  -2  -3  21 6.90233 8.02214   1
   3  -5  21 -6.5921  7.3977   1
  -3   5  21 1.77992 7.77196   1
   5  -2  21 -5.7073  7.1694   1
   2   3  21 -6.6646  6.9049   1
  -5   2  21 14.0655  8.5592   1
  -3  -2  21 -0.8392  7.9676   1
  -5   3  21 -7.3993  8.1638   1
  -2   5  21 2.07948 7.64634   1
   3   2  21 -10.878   6.937   1
   5  -3  21 -1.6650  7.4067   1
   2  -5  21 -4.8414  7.8665   1
  -1  -4  21 11.0063  8.2460   1
  -4   5  21 13.4674  8.3920   1
  -5   1  21 4.84730 8.35094   1
   5  -1  21 -5.7158  7.0885   1
   1   4  21 23.8263  7.6678   1
   4  -5  21 7.96230 7.91427   1
  -4  -1  21 15.9100  8.3177   1
   1  -5  21 5.68954 8.35458   1
  -1   5  21 7.60015 7.49365   1
   4   1  21 3.63197 7.05385   1
  -5   4  21 3.27561 8.36864   1
   5  -4  21 14.5018  8.0546   1
   0   5  21 -9.5247  6.7410   1
   0  -5  21 -2.4901  7.9714   1
  -5   0  21 8.09927 8.51525   1
  -5   5  21 4.53738 8.44444   1
   5  -5  21 -5.5793  7.7947   1
   5   0  21 6.36971 7.26424   1
  -3   6  21 -0.2584  7.8818   1
   3  -6  21 -7.1603  7.8583   1
   6  -3  21 3.06860 7.65955   1
   3  -6 -21 0.67459 7.63754   1
   3   3  21 -10.527   6.657   1
  -6   3  21 7.17584 8.64172   1
  -3  -3  21 12.1569  8.4529   1
   2   4  21 18.6533  7.2782   1
   6  -2  21 10.9266  7.8161   1
  -4   6  21 10.3295  8.4602   1
  -6   2  21 7.72127 8.84951   1
   4  -6  21 7.96588 8.23141   1
  -2  -4  21 13.9372  8.3705   1
   2  -6 -21 15.5932  8.1407   1
   4   2  21 25.7498  7.4907   1
   2  -6  21 16.1451  8.5644   1
  -2   6  21 5.69829 7.84198   1
   6  -4  21 12.3026  7.9494   1
  -6   4  21 18.5412  8.9343   1
   5  -6  21 -5.2859  8.0863   1
  -1  -5  21 -0.7297  8.2567   1
   1   5  21 -9.5014  6.8971   1
  -6   1  21 -11.719   8.289   1
  -5   6  21 -9.3787  8.3082   1
   1  -6 -21 0.70552 7.85086   1
   6  -1  21 -5.5378  7.2866   1
  -6   5  21 1.40679 8.40862   1
   5   1  21 -0.2132  7.2419   1
  -1   6  21 6.98644 7.62189   1
   1  -6  21 4.46183 8.37610   1
   6  -5  21 -7.3799  7.7729   1
   6  -6  21 7.35867 8.35263   1
  -6   6  21 7.90523 8.74930   1
   6   0  21 2.60217 7.18070   1
   0   6  21 -6.4084  7.1109   1
   0  -6  21 14.3976  8.8350   1
   4  -7  21 21.4417  9.0001   1
   3  -7 -21 24.9672  8.5993   1
   3   4  21 31.3755  7.8116   1
   7  -3  21 29.6007  8.4835   1
  -7   3  21 34.4449  9.8144   1
  -4   7  21 21.8163  8.7944   1
   4   3  21 23.4001  7.5889   1
  -7   4  21 30.5207  9.5120   1
   7  -4  21 37.0369  8.6830   1
   3  -7  21 40.0933  9.4877   1
   4  -7 -21 28.3432  8.5455   1
  -3   7  21 28.1673  8.8218   1
   5  -7  21 -1.6456  8.2478   1
   2   5  21 17.9989  7.5385   1
  -5   7  21 -11.249   8.406   1
  -7   2  21 -11.227   8.328   1
   7  -2  21 -1.2343  7.3495   1
   2  -7 -21 -1.6022  8.0499   1
  -7   5  21 3.70244 8.73178   1
  -2   7  21 -0.1594  7.7045   1
   7  -5  21 -8.7301  7.8228   1
   5   2  21 -7.7167  6.7866   1
   2  -7  21 3.67766 8.39170   1
   5  -7 -21 -11.456   7.313   1
   7  -1  21 2.11988 7.62668   1
   6  -7  21 -3.0093  8.3910   1
  -6   7  21 8.61806 8.98573   1
   1  -7 -21 2.32478 8.17967   1
   1   6  21 -7.4908  7.0043   1
   1  -7  21 -7.0450  8.3249   1
   6  -7 -21 -2.9684  7.4637   1
  -1   7  21 2.52736 7.61255   1
   6   1  21 -2.0367  7.2644   1
  -7   6  21 -9.7719  8.4784   1
   7  -6  21 -2.7589  8.1955   1
   0   7  21 -9.3915  7.0487   1
   7  -7  21 -5.6021  8.4509   1
   7  -7 -21 -4.8914  7.5231   1
  -7   7  21 0.93818 8.95080   1
   0  -7 -21 8.92393 8.61387   1
   7   0  21 4.99630 7.20637   1
   4   4  21 -0.7979  6.7571   1
  -8   4  21 1.95135 8.99402   1
  -4   8  21 1.44304 8.44390   1
   4  -8 -21 -14.560   7.804   1
   4  -8  21 -9.6520  8.3854   1
   3  -8 -21 30.4346  9.1482   1
   5  -8  21 14.0259  9.0782   1
   8  -3  21 12.8622  7.9614   1
   3   5  21 16.4223  7.3608   1
  -5   8  21 -2.5028  8.7498   1
   5   3  21 11.3985  7.2461   1
   3  -8  21 13.8884  9.2334   1
   5  -8 -21 28.7305  8.9016   1
  -8   5  21 1.51569 9.03892   1
  -6   8  21 4.26990 8.92332   1
   2  -8 -21 5.97710 8.83770   1
   6  -8  21 1.91491 8.72042   1
   2   6  21 6.54419 7.19641   1
   8  -2  21 6.00324 7.94866   1
   2  -8  21 -1.4670  8.6200   1
  -8   6  21 18.2949  9.3831   1
   6   2  21 -11.889   6.713   1
   6  -8 -21 4.31520 8.05882   1
   8  -1  21 14.1534  7.8552   1
  -7   8  21 29.4139  9.7413   1
   1   7  21 21.0725  7.7008   1
   1  -8 -21 23.7786  9.0382   1
  -8   7  21 12.8290  9.3539   1
   7   1  21 7.41581 7.14850   1
   4  -9 -21 -5.0257  8.6277   1
   5  -9  21 -8.6348  8.9035   1
   4   5  21 -3.1646  6.4673   1
  -9   5  21 5.10136 9.12990   1
   4  -9  21 1.31419 8.78999   1
   5  -9 -21 11.5923  8.9654   1
   5   4  21 -4.7224  6.5806   1
   3   6  21 -12.301   6.365   1
  -9   6  21 -2.6854  9.1270   1
   0   0  22 12.5357  8.1082   1
   1   0  22 2.47181 7.68026   1
  -1   1  22 0.17162 7.85987   1
   1  -1  22 6.73687 7.94433   1
   0   1  22 2.22553 7.77399   1
  -1   0  22 6.88789 7.96864   1
   0  -1  22 18.2980  8.2467   1
  -2   1  22 -5.6054  7.6251   1
  -1  -1  22 -3.5376  7.8596   1
   2  -1  22 -5.4879  7.4779   1
  -1   2  22 -5.1646  7.6700   1
   1   1  22 6.31657 7.82975   1
   1  -2  22 5.39204 8.02030   1
   0  -2  22 11.2805  8.1900   1
   2   0  22 18.6103  8.0755   1
  -2   2  22 10.7391  7.9757   1
  -2   0  22 9.71004 8.28404   1
   2  -2  22 2.68686 8.04541   1
   0   2  22 5.67847 7.76590   1
  -2   3  22 7.63221 8.02083   1
   1   2  22 -2.1448  7.4790   1
  -3   1  22 -15.999   7.580   1
  -1  -2  22 0.75870 8.07046   1
   3  -1  22 -3.2728  7.7661   1
   2  -3  22 7.90371 8.21024   1
   3  -2  22 -6.8761  7.7153   1
  -3   2  22 3.53533 8.24789   1
  -2  -1  22 -14.052   7.708   1
  -1   3  22 -6.8197  7.6645   1
   2   1  22 -4.0485  7.7280   1
   1  -3  22 -21.608   7.526   1
  -3   3  22 2.88054 8.08414   1
   0  -3  22 3.33960 8.26571   1
   3   0  22 -0.3723  7.5699   1
  -3   0  22 12.9182  8.4749   1
   3  -3  22 5.86691 8.07140   1
   0   3  22 -1.2516  7.4430   1
  -4   2  22 8.70949 8.61513   1
   2   2  22 -1.3857  7.3289   1
   2  -4  22 -5.7657  7.9836   1
   4  -2  22 -13.736   7.441   1
  -2   4  22 -4.0464  7.8373   1
  -2  -2  22 -4.7704  7.9576   1
  -1  -3  22 1.00079 8.41728   1
  -4   1  22 0.56153 8.23733   1
   3  -4  22 2.73207 8.13033   1
   1   3  22 2.11103 7.54817   1
  -3   4  22 13.6345  8.5233   1
   4  -1  22 10.3006  7.8422   1
  -1   4  22 -16.855   7.295   1
   1  -4  22 3.03792 8.37304   1
   4  -3  22 2.71515 7.85372   1
  -4   3  22 -3.3663  8.2011   1
   3   1  22 -1.7061  7.3253   1
  -3  -1  22 -3.5673  8.0683   1
  -4   0  22 -2.1224  8.2550   1
  -4   4  22 3.15932 8.49785   1
   4   0  22 8.35673 7.64806   1
   0   4  22 -15.140   7.138   1
   4  -4  22 0.01628 8.10296   1
   0  -4  22 12.9843  8.5085   1
   2   3  22 -4.6142  7.2835   1
  -2  -3  22 10.2291  8.7556   1
   3  -5  22 -8.2830  7.9041   1
  -5   2  22 -20.407   8.168   1
   5  -2  22 -1.9644  7.8408   1
  -3   5  22 -1.9549  8.2191   1
  -5   3  22 -2.5987  8.6956   1
   3   2  22 4.45793 7.57057   1
  -2   5  22 -4.0441  7.7733   1
  -3  -2  22 2.00618 8.37133   1
   5  -3  22 -13.618   7.560   1
   2  -5  22 -3.9885  8.2760   1
   1   4  22 -4.9225  7.4229   1
   4  -5  22 -8.2661  8.0248   1
  -5   1  22 -13.374   8.361   1
   5  -1  22 -10.297   7.505   1
  -4   5  22 14.4967  8.9694   1
  -1  -4  22 10.6024  8.6254   1
  -4  -1  22 2.20409 8.47828   1
   1  -5  22 8.38307 8.87407   1
   4   1  22 2.40595 7.39226   1
  -5   4  22 -7.5757  8.5907   1
  -1   5  22 -7.7644  7.8299   1
   5  -4  22 -1.1494  8.2012   1
   0   5  22 6.67388 7.57554   1
  -5   0  22 -4.2019  8.4584   1
   5  -5  22 2.46911 8.42386   1
   0  -5  22 -1.8350  8.5883   1
  -5   5  22 -2.6078  8.8673   1
   5   0  22 -8.1101  7.3235   1
  -3   6  22 -6.3581  8.2881   1
  -6   3  22 -3.9388  9.0258   1
   3  -6  22 -4.0894  8.2807   1
   6  -3  22 10.1548  8.2737   1
   3   3  22 -17.556   7.029   1
  -4   6  22 -7.3987  8.4440   1
   2   4  22 -4.2406  7.4622   1
   4  -6  22 -6.6505  8.3955   1
  -6   2  22 10.4438  9.1534   1
   6  -2  22 4.52655 8.07259   1
   2  -6  22 3.15797 8.64478   1
  -6   4  22 7.64935 9.24668   1
   6  -4  22 9.64238 8.39917   1
   4   2  22 -2.5224  7.4002   1
  -2   6  22 6.46479 8.19762   1
  -6   1  22 4.22589 8.99634   1
   5  -6  22 5.35103 8.73849   1
  -1  -5  22 -1.4825  8.5069   1
   6  -1  22 -2.9389  7.5758   1
   1   5  22 -1.4907  7.3831   1
  -5   6  22 -6.9594  8.4793   1
  -1   6  22 -1.4557  7.7250   1
  -6   5  22 -11.460   8.644   1
   5   1  22 -15.899   7.172   1
   1  -6  22 3.74695 8.93663   1
   6  -5  22 -0.1363  8.2462   1
  -6   6  22 -13.264   8.716   1
   6   0  22 -1.1699  7.6806   1
   0  -6  22 -11.934   8.697   1
   6  -6  22 -0.8432  8.4214   1
   3  -7 -22 -2.6587  8.2544   1
  -7   3  22 -1.9876  9.3811   1
   3   4  22 9.48100 7.59812   1
   4  -7  22 -6.4422  8.7229   1
  -7   4  22 -12.850   9.100   1
   3  -7  22 -4.1240  8.5704   1
   4   3  22 -1.4685  7.5314   1
   4  -7 -22 -2.6044  8.1208   1
   5  -7  22 -7.5649  8.5571   1
   2  -7 -22 2.76485 8.44681   1
  -5   7  22 -14.335   8.671   1
   5  -7 -22 -5.0484  7.8281   1
   2  -7  22 -11.960   8.501   1
   5   2  22 -6.8105  7.3491   1
  -7   5  22 3.92222 9.38578   1
   1  -7 -22 -7.0162  8.3880   1
  -7   6  22 0.24788 9.28420   1
   1  -7  22 1.54055 9.17598   1
   0   0  23 5.68659 8.57924   1
  -1   0  23 42.7347  9.1842   1
   1  -1  23 28.1059  9.1420   1
   0   1  23 24.6103  8.7302   1
   1   0  23 17.6345  8.8395   1
   0  -1  23 19.6704  8.9184   1
  -1   1  23 29.3098  9.0578   1
   2  -1  23 -13.912   7.787   1
   1  -2  23 1.66526 8.23998   1
  -1  -1  23 -5.1089  8.2043   1
  -1   2  23 -1.1815  8.1889   1
  -2   1  23 -6.5900  8.2484   1
   1   1  23 -0.5532  7.8608   1
  -2   2  23 0.72462 8.44631   1
   2  -2  23 5.97246 8.57659   1
   0   2  23 -5.7334  7.9640   1
  -2   0  23 -4.2341  8.2030   1
   2   0  23 5.81175 8.20718   1
   0  -2  23 -2.4726  8.1490   1
  -3   1  23 -3.9619  8.4527   1
   1   2  23 5.39037 8.10314   1
   2  -3  23 -1.7025  8.5076   1
  -2   3  23 9.57342 8.30281   1
  -1  -2  23 10.2128  8.7299   1
   3  -1  23 12.0421  8.3682   1
  -3   2  23 7.91865 8.62225   1
  -2  -1  23 7.88427 8.67454   1
   2   1  23 7.85519 8.31598   1
   1  -3  23 2.68836 8.63136   1
   3  -2  23 9.82485 8.54865   1
  -1   3  23 1.52644 8.34059   1
   3  -3  23 8.85360 8.73285   1
  -3   0  23 11.6637  8.9568   1
   0  -3  23 17.1369  9.0331   1
   3   0  23 15.3045  8.2511   1
  -3   3  23 -3.3911  8.5329   1
   0   3  23 7.10962 8.25015   1
  -2  -2  23 -2.0659  8.5466   1
   4  -2  23 -15.647   7.777   1
  -2   4  23 -7.9083  8.2089   1
   2  -4  23 -7.4729  8.5538   1
  -4   2  23 -15.229   8.270   1
   2   2  23 -11.874   7.695   1
  -1  -3  23 -13.616   8.331   1
   4  -1  23 2.57251 8.14107   1
  -3   4  23 -11.765   8.198   1
   3  -4  23 -2.8853  8.3877   1
   1   3  23 8.95300 8.09247   1
  -4   1  23 0.89618 8.86861   1
  -3  -1  23 -11.518   8.404   1
  -1   4  23 0.81012 8.31842   1
   1  -4  23 2.92428 8.82668   1
  -4   3  23 -1.5928  8.6643   1
   4  -3  23 0.99977 8.48874   1
   3   1  23 -1.5647  7.8609   1
  -4   0  23 13.9410  9.2661   1
   4  -4  23 21.9431  9.2296   1
   0  -4  23 3.69124 8.98525   1
   4   0  23 14.3288  8.2364   1
  -4   4  23 23.3591  9.4833   1
  -3   5  23 -6.9042  8.4497   1
   3  -5  23 -11.524   8.503   1
  -2  -3  23 8.03839 9.28126   1
  -5   2  23 -19.291   8.472   1
   2  -5  23 7.46384 9.01355   1
  -3  -2  23 -8.1322  8.7675   1
  -5   3  23 -17.389   8.730   1
  -1  -4  23 13.6048  9.4825   1
  -4   5  23 -7.1452  8.8551   1
  -5   1  23 3.82195 9.32224   1
   4  -5  23 9.85561 8.92468   1
   1  -5  23 -0.5215  9.0872   1
  -4  -1  23 -6.0255  8.7298   1
  -5   4  23 6.25110 9.45203   1
  -5   5  23 -6.6203  8.9394   1
   0  -5  23 -7.1718  8.8409   1
  -5   0  23 -4.6371  9.1636   1
  -6   3  23 3.57283 9.39904   1
   3  -6  23 4.33993 9.09407   1
  -6   2  23 14.2714  9.9102   1
   4  -6  23 3.97098 9.06536   1
   2  -6  23 20.5451  9.4206   1
  -6   4  23 -9.7150  9.2166   1
   1  -6  23 -0.4296  9.2593   1
  -6   5  23 -2.9919  9.4164   1
   0   0  24 -1.4890  8.6807   1
  -1   1  24 2.35112 8.70000   1
  -1   0  24 -0.6449  8.7741   1
   0   1  24 7.94977 8.88164   1
   1  -1  24 6.74130 8.79979   1
   0  -1  24 -12.744   8.223   1
   1   0  24 -2.9825  8.6391   1
   2  -1  24 -26.737   7.812   1
   1  -2  24 -3.2367  8.8127   1
  -2   1  24 -17.625   8.513   1
  -1  -1  24 -0.4657  9.0175   1
  -1   2  24 -10.745   8.257   1
   0  -2  24 -3.3412  8.8835   1
  -2   2  24 8.52434 8.96299   1
   2  -2  24 2.03177 8.98022   1
  -2   0  24 2.57617 8.74761   1
  -1  -2  24 -14.133   8.554   1
  -3   1  24 -19.299   8.272   1
   2  -3  24 -6.8034  8.7142   1
   1  -3  24 -5.6693  8.7220   1
  -2  -1  24 -18.433   8.264   1
  -3   2  24 -2.6977  8.7424   1
  -3   0  24 7.24553 9.28226   1
   0  -3  24 -18.124   8.568   1
  -3   3  24 -6.7902  8.7445   1
  -2  -2  24 1.72507 9.09184   1
  -4   2  24 3.80754 9.34830   1
   2  -4  24 2.01497 9.21222   1
  -4   1  24 -11.846   9.025   1
  -1  -3  24 14.7146  9.4005   1
  -4   3  24 1.98615 9.43454   1
  -3  -1  24 -0.5554  9.3020   1
   1  -4  24 0.22002 9.35837   1
   0   0   0    0.00    0.00   0
;
_shelx_hkl_checksum              43591
_ccdc_publ_extra_info
'The molecular cations between the thiostannate layers are disordered, and only the structure of anionic polymeric layers have been determined.'
loop_
_space_group_symop_operation_xyz
'x, y, z'
'-y, x-y, z'
'-x+y, -x, z'
'-x, -y, z+1/2'
'y, -x+y, z+1/2'
'x-y, x, z+1/2'
'y, x, -z'
'x-y, -y, -z'
'-x, -x+y, -z'
'-y, -x, -z+1/2'
'-x+y, y, -z+1/2'
'x, x-y, -z+1/2'
'-x, -y, -z'
'y, -x+y, -z'
'x-y, x, -z'
'x, y, -z-1/2'
'-y, x-y, -z-1/2'
'-x+y, -x, -z-1/2'
'-y, -x, z'
'-x+y, y, z'
'x, x-y, z'
'y, x, z-1/2'
'x-y, -y, z-1/2'
'-x, -x+y, z-1/2'
loop_
_atom_site_label
_atom_site_type_symbol
_atom_site_fract_x
_atom_site_fract_y
_atom_site_fract_z
_atom_site_U_iso_or_equiv
_atom_site_adp_type
_atom_site_occupancy
_atom_site_site_symmetry_order
_atom_site_calc_flag
_atom_site_refinement_flags_posn
_atom_site_refinement_flags_adp
_atom_site_refinement_flags_occupancy
Sn1 Sn 0.84744(6) 0.42372(3) 0.49152(5) 0.0495(4) Uani 1 2 d S T P
S1 S 0.6667 0.3333 0.5743(3) 0.0445(10) Uani 1 6 d S T P
S2 S 0.76919(14) 0.23081(14) 0.4409(2) 0.0644(10) Uani 1 2 d S T P
S3 S 0.9780(3) 0.48899(13) 0.58937(18) 0.0653(9) Uani 1 2 d S T P
loop_
_atom_site_aniso_label
_atom_site_aniso_U_11
_atom_site_aniso_U_22
_atom_site_aniso_U_33
_atom_site_aniso_U_23
_atom_site_aniso_U_13
_atom_site_aniso_U_12
Sn1 0.0313(5) 0.0423(5) 0.0711(7) -0.00005(15) -0.0001(3) 0.0157(2)
S1 0.0352(13) 0.0352(13) 0.063(3) 0.000 0.000 0.0176(6)
S2 0.0506(12) 0.0506(12) 0.090(3) -0.0128(8) 0.0128(8) 0.0240(13)
S3 0.0348(14) 0.0796(18) 0.0665(19) 0.0008(6) 0.0017(13) 0.0174(7)
loop_
_atom_type_symbol
_atom_type_description
_atom_type_scat_dispersion_real
_atom_type_scat_dispersion_imag
_atom_type_scat_source
S S 0.1246 0.1234 'International Tables Vol C Tables 4.2.6.8 and 6.1.1.4'
Sn Sn -0.6537 1.4246 'International Tables Vol C Tables 4.2.6.8 and 6.1.1.4'
loop_
_geom_angle_atom_site_label_1
_geom_angle_atom_site_label_2
_geom_angle_atom_site_label_3
_geom_angle
_geom_angle_site_symmetry_1
_geom_angle_site_symmetry_3
S3 Sn1 S2 122.85(10) . 2_655
S3 Sn1 S2 122.85(10) . .
S2 Sn1 S2 114.11(19) 2_655 .
S3 Sn1 S3 88.98(11) . 13_766
S2 Sn1 S3 92.81(8) 2_655 13_766
S2 Sn1 S3 92.81(8) . 13_766
S3 Sn1 S1 91.34(12) . .
S2 Sn1 S1 87.02(8) 2_655 .
S2 Sn1 S1 87.02(8) . .
S3 Sn1 S1 179.68(12) 13_766 .
Sn1 S1 Sn1 87.02(13) 3_665 2_655
Sn1 S1 Sn1 87.02(13) 3_665 .
Sn1 S1 Sn1 87.02(13) 2_655 .
Sn1 S2 Sn1 95.44(11) . 3_665
Sn1 S3 Sn1 91.02(11) . 13_766
loop_
_geom_bond_atom_site_label_1
_geom_bond_atom_site_label_2
_geom_bond_distance
_geom_bond_site_symmetry_2
Sn1 S3 2.401(3) .
Sn1 S2 2.433(2) 2_655
Sn1 S2 2.433(2) .
Sn1 S3 2.535(3) 13_766
Sn1 S1 2.614(3) .
S1 Sn1 2.614(3) 3_665
S1 Sn1 2.614(3) 2_655
S2 Sn1 2.433(2) 3_665
S3 Sn1 2.535(3) 13_766
