#------------------------------------------------------------------------------
#$Date: 2019-12-25 22:52:39 +0200 (Wed, 25 Dec 2019) $
#$Revision: 245963 $
#$URL: file:///home/coder/svn-repositories/cod/cif/2/31/15/2311535.cif $
#------------------------------------------------------------------------------
#
# This file is available in the Crystallography Open Database (COD),
# http://www.crystallography.net/. The original data for this entry
# were provided by IUCr Journals, http://journals.iucr.org/.
#
# The file may be used within the scientific community so long as
# proper attribution is given to the journal article from which the
# data were obtained.
#
data_2311535
loop_
_publ_author_name
'Noland, Wayland E.'
'Shudy, Jessica E.'
'Rieger, Janel L.'
'Tu, Zoe H.'
'Tritch, Kenneth J.'
_publ_section_title
;
 Crystal structures of 2,6-di-bromo-4-methyl-benzo-nitrile and
 2,6-di-bromo-4-methyl-phenyl isocyanide.
;
_journal_issue                   'Pt 12'
_journal_name_full
'Acta crystallographica. Section E, Crystallographic communications'
_journal_page_first              1913
_journal_page_last               1916
_journal_paper_doi               10.1107/S2056989017016395
_journal_volume                  73
_journal_year                    2017
_chemical_formula_iupac          'C8 H5 Br2 N'
_chemical_formula_moiety         'C8 H5 Br2 N'
_chemical_formula_sum            'C8 H5 Br2 N'
_chemical_formula_weight         274.95
_chemical_melting_point          401
_chemical_name_common            RNC
_chemical_name_systematic
;
2,6-Dibromo-4-methylphenyl isocyanide
;
_space_group_crystal_system      tetragonal
_space_group_IT_number           113
_space_group_name_Hall           'P -4 2ab'
_space_group_name_H-M_alt        'P -4 21 m'
_atom_sites_solution_hydrogens   geom
_audit_creation_method           SHELXL-2014/6
_cell_angle_alpha                90
_cell_angle_beta                 90
_cell_angle_gamma                90
_cell_formula_units_Z            4
_cell_length_a                   14.690(5)
_cell_length_b                   14.690(5)
_cell_length_c                   4.0703(15)
_cell_measurement_reflns_used    2995
_cell_measurement_temperature    173(2)
_cell_measurement_theta_max      26.91
_cell_measurement_theta_min      2.77
_cell_volume                     878.4(5)
_computing_cell_refinement
;
SAINT (Bruker, 2012)
;
_computing_data_collection
;
APEX2 (Bruker, 2012)
;
_computing_data_reduction
;
SAINT (Bruker, 2012)
;
_computing_molecular_graphics
;
Mercury (Macrae <i>et al.</i>, 2008)
;
_computing_publication_material
;
publCIF (Westrip, 2010)
;
_computing_structure_refinement
;
SHELXL2014 (Sheldrick, 2015b)
;
_computing_structure_solution
;
SHELXT2014 (Sheldrick, 2015a)
;
_diffrn_ambient_temperature      173(2)
_diffrn_measured_fraction_theta_full 1.000
_diffrn_measured_fraction_theta_max 0.997
_diffrn_measurement_device_type  'Bruker APEXII CCD'
_diffrn_measurement_method       '\f and \w scans'
_diffrn_radiation_type           MoK\a
_diffrn_radiation_wavelength     0.71073
_diffrn_reflns_av_R_equivalents  0.0453
_diffrn_reflns_limit_h_max       19
_diffrn_reflns_limit_h_min       -18
_diffrn_reflns_limit_k_max       19
_diffrn_reflns_limit_k_min       -19
_diffrn_reflns_limit_l_max       5
_diffrn_reflns_limit_l_min       -5
_diffrn_reflns_number            10248
_diffrn_reflns_theta_full        25.242
_diffrn_reflns_theta_max         27.594
_diffrn_reflns_theta_min         1.961
_exptl_absorpt_coefficient_mu    9.160
_exptl_absorpt_correction_T_max  0.7456
_exptl_absorpt_correction_T_min  0.2551
_exptl_absorpt_correction_type   multi-scan
_exptl_absorpt_process_details
;
(SADABS; Sheldrick, 1996)
;
_exptl_crystal_colour            colourless
_exptl_crystal_density_diffrn    2.079
_exptl_crystal_description       Needle
_exptl_crystal_F_000             520
_exptl_crystal_size_max          0.400
_exptl_crystal_size_mid          0.140
_exptl_crystal_size_min          0.080
_refine_diff_density_max         0.299
_refine_diff_density_min         -0.509
_refine_ls_abs_structure_details
;
Flack <i>x</i> determined using 381 quotients
[(<i>I</i>^+^)-(<i>I</i>^-^)]/[(<i>I</i>^+^)+(<i>I</i>^-^)]
(Parsons <i>et al.</i>,  2013)
;
_refine_ls_abs_structure_Flack   -0.024(13)
_refine_ls_extinction_method     none
_refine_ls_goodness_of_fit_ref   1.141
_refine_ls_hydrogen_treatment    constr
_refine_ls_matrix_type           full
_refine_ls_number_parameters     59
_refine_ls_number_reflns         1074
_refine_ls_number_restraints     0
_refine_ls_restrained_S_all      1.141
_refine_ls_R_factor_all          0.0267
_refine_ls_R_factor_gt           0.0232
_refine_ls_shift/su_max          0.000
_refine_ls_shift/su_mean         0.000
_refine_ls_structure_factor_coef Fsqd
_refine_ls_weighting_details
'w=1/[\s^2^(Fo^2^)+(0.0267P)^2^+0.0073P] where P=(Fo^2^+2Fc^2^)/3'
_refine_ls_weighting_scheme      calc
_refine_ls_wR_factor_gt          0.0500
_refine_ls_wR_factor_ref         0.0508
_reflns_number_gt                1001
_reflns_number_total             1074
_reflns_threshold_expression     'I > 2\s(I)'
_cod_data_source_file            lh5859sup1.cif
_cod_data_source_block           RNC
_cod_original_cell_volume        878.3(7)
_cod_database_code               2311535
_shelx_space_group_comment
;
The symmetry employed for this shelxl refinement is uniquely defined
by the following loop, which should always be used as a source of
symmetry information in preference to the above space-group names.
They are only intended as comments.
;
_shelx_estimated_absorpt_t_min   0.121
_shelx_estimated_absorpt_t_max   0.528
_shelx_hkl_file
;
  -1   0   0   -0.05    0.07
   0  -1   0   -0.10    0.02
   0  -1   0   -0.02    0.05
   0   1   0   -0.05    0.04
   1   0   0   -0.12    0.06
  -1   0   0   -0.12    0.02
   1  -1   0  271.46   10.05
   1  -1   0  288.81   11.19
   1   1   0  290.94   10.11
  -1   1   0  277.85    9.96
   1   1   0  274.92    9.65
  -1   1   0  275.45    9.67
  -1  -1   0  287.40   10.02
  -2   0   0   69.93    2.67
   0  -2   0   71.38    2.67
   2   0   0   65.54    3.05
  -2   0   0   71.75    2.79
   0   2   0   77.05    2.68
   0   2   0   76.97    2.62
   0  -2   0   71.87    3.00
   2   0   0   63.74    2.82
   1  -2   0    1.71    0.30
   1  -2   0    1.52    0.15
   2  -1   0    0.80    0.26
  -1  -2   0    2.14    0.20
   2   1   0    1.21    0.28
   1   2   0    1.49    0.21
   1   2   0    1.56    0.19
   2  -1   0    1.13    0.19
  -2  -1   0    1.51    0.26
  -2   1   0    1.26    0.21
  -2   1   0    1.30    0.18
   2   1   0    1.20    0.19
  -1   2   0    1.34    0.19
  -1   2   0    1.36    0.16
  -2  -1   0    1.30    0.17
  -1  -2   0    1.12    0.19
  -2   2   0   18.54    0.84
   2   2   0   17.27    0.91
  -2  -2   0   18.30    0.86
   2   2   0   17.56    0.80
   2  -2   0   18.81    0.80
   2  -2   0   16.90    1.05
  -2  -2   0   17.39    0.90
  -2   2   0   19.76    0.81
   3   0   0    0.41    0.25
   0   3   0    0.11    0.15
  -3   0   0   -0.19    0.16
   3   0   0   -0.08    0.22
  -3   0   0    0.05    0.21
   0  -3   0    0.19    0.19
   0   3   0    0.02    0.11
   0  -3   0   -0.10    0.12
  -1   3   0  161.55    5.77
   3  -1   0  171.05    6.10
   1   3   0  166.93    5.77
  -1  -3   0  165.19    6.60
   1  -3   0  165.84    6.71
   3  -1   0  148.33    6.77
  -1  -3   0  160.45    5.97
  -3  -1   0  156.25    6.10
  -1   3   0  162.86    5.93
   3   1   0  152.48    6.20
   1   3   0  162.51    5.99
   3   1   0  165.91    5.80
  -3   1   0  167.03    6.00
  -3   1   0  170.46    5.87
   3   1   0  170.95    6.61
  -3   2   0  141.67    5.19
  -3  -2   0  141.81    5.42
   3  -2   0  144.73    5.33
   3   2   0  138.91    5.49
  -2  -3   0  143.75    5.35
   2  -3   0  152.20    5.28
  -2   3   0  140.97    5.16
  -2  -3   0  144.90    5.82
   2   3   0  147.49    5.39
   3  -2   0  138.36    6.07
   3   2   0  143.12    5.13
  -2   3   0  151.78    5.25
   2  -3   0  133.87    6.03
   2   3   0  142.06    5.11
  -3   2   0  146.46    5.28
  -3  -2   0  145.51    5.81
  -3  -3   0   19.54    0.95
  -3  -3   0   19.62    1.07
   3  -3   0   19.12    1.27
  -3   3   0   19.64    0.90
   3  -3   0   18.92    0.89
  -3   3   0   18.73    0.97
   3   3   0   18.91    0.91
   3   3   0   18.31    1.07
   4   0   0  931.84   33.77
  -4   0   0  905.41   32.27
   4   0   0  938.43   37.15
   0  -4   0  940.01   37.04
   0   4   0  972.08   33.45
  -4   0   0  894.86   33.41
   0   4   0 1000.00   32.17
   0  -4   0  903.88   33.19
   1  -4   0  193.61    8.09
   4   1   0  203.99    8.05
   1  -4   0  195.81    7.15
   4   1   0  186.96    7.54
   1   4   0  200.37    7.24
   1   4   0  203.81    6.99
  -4  -1   0  202.29    7.07
   4  -1   0  198.59    7.42
  -1  -4   0  196.32    7.22
  -1   4   0  200.68    7.18
   4  -1   0  167.52    8.17
  -1   4   0  205.38    7.01
  -4   1   0  198.16    7.11
  -4   1   0  205.43    7.31
  -4  -1   0  194.74    7.42
  -2   4   0   35.88    1.53
   2   4   0   34.84    1.47
  -2  -4   0   34.50    1.57
  -2   4   0   35.53    1.45
   2  -4   0   35.51    1.44
  -4   2   0   36.50    1.60
  -4   2   0   34.34    1.51
  -4  -2   0   33.47    1.67
   4  -2   0   32.23    1.89
   4   2   0   33.07    1.74
   4   2   0   35.97    1.50
   2  -4   0   33.94    1.82
  -2  -4   0   37.05    1.63
   4  -2   0   37.16    1.59
   2   4   0   35.21    1.55
  -3   4   0  204.17    7.58
  -4  -3   0  214.74    8.53
   3   4   0  210.68    7.94
   3  -4   0  195.70    8.86
  -4  -3   0  217.98    7.95
   4   3   0  211.08    7.53
  -3  -4   0  215.04    7.88
   4  -3   0  213.76    7.81
  -4   3   0  212.46    7.73
  -3  -4   0  215.74    8.55
   4   3   0  219.65    8.07
  -3   4   0  219.21    7.71
   3  -4   0  215.90    7.75
   3   4   0  206.90    7.51
  -4   3   0  213.92    7.63
   4  -3   0  193.06    8.88
  -4  -4   0  310.18   11.29
   4   4   0  300.04   10.75
  -4   4   0  299.02   10.84
   4   4   0  317.10   11.42
  -4   4   0  302.09   11.04
   4  -4   0  299.24   11.13
   4  -4   0  306.41   12.70
  -4  -4   0  310.37   12.24
   0   5   0   -0.24    0.22
  -5   0   0    0.02    0.28
  -5   0   0    0.26    0.36
   5   0   0    0.54    0.41
   0   5   0    0.35    0.22
   0  -5   0    0.03    0.26
   5   0   0    0.26    0.35
   0  -5   0    0.00    0.23
   5   1   0   93.50    4.07
   1   5   0   95.63    3.60
  -5   1   0   98.23    3.77
  -5   1   0   92.59    3.66
   5   1   0   93.83    4.00
   1  -5   0   91.39    4.09
   1   5   0   97.38    3.54
  -1  -5   0   95.32    4.01
  -1   5   0   95.14    3.54
  -1   5   0   95.18    3.54
   5  -1   0   88.03    3.81
  -1  -5   0   91.38    3.62
  -5  -1   0   98.63    3.65
  -5  -1   0   93.61    3.89
   5  -1   0   76.92    4.17
   1  -5   0   94.39    3.56
  -2   5   0  782.64   28.20
   5   2   0  815.64   31.21
   2  -5   0  784.57   31.43
   5   2   0  822.55   28.70
  -2   5   0  788.42   27.20
  -5  -2   0  760.67   28.31
   2   5   0  804.84   27.18
  -2  -5   0  792.59   31.22
  -5   2   0  779.27   28.12
  -2  -5   0  760.24   28.11
   5   2   0  764.79   27.20
   2   5   0  794.00   28.33
  -5   2   0  775.27   27.32
   5  -2   0  800.39   28.43
  -5   3   0  143.90    5.43
  -5  -3   0  144.69    5.67
  -5  -3   0  149.14    5.92
   3  -5   0  145.88    6.31
   3  -5   0  150.54    5.39
  -3  -5   0  146.66    5.54
   5   3   0  145.76    5.30
  -3   5   0  143.46    5.34
  -3  -5   0  143.91    5.95
  -5   3   0  147.18    5.43
   5  -3   0  140.17    5.49
   5  -3   0  123.70    6.31
   3   5   0  143.24    5.27
   5   3   0  142.83    5.78
  -3   5   0  148.52    5.36
   3   5   0  140.35    5.55
   4   5   0  117.42    4.59
  -5   4   0  119.08    4.73
   4  -5   0  132.35    4.71
  -4  -5   0  126.96    5.16
   5   4   0  127.29    5.09
  -4   5   0  126.16    4.68
   5  -4   0  104.58    5.55
   4   5   0  122.98    4.95
  -5  -4   0  128.81    4.99
   5  -4   0  121.61    4.75
  -4   5   0  123.07    4.71
  -4  -5   0  129.53    4.93
  -5   4   0  122.39    4.71
   5   4   0  128.92    4.64
   4  -5   0  121.86    5.62
  -5  -4   0  123.47    5.13
   5  -5   0   36.54    1.66
  -5  -5   0   38.13    1.78
  -5   5   0   36.98    1.68
  -5  -5   0   38.82    1.98
   5  -5   0   36.30    2.40
  -5   5   0   37.05    1.81
   5   5   0   37.11    1.72
   5   5   0   35.09    1.99
   0  -6   0   43.76    2.14
   6   0   0   43.73    2.22
   0  -6   0   41.67    1.85
  -6   0   0   40.49    2.08
   0   6   0   40.68    1.84
   6   0   0   43.95    2.27
  -6   0   0   45.61    2.04
   0   6   0   41.45    1.80
   1   6   0  116.45    4.25
   1  -6   0  112.60    4.29
  -1   6   0  115.77    4.27
   1   6   0  111.55    4.32
   1  -6   0  113.24    4.92
   6  -1   0  100.83    4.57
   6  -1   0  100.82    5.04
  -1   6   0  116.93    4.28
   6   1   0  115.82    4.92
  -6   1   0  114.53    4.53
  -6   1   0  108.85    4.39
  -1  -6   0  114.00    4.83
   6   1   0  114.76    4.79
  -6  -1   0  113.85    4.39
  -6  -1   0  113.97    4.68
   6  -2   0   34.81    1.76
  -2  -6   0   34.59    1.64
   2   6   0   30.42    1.57
  -2   6   0   34.77    1.46
  -6   2   0   34.55    1.72
   6   2   0   34.30    1.72
  -2  -6   0   32.20    1.69
  -2   6   0   31.97    1.56
  -6  -2   0   34.33    1.85
   6  -2   0   25.96    1.92
   2  -6   0   32.61    1.91
  -6  -2   0   34.07    1.63
  -6   2   0   37.17    1.69
   6   2   0   30.93    1.90
   2   6   0   34.26    1.55
  -6   3   0   62.90    2.67
   6  -3   0   63.37    2.73
  -3   6   0   62.63    2.53
  -3   6   0   60.32    2.61
  -6  -3   0   66.56    2.93
  -3  -6   0   63.81    2.74
   6   3   0   65.99    2.63
   3  -6   0   64.30    3.18
   3   6   0   62.85    2.73
   6   3   0   63.55    2.80
  -3  -6   0   64.97    2.85
  -6   3   0   63.95    2.75
   6  -3   0   50.15    3.19
   3   6   0   65.90    2.59
   6   3   0   63.95    3.03
   6  -4   0   84.40    3.53
  -6   4   0   87.68    3.60
  -4   6   0   92.34    3.56
   4   6   0   84.06    3.70
   4   6   0   86.91    3.43
  -4   6   0   88.62    3.42
   6   4   0   87.00    3.89
   4  -6   0   91.64    3.43
   4  -6   0   81.93    4.21
  -4  -6   0   90.89    3.80
  -6  -4   0   89.35    3.74
  -6   4   0   86.83    3.49
   6  -4   0   75.81    4.26
   6   4   0   88.22    3.45
  -6  -4   0   87.69    3.80
  -4  -6   0   86.97    3.68
   6   5   0   67.82    2.76
   6  -5   0   58.85    3.52
  -6   5   0   64.62    2.74
  -5   6   0   67.57    2.71
  -5  -6   0   64.76    3.01
   5  -6   0   70.23    2.73
  -6   5   0   68.38    2.94
  -5   6   0   65.01    2.86
   5   6   0   62.93    3.03
   6  -5   0   64.37    2.76
   6   5   0   62.41    3.11
  -6  -5   0   69.63    2.94
   5   6   0   65.13    2.73
   5  -6   0   62.70    3.50
  -5  -6   0   65.77    2.95
  -6  -5   0   66.71    3.06
   6   6   0  133.40    5.73
  -6  -6   0  148.22    5.72
   6   6   0  134.41    5.25
   6  -6   0  135.03    5.32
  -6   6   0  139.90    5.30
   6  -6   0  134.16    6.52
  -6  -6   0  143.79    5.80
  -6   6   0  133.95    5.39
  -7   0   0   -0.39    0.36
   7   0   0   -0.05    0.47
   0  -7   0   -0.25    0.41
   0   7   0   -0.27    0.33
   0  -7   0    0.50    0.36
  -7   0   0    0.11    0.43
   0   7   0    0.19    0.30
   7   0   0    0.03    0.50
  -7  -1   0   10.67    0.95
  -1  -7   0    9.75    0.89
  -1   7   0   10.78    0.84
   7   1   0   11.81    1.15
  -7  -1   0    9.96    1.09
   1  -7   0    9.16    0.75
   7  -1   0   10.54    1.17
   1  -7   0   12.48    1.08
  -7   1   0   10.05    0.98
   7  -1   0   10.36    1.08
   1   7   0   10.50    0.82
  -1  -7   0   10.56    0.86
  -1   7   0   10.73    0.69
   7   1   0    9.59    0.96
   1   7   0   11.09    0.81
  -7   1   0   10.21    0.94
   2   7   0  125.69    4.88
   2  -7   0  123.45    4.75
  -2  -7   0  119.29    4.86
  -2  -7   0  120.77    5.32
   7  -2   0  122.09    5.08
  -2   7   0  124.07    4.76
   2  -7   0  125.42    5.55
  -7  -2   0  127.96    5.22
   2   7   0  127.29    4.72
  -7   2   0  126.56    4.99
   7   2   0  128.18    5.36
  -7  -2   0  123.46    4.82
   7  -2   0  114.96    5.68
  -2   7   0  125.66    4.72
   7   2   0  129.31    5.39
  -7   2   0  121.60    4.92
   3   7   0  249.13    9.01
  -7   3   0  248.04    9.32
   7   3   0  255.78   10.21
  -3  -7   0  244.91    9.35
  -7   3   0  258.82    9.24
   7  -3   0  252.14    9.48
   3  -7   0  245.95    9.16
   3  -7   0  258.97   10.60
  -3  -7   0  252.76   10.23
   3   7   0  238.06    9.38
   7   3   0  260.53    9.84
  -3   7   0  246.07    9.18
  -3   7   0  251.88    9.07
  -7  -3   0  259.47    9.64
   7  -3   0  223.17   10.66
  -7   4   0   11.87    1.09
  -4  -7   0   11.38    0.90
  -7  -4   0   12.93    1.17
   7   4   0   11.45    0.84
   7  -4   0   10.63    0.91
  -4   7   0   10.39    0.78
   4   7   0   11.85    0.91
   4  -7   0   11.17    1.30
   4   7   0   15.48    1.18
   4  -7   0   12.36    0.80
   7  -4   0    8.43    1.32
  -4  -7   0   11.45    1.03
   7   4   0   12.18    0.94
  -4   7   0   11.96    0.99
   7   4   0   13.99    1.36
  -7   4   0   12.03    0.93
   5  -7   0  133.41    6.54
  -7   5   0  149.73    5.62
   7   5   0  146.06    5.99
   7   5   0  144.47    5.38
  -5   7   0  142.35    5.37
  -7   5   0  136.57    5.44
  -5  -7   0  142.22    5.74
  -5   7   0  141.42    5.50
   7  -5   0  118.96    6.51
   7  -5   0  132.42    5.50
   5   7   0  138.07    5.34
  -5  -7   0  144.23    5.95
  -7  -5   0  138.55    5.80
  -7  -5   0  146.85    5.90
   5  -7   0  145.96    5.40
   5   7   0  145.76    5.78
  -7   6   0   17.02    1.34
  -7  -6   0   17.67    1.44
  -6   7   0   16.46    1.32
  -6  -7   0   17.50    1.13
   6  -7   0   18.44    1.09
   7  -6   0   15.01    1.81
   6   7   0   15.72    1.50
   6   7   0   17.46    1.18
  -7  -6   0   17.33    1.11
  -6  -7   0   17.37    1.42
   7   6   0   18.54    1.21
  -7   6   0   19.09    1.15
  -6   7   0   17.76    1.09
   7  -6   0   17.29    1.14
   7   6   0   18.16    1.62
   6  -7   0   14.43    1.73
   7   7   0  479.49   17.11
   7   7   0  500.34   18.25
   7  -7   0  473.19   20.27
  -7   7   0  466.79   17.51
  -7  -7   0  474.33   17.99
  -7   7   0  494.54   17.36
  -7  -7   0  502.04   19.42
   7  -7   0  475.80   17.68
   8   0   0    2.82    0.76
   0  -8   0    3.92    0.59
  -8   0   0    2.95    0.72
   0   8   0    3.59    0.56
   0   8   0    3.36    0.62
   8   0   0    3.76    0.84
   0  -8   0    3.10    0.70
  -8   0   0    2.57    0.70
   8  -1   0  318.12   13.06
   8   1   0  314.99   12.03
   1  -8   0  309.33   11.41
  -8   1   0  306.31   11.72
  -1   8   0  303.30   11.41
   8  -1   0  305.70   11.89
   1   8   0  303.40   11.49
  -8   1   0  305.71   11.34
   8   1   0  321.74   12.87
  -1  -8   0  305.12   12.78
  -8  -1   0  320.60   11.88
  -1   8   0  313.63   11.18
   1  -8   0  317.38   12.92
   1   8   0  314.25   11.17
  -8  -1   0  310.87   11.34
   2  -8   0   45.45    2.49
  -8  -2   0   45.49    2.43
   8   2   0   45.86    2.51
  -2  -8   0   44.50    2.26
  -8   2   0   40.49    2.18
   2   8   0   40.71    2.04
   2   8   0   43.99    2.02
   8  -2   0   41.87    2.62
  -8   2   0   44.57    2.26
   8   2   0   43.86    2.28
  -8  -2   0   43.44    2.16
   2  -8   0   42.66    1.96
  -2  -8   0   42.67    2.12
  -2   8   0   42.50    1.90
   8  -2   0   39.80    2.24
  -2   8   0   45.61    2.10
   3   8   0  170.53    6.21
  -8   3   0  164.56    6.43
  -8  -3   0  164.26    6.77
   3  -8   0  160.98    6.23
   8  -3   0  162.19    7.52
   8   3   0  162.54    6.89
   8   3   0  173.43    7.01
  -3   8   0  165.27    6.28
  -8   3   0  166.10    6.45
   8  -3   0  162.42    6.59
  -3  -8   0  160.75    6.98
   3   8   0  162.31    6.46
   3  -8   0  167.67    7.35
  -3   8   0  162.78    6.22
  -3  -8   0  170.77    6.47
  -4   8   0    4.17    0.59
  -8  -4   0    3.91    0.89
   4   8   0    3.95    0.63
   8   4   0    4.49    0.71
  -8   4   0    3.42    0.80
  -4   8   0    2.64    0.66
   4  -8   0    3.61    0.56
  -4  -8   0    4.02    0.65
   8   4   0    3.97    0.65
   4  -8   0    6.02    1.11
   8  -4   0    4.13    1.08
  -4  -8   0    3.34    0.72
   8  -4   0    4.03    0.71
  -8   4   0    4.49    0.70
   4   8   0    3.70    0.80
   8   4   0    6.33    1.18
   5  -8   0   36.90    1.71
  -5   8   0   35.61    1.95
   8  -5   0   29.50    2.50
  -5   8   0   33.62    1.70
  -8   5   0   37.27    1.84
   5   8   0   36.67    2.12
   5  -8   0   37.61    2.48
   8  -5   0   37.09    1.90
   8   5   0   34.37    2.28
  -8   5   0   35.74    2.05
  -5  -8   0   35.84    1.90
   5   8   0   36.81    1.85
   8   5   0   35.86    1.88
  -5  -8   0   32.52    2.01
   8   5   0   36.22    1.82
  -8  -5   0   38.87    2.22
  -8   6   0  212.21    7.97
   6   8   0  208.26    8.30
   6   8   0  215.48    7.70
   6  -8   0  206.62    9.36
  -6  -8   0  206.07    8.57
  -8   6   0  197.73    7.82
   8   6   0  211.33    8.50
  -6   8   0  197.35    7.72
   8   6   0  211.76    7.71
  -6  -8   0  204.44    8.19
   6  -8   0  204.67    7.78
   8  -6   0  201.29    7.91
  -8  -6   0  215.93    8.34
   8  -6   0  194.79    9.42
  -6   8   0  206.90    7.89
  -8   7   0   11.21    1.02
   8  -7   0   13.96    2.01
   8   7   0   13.25    1.54
  -7  -8   0   12.12    1.36
   8   7   0   11.04    1.11
   7  -8   0   12.03    0.98
   7   8   0   10.92    1.09
  -8   7   0   12.95    1.47
  -7   8   0   12.56    1.01
   7  -8   0   12.98    1.95
  -8  -7   0   12.96    1.40
  -7   8   0   13.60    1.35
   7   8   0   13.00    1.48
   8  -7   0   12.69    1.07
   8  -8   0    2.85    0.64
  -8   8   0    2.75    0.65
   8   8   0    2.49    1.00
   8   8   0    2.70    0.73
   8  -8   0    3.19    1.38
  -8   8   0    3.41    0.97
  -8  -8   0    3.63    1.06
   9   0   0    1.59    0.75
   0   9   0   -0.15    0.45
   9   0   0    0.18    0.72
   0   9   0    0.53    0.43
   0  -9   0   -0.25    0.47
  -9   0   0    0.66    0.56
  -9   0   0    0.38    0.62
   0  -9   0    0.37    0.50
   1  -9   0   11.74    1.17
  -1   9   0    9.37    1.01
   9  -1   0    9.91    1.15
  -9   1   0    8.04    1.07
  -9   1   0    8.03    1.01
  -9  -1   0    8.73    1.19
  -1  -9   0    9.82    1.04
  -9  -1   0    9.66    1.08
   9   1   0   11.07    1.20
   1  -9   0    8.99    0.89
   1   9   0    9.97    0.93
   9  -1   0   12.79    1.44
  -1   9   0   10.29    0.83
   9   1   0    9.67    1.26
   1   9   0    8.41    0.97
  -1  -9   0    9.60    1.00
   9  -2   0  556.85   21.63
   2  -9   0  524.65   21.45
   9  -2   0  528.84   19.57
  -2  -9   0  515.84   21.22
  -9  -2   0  529.89   19.52
   9   2   0  553.96   21.27
   9   2   0  530.25   19.75
  -9   2   0  513.51   18.75
  -9  -2   0  524.19   18.67
   2   9   0  526.14   18.52
  -2  -9   0  514.19   19.13
  -9   2   0  507.90   19.28
  -2   9   0  508.46   18.57
   2  -9   0  515.80   18.98
  -2   9   0  516.99   19.05
   2   9   0  532.38   19.23
   3  -9   0    1.46    0.82
  -9   3   0    0.55    0.49
  -9  -3   0    0.05    0.63
   3  -9   0    1.02    0.48
  -9   3   0    0.91    0.63
  -3  -9   0    0.94    0.63
   9   3   0    0.91    0.53
   9  -3   0    0.66    0.64
  -3  -9   0    1.12    0.57
   3   9   0    0.33    0.55
  -3   9   0    1.00    0.55
   9  -3   0    1.04    0.92
   3   9   0    0.72    0.52
   9   3   0    0.84    0.77
  -3   9   0    1.20    0.42
  -9  -3   0    1.03    0.59
   9  -4   0   34.26    2.53
   4   9   0   32.69    1.75
  -9   4   0   31.69    1.82
   4  -9   0   32.76    1.66
   4  -9   0   30.14    2.26
  -9   4   0   32.78    2.00
   4   9   0   32.57    1.96
  -4   9   0   33.50    1.59
  -4   9   0   31.64    1.91
  -9  -4   0   35.20    2.25
   9  -4   0   33.44    1.93
  -4  -9   0   32.65    1.88
  -4  -9   0   31.19    1.96
   9   4   0   33.20    2.25
   5   9   0   13.28    1.27
   5  -9   0   10.93    1.56
  -9  -5   0   10.51    1.33
  -5   9   0    8.64    1.19
   9  -5   0   10.13    1.64
  -5  -9   0   13.25    1.07
   9   5   0   13.06    1.16
   9   5   0   12.05    1.62
  -9   5   0   12.51    1.31
   5  -9   0    9.88    0.89
  -5   9   0   10.70    0.88
   5   9   0   10.32    1.00
   9  -5   0   11.28    1.10
  -9   5   0   12.34    1.11
  -5  -9   0   11.76    1.26
  -6   9   0   69.47    3.40
  -6  -9   0   76.76    3.65
   9   6   0   84.09    3.40
  -9   6   0   73.28    3.29
   9  -6   0   72.84    4.43
   9  -6   0   79.91    3.41
   6   9   0   77.68    3.70
  -6   9   0   68.68    3.12
  -6  -9   0   74.77    3.54
   6  -9   0   72.89    3.18
   6  -9   0   77.30    4.34
  -9  -6   0   75.71    3.75
  -9   6   0   77.69    3.62
   9   6   0   73.24    3.87
   6   9   0   75.48    3.29
   7  -9   0   16.98    2.16
  -9   7   0   15.38    1.57
   7   9   0   18.81    1.38
  -7  -9   0   19.19    1.76
   9   7   0   12.97    1.69
  -9  -7   0   18.68    1.71
   9  -7   0   19.13    1.36
   7   9   0   15.65    1.68
  -7   9   0   16.58    1.20
   9   7   0   18.27    1.40
  -7   9   0   19.21    1.60
  -9   7   0   18.41    1.31
   9  -7   0   16.72    2.25
   8   9   0    1.75    0.66
  -9  -8   0    1.52    1.02
  -8  -9   0    1.71    0.87
   9   8   0    2.43    0.78
  -8   9   0    1.41    0.87
  -9   8   0    0.91    0.96
   8  -9   0    1.98    1.34
   9  -8   0    2.18    1.29
   9   8   0    1.83    1.04
   8   9   0    0.72    0.93
   9   9   0    9.81    1.22
  -9   9   0    9.43    1.46
   9   9   0   12.70    1.86
   9  -9   0    9.45    1.87
  -9  -9   0   11.76    1.54
  10   0   0   19.80    1.77
 -10   0   0   22.95    1.53
   0  10   0   19.82    1.39
 -10   0   0   18.72    1.56
   0 -10   0   20.40    1.40
   0  10   0   21.77    1.32
   0 -10   0   18.68    1.58
  10   0   0   23.35    1.75
 -10   1   0  110.19    4.67
   1  10   0  105.91    4.45
   1  10   0  105.43    4.46
   1 -10   0  107.28    4.47
  10  -1   0  123.27    5.37
   1 -10   0  115.40    5.24
 -10   1   0  111.71    4.80
  -1 -10   0  109.41    5.06
  10   1   0  119.04    5.15
  -1  10   0  106.63    4.50
 -10  -1   0  108.46    4.57
  -1 -10   0  108.30    4.54
  10  -1   0  102.23    4.84
  10   1   0  107.38    4.97
  -1  10   0  109.31    4.39
 -10  -1   0  110.43    4.87
  10  -2   0   42.62    2.54
  10   2   0   48.90    2.73
  10   2   0   49.02    2.55
   2  10   0   41.77    2.22
   2 -10   0   46.25    2.75
  -2 -10   0   43.38    2.45
 -10   2   0   43.82    2.41
  -2 -10   0   41.60    2.30
 -10  -2   0   45.65    2.38
 -10   2   0   41.61    2.42
  10  -2   0   51.58    2.92
  -2  10   0   41.86    2.24
   2  10   0   45.73    2.23
  -2  10   0   45.18    2.07
 -10  -2   0   42.31    2.56
   3  10   0   75.24    3.35
  -3 -10   0   73.98    3.57
  10  -3   0   68.47    3.50
  -3  10   0   76.43    3.34
 -10   3   0   71.78    3.39
  10   3   0   72.65    3.79
  10  -3   0   78.24    4.11
   3 -10   0   72.41    3.15
 -10   3   0   67.76    3.38
  -3  10   0   73.35    3.05
   3 -10   0   69.56    3.84
 -10  -3   0   75.53    3.35
   3  10   0   75.85    3.22
  -3 -10   0   72.68    3.38
 -10  -3   0   69.70    3.67
   4 -10   0    0.78    0.89
 -10  -4   0    1.51    0.85
  -4  10   0   -0.51    0.55
 -10   4   0    0.61    0.81
   4 -10   0    0.89    0.52
 -10  -4   0    1.25    0.67
 -10   4   0    0.95    0.61
  10  -4   0    1.29    1.03
   4  10   0    1.08    0.67
  -4 -10   0    1.13    0.61
   4  10   0    1.10    0.64
  -4 -10   0    0.55    0.74
  10   4   0    1.07    0.89
  10  -4   0    1.04    0.67
 -10   5   0   63.37    3.28
   5 -10   0   62.41    2.87
 -10   5   0   69.34    3.10
 -10  -5   0   65.23    3.05
  -5 -10   0   65.87    3.33
  10  -5   0   70.28    3.23
  -5  10   0   63.01    3.18
   5  10   0   65.54    2.99
  10   5   0   69.76    3.67
   5 -10   0   66.07    3.85
   5  10   0   68.84    3.35
  10  -5   0   67.38    4.00
 -10  -5   0   67.70    3.52
  -5 -10   0   63.18    3.23
 -10  -6   0  137.07    6.22
  10  -6   0  147.33    7.15
  -6  10   0  144.37    5.87
   6  10   0  138.62    6.15
  10   6   0  138.31    6.43
   6  10   0  142.76    5.66
 -10   6   0  140.77    5.97
 -10   6   0  142.65    5.77
  10   6   0  149.50    5.74
  -6 -10   0  144.50    6.11
  10  -6   0  146.05    5.91
   6 -10   0  134.47    6.94
  10  -7   0    1.17    0.64
   7  10   0    0.11    1.01
  -7 -10   0    0.83    0.89
  10   7   0    0.82    0.74
 -10  -7   0    0.05    0.79
 -10   7   0    1.91    1.00
   7  10   0    1.44    0.72
  -7  10   0    0.75    0.88
  10  -7   0    1.13    1.28
  10   7   0    1.93    1.07
   7 -10   0    0.07    1.06
 -10  -8   0   25.96    2.24
  10  -8   0   20.98    2.49
  -8  10   0   24.51    1.97
 -10   8   0   24.73    2.16
  -8 -10   0   21.17    2.08
  10   8   0   27.22    1.85
   8  10   0   21.69    1.66
  10   8   0   23.48    2.21
   8 -10   0   24.72    2.56
   8  10   0   22.00    2.18
  -9 -10   0   24.32    2.13
   9  10   0   23.06    1.79
 -10  -9   0   23.12    2.13
   9 -10   0   24.50    2.68
  -9  10   0   22.12    2.18
  10   9   0   26.09    2.50
 -10   9   0   26.17    2.17
  10  -9   0   24.91    2.88
   9  10   0   22.95    2.37
 -10 -10   0   28.49    2.41
  10  10   0   30.39    2.64
 -10  10   0   31.23    2.45
  10 -10   0   29.37    3.02
   0  11   0    0.04    0.52
  11   0   0   -0.07    0.78
 -11   0   0    0.31    0.69
 -11   0   0   -0.59    0.65
  11   0   0   -0.13    0.80
   0  11   0   -1.12    0.50
   0 -11   0    0.09    0.69
   0 -11   0   -0.19    0.58
 -11  -1   0    1.40    0.78
  11   1   0    1.79    0.85
   1  11   0    1.67    0.65
  11   1   0    1.81    1.00
  -1 -11   0    1.70    0.70
  11  -1   0    2.37    0.96
   1  11   0    1.75    0.66
 -11   1   0    0.36    0.66
  -1  11   0    2.02    0.61
  11  -1   0    0.55    0.81
  -1  11   0    1.77    0.70
 -11  -1   0    2.25    0.82
  -1 -11   0    1.39    0.72
   1 -11   0    1.45    0.88
   1 -11   0    1.44    0.67
 -11   1   0    0.08    0.68
 -11   2   0    6.42    1.09
  11  -2   0    5.89    1.14
   2 -11   0    6.77    1.28
 -11  -2   0    6.57    1.16
  11   2   0    7.84    1.35
  11  -2   0    9.59    1.53
  -2 -11   0    7.30    1.09
   2 -11   0    6.59    0.93
 -11   2   0    6.29    1.14
   2  11   0    6.53    0.97
  -2 -11   0    6.33    1.04
 -11  -2   0    6.10    1.00
  -2  11   0    6.54    0.99
   2  11   0    5.38    0.90
  11  -3   0  101.36    4.85
  -3  11   0  103.28    4.59
   3 -11   0  111.58    5.47
   3  11   0  105.73    4.50
 -11   3   0  104.93    4.75
 -11   3   0  109.99    4.77
  11   3   0  105.08    5.11
  -3 -11   0  108.40    4.75
   3  11   0  107.77    4.71
   3 -11   0  110.53    4.49
  -3 -11   0  118.00    5.11
  11  -3   0  127.68    5.65
 -11  -3   0  110.84    4.66
 -11  -3   0  103.76    5.00
  11  -4   0   28.28    2.49
 -11  -4   0   26.90    1.81
   4  11   0   26.89    1.93
 -11  -4   0   24.50    2.03
  11   4   0   28.31    2.30
 -11   4   0   23.95    1.75
  -4 -11   0   24.04    1.89
  -4  11   0   26.13    1.85
 -11   4   0   26.68    2.03
   4 -11   0   28.63    2.40
   4  11   0   25.49    1.74
  11  -4   0   28.50    1.96
  -4 -11   0   26.83    1.80
   4 -11   0   27.27    1.60
  11   5   0   44.90    3.04
   5  11   0   47.38    2.73
  11  -5   0   45.99    2.63
   5  11   0   47.09    2.45
  11  -5   0   54.13    3.52
 -11   5   0   43.48    2.67
 -11   5   0   47.87    2.54
  -5  11   0   48.24    2.60
   5 -11   0   42.33    3.09
  -5 -11   0   47.43    2.69
 -11  -5   0   46.69    2.98
  11  -6   0   43.82    2.47
   6 -11   0   41.68    3.12
   6  11   0   46.02    2.37
 -11   6   0   43.00    2.73
  11   6   0   40.66    2.97
  11  -6   0   43.94    3.24
  -6  11   0   39.55    2.56
 -11  -6   0   42.15    2.79
  -6 -11   0   45.05    2.66
   6  11   0   42.90    2.66
 -11  -6   0   39.01    2.31
 -11   7   0  194.72    7.86
  -7  11   0  184.45    7.73
   7  11   0  187.55    7.42
  11  -7   0  203.20    9.35
   7 -11   0  196.21    9.22
  -7 -11   0  186.69    7.98
   7  11   0  189.73    8.13
  11   7   0  196.06    8.38
 -11  -7   0  188.31    8.17
  -8  11   0   55.53    3.14
  11  -8   0   53.64    4.02
 -11  -8   0   52.30    3.33
   8  11   0   53.38    2.84
  11   8   0   53.80    3.48
  -8 -11   0   55.86    3.29
   8 -11   0   58.35    4.12
   8  11   0   57.43    3.48
 -11   8   0   57.72    3.28
   9  11   0    1.38    1.29
  11  -9   0    0.56    1.35
  -9  11   0   -0.70    1.06
   9 -11   0    0.29    1.57
 -11  -9   0    0.13    0.94
  -9 -11   0    1.50    1.21
  11   9   0    1.64    1.33
 -11   9   0   -0.20    0.96
  11  10   0   41.42    3.16
 -11  10   0   35.92    2.73
 -11 -10   0   33.00    2.71
  11 -10   0   29.20    3.17
  10 -11   0   29.74    3.22
 -10 -11   0   34.93    2.70
  10  11   0   34.10    3.02
 -10  11   0   34.11    2.64
 -11 -11   0  140.96    6.76
  11  11   0  144.89    6.95
  11 -11   0  136.56    7.74
 -11  11   0  150.79    6.66
   0  12   0   99.85    4.22
   0  12   0   93.24    4.21
 -12   0   0   96.29    4.56
   0 -12   0   93.00    4.76
  12   0   0  106.82    4.87
 -12   0   0   97.03    4.34
  12   0   0   93.67    4.66
   0 -12   0  102.27    4.30
 -12   1   0   23.55    1.80
  12   1   0   19.65    1.87
 -12  -1   0   22.12    1.71
  -1 -12   0   18.19    1.72
   1  12   0   22.55    1.61
  12  -1   0   22.32    1.88
   1 -12   0   22.57    1.59
 -12  -1   0   18.32    1.75
   1 -12   0   20.18    1.87
  12  -1   0   26.31    2.06
   1  12   0   21.09    1.58
  -1  12   0   17.58    1.55
 -12   1   0   19.20    1.80
  -1 -12   0   21.87    1.67
  -2  12   0    4.46    1.06
  12  -2   0   10.78    1.64
 -12   2   0    7.10    1.15
   2 -12   0    2.98    0.85
  -2 -12   0    4.06    1.01
  -2 -12   0    5.44    1.06
  12  -2   0    4.72    1.12
  12   2   0    5.89    1.22
   2 -12   0    5.51    1.23
   2  12   0    6.59    1.05
 -12  -2   0    5.82    1.11
 -12   2   0    4.50    1.15
 -12  -2   0    4.29    1.13
   2  12   0    4.25    0.99
   3 -12   0   96.94    4.23
   3 -12   0  104.49    5.22
   3  12   0  103.44    4.48
  12  -3   0  100.46    4.67
 -12   3   0   96.26    4.52
 -12  -3   0   99.41    4.83
  12  -3   0  111.50    5.31
 -12   3   0  100.81    4.52
  12   3   0   93.93    4.82
  -3 -12   0   99.14    4.50
 -12  -3   0   96.82    4.41
  -3 -12   0   96.69    4.76
  -3  12   0   96.50    4.35
   3  12   0   99.65    4.31
 -12  -4   0  107.46    4.98
  -4  12   0   93.84    4.47
  12  -4   0  117.66    5.61
 -12   4   0  101.06    4.65
 -12   4   0   92.93    4.53
  12   4   0  102.59    5.03
   4  12   0  106.71    4.71
  -4 -12   0  101.41    4.68
  12  -4   0   99.14    4.72
  -4 -12   0  104.59    4.86
   4  12   0  102.40    4.42
 -12  -4   0  101.03    4.48
   4 -12   0  100.01    5.33
  -5 -12   0    1.89    1.00
  12  -5   0    2.92    1.30
  -5  12   0    3.70    1.02
  12   5   0    1.87    1.04
   5  12   0    3.19    0.93
   5 -12   0    1.82    1.18
 -12  -5   0    5.54    1.29
  12  -5   0    2.65    0.97
 -12  -5   0    2.11    0.91
 -12   5   0    3.30    1.06
   5  12   0    2.80    1.01
  12  -6   0   62.80    3.40
  -6  12   0   62.46    3.39
   6  12   0   73.87    3.76
  -6 -12   0   72.15    3.73
   6  12   0   64.58    3.24
 -12   6   0   63.76    3.56
   6 -12   0   64.33    4.17
  12  -6   0   83.03    4.58
  12   6   0   59.21    3.77
 -12  -6   0   68.27    3.91
  12  -7   0   11.74    2.20
 -12  -7   0    9.07    1.60
  -7 -12   0    8.06    1.46
   7  12   0   10.08    1.75
  12   7   0    8.67    1.66
   7  12   0    8.35    1.24
   7 -12   0    8.73    1.86
  -7  12   0    6.23    1.32
 -12   7   0    8.78    1.52
  -8 -12   0   18.72    2.05
  12   8   0   23.18    2.36
   8 -12   0   20.25    2.60
  -8  12   0   21.18    2.07
   8  12   0   20.84    2.32
 -12  -8   0   24.73    2.31
 -12   8   0   21.94    2.31
  12  -8   0   25.11    2.93
   8  12   0   19.80    1.78
  12   9   0   33.99    2.98
   9 -12   0   25.31    3.05
  -9  12   0   31.56    2.56
  12  -9   0   38.46    3.45
 -12  -9   0   31.65    2.67
 -12   9   0   28.38    2.52
  -9 -12   0   31.24    2.59
   9  12   0   30.81    2.86
 -12  10   0   39.15    2.99
  10 -12   0   37.50    3.83
 -12 -10   0   36.71    3.12
  12 -10   0   44.33    3.91
  10  12   0   38.64    3.29
  12  10   0   42.16    3.38
 -10 -12   0   39.05    2.99
 -10  12   0   39.38    2.93
  11  12   0   11.56    2.16
  11 -12   0   17.14    2.94
 -12  11   0   12.14    2.12
  12 -11   0   15.91    2.86
 -11  12   0   17.22    2.24
  12  11   0   20.01    2.46
 -12 -11   0   11.63    2.02
 -11 -12   0   12.00    2.07
 -12 -12   0    5.46    1.69
 -12  12   0    5.68    1.71
  12  12   0    4.93    1.84
  12 -12   0    2.08    2.00
   0  13   0   -0.06    0.79
   0 -13   0    0.04    0.86
   0 -13   0    0.17    0.76
 -13   0   0    1.07    0.84
 -13   0   0    0.75    0.80
  13   0   0    0.84    0.94
  -1  13   0   72.48    3.49
 -13   1   0   74.53    3.64
  13   1   0   71.89    3.93
  -1 -13   0   76.86    3.58
 -13  -1   0   80.23    3.86
  13  -1   0   70.08    3.86
   1 -13   0   69.61    3.93
   1 -13   0   72.28    3.45
 -13   1   0   72.69    3.77
 -13  -1   0   72.96    3.54
  -1 -13   0   70.37    3.88
   1  13   0   69.42    3.48
  13  -2   0   92.15    4.68
 -13  -2   0   90.86    4.30
   2 -13   0  100.96    5.11
 -13   2   0   93.74    4.56
 -13   2   0   98.44    4.45
  13  -2   0  113.65    5.21
  -2 -13   0   92.43    4.37
  -2  13   0   95.30    4.34
   2  13   0   96.88    4.35
   2  13   0  108.68    4.54
 -13  -2   0   92.56    4.66
  -2 -13   0   97.28    4.81
  13   2   0   89.65    4.72
   3  13   0   22.11    1.77
  13  -3   0   30.85    2.63
 -13  -3   0   26.71    1.95
   3 -13   0   28.81    2.37
  -3 -13   0   26.34    2.00
  13   3   0   27.01    2.38
 -13   3   0   23.91    1.98
  -3  13   0   25.02    2.02
  13  -3   0   23.68    2.10
 -13  -3   0   27.97    2.29
   3  13   0   26.84    1.99
  -3 -13   0   28.50    2.09
 -13   3   0   28.09    2.18
  13  -4   0   30.74    2.36
   4 -13   0   36.36    2.96
 -13   4   0   33.06    2.26
  13   4   0   36.11    2.68
  -4 -13   0   34.92    2.35
  -4  13   0   33.97    2.25
  13  -4   0   41.42    3.06
   4  13   0   33.40    2.38
   4  13   0   32.89    2.20
 -13  -4   0   36.27    2.59
   5  13   0   50.50    3.06
 -13   5   0   50.67    3.08
   5  13   0   49.99    2.72
   5 -13   0   47.54    3.47
  13   5   0   47.35    3.17
 -13  -5   0   46.60    3.10
  -5 -13   0   50.96    2.99
  13  -5   0   54.92    3.70
  -5  13   0   44.57    2.82
  13  -5   0   45.21    2.88
   6 -13   0   32.22    3.08
  -6  13   0   27.74    2.29
  13   6   0   29.46    2.55
  13  -6   0   32.43    2.87
   6  13   0   32.90    2.57
 -13   6   0   34.11    2.61
   6  13   0   30.47    2.14
 -13  -6   0   29.99    2.53
  -6 -13   0   31.60    2.54
  13   7   0   13.37    2.10
  13  -7   0   17.07    2.35
   7 -13   0   14.42    2.44
 -13   7   0    9.34    1.62
 -13  -7   0   10.44    1.83
  -7  13   0   13.47    1.94
   7  13   0   12.85    2.04
  -7 -13   0    9.25    1.59
   7  13   0   10.31    1.46
   8  13   0    5.38    1.67
 -13   8   0    4.10    1.42
  13  -8   0    7.44    1.88
 -13  -8   0    5.91    1.63
  -8  13   0    5.33    1.36
   8 -13   0    7.47    1.99
  13   8   0    5.99    1.75
  -8 -13   0    4.10    1.37
  -9 -13   0    3.75    1.39
  -9  13   0    6.28    1.64
 -13   9   0    2.69    1.38
  13  -9   0    3.90    1.87
   9 -13   0    2.61    1.76
 -13  -9   0    3.21    1.39
   9  13   0    3.47    1.61
  13   9   0    3.70    1.50
  13 -10   0    3.96    1.97
 -10  13   0    1.67    1.43
  13  10   0    1.22    1.36
  10 -13   0    2.18    1.95
 -13 -10   0    4.62    1.63
  10  13   0    3.81    1.62
 -10 -13   0    2.85    1.39
 -13  10   0    0.51    1.33
  13 -11   0    5.91    2.25
  13  11   0    2.75    1.70
 -13  11   0    3.05    1.72
  11  13   0    3.72    1.79
 -11  13   0    3.05    1.66
  11 -13   0    3.37    1.96
 -11 -13   0    0.21    1.34
 -13 -11   0    1.90    1.40
 -13 -12   0    5.35    1.80
  13  12   0    8.58    2.01
 -13  12   0    5.13    1.75
 -12 -13   0    8.31    1.93
  13 -12   0    8.50    2.33
 -12  13   0    5.60    1.82
  12 -13   0    5.46    2.37
  12  13   0    9.34    2.06
  13  13   0   27.04    3.05
 -13 -13   0   30.40    3.31
 -13  13   0   29.12    3.35
  13 -13   0   31.97    3.70
   0  14   0  112.27    4.94
   0 -14   0  118.22    5.00
   0 -14   0  111.04    5.55
 -14   0   0  108.84    5.17
 -14   0   0  107.17    4.89
  14   0   0  111.71    5.32
 -14  -1   0   36.11    2.30
 -14   1   0   33.06    2.47
  14   1   0   34.93    2.57
  -1  14   0   34.44    2.38
   1  14   0   33.45    2.22
  -1 -14   0   38.43    2.38
 -14  -1   0   34.12    2.49
  -1 -14   0   34.51    2.52
 -14   1   0   34.61    2.37
  14  -1   0   34.41    2.63
   1 -14   0   38.29    2.64
 -14  -2   0    7.57    1.40
  -2 -14   0    8.48    1.42
   2 -14   0    6.72    1.48
  -2 -14   0    7.05    1.32
  14  -2   0    7.96    1.51
 -14  -2   0    7.10    1.29
   2  14   0    6.75    1.27
 -14   2   0    6.25    1.29
  -2  14   0    5.29    1.17
 -14   2   0    9.77    1.49
  14   2   0    7.53    1.44
  14  -3   0    0.39    0.98
 -14   3   0    0.20    1.01
  -3  14   0    0.83    0.93
 -14   3   0    0.66    0.80
   3 -14   0   -0.17    1.10
  14   3   0   -0.43    1.11
 -14  -3   0    0.00    0.82
  14  -3   0    2.82    1.31
   3  14   0    1.66    0.96
  -3 -14   0   -0.46    0.92
   4 -14   0   46.51    3.38
  14   4   0   47.31    3.19
 -14   4   0   38.41    2.78
  -4 -14   0   44.56    2.77
  14  -4   0   49.42    3.44
  -4  14   0   39.38    2.71
 -14  -4   0   39.72    2.96
   4  14   0   41.91    2.59
  14  -4   0   40.85    2.80
  -5  14   0   18.66    2.05
 -14  -5   0   18.31    2.09
  14   5   0   21.43    2.29
  14  -5   0   23.02    2.08
  -5 -14   0   20.57    2.16
 -14   5   0   21.15    2.19
   5  14   0   24.10    2.29
   5 -14   0   22.78    2.73
   5  14   0   19.54    1.74
  14  -5   0   24.89    2.69
  14  -6   0   22.54    2.70
   6  14   0   17.51    2.22
   6 -14   0   23.73    2.69
  14   6   0   18.35    2.25
   6  14   0   14.86    1.76
  -6 -14   0   19.17    2.24
 -14   6   0   17.20    2.01
  -6  14   0   16.81    2.10
 -14  -6   0   18.78    2.17
 -14  -7   0   -0.70    1.23
 -14   7   0    0.63    1.16
  -7 -14   0   -0.61    1.14
  -7  14   0   -0.15    1.03
  14  -7   0    2.12    1.57
   7  14   0   -0.13    1.38
  14   7   0   -1.67    1.01
   7 -14   0    0.21    1.41
  14  -8   0    2.83    1.70
  -8  14   0    1.94    1.41
 -14  -8   0    0.32    1.34
 -14   8   0    3.40    1.51
  14   8   0   -0.77    1.12
   8 -14   0    1.71    1.79
  -8 -14   0    3.16    1.47
   8  14   0    0.32    1.46
   9  14   0   33.93    3.20
  14  -9   0   36.25    3.41
 -14   9   0   33.25    2.88
  -9 -14   0   38.08    3.12
   9 -14   0   32.72    3.56
  14   9   0   34.64    3.18
 -14  -9   0   33.89    3.05
  -9  14   0   35.49    2.86
 -10  14   0    1.64    1.52
  10  14   0   -0.87    1.46
  14  10   0    1.94    1.62
  10 -14   0    0.13    1.89
  14 -10   0    0.95    1.74
 -10 -14   0    1.54    1.39
 -14  10   0   -2.44    1.20
 -14 -10   0   -0.24    1.40
 -11  14   0    8.54    1.95
 -14 -11   0    5.25    1.76
  11  14   0    4.70    1.78
  14 -11   0    7.30    2.41
  11 -14   0    6.12    2.25
 -14  11   0    4.81    1.91
 -11 -14   0    3.11    1.64
  14  11   0    6.92    1.95
 -12 -14   0   21.15    2.74
  12 -14   0   24.69    3.79
 -12  14   0   22.90    3.12
  14  12   0   29.67    3.25
  14 -12   0   28.67    3.47
 -14  12   0   19.56    2.84
  12  14   0   23.25    3.12
 -14 -12   0   25.61    2.97
  14 -13   0    9.34    2.98
 -14  13   0    7.43    2.25
  13  14   0   10.72    2.42
  14  13   0    8.37    2.27
  15   0   0    0.63    0.99
   0 -15   0   -0.06    0.97
 -15   0   0    1.56    1.00
   0  15   0    0.62    1.01
 -15   0   0    0.77    0.97
  -1  15   0   18.50    1.81
 -15   1   0   18.87    2.01
  -1 -15   0   19.48    2.07
   1  15   0   19.86    1.83
  -1 -15   0   19.42    1.95
  15   1   0   21.97    2.24
  15  -1   0   21.28    2.17
 -15  -1   0   18.84    1.90
   1 -15   0   20.44    2.22
 -15   1   0   18.62    1.92
  -2  15   0   26.10    2.08
   2 -15   0   28.07    2.53
 -15   2   0   26.09    2.22
  15   2   0   22.11    2.21
 -15  -2   0   26.43    2.36
 -15   2   0   24.55    2.02
  15  -2   0   24.10    2.19
  -2 -15   0   23.56    2.16
  -2 -15   0   21.03    2.16
   2  15   0   22.30    2.06
  -3 -15   0    4.51    1.19
  15   3   0    4.19    1.48
   3  15   0    1.64    0.98
  -3  15   0    3.89    1.21
 -15  -3   0    3.98    1.35
   3 -15   0    5.25    1.57
 -15   3   0    5.18    1.27
  15  -3   0    4.65    1.35
  15   4   0   68.32    4.17
   4 -15   0   68.88    4.49
  -4 -15   0   71.53    3.90
 -15  -4   0   74.45    4.05
   4  15   0   71.83    3.69
  15  -4   0   69.06    3.92
  -4  15   0   68.20    3.76
 -15   4   0   77.28    3.97
 -15   5   0    5.18    1.34
   5 -15   0    3.73    1.71
  -5 -15   0    4.12    1.27
  15   5   0    4.00    1.54
  15  -5   0    5.18    1.67
   5  15   0    3.89    1.22
 -15  -5   0    4.43    1.51
  -5  15   0    3.82    1.24
   6  15   0   25.52    2.22
  -6 -15   0   27.71    2.49
 -15  -6   0   26.60    2.69
   6 -15   0   22.33    2.83
  15   6   0   24.29    2.72
  -6  15   0   25.22    2.32
 -15   6   0   25.74    2.38
  15  -6   0   35.47    3.15
 -15  -7   0    9.87    1.93
  -7 -15   0    8.72    1.91
  15   7   0    8.23    1.89
  15  -7   0   11.13    2.08
   7 -15   0    6.61    2.05
  -7  15   0   10.67    1.75
   7  15   0   10.71    2.06
 -15   7   0    6.84    1.61
  -8  15   0   85.26    4.77
   8 -15   0   90.55    5.93
 -15   8   0   84.77    4.66
 -15  -8   0   77.55    4.88
  -8 -15   0   78.81    4.76
   8  15   0   88.63    5.05
  15  -8   0   96.94    5.55
  15   8   0   78.57    4.95
   9 -15   0   -0.98    1.92
   9  15   0    1.64    1.61
  15   9   0    2.26    1.43
  15  -9   0    1.66    1.79
 -15  -9   0    0.68    1.44
  -9 -15   0    0.48    1.36
  -9  15   0    1.83    1.51
 -15   9   0    1.75    1.57
 -15  10   0   17.48    2.60
 -15 -10   0   19.11    2.63
 -10  15   0   17.95    2.61
  15 -10   0   27.45    3.42
  10 -15   0   25.03    3.76
  15  10   0   14.85    2.59
  10  15   0   18.67    2.78
 -10 -15   0   20.52    2.57
 -15  11   0    6.17    2.09
 -11  15   0    6.44    1.98
 -15 -11   0    6.18    1.94
 -11 -15   0    4.72    1.99
  15 -11   0    6.75    2.38
  11 -15   0    7.01    2.51
  15  11   0    8.82    2.02
  11  15   0    7.80    2.07
 -16   0   0   19.66    2.01
  16   0   0   13.87    2.10
   0  16   0   18.04    1.89
   0 -16   0   18.51    2.03
 -16   1   0    5.08    1.36
 -16  -1   0    1.21    1.04
  16  -1   0    2.51    1.30
  -1  16   0    4.74    1.33
   1  16   0    3.01    1.13
  -1 -16   0    4.63    1.39
  16   1   0    3.91    1.33
   1 -16   0    5.80    1.61
   2  16   0    0.61    0.99
  16  -2   0    2.51    1.27
 -16   2   0    1.84    1.05
  -2 -16   0    0.73    1.15
 -16  -2   0    1.06    1.16
   2 -16   0    1.90    1.40
  -2  16   0    2.30    1.25
  16   2   0    1.85    1.27
  16  -3   0    5.23    1.47
  -3 -16   0    6.98    1.57
 -16   3   0    6.39    1.47
   3 -16   0    7.69    1.81
  -3  16   0    4.20    1.30
  16   3   0    4.81    1.54
   3  16   0    4.58    1.27
 -16  -3   0    3.85    1.28
 -16  -4   0   15.00    2.01
 -16   4   0   21.79    2.25
  -4 -16   0   17.19    2.22
   4  16   0   14.03    1.70
  16   4   0   15.94    2.30
  -4  16   0   14.42    1.91
   4 -16   0   13.58    2.21
  16  -4   0   13.30    1.92
 -16  -5   0   68.38    4.10
  16   5   0   69.99    4.27
 -16   5   0   68.02    3.89
  -5  16   0   65.65    3.81
   5 -16   0   67.93    4.53
   5  16   0   61.75    3.59
  -5 -16   0   66.38    3.95
  -6  16   0   -0.85    1.15
 -16   6   0    1.55    1.36
  -6 -16   0    0.18    1.36
 -16  -6   0   -0.05    1.29
  16   6   0   -0.40    1.26
   6 -16   0    1.96    1.84
  16  -7   0   10.12    2.18
   7 -16   0    7.80    2.30
 -16  -7   0    5.63    1.63
 -16   7   0    6.89    1.69
  -7 -16   0    5.52    1.75
  16   7   0    7.04    1.86
  -7  16   0    5.25    1.73
  -8  16   0   -1.87    1.38
   8 -16   0    1.78    1.96
 -16   8   0    0.84    1.35
  16  -8   0    0.10    1.66
  -8 -16   0   -1.89    1.13
 -16  -8   0   -0.33    1.39
  16   8   0   -0.13    1.50
  -9 -16   0   59.91    4.29
   9 -16   0   66.56    5.40
  -9  16   0   60.07    4.09
  16  -9   0   79.67    5.08
  16   9   0   56.49    4.22
 -16  -9   0   65.66    4.37
 -16   9   0   67.91    4.32
 -10 -16   0    5.47    1.80
  16 -10   0    5.91    2.14
  10 -16   0    4.25    2.42
 -16 -10   0    2.64    1.70
  10  16   0    4.94    2.19
 -16  10   0    3.85    2.02
  16  10   0    8.04    2.08
 -10  16   0    4.34    1.82
  17   0   0    0.17    1.17
 -17   0   0    1.02    1.17
   0 -17   0   -0.94    1.11
   0  17   0   -0.33    1.03
  17   1   0   54.36    3.61
   1 -17   0   51.70    3.71
   1  17   0   51.07    3.31
  17  -1   0   57.14    3.65
 -17  -1   0   58.12    3.49
  -1  17   0   50.22    3.22
  17   2   0    3.36    1.36
   2 -17   0    1.13    1.48
   2  17   0    1.57    1.25
  -2  17   0    2.30    1.30
  17  -2   0    2.44    1.32
 -17  -2   0    1.47    1.25
 -17  -3   0   31.71    2.84
  17   3   0   38.66    2.92
  17  -3   0   36.94    2.88
   3 -17   0   34.53    3.24
   3  17   0   33.09    2.54
  -3 -17   0   34.93    2.98
  -3  17   0   31.26    2.77
 -17  -4   0    8.27    1.77
  -4 -17   0    9.96    1.85
  -4  17   0   11.90    2.00
   4 -17   0   10.55    2.10
 -17   4   0   12.61    1.87
  17   4   0    7.00    1.83
   4  17   0   10.39    1.71
  -5  17   0   12.20    2.01
  -5 -17   0   15.99    2.34
   5 -17   0   19.36    2.64
 -17   5   0   17.36    2.27
 -17  -5   0   12.91    2.08
  17   5   0   18.28    2.50
 -17   6   0    5.00    1.56
 -17  -6   0    4.46    1.51
   6 -17   0    4.71    2.04
  -6 -17   0    1.63    1.62
  17   6   0    4.38    1.58
  -6  17   0    2.13    1.49
   7 -17   0    3.45    2.16
  -7  17   0    0.03    1.35
  17   7   0    4.73    1.82
 -17   7   0    0.51    1.46
  -7 -17   0    4.11    1.64
 -17  -7   0    2.50    1.48
  17   8   0    8.63    1.98
   8 -17   0    8.66    2.44
 -17  -8   0    8.45    1.99
  -8 -17   0   10.52    2.26
 -17   8   0   10.31    2.09
  -8  17   0    6.95    1.88
  18   0   0   91.16    5.00
   0  18   0   96.56    4.91
  18   1   0    1.86    1.42
 -18  -1   0    1.71    1.16
   1 -18   0   -0.53    1.26
   1  18   0    1.70    1.33
  18  -1   0    0.55    1.33
  -1  18   0    2.40    1.46
  -2  18   0   -1.96    1.16
   2  18   0    1.68    1.38
 -18  -2   0    0.19    1.07
   2 -18   0    2.97    1.59
  18   2   0   -0.06    1.16
  18  -2   0    1.10    1.33
   3 -18   0    5.46    1.91
 -18  -3   0   10.79    1.88
   3  18   0    7.34    1.69
  18   3   0    6.68    1.65
  -3  18   0    7.36    1.71
   4 -18   0   46.99    3.88
  18   4   0   51.29    3.69
  -4  18   0   54.70    3.51
 -18  -4   0   47.85    3.45
  -5  18   0   -0.63    1.24
  18   5   0   -0.08    1.46
  -5 -18   0   -0.86    1.44
   5 -18   0    2.04    1.65
 -18  -5   0    2.15    1.43
   6 -18   0    0.43    1.82
  18   6   0   -0.09    1.36
 -18  -6   0   -0.54    1.17
  -6 -18   0   -0.93    1.57
  -6  18   0    0.36    1.38
  19   0   0    0.68    1.43
   0  19   0   -1.32    1.18
  19   1   0    6.40    1.77
   1  19   0    8.96    1.80
  -1  19   0    4.52    1.67
  19  -1   0    9.53    1.95
  -2  19   0    2.54    1.42
  19  -2   0    0.44    1.29
   2 -19   0    1.14    1.63
   2  19   0    4.48    1.58
  19   2   0    2.15    1.44
   0   0   1  588.19   20.02
   0   0   1  583.00   20.66
   0   0   1  571.17   23.12
   0   0   1  578.41   20.85
   1   0   1    5.55    0.40
   0   1  -1    5.67    0.45
   1   0  -1    6.48    0.43
   0   1   1    7.37    0.57
   0   1   1    5.70    0.41
   0   1   1    6.83    0.48
   1   0   1    6.19    0.54
   1   0   1    5.87    0.49
   0  -1   1    5.55    0.45
  -1   0   1    5.78    0.39
   0   1   1    6.05    0.47
   0  -1   1    6.87    0.58
  -1   0   1    5.85    0.47
   0  -1   1    6.02    0.42
  -1   0   1    7.04    0.60
   1   0   1    6.14    0.48
   1  -1   1  537.33   18.61
   1   1   1  546.54   19.11
   1   1   1  571.43   19.85
   1  -1   1  494.26   20.88
  -1  -1   1  536.46   19.69
   1   1   1  595.49   19.68
   1  -1  -1  539.72   19.76
  -1   1  -1  513.32   19.13
   1  -1   1  527.15   18.91
   1   1  -1  520.16   18.86
  -1   1   1  544.11   18.76
  -1  -1   1  544.20   22.04
  -1   1   1  511.25   20.96
  -1   1   1  526.15   18.06
   1   1   1  556.96   21.94
   0  -2   1    5.22    0.39
  -2   0   1    4.46    0.49
   2   0   1    5.33    0.52
   0   2   1    4.91    0.47
  -2   0  -1    5.72    0.38
   2   0   1    4.76    0.45
   2   0   1    4.89    0.47
   2   0  -1    5.40    0.42
  -2   0   1    5.12    0.32
   0   2   1    5.38    0.46
   0  -2  -1    5.68    0.59
   0   2  -1    5.43    0.45
   0   2  -1    5.40    0.46
   0  -2   1    5.66    0.59
  -2   0   1    5.70    0.59
   0   2   1    5.05    0.36
  -2  -1   1  161.32    5.78
   2  -1  -1  173.10    6.12
  -2   1  -1  159.65    6.13
   1   2  -1  197.70    6.75
   1  -2   1  188.09    7.97
   1  -2   1  192.96    7.20
   1  -2   1  201.90    6.96
  -1   2   1  190.51    6.87
  -1   2   1  189.70    7.14
  -2  -1   1  166.47    6.25
   2   1   1  169.13    6.81
   2   1   1  169.62    6.09
   2  -1  -1  172.62    7.04
  -1   2   1  193.16    7.01
   2   1   1  163.66    6.25
   1   2  -1  193.16    7.17
  -2  -1   1  166.13    6.99
  -1  -2  -1  193.46    7.92
   2   1  -1  190.05    7.14
   1   2   1  163.26    6.03
  -1   2  -1  171.17    6.06
   1   2   1  171.41    6.18
  -2   1   1  191.69    6.79
   1  -2  -1  164.29    7.03
  -2  -1  -1  198.87    7.06
   1   2   1  167.86    6.18
   2  -1   1  191.26    7.93
  -1  -2   1  166.38    6.97
  -2   1   1  197.32    7.18
   2  -1   1  192.23    7.21
  -1  -2   1  165.76    6.19
  -2  -2  -1  742.83   25.99
  -2   2   1  718.00   26.07
   2   2   1  672.51   26.83
  -2  -2   1  683.71   27.04
  -2   2  -1  654.76   23.53
   2   2  -1  745.92   24.90
   2  -2  -1  688.08   24.19
   2  -2   1  718.10   26.28
   2   2   1  694.89   23.49
  -2  -2   1  682.61   24.30
   2   2   1  694.91   24.40
   2  -2   1  778.19   25.78
   2   2  -1  745.77   26.25
  -2   2   1  712.58   25.11
   2  -2  -1  644.51   27.12
   2  -2   1  671.85   29.00
   0   3  -1  213.51    8.06
   3   0   1  212.31    8.80
   0   3   1  213.79    7.88
  -3   0   1  211.43    8.08
  -3   0   1  221.81    7.53
  -3   0  -1  229.03    7.86
  -3   0   1  219.38    9.04
   0  -3   1  227.42    7.92
   0   3  -1  225.59    7.65
   0   3   1  210.93    7.75
  -3   0  -1  216.49    7.91
   0   3   1  219.85    8.00
   3   0   1  219.85    8.12
   0  -3   1  207.26    8.96
   0  -3  -1  208.56    9.02
   3   0  -1  218.71    7.97
   3   1   1  168.94    6.61
  -1  -3  -1  132.68    5.77
   3  -1  -1  163.79    5.97
   1  -3   1  139.22    4.95
   3   1   1  162.61    5.99
  -3   1  -1  170.14    5.86
   1   3  -1  132.83    5.19
   3   1   1  160.79    6.16
   1   3  -1  139.94    4.82
  -1   3   1  137.10    4.96
  -1   3   1  137.94    5.20
   3  -1  -1  164.25    6.93
  -3  -1   1  158.55    6.84
  -3   1  -1  158.80    6.07
  -1   3   1  133.71    4.99
   1  -3   1  133.42    5.80
   1  -3   1  135.74    5.22
  -1   3  -1  166.85    5.88
  -3   1   1  134.23    5.23
   1   3   1  156.59    6.01
  -1  -3   1  169.32    6.14
   1   3   1  159.38    5.91
   3  -1   1  133.39    5.70
   3   1  -1  140.79    5.16
   3  -1   1  138.39    5.26
  -3  -1  -1  138.67    5.07
   1  -3  -1  149.26    6.92
  -3   1   1  140.27    4.87
  -1  -3   1  158.37    6.81
  -2  -3  -1   94.55    3.77
   3   2   1   93.48    3.67
  -3   2  -1   87.93    3.62
  -2   3   1  100.55    3.85
   3   2   1   91.86    3.73
   2  -3   1   95.89    3.85
   2  -3   1   96.13    4.28
  -2  -3  -1   98.21    4.16
   3  -2  -1   87.65    4.16
  -3  -2   1   95.65    3.76
   3  -2  -1   89.07    3.36
  -2   3   1   95.36    3.66
   2   3  -1  102.09    3.43
  -3   2  -1   92.97    3.26
  -3  -2   1   88.22    4.01
   2   3  -1   96.70    3.83
   3   2   1   87.27    3.52
   2  -3  -1   88.65    3.28
   3  -2   1   96.30    3.87
   2   3   1   95.05    3.61
  -3   2   1   98.92    3.61
  -3   2   1   94.04    3.85
   3  -2   1   97.34    4.26
  -3  -2  -1  100.13    3.75
   3   2  -1   97.29    3.81
  -2  -3   1   87.32    3.99
  -2   3  -1   95.01    3.53
   2  -3  -1   82.59    4.17
  -2  -3   1   88.61    3.71
   2   3   1   88.40    3.49
   3  -3   1   57.91    2.80
   3   3   1   62.86    2.65
   3  -3  -1   58.83    2.21
   3  -3   1   57.14    2.49
   3   3  -1   60.46    2.06
   3   3   1   58.93    2.48
  -3  -3  -1   59.92    2.42
   3  -3  -1   55.48    3.00
  -3   3   1   55.82    2.33
  -3  -3   1   57.26    2.74
  -3  -3  -1   59.31    2.52
  -3  -3   1   55.40    2.77
  -3   3  -1   60.51    2.54
  -3   3   1   56.73    2.49
   3   3  -1   57.03    2.45
  -4   0   1  268.34    9.53
   4   0   1  272.05   11.09
   0   4  -1  279.65    9.63
   0  -4   1  268.84   11.30
   0   4   1  265.86    9.94
   4   0   1  274.38   10.26
   4   0  -1  277.88   10.07
  -4   0  -1  281.63    9.92
  -4   0   1  277.66   10.24
   0  -4   1  287.33   10.10
  -4   0  -1  270.40    9.96
   0   4  -1  275.58   10.16
   0   4   1  278.11    9.80
   0   4   1  275.87   10.09
  -1  -4  -1  102.51    4.53
  -1   4   1  107.50    4.11
  -1   4   1  104.57    3.79
   1  -4   1  101.14    4.59
   1  -4   1  111.83    3.92
  -4  -1   1  113.43    4.98
   4   1   1  112.46    4.41
  -4   1  -1  119.22    4.19
  -1  -4  -1  106.14    4.07
  -4  -1   1  114.29    4.61
  -4   1  -1  116.07    4.52
   4  -1  -1  115.19    5.08
   4   1   1  112.76    4.67
  -1   4   1  103.44    3.96
  -4  -1   1  114.92    3.95
   4   1   1  112.09    4.55
   1   4  -1  106.43    3.76
   1   4  -1  104.94    4.10
   4  -1  -1  114.33    4.28
   4   1  -1  100.97    4.03
  -1   4  -1  113.55    4.20
  -4   1   1   98.77    3.78
   1  -4  -1  107.93    5.08
  -4  -1  -1  107.04    3.97
   4  -1   1  101.92    4.17
  -1  -4   1  110.11    4.54
   4  -1   1  105.08    4.49
  -4   1   1  103.43    4.19
  -1   4  -1  114.65    4.43
  -1  -4   1  110.01    4.94
   1   4   1  108.95    4.29
   1   4   1  116.44    4.34
   4   2   1   84.78    3.49
   2  -4   1   69.54    3.02
   4  -2  -1   79.51    3.09
   2   4  -1   77.05    2.69
   4   2   1   83.88    3.32
  -4   2  -1   83.05    3.40
  -4  -2   1   78.84    3.67
  -2  -4  -1   78.45    3.24
  -2  -4  -1   72.14    3.00
   2   4  -1   70.94    3.02
  -4  -2   1   83.69    3.55
   2  -4   1   73.84    2.67
  -2   4   1   74.21    3.04
   4   2   1   79.73    3.26
   2  -4   1   77.39    3.47
   4  -2  -1   80.61    3.87
  -4   2  -1   85.08    3.01
  -2   4   1   74.46    2.94
   4  -2   1   76.81    3.41
   2  -4  -1   72.53    3.84
  -2  -4   1   69.54    3.44
   4  -2   1   71.92    3.08
   2   4   1   81.11    3.22
   4   2  -1   70.46    2.98
  -4   2   1   72.57    3.09
   2   4   1   86.60    3.37
  -2  -4   1   73.64    3.64
  -4  -2  -1   73.47    2.94
  -2   4  -1   78.78    3.15
  -4   2   1   71.27    2.82
  -3  -4  -1  162.79    6.11
   3   4  -1  164.97    6.18
  -4  -3   1  160.03    6.72
   4  -3  -1  158.91    5.83
  -3  -4  -1  165.92    6.53
   3  -4   1  159.15    6.20
   4   3   1  167.88    6.34
   4   3   1  165.27    5.93
  -4   3  -1  155.32    5.98
   4  -3  -1  162.86    7.02
   3   4  -1  166.46    5.64
  -3   4   1  154.84    5.92
   3  -4   1  160.06    6.96
  -4  -3   1  140.70    6.28
  -3   4   1  162.57    6.18
   4  -3   1  161.45    6.95
   3   4   1  167.44    6.29
   4   3  -1  163.72    6.17
  -4  -3  -1  179.16    6.46
   4  -3   1  160.93    6.22
  -3  -4   1  148.82    6.68
   3   4   1  158.24    5.88
  -4   3   1  152.99    6.18
  -4   3   1  146.58    5.86
  -4  -3  -1  154.37    6.07
  -3  -4   1  139.53    6.29
  -3   4  -1  165.57    5.91
   3  -4  -1  149.07    6.96
   4   4  -1  210.53    7.89
  -4   4   1  206.32    7.87
   4   4   1  228.00    9.07
  -4  -4   1  227.47    9.64
  -4  -4  -1  199.17    8.26
  -4   4  -1  243.66    8.55
   4  -4  -1  242.39    8.40
  -4  -4  -1  215.94    7.82
   4   4   1  221.72    8.44
   4  -4  -1  232.61    9.98
   4  -4   1  203.75    8.90
  -4  -4   1  218.66    9.07
  -4   4   1  201.92    7.57
   4  -4   1  211.92    7.94
   4   4  -1  218.61    7.26
   5   0  -1   41.66    2.24
  -5   0  -1   41.52    2.07
   0   5   1   40.49    1.70
  -5   0   1   41.81    2.09
   0   5  -1   41.56    1.72
   0   5  -1   40.28    1.88
   0  -5  -1   43.93    2.20
  -5   0   1   41.40    1.64
   5   0  -1   41.03    1.83
   5   0   1   39.71    2.04
   0  -5   1   42.45    2.19
  -5   0  -1   42.32    1.76
   0   5   1   41.87    1.89
   5   0   1   41.97    1.97
  -5  -1   1   91.21    3.26
   1  -5   1   95.10    4.28
   1  -5   1   80.49    3.68
  -5  -1   1   87.78    3.91
  -1  -5  -1  101.65    4.15
   1   5  -1   95.87    3.80
  -5   1  -1   91.22    3.82
   5  -1  -1   87.01    3.57
  -5   1  -1   94.57    3.49
  -1   5   1   95.79    3.43
   5  -1  -1   87.93    4.26
   5   1   1   91.61    3.90
  -1   5   1   95.53    3.79
  -1   5   1   98.68    3.71
  -1  -5  -1   95.98    3.76
   1   5  -1   95.65    3.46
   5   1   1   90.33    3.81
  -1  -5   1   94.17    4.16
  -5   1   1   93.31    3.91
   1   5   1   91.39    3.65
  -5   1   1   92.55    3.48
  -5  -1  -1   93.78    3.64
   5  -1   1   92.77    3.90
   5   1  -1   87.96    3.71
  -1   5  -1   92.24    3.68
  -1   5  -1   90.56    3.46
   1   5   1   92.57    3.61
   1  -5  -1   90.54    4.23
   5  -1   1   96.82    4.17
   2   5  -1  325.98   11.37
   2  -5   1  326.18   11.74
  -2  -5  -1  341.60   13.15
   5  -2  -1  311.42   11.25
  -5   2  -1  313.61   11.09
   2  -5   1  324.79   13.48
  -5  -2   1  303.32   12.62
  -5  -2   1  296.65   11.67
   5  -2  -1  305.44   12.86
   2  -5   1  328.82   12.09
  -2  -5  -1  329.86   11.98
  -2   5   1  316.53   11.62
  -5  -2   1  309.80   10.58
  -2   5   1  332.51   12.01
   5   2   1  294.42   11.04
   5   2   1  328.92   11.72
   5   2   1  315.30   12.18
  -5   2  -1  303.52   11.18
   5   2  -1  327.50   12.05
   5  -2   1  326.94   12.18
  -5   2   1  325.12   11.49
  -5  -2  -1  324.10   11.89
  -2   5  -1  307.94   10.89
  -2  -5   1  294.40   12.59
   2   5   1  305.56   10.99
   2  -5  -1  297.66   12.77
   5  -2   1  319.94   13.41
  -5   2   1  324.91   12.10
   2   5   1  310.46   11.54
  -5  -3   1  141.90    6.08
   3   5  -1  145.52    5.13
   5  -3  -1  146.26    6.65
  -3  -5  -1  147.02    5.57
   5  -3  -1  150.07    5.59
  -3  -5  -1  138.93    5.86
  -3   5   1  140.51    5.42
  -5  -3   1  143.44    5.15
   3  -5   1  142.13    5.63
  -5   3  -1  150.72    5.73
   5   3   1  147.85    5.62
   5   3   1  145.67    6.09
  -5   3  -1  154.08    5.35
  -3   5   1  145.29    5.60
   3  -5   1  151.81    6.42
  -5  -3   1  143.83    6.33
   3   5  -1  146.95    5.62
   5  -3   1  144.11    6.38
  -5   3   1  147.26    5.67
   3  -5  -1  137.17    6.54
   3   5   1  144.44    6.04
  -5  -3  -1  144.73    5.52
   5   3  -1  142.73    5.60
   3   5   1  150.82    5.58
  -3  -5   1  135.94    6.07
  -3  -5   1  143.37    6.32
   5  -3   1  143.71    5.69
  -3   5  -1  156.93    5.55
  -5   3   1  143.09    5.35
   5  -4  -1   80.81    3.11
  -4   5   1   67.60    2.93
   5   4   1   79.52    3.81
  -4  -5  -1   71.03    2.91
   4   5  -1   68.42    2.93
   5  -4  -1   82.73    4.08
  -5  -4   1   80.72    3.82
   5   4   1   82.78    3.35
   4   5  -1   69.95    2.53
  -5  -4   1   76.32    3.70
   4  -5   1   68.86    3.47
  -5   4  -1   82.02    2.87
   4  -5   1   68.53    2.94
  -4   5   1   62.88    2.82
  -4  -5  -1   68.37    2.78
  -5   4  -1   76.48    3.39
   5  -4   1   66.82    3.48
   5   4  -1   70.21    2.49
  -5  -4  -1   66.45    2.86
  -5   4   1   63.82    2.94
   4  -5  -1   75.01    3.98
  -5   4   1   66.37    2.80
  -4  -5   1   78.43    3.70
   4   5   1   79.81    3.33
   5   4  -1   64.65    2.90
   4   5   1   69.74    3.72
  -4   5  -1   82.10    3.35
  -4  -5   1   79.11    3.81
   5  -4   1   67.32    2.96
   5   5  -1  130.50    5.02
  -5   5  -1  123.54    4.67
   5   5   1  100.08    5.12
   5   5  -1  130.93    4.51
  -5   5   1  127.06    4.86
   5  -5   1  120.76    5.02
  -5  -5   1  121.39    5.17
   5   5   1  114.27    4.58
  -5  -5   1  114.27    5.21
   5  -5  -1  116.41    4.25
   5  -5  -1  110.53    5.47
   5  -5   1  117.15    5.79
  -5   5   1  120.09    4.99
  -5  -5  -1  124.26    4.95
   0  -6   1    2.11    0.64
   0  -6   1    3.43    0.66
   0  -6  -1    2.75    0.51
  -6   0   1    1.70    0.59
  -6   0  -1    2.47    0.66
   0   6  -1    2.77    0.51
   6   0   1    3.12    0.52
   6   0  -1    3.14    0.73
   0   6  -1    2.92    0.46
  -6   0  -1    2.71    0.45
   6   0   1    3.40    0.73
   6   0  -1    2.77    0.55
  -6   0   1    2.61    0.39
   0   6   1    2.10    0.44
   0   6   1    2.34    0.52
   0  -6  -1    2.68    0.61
   6   1   1  140.67    5.67
   6  -1  -1  134.70    6.17
  -6  -1   1  138.59    5.70
   1   6  -1  149.74    5.23
  -1  -6  -1  151.26    6.09
  -1   6   1  144.89    5.47
  -1   6   1  141.90    5.57
  -1   6   1  146.81    5.24
   1  -6   1  138.55    6.30
  -6   1  -1  141.00    5.22
  -6   1  -1  134.84    5.47
   6   1   1  142.58    5.73
  -6  -1   1  138.85    4.94
  -1  -6  -1  142.03    5.56
   6  -1  -1  139.35    5.34
   1   6  -1  144.74    5.62
  -6  -1  -1  142.57    5.63
  -6   1   1  143.44    5.78
  -1   6  -1  135.76    5.07
  -1  -6   1  115.81    5.51
  -1  -6   1  138.40    6.02
  -6   1   1  145.51    5.27
   6   1  -1  142.06    6.29
   6   1  -1  139.96    5.58
   6  -1   1  141.57    5.79
   1  -6  -1  138.07    6.03
  -1   6  -1  136.09    5.35
   1   6   1  143.84    5.49
   6  -1   1  142.00    6.21
   1   6   1  135.83    5.25
  -6  -1  -1  141.99    5.48
  -6  -2   1   91.73    4.34
   6  -2  -1   94.78    3.85
   2  -6   1   95.93    4.50
  -2   6   1   96.61    3.89
   6  -2  -1   95.99    4.63
  -6  -2   1   96.86    3.49
   6   2   1   97.86    3.93
  -2  -6  -1   92.72    3.87
   6   2   1   99.56    3.88
   2   6  -1   98.79    3.56
  -6  -2   1   87.79    4.21
  -2  -6  -1   98.74    4.08
  -6   2  -1   94.63    4.02
  -2   6   1   95.72    3.82
  -6   2  -1  103.06    3.76
  -2  -6   1   79.73    4.13
  -6  -2  -1   92.49    3.80
  -2   6  -1   94.05    3.86
   2   6   1   96.34    3.83
   6  -2   1   92.15    4.03
  -2  -6   1   94.95    4.35
  -6   2   1   99.56    4.07
   2   6   1   82.66    4.09
  -2   6  -1   97.97    3.70
   6   2  -1   96.52    3.89
  -6   2   1   91.16    3.66
   6  -2   1   93.31    4.44
   2  -6  -1   98.46    4.49
  -6   3  -1  154.16    5.69
  -6  -3   1  155.27    6.66
  -3   6   1  151.71    6.01
   6   3   1  144.30    6.45
  -3  -6  -1  152.54    6.33
   6  -3  -1  162.75    5.96
  -6  -3   1  154.65    5.49
   6  -3  -1  156.33    7.03
   3  -6   1  154.85    6.04
   6   3   1  159.56    5.94
   3  -6   1  153.01    6.91
   3   6  -1  162.38    5.57
   3   6  -1  161.57    6.06
  -6  -3   1  152.77    6.46
  -3   6   1  156.26    5.87
  -6   3  -1  144.82    6.00
  -3  -6  -1  155.27    6.00
  -3   6  -1  154.62    5.78
   6   3  -1  159.16    6.06
  -3  -6   1  139.75    6.37
   6  -3   1  154.49    6.94
   3   6   1  153.69    5.86
   6  -3   1  156.36    6.15
  -6   3   1  152.68    5.76
  -6   3   1  146.89    6.09
   3  -6  -1  157.86    6.91
  -3  -6   1  154.03    6.67
  -6  -3  -1  151.97    5.94
  -4   6   1  113.53    4.53
   6  -4  -1  100.80    4.96
   4  -6   1  112.31    4.65
   4   6  -1  122.11    4.22
   6  -4  -1  101.86    3.96
  -6  -4   1  103.06    4.66
  -4  -6  -1  116.58    4.64
  -6  -4   1  102.31    4.59
  -6   4  -1  101.97    4.25
  -4   6   1  118.57    4.66
  -4  -6  -1  126.00    4.74
   4   6  -1  112.89    4.67
   4  -6   1  118.56    5.49
   6   4   1  101.04    4.12
   6   4   1   81.69    4.52
  -6   4  -1  103.89    3.72
  -6   4   1  110.25    4.48
  -4  -6   1   98.95    4.67
   6  -4   1  112.54    4.72
   6   4  -1  114.17    4.68
  -6  -4  -1  115.60    4.61
   4   6   1  104.18    4.11
   4  -6  -1   94.68    4.85
  -6   4   1  109.34    4.70
  -4   6  -1  100.93    4.06
  -4  -6   1  101.47    4.59
   6  -4   1  105.48    5.46
  -6   5  -1   54.19    1.98
  -6  -5   1   52.36    2.72
   5   6  -1   51.70    2.53
   5  -6   1   55.83    2.57
   6   5   1   47.96    3.04
   6   5   1   53.23    2.50
  -5  -6  -1   56.01    2.26
  -5   6   1   55.48    2.55
  -5  -6  -1   54.42    2.53
  -5   6   1   52.01    2.50
   6  -5  -1   54.59    2.16
   6  -5  -1   49.05    3.12
   5   6  -1   54.50    2.16
  -6   5  -1   49.87    2.55
   5  -6   1   53.74    3.14
  -6  -5   1   50.20    2.99
   6   5  -1   55.85    2.14
  -6  -5  -1   55.53    2.52
  -5  -6   1   51.36    2.72
   5  -6  -1   50.16    3.07
   5  -6  -1   56.00    1.98
   6  -5   1   56.21    2.60
  -5   6  -1   52.57    2.51
   6  -5   1   50.23    3.15
   5   6   1   50.38    2.50
  -6   5   1   53.15    2.48
   5   6   1   50.53    3.08
   6   5  -1   53.55    2.56
  -5  -6   1   52.90    3.04
  -6   5   1   53.34    2.58
  -6  -6   1  156.86    6.61
   6   6  -1  175.12    5.97
   6  -6  -1  149.00    5.50
   6   6   1  141.32    6.62
   6   6   1  145.79    5.81
  -6  -6   1  150.74    6.54
  -6   6   1  164.12    6.37
  -6   6  -1  148.15    5.88
   6   6  -1  161.97    6.54
  -6  -6  -1  155.27    6.43
   6  -6  -1  147.44    6.95
   6  -6   1  166.40    6.54
  -6   6   1  165.39    6.52
   6  -6   1  164.15    7.74
   7   0  -1  491.51   20.13
  -7   0   1  482.11   18.26
   7   0   1  496.44   19.87
  -7   0   1  493.23   17.19
   0  -7   1  504.69   20.08
   0   7   1  463.44   18.02
  -7   0  -1  511.17   17.86
   7   0   1  505.00   18.42
   0   7   1  490.40   17.44
   0   7  -1  511.37   18.05
  -7   0  -1  490.60   17.67
   0  -7   1  438.00   18.04
   0   7  -1  501.48   17.19
   0  -7  -1  493.71   17.91
   7   0  -1  495.42   18.08
   0  -7  -1  512.16   19.90
  -7  -1   1   16.35    1.41
   7   1   1   17.48    1.45
   1  -7   1   10.83    1.05
  -7   1  -1   14.22    1.02
   7  -1  -1   17.04    1.19
  -7   1  -1   14.78    1.35
  -1   7   1   14.97    0.82
  -1  -7  -1   15.29    1.08
  -1   7   1   14.89    1.10
   1   7  -1   15.03    1.09
  -1  -7  -1   15.40    1.08
   1  -7   1   12.23    1.28
   1   7  -1   15.71    0.92
  -7  -1   1   16.77    0.94
   7   1   1   13.78    0.99
   7  -1  -1   17.13    1.43
  -1  -7   1   16.82    1.28
  -7   1   1   16.62    1.28
  -7  -1  -1   14.05    1.02
  -1  -7   1   14.17    1.28
  -7  -1  -1   11.73    1.16
   7  -1   1   12.66    1.25
   7  -1   1   15.60    1.24
   1   7   1   15.64    1.13
   1  -7  -1   16.70    1.28
  -7   1   1   15.63    0.98
  -1   7  -1   15.82    1.09
  -1   7  -1   13.89    0.99
   1  -7  -1   12.77    1.02
   7   1  -1   14.43    1.29
   1   7   1   10.53    1.18
   7   1  -1   14.75    1.08
  -7   2  -1   30.83    1.88
   7   2   1   29.12    2.05
  -7  -2   1   29.14    1.42
   7  -2  -1   28.90    2.13
  -2  -7  -1   38.24    1.87
   7  -2  -1   28.76    1.69
  -2   7   1   35.92    1.84
  -7  -2   1   29.02    2.00
   2  -7   1   35.82    2.19
   2   7  -1   37.91    1.61
  -2  -7  -1   37.26    1.81
   7   2   1   30.99    1.42
   2  -7   1   30.93    1.73
   2   7  -1   37.33    1.84
  -7   2  -1   34.04    1.61
  -2   7   1   34.47    1.83
  -2   7  -1   31.07    1.59
   7   2  -1   34.53    2.07
  -2   7  -1   30.03    1.63
   7   2  -1   36.79    1.88
   2   7   1   33.22    1.72
   2  -7  -1   31.83    2.03
  -2  -7   1   32.84    2.03
   7  -2   1   34.97    1.98
  -7  -2  -1   34.02    1.76
   7  -2   1   34.21    2.27
  -7   2   1   34.13    1.73
  -7   2   1   37.83    2.03
  -2  -7   1   31.81    1.93
   3  -7   1   50.33    2.40
  -7  -3   1   59.52    3.10
  -3  -7  -1   59.25    2.60
  -3  -7  -1   57.94    2.63
   3   7  -1   60.72    2.35
  -7  -3   1   61.89    3.26
   7   3   1   60.89    2.88
   3   7  -1   59.32    2.67
  -7   3  -1   56.90    2.92
   3  -7   1   58.05    3.18
  -3   7   1   57.01    2.63
  -7   3  -1   59.96    2.54
  -3   7   1   61.89    2.65
  -7  -3   1   66.04    2.47
   7   3   1   54.78    3.21
   7  -3  -1   61.00    3.41
   7  -3  -1   65.84    2.79
   3  -7  -1   61.03    3.30
   7  -3   1   52.65    3.24
   7  -3   1   60.35    2.81
  -7   3   1   58.87    2.58
  -7  -3  -1   59.76    2.62
  -7   3   1   58.91    2.79
   7   3  -1   58.36    2.72
  -3   7  -1   64.60    2.71
  -3   7  -1   63.48    2.76
   3   7   1   63.38    2.80
  -3  -7   1   60.63    3.23
   4  -7   1  149.88    6.00
  -4  -7  -1  163.01    6.24
   7   4   1  136.64    5.56
  -4   7   1  150.60    5.86
  -7   4  -1  135.67    5.67
  -7  -4   1  139.32    6.20
   7  -4  -1  149.26    5.51
   4   7  -1  152.03    6.03
  -4   7   1  158.15    6.01
  -7  -4   1  139.07    5.12
  -7   4  -1  144.97    5.23
   7   4   1  128.43    6.20
  -7  -4   1  143.17    6.17
   4  -7   1  147.50    6.97
   4   7  -1  161.07    5.53
   7  -4  -1  139.77    6.56
  -4  -7  -1  147.63    5.97
  -4  -7   1  148.18    6.23
  -4  -7   1  143.70    6.23
   7   4  -1  146.52    6.04
  -7  -4  -1  152.33    5.98
  -7   4   1  154.63    5.84
   7  -4   1  128.44    7.01
   4  -7  -1  141.76    6.51
  -4   7  -1  141.94    5.48
  -7   4   1  151.34    6.09
   4   7   1  148.89    5.55
   7  -4   1  151.43    6.12
   4   7   1  119.18    6.11
   7   5   1   37.35    2.05
  -7  -5   1   37.64    2.21
   5   7  -1   40.43    2.09
   7   5   1   37.59    2.60
   5  -7   1   42.98    2.74
   5   7  -1   40.05    1.73
  -7   5  -1   35.48    2.18
   7  -5  -1   36.90    2.65
  -5  -7  -1   36.08    2.03
  -5   7   1   41.67    2.16
  -5   7   1   39.33    2.05
   7  -5  -1   37.66    1.76
   5  -7   1   39.26    2.05
  -7  -5   1   42.39    2.64
   7  -5   1   39.53    2.79
  -5  -7   1   36.26    2.50
   7   5  -1   38.04    2.10
   7  -5   1   40.07    2.15
  -7   5   1   43.02    2.19
   5  -7  -1   38.95    2.65
  -7   5   1   37.49    2.06
  -7  -5  -1   41.38    2.11
  -5   7  -1   40.20    2.06
  -5  -7   1   38.71    2.22
   5   7   1   40.72    2.11
   5   7   1   36.80    2.56
  -6   7   1   27.23    1.69
  -7  -6   1   28.17    1.87
   6  -7   1   26.16    2.39
   6  -7   1   27.69    1.69
   7  -6  -1   28.25    2.31
   7   6   1   32.71    1.89
  -6   7   1   28.50    1.75
   7   6   1   29.92    2.36
   6   7  -1   28.37    1.74
   6   7  -1   29.56    1.38
  -6  -7  -1   27.56    1.68
  -7  -6   1   31.05    2.36
  -7   6  -1   32.50    1.95
  -7   6   1   28.38    1.79
  -7   6   1   26.37    1.67
   7  -6   1   26.83    1.67
  -6  -7   1   34.58    2.42
  -7  -6  -1   26.41    1.71
  -6  -7   1   30.87    1.91
   6   7   1   30.65    1.85
   7  -6   1   26.76    2.38
   6  -7  -1   25.56    2.34
  -6   7  -1   28.81    1.84
   7   6  -1   26.53    1.78
   6   7   1   27.26    2.31
  -7  -7   1  202.25    8.74
   7   7  -1  204.39    8.15
  -7  -7   1  211.39    8.74
   7   7   1  215.39    8.90
  -7   7   1  213.96    8.09
  -7  -7  -1  201.41    8.05
   7  -7   1  208.16    9.71
   7   7   1  197.95    7.76
   7  -7  -1  202.07    9.20
  -7   7   1  205.84    7.95
  -7   7  -1  192.94    7.83
   7  -7   1  205.77    8.10
   8   0   1    6.09    0.95
   0  -8  -1    6.19    0.88
   0  -8  -1    6.66    0.96
   0   8  -1    8.11    0.83
   0  -8   1    7.35    1.06
   0  -8   1    8.44    1.04
   8   0   1    7.98    1.20
  -8   0  -1    6.95    0.84
  -8   0   1    8.55    1.19
   8   0  -1    7.44    1.12
   0   8   1    2.98    0.81
   0   8   1    6.90    0.97
  -8   0   1    6.64    0.81
   8   0  -1    8.18    0.99
  -8   0  -1    8.27    1.09
   0   8  -1    9.10    0.81
   8   1   1  138.73    5.93
  -1   8   1  139.70    5.53
   1  -8   1  143.53    6.44
   1  -8   1  140.92    5.71
   8  -1  -1  136.11    6.40
   8  -1  -1  129.66    5.60
   1   8  -1  150.76    5.32
  -8   1  -1  149.95    5.56
  -1   8   1  136.21    5.47
   1   8  -1  145.21    5.64
  -8  -1   1  131.02    5.91
   8   1   1  131.89    6.00
  -8   1  -1  142.01    5.73
  -1  -8  -1  138.14    5.60
  -8  -1   1  136.90    5.21
  -1  -8  -1  143.42    6.06
  -8  -1  -1  141.79    5.74
   8  -1   1  138.59    5.96
  -8   1   1  140.61    5.38
  -8   1   1  145.77    5.95
   1  -8  -1  137.89    5.51
   8   1  -1  142.83    6.36
   1  -8  -1  145.99    6.17
   8  -1   1  126.85    6.37
   8   1  -1  144.48    5.75
  -1   8  -1  145.44    5.26
  -1   8  -1  140.18    5.51
  -1  -8   1  133.00    6.20
   1   8   1  139.41    5.46
  -1  -8   1  138.75    5.85
  -8  -1  -1  142.18    5.60
  -8   2  -1   38.76    2.24
   2  -8   1   33.54    2.30
  -2  -8  -1   39.85    1.98
  -2   8   1   35.15    1.97
  -8   2  -1   41.72    1.97
   2   8  -1   39.29    1.76
   2   8  -1   40.21    2.00
  -2  -8  -1   36.80    1.91
  -8  -2   1   39.08    2.43
   8  -2  -1   39.52    2.58
   8   2   1   39.50    1.88
   8   2   1   35.48    2.51
  -8  -2   1   36.72    1.80
   2  -8   1   37.82    1.94
   8  -2  -1   41.24    2.13
  -8   2   1   37.10    2.19
  -8  -2  -1   41.40    2.17
  -2   8  -1   38.84    1.99
  -2   8  -1   40.93    1.96
   2   8   1   38.06    2.05
  -8   2   1   38.39    1.92
  -2  -8   1   37.00    2.29
  -8  -2  -1   36.57    1.95
   8  -2   1   36.95    2.16
   8   2  -1   40.09    2.25
   2  -8  -1   41.20    2.36
   8   2  -1   37.93    2.08
  -2  -8   1   42.24    2.43
   8  -2   1   30.43    2.37
   3   8  -1  124.01    5.02
  -8   3  -1  127.72    5.10
   8   3   1  120.42    5.88
   3  -8   1  113.27    4.79
  -3  -8  -1  124.99    5.19
  -3   8   1  122.92    4.93
  -3  -8  -1  126.47    5.00
  -8  -3   1  127.98    5.84
   3   8  -1  124.76    4.61
  -3   8   1  123.88    4.98
   3  -8   1  116.72    5.80
  -8   3  -1  128.64    5.44
   8  -3  -1  133.32    6.26
  -8  -3   1  136.92    4.95
   8  -3  -1  141.12    5.40
  -3   8  -1  129.02    5.29
   3   8   1  136.36    5.29
   8   3  -1  126.08    5.56
  -3   8  -1  129.03    5.12
   8  -3   1   96.83    5.86
  -8   3   1  127.34    5.21
   3  -8  -1  130.81    6.10
  -3  -8   1  139.57    5.88
  -8   3   1  130.58    4.93
  -8  -3  -1  129.62    5.04
  -3  -8   1  134.43    5.97
   8  -3   1  129.42    5.28
   8   3  -1  122.02    5.10
   8   4   1   67.60    3.05
  -4  -8  -1   71.00    2.96
   4   8  -1   65.60    2.68
  -8  -4   1   67.89    3.51
  -8   4  -1   65.09    3.15
   8  -4  -1   64.36    3.60
  -8  -4   1   61.80    3.23
   8   4   1   61.86    3.60
   4  -8   1   61.46    3.65
   8  -4  -1   66.73    2.87
  -4   8   1   70.61    3.01
   4   8  -1   63.93    3.01
  -4   8   1   67.57    3.04
  -8   4  -1   63.37    2.63
  -4  -8  -1   65.28    3.03
  -8   4   1   64.42    3.15
   4  -8  -1   60.19    3.50
   4   8   1   63.54    2.95
  -4  -8   1   64.30    3.28
   8  -4   1   65.20    3.15
   8  -4   1   54.89    3.81
  -8  -4  -1   70.73    3.10
  -4  -8   1   71.59    3.55
   8   4  -1   62.61    3.13
   4   8   1   54.25    3.46
  -8   4   1   70.06    3.03
  -4   8  -1   62.10    2.89
  -8  -5   1   24.51    1.67
  -8   5  -1   18.51    1.62
  -5   8   1   18.84    1.33
   5  -8   1   17.66    1.32
   5   8  -1   17.69    1.06
  -5  -8  -1   18.41    1.38
  -8  -5   1   23.12    2.00
   5   8  -1   19.02    1.39
  -5   8   1   18.22    1.40
   8  -5  -1   23.97    2.15
   5  -8   1   16.77    1.84
   8   5   1   22.65    2.18
   8  -5  -1   22.37    1.32
   8   5   1   21.42    1.62
   5   8   1   20.32    1.49
  -8   5   1   17.09    1.38
   5  -8  -1   21.83    1.97
  -8  -5  -1   18.74    1.39
   8  -5   1   18.94    1.47
   5   8   1   24.16    2.15
  -8   5   1   20.73    1.45
  -5  -8   1   23.36    2.00
   8  -5   1   14.76    1.93
  -5  -8   1   22.18    1.64
  -5   8  -1   21.61    1.57
   8   5  -1   17.91    1.46
  -6  -8  -1   96.03    4.17
   8   6   1  100.93    5.04
  -6   8   1   99.39    4.22
  -6   8   1   94.75    4.12
   8   6   1   93.44    4.22
  -8  -6   1  102.11    4.65
  -8   6  -1   94.03    4.33
   6   8  -1   96.82    4.21
   6  -8   1  101.78    5.27
  -8  -6   1  101.76    4.94
   6  -8   1   98.22    4.16
   8  -6  -1  103.00    5.17
  -6   8  -1   97.86    4.23
   6   8   1   98.81    5.08
  -6  -8   1   99.05    4.65
  -8  -6  -1   99.74    4.24
  -8   6   1   98.46    4.22
   8   6  -1   92.79    4.26
   6  -8  -1   92.85    5.06
   8  -6   1   95.92    4.24
   6   8   1  100.14    4.24
  -8   6   1   93.30    4.19
  -6  -8   1   93.35    4.91
   8  -6   1   81.60    5.22
   8  -7  -1   28.29    2.34
  -7  -8  -1   27.00    1.76
  -7   8   1   24.45    1.70
   7  -8   1   20.31    2.38
   7  -8   1   26.43    1.71
  -8  -7   1   30.13    2.40
  -8   7  -1   26.00    1.90
   8   7   1   25.78    1.76
  -8  -7   1   25.55    1.82
   7   8  -1   27.24    1.89
  -7   8   1   26.11    1.94
   8   7   1   29.42    2.57
  -7  -8   1   29.92    2.52
   7   8   1   24.77    1.74
   8  -7   1   30.32    2.86
  -8  -7  -1   22.84    1.71
  -7  -8   1   25.45    1.83
   7   8   1   27.65    2.40
   8  -7   1   24.65    1.73
  -8   7   1   26.26    1.91
  -8   7   1   24.91    1.69
  -7   8  -1   23.08    1.79
   7  -8  -1   22.61    2.34
   8   7  -1   25.77    1.83
   8   8  -1   91.29    4.37
   8   8   1   99.52    4.36
   8  -8  -1   95.67    5.24
  -8  -8   1  101.98    5.16
   8  -8   1   95.21    4.29
  -8   8   1   98.27    4.29
  -8   8   1   95.55    4.37
   8  -8   1  107.38    5.87
  -8  -8   1   97.73    4.75
  -8  -8  -1   94.32    4.32
  -8   8  -1   96.07    4.45
   8   8   1  112.02    5.47
   9   0  -1    8.22    1.27
   0  -9  -1   10.41    1.11
   9   0   1    9.21    1.41
   0  -9  -1   12.57    1.13
   0  -9   1   11.00    1.23
   9   0   1    9.73    1.27
   0  -9   1    9.56    1.19
  -9   0  -1    7.57    1.16
   0   9  -1   11.51    0.99
   0   9   1    4.63    1.04
  -9   0  -1    9.86    1.05
   9   0  -1   10.93    1.21
   0   9   1    8.69    1.05
  -9   0   1   11.63    1.32
   0   9  -1   10.01    0.88
  -9   0   1    9.70    1.01
   1   9  -1   17.25    1.12
   1  -9   1   15.40    1.48
  -1  -9  -1   15.21    1.20
   9  -1  -1   14.38    1.34
  -9  -1   1   14.00    1.51
  -9   1  -1   17.21    1.26
   1  -9   1   13.94    1.32
   9  -1  -1   15.52    1.62
  -1   9   1   13.26    1.22
   9   1   1   14.25    1.58
  -9  -1   1   14.98    1.12
   1   9  -1   13.34    1.16
  -1  -9  -1   13.87    1.16
  -9   1  -1   15.91    1.48
   9  -1   1    9.02    1.43
  -9   1   1   15.02    1.22
   9   1  -1   13.51    1.40
  -9  -1  -1   16.27    1.24
   1   9   1   18.30    1.33
   1  -9  -1   17.07    1.48
  -1   9  -1   15.80    1.20
  -1  -9   1   16.38    1.52
   9   1  -1   13.96    1.28
   9  -1   1   16.64    1.51
  -9  -1  -1   17.24    1.45
  -1  -9   1   16.47    1.44
   1  -9  -1   13.55    1.19
   1   9   1    7.81    1.36
  -1   9  -1   13.06    1.12
  -9   1   1   13.22    1.49
   2   9  -1  311.75   10.50
  -9   2  -1  293.12   11.27
   2  -9   1  270.38   10.98
  -2  -9  -1  289.13   10.99
  -9  -2   1  285.41   11.80
   2   9  -1  294.63   11.06
  -2  -9  -1  295.77   11.97
   9  -2  -1  314.49   11.51
  -9  -2   1  286.69   10.79
   2  -9   1  285.92   12.51
   9   2   1  281.16   11.98
  -2   9   1  286.24   10.78
   9  -2  -1  312.23   12.94
  -9   2  -1  310.85   11.25
   2   9   1  298.73   11.09
  -9  -2  -1  295.72   11.06
   9   2  -1  286.91   11.22
  -9  -2  -1  296.29   10.97
  -9   2   1  289.89   11.33
  -2  -9   1  305.74   11.79
  -2   9  -1  305.09   11.34
  -2   9  -1  302.96   10.88
  -9   2   1  292.99   10.71
   2  -9  -1  314.99   12.70
  -2  -9   1  309.15   12.71
   9  -2   1  294.59   11.45
   9   2  -1  301.35   12.33
   2  -9  -1  288.94   11.27
  -3  -9  -1   20.49    1.55
   9   3   1   17.08    2.00
  -9   3  -1   23.61    1.39
  -3   9   1   22.35    1.56
   9  -3  -1   24.16    1.98
  -9  -3   1   19.75    1.89
   3   9  -1   24.09    1.29
   9  -3  -1   24.44    1.57
   3   9  -1   20.37    1.52
  -3   9   1   23.65    1.48
   3  -9   1   21.61    1.92
  -3  -9  -1   23.23    1.37
  -9   3  -1   24.94    1.80
  -3   9  -1   24.01    1.55
  -9   3   1   22.89    1.55
  -3  -9   1   24.68    1.79
   9   3  -1   22.85    1.67
   3  -9  -1   23.54    1.96
   9   3  -1   23.53    1.72
  -3   9  -1   23.67    1.49
  -9  -3  -1   19.75    1.47
  -3  -9   1   23.46    1.99
   3   9   1   18.95    1.99
   9  -3   1   21.26    1.67
   3   9   1   24.74    1.61
  -9  -3  -1   23.18    1.74
  -9   3   1   20.71    1.62
  -4  -9  -1    5.22    0.93
   9  -4  -1    2.56    1.02
   9   4   1    3.91    1.18
  -9   4  -1    1.65    0.82
   9  -4  -1    3.60    0.74
  -9  -4   1    4.36    1.10
  -4   9   1    7.69    1.05
   4   9  -1    4.87    0.66
   4  -9   1    4.87    1.19
   9   4   1    4.33    0.96
   4   9  -1    4.23    0.83
  -4   9   1    3.17    0.74
  -9   4   1    4.67    0.94
   4  -9  -1    2.05    0.95
  -4   9  -1    3.41    0.72
  -4   9  -1    1.56    0.71
   9  -4   1    4.16    1.30
  -9  -4  -1    4.75    0.85
   9  -4   1    3.87    0.90
   4   9   1    3.84    0.83
  -4  -9   1    5.69    1.27
   9   4  -1    3.21    0.80
  -9   4   1    3.30    0.89
   4   9   1    2.52    1.14
   9   4  -1    3.72    0.92
  -4  -9   1    2.05    0.76
  -5   9   1  151.93    6.06
  -9   5  -1  138.56    6.13
   9   5   1  147.82    6.85
   5  -9   1  148.27    7.31
  -9  -5   1  147.91    6.69
  -5   9   1  143.87    6.00
   9   5   1  152.61    6.10
  -9  -5   1  154.67    6.73
   9  -5  -1  158.01    7.18
   9  -5  -1  139.61    5.94
   5   9  -1  146.28    6.10
   5   9  -1  153.74    5.62
   5   9   1  152.33    6.02
  -5  -9   1  147.99    6.73
  -5  -9   1  162.73    6.86
  -9  -5  -1  154.08    6.17
  -5   9  -1  147.41    5.96
   9   5  -1  140.38    6.22
   9  -5   1  151.69    6.27
  -9   5   1  155.94    6.25
   5   9   1  153.99    6.97
   5  -9  -1  149.13    7.06
  -9   5   1  153.33    6.06
  -6   9   1   43.97    2.52
  -9  -6   1   49.76    2.71
   9   6   1   48.01    3.23
  -9  -6   1   53.84    3.23
   6  -9   1   49.44    3.36
  -9   6  -1   43.29    2.65
   6   9  -1   46.96    2.51
   9  -6  -1   47.22    3.24
   6  -9   1   45.85    2.40
  -6   9   1   47.14    2.45
   9   6   1   47.78    2.57
  -6  -9  -1   44.36    2.45
  -6  -9   1   46.37    3.18
  -9  -6  -1   44.55    2.52
  -6  -9   1   47.49    2.72
  -6   9  -1   46.90    2.60
  -9   6   1   48.37    2.59
  -9   6   1   48.90    2.65
   6  -9  -1   45.12    3.10
   9  -6   1   42.34    3.56
   6   9   1   44.29    2.54
   6   9   1   55.48    3.41
   9  -6   1   44.75    2.55
   9   6  -1   44.07    2.59
  -7  -9  -1   29.79    2.00
   7  -9   1   32.04    1.96
  -7   9   1   32.31    1.98
   9   7   1   27.88    2.00
  -9  -7   1   31.06    2.68
  -9   7  -1   27.06    2.08
   7   9  -1   32.32    2.08
   7  -9   1   30.64    2.87
  -9  -7   1   29.15    2.04
   9   7   1   32.91    2.67
   9  -7  -1   29.25    2.50
  -7   9   1   32.42    2.16
  -9  -7  -1   33.64    2.11
   7  -9  -1   28.98    2.65
  -7  -9   1   29.95    2.07
   7   9   1   35.51    2.85
   9  -7   1   30.69    2.04
  -7   9  -1   31.40    2.04
  -9   7   1   33.12    2.01
  -9   7   1   30.84    2.23
  -7  -9   1   34.30    2.74
   9  -7   1   29.63    3.02
   7   9   1   29.03    2.01
   9   7  -1   29.40    2.20
   8  -9   1    7.58    1.12
  -8  -9  -1    5.39    1.16
  -9  -8   1    6.18    1.55
   8   9  -1    5.73    1.16
   9  -8  -1    5.67    1.46
   9   8   1    9.89    1.81
   9   8   1    6.18    1.16
  -8   9   1    5.70    1.04
   8  -9   1    4.91    1.84
  -9   8  -1    6.09    1.26
  -8   9   1    7.71    1.34
  -9  -8  -1    4.42    1.11
  -8  -9   1    4.53    1.00
  -9   8   1    6.65    1.37
   9  -8   1    7.95    2.07
   9   8  -1    4.46    1.15
   8   9   1    6.42    1.57
   9  -8   1    6.72    1.13
  -8  -9   1    8.03    1.64
  -9   8   1    5.79    1.04
   8   9   1    4.99    1.03
  -8   9  -1    4.99    1.11
   8  -9  -1    4.78    1.52
  -9  -9   1  111.88    5.55
  -9   9  -1   98.46    4.72
   9   9  -1   99.99    4.77
  -9   9   1   97.65    4.67
   9  -9   1  105.43    6.18
   9   9   1   96.26    4.62
   9   9   1  121.81    5.77
   9  -9   1   98.45    4.50
   9  -9  -1   98.93    5.52
  -9   9   1  100.75    4.48
  -9  -9  -1   94.06    4.58
  10   0  -1    1.77    0.83
  10   0  -1    2.97    1.01
 -10   0   1    2.48    0.96
  10   0   1    0.61    0.89
   0 -10   1    2.74    0.93
   0  10   1    3.07    0.86
   0 -10  -1    2.22    0.66
 -10   0  -1    2.39    0.93
   0 -10  -1    3.65    0.83
   0  10  -1    2.23    0.68
 -10   0   1    1.63    0.66
 -10   0  -1    1.45    0.73
   0 -10   1    2.86    0.88
   0  10  -1    1.76    0.66
  -1  10   1   95.14    4.10
   1  10  -1   90.96    4.01
 -10   1  -1  102.82    4.24
  10  -1  -1   97.85    4.35
  -1 -10  -1   92.28    4.03
   1  10  -1  102.43    3.85
   1 -10   1   91.78    4.25
  10   1   1   87.87    4.67
  10  -1  -1   91.00    4.78
  -1 -10  -1   92.78    4.30
 -10  -1   1   92.60    4.09
 -10  -1   1   90.97    4.59
   1 -10   1   93.92    4.75
 -10   1  -1   96.64    4.36
   1  10   1   97.66    4.20
   1 -10  -1   93.29    4.11
  10   1  -1   93.45    4.66
 -10  -1  -1   91.45    4.29
 -10  -1  -1   92.50    4.15
  10   1  -1   97.67    4.34
 -10   1   1   87.84    4.39
 -10   1   1   91.11    3.97
  -1  10  -1   92.60    4.11
  -1 -10   1   94.52    4.71
  -1  10  -1   99.73    3.98
   1 -10  -1  101.84    4.63
  10  -1   1   96.93    4.56
  -1 -10   1  104.29    4.62
 -10   2  -1   48.67    2.72
  10  -2  -1   48.24    3.00
   2  10  -1   47.92    2.42
  10  -2  -1   49.60    2.63
  -2 -10  -1   51.10    2.50
 -10   2  -1   53.54    2.52
  -2  10   1   47.73    2.51
   2 -10   1   47.41    2.96
  -2 -10  -1   48.35    2.45
  10   2   1   47.34    3.06
   2  10  -1   51.55    2.28
 -10  -2   1   49.16    2.96
  10  -2   1   45.44    2.76
 -10   2   1   43.39    2.73
   2 -10  -1   51.84    2.87
 -10  -2  -1   46.83    2.69
  -2  10  -1   48.05    2.45
 -10   2   1   46.55    2.45
  -2  10  -1   50.63    2.41
   2  10   1   48.44    2.57
  -2 -10   1   46.72    2.91
  10   2  -1   46.83    2.68
  -2 -10   1   48.87    2.84
 -10  -2  -1   49.31    2.56
  10   2  -1   45.65    2.77
  10  -3  -1   66.55    3.04
 -10  -3   1   61.51    3.51
  -3 -10  -1   65.87    3.02
 -10   3  -1   64.80    3.19
   3 -10   1   66.39    3.74
   3  10  -1   62.19    2.69
  10  -3  -1   58.28    3.46
  -3 -10  -1   58.39    2.97
  10   3   1   55.09    3.46
  -3  10   1   60.17    3.00
   3  10  -1   58.11    2.96
   3 -10  -1   60.79    2.92
 -10  -3  -1   62.33    3.08
  -3 -10   1   64.30    3.50
  10   3  -1   60.22    3.14
   3  10   1   50.12    3.42
 -10   3   1   60.27    3.20
   3 -10  -1   65.89    3.55
  10   3  -1   61.09    3.31
 -10  -3  -1   62.44    3.13
 -10   3   1   59.22    3.00
  -3  10  -1   52.70    2.78
  10  -3   1   63.47    3.34
  -3  10  -1   59.89    2.83
   3  10   1   63.11    3.03
  -3 -10   1   59.86    3.27
 -10  -4   1   45.86    2.99
  -4  10   1   46.62    2.37
   4 -10   1   47.69    3.15
  -4 -10  -1   41.33    2.35
 -10   4  -1   43.75    2.68
   4  10  -1   46.86    2.44
   4  10  -1   45.20    2.11
  10  -4  -1   50.25    2.47
  10   4   1   44.71    3.06
  -4  10   1   40.51    2.39
  10  -4  -1   48.77    3.15
   4 -10  -1   47.57    3.03
   4  10   1   48.23    3.27
  10   4  -1   42.33    2.55
 -10   4   1   39.52    2.47
  -4 -10   1   48.06    2.80
  10  -4   1   41.66    2.56
  -4 -10   1   51.53    3.09
  -4  10  -1   46.81    2.49
  -4  10  -1   44.34    2.38
 -10   4   1   41.21    2.48
 -10  -4  -1   43.54    2.48
 -10  -4  -1   47.92    2.53
  10   4  -1   44.18    2.66
   4  10   1   49.14    2.57
   5  10  -1   64.37    3.08
 -10   5  -1   73.22    3.65
  -5 -10  -1   62.39    3.04
  -5  10   1   57.55    2.92
  -5  10   1   65.81    3.15
  10   5   1   67.76    3.41
   5 -10   1   65.83    4.02
  10  -5  -1   77.74    4.23
 -10  -5   1   67.45    3.88
  10   5   1   71.06    4.15
  10  -5   1   63.99    3.29
   5 -10  -1   69.79    4.03
   5  10   1   68.74    3.37
  10   5  -1   59.18    3.27
  -5  10  -1   64.08    3.31
 -10  -5  -1   62.67    3.18
  -5 -10   1   80.24    4.08
   5  10   1   73.59    4.23
 -10   5   1   65.58    3.25
  -5 -10   1   73.99    3.75
  -5  10  -1   67.55    3.26
 -10   5   1   58.29    3.18
  10   5  -1   57.73    3.28
   6 -10   1  112.27    5.89
  10   6   1  100.07    4.55
  10  -6  -1  108.76    5.45
 -10  -6   1  104.79    5.22
  -6 -10  -1  101.86    4.61
  -6  10   1  108.63    4.68
 -10   6  -1   94.97    4.61
   6  10  -1  111.25    4.70
  10   6   1  110.79    5.43
  -6  10   1  102.14    4.51
   6 -10  -1   98.44    5.33
  -6  10  -1   97.98    4.47
  10  -6   1  107.29    4.80
  -6 -10   1   98.51    4.90
  -6 -10   1  103.45    5.22
   6  10   1  104.31    4.51
 -10  -6  -1  107.09    4.72
 -10   6   1  108.72    4.77
  10   6  -1  100.75    4.82
  10  -6   1   88.57    5.89
 -10   6   1  103.31    4.72
   6  10   1  105.19    5.43
   7 -10   1    5.21    1.64
 -10   7  -1    4.01    1.20
  10  -7  -1    2.33    1.22
  -7  10   1    3.69    1.08
 -10  -7   1    7.20    1.52
  -7  10   1    4.15    0.90
  10   7   1    2.89    0.94
  10   7   1    1.84    1.43
   7 -10   1    4.48    0.91
   7  10  -1    4.79    1.14
  -7 -10  -1    4.44    1.02
  -7 -10   1    4.29    1.37
 -10   7   1    5.17    1.07
  10   7  -1    3.77    1.25
  -7  10  -1    4.08    1.04
   7  10   1    5.93    1.59
   7  10   1    3.12    1.00
   7 -10  -1    1.20    1.16
  10  -7   1    5.94    2.00
  -7 -10   1    3.58    0.93
 -10   7   1    4.35    1.21
  10  -7   1    5.54    1.11
 -10  -7  -1    5.49    1.10
 -10   8  -1   52.10    3.19
  -8  10   1   48.49    2.95
  10  -8  -1   60.56    3.81
  10   8   1   52.52    3.02
   8 -10   1   54.06    4.03
 -10  -8   1   57.41    3.80
  -8 -10  -1   46.11    2.82
   8 -10   1   47.00    2.61
  -8  10   1   45.30    2.61
  10   8   1   61.31    3.84
   8  10  -1   47.81    2.83
  -8 -10   1   50.65    3.62
   8  10   1   57.19    3.00
 -10   8   1   51.46    3.09
 -10  -8  -1   45.81    2.80
   8 -10  -1   48.62    3.62
  -8  10  -1   58.14    3.13
  10  -8   1   49.16    2.77
   8  10   1   70.68    4.11
  10   8  -1   48.27    3.04
 -10   8   1   47.75    2.72
  10  -8   1   52.00    4.33
  10   9   1    6.02    1.72
   9 -10   1    2.96    0.99
   9 -10   1    3.29    1.84
 -10   9  -1    2.76    1.12
  10  -9  -1    6.83    1.67
   9  10  -1    3.32    1.30
  -9  10   1    2.95    0.95
 -10  -9   1    8.12    1.74
  -9  10   1    2.55    1.32
  10   9   1    5.70    1.25
  -9 -10  -1    2.88    1.12
 -10   9   1    2.97    1.00
  10  -9   1    1.79    1.75
   9  10   1    4.54    1.07
  10   9  -1    2.09    1.15
  -9  10  -1    5.95    1.27
 -10   9   1    6.58    1.49
   9 -10  -1    5.00    1.51
 -10  -9  -1    5.88    1.26
  -9 -10   1    5.73    1.84
   9  10   1    7.33    1.90
  10  -9   1    4.70    1.10
  10  10   1   50.28    2.98
  10  10  -1   51.73    3.25
 -10 -10  -1   51.31    3.14
  10 -10   1   52.42    4.51
 -10 -10   1   55.71    3.92
  10  10   1   67.62    4.19
 -10  10   1   58.41    3.39
 -10  10   1   51.27    2.95
 -10  10  -1   48.80    3.11
  10 -10  -1   49.42    3.73
   0 -11   1  149.02    6.90
 -11   0  -1  150.41    6.25
   0  11  -1  152.20    5.80
  11   0   1  134.46    6.56
   0 -11  -1  148.92    6.58
   0 -11   1  141.79    6.34
   0 -11  -1  144.24    6.02
  11   0  -1  160.28    6.98
 -11   0  -1  148.09    6.14
  11   0  -1  150.70    6.33
 -11   0   1  147.32    6.56
   0  11  -1  146.91    6.00
   1  11  -1   15.70    1.27
  11   1   1   12.49    1.71
  11  -1  -1   15.37    1.72
  -1 -11  -1   13.19    1.37
 -11  -1   1   16.66    1.86
  -1  11   1   15.29    1.43
  -1 -11  -1   13.50    1.30
 -11   1  -1   13.19    1.61
   1 -11   1   12.27    1.57
 -11   1  -1   15.10    1.34
   1  11  -1   14.65    1.28
  11  -1  -1   15.43    1.52
  -1  11  -1   12.65    1.22
  11   1  -1   15.75    1.73
  -1 -11   1   15.60    1.67
  -1  11  -1   15.00    1.31
   1 -11  -1   13.87    1.48
 -11  -1  -1   15.47    1.46
 -11  -1  -1   14.43    1.53
  11   1  -1   15.99    1.65
 -11   1   1   15.26    1.75
   1 -11  -1   14.44    1.36
  -1 -11   1   17.82    1.86
  11  -1   1   13.02    1.75
   1  11   1   13.47    1.49
 -11   1   1   14.60    1.36
   2  11  -1   10.59    1.16
  -2 -11  -1   10.53    1.30
  11  -2  -1    8.48    1.41
  -2  11   1   10.34    1.26
  11   2   1   12.47    1.70
 -11   2  -1    7.75    1.07
  11  -2  -1    8.63    1.29
  -2 -11  -1   12.09    1.21
   2  11  -1   12.62    1.13
 -11   2  -1    7.87    1.29
   2 -11   1   11.27    1.55
 -11  -2   1    8.04    1.41
 -11  -2  -1    9.92    1.35
  -2 -11   1    9.14    1.38
   2 -11  -1    8.49    1.43
  11   2  -1   11.77    1.45
  11   2  -1    9.40    1.42
   2 -11  -1    9.34    1.19
   2  11   1    8.56    1.24
  -2 -11   1   11.99    1.64
  -2  11  -1    9.00    1.09
 -11   2   1    9.20    1.44
 -11   2   1   11.42    1.37
 -11  -2  -1   12.55    1.30
  11  -2   1    8.03    1.40
  -2  11  -1    8.63    1.08
  11  -3  -1   56.85    2.93
  -3 -11  -1   52.89    2.73
  11  -3  -1   57.64    3.40
   3  11  -1   48.70    2.37
 -11   3  -1   53.14    3.04
  11   3   1   56.91    3.59
   3  11  -1   50.72    2.64
 -11  -3   1   52.89    3.32
  -3  11   1   50.48    2.72
   3 -11   1   52.51    3.31
  11   3  -1   43.33    2.79
 -11  -3  -1   50.04    2.80
 -11  -3  -1   49.65    2.77
 -11   3   1   52.36    2.80
   3 -11  -1   59.00    3.38
  11   3  -1   49.56    2.91
  -3  11  -1   55.44    2.75
 -11   3   1   52.29    2.94
  -3  11  -1   56.52    2.78
   3  11   1   57.29    2.94
  11  -3   1   47.44    2.94
  -3 -11   1   53.23    3.22
  -3 -11   1   60.11    3.49
  -4  11   1  112.29    4.81
   4 -11   1  105.07    5.70
  11  -4  -1  100.34    5.27
 -11   4  -1   94.02    4.66
   4  11  -1  105.60    4.71
  11  -4  -1  107.02    4.56
  11   4   1  106.62    5.30
 -11  -4   1  107.65    5.18
   4  11  -1  109.24    4.38
  -4 -11  -1  113.62    4.78
  -4 -11   1  114.67    5.31
   4  11   1  105.05    4.62
   4 -11  -1  105.20    5.26
 -11  -4  -1  101.04    4.80
   4 -11  -1   98.11    4.45
  11   4  -1  110.40    5.08
  -4 -11   1  106.50    5.11
 -11   4   1  106.72    5.01
  11  -4   1  110.79    5.11
  -4  11  -1  100.62    4.40
 -11   4   1  111.09    4.86
   4  11   1   97.25    5.34
  -4  11  -1  103.48    4.47
  11   4  -1  109.56    5.22
 -11  -4  -1  109.72    4.86
  -5  11   1   13.69    1.52
   5 -11   1   12.72    2.11
  -5 -11  -1   15.63    1.46
 -11   5  -1   14.82    1.77
 -11  -5   1   19.30    2.14
  11   5   1   14.89    1.98
  11  -5  -1   21.02    2.17
   5  11  -1   14.26    1.44
  -5 -11   1   13.66    2.04
  11   5  -1   17.36    1.85
 -11  -5  -1   14.86    1.51
   5 -11  -1   17.90    2.03
 -11   5   1   18.16    1.84
   5  11   1   19.63    2.28
  11  -5   1   15.23    1.69
 -11  -5  -1   13.11    1.57
   5  11   1   10.36    1.52
  -5  11  -1   15.59    1.37
  11  -5   1    8.91    2.02
  -5 -11   1   17.91    1.67
  -5  11  -1   14.73    1.48
 -11   5   1   12.69    1.46
  11   6   1    9.76    1.37
  -6  11   1    9.92    1.25
   6 -11   1    9.35    1.89
  -6 -11  -1   10.31    1.37
  11   6   1   11.86    1.91
  11  -6  -1   10.76    1.80
   6  11  -1   11.77    1.57
 -11   6  -1    8.98    1.48
 -11  -6   1   11.80    1.83
  -6  11   1   13.80    1.65
  11   6  -1   11.63    1.61
  -6 -11   1    9.21    1.37
  -6  11  -1    9.74    1.20
  -6 -11   1   14.47    2.10
   6 -11  -1    8.17    1.77
   6  11   1   13.12    2.13
  11  -6   1    9.77    1.51
 -11  -6  -1   11.17    1.60
 -11   6   1   11.71    1.71
  -6  11  -1    6.44    1.22
 -11   6   1   10.97    1.48
  11  -6   1    7.42    2.09
   6  11   1   10.53    1.35
 -11  -7   1   81.55    4.53
  11  -7  -1   84.58    4.65
  11   7   1   83.63    4.02
  -7  11   1   74.35    3.75
  11   7   1   85.42    4.69
   7  11  -1   73.61    3.69
 -11   7  -1   80.00    4.13
  -7 -11  -1   69.70    3.62
   7 -11   1   81.87    5.07
  -7  11   1   72.34    3.51
  -7  11  -1   76.95    3.77
   7  11   1   88.37    4.89
  11  -7   1   76.49    3.78
 -11  -7  -1   69.10    3.70
  -7  11  -1   73.46    3.91
  11  -7   1   51.46    4.65
   7  11   1   76.58    3.85
 -11   7   1   81.23    3.99
  -7 -11   1   89.37    4.83
 -11   7   1   74.13    3.70
   7 -11  -1   79.28    4.85
  11   7  -1   76.65    3.95
  -8 -11  -1   18.16    1.77
 -11  -8   1   13.13    2.07
  -8  11   1   16.18    1.57
  11   8   1   17.35    1.80
   8 -11   1   16.81    2.83
   8  11  -1   16.96    1.97
 -11   8  -1   17.51    1.89
  11  -8  -1   16.02    2.24
  11   8   1   21.96    2.63
  -8  11   1   19.33    1.97
  11  -8   1   14.83    2.77
  -8 -11   1   19.82    2.38
 -11   8   1   17.62    1.77
   8 -11  -1   13.50    2.24
  11  -8   1   17.47    1.77
  11   8  -1   16.52    1.97
 -11   8   1   21.09    2.22
 -11  -8  -1   17.07    1.82
   8  11   1   19.86    2.57
   8  11   1   15.09    1.72
  -8  11  -1   16.27    1.79
  11   9   1    4.54    1.77
   9  11  -1    0.94    1.09
 -11  -9   1    3.10    1.60
 -11   9  -1    3.20    1.32
  11   9   1    2.30    1.13
  -9 -11  -1    1.47    1.12
  11  -9  -1    6.40    1.75
   9 -11   1    5.84    2.14
  -9  11   1    1.74    1.22
  -9  11  -1    4.21    1.23
  -9 -11   1    4.04    1.54
 -11   9   1    2.33    0.98
  11  -9   1    2.39    1.84
 -11  -9  -1    2.69    1.22
   9 -11  -1    1.56    1.44
  11   9  -1    1.39    1.31
  11  -9   1    0.70    0.94
   9  11   1    2.50    1.08
   9  11   1    6.34    1.87
 -11   9   1    1.25    1.19
 -11  10  -1   15.35    2.13
 -10  11   1   13.75    2.07
  11  10   1   14.94    1.86
  11  10   1   14.44    2.35
  10  11  -1   15.66    2.03
 -11 -10   1   16.95    2.41
  10 -11   1   12.26    2.87
 -10 -11  -1   16.38    1.93
  11 -10  -1   13.97    2.36
 -10 -11   1   21.19    2.76
  10  11   1   22.68    2.85
  11  10  -1   17.22    2.14
 -11 -10  -1   17.49    1.94
  11 -10   1   19.29    3.38
  10 -11  -1   12.17    2.40
 -11  10   1   15.78    2.30
 -10  11  -1   17.51    2.03
  10  11   1   12.13    1.79
 -11  11   1   47.91    3.46
  11 -11   1   55.53    4.72
 -11 -11   1   54.05    4.08
  11 -11  -1   47.41    4.07
 -11 -11  -1   43.98    3.21
  11  11   1   49.98    3.07
  11  11   1   59.40    4.00
 -11  11  -1   49.89    3.32
  11  11  -1   44.65    3.27
   0  12  -1   43.94    2.33
  12   0  -1   39.74    2.73
   0  12   1   37.11    2.38
   0 -12  -1   40.34    2.35
   0 -12   1   37.82    2.67
  12   0  -1   39.63    2.55
  12   0   1   38.84    2.80
 -12   0   1   42.12    2.77
   0 -12  -1   40.24    2.45
   0  12  -1   39.95    2.21
 -12   0  -1   40.70    2.53
 -12   0  -1   41.08    2.43
 -12   1  -1   24.11    2.06
   1  12  -1   21.49    1.58
 -12  -1   1   25.92    2.23
  12   1   1   25.81    2.33
  12  -1  -1   25.71    1.91
 -12   1  -1   30.11    1.94
  -1 -12  -1   24.19    1.82
  -1 -12  -1   23.05    1.70
   1 -12   1   25.09    2.26
   1  12  -1   23.47    1.72
  -1  12   1   21.74    1.79
  12  -1  -1   23.09    2.06
   1  12   1   25.02    1.90
 -12  -1  -1   25.11    1.82
  12  -1   1   23.94    2.27
   1 -12  -1   23.08    1.95
 -12  -1  -1   25.59    2.00
  12   1  -1   21.92    2.00
  -1  12  -1   28.07    1.76
  12   1  -1   23.34    2.05
 -12   1   1   20.38    1.98
  -1 -12   1   28.00    2.31
  -1  12  -1   26.47    1.73
  -1 -12   1   23.52    2.05
   2  12  -1   20.35    1.54
 -12  -2   1   22.56    2.07
  12   2   1   17.30    2.15
  -2 -12  -1   24.23    1.84
 -12   2  -1   18.77    1.77
  12  -2  -1   20.18    2.02
  -2 -12  -1   25.00    1.78
  -2  12   1   19.37    1.73
   2  12  -1   24.83    1.78
   2 -12   1   25.10    2.20
  12  -2  -1   19.29    1.73
 -12   2   1   24.88    2.06
 -12   2   1   20.61    1.82
  -2 -12   1   17.93    1.77
  -2 -12   1   20.58    2.14
 -12  -2  -1   21.48    1.98
  12  -2   1   22.89    2.08
 -12  -2  -1   25.47    1.97
  -2  12  -1   18.95    1.62
  12   2  -1   21.50    1.96
  12   2  -1   22.42    1.95
  -2  12  -1   17.92    1.49
   2  12   1   16.81    1.65
   2 -12  -1   19.78    1.63
   2 -12  -1   18.99    1.86
   3 -12   1   61.82    3.86
  -3  12   1   55.31    3.15
  -3 -12  -1   65.03    3.25
  12  -3  -1   70.20    3.96
  12  -3  -1   69.54    3.40
 -12   3  -1   67.69    3.61
 -12  -3   1   63.56    3.84
   3  12  -1   63.27    2.88
  12   3   1   62.75    3.99
   3  12  -1   57.95    3.09
  12   3  -1   61.47    3.48
  -3 -12   1   67.46    3.79
  -3  12  -1   65.06    3.21
   3 -12  -1   69.42    3.31
 -12  -3  -1   67.80    3.45
   3 -12  -1   68.06    3.85
 -12  -3  -1   60.88    3.33
 -12   3   1   62.39    3.51
  -3  12  -1   62.13    3.17
  -3 -12   1   70.98    3.99
  12  -3   1   63.63    3.64
   3  12   1   70.65    3.49
 -12   3   1   63.94    3.32
  12   3  -1   64.50    3.54
  -4  12   1   48.52    2.74
  12   4   1   56.48    3.57
 -12  -4   1   49.84    3.34
  12  -4  -1   52.97    3.55
  -4 -12  -1   45.05    2.59
   4 -12   1   47.54    3.46
   4  12  -1   47.76    2.58
 -12   4  -1   60.65    3.23
 -12  -4  -1   43.73    2.74
  12   4  -1   41.53    2.81
  12  -4   1   44.37    2.99
 -12  -4  -1   48.84    2.85
 -12   4   1   43.34    2.85
 -12   4   1   46.81    2.81
  -4 -12   1   50.09    3.16
   4  12   1   60.28    3.06
  -4  12  -1   52.80    2.79
  -4  12  -1   53.71    2.87
   4 -12  -1   58.30    3.56
  -4 -12   1   63.52    3.73
   4 -12  -1   54.20    2.87
   5  12  -1   16.96    1.72
  12   5   1   15.61    2.08
 -12  -5   1   17.73    2.17
  -5  12   1   20.77    1.82
 -12   5  -1   17.01    1.81
   5 -12   1   18.37    2.44
  -5 -12  -1   14.72    1.58
  12  -5  -1   17.85    2.18
 -12  -5  -1   17.38    1.73
 -12   5   1   17.94    1.97
  -5 -12   1   20.11    2.38
   5 -12  -1   18.56    2.10
  12  -5   1   17.16    1.78
 -12   5   1   19.01    1.85
  -5  12  -1   16.30    1.60
  -5  12  -1   19.10    1.59
   5  12   1   14.67    1.60
   5 -12  -1   17.93    1.58
 -12  -5  -1   17.44    1.78
  12  -5   1   12.38    2.37
  12   5  -1   18.27    1.93
  -5 -12   1   17.78    1.79
   6  12  -1   23.95    2.05
 -12   6  -1   28.69    2.42
  -6  12   1   24.24    2.08
 -12  -6   1   28.66    2.54
  -6 -12  -1   24.04    1.93
  12   6   1   28.42    2.81
   6 -12   1   27.02    2.99
  12  -6  -1   30.36    2.75
 -12  -6  -1   23.96    2.07
  -6  12  -1   27.24    2.10
 -12  -6  -1   25.29    2.17
   6  12   1   30.15    2.16
  12   6  -1   22.78    2.29
 -12   6   1   23.83    2.33
  12  -6   1   29.03    2.23
 -12   6   1   23.16    2.07
   6  12   1   35.37    3.05
  12  -6   1   19.37    2.91
   6 -12  -1   32.62    2.92
  -6 -12   1   28.35    2.24
  -6 -12   1   29.93    2.82
  12   7   1   38.70    3.02
  -7  12   1   30.85    2.12
  12  -7  -1   31.42    2.75
 -12   7  -1   32.70    2.46
  -7  12   1   32.88    2.44
 -12  -7   1   32.14    2.76
   7  12  -1   38.99    2.54
   7 -12   1   38.00    3.40
  -7 -12  -1   31.78    2.39
  12   7  -1   34.14    2.73
   7  12   1   45.55    3.34
 -12   7   1   34.18    2.38
 -12   7   1   33.33    2.71
   7  12   1   28.06    2.20
  -7 -12   1   31.77    2.89
 -12  -7  -1   31.93    2.39
   7 -12  -1   31.62    3.05
  -7  12  -1   27.58    2.37
  12  -7   1   22.55    3.11
  12  -7   1   33.30    2.37
  12   8   1   19.35    1.86
  12   8   1   16.09    2.49
 -12   8  -1   16.65    1.98
   8  12  -1   12.86    1.80
  -8  12   1   13.39    1.87
  -8 -12  -1   16.15    1.80
  12  -8  -1   18.50    2.49
 -12  -8   1   14.91    2.18
   8 -12   1   19.33    2.82
  12  -8   1   17.41    1.86
  -8 -12   1   23.32    2.55
   8 -12  -1   17.14    2.44
   8  12   1   17.61    2.56
   8  12   1   19.77    1.97
 -12  -8  -1   18.50    1.91
 -12   8   1   19.83    2.29
  12  -8   1   17.19    3.02
 -12   8   1   17.82    1.83
  12   8  -1   17.65    2.05
  -8  12  -1   16.04    1.90
  12  -9  -1   34.65    3.07
   9 -12   1   25.86    3.42
  -9  12   1   28.87    2.59
  12   9   1   31.14    2.52
 -12  -9   1   33.67    3.04
  -9 -12  -1   27.42    2.37
  12   9   1   42.61    3.47
   9  12  -1   33.82    2.57
 -12   9  -1   28.51    2.56
  12  -9   1   29.51    3.62
   9  12   1   34.99    2.54
  12   9  -1   32.78    2.84
 -12  -9  -1   31.48    2.50
  -9 -12   1   35.54    3.38
   9  12   1   37.84    3.39
   9 -12  -1   35.47    3.23
 -12   9   1   32.09    2.87
  -9  12  -1   33.43    2.75
  12 -10  -1   33.36    3.28
 -12 -10   1   42.78    3.43
  12  10   1   38.74    2.78
 -10 -12  -1   35.64    2.89
  12  10   1   47.33    3.57
  10  12  -1   34.80    2.84
  10 -12   1   35.83    3.95
 -12  10  -1   35.39    2.84
 -10  12   1   42.69    3.29
 -12 -10  -1   34.58    2.75
 -12  10   1   43.65    3.15
  12  10  -1   36.22    2.93
  12 -10   1   27.55    3.75
  10  12   1   49.19    3.87
 -10  12  -1   37.92    2.90
 -10 -12   1   44.18    3.73
  10 -12  -1   41.07    3.51
  10  12   1   33.42    2.67
 -12 -11   1   16.44    2.63
  12  11   1   15.51    2.53
  12 -11  -1   19.34    3.02
 -12  11  -1   16.52    2.32
  11  12  -1   16.73    2.52
 -11  12   1   11.60    2.30
  11 -12   1   21.36    3.60
 -11 -12  -1   13.55    2.05
  12  11   1   12.83    1.92
  12  11  -1   15.49    2.24
 -11  12  -1   19.44    2.48
 -12  11   1   16.25    2.46
  11  12   1   14.84    2.05
  12 -11   1   20.19    3.55
  11 -12  -1   15.94    2.68
 -11 -12   1   21.51    2.77
  11  12   1   21.29    2.91
 -12 -11  -1   14.86    2.26
  12  12  -1    0.49    1.35
  12  12   1    1.75    1.82
 -12 -12   1    0.01    1.55
  12 -12  -1   -0.72    1.71
  12 -12   1    1.99    2.05
 -12 -12  -1   -0.88    1.13
 -12  12  -1    0.07    1.30
 -12  12   1    0.45    1.74
   0 -13  -1   13.59    1.63
  13   0  -1   13.51    1.77
 -13   0  -1   12.19    1.55
  13   0   1   10.98    1.76
   0  13  -1   12.69    1.40
   0 -13  -1   11.87    1.47
   0  13  -1   11.89    1.41
   0  13   1   10.47    1.48
 -13   0   1   10.30    1.67
 -13   0  -1   10.32    1.41
   0 -13   1   11.25    1.61
  13   0  -1   11.29    1.65
   1  13  -1   63.00    3.17
   1  13  -1   64.15    3.07
  13   1   1   56.67    3.74
  -1  13   1   64.22    3.33
  -1 -13  -1   59.13    3.23
  13  -1  -1   58.38    3.24
 -13  -1   1   57.33    3.53
  -1 -13  -1   69.85    3.53
  13  -1  -1   61.79    3.57
 -13   1  -1   57.75    3.22
   1 -13   1   64.27    3.83
   1 -13  -1   59.90    3.37
  13   1  -1   65.17    3.55
   1  13   1   59.50    3.18
  -1 -13   1   61.49    3.64
  -1  13  -1   59.53    2.99
  13   1  -1   62.71    3.62
 -13  -1  -1   61.01    3.36
 -13  -1  -1   59.17    3.37
  -1  13  -1   52.98    2.92
 -13   1   1   61.96    3.63
   1 -13  -1   58.54    3.00
  13  -1   1   59.70    3.68
  13  -2  -1   41.99    2.90
  -2 -13  -1   46.42    2.59
  13  -2  -1   36.46    2.46
   2 -13   1   44.42    3.21
 -13  -2   1   39.30    2.92
 -13   2  -1   41.55    2.62
   2  13  -1   39.29    2.29
  13   2   1   36.92    2.89
   2  13  -1   44.90    2.53
  -2  13   1   43.27    2.72
  -2 -13   1   42.15    2.85
 -13   2   1   42.47    2.96
 -13  -2  -1   41.13    2.62
   2  13   1   35.63    2.45
   2 -13  -1   38.36    2.72
 -13  -2  -1   47.69    2.88
  -2  13  -1   39.78    2.42
  13   2  -1   41.70    2.78
   2 -13  -1   37.80    2.29
  13  -2   1   40.70    2.92
  -2 -13   1   39.59    2.99
  -2  13  -1   40.62    2.30
  13   3   1   35.25    3.02
 -13  -3   1   37.69    2.80
   3  13  -1   44.47    2.29
  -3 -13  -1   39.21    2.46
   3 -13   1   43.30    3.15
 -13   3  -1   43.01    2.67
  13  -3  -1   38.03    2.42
  -3  13   1   40.36    2.65
   3  13  -1   40.87    2.48
  13  -3  -1   40.77    2.96
   3  13   1   33.46    2.48
 -13  -3  -1   37.67    2.68
 -13   3   1   42.18    2.89
  -3  13  -1   40.60    2.28
  13  -3   1   39.53    2.86
  -3 -13   1   46.30    3.19
  -3 -13   1   37.71    2.74
   3 -13  -1   39.24    2.84
   3 -13  -1   35.28    2.33
  13   3  -1   39.99    2.86
  -3  13  -1   38.36    2.36
 -13  -3  -1   40.85    2.74
   4 -13   1    8.32    1.85
  -4  13   1    6.42    1.30
 -13  -4   1    9.37    1.71
 -13   4  -1    8.63    1.49
  -4 -13  -1   10.70    1.56
  13  -4  -1   10.47    1.83
   4  13  -1    7.76    1.25
  13   4   1   12.83    1.95
   4 -13  -1    9.30    1.66
 -13   4   1    8.40    1.53
 -13  -4  -1    8.03    1.45
  -4 -13   1   11.74    1.66
   4 -13  -1   12.07    1.46
  13  -4   1    8.17    1.60
  13   4  -1    8.96    1.56
 -13  -4  -1    9.70    1.55
  -4  13  -1    8.25    1.39
  -4 -13   1   15.68    2.23
 -13   4   1   11.78    1.71
   4  13   1   12.45    1.56
   5  13  -1   51.85    2.93
 -13  -5   1   45.02    3.27
 -13   5  -1   51.26    3.15
  13   5   1   50.40    3.59
  -5  13   1   48.04    3.03
  -5 -13  -1   56.22    3.00
  13  -5  -1   49.91    3.36
   5 -13   1   59.26    3.97
  13  -5   1   49.51    4.07
  -5  13  -1   47.14    2.90
  13   5  -1   50.31    3.27
   5  13   1   53.09    2.98
 -13   5   1   54.76    3.21
   5 -13  -1   48.44    2.77
  13  -5   1   52.41    3.32
 -13  -5  -1   47.61    3.05
  -5 -13   1   47.18    3.12
 -13   5   1   50.03    3.28
 -13  -5  -1   49.00    3.07
  -5 -13   1   55.68    3.63
   5 -13  -1   53.26    3.57
  -6  13   1   21.00    2.21
   6 -13   1   25.71    2.84
   6  13  -1   22.33    2.08
  13   6   1   26.11    2.67
  -6 -13  -1   19.34    2.02
  13  -6  -1   21.00    2.43
 -13   6  -1   18.70    2.04
 -13  -6   1   23.39    2.50
   6 -13  -1   21.62    2.60
  13   6  -1   24.79    2.49
 -13   6   1   22.95    2.40
  13  -6   1   20.86    2.17
 -13  -6  -1   18.19    2.08
   6  13   1   18.69    1.99
  13  -6   1   24.04    3.10
 -13  -6  -1   23.12    1.99
   6 -13  -1   22.44    1.85
 -13   6   1   19.63    2.05
  -6 -13   1   21.26    2.63
  -6  13  -1   22.36    2.10
  -7  13   1   15.07    1.92
  13  -7  -1   17.86    2.47
 -13   7  -1   12.95    1.86
  13   7   1   14.80    2.35
 -13  -7   1   16.28    2.13
   7  13  -1   12.98    1.74
   7 -13   1   18.54    2.92
  -7 -13  -1   12.22    1.69
 -13  -7  -1   16.64    2.05
  -7 -13   1   17.71    2.59
 -13   7   1   12.69    1.77
 -13   7   1   15.56    2.22
  13  -7   1   16.76    2.99
   7  13   1   13.55    1.68
  -7  13  -1   12.89    1.71
   7 -13  -1   12.73    2.26
  13   7  -1   10.21    1.90
  13  -7   1   16.87    1.84
 -13  -7  -1   13.02    1.69
   8 -13   1   25.45    3.48
  13   8   1   25.91    2.91
  -8  13   1   19.72    2.19
  13  -8  -1   23.33    2.56
 -13   8  -1   20.25    2.21
  -8 -13  -1   19.37    2.04
 -13  -8   1   21.25    2.65
   8  13  -1   21.82    2.36
   8  13   1   28.16    3.05
 -13  -8  -1   20.27    2.16
  -8 -13   1   29.93    2.93
  -8  13  -1   24.38    2.22
  13   8  -1   19.82    2.33
  13  -8   1   21.22    2.10
   8 -13  -1   22.46    2.91
  13  -8   1   19.72    3.34
   8  13   1   21.02    2.16
 -13   8   1   23.81    2.58
   9  13  -1   32.64    2.70
  -9 -13  -1   35.96    2.71
   9 -13   1   36.88    3.95
  13  -9  -1   36.92    3.22
 -13   9  -1   33.86    2.92
  13   9   1   32.58    2.56
  13   9   1   40.87    3.48
  -9  13   1   32.63    2.80
 -13  -9   1   35.80    3.10
  -9  13  -1   34.87    2.72
  13   9  -1   33.10    2.93
   9  13   1   32.32    2.59
  13  -9   1   39.15    4.25
 -13  -9  -1   35.05    2.92
 -13   9   1   40.73    3.28
   9  13   1   45.47    3.69
   9 -13  -1   30.99    3.25
  -9 -13   1   42.96    3.47
  13  10   1   17.06    2.16
 -10 -13  -1   14.28    2.07
 -13 -10   1   19.02    2.56
  13 -10  -1   21.19    2.77
 -10  13   1   15.56    2.30
  13  10   1   22.37    2.69
  10  13  -1   17.29    2.28
 -13  10  -1   20.57    2.30
  10 -13   1   15.34    3.07
 -10  13  -1   17.74    2.27
  13 -10   1   25.73    3.82
  13  10  -1   18.53    2.62
  10 -13  -1   17.05    2.71
 -13 -10  -1   14.01    2.12
 -10 -13   1   20.71    3.03
 -13  10   1   17.87    2.65
  10  13   1   25.67    3.20
  10  13   1   15.49    2.05
  11 -13   1    5.37    2.50
 -11  13   1    3.45    1.91
  11  13  -1    5.34    1.91
 -13 -11   1    1.63    1.53
  13 -11  -1    4.00    1.81
 -11 -13  -1    2.97    1.43
  13  11   1    4.50    1.83
 -13  11  -1    1.72    1.44
 -11 -13   1    0.19    1.72
 -13 -11  -1    2.66    1.52
  11  13   1    1.18    1.28
  13 -11   1    3.72    2.45
 -11  13  -1    3.77    1.55
 -13  11   1    2.97    1.64
  11  13   1    7.39    2.19
  11 -13  -1    5.53    2.06
  13  11  -1    1.84    1.69
  12  13  -1    8.18    1.97
  12 -13   1   10.51    3.16
  13  12   1   12.59    2.52
 -13  12  -1    8.19    2.01
  13 -12  -1    9.96    2.48
 -13 -12   1   12.79    2.54
 -12 -13  -1   10.86    2.07
 -12  13   1   13.70    2.47
 -12 -13   1   14.74    2.63
 -13 -12  -1    9.16    1.92
  13  12  -1    8.42    2.16
  13 -12   1   12.39    3.03
 -12  13  -1   11.84    2.13
  12  13   1   12.96    2.64
  12 -13  -1   14.15    2.69
 -13  12   1   11.32    2.54
 -13 -13   1   25.56    3.46
  13 -13  -1   25.48    3.55
 -13  13  -1   23.90    2.84
 -13 -13  -1   26.09    2.82
 -13  13   1   27.52    3.57
  13  13  -1   25.72    3.03
  13  13   1   32.96    3.66
  13 -13   1   36.28    4.70
   0  14  -1   52.82    2.86
   0 -14  -1   59.95    3.32
   0 -14  -1   53.97    2.99
 -14   0  -1   52.39    3.19
 -14   0   1   44.71    3.26
   0  14  -1   51.26    2.87
  14   0  -1   55.80    3.27
   0 -14   1   55.89    3.58
   0  14   1   55.49    3.20
  14   0   1   52.55    3.58
  14   0  -1   53.62    3.36
 -14   1  -1   28.96    2.24
   1  14  -1   26.70    1.88
  14  -1  -1   29.35    2.43
   1 -14   1   26.74    2.58
   1  14  -1   28.16    2.05
  -1  14   1   30.21    2.25
  14  -1  -1   24.46    2.09
  14   1   1   28.31    2.58
  -1 -14  -1   24.52    1.97
 -14  -1   1   28.20    2.45
  14   1  -1   31.16    2.44
 -14  -1  -1   28.89    2.24
 -14   1   1   27.94    2.52
 -14  -1  -1   27.92    2.17
  -1 -14   1   28.55    2.52
  14  -1   1   22.32    2.33
  -1  14  -1   28.78    1.98
   1  14   1   28.28    2.20
   1 -14  -1   27.10    2.30
   1 -14  -1   27.94    2.09
  -1  14  -1   27.64    1.99
  -2 -14  -1   16.30    1.69
   2 -14   1   16.27    2.26
   2  14  -1   17.66    1.71
  14   2   1   20.58    2.25
  -2  14   1   14.88    1.76
  14  -2  -1   17.97    1.81
 -14   2  -1   15.12    1.90
  14  -2  -1   16.76    2.07
   2  14  -1   19.65    1.65
 -14  -2   1   19.23    2.10
   2 -14  -1   13.05    1.90
   2  14   1   16.57    1.94
  -2  14  -1   14.23    1.58
  14   2  -1   17.21    2.05
 -14   2   1   18.17    2.15
 -14  -2  -1   17.71    1.86
  14  -2   1   16.38    2.20
  -2 -14   1   14.68    1.83
   2 -14  -1   14.98    1.63
 -14  -2  -1   21.85    2.01
  -3 -14  -1   16.14    1.82
  14   3   1   16.68    2.29
   3  14  -1   12.21    1.62
 -14   3  -1   13.67    1.77
  14  -3  -1   11.83    1.97
  -3  14   1   15.01    1.74
 -14  -3   1   11.02    1.84
   3 -14   1   17.97    2.21
   3 -14  -1   14.12    2.00
  14  -3   1   14.46    2.14
 -14  -3  -1   13.97    1.70
 -14  -3  -1   15.27    1.91
  14   3  -1   14.00    2.03
 -14   3   1   11.78    1.76
   3  14   1   15.07    1.72
  -3 -14   1   16.69    1.96
  -3  14  -1   10.92    1.54
   3 -14  -1   12.78    1.46
 -14   4  -1   21.48    2.08
  14  -4  -1   20.77    2.35
  -4 -14  -1   21.18    2.05
   4 -14   1   21.18    2.53
  -4  14   1   24.39    2.14
 -14  -4   1   16.45    2.11
   4  14  -1   23.19    2.05
  14   4   1   20.91    2.53
  -4 -14   1   19.64    2.10
 -14   4   1   19.91    2.24
   4 -14  -1   21.47    2.42
 -14  -4  -1   20.49    2.01
   4 -14  -1   18.31    1.79
  -4 -14   1   28.14    2.77
   4  14   1   19.82    2.09
  14  -4   1   22.35    2.41
 -14  -4  -1   22.52    2.24
  14   4  -1   24.57    2.30
  -4  14  -1   17.66    1.97
 -14   5  -1   48.68    3.11
   5 -14   1   55.39    4.16
  14  -5  -1   50.61    3.55
  14   5   1   53.19    3.63
 -14  -5   1   60.63    3.65
  -5  14   1   51.14    3.28
   5  14  -1   51.12    3.01
  -5 -14  -1   46.98    3.08
  14   5  -1   52.77    3.45
  14  -5   1   53.80    3.47
  -5  14  -1   50.12    2.98
   5  14   1   45.61    3.07
   5 -14  -1   50.56    2.93
 -14  -5  -1   51.33    3.35
   5 -14  -1   47.91    3.48
 -14  -5  -1   53.90    3.26
 -14   5   1   54.79    3.27
  -5 -14   1   51.89    3.81
  14   6   1   27.04    2.66
   6  14  -1   26.04    2.18
  -6 -14  -1   22.25    2.26
   6 -14   1   31.65    3.39
 -14   6  -1   22.94    2.24
  14  -6  -1   28.20    2.76
 -14  -6   1   22.97    2.48
  -6  14   1   25.81    2.36
  -6 -14   1   26.09    2.95
  14  -6   1   30.78    3.51
   6 -14  -1   22.04    2.79
 -14  -6  -1   25.34    2.30
 -14   6   1   25.20    2.67
  -6  14  -1   22.55    2.13
  14  -6   1   27.23    2.52
  14   6  -1   26.78    2.74
 -14  -6  -1   25.76    2.47
   6  14   1   26.87    2.32
 -14   6   1   26.69    2.39
  14   7   1   23.64    2.83
 -14  -7   1   23.43    2.68
   7 -14   1   25.32    3.16
 -14   7  -1   23.34    2.30
  14  -7  -1   27.36    2.82
  -7 -14  -1   21.97    2.32
   7  14  -1   25.49    2.40
  -7  14   1   28.09    2.65
 -14   7   1   22.91    2.62
   7  14   1   19.97    2.05
  14   7  -1   23.34    2.70
 -14  -7  -1   27.50    2.40
  14  -7   1   24.95    3.44
  -7  14  -1   18.86    2.29
   7 -14  -1   22.58    2.64
  14  -7   1   23.90    2.41
  -7 -14   1   25.84    3.05
 -14  -7  -1   22.62    2.27
 -14   8  -1    7.37    1.75
   8 -14   1    7.48    2.32
 -14  -8   1    4.48    1.58
  14  -8  -1    9.70    1.88
  -8  14   1   10.65    1.88
  -8 -14  -1    9.96    1.78
   8  14  -1    7.25    1.60
  14   8   1    7.67    2.00
   8 -14  -1    6.41    1.84
 -14  -8  -1    7.84    1.62
  14  -8   1   13.10    2.84
  -8  14  -1    4.45    1.54
   8  14   1    4.82    1.32
  -8 -14   1    7.77    2.07
  14   8  -1    7.25    1.82
 -14   8   1    8.72    1.87
 -14  -8  -1    5.12    1.45
  -9 -14  -1   14.50    2.02
   9 -14   1   18.96    3.40
 -14  -9   1   14.75    2.42
 -14   9  -1   12.02    1.94
  -9  14   1   12.25    2.09
  14  -9  -1   15.17    2.42
  14   9   1   18.37    2.71
   9  14  -1   15.97    2.34
  -9 -14   1   13.22    2.64
  14  -9   1   15.98    3.05
  -9  14  -1    8.72    1.75
   9  14   1   12.80    1.88
 -14  -9  -1   12.86    2.12
   9 -14  -1   15.21    2.58
  14   9  -1   12.63    2.23
 -14   9   1   15.88    2.54
 -14 -10   1   -0.01    1.56
 -10  14   1   -2.44    1.27
  10  14  -1    0.22    1.49
  14 -10  -1   -0.18    1.61
 -10 -14  -1    0.97    1.23
  14  10   1    0.90    1.46
 -14  10  -1    0.54    1.31
  10 -14   1    1.28    2.25
  10 -14  -1    1.63    1.85
 -14 -10  -1    1.19    1.32
  14  10  -1    1.09    1.48
  14 -10   1    1.63    1.85
 -10  14  -1    0.86    1.35
 -10 -14   1    1.26    1.65
 -14  10   1    4.17    1.81
  10  14   1   -1.16    1.13
 -11 -14  -1    7.80    1.98
 -14  11  -1   13.26    2.29
  14 -11  -1   13.61    2.62
 -14 -11   1   11.93    2.38
  11  14  -1   14.16    2.50
 -11  14   1   16.16    2.50
  11 -14   1   16.16    3.37
  14  11   1   14.52    2.60
 -11 -14   1   20.77    2.92
  11 -14  -1   10.58    2.51
  14 -11   1   14.00    3.10
 -11  14  -1   14.25    2.21
 -14 -11  -1   12.95    2.14
  11  14   1   12.67    2.68
 -14  11   1   15.41    2.60
  14  11  -1   11.33    2.29
  12 -14   1   12.40    3.44
 -12 -14  -1   12.11    2.19
 -12  14   1   13.32    2.59
  14 -12  -1    9.47    2.31
 -14 -12   1   16.64    2.78
  12  14  -1   11.80    2.25
  14  12   1   16.41    2.81
 -14  12  -1    8.17    1.98
  12  14   1   15.86    2.90
  14  12  -1   11.97    2.37
  12 -14  -1   10.97    2.44
 -12  14  -1    7.77    1.97
  14 -12   1   14.44    3.32
 -14  12   1   12.96    2.87
 -14 -12  -1   12.89    2.29
 -12 -14   1   15.47    2.86
 -15   0  -1    5.18    1.30
   0  15   1    5.81    1.36
  15   0  -1    7.23    1.48
 -15   0   1    5.40    1.49
   0  15  -1    7.47    1.27
   0 -15   1    6.93    1.56
   0 -15  -1    6.11    1.36
  15   0   1    6.29    1.59
   0 -15  -1    7.91    1.58
   1  15  -1   25.62    1.99
 -15   1  -1   27.78    2.22
  15  -1  -1   23.14    2.18
   1  15  -1   26.16    2.18
  -1  15   1   27.44    2.27
  15   1   1   28.17    2.60
   1 -15   1   26.56    2.65
  -1 -15  -1   27.38    2.11
 -15  -1   1   21.85    2.45
 -15   1   1   25.17    2.37
  15   1  -1   25.09    2.28
   1 -15  -1   26.41    2.25
   1 -15  -1   22.71    2.06
   1  15   1   25.97    2.23
 -15  -1  -1   23.13    2.13
  15  -1   1   25.76    2.65
  -1  15  -1   22.45    1.93
  -1 -15   1   22.36    2.44
 -15   2  -1    5.45    1.33
  15  -2  -1    5.86    1.53
  -2  15   1    5.96    1.47
   2  15  -1    4.99    1.20
  15   2   1    7.77    1.74
 -15  -2   1    7.71    1.71
  -2 -15  -1    5.36    1.23
   2 -15   1    4.74    1.64
  15  -2  -1    3.75    1.19
 -15  -2  -1    6.32    1.44
  -2 -15   1    5.24    1.40
 -15   2   1    7.65    1.70
   2 -15  -1    5.87    1.21
   2  15   1    5.42    1.45
  15   2  -1    4.87    1.35
  -2  15  -1    6.16    1.29
 -15  -2  -1    5.14    1.28
  15  -2   1    6.13    1.68
   2 -15  -1    5.39    1.47
 -15   3  -1   25.72    2.24
   3  15  -1   22.31    2.08
  -3  15   1   25.85    2.25
  15   3   1   26.82    2.64
   3 -15   1   22.27    2.77
  -3 -15  -1   25.72    2.20
  15  -3  -1   26.04    2.50
 -15  -3   1   24.41    2.45
   3 -15  -1   22.54    2.46
 -15   3   1   22.65    2.43
  15  -3   1   21.22    2.36
   3  15   1   23.19    2.30
   3 -15  -1   26.22    2.10
 -15  -3  -1   28.01    2.38
 -15  -3  -1   19.71    2.22
  -3  15  -1   24.65    2.20
  15   3  -1   26.07    2.35
  -3 -15   1   23.30    2.43
   4  15  -1   30.52    2.36
  15  -4  -1   31.10    2.76
 -15  -4   1   29.90    2.69
  -4 -15  -1   29.65    2.40
 -15   4  -1   30.07    2.56
  -4  15   1   25.37    2.31
   4 -15   1   29.64    3.13
  15   4   1   29.13    2.76
  15  -4   1   22.22    2.47
   4 -15  -1   31.35    2.87
 -15  -4  -1   23.49    2.30
  -4 -15   1   29.84    2.66
 -15   4   1   31.05    2.67
  15   4  -1   29.13    2.74
   4  15   1   30.32    2.42
 -15  -4  -1   31.15    2.40
  -4  15  -1   29.17    2.45
   5 -15   1   15.83    2.46
  -5  15   1    9.94    1.75
 -15  -5   1   12.39    2.07
   5  15  -1    9.72    1.59
  15   5   1   15.23    2.26
  -5 -15  -1    8.92    1.60
  15  -5  -1   14.28    2.03
 -15   5  -1    8.65    1.72
 -15  -5  -1   10.81    1.75
 -15  -5  -1   10.18    1.90
  -5  15  -1    9.09    1.63
   5  15   1    9.97    1.79
 -15   5   1   12.43    1.80
  15   5  -1   11.06    2.04
  -5 -15   1   15.14    2.59
  15  -5   1    8.82    1.72
   5 -15  -1   10.18    1.92
  -6  15   1   26.80    2.53
  15   6   1   22.58    2.64
  15  -6  -1   23.44    2.75
   6  15  -1   29.59    2.55
 -15  -6   1   28.49    2.84
   6 -15   1   31.23    3.56
  -6 -15  -1   30.47    2.43
 -15   6  -1   29.11    2.44
  15  -6   1   24.51    2.64
 -15  -6  -1   31.78    2.62
  -6  15  -1   26.38    2.31
  -6 -15   1   28.30    3.13
   6  15   1   26.85    2.46
   6 -15  -1   21.07    2.67
  15   6  -1   34.91    2.90
 -15  -6  -1   30.90    2.66
 -15  -7   1    3.12    1.49
 -15   7  -1    4.84    1.60
   7 -15   1    6.68    2.20
   7  15  -1    9.01    1.82
  -7  15   1    7.57    1.72
  15  -7  -1    7.44    1.90
  15   7   1    9.08    2.09
  -7 -15  -1    8.90    1.75
  15   7  -1    8.03    1.88
 -15  -7  -1    7.71    1.73
  15  -7   1    7.97    1.98
   7  15   1    5.02    1.50
  -7 -15   1   12.28    2.53
   7 -15  -1    6.83    2.13
  -7  15  -1    9.13    1.76
 -15  -7  -1    3.64    1.50
 -15  -8   1   31.84    3.04
   8 -15   1   37.37    4.03
   8  15  -1   38.38    2.94
  -8 -15  -1   34.11    2.83
  -8  15   1   36.20    3.08
  15  -8  -1   34.08    3.29
  15   8   1   38.71    3.46
 -15   8  -1   35.02    2.84
 -15   8   1   34.71    3.28
  -8 -15   1   37.37    3.52
  15  -8   1   44.80    4.38
  -8  15  -1   32.85    2.96
   8 -15  -1   34.82    3.61
   8  15   1   33.24    2.78
  15   8  -1   40.79    3.51
 -15  -8  -1   39.17    3.23
  -9 -15  -1    4.59    1.70
  15   9   1    5.07    1.92
   9  15  -1    2.60    1.68
  15  -9  -1    6.54    1.99
  -9  15   1    1.00    1.48
 -15  -9   1    1.22    1.54
 -15   9  -1    0.91    1.36
   9 -15   1    4.31    2.51
  -9 -15   1    4.69    2.11
  15  -9   1    3.89    2.25
 -15  -9  -1    2.23    1.53
  15   9  -1    4.09    1.76
 -15   9   1    4.46    1.84
   9  15   1    1.79    1.26
  -9  15  -1    4.32    1.56
   9 -15  -1    4.24    2.05
 -15  10  -1   14.01    2.23
 -10 -15  -1   13.28    2.12
  10  15  -1   16.61    2.46
  15 -10  -1   22.18    2.83
  10 -15   1   18.80    3.70
  15  10   1   23.64    3.06
 -10  15   1   15.77    2.53
 -15 -10   1   19.50    2.64
 -15  10   1   17.02    2.76
  15  10  -1   14.34    2.56
 -10  15  -1   12.55    2.16
 -15 -10  -1   16.96    2.40
  15 -10   1   24.31    3.93
  10 -15  -1   17.25    3.04
 -10 -15   1   20.36    3.03
  15  11   1   10.54    2.41
 -11  15   1    9.62    2.26
  15 -11  -1   10.93    2.49
  11 -15   1   11.84    3.69
  11  15  -1   12.01    2.28
 -15  11  -1    7.18    1.99
 -15 -11   1   11.11    2.63
 -11 -15  -1    7.96    2.17
  15  11  -1    9.60    2.42
 -11 -15   1   13.75    2.91
 -15  11   1   10.69    2.45
  15 -11   1   12.62    2.98
  11 -15  -1   10.04    2.87
 -11  15  -1    7.67    2.31
 -15 -11  -1   13.11    2.26
   0 -16  -1   14.51    1.75
   0  16  -1   14.93    1.85
 -16   0  -1   15.52    2.03
   0 -16   1   13.91    2.10
 -16   0   1   15.85    2.33
  16   0   1   16.25    2.19
  16   0  -1   14.03    2.00
   0  16   1   11.54    1.90
 -16  -1   1    0.46    1.10
   1  16  -1    0.05    0.95
  16  -1  -1    1.21    1.15
 -16   1  -1   -0.09    0.98
  16   1   1    0.39    1.20
  -1  16   1    0.15    1.20
  -1 -16  -1    1.36    1.22
   1 -16   1    0.41    1.29
   1  16   1   -0.90    1.17
   1 -16  -1   -1.62    0.96
 -16   1   1    1.07    1.21
  16   1  -1    1.27    1.15
 -16  -1  -1    1.19    1.04
  -1  16  -1    1.27    1.12
  16  -1   1    3.73    1.43
  -1 -16   1    1.48    1.22
   1 -16  -1    1.40    1.24
 -16   2  -1   55.72    3.42
  -2  16   1   53.24    3.39
  -2 -16  -1   55.54    3.25
   2 -16   1   51.77    3.88
 -16  -2   1   57.14    3.78
  16   2   1   53.05    3.85
   2 -16  -1   48.80    3.14
 -16   2   1   64.13    3.85
  16   2  -1   56.94    3.67
  -2  16  -1   57.57    3.28
  16  -2   1   57.64    3.91
   2 -16  -1   54.39    3.58
 -16  -2  -1   54.76    3.40
  -2 -16   1   51.32    3.70
   2  16   1   53.82    3.34
  -3 -16  -1    6.00    1.47
  16   3   1    6.53    1.81
  -3  16   1    4.05    1.43
 -16   3  -1    5.99    1.44
   3 -16   1    7.14    1.91
 -16  -3   1    4.49    1.49
  -3 -16   1    5.24    1.60
   3 -16  -1    3.98    1.54
  16  -3   1    6.68    1.69
  -3  16  -1    7.36    1.43
  16   3  -1    3.73    1.49
 -16   3   1    3.62    1.31
 -16  -3  -1    5.91    1.51
 -16  -3  -1    3.06    1.28
   3  16   1    6.68    1.50
 -16   4  -1    2.70    1.30
   4 -16   1    2.79    1.65
  -4 -16  -1    5.26    1.49
  -4  16   1    2.75    1.36
   4  16  -1    3.48    1.39
  16  -4  -1    2.09    1.41
  16   4   1    4.14    1.57
 -16  -4   1    1.56    1.29
   4 -16  -1    2.16    1.46
  -4  16  -1    2.50    1.21
  16  -4   1    3.31    1.66
 -16  -4  -1    4.05    1.40
 -16  -4  -1    2.67    1.29
 -16   4   1    3.20    1.39
  16   4  -1    1.59    1.41
   4  16   1    5.28    1.48
  16  -5  -1   29.54    2.94
   5  16  -1   22.10    2.39
  16   5   1   30.84    3.05
   5 -16   1   26.36    3.05
 -16  -5   1   25.83    2.66
  -5  16   1   27.72    2.50
 -16   5  -1   28.88    2.67
  -5 -16  -1   24.32    2.28
   5 -16  -1   30.67    3.09
 -16  -5  -1   27.75    2.70
  16   5  -1   25.62    2.60
  16  -5   1   19.78    2.58
 -16  -5  -1   21.28    2.39
   5  16   1   28.42    2.49
  -5  16  -1   29.29    2.64
 -16  -6   1    9.43    1.95
  -6  16   1    5.06    1.62
 -16   6  -1    5.98    1.58
  16  -6  -1    7.57    1.70
   6  16  -1    6.86    1.68
   6 -16   1   12.45    2.54
  16   6   1    8.16    1.96
  -6 -16  -1    5.16    1.58
  16  -6   1    6.87    1.84
   6  16   1    7.23    1.70
  -6  16  -1   10.76    1.90
 -16  -6  -1    6.52    1.68
  16   6  -1    6.68    1.94
  -6 -16   1    8.67    2.69
   6 -16  -1    8.02    2.07
 -16  -7   1    8.74    2.06
  -7  16   1    5.02    1.65
   7 -16   1    4.95    2.24
 -16   7  -1    7.77    1.69
  16   7   1    6.11    1.96
   7  16  -1    6.78    1.76
  16  -7  -1    8.55    2.00
  -7 -16  -1    7.04    1.69
   7  16   1    4.92    1.48
 -16  -7  -1    4.69    1.61
  16   7  -1    8.94    2.01
   7 -16  -1    8.85    2.23
  -7  16  -1    6.59    1.64
  -7 -16   1   10.16    2.46
 -16   8  -1    2.36    1.39
   8 -16   1    0.53    1.96
   8  16  -1    0.76    1.55
  16  -8  -1    3.43    1.78
  -8 -16  -1    1.52    1.34
  16   8   1    2.02    1.79
  -8  16   1    2.25    1.53
 -16  -8   1    2.49    1.69
 -16  -8  -1    1.26    1.46
  16   8  -1    2.52    1.72
  -8 -16   1    5.11    2.15
  -8  16  -1    1.11    1.35
   8 -16  -1    2.67    1.99
   8  16   1   -0.68    1.28
 -16   9  -1   28.15    2.82
  -9 -16  -1   28.67    2.81
   9  16  -1   28.85    3.15
 -16  -9   1   34.12    3.23
  -9  16   1   26.59    2.96
  16   9   1   36.11    3.46
  16  -9  -1   31.26    3.23
   9 -16   1   28.34    4.29
 -16  -9  -1   26.20    2.89
  -9  16  -1   28.61    2.89
  16   9  -1   31.58    3.40
   9 -16  -1   31.09    3.52
  -9 -16   1   32.04    3.57
  17   0   1    6.72    1.73
   0  17  -1    4.52    1.27
 -17   0  -1   11.09    1.80
  17   0  -1    3.63    1.29
   0  17   1    5.28    1.63
   0 -17  -1    4.95    1.46
   0 -17   1    3.15    1.63
 -17   0   1    5.13    1.69
  17   1   1   40.25    3.21
   1 -17   1   37.05    3.18
 -17  -1   1   40.35    3.31
  -1 -17  -1   37.86    2.84
  -1  17   1   37.79    2.89
 -17   1  -1   37.36    2.89
   1 -17  -1   35.91    2.80
 -17   1   1   38.65    3.19
  17   1  -1   35.20    2.88
  -1 -17   1   36.77    3.26
 -17  -1  -1   39.55    2.88
   1  17   1   37.55    3.06
  17  -1   1   32.13    2.97
  -1  17  -1   40.96    2.81
   2 -17   1   11.35    2.21
 -17   2  -1    6.24    1.50
  -2 -17  -1    4.95    1.49
  17   2   1    8.94    1.93
 -17  -2   1    5.83    1.58
  -2  17   1   10.55    1.84
   2  17   1    2.92    1.53
  -2 -17   1    9.49    1.91
  17  -2   1    6.39    1.85
 -17   2   1    9.25    1.82
   2 -17  -1    9.15    1.85
  -2  17  -1   10.64    1.72
 -17  -2  -1   10.22    1.78
  17   2  -1    9.54    1.85
  17   3   1   21.19    2.59
 -17  -3   1   20.03    2.45
   3 -17   1   27.62    3.16
 -17   3  -1   22.62    2.26
  -3  17   1   24.36    2.42
  -3 -17  -1   20.53    2.19
 -17  -3  -1   24.51    2.45
  -3  17  -1   22.29    2.20
 -17   3   1   21.03    2.57
   3 -17  -1   24.01    2.77
   3  17   1   16.43    2.16
  17  -3   1   22.77    2.79
  17   3  -1   27.32    2.72
  17   4   1   12.79    2.31
   4 -17   1   11.18    2.34
 -17  -4   1    9.98    2.02
 -17   4  -1   10.05    1.76
  -4 -17  -1   13.00    1.91
  -4  17   1   12.43    2.18
   4 -17  -1    8.01    2.10
  17   4  -1    8.46    1.88
  -4  17  -1    7.59    1.55
  17  -4   1    5.98    1.98
 -17  -4  -1   13.03    2.02
   4  17   1   12.13    1.93
  -5  17   1   10.53    2.02
  17  -5  -1    6.01    1.87
 -17  -5   1   10.41    2.05
 -17   5  -1    8.76    1.72
  17   5   1    9.44    2.22
   5 -17   1    7.57    2.22
  -5 -17  -1    8.58    1.70
  17   5  -1    9.62    1.94
   5 -17  -1   10.01    2.21
 -17  -5  -1    8.13    1.87
   5  17   1    7.86    1.75
  17  -5   1   10.02    2.02
  -5  17  -1    6.49    1.60
 -17   6  -1   23.59    2.47
  17  -6  -1   26.40    2.86
 -17  -6   1   19.56    2.72
  17   6   1   22.44    2.71
  -6  17   1   21.86    2.53
   6 -17   1   20.67    3.08
  -6 -17  -1   15.47    2.17
  17   6  -1   13.48    2.34
  -6  17  -1   28.26    2.57
   6  17   1   17.14    2.26
   6 -17  -1   17.92    3.02
 -17  -6  -1   15.07    2.40
  -7 -17  -1    3.65    1.51
  17   7   1    0.76    1.66
 -17  -7   1   -0.33    1.42
  17  -7  -1   -1.61    1.43
  -7  17   1    0.54    1.65
   7  17  -1    1.94    1.48
 -17   7  -1   -1.44    1.17
   7 -17   1    1.32    1.95
   7 -17  -1   -0.56    1.57
   7  17   1    0.90    1.23
  -7  17  -1    0.03    1.36
 -17  -7  -1    1.21    1.63
  17   7  -1    0.50    1.64
   0  18   1   27.25    2.69
 -18   0   1   32.61    3.03
   0 -18   1   27.79    3.05
 -18   0  -1   29.75    2.54
  18   0  -1   27.73    2.59
  18   0   1   25.20    2.77
  -1  18   1    0.79    1.27
  18   1   1    2.55    1.57
  -1 -18  -1    0.70    1.26
 -18  -1   1    1.02    1.49
   1 -18   1    0.49    1.61
 -18   1  -1    0.04    1.23
   1  18   1    3.77    1.69
  -1 -18   1    1.93    1.55
 -18  -1  -1    1.86    1.32
  18  -1   1    0.67    1.49
  -1  18  -1    2.72    1.26
  18   1  -1    3.08    1.49
 -18   1   1    0.85    1.41
  -2 -18  -1   -0.05    1.34
   2 -18   1    2.74    1.71
 -18   2  -1    3.73    1.55
  -2  18   1   -0.22    1.22
 -18  -2   1    2.00    1.54
  18   2   1    0.90    1.54
  18   2  -1    0.08    1.31
   2  18   1    4.73    1.71
 -18   2   1    2.83    1.53
  -2  18  -1    0.02    1.26
  18  -2   1    2.09    1.51
 -18  -3   1   11.76    2.10
  -3 -18  -1   11.89    2.00
   3 -18   1   14.69    2.62
  -3  18   1    9.94    1.96
 -18   3  -1   13.66    2.02
  18   3   1   20.60    2.70
   3  18   1   12.72    2.17
   3 -18  -1   11.61    2.18
  -3  18  -1   11.38    1.86
  18  -3   1   10.07    2.17
  18   3  -1   12.23    2.09
   4 -18   1   21.22    2.99
  -4 -18  -1   17.04    2.45
  18   4   1   18.35    2.74
 -18  -4   1   15.97    2.40
  -4  18   1   16.15    2.38
 -18   4  -1   20.14    2.27
  -4  18  -1   17.52    2.44
  18   4  -1   17.75    2.37
   4  18   1   21.21    2.44
   4 -18  -1   12.46    2.44
  18  -4   1   13.06    2.42
   5 -18   1    4.40    2.03
 -18   5  -1    5.64    1.73
  -5 -18  -1    2.53    1.41
 -18  -5   1    3.12    1.56
  18   5  -1    4.10    1.68
   5  18   1    4.80    1.75
 -18  -5  -1    1.00    1.38
  -5  18  -1    5.11    1.56
  18  -5   1    3.66    1.77
   5 -18  -1    2.23    1.71
   0   0   2    6.80    0.68
   0   0   2    6.67    0.71
   0   0   2    6.65    0.88
   0   0   2    5.43    0.70
   0   1   2    8.04    0.71
   0  -1   2    7.49    0.72
   0  -1   2    9.62    1.05
   1   0  -2    6.22    0.68
   0   1   2    7.91    0.98
   1   0   2    7.84    0.96
   1   0   2    5.46    0.73
  -1   0   2    7.34    0.71
  -1   0   2    6.95    0.99
   1   0   2    7.91    0.68
   1   0   2    7.06    0.81
   0   1   2    7.80    0.78
   0  -1   2    8.25    0.70
   0   1  -2   10.15    0.82
  -1   0   2    8.80    0.72
   0   1   2    8.67    0.78
   1   1   2  103.14    4.04
  -1   1   2  100.73    4.73
   1   1   2  102.09    4.08
   1   1   2  100.60    4.66
   1  -1   2  101.92    4.13
  -1   1  -2  101.09    4.08
   1   1  -2   99.49    4.07
  -1  -1   2  104.36    4.09
  -1  -1   2   98.38    3.91
   1   1   2  103.36    4.10
  -1   1   2  103.69    4.11
   1  -1   2   98.40    3.94
   1  -1   2  104.23    4.70
  -1   1   2  101.97    3.95
  -1  -1   2  103.81    4.78
   1  -1  -2  100.07    4.02
  -2   0   2    0.61    0.34
   2   0   2    0.29    0.49
  -2   0   2   -0.49    0.34
   0   2   2    0.41    0.42
   2   0   2    0.13    0.47
   0   2  -2    0.74    0.40
   0  -2   2    0.20    0.32
   0   2  -2    0.01    0.38
   2   0   2    0.71    0.42
   2   0  -2    0.82    0.37
   0   2   2    0.08    0.35
  -2   0   2   -0.03    0.49
   0   2   2    0.38    0.32
   0   2   2   -1.13    0.42
   0  -2   2   -0.30    0.44
   2   0   2    0.03    0.31
   2   1   2   86.58    3.53
  -1   2   2   83.10    3.48
   2  -1  -2   77.21    3.34
   2   1   2   89.03    3.41
   1   2  -2   85.36    3.30
  -2  -1   2   84.75    3.52
  -1   2   2   81.29    3.35
   1  -2   2   83.48    3.28
   1  -2   2   87.26    3.54
  -2  -1   2   81.64    3.24
   2   1   2   84.42    3.94
   1   2  -2   85.64    3.49
   1  -2   2   81.46    3.99
  -2  -1   2   82.33    4.08
   2   1   2   88.44    3.55
  -2   1  -2   86.76    3.59
   2  -1   2   80.54    3.93
   1   2   2   86.45    3.99
  -2   1   2   84.35    4.06
  -1   2  -2   79.12    3.48
  -1  -2   2   84.29    3.44
   1   2   2   88.11    3.51
  -1  -2   2   82.27    4.05
   2   1  -2   81.88    3.41
   2  -1   2   83.72    3.27
  -2   1   2   79.50    3.49
   1   2   2   84.17    3.44
  -2   1   2   81.60    3.28
   1   2   2   83.03    3.44
   2  -1   2   84.38    3.53
   2  -2  -2  576.10   23.10
   2  -2   2  558.07   22.70
   2   2   2  564.69   22.87
  -2  -2   2  585.50   20.56
  -2   2   2  563.46   20.32
  -2   2   2  549.93   19.53
   2  -2  -2  558.62   20.47
   2  -2   2  569.54   20.49
   2   2   2  584.59   20.46
   2   2  -2  548.65   19.40
   2   2   2  590.25   20.67
  -2   2  -2  524.29   20.01
   2   2  -2  560.50   20.38
  -2  -2   2  560.10   23.07
   2   2   2  556.30   20.00
   2  -2   2  564.75   19.99
   0  -3   2  143.38    5.39
   0  -3  -2  135.03    6.29
   0   3  -2  144.65    5.34
   0   3   2  146.36    5.58
   0   3   2  141.77    5.41
   0   3   2  143.19    5.45
  -3   0   2  136.39    6.38
   0  -3   2  135.03    6.32
  -3   0   2  146.07    5.20
  -3   0   2  134.20    5.60
   3   0  -2  138.26    5.46
  -3   0  -2  146.60    5.36
   0   3  -2  144.12    5.63
   3   0   2  143.92    6.22
   3   0   2  144.26    5.65
   3   1   2  139.80    5.32
   3   1   2  132.34    5.33
   1   3  -2  155.07    5.43
   1   3  -2  140.48    5.77
   1  -3   2  150.22    5.52
   3   1   2  135.80    5.86
  -1   3   2  151.26    5.80
  -1   3   2  145.55    5.56
  -3   1  -2  141.71    5.40
  -3  -1   2  129.22    5.34
   1  -3   2  152.51    5.86
   3  -1  -2  133.07    5.12
   1  -3   2  149.42    6.58
  -1   3   2  148.92    5.60
  -1  -3  -2  141.46    6.45
  -3  -1   2  131.00    6.05
  -3  -1   2  134.79    4.85
   1   3   2  129.87    5.17
  -1  -3   2  131.89    5.18
  -3  -1  -2  145.22    5.60
   3  -1   2  148.54    6.48
   3  -1   2  142.49    5.85
   1   3   2  133.74    5.25
   3   1  -2  142.69    5.70
  -3   1   2  149.32    5.85
   1  -3  -2  135.14    6.07
   1   3   2  132.41    5.20
  -1   3  -2  133.77    5.16
  -3   1   2  147.04    5.42
  -1  -3   2  127.59    6.02
   2  -3   2   60.62    3.12
   3  -2  -2   60.00    3.17
   2  -3   2   56.57    2.32
  -2   3   2   63.22    2.73
  -2   3   2   56.23    2.52
   3   2   2   55.22    2.81
   3  -2  -2   57.18    2.38
  -2  -3  -2   54.03    2.90
   3   2   2   57.79    2.67
  -3   2  -2   58.49    2.76
   2   3  -2   59.07    2.27
   2   3  -2   59.07    2.65
   2  -3   2   58.89    2.74
  -3  -2   2   55.97    3.07
  -3  -2   2   59.41    2.71
   3   2   2   58.04    2.62
  -2  -3   2   54.47    2.59
   2   3   2   54.76    2.63
  -3  -2  -2   57.71    2.52
  -3   2   2   56.23    2.70
   3  -2   2   57.24    2.72
   2  -3  -2   58.27    3.12
   3  -2   2   59.32    3.03
  -2  -3   2   54.88    3.02
   3   2  -2   57.42    2.58
   2   3   2   58.23    2.54
   2  -3  -2   57.38    2.33
   3   2  -2   63.28    2.26
  -3   2   2   58.36    2.45
  -2   3  -2   60.46    2.69
  -3  -3  -2  260.73    9.45
   3   3   2  285.04   10.57
  -3   3  -2  271.42   10.35
  -3   3   2  255.14    9.64
  -3   3   2  252.09    9.16
   3   3   2  272.22   10.31
   3  -3   2  260.39    9.71
  -3  -3   2  291.28   10.62
   3   3  -2  251.01    9.56
   3  -3  -2  285.06   10.25
  -3  -3   2  279.23   11.88
   3   3  -2  249.47    8.77
   3  -3   2  247.10    9.13
   3  -3  -2  277.84   11.97
   3  -3   2  253.67   10.76
   0   4   2    6.71    0.88
   4   0   2    7.19    0.85
  -4   0  -2    9.30    1.03
   4   0  -2    8.65    0.74
   4   0   2    7.96    0.97
  -4   0   2    7.04    0.95
  -4   0   2    6.87    1.05
   0   4  -2    8.46    0.84
   0   4  -2    8.31    0.76
   0   4   2    8.69    0.67
  -4   0  -2    8.09    0.69
   0  -4  -2    6.63    1.07
   0   4   2    8.01    0.84
  -4   0   2    8.61    0.63
   0  -4   2    7.38    0.67
   0  -4   2    6.52    0.99
  -1   4   2   12.21    0.75
   1   4  -2   12.10    1.05
   1  -4   2   13.04    0.79
   1  -4   2   13.56    1.32
   4  -1  -2   11.54    0.85
   4   1   2   14.06    1.13
  -4  -1   2   11.89    1.31
   4  -1  -2   11.13    1.25
   4   1   2   12.75    1.21
  -1   4   2   10.77    0.99
  -1  -4  -2   12.13    1.21
  -4  -1   2   12.99    1.11
  -1   4   2   13.01    1.01
   1   4  -2   14.36    0.81
   4   1   2   12.42    1.08
  -4  -1   2   10.70    0.67
  -4   1  -2   14.67    1.31
  -4   1  -2   13.42    0.79
  -1  -4   2   12.33    1.24
  -4   1   2   12.39    1.10
  -1   4  -2   12.09    1.07
  -1   4  -2   13.17    0.98
   1   4   2   12.11    1.03
   4   1  -2   11.80    0.92
   4  -1   2   12.66    1.07
  -1  -4   2   12.83    0.95
  -4   1   2   12.93    0.84
   4  -1   2   12.41    1.16
   1  -4  -2   11.41    1.34
  -4  -1  -2   11.43    0.86
   1   4   2   11.39    0.96
   1   4   2   13.65    0.87
   2   4  -2   23.37    1.05
   4   2   2   16.69    1.21
   2  -4   2   23.53    1.47
   4   2   2   16.70    1.31
  -4   2  -2   16.67    0.87
   4  -2  -2   18.41    1.57
  -4  -2   2   17.28    1.54
   4   2   2   17.73    1.23
   4  -2  -2   16.14    0.95
   2  -4   2   26.73    1.78
  -2  -4  -2   24.81    1.43
  -4  -2   2   18.82    1.39
  -2   4   2   23.85    1.47
   2   4  -2   24.20    1.41
  -4   2  -2   17.44    1.39
  -2  -4  -2   22.76    1.59
  -2   4   2   21.66    1.36
   2  -4   2   22.04    1.07
   4  -2   2   24.87    1.68
   2  -4  -2   18.41    1.64
   2  -4  -2   16.56    0.88
   2   4   2   17.18    1.09
  -2  -4   2   14.45    1.44
   4  -2   2   22.82    1.49
  -4   2   2   22.65    1.23
  -4   2   2   25.04    1.59
  -4  -2  -2   22.21    1.29
  -2  -4   2   16.28    1.18
  -2   4  -2   18.00    1.25
   2   4   2   19.18    1.35
   4   3   2   62.35    3.06
  -3   4   2   66.51    3.09
  -4   3  -2   64.85    3.08
  -4  -3   2   71.42    3.18
   3  -4   2   66.80    3.10
   3  -4   2   76.24    2.56
   3   4  -2   64.91    2.99
  -3  -4  -2   63.00    3.24
  -4   3  -2   65.33    2.47
   4   3   2   65.05    3.01
   4  -3  -2   62.76    2.59
  -4  -3   2   66.01    3.42
  -3   4   2   64.49    2.90
   3  -4   2   69.11    3.57
   4   3   2   65.87    3.01
  -3  -4  -2   67.10    2.94
   4  -3  -2   66.17    3.56
   3   4  -2   69.06    2.45
   3   4   2   60.13    2.92
   4  -3   2   62.95    3.09
   4  -3   2   65.23    3.49
  -4   3   2   71.33    3.16
  -3   4  -2   66.63    2.98
  -3  -4   2   68.88    3.08
   3  -4  -2   69.39    3.61
  -4  -3  -2   68.69    2.91
  -3  -4   2   59.49    3.35
   3   4   2   62.49    2.88
  -4   3   2   67.11    2.84
  -4  -4   2   77.75    4.09
   4  -4   2   88.00    4.31
   4   4   2   81.69    3.65
   4  -4   2   84.09    3.78
  -4  -4   2   85.99    3.86
  -4  -4  -2   82.43    3.86
  -4   4  -2   83.03    3.66
   4  -4  -2   81.49    4.32
  -4   4   2   86.42    3.52
   4   4   2   83.52    3.66
   4  -4  -2   83.01    3.16
  -4   4   2   82.11    3.77
  -4  -4  -2   87.91    3.60
   0   5  -2   46.59    2.02
   0   5  -2   42.97    2.27
  -5   0  -2   50.01    2.55
  -5   0   2   44.21    2.43
   5   0   2   45.42    2.41
   0  -5   2   46.39    2.70
   0   5   2   49.19    2.31
  -5   0   2   50.44    1.91
   0   5   2   45.93    2.31
   0  -5  -2   46.61    2.76
   5   0  -2   47.39    2.13
  -5   0  -2   47.16    2.02
   5   0   2   47.83    2.48
   0  -5   2   47.43    2.08
   0   5   2   44.25    1.99
   1  -5   2   11.54    1.32
   1   5  -2   10.95    0.73
  -5   1  -2    8.92    0.66
   5  -1  -2    9.52    1.24
   5   1   2    9.81    1.10
  -5  -1   2   10.68    1.29
  -1  -5  -2   11.99    1.34
   1   5  -2   10.45    0.98
   5   1   2    8.50    0.95
   5   1   2    9.59    1.01
  -1   5   2    9.55    1.00
   1  -5   2    9.98    0.70
  -1   5   2   10.85    0.98
   5  -1  -2   10.05    0.83
  -5   1  -2    9.91    1.23
  -1   5   2   10.53    0.67
  -5  -1   2    9.89    1.12
  -1   5  -2    7.53    0.81
  -5   1   2   11.20    1.10
   5  -1   2   10.66    1.12
  -1  -5   2    9.59    0.87
  -1  -5   2    9.69    1.23
   1  -5  -2    7.82    1.31
  -1   5  -2   11.35    1.01
   5  -1   2   12.20    1.14
  -5  -1  -2   11.19    0.83
   1   5   2    9.00    0.75
   1   5   2    9.55    0.98
  -5   1   2   10.81    0.76
   5   1  -2   11.17    0.88
  -5   2  -2   22.08    1.06
   2  -5   2   19.93    1.65
   2   5  -2   18.09    1.36
   5  -2  -2   22.10    1.87
  -2   5   2   20.95    1.41
   2  -5   2   19.71    1.38
   5   2   2   22.66    1.58
  -5  -2   2   22.28    1.68
  -5  -2   2   21.60    1.71
   2  -5   2   20.73    0.96
  -2   5   2   22.86    1.38
   5  -2  -2   21.42    1.17
  -5   2  -2   22.01    1.64
   5   2   2   22.05    1.42
   2   5  -2   21.00    0.97
  -2  -5  -2   20.14    1.31
  -2  -5  -2   20.57    1.58
   5   2   2   21.91    1.61
   5   2  -2   21.53    1.32
  -2   5  -2   21.85    1.35
  -5   2   2   20.11    1.16
   2   5   2   21.31    1.28
  -2  -5   2   21.90    1.76
   2  -5  -2   23.15    1.95
  -2  -5   2   22.85    1.46
   5  -2   2   19.95    1.56
  -5   2   2   21.18    1.51
   2   5   2   23.62    1.51
   5  -2   2   19.28    1.47
   2  -5  -2   23.17    1.02
  -5  -2  -2   20.40    1.21
   3  -5   2  140.22    5.66
   3   5  -2  135.35    5.55
   5   3   2  154.89    6.31
  -5  -3   2  160.30    6.47
  -5  -3   2  151.81    6.95
  -3   5   2  133.20    5.37
   5  -3  -2  157.43    5.77
   3  -5   2  141.48    6.43
   5   3   2  146.72    6.08
  -5   3  -2  152.41    5.62
  -5   3  -2  139.65    6.13
   5   3   2  152.99    6.49
   3   5  -2  135.51    4.89
  -3  -5  -2  134.35    6.05
   5  -3  -2  156.19    7.15
  -3   5   2  133.70    5.60
  -3  -5  -2  137.97    5.49
   3   5   2  161.23    6.11
   5  -3   2  143.98    6.35
  -3  -5   2  157.30    6.30
  -5   3   2  140.61    5.25
   3   5   2  154.58    6.09
  -3  -5   2  153.99    6.97
   5  -3   2  132.97    5.67
  -3   5  -2  151.72    5.97
  -5  -3  -2  140.51    5.39
  -5   3   2  136.12    5.69
   3  -5  -2  151.93    7.19
   5   3  -2  143.22    5.51
  -5   4  -2   38.94    2.18
  -4  -5  -2   41.74    2.06
  -4   5   2   38.77    2.06
   4  -5   2   38.76    2.19
  -5  -4   2   37.11    2.41
  -4  -5  -2   43.93    2.21
   4  -5   2   45.89    2.66
   5  -4  -2   35.86    1.62
   4   5  -2   42.94    2.18
   5  -4  -2   38.70    2.64
   5   4   2   38.72    2.17
   5   4   2   37.47    2.19
  -4   5   2   39.74    2.20
  -5  -4   2   37.39    2.34
  -5  -4  -2   41.35    2.05
   4   5   2   41.03    2.17
  -5   4   2   39.71    2.01
   4   5   2   41.17    2.13
  -4   5  -2   36.40    2.06
   5   4  -2   38.40    2.06
   5  -4   2   41.56    2.24
  -5  -4  -2   38.54    2.05
  -5   4   2   40.62    2.24
   4  -5  -2   36.29    2.61
  -4  -5   2   40.80    2.40
   5  -4   2   39.90    2.53
  -4  -5   2   34.62    2.33
   5  -5   2   95.42    4.83
  -5   5  -2   80.44    3.75
  -5   5   2   96.43    3.93
   5   5  -2   91.54    4.01
  -5  -5   2   82.64    4.29
  -5   5   2   95.41    4.19
   5  -5   2   95.90    4.19
   5   5   2   89.60    3.99
  -5  -5  -2   88.24    3.90
   5  -5  -2   73.03    4.49
  -5  -5   2   93.57    4.27
   5   5   2   88.73    3.83
   0   6  -2    2.27    0.67
   6   0  -2    1.98    0.83
   6   0   2    2.51    0.67
  -6   0  -2    2.95    0.52
   0   6   2    3.05    0.72
   0   6   2    1.93    0.60
  -6   0  -2    2.54    0.86
   0   6  -2    2.07    0.48
   0   6   2    2.97    0.44
  -6   0   2    1.95    0.73
   0  -6  -2    3.04    0.93
   6   0  -2    3.15    0.61
   0  -6   2    2.81    0.51
   0  -6   2    3.04    0.83
   6   0   2    1.97    0.72
   6   1   2  193.85    7.86
  -1   6   2  174.64    7.06
  -6   1  -2  185.26    7.38
  -6  -1   2  189.70    8.29
  -6   1  -2  191.82    6.84
   1   6  -2  178.31    7.11
  -6  -1   2  195.35    7.58
  -1  -6  -2  180.39    7.05
   1  -6   2  181.90    8.08
  -1   6   2  178.25    6.91
  -1  -6  -2  177.84    7.93
   6   1   2  181.90    7.46
   1   6  -2  185.00    6.49
   6  -1  -2  189.67    7.02
   6  -1  -2  177.04    8.28
   1  -6   2  176.46    6.68
  -6  -1  -2  179.05    7.14
   6  -1   2  189.83    7.87
   1   6   2  182.77    6.97
   1  -6  -2  173.99    8.26
   6   1  -2  192.45    6.98
  -1  -6   2  182.59    7.12
  -1   6  -2  181.78    6.81
  -1   6  -2  177.87    7.28
  -6  -1  -2  175.96    6.80
  -6   1   2  183.20    6.53
  -6   1   2  182.23    7.30
   1   6   2  188.96    7.15
   6  -1   2  168.88    7.22
  -1  -6   2  179.46    8.20
   2   6  -2   63.77    2.97
  -6   2  -2   64.80    2.51
   6   2   2   65.08    3.00
  -2  -6  -2   62.57    2.90
   2  -6   2   60.95    3.47
  -6  -2   2   65.84    3.28
  -2  -6  -2   64.04    3.26
  -2   6   2   66.41    3.02
   6  -2  -2   67.44    3.60
   2   6  -2   61.36    2.45
   6  -2  -2   62.09    2.65
   6   2   2   67.02    3.15
  -6   2  -2   62.51    3.22
  -6  -2   2   57.55    3.40
  -2   6   2   64.31    2.93
   6   2   2   66.57    3.20
   2   6   2   65.17    2.78
   2   6   2   58.15    2.96
  -6   2   2   65.32    3.17
  -2   6  -2   61.79    3.02
   6   2  -2   62.84    2.84
  -6  -2  -2   66.54    2.78
  -2  -6   2   65.59    3.04
  -6   2   2   63.67    2.65
  -2   6  -2   62.05    2.74
   2  -6  -2   59.06    3.57
   6  -2   2   64.25    3.35
   6  -2   2   61.34    3.10
  -2  -6   2   60.53    3.39
   3  -6   2   80.31    4.29
  -6  -3   2   83.87    4.05
   6  -3  -2   82.35    4.39
  -6  -3   2   82.89    4.16
   6   3   2   80.53    3.86
   3  -6   2   82.27    3.73
  -3  -6  -2   81.65    3.60
   6  -3  -2   78.07    3.25
  -3   6   2   80.11    3.70
  -3   6   2   83.49    3.59
   3   6  -2   81.58    3.66
  -3  -6  -2   84.67    3.90
   6   3   2   77.41    3.70
  -6   3  -2   83.94    3.81
  -3  -6   2   85.37    3.89
  -3  -6   2   79.92    4.13
   3  -6  -2   74.62    4.29
  -6   3   2   79.84    3.80
  -6   3   2   82.32    3.41
   3   6   2   81.42    3.55
   3   6   2   85.81    3.70
  -6  -3  -2   88.55    3.53
   6  -3   2   77.45    3.78
   6  -3   2   89.14    4.29
   6   3  -2   86.51    3.63
  -3   6  -2   83.29    3.48
   4  -6   2   52.70    2.67
   4  -6   2   54.14    3.18
   6   4   2   52.29    2.78
  -6  -4   2   50.36    2.91
  -4  -6  -2   52.26    2.55
  -4   6   2   53.28    2.60
   6  -4  -2   48.31    3.17
   4   6  -2   46.83    2.57
  -6  -4   2   50.83    2.91
  -4   6   2   55.29    2.69
   6   4   2   48.79    2.57
  -6   4  -2   45.57    2.57
   6  -4   2   52.96    3.16
   6   4  -2   51.27    2.57
  -4  -6   2   46.02    2.81
   4   6   2   49.40    2.53
  -4  -6   2   48.22    2.79
  -6   4   2   53.13    2.73
   4  -6  -2   46.43    3.13
   4   6   2   46.07    2.52
  -6   4   2   50.49    2.43
  -6  -4  -2   52.12    2.45
  -4   6  -2   47.65    2.43
   6  -4   2   53.24    2.77
   5  -6   2   72.41    3.47
   6  -5  -2   70.42    4.20
   5   6  -2   73.30    3.37
   6   5   2   83.96    3.93
  -5  -6  -2   74.21    3.32
  -5   6   2   71.84    3.46
   5  -6   2   76.14    4.15
   6   5   2   73.24    3.53
  -6  -5   2   80.71    4.03
  -6   5  -2   72.31    3.53
  -5   6   2   71.55    3.33
  -6  -5   2   66.93    3.94
   5  -6  -2   80.15    4.37
  -6   5   2   71.65    3.27
   5   6   2   76.64    3.72
  -6  -5  -2   72.65    3.28
   5   6   2   73.27    3.49
   6  -5   2   76.01    4.17
   6  -5   2   77.14    3.58
   6   5  -2   75.38    3.40
  -5   6  -2   79.88    3.53
  -5  -6   2   65.91    3.88
  -5  -6   2   77.52    3.97
  -6   5   2   72.40    3.51
  -6   6  -2    1.14    0.74
   6  -6   2    1.60    0.97
  -6   6   2    2.21    0.77
  -6  -6   2    1.13    0.83
   6  -6   2    1.51    0.81
   6   6   2    3.38    1.13
   6  -6  -2    0.20    1.00
  -6   6   2   -0.47    0.68
  -6  -6   2    1.73    1.05
  -6  -6  -2    1.60    0.67
   6   6  -2    0.34    0.65
   6   6   2    0.98    0.72
  -7   0   2  420.46   16.27
   7   0  -2  454.46   15.85
   7   0   2  438.62   17.58
   0  -7  -2  431.81   17.80
   7   0  -2  421.65   17.93
   7   0   2  434.35   16.32
   0  -7   2  446.02   15.69
   0   7  -2  431.53   15.09
   0   7  -2  423.60   16.04
   0  -7   2  404.46   17.89
   0   7   2  413.99   15.50
  -7   0  -2  440.46   15.57
  -7   0  -2  422.70   15.79
  -1  -7  -2   10.60    1.11
  -7   1  -2   13.87    0.91
  -7  -1   2   14.76    1.50
   7  -1  -2   15.31    1.05
  -7   1  -2   12.79    1.47
   7  -1  -2   12.22    1.50
   1  -7   2   13.66    1.49
   1   7  -2   14.15    0.91
   7   1   2   14.07    1.16
   7   1   2   13.32    1.41
   1   7  -2   14.19    1.17
  -1  -7  -2   14.25    1.46
  -1   7   2   12.73    1.22
  -1   7   2   14.33    1.21
   1  -7  -2   12.48    1.46
  -1  -7   2   12.70    1.44
   7   1  -2   14.00    1.59
  -7  -1  -2   12.23    1.00
  -7   1   2   13.47    1.49
  -7  -1  -2   12.25    1.37
   7   1  -2   15.61    1.17
   1   7   2   13.51    0.93
   7  -1   2   12.73    1.29
  -1   7  -2   13.94    1.03
   7  -1   2   12.22    1.31
  -1   7  -2   12.83    1.27
   1   7   2   11.01    1.29
  -1  -7   2   14.57    1.19
   2  -7   2   11.66    1.47
  -7   2  -2   12.10    1.40
   2   7  -2   13.08    0.83
  -7  -2   2   11.08    1.54
   7  -2  -2   10.91    0.94
  -2   7   2   11.87    1.20
  -2   7   2   12.75    1.20
   2   7  -2   13.12    1.18
  -7  -2   2    9.31    1.42
  -2  -7  -2   14.68    1.34
   7  -2  -2   11.83    1.61
  -2  -7  -2   12.74    1.16
   7   2   2   11.99    1.47
  -2   7  -2   11.03    1.04
   7   2  -2   15.19    1.14
  -7   2   2   13.03    1.01
   2   7   2   13.88    1.27
  -2  -7   2   12.26    1.33
   2   7   2   11.39    0.95
  -2   7  -2   12.00    1.24
   7  -2   2   14.14    1.43
  -7   2   2   11.34    1.30
  -7  -2  -2   12.77    1.02
  -2  -7   2   12.27    1.48
   2  -7  -2   10.97    1.61
   7  -2   2   12.84    1.32
   7  -3  -2    4.98    1.18
   7   3   2    3.82    1.12
  -3  -7  -2    4.51    0.82
  -7  -3   2    4.20    0.99
  -3   7   2    3.14    0.78
   3  -7   2    5.11    1.13
  -7  -3   2    6.78    1.36
  -7   3  -2    3.34    1.04
   7   3   2    3.66    0.92
  -3   7   2    4.98    0.95
   7  -3  -2    5.29    0.76
  -3  -7  -2    5.02    0.81
   3   7  -2    3.71    0.82
   3   7   2    5.50    0.84
  -3  -7   2    5.01    1.02
   3  -7  -2    4.39    1.25
   7  -3   2    5.23    1.05
   7   3  -2    4.87    0.81
  -7   3   2    3.67    0.70
  -7  -3  -2    4.41    0.70
   3   7   2    6.31    1.02
   7  -3   2    3.27    1.03
  -7   3   2    4.43    0.96
  -3   7  -2    5.95    0.89
  -3  -7   2    6.43    1.16
  -3   7  -2    3.89    0.85
   7   4   2  186.63    7.61
  -4   7   2  182.55    7.20
  -4   7   2  188.11    7.45
  -7  -4   2  174.18    7.95
   4  -7   2  183.84    7.47
   7   4   2  168.35    7.00
  -7  -4   2  171.59    7.65
   4   7  -2  185.08    7.38
  -7   4  -2  173.14    7.10
   4  -7   2  180.23    8.53
  -4  -7  -2  185.61    7.28
   7  -4  -2  167.18    8.19
   7  -4   2  183.97    7.57
   4  -7  -2  168.18    8.13
  -4  -7   2  172.68    7.53
   7  -4   2  193.57    8.56
  -4  -7   2  180.97    7.97
  -7   4   2  180.78    7.56
   4   7   2  176.35    7.02
   7   4  -2  193.76    7.36
   4   7   2  188.80    7.22
  -4   7  -2  181.63    6.84
  -7  -4  -2  189.59    7.20
  -7   4   2  176.56    7.03
   5  -7   2   20.03    1.64
  -7  -5   2   19.46    1.82
  -5  -7  -2   20.08    1.47
  -7  -5   2   16.33    1.92
   5   7  -2   17.33    1.57
   7   5   2   16.22    1.93
  -5   7   2   20.81    1.57
   7   5   2   19.16    1.71
   5  -7   2   21.65    2.20
  -5   7   2   21.56    1.69
  -7   5  -2   17.47    1.65
   7  -5  -2   20.15    2.07
   7  -5   2   19.46    2.10
   7  -5   2   19.26    1.61
   7   5  -2   20.09    1.51
  -5  -7   2   15.99    1.88
  -7  -5  -2   19.55    1.46
   5   7   2   21.74    1.67
  -5   7  -2   20.86    1.55
   5  -7  -2   19.91    2.02
   5   7   2   22.47    1.85
  -7   5   2   20.38    1.54
  -5  -7   2   22.13    1.80
  -7   5   2   20.15    1.63
  -7   6  -2   10.16    1.47
  -6   7   2   11.58    1.33
  -6  -7  -2   13.29    1.28
  -7  -6   2   10.73    1.38
   7   6   2   10.98    1.65
   6  -7   2   14.64    1.46
   6  -7   2   13.62    1.85
   6   7  -2   12.49    1.29
  -7  -6   2    8.71    1.63
   7  -6  -2   12.27    1.80
   7   6   2    8.72    1.28
  -6   7   2   12.21    1.38
   7  -6   2   13.92    1.87
   6   7   2   12.10    1.74
  -6  -7   2   11.35    1.52
   7   6  -2    9.96    1.36
  -6  -7   2   11.12    1.90
   7  -6   2   12.63    1.39
   6  -7  -2    8.52    1.59
  -7   6   2   14.05    1.42
  -7   6   2   13.77    1.41
   6   7   2   11.22    1.33
  -7  -6  -2   12.72    1.23
  -6   7  -2   12.49    1.32
  -7   7   2    4.79    1.03
   7  -7   2    3.86    0.97
   7  -7  -2    5.49    1.51
   7  -7   2    3.54    1.55
  -7  -7   2    5.38    1.19
  -7   7  -2    3.20    1.05
  -7  -7   2    2.93    1.29
  -7   7   2    6.30    1.18
   7   7   2    4.56    1.36
  -7  -7  -2    4.52    0.97
   7   7   2    1.61    0.90
   7   7  -2    3.71    0.96
   0  -8  -2    0.56    0.58
   0   8  -2    0.44    0.47
   8   0   2    0.46    0.76
  -8   0  -2    0.92    0.49
   0   8  -2    0.59    0.64
   8   0  -2    0.57    0.58
   0   8   2    0.63    0.63
   0  -8  -2    1.18    0.83
   8   0  -2    0.11    0.75
   0  -8   2    0.13    0.72
  -8   0  -2    0.92    0.80
  -8   0   2    0.87    0.74
   8  -1  -2   87.73    3.69
   8   1   2   86.34    4.32
  -8   1  -2   86.78    4.16
   1  -8   2   84.79    4.46
   8  -1  -2   85.01    4.59
  -1   8   2   83.73    3.79
  -8  -1   2   81.83    4.32
  -1   8   2   79.80    3.76
  -1  -8  -2   94.04    4.16
   1   8  -2   83.14    3.30
  -8   1  -2   86.07    3.64
  -1  -8  -2   84.44    3.75
   1   8  -2   82.57    3.78
  -8  -1  -2   87.28    3.53
  -1  -8   2   90.04    3.91
   1   8   2   83.29    3.88
   8   1  -2   82.87    4.36
   8  -1   2   85.73    4.09
  -1   8  -2   85.17    3.92
   1  -8  -2   86.77    4.42
  -8  -1  -2   78.88    3.97
   8   1  -2   81.64    3.64
  -1  -8   2   87.12    4.50
  -8   1   2   77.39    4.08
   8  -1   2   85.88    4.18
  -1   8  -2   90.65    3.54
   8  -2  -2    2.26    0.63
  -2   8   2    3.16    0.80
  -2  -8  -2    2.72    0.76
   8   2   2    1.89    1.03
  -8  -2   2    2.67    1.02
   2   8  -2    2.75    0.77
   8  -2  -2    2.19    1.06
  -8   2  -2    1.55    0.90
   2  -8   2    2.61    1.00
  -2  -8  -2    2.84    0.80
  -2   8   2    2.50    0.82
   8  -2   2    2.42    0.94
   2  -8  -2    1.39    1.03
   2   8   2    2.12    0.80
   8   2  -2    2.56    0.72
  -2  -8   2    0.92    0.80
  -2  -8   2    1.13    0.77
   8  -2   2    1.09    0.79
  -8   2   2    2.72    0.89
  -2   8  -2    2.70    0.78
  -8  -2  -2    2.91    0.66
  -8  -2  -2    3.30    0.99
  -2   8  -2    1.76    0.63
   8   2  -2    3.37    0.99
   3  -8   2   37.56    2.76
  -3   8   2   38.29    2.19
   8  -3  -2   36.71    2.05
  -8  -3   2   44.60    2.92
   8  -3  -2   40.53    2.90
  -3   8   2   36.53    2.22
   3   8  -2   36.54    2.15
  -8   3  -2   31.23    2.30
   8   3   2   39.20    2.72
  -8  -3   2   43.73    2.64
   8   3   2   38.42    2.38
  -3  -8  -2   36.56    2.08
   8  -3   2   37.23    2.64
  -8   3   2   35.07    1.98
  -3  -8   2   37.80    2.62
   3   8   2   38.87    2.35
  -3   8  -2   38.63    2.23
   3  -8  -2   34.30    2.63
  -8   3   2   42.91    2.46
  -3  -8   2   35.13    2.57
   8  -3   2   38.39    2.43
  -3   8  -2   42.56    2.12
  -8  -3  -2   37.26    1.97
   8   3  -2   34.94    2.09
   3   8   2   42.04    2.17
  -8   4  -2   99.14    4.52
  -4   8   2   98.01    4.51
  -4   8   2  101.95    4.58
   4  -8   2  110.69    5.55
  -4  -8  -2  101.53    4.47
   8  -4  -2  102.29    5.27
   8   4   2   92.29    4.40
   8   4   2  104.46    5.05
   4   8  -2  104.10    4.54
  -8  -4   2   89.61    4.90
  -8  -4   2   95.40    4.93
  -8  -4  -2  112.39    4.43
   8  -4   2  100.50    5.41
  -8   4   2  104.20    4.79
   4   8   2   94.31    4.36
   8   4  -2  105.26    4.55
   4   8   2  103.61    4.52
  -4  -8   2  104.71    5.00
   8  -4   2  104.77    4.77
  -4  -8   2   87.78    4.86
  -4   8  -2  103.72    4.23
  -8   4   2  103.33    4.40
   4  -8  -2   95.40    5.10
  -5   8   2   29.89    1.96
   5   8  -2   26.50    1.85
  -5   8   2   26.34    1.90
   8   5   2   27.00    2.51
  -8  -5   2   24.78    2.39
   5  -8   2   30.51    2.02
   5  -8   2   38.99    2.86
  -8  -5   2   32.04    2.20
  -8   5  -2   27.63    2.06
   8   5   2   28.62    2.04
   8  -5  -2   29.49    2.62
  -5  -8  -2   30.31    1.86
  -5  -8   2   27.14    2.12
   5   8   2   31.08    2.05
   8  -5   2   26.06    1.98
   5   8   2   29.97    2.25
  -8  -5  -2   30.29    1.79
  -5  -8   2   20.10    2.34
   8  -5   2   27.80    2.62
   5  -8  -2   27.03    2.54
  -5   8  -2   26.68    1.83
  -8   5   2   28.16    1.90
   8   5  -2   23.85    1.80
  -8   5   2   29.60    2.08
   8   6   2   46.29    2.64
  -8  -6   2   47.04    2.83
   6   8  -2   45.99    2.52
   6  -8   2   44.67    3.46
  -6  -8  -2   43.96    2.53
  -8   6  -2   45.78    2.75
  -6   8   2   48.65    2.65
  -8  -6   2   42.45    3.23
  -6   8   2   47.20    2.60
   6  -8   2   42.91    2.62
   8   6   2   38.12    3.17
   8  -6  -2   44.16    3.25
   6   8   2   46.66    3.13
   8  -6   2   42.15    2.66
   8   6  -2   44.39    2.52
  -8   6   2   49.90    2.76
  -8   6   2   41.32    2.55
  -6  -8   2   34.07    3.08
  -8  -6  -2   45.78    2.42
  -6  -8   2   44.10    2.81
  -6   8  -2   43.25    2.54
   6   8   2   40.86    2.54
   6  -8  -2   46.41    3.27
   8  -6   2   51.19    3.64
  -8  -7   2    1.41    0.90
   8  -7  -2    0.58    1.27
   8   7   2    0.15    0.92
  -8   7  -2    0.76    0.87
   7  -8   2    1.47    1.29
   7   8  -2    0.72    0.84
  -8  -7   2    1.13    1.37
   8   7   2    0.54    1.31
  -7  -8  -2    1.49    0.86
  -7   8   2    0.89    0.87
  -7   8   2    2.76    1.08
   7  -8   2    1.24    0.84
   8  -7   2    0.13    0.89
   7   8   2    3.45    1.48
   8  -7   2    1.42    1.35
   8   7  -2    1.78    0.99
   7   8   2    1.13    0.86
   7  -8  -2   -0.03    1.22
  -8   7   2    0.84    0.79
  -7  -8   2    0.87    0.88
  -8  -7  -2    0.62    0.71
  -8   7   2    0.84    0.92
  -7   8  -2    0.82    0.83
  -7  -8   2    0.88    1.28
  -8   8   2  128.58    5.78
  -8   8  -2  126.93    5.48
   8  -8   2  129.65    5.82
   8   8   2  132.12    5.63
   8  -8  -2  127.99    6.47
  -8  -8  -2  131.19    5.56
  -8  -8   2  125.28    6.54
   8  -8   2  128.76    7.33
  -8   8   2  130.78    5.76
   8   8   2  104.01    6.29
  -8  -8   2  128.37    6.14
   8   8  -2  133.82    5.70
   0  -9  -2   14.81    1.46
  -9   0  -2   12.82    1.70
   0  -9   2   16.76    1.74
  -9   0   2   15.43    1.71
   0   9  -2   15.42    1.12
  -9   0  -2   15.42    1.20
   0   9   2   16.13    1.57
   9   0  -2   13.88    1.65
   0   9  -2   16.42    1.37
   0  -9  -2   14.56    1.56
   9   0  -2   16.78    1.37
   9   0   2   15.35    1.71
  -9  -1   2   30.22    2.39
   1  -9   2   26.28    2.32
  -9   1  -2   28.31    2.19
   1   9  -2   27.18    1.91
   9  -1  -2   29.70    1.80
  -1  -9  -2   27.51    1.96
  -1   9   2   31.00    1.99
   9   1   2   33.03    2.42
   9  -1  -2   31.93    2.49
  -1  -9  -2   29.26    1.86
   1   9  -2   27.13    1.51
   9   1  -2   29.98    1.83
   9   1  -2   26.63    2.17
   9  -1   2   26.63    2.12
  -1  -9   2   29.81    2.31
   1  -9  -2   30.90    2.01
   1   9   2   31.07    2.04
  -9  -1  -2   29.52    1.69
  -1   9  -2   31.33    1.69
  -9  -1  -2   26.59    2.16
  -9   1   2   27.21    2.17
  -1   9  -2   33.05    1.98
   1  -9  -2   26.36    2.20
   9   2   2    0.57    0.97
   9  -2  -2    0.74    0.69
  -2   9   2    1.58    0.76
  -9   2  -2    2.07    1.05
   2   9  -2    2.95    0.81
   2  -9   2    3.60    1.23
  -9  -2   2    0.68    0.91
  -2  -9  -2    1.38    0.71
  -2   9   2   -0.32    0.64
   9  -2  -2    1.54    0.98
  -2  -9  -2    1.87    0.77
  -2   9  -2    1.09    0.62
   9  -2   2    1.51    0.99
  -9   2   2    1.04    0.92
   9   2  -2    0.72    0.84
   9  -2   2    2.52    1.02
  -2   9  -2    1.06    0.80
  -9  -2  -2    1.31    0.63
   2  -9  -2    0.89    1.00
   2   9   2    1.90    0.82
  -9  -2  -2    0.16    0.73
  -2  -9   2    1.06    0.90
  -2  -9   2    0.79    0.94
   9   2  -2    2.59    0.78
   9  -3  -2   18.42    2.01
  -9  -3   2   14.91    1.93
  -3   9   2   13.66    1.42
  -3  -9  -2   14.98    1.36
   3  -9   2   14.57    1.81
   9   3   2   21.24    2.10
   3   9  -2   14.01    1.38
  -3   9   2   11.29    1.41
  -9   3  -2   21.73    1.84
   9  -3   2   12.89    1.66
   3  -9  -2   16.17    1.86
   3   9   2   17.70    1.60
  -9   3   2   13.17    1.54
   9  -3   2   13.23    1.85
   9   3  -2   15.10    1.34
  -3  -9   2   12.80    1.81
  -3  -9   2   17.49    1.86
  -3   9  -2   19.40    1.53
   9   3  -2   12.61    1.52
  -9  -3  -2   12.80    1.25
  -3   9  -2   16.23    1.38
  -9  -3  -2   12.16    1.53
  -4  -9  -2    0.84    0.71
   9  -4  -2    1.84    1.15
  -4   9   2   -0.87    0.72
   4   9  -2    0.58    0.74
   9   4   2   -1.13    0.74
  -9  -4   2    0.10    0.99
  -9  -4   2   -0.44    0.71
  -4   9   2    0.34    0.76
  -9   4  -2    1.67    1.00
   9   4   2   -0.65    0.98
   4  -9   2    1.49    1.12
   9   4  -2    0.57    0.71
  -9  -4  -2    0.91    0.63
   9  -4   2    0.55    1.10
  -9   4   2    0.80    0.80
  -4  -9   2    0.99    1.18
  -4   9  -2   -1.29    0.66
  -4  -9   2    0.88    0.82
   9  -4   2    1.00    0.85
  -4   9  -2    1.01    0.69
   4  -9  -2   -0.74    1.13
   4   9   2   -0.18    0.73
   5   9  -2  170.84    6.86
   9   5   2  162.36    7.61
   9   5   2  162.75    6.70
  -5  -9  -2  159.91    6.72
  -5   9   2  162.56    6.78
   5  -9   2  169.07    8.23
  -5   9   2  164.31    6.85
  -9   5  -2  158.84    6.73
  -9  -5   2  149.88    7.39
   9  -5  -2  158.79    7.77
  -9  -5   2  161.57    7.47
  -9   5   2  164.42    6.71
  -5  -9   2  165.79    7.53
   9  -5   2  159.32    8.24
  -9  -5  -2  165.57    6.65
   9  -5   2  166.38    7.12
   5   9   2  157.43    6.64
  -5   9  -2  157.57    6.39
  -9   5   2  173.15    7.15
   9   5  -2  165.04    6.80
   5  -9  -2  161.45    7.68
   5   9   2  163.05    7.18
   6  -9   2    9.04    1.92
  -9   6  -2    6.80    1.31
  -9  -6   2    7.39    1.70
  -6   9   2    7.80    1.26
   6   9  -2    7.64    1.21
  -6  -9  -2    7.04    1.15
  -6   9   2   10.01    1.38
   6  -9   2    8.13    1.23
  -9  -6   2    9.40    1.51
   9   6   2    6.59    1.33
   9  -6  -2    9.43    1.79
   9   6   2    4.53    1.68
   6  -9  -2    4.24    1.57
  -9  -6  -2    9.89    1.31
  -9   6   2    6.05    1.22
  -9   6   2   10.76    1.51
  -6   9  -2    5.09    1.10
   9  -6   2    8.35    1.92
   9  -6   2    7.91    1.35
  -6  -9   2    8.55    1.97
  -6  -9   2    7.31    1.38
   6   9   2    6.43    1.23
   6   9   2   10.80    1.88
   9   6  -2   10.09    1.32
  -9  -7   2   12.30    2.15
  -9  -7   2    7.30    1.39
  -9   7  -2    9.37    1.41
  -7  -9  -2    7.17    1.23
   7  -9   2   10.35    1.37
  -7   9   2    6.66    1.23
   9  -7  -2    8.86    1.73
   9   7   2    5.34    1.82
  -7   9   2    7.27    1.37
   7  -9   2    8.64    2.18
   9   7   2    9.42    1.45
   7   9  -2    8.20    1.28
  -7   9  -2    7.23    1.26
   7  -9  -2   13.58    2.22
   9   7  -2    8.27    1.33
   7   9   2    8.36    1.43
   9  -7   2    7.32    1.33
  -7  -9   2   11.52    2.24
  -9   7   2   10.58    1.59
   9  -7   2    7.29    2.07
  -9   7   2    8.63    1.39
   7   9   2    6.74    1.80
  -9  -7  -2   10.15    1.41
  -7  -9   2    7.94    1.49
  -8   9   2   -0.67    0.76
   8   9  -2   -0.60    0.85
   9   8   2    1.35    0.99
   8  -9   2    0.35    1.45
   9  -8  -2   -0.02    1.19
   8  -9   2    0.23    0.97
  -9  -8   2    0.35    0.93
  -8   9   2    1.86    1.13
   9   8   2   -1.00    1.31
  -8  -9  -2    0.18    0.92
  -9   8  -2   -1.21    0.85
  -9  -8   2   -2.08    1.20
   8  -9  -2    1.34    1.36
  -9   8   2    0.06    0.92
   8   9   2   -1.05    1.24
  -9  -8  -2    0.65    0.82
   9  -8   2    0.82    1.51
   8   9   2    1.79    0.99
  -8   9  -2   -0.12    0.86
  -8  -9   2   -0.18    1.39
   9  -8   2    0.38    0.99
   9   8  -2   -0.60    0.88
  -8  -9   2    0.66    0.94
  -9   8   2   -1.16    0.93
   9  -9  -2  166.32    8.30
   9   9  -2  177.29    7.21
  -9   9   2  163.34    7.20
  -9  -9   2  167.04    7.97
  -9   9  -2  170.05    7.17
   9  -9   2  146.84    9.09
   9   9   2  169.25    7.25
  -9  -9  -2  177.12    7.11
  -9  -9   2  184.59    8.50
  -9   9   2  166.53    7.32
   9  -9   2  173.34    7.32
  10   0  -2   10.20    1.69
   0 -10   2   10.90    1.63
   0  10  -2   13.82    1.16
   0 -10  -2   12.02    1.49
  10   0  -2   12.10    1.35
   0  10   2   11.75    1.43
 -10   0  -2   12.55    1.63
  10   0   2   13.43    1.79
   0  10  -2   12.64    1.45
 -10   0   2   13.53    1.74
   0 -10  -2   13.21    1.39
  -1 -10  -2  118.79    5.30
  10  -1  -2  129.29    5.33
  -1 -10  -2  116.26    5.00
   1 -10   2  114.79    5.88
  10  -1  -2  131.05    6.34
  10   1   2  128.40    6.08
 -10   1  -2  123.61    5.64
  -1  10   2  113.17    5.04
   1  10  -2  108.66    4.95
 -10  -1   2  117.27    5.94
  10   1  -2  111.39    4.93
   1 -10  -2  123.56    5.40
   1  10   2  126.85    5.44
  -1 -10   2  113.04    6.12
  10  -1   2  115.32    5.52
   1 -10  -2  134.90    5.96
  -1  10  -2  120.78    5.37
 -10  -1  -2  118.31    4.78
  -1  10  -2  129.21    4.98
 -10  -1  -2  116.97    5.32
  10   1  -2  109.92    5.68
 -10   1   2  116.53    5.54
   2 -10   2   15.11    1.89
  10  -2  -2   20.75    2.08
   2  10  -2   16.71    1.46
  -2  10   2   11.98    1.50
  10   2   2   19.62    2.17
 -10  -2   2   16.20    2.18
 -10   2  -2   19.25    2.03
  10  -2  -2   17.44    1.54
  -2 -10  -2   12.33    1.39
   2 -10  -2   17.72    1.83
  -2  10  -2   20.88    1.73
  -2 -10   2   18.25    1.89
  10   2  -2   15.88    1.88
   2  10   2   19.81    1.75
  -2  10  -2   19.40    1.47
  10  -2   2   17.72    1.84
   2 -10  -2   19.28    1.63
 -10   2   2   14.09    1.87
  10   2  -2   17.34    1.61
 -10  -2  -2   19.08    1.83
 -10  -2  -2   18.38    1.48
  10   3   2   23.96    2.37
   3 -10   2   21.17    2.25
 -10   3  -2   22.10    2.09
   3  10  -2   22.14    1.74
 -10  -3   2   22.56    2.34
  10  -3  -2   24.81    2.45
  -3  10   2   23.93    1.87
  -3  10   2   19.90    1.80
  -3 -10  -2   21.42    1.71
  10  -3   2   22.68    2.14
  -3 -10   2   24.86    2.20
  -3  10  -2   24.92    1.69
 -10  -3  -2   24.64    1.69
  -3 -10   2   15.26    2.24
  10   3  -2   24.71    2.07
   3  10   2   23.04    1.88
  10  -3   2   18.79    2.28
 -10  -3  -2   23.07    2.09
  -3  10  -2   23.28    1.86
 -10   3   2   23.89    2.16
   3 -10  -2   23.91    2.16
  10   3  -2   24.34    1.79
   4 -10   2   47.66    3.54
  -4 -10  -2   54.68    2.81
   4  10  -2   48.33    2.83
  -4  10   2   53.51    2.95
  10  -4  -2   49.98    3.42
  -4  10   2   51.62    2.85
  10   4   2   47.37    3.50
 -10  -4   2   45.32    3.39
 -10   4  -2   47.05    2.96
  10  -4   2   47.99    3.15
  -4 -10   2   55.67    3.34
 -10   4   2   50.27    3.11
   4  10   2   55.22    2.96
  10   4  -2   56.87    2.96
  -4  10  -2   49.09    2.76
  10   4  -2   56.05    3.25
 -10  -4  -2   51.69    2.68
   4 -10  -2   49.26    3.28
  10  -4   2   49.15    3.68
  -4  10  -2   50.21    2.59
 -10  -4  -2   56.86    3.11
  -5 -10  -2   59.02    3.09
   5 -10   2   62.06    4.11
   5  10  -2   59.84    3.12
  10   5   2   57.35    3.25
  10   5   2   51.13    3.82
  10  -5  -2   53.98    3.70
  -5  10   2   55.42    3.18
 -10   5  -2   60.05    3.34
 -10  -5   2   62.00    3.94
  -5  10   2   60.05    3.16
 -10  -5   2   62.46    3.60
  10   5  -2   56.99    3.19
 -10   5   2   61.55    3.49
   5  10   2   60.35    3.25
 -10  -5  -2   65.39    3.12
  10  -5   2   54.12    4.15
  -5 -10   2   43.96    3.77
  -5  10  -2   62.55    3.00
  10  -5   2   61.00    3.41
   5 -10  -2   59.59    3.84
  -5  10  -2   60.15    3.21
  -5 -10   2   62.60    3.58
 -10  -6   2   18.27    2.35
   6 -10   2   10.94    2.30
  10   6   2   17.34    1.94
  -6  10   2   15.52    1.68
   6  10  -2   10.26    1.44
  10  -6  -2   18.22    2.37
 -10   6  -2   16.27    1.96
 -10  -6   2   15.21    1.85
  -6  10   2   15.86    1.59
  10   6   2   11.32    2.30
  -6 -10  -2   13.05    1.49
 -10   6   2   13.13    1.70
   6  10   2   16.57    1.76
  -6  10  -2   18.27    1.67
  -6 -10   2   18.09    1.97
 -10  -6  -2   15.76    1.60
  -6 -10   2   12.83    2.37
  -6  10  -2   15.63    1.59
   6 -10  -2   16.39    2.34
  10   6  -2   14.66    1.72
  10  -6   2   12.12    1.63
 -10   6   2   12.65    1.63
  10  -6   2   11.63    2.37
  -7 -10  -2    2.84    0.98
   7 -10   2    4.00    1.14
  10   7   2    4.59    1.21
  -7  10   2    3.73    1.08
   7  10  -2    5.96    1.31
  10  -7  -2    2.13    1.51
   7 -10   2    6.12    2.07
 -10  -7   2    6.36    1.37
 -10   7  -2    4.91    1.24
  -7  10   2    5.20    1.32
 -10  -7   2    4.06    1.57
  10   7   2    2.58    1.64
  10  -7   2    1.76    1.65
 -10   7   2    3.23    1.26
  10   7  -2    4.15    1.29
  10  -7   2    3.88    1.19
   7  10   2    2.52    1.57
  -7  10  -2    3.40    1.15
   7 -10  -2    4.13    1.50
 -10   7   2    4.43    1.27
  -7 -10   2    3.95    1.26
 -10  -7  -2    4.62    1.06
  -7 -10   2    6.35    1.86
   7  10   2    2.43    1.08
   8 -10   2   48.34    4.36
 -10  -8   2   59.00    3.56
  -8  10   2   56.84    3.42
   8  10  -2   52.76    3.06
  -8 -10  -2   57.23    3.12
  10  -8  -2   57.66    3.94
 -10   8  -2   56.00    3.32
  10   8   2   51.30    4.28
  -8  10   2   50.71    3.13
  10   8   2   53.63    3.28
   8 -10   2   54.82    3.10
 -10  -8   2   62.15    4.20
  -8 -10   2   58.53    3.61
  -8  10  -2   52.72    3.23
 -10   8   2   51.09    3.14
  -8 -10   2   66.24    4.54
  10  -8   2   56.42    3.34
 -10  -8  -2   52.19    3.05
  10   8  -2   59.02    3.27
  10  -8   2   39.66    4.38
   8  10   2   56.79    3.30
 -10   8   2   54.94    3.33
   8 -10  -2   61.39    4.08
  10   9   2    1.30    1.64
  -9  10   2   -0.95    1.23
 -10   9  -2    0.75    1.05
   9  10  -2   -0.25    0.99
  -9 -10  -2    0.31    0.94
   9 -10   2    0.05    1.00
  10  -9  -2   -0.68    1.27
   9 -10   2    0.85    1.78
 -10  -9   2   -1.20    0.89
  10   9   2   -0.12    0.95
  -9  10   2   -0.46    0.93
 -10  -9   2    0.38    1.36
  -9 -10   2   -0.03    1.05
   9 -10  -2   -0.35    1.25
   9  10   2   -0.65    0.87
   9  10   2   -2.47    1.27
 -10  -9  -2   -0.64    0.84
  10  -9   2    2.68    1.17
  -9 -10   2    0.09    1.65
  10   9  -2   -0.12    1.14
 -10   9   2    0.94    1.25
  -9  10  -2    1.38    1.07
  10  -9   2   -1.34    1.41
 -10   9   2    0.66    1.04
  10  10  -2   15.98    1.94
 -10 -10  -2   14.81    1.81
 -10  10  -2   15.41    2.07
  10  10   2    8.00    2.46
  10 -10   2   14.93    1.83
 -10 -10   2   16.06    2.69
 -10  10   2   22.51    2.53
  10 -10  -2   11.12    2.06
  10  10   2   15.70    1.90
  10 -10   2   11.76    3.25
 -10  10   2   17.13    2.04
  11   0  -2  129.83    6.53
   0  11   2  128.56    5.73
   0 -11  -2  131.23    5.71
   0  11  -2  135.99    5.75
   0  11  -2  137.07    5.25
 -11   0  -2  132.07    5.97
  11   0  -2  127.19    5.64
   0 -11  -2  134.33    6.12
  11   0   2  136.18    6.49
   0 -11   2  130.37    6.63
 -11   0   2  133.64    6.32
  11   1   2   26.48    2.49
  11  -1  -2   21.98    1.84
  -1 -11  -2   24.19    1.85
 -11  -1   2   25.13    2.41
 -11   1  -2   25.99    2.31
  -1  11   2   23.53    2.10
   1 -11   2   23.43    2.31
  11  -1  -2   26.08    2.33
   1  11  -2   25.43    1.84
  -1  11  -2   26.90    1.67
   1 -11  -2   26.23    2.20
  11  -1   2   25.42    2.48
  11   1  -2   21.80    1.89
  -1  11  -2   23.41    1.92
   1  11   2   22.88    1.98
 -11   1   2   27.24    2.47
  -1 -11   2   28.52    2.38
 -11  -1  -2   29.70    2.43
  11   1  -2   25.18    2.31
 -11  -2   2   11.13    1.85
  -2  11   2    5.79    1.25
  11  -2  -2   10.79    1.83
   2 -11   2    9.73    1.81
   2  11  -2    6.57    1.14
 -11   2  -2    8.88    1.52
  -2 -11  -2    7.43    1.18
  11   2   2    9.22    1.87
  11  -2   2    4.76    1.53
 -11  -2  -2   10.55    1.62
  -2  11  -2   11.21    1.38
   2  11   2    9.18    1.42
  11   2  -2    6.99    1.22
  -2 -11   2    9.93    1.59
   2 -11  -2    9.22    1.35
 -11  -2  -2   11.29    1.32
  -2  11  -2   11.82    1.28
  11   2  -2    7.96    1.51
 -11   2   2    6.65    1.44
   2 -11  -2   11.28    1.58
   3 -11   2   16.00    2.30
  -3 -11  -2   17.95    1.62
  11   3   2   21.75    2.46
  11  -3  -2   19.96    2.23
 -11  -3   2   23.93    2.58
   3  11  -2   18.11    1.68
 -11   3  -2   21.23    2.02
  -3  11   2   19.46    1.83
   3 -11  -2   20.78    1.78
  -3  11  -2   19.71    1.59
  11   3  -2   17.45    1.99
  11   3  -2   19.00    1.82
  -3  11  -2   20.96    1.73
   3 -11  -2   23.55    2.29
  -3 -11   2   19.91    2.05
   3  11   2   22.33    1.94
 -11   3   2   18.61    2.01
 -11  -3  -2   20.07    1.64
  11  -3   2   18.17    1.98
  -4  11   2   95.89    4.61
  -4  11   2   98.59    4.77
   4 -11   2  102.74    5.75
 -11   4  -2  102.07    4.94
   4  11  -2  102.70    4.68
  -4 -11  -2   98.83    4.57
  11   4   2   88.81    5.47
  11  -4  -2  103.72    5.57
 -11  -4   2  107.79    5.58
  -4 -11   2   99.03    5.36
   4  11   2   97.93    4.77
  11  -4   2  106.03    5.11
  -4  11  -2  108.41    4.48
  -4  11  -2  106.04    4.75
   4 -11  -2  107.24    5.48
  11   4  -2  104.01    4.77
 -11   4   2   95.79    4.95
  11   4  -2  102.11    5.27
 -11  -4  -2  100.31    4.56
 -11  -4  -2  105.80    4.95
  11   5   2    2.92    1.47
 -11   5  -2    4.11    1.21
 -11  -5   2    2.87    1.43
   5 -11   2    0.77    1.24
  -5  11   2    0.62    0.94
  -5  11   2    2.43    1.06
   5  11  -2    2.20    1.05
  11  -5  -2    1.66    1.26
  -5 -11  -2    1.18    0.90
  11  -5   2    1.20    1.58
   5 -11  -2    2.38    1.44
  -5 -11   2    2.65    1.12
 -11  -5  -2    0.97    1.03
  -5  11  -2    2.66    0.96
  -5  11  -2    3.41    1.06
  11   5  -2    2.86    1.18
 -11   5   2    1.25    1.04
  -5 -11   2    4.93    1.73
  11  -5   2    1.42    1.07
  11   5  -2    4.37    1.25
   5  11   2    3.88    1.17
 -11  -5  -2    1.36    0.85
  -6 -11  -2    0.95    0.92
  11   6   2    1.49    1.63
   6  11  -2    1.15    0.96
  -6  11   2    0.75    1.11
  -6  11   2   -0.66    0.77
  11  -6  -2    1.40    1.41
 -11  -6   2    0.72    1.42
 -11   6  -2    1.16    0.99
  11   6   2   -0.40    0.98
   6 -11   2    1.04    1.48
  11   6  -2    0.15    0.99
  11  -6   2    2.05    1.07
   6  11   2   -0.19    1.02
  -6 -11   2    0.02    1.00
 -11   6   2    0.07    1.02
   6 -11  -2    0.76    1.26
 -11  -6  -2    0.40    0.83
  -6  11  -2    0.04    0.93
  -6 -11   2    1.91    1.58
  11  -6   2    1.70    1.75
  -6  11  -2    0.17    0.86
  -7  11   2    4.19    1.14
  -7 -11  -2    6.02    1.27
 -11  -7   2    8.01    1.54
  11   7   2    5.72    1.36
 -11   7  -2    7.29    1.54
   7  11  -2    4.25    1.22
   7 -11   2    4.55    1.97
  11   7   2    4.11    1.94
  -7  11   2    5.77    1.38
 -11  -7   2    6.74    1.96
  11  -7  -2    3.29    1.48
  11  -7   2    2.66    1.99
  -7  11  -2    4.25    1.26
  11   7  -2    6.29    1.41
 -11   7   2    4.71    1.30
  -7  11  -2    6.14    1.32
   7 -11  -2    4.31    1.54
  -7 -11   2    7.54    2.23
   7  11   2    3.06    1.18
  -7 -11   2    3.90    1.23
 -11  -7  -2    5.22    1.19
  11  -7   2    4.52    1.42
 -11  -8   2    5.51    1.74
 -11   8  -2    0.97    1.14
  -8 -11  -2   -0.18    0.87
  -8  11   2    0.62    1.10
  11   8   2    4.69    1.89
  11   8   2    2.19    1.19
  -8  11   2    0.21    1.25
  11  -8  -2    1.11    1.49
   8 -11   2    0.89    0.94
   8 -11   2    3.17    2.11
   8  11  -2    1.74    1.11
   8 -11  -2    3.86    1.67
  -8 -11   2    2.86    1.18
 -11   8   2    2.08    1.11
 -11   8   2   -0.19    1.20
  -8 -11   2    3.49    1.82
  11  -8   2   -0.91    1.47
   8  11   2    2.40    1.17
  -8  11  -2    4.77    1.25
  11   8  -2    2.04    1.30
  11  -8   2    3.30    1.20
 -11  -8  -2    2.72    1.07
  11   9   2    3.03    1.63
  -9  11   2    0.30    1.10
   9 -11   2   -0.68    2.07
   9  11  -2   -0.31    1.01
  11  -9  -2    1.46    1.44
 -11   9  -2    0.30    1.10
  -9 -11  -2    1.80    1.07
  11   9   2    1.62    1.16
  -9  11   2    0.46    1.17
 -11  -9   2    1.71    1.55
   9 -11   2    1.71    1.13
   9  11   2   -0.22    1.14
 -11   9   2    0.41    1.40
   9 -11  -2    0.03    1.34
  -9 -11   2    2.95    1.71
  11  -9   2    1.33    1.18
 -11  -9  -2    0.45    1.11
 -11   9   2    1.65    1.23
  -9  11  -2    1.20    1.12
   9  11   2    0.34    1.68
  11   9  -2   -0.39    1.27
  11  -9   2   -1.15    1.54
 -10 -11  -2    1.65    1.09
 -10  11   2    2.32    1.49
  10  11  -2    4.39    1.39
  11  10   2    2.34    1.98
  10 -11   2    2.61    2.27
  11 -10  -2    3.43    1.61
 -11 -10   2    5.76    2.07
 -11  10  -2    2.48    1.25
  11  10   2    2.14    1.26
 -10  11   2    3.04    1.15
  10 -11   2    2.09    1.25
 -10 -11   2    4.24    1.93
  11  10  -2    2.87    1.53
 -11  10   2    2.11    1.27
 -11 -10  -2    2.63    1.26
  10 -11  -2    1.82    1.72
  10  11   2   -0.97    1.71
  11 -10   2    0.79    1.21
  11 -10   2   -0.90    2.12
 -10  11  -2    0.93    1.34
  10  11   2    3.05    1.43
 -11  10   2    3.13    1.57
  11 -11  -2    7.93    2.13
 -11  11  -2    8.00    1.69
  11  11  -2    9.58    1.85
 -11 -11   2   13.57    2.63
 -11  11   2    5.77    1.98
  11  11   2    8.91    1.74
  11 -11   2    6.28    1.60
 -11 -11  -2    6.06    1.59
  11 -11   2    4.10    2.56
  11  11   2    7.97    2.40
 -11  11   2    5.96    1.57
 -12   0   2    9.45    1.74
 -12   0  -2    7.18    1.44
  12   0   2    9.48    1.94
   0  12   2    7.77    1.41
   0 -12   2   10.19    1.77
   0  12  -2    6.86    1.25
   0 -12  -2    8.76    1.36
   0 -12  -2   10.22    1.41
  12   0  -2   10.99    1.73
  12   0  -2    8.87    1.40
  12   1   2   35.87    3.13
  -1 -12  -2   40.23    2.56
 -12   1  -2   33.05    2.58
   1 -12   2   38.22    3.05
 -12  -1   2   30.13    2.87
  12  -1  -2   37.53    2.96
  -1  12   2   42.07    2.79
  12  -1  -2   35.47    2.35
   1  12  -2   39.47    2.49
   1  12   2   36.94    2.49
  -1  12  -2   34.07    2.36
  -1 -12   2   33.26    2.74
   1 -12  -2   30.15    2.23
   1 -12  -2   37.40    2.57
  12   1  -2   38.65    2.96
  -1  12  -2   34.26    2.06
  12  -1   2   33.53    2.95
  12   1  -2   44.88    2.64
 -12   1   2   36.48    2.93
 -12  -1  -2   38.96    2.77
   2  12  -2   35.59    2.32
  12  -2  -2   29.35    2.73
 -12  -2   2   32.67    2.91
  -2 -12  -2   36.81    2.42
 -12   2  -2   36.10    2.63
  -2  12   2   32.22    2.55
  12   2   2   27.93    3.01
   2 -12   2   32.76    2.91
  12   2  -2   32.84    2.62
  12   2  -2   36.83    2.44
   2 -12  -2   37.38    2.69
 -12  -2  -2   38.32    2.71
  -2  12  -2   34.80    2.27
  12  -2   2   37.52    2.89
 -12   2   2   35.41    2.82
  -2  12  -2   35.64    2.13
   2  12   2   43.50    2.67
  -2 -12   2   35.07    2.89
   2 -12  -2   35.24    2.39
  -3  12   2   40.21    2.75
 -12  -3   2   45.64    3.49
   3  12  -2   42.89    2.70
   3 -12   2   46.11    3.58
  12  -3  -2   42.45    3.28
  12   3   2   38.23    3.32
 -12   3  -2   42.54    2.87
  -3 -12  -2   47.37    2.75
   3 -12  -2   42.12    2.93
 -12   3   2   41.66    3.14
   3  12   2   42.35    2.78
  12   3  -2   42.37    2.81
  12   3  -2   49.13    3.18
  -3  12  -2   42.66    2.45
 -12  -3  -2   40.58    2.88
  12  -3   2   43.88    3.25
  -3 -12   2   44.09    3.21
   3 -12  -2   41.24    2.69
 -12  -3  -2   44.27    2.61
  -3  12  -2   43.26    2.68
  12   4   2   31.71    3.23
  12  -4  -2   40.28    3.14
   4 -12   2   46.56    3.77
  -4 -12  -2   43.98    2.80
 -12   4  -2   40.55    2.79
   4  12  -2   46.27    2.72
  -4  12   2   39.84    2.93
 -12  -4   2   36.71    3.17
  -4  12  -2   44.56    2.69
  -4 -12   2   44.46    3.08
   4 -12  -2   46.01    2.77
  12  -4   2   49.97    3.25
   4 -12  -2   41.23    3.00
  12   4  -2   43.92    2.94
  12   4  -2   44.87    3.13
 -12  -4  -2   44.58    2.68
  -4  12  -2   41.94    2.45
   4  12   2   40.78    2.76
 -12   4   2   43.53    3.16
 -12  -4  -2   47.90    3.15
  12   5   2    3.74    1.84
   5 -12   2    4.63    1.88
   5  12  -2    5.79    1.24
 -12   5  -2    4.41    1.38
 -12  -5   2    4.57    1.77
  -5  12   2    3.46    1.19
  12  -5  -2    4.16    1.62
  -5 -12  -2    5.47    1.30
  -5  12   2    6.34    1.33
  -5 -12   2    3.36    1.85
 -12  -5  -2    2.75    1.31
  12  -5   2    3.19    1.44
  12   5  -2    5.85    1.38
  -5  12  -2    3.67    1.18
 -12   5   2    5.83    1.51
   5  12   2    2.51    1.14
   5 -12  -2    1.28    1.32
  -5  12  -2    4.07    1.16
  -5 -12   2    1.69    1.14
  12   5  -2    3.72    1.31
 -12  -5  -2    3.99    1.20
  12   6   2    2.17    1.63
   6 -12   2    4.47    2.05
 -12   6  -2    5.34    1.42
  -6 -12  -2    2.77    1.19
  -6  12   2    4.66    1.38
   6  12  -2    4.26    1.19
  -6  12   2    3.54    1.20
  12  -6  -2    2.79    1.46
 -12  -6   2    3.62    1.56
 -12  -6  -2    5.26    1.18
  12  -6   2    3.45    1.37
  12   6  -2    3.09    1.44
  -6 -12   2    5.06    2.00
  -6 -12   2    4.50    1.32
  12  -6   2   -0.02    1.66
  -6  12  -2    6.57    1.27
   6 -12  -2    3.92    1.51
   6  12   2    6.78    1.47
 -12  -6  -2    5.10    1.49
 -12   6   2    3.00    1.36
  12   6  -2    5.02    1.37
  -6  12  -2    3.67    1.06
 -12  -7   2   21.68    2.89
  12   7   2   19.39    2.09
   7 -12   2   20.65    3.34
  -7  12   2   21.44    2.10
  -7 -12  -2   23.49    2.10
  12  -7  -2   16.71    2.42
   7  12  -2   18.32    1.92
  -7  12   2   21.79    2.22
  12   7   2   20.37    3.10
 -12   7  -2   18.99    2.23
  -7  12  -2   19.17    1.98
  12  -7   2   10.51    2.81
  -7 -12   2   24.88    3.51
   7  12   2   18.56    2.21
   7 -12  -2   20.35    2.51
 -12  -7  -2   19.23    1.91
  12   7  -2   20.10    2.13
  -7  12  -2   19.38    1.93
  -7 -12   2   19.94    2.23
 -12   7   2   19.00    2.21
  12  -7   2   19.37    2.26
 -12   8  -2   13.92    2.01
  -8 -12  -2   15.75    1.85
  12  -8  -2   22.79    2.63
  -8  12   2   16.71    1.97
   8 -12   2   22.21    3.68
  12   8   2   17.93    2.95
   8  12  -2   18.74    2.00
  -8  12   2   20.34    2.44
  12   8   2   19.82    2.15
 -12  -8   2   22.22    2.75
  12   8  -2   18.44    2.29
  -8  12  -2   22.06    2.10
  12  -8   2   18.34    2.08
 -12   8   2   16.75    2.15
   8 -12  -2   17.86    2.52
  -8 -12   2   18.57    3.05
  -8 -12   2   21.00    2.28
   8  12   2   21.99    2.17
 -12  -8  -2   14.01    2.00
  -8  12  -2   22.23    2.11
  12  -8   2    7.69    2.69
  12  -9  -2    2.22    1.52
   9  12  -2    2.02    1.39
  12   9   2   -0.84    1.54
  -9  12   2    3.35    1.27
 -12   9  -2    2.88    1.38
  -9 -12  -2    1.71    1.13
 -12  -9   2    7.38    2.03
   9 -12   2    1.73    2.35
  -9  12   2    2.82    1.64
  12   9   2    2.51    1.33
   9  12   2    0.98    1.18
 -12   9   2    3.19    1.26
 -12  -9  -2    1.78    1.31
  -9 -12   2    2.53    1.99
  12   9  -2    3.10    1.39
   9 -12  -2    1.34    1.70
  -9  12  -2    4.11    1.36
  12  -9   2    3.33    1.42
  12  -9   2   -1.17    1.94
  12  10   2   18.17    2.21
 -12  10  -2   17.55    2.23
 -10  12   2   23.51    2.93
 -10 -12  -2   20.88    2.31
 -10  12   2   20.99    2.15
  10  12  -2   19.62    2.23
 -12 -10   2   25.26    3.35
  12 -10  -2   21.88    2.91
  10 -12   2   19.37    3.75
  12  10   2   17.83    3.22
 -12  10   2   17.38    2.24
  12  10  -2   23.16    2.41
  12 -10   2   15.57    2.25
  10 -12  -2   22.50    3.04
 -12 -10  -2   21.78    2.24
 -10 -12   2   24.82    3.49
  12 -10   2   10.04    3.40
 -12  10   2   20.51    2.93
 -10  12  -2   20.45    2.28
  10  12   2   22.97    2.38
  11 -12   2    4.11    2.71
 -12 -11   2   13.49    2.68
  11  12  -2    6.70    1.75
 -11  12   2    5.90    1.57
  12 -11  -2    9.19    2.28
  12  11   2    6.54    1.67
  12  11   2    7.69    2.45
 -12  11  -2    7.09    1.73
 -11 -12  -2    9.97    1.72
 -11  12   2    6.46    2.02
  12  11  -2    7.93    1.96
 -12  11   2    8.27    2.28
 -12  11   2    6.43    1.57
 -11 -12   2    9.82    2.62
 -12 -11  -2    6.82    1.57
 -11  12  -2    7.78    1.73
  12 -11   2    4.95    3.00
  11 -12  -2    6.10    2.09
  11  12   2    6.71    1.63
  12  12   2    0.87    1.37
  12 -12  -2    2.50    1.77
  12  12   2   -0.57    1.90
 -12  12   2    0.63    1.87
  12 -12   2   -2.13    2.57
 -12 -12   2    2.50    2.13
 -12 -12  -2    3.28    1.57
  12  12  -2   -1.24    1.28
 -12  12  -2    2.03    1.52
   0  13   2    6.79    1.47
  13   0  -2    8.07    1.66
  13   0   2    7.88    1.88
 -13   0   2    7.00    1.71
   0 -13   2   10.16    1.96
  13   0  -2   11.29    1.65
   0  13  -2   11.80    1.45
 -13   0  -2   12.19    1.82
   0 -13  -2   11.40    1.53
  -1 -13  -2    0.98    0.95
 -13  -1   2   -0.49    1.09
  13   1   2    0.33    1.29
  -1  13   2    1.09    1.06
   1  13  -2    1.20    0.94
 -13   1  -2    0.69    1.10
   1 -13   2    0.67    1.18
  13  -1  -2    1.04    1.32
  13   1  -2    0.83    1.03
   1  13   2    1.77    1.10
  -1  13  -2    1.73    0.98
 -13   1   2    0.63    1.13
   1 -13  -2    2.33    1.12
  13   1  -2    3.52    1.26
 -13  -1  -2   -1.49    0.92
   1 -13  -2    0.25    0.99
  -1 -13   2    1.39    1.26
  13  -1   2    0.71    1.43
 -13  -2   2   15.91    2.29
  13  -2  -2   13.40    1.98
  -2 -13  -2   16.64    1.70
  13   2   2   15.65    2.56
  -2  13   2   13.60    1.81
   2 -13   2   13.82    2.35
 -13   2  -2   16.34    2.09
   2  13  -2   14.11    1.64
  13   2  -2   14.86    2.02
  -2 -13   2   14.92    2.02
  13  -2   2   10.38    2.01
   2 -13  -2   11.56    1.69
 -13  -2  -2   15.38    1.96
  -2  13  -2   17.03    1.53
   2  13   2   13.62    2.02
  13   2  -2   15.38    1.93
  -2  13  -2   15.61    1.66
   2 -13  -2   13.52    2.01
 -13   2   2   14.78    2.11
  -3 -13  -2    7.86    1.38
   3  13  -2   10.74    1.56
   3 -13   2    7.47    1.88
 -13  -3   2    8.28    1.96
  13   3   2    8.09    2.11
 -13   3  -2   11.60    1.76
  -3  13   2    8.91    1.57
  13  -3  -2    9.54    1.90
  -3  13  -2   10.32    1.43
  13  -3   2    6.57    1.67
   3  13   2    8.82    1.56
  -3 -13   2    8.44    1.79
  -3  13  -2    9.38    1.39
 -13   3   2    6.60    1.57
 -13  -3  -2    5.73    1.57
   3 -13  -2    9.44    1.77
   3 -13  -2   10.41    1.55
  13   3  -2   10.02    1.67
  13   3  -2    8.50    1.54
 -13   4  -2   15.82    1.98
   4  13  -2   13.25    1.66
  13  -4  -2    8.87    1.95
  -4  13   2   15.07    1.92
   4 -13   2   15.59    2.44
  -4 -13  -2   14.40    1.72
 -13  -4   2   12.48    2.24
  13   4   2   13.94    2.62
  13   4  -2   13.79    2.04
 -13  -4  -2   17.51    2.20
   4 -13  -2   13.95    1.80
   4 -13  -2   10.75    1.96
  -4  13  -2   11.72    1.65
  -4 -13   2   14.28    2.12
  -4  13  -2   13.37    1.78
  13  -4   2   19.04    2.42
 -13  -4  -2   13.32    1.73
  13   4  -2   14.95    2.08
   4  13   2   14.65    1.89
 -13   4   2   15.60    2.22
  13   5   2   16.67    2.72
   5  13  -2   15.98    1.78
   5 -13   2   18.85    2.92
 -13   5  -2   17.77    2.25
  -5 -13  -2   17.87    2.02
 -13  -5   2   19.24    2.56
  -5  13   2   23.42    2.34
  13  -5  -2   17.96    2.56
   5 -13  -2   17.28    2.31
  -5  13  -2   18.84    1.95
  -5  13  -2   18.01    1.81
  -5 -13   2   20.05    2.31
 -13  -5  -2   14.79    1.88
 -13  -5  -2   16.20    2.21
  13   5  -2   18.36    2.09
 -13   5   2   13.10    2.01
   5 -13  -2   18.80    1.88
   5  13   2   23.18    2.20
  13  -5   2   16.08    2.17
 -13  -6   2   48.37    3.78
 -13   6  -2   43.25    3.12
  -6 -13  -2   52.05    3.11
  13  -6  -2   52.28    3.62
   6  13  -2   50.16    3.09
  -6  13   2   52.78    3.41
   6 -13   2   58.27    4.69
  13   6   2   44.02    3.89
  13   6  -2   53.65    3.50
  -6  13  -2   45.50    3.00
 -13  -6  -2   51.30    3.34
  13  -6   2   55.47    3.67
 -13  -6  -2   52.58    3.13
 -13   6   2   48.69    3.41
   6  13   2   46.13    3.25
  -6 -13   2   44.80    3.40
  -6  13  -2   55.25    3.14
   6 -13  -2   55.13    3.69
   7  13  -2    4.84    1.48
  -7  13   2    2.91    1.17
  13  -7  -2    6.74    1.79
  -7  13   2    4.57    1.64
  -7 -13  -2    2.48    1.32
  13   7   2    7.38    2.28
 -13  -7   2    4.95    1.87
   7 -13   2    2.85    2.19
 -13   7  -2    7.41    1.59
 -13  -7  -2    5.17    1.42
  -7  13  -2    5.25    1.36
 -13  -7  -2    4.11    1.45
   7  13   2    8.51    1.73
  13  -7   2    4.73    1.63
   7 -13  -2    7.93    1.99
 -13   7   2    4.18    1.40
  -7 -13   2    5.95    2.22
  -7 -13   2    4.51    1.47
  -7  13  -2    3.68    1.44
  13   7  -2    3.31    1.44
  -8  13   2   24.00    2.57
  13  -8  -2   25.62    2.95
  13   8   2   26.68    3.28
  -8 -13  -2   28.66    2.32
 -13   8  -2   22.69    2.36
   8  13  -2   25.55    2.35
   8 -13   2   24.11    4.01
  -8  13   2   23.23    2.15
 -13  -8   2   26.60    3.02
   8  13   2   23.96    2.53
   8 -13  -2   24.74    3.12
  -8  13  -2   20.41    2.20
  13   8  -2   26.49    2.57
  -8  13  -2   21.68    2.26
 -13  -8  -2   22.36    2.26
  13  -8   2   22.36    2.55
 -13   8   2   29.53    2.56
  -8 -13   2   36.51    3.71
   9  13  -2   37.80    2.76
   9 -13   2   28.63    4.50
  13   9   2   27.36    2.80
  13   9   2   32.92    3.61
  -9 -13  -2   29.24    2.67
 -13  -9   2   39.95    3.72
  13  -9  -2   32.83    3.29
  -9  13   2   34.69    2.72
  -9  13   2   32.40    3.01
 -13   9  -2   29.44    2.66
  13  -9   2   28.51    2.89
  13   9  -2   30.26    3.03
  -9  13  -2   29.78    2.62
   9 -13  -2   31.22    3.21
 -13   9   2   34.00    2.72
  -9 -13   2   39.71    4.14
   9  13   2   26.64    2.71
 -13  -9  -2   29.71    2.74
 -13 -10   2   31.29    3.35
  13 -10  -2   29.11    3.08
  10 -13   2   22.53    4.44
 -13  10  -2   24.60    2.74
  10  13  -2   27.75    2.74
  13  10   2   39.39    4.04
 -10 -13  -2   22.68    2.54
  13  10   2   28.33    2.64
 -10  13   2   25.96    2.98
  10 -13  -2   27.74    3.43
 -10  13  -2   25.02    2.72
  13 -10   2   25.49    2.69
  13 -10   2    9.59    3.19
 -13 -10  -2   25.28    2.43
 -10 -13   2   28.54    3.59
  10  13   2   20.87    2.63
  13  10  -2   32.64    3.05
 -13  10   2   24.07    2.60
  11  13  -2    1.98    1.68
  13  11   2    0.54    1.97
 -13 -11   2    0.53    1.71
 -13  11  -2    2.50    1.47
  13  11   2    3.37    1.66
 -11  13   2    1.16    1.70
 -11 -13  -2    0.84    1.29
  13 -11  -2    1.43    1.60
  11 -13   2    0.97    2.81
  13 -11   2    4.36    2.59
 -11 -13   2    4.41    2.21
  11 -13  -2   -1.15    1.76
 -11  13  -2   -0.71    1.52
  11  13   2   -1.14    1.33
 -13 -11  -2    2.28    1.51
  13  11  -2    0.50    1.72
  13  12   2   21.52    3.44
 -12  13   2   14.56    2.73
  12 -13   2   12.60    3.93
  13  12   2   10.97    2.03
  13 -12   2   12.10    3.59
  12  13   2   22.39    2.71
 -14   0   2    2.64    1.38
   0  14   2    0.19    1.01
   0 -14   2    2.40    1.31
  14   0  -2    1.13    1.19
  14   0   2   -0.53    1.32
   0  14  -2    0.08    0.94
   0 -14  -2    0.45    0.95
  14   0  -2    0.72    1.15
 -14   0  -2    0.47    1.15
  14   1   2    7.28    2.07
 -14   1  -2    6.33    1.49
 -14  -1   2    7.17    1.79
  -1 -14  -2    5.89    1.28
  -1  14   2    5.19    1.47
  14  -1  -2    2.57    1.42
   1  14  -2    3.48    1.18
   1 -14   2    1.69    1.49
   1 -14  -2    5.03    1.23
 -14  -1  -2    6.41    1.69
  14   1  -2    2.44    1.47
  14   1  -2    5.89    1.41
  14  -1   2    4.59    1.85
  -1 -14   2    6.72    1.76
  -1  14  -2    5.12    1.34
 -14   1   2    5.40    1.62
   1  14   2    5.25    1.40
  -2 -14  -2   28.58    2.18
 -14   2  -2   22.25    2.29
  14   2   2   27.97    2.99
   2  14  -2   26.04    2.24
   2 -14   2   26.09    2.79
 -14  -2   2   27.15    2.78
  -2  14   2   22.28    2.30
  14  -2  -2   23.81    2.59
 -14   2   2   25.15    2.64
   2 -14  -2   29.37    2.36
  14   2  -2   30.36    2.56
  14   2  -2   20.32    2.44
  -2  14  -2   20.89    1.81
   2  14   2   26.90    2.55
  -2  14  -2   24.53    2.16
 -14  -2  -2   24.69    2.41
   2 -14  -2   22.98    2.37
  14  -2   2   24.07    2.73
  -2 -14   2   26.33    2.75
  -3  14   2    6.40    1.57
 -14   3  -2    9.45    1.73
  14   3   2   10.65    2.11
 -14  -3   2    8.80    1.95
  -3 -14  -2    9.51    1.55
   3 -14   2   12.53    2.36
   3  14  -2   10.71    1.60
  14  -3  -2    7.60    1.72
   3  14   2   11.74    1.81
  -3 -14   2    8.50    1.77
   3 -14  -2    8.91    1.74
  14   3  -2   11.97    1.89
  -3  14  -2    9.06    1.55
 -14  -3  -2    7.71    1.69
  14  -3   2   12.19    2.24
   3 -14  -2   10.41    1.57
 -14   3   2    9.91    1.90
  -3  14  -2    9.71    1.44
  14   4   2    7.87    2.21
 -14   4  -2    4.58    1.39
  -4 -14  -2    1.91    1.14
   4  14  -2    4.01    1.29
 -14  -4   2    1.18    1.40
  -4  14   2    4.96    1.59
   4 -14   2    8.29    2.09
  14  -4  -2    5.09    1.72
   4 -14  -2    5.80    1.67
  -4  14  -2    5.73    1.33
  14   4  -2    4.91    1.57
 -14  -4  -2    3.61    1.40
  -4  14  -2    4.68    1.28
  14  -4   2    6.33    1.88
   4  14   2    4.30    1.44
   4 -14  -2    6.03    1.42
  -4 -14   2    5.45    1.71
 -14   4   2    2.71    1.43
   5  14  -2   10.34    1.63
  -5 -14  -2   11.52    1.77
 -14  -5   2   14.03    2.33
  14  -5  -2   11.71    2.00
  14   5   2    8.53    2.23
  -5  14   2   11.24    1.89
 -14   5  -2   12.06    1.85
   5 -14   2   11.37    2.58
 -14  -5  -2   13.81    1.91
   5 -14  -2    9.69    1.67
  14   5  -2    7.98    1.68
  -5 -14   2   12.16    1.96
 -14   5   2   11.72    2.06
  -5  14  -2   11.05    1.62
   5 -14  -2    8.39    1.86
   5  14   2   11.38    1.89
  14  -5   2   13.27    2.33
  -5  14  -2   13.54    1.85
 -14  -5  -2   10.14    1.89
  -6  14   2   23.50    2.41
 -14  -6   2   18.76    2.65
 -14   6  -2   20.82    2.42
   6  14  -2   17.58    2.20
   6 -14   2   21.73    3.40
  14  -6  -2   17.89    2.69
  14   6   2   20.43    2.89
  -6 -14  -2   17.62    2.15
 -14  -6  -2   21.41    2.26
  14  -6   2   18.11    2.55
   6  14   2   21.73    2.47
  -6  14  -2   19.55    2.17
   6 -14  -2   20.30    2.19
   6 -14  -2   19.37    2.65
  14   6  -2   21.84    2.36
 -14  -6  -2   18.59    2.45
  -6 -14   2   20.98    2.50
  -6  14  -2   17.84    2.29
 -14   6   2   16.03    2.25
  -7  14   2   52.40    3.70
   7  14  -2   51.70    3.22
 -14  -7   2   50.04    4.08
  14   7   2   50.13    4.33
  -7 -14  -2   44.56    3.04
  14  -7  -2   46.87    3.60
 -14   7  -2   47.38    3.28
   7 -14   2   56.75    4.81
   7 -14  -2   43.63    3.00
  14   7  -2   42.92    3.47
   7 -14  -2   45.23    3.78
  14  -7   2   47.24    3.48
 -14  -7  -2   51.17    3.52
 -14  -7  -2   42.10    3.03
 -14   7   2   46.77    3.49
  -7  14  -2   49.29    3.22
  -8  14   2   15.18    2.41
   8  14  -2   22.35    2.28
 -14  -8   2   26.40    3.25
 -14   8  -2   18.60    2.33
  -8 -14  -2   25.69    2.32
  14  -8  -2   24.19    2.96
   8 -14   2   22.35    3.71
  14   8   2   22.76    3.38
 -14  -8  -2   21.81    2.42
  -8  14  -2   18.33    2.21
 -14   8   2   16.01    2.41
   8 -14  -2   19.66    2.88
  -8 -14   2   23.06    3.37
  14   8  -2   21.61    2.82
 -14  -8  -2   22.31    2.32
  14  -8   2   22.97    2.51
  14   9   2    2.39    2.04
  -9  14   2   -1.50    1.46
  14  -9  -2    0.81    1.43
  -9 -14  -2   -0.50    1.10
   9 -14   2    0.25    2.27
 -14   9  -2    0.13    1.40
   9  14  -2   -0.27    1.23
 -14  -9   2    1.34    1.70
   9 -14  -2   -0.85    1.60
 -14   9   2   -0.90    1.28
  -9 -14   2   -1.66    1.92
  14   9  -2   -0.60    1.49
 -14  -9  -2   -2.37    0.99
  14  -9   2   -2.42    1.25
   9  14   2   -0.41    1.20
 -14  -9  -2   -0.03    1.32
  -9  14  -2   -0.31    1.44
 -10 -14  -2    0.33    1.26
  14 -10  -2    4.20    1.83
  10  14  -2    2.95    1.58
  14  10   2    1.39    2.08
  10 -14   2    0.06    2.70
 -10  14   2    1.21    1.61
 -14 -10   2    2.18    1.83
 -14  10  -2   -1.03    1.26
  14  10  -2    1.87    1.86
 -14 -10  -2    1.27    1.51
  14 -10   2    0.64    2.20
  10 -14  -2   -0.60    1.92
  10  14   2    2.52    1.44
 -10  14  -2    0.85    1.45
 -10 -14   2    1.70    2.00
   0  15  -2   10.60    1.71
 -15   0  -2    8.69    1.81
   0 -15   2    6.41    1.89
   0  15   2    7.97    1.71
  15   0   2   10.65    2.29
 -15   0   2    9.54    1.93
  15   0  -2    7.85    1.74
   0 -15  -2    8.43    1.50
  -1  15   2   63.02    3.76
 -15   1  -2   53.48    3.47
   1 -15   2   57.90    4.33
   1  15  -2   59.11    3.44
  -1 -15  -2   61.31    3.54
  15   1   2   54.35    4.14
 -15  -1   2   59.94    4.06
  15  -1  -2   52.96    3.70
  -1 -15   2   57.62    4.13
  15   1  -2   61.03    3.69
  15  -1   2   61.67    4.49
   1  15   2   56.67    3.56
  15   1  -2   60.81    4.03
 -15  -1  -2   56.69    3.68
   1 -15  -2   55.31    3.37
 -15   1   2   50.41    3.88
 -15  -2   2    2.81    1.52
  15  -2  -2    0.52    1.48
  -2 -15  -2    2.49    1.23
  -2  15   2    4.93    1.51
   2  15  -2    0.86    1.12
   2 -15   2    3.80    1.69
 -15   2  -2    1.78    1.37
  15   2   2    1.61    1.59
   2  15   2    2.26    1.51
  15  -2   2    1.71    1.76
  -2 -15   2    2.30    1.55
  -2  15  -2   -0.45    1.05
 -15  -2  -2    4.50    1.50
 -15   2   2    1.31    1.52
  15   2  -2    0.38    1.20
   2 -15  -2    1.83    1.13
  15  -3  -2   40.75    3.35
 -15  -3   2   39.21    3.41
  -3  15   2   39.11    2.95
 -15   3  -2   39.69    2.99
   3  15  -2   38.31    2.63
  15   3   2   45.89    3.76
   3 -15   2   36.37    3.67
  -3 -15  -2   32.59    2.63
   3 -15  -2   39.53    2.77
  -3  15  -2   40.16    2.81
   3  15   2   37.73    3.16
 -15   3   2   39.92    3.23
  -3 -15   2   38.81    3.41
 -15  -3  -2   36.73    3.05
  15  -3   2   37.70    3.32
   3 -15  -2   42.04    3.18
  15   3  -2   38.02    3.05
  -3  15  -2   42.12    2.76
  15  -4  -2    6.02    1.70
   4 -15   2    3.44    1.85
 -15   4  -2    3.85    1.55
  -4 -15  -2    4.96    1.34
 -15  -4   2    2.54    1.58
  15   4   2    3.14    1.94
   4  15  -2    5.77    1.49
  -4  15   2    6.18    1.73
   4 -15  -2    4.37    1.69
  15   4  -2    2.32    1.39
   4  15   2    4.12    1.49
  -4  15  -2    3.82    1.35
   4 -15  -2    3.41    1.27
  15  -4   2    5.64    1.81
 -15  -4  -2    5.26    1.73
  -4 -15   2    4.14    1.61
 -15   4   2    1.95    1.37
 -15   5  -2   10.12    1.86
  15  -5  -2   12.09    2.10
  -5  15   2   10.53    1.94
   5  15  -2   12.72    1.90
  15   5   2   16.22    2.77
  -5 -15  -2   10.79    1.82
 -15  -5   2   10.08    2.08
   5 -15   2   14.20    2.76
  15  -5   2    5.77    1.89
   5  15   2   10.33    1.90
 -15  -5  -2    9.85    1.94
 -15   5   2    9.56    1.97
   5 -15  -2    9.51    1.72
  -5 -15   2   11.84    2.10
  15   5  -2    9.38    1.98
  -5  15  -2    7.09    1.45
   5 -15  -2    7.61    2.00
  15  -6  -2    9.29    2.08
   6  15  -2    5.52    1.58
  15   6   2    8.86    2.43
  -6  15   2    4.85    1.76
 -15  -6   2    6.65    1.93
   6 -15   2    5.39    2.17
  -6 -15  -2    6.30    1.63
 -15   6  -2    9.73    1.91
  -6  15  -2    7.97    1.60
   6 -15  -2    2.80    1.89
  15  -6   2   10.47    2.21
 -15   6   2    6.91    1.89
   6 -15  -2    5.96    1.40
 -15  -6  -2    4.22    1.57
  15   6  -2    6.19    1.90
   6  15   2    9.15    1.84
 -15  -6  -2    7.65    1.84
   7 -15   2   10.22    2.99
 -15   7  -2    7.69    1.78
   7  15  -2    9.70    1.88
  -7  15   2    7.59    1.91
  15   7   2    9.99    2.43
  15  -7  -2    6.38    1.93
  -7 -15  -2    7.57    1.60
 -15  -7   2    9.56    2.22
 -15  -7  -2    7.90    1.92
   7 -15  -2    8.75    1.68
   7  15   2   11.21    2.05
  -7  15  -2    5.98    1.52
   7 -15  -2    9.42    2.25
  15   7  -2    5.30    1.83
  15  -7   2    6.53    1.80
 -15  -7  -2    8.10    1.77
 -15   7   2    6.18    1.73
  -8 -15  -2    5.15    1.54
 -15   8  -2    6.61    1.82
  15   8   2    3.74    2.00
 -15  -8   2    4.51    1.86
  -8  15   2    5.19    1.86
   8  15  -2    5.31    1.77
  15  -8  -2    3.44    1.84
   8 -15   2    4.04    2.84
   8  15   2    5.26    1.69
 -15  -8  -2    4.07    1.75
   8 -15  -2    3.33    1.77
  15   8  -2    5.71    2.02
  -8  15  -2    4.87    1.67
  15  -8   2    0.56    1.58
 -15  -8  -2    8.06    1.83
 -15   8   2    3.24    1.68
  -9 -15  -2    3.05    1.59
 -15   9  -2    5.36    1.79
  15   9   2    2.46    2.22
   9  15  -2    1.35    1.56
  15  -9  -2    4.89    2.01
   9 -15   2    2.15    2.51
  -9  15   2    1.94    1.71
 -15  -9   2    3.82    1.92
  15   9  -2    1.56    1.63
   9  15   2    4.44    1.62
 -15  -9  -2    4.66    1.81
  -9  15  -2    2.82    1.48
 -15  -9  -2    4.64    1.66
   9 -15  -2    3.70    2.06
  15  -9   2    6.04    1.87
   0  16   2    1.98    1.32
   0 -16  -2    1.65    1.16
 -16   0  -2    3.68    1.38
   0 -16   2    2.71    1.52
  16   0   2    6.34    2.06
 -16   0   2    0.92    1.43
   0  16  -2    5.65    1.53
  16   1   2    2.70    1.72
  -1  16   2    2.61    1.37
 -16  -1   2   -0.02    1.58
   1  16  -2    2.14    1.35
   1 -16   2    2.71    1.73
  16  -1  -2    1.14    1.43
 -16   1  -2    1.22    1.28
   1 -16  -2    1.85    1.36
 -16  -1  -2    1.74    1.35
  -1 -16   2    3.22    1.70
  -1  16  -2    1.57    1.25
   1  16   2    2.88    1.56
  16  -1   2    1.68    1.67
 -16   1   2    0.66    1.34
  -2 -16  -2   55.35    3.53
 -16   2  -2   54.28    3.49
  16  -2  -2   52.83    3.81
  16   2   2   48.29    4.08
   2 -16   2   53.21    4.26
  -2  16   2   54.68    3.70
   2  16  -2   55.17    3.47
 -16  -2   2   58.01    4.18
   2  16   2   48.92    3.52
 -16   2   2   56.82    4.04
  16   2  -2   53.70    3.69
  -2 -16   2   49.96    3.90
 -16  -2  -2   57.73    3.71
   2 -16  -2   55.58    3.44
  16  -2   2   62.77    4.33
  -3 -16  -2    5.12    1.47
 -16  -3   2    5.47    1.99
   3 -16   2    5.02    1.92
  16  -3  -2    3.75    1.72
 -16   3  -2    2.39    1.41
  16   3   2    7.43    2.12
   3  16  -2    6.32    1.55
  -3  16   2    6.86    1.83
   3 -16  -2    4.97    1.41
  16  -3   2    4.28    1.93
  -3 -16   2    4.34    1.66
  16   3  -2    7.36    1.83
 -16  -3  -2    7.98    1.94
 -16   3   2    4.50    1.77
   3  16   2    6.22    1.66
   4  16  -2    2.39    1.30
  -4 -16  -2    2.47    1.33
  16  -4  -2   -0.37    1.51
 -16   4  -2    0.53    1.38
  -4  16   2    3.97    1.64
 -16  -4   2    3.75    1.76
   4 -16   2    3.72    2.13
  16   4   2    1.91    1.66
   4  16   2    1.85    1.44
   4 -16  -2    2.05    1.34
 -16  -4  -2    3.18    1.48
   4 -16  -2    2.78    1.59
  16  -4   2    1.40    1.58
  -4  16  -2    1.25    1.19
  16   4  -2    3.51    1.69
 -16   4   2    4.30    1.76
  -4 -16   2    1.09    1.54
  -5 -16  -2   -0.67    1.07
   5  16  -2    0.07    1.20
   5 -16   2   -0.47    1.98
  16  -5  -2    0.56    1.56
  -5  16   2    0.23    1.50
 -16   5  -2    0.27    1.37
 -16  -5   2    0.07    1.42
  16   5   2   -1.81    1.41
  16  -5   2    0.61    1.77
 -16  -5  -2    0.28    1.33
  -5  16  -2   -0.13    1.20
   5 -16  -2   -0.14    1.51
   5 -16  -2    0.59    1.15
   5  16   2    1.17    1.41
  16   5  -2    0.49    1.51
 -16   5   2   -1.17    1.33
 -16  -6   2    6.10    2.01
  16   6   2    4.62    2.04
  16  -6  -2    6.73    1.76
   6 -16   2    2.02    2.30
 -16   6  -2    4.14    1.59
   6  16  -2    9.14    1.91
  -6  16   2    4.71    1.72
  -6 -16  -2    7.16    1.69
  16  -6   2    6.67    2.04
   6  16   2    4.91    1.87
  -6  16  -2    4.89    1.65
   6 -16  -2    5.13    1.65
 -16   6   2    8.14    1.98
  16   6  -2    2.64    1.86
 -16  -6  -2    6.26    1.87
   6 -16  -2    3.64    1.88
 -16  -7   2    6.62    2.29
  -7  16   2   13.92    2.42
  16   7   2    8.07    2.33
  -7 -16  -2    9.61    1.80
   7 -16   2   11.14    3.52
 -16   7  -2    6.31    1.79
  16  -7  -2    2.31    1.59
   7  16  -2   11.21    2.10
 -16   7   2    7.22    1.93
  16  -7   2    9.89    2.24
   7 -16  -2    5.55    2.13
   7  16   2    4.85    1.65
 -16  -7  -2    8.26    1.88
  -7  16  -2    7.25    1.80
 -16  -7  -2   10.98    2.02
  16   7  -2    7.06    1.99
   0  17   2   -0.16    1.43
  17   0   2    0.73    1.65
   0 -17  -2   -0.27    1.36
 -17   0  -2    1.70    1.36
 -17   0   2    0.71    1.68
   0 -17   2    2.63    1.78
  17   1   2    6.31    2.11
 -17  -1   2    5.56    1.84
  -1 -17  -2    4.48    1.64
   1 -17   2    2.62    1.92
   1  17  -2    1.53    1.46
  -1  17   2    5.67    1.85
 -17   1  -2    4.15    1.51
 -17  -1  -2    4.61    1.68
   1  17   2    2.29    1.57
  -1 -17   2    2.94    1.78
 -17   1   2    5.91    1.83
  17  -1   2    6.17    2.17
   1 -17  -2    3.03    1.33
   2  17  -2    4.09    1.46
 -17  -2   2    6.45    2.00
   2 -17   2    5.45    2.16
  17   2   2    6.69    2.08
 -17   2  -2    4.86    1.73
  -2 -17  -2    5.02    1.69
  -2  17   2    5.64    1.79
 -17  -2  -2    7.04    1.78
 -17   2   2    5.78    1.91
   2  17   2    6.23    1.80
  17   2  -2    4.22    1.67
  -2 -17   2    3.03    1.75
  17  -2   2    3.91    2.09
   2 -17  -2    4.35    1.48
 -17  -3   2    7.48    2.19
 -17   3  -2    7.05    1.80
   3 -17   2    9.04    2.52
  17   3   2    2.55    1.94
  -3 -17  -2    5.72    1.77
  17  -3  -2    6.53    1.91
  -3  17   2    7.28    2.05
   3  17  -2    6.25    1.72
   3 -17  -2    5.78    1.64
  17  -3   2    5.87    2.22
   3  17   2    4.19    1.82
  -3 -17   2   11.41    2.29
  17   3  -2    8.86    1.97
 -17   3   2    3.18    1.79
 -17  -3  -2    6.18    1.91
  -4 -17  -2    3.65    1.51
  17   4   2    4.47    2.26
 -17  -4   2    3.78    1.95
  -4  17   2    4.67    1.93
   4  17  -2    2.12    1.41
   4 -17   2    6.40    2.23
 -17   4  -2    3.06    1.60
  17  -4  -2    4.97    1.89
 -17   4   2    4.22    1.74
   4  17   2    4.31    1.83
  17  -4   2    5.40    1.96
  -4 -17   2    3.69    1.75
   4 -17  -2    5.52    1.61
  17   4  -2    5.07    1.86
 -17  -4  -2    6.98    1.92
   0   0   3  172.20    6.66
   0   0   3  167.67    7.78
   0   0   3  162.53    6.61
   0   0  -3  173.09    6.79
   1   0   3    0.79    0.52
   0  -1   3    0.95    0.56
   1   0  -3    0.29    0.60
   1   0   3    2.59    0.98
   0   1   3    1.61    0.64
   0   1   3    1.01    0.68
   0   1   3    1.04    0.91
  -1   0   3    1.18    0.85
   0   1  -3    1.15    0.64
  -1   0   3    0.70    0.66
  -1   0   3    0.86    0.59
   1   0   3    0.13    0.60
   1   0   3    1.09    0.60
   0   1  -3    0.57    0.68
   0  -1   3    0.90    0.89
   1  -1   3   74.31    4.05
  -1   1  -3   82.98    3.64
   1  -1  -3   80.43    3.49
   1  -1   3   78.82    3.51
   1  -1   3   77.66    3.26
   1   1   3   77.08    3.59
   1   1  -3   73.83    3.42
   1   1   3   71.25    3.39
   1   1   3   77.55    3.49
   1   1   3   80.13    4.19
  -1  -1   3   78.66    4.21
  -1   1   3   73.60    4.10
  -1  -1   3   79.03    3.50
   1   1  -3   72.34    3.32
  -1   1   3   77.24    3.39
  -1   1   3   71.06    3.37
  -2   0  -3    2.86    0.84
   0   2   3    0.18    0.55
   2   0   3   -0.03    0.64
   0   2   3    0.35    0.67
  -2   0   3   -0.01    0.55
   0   2   3    0.08    0.49
   2   0   3   -0.33    0.73
   0   2  -3    0.02    0.57
   2   0  -3    0.68    0.55
   0   2   3   -0.48    0.76
  -2   0   3    0.10    0.76
   0  -2   3    0.57    0.49
   0   2  -3    0.37    0.59
  -2   0   3   -0.54    0.58
   0  -2   3   -0.61    0.67
   2   0   3    0.00    0.49
  -1   2   3    9.02    1.15
   2   1   3    9.04    0.99
  -2  -1   3   10.85    1.47
   1   2  -3    8.89    1.07
   2   1   3    7.40    1.29
   1   2  -3    8.60    1.16
  -1   2   3   11.23    1.20
   1  -2   3    9.20    1.52
   1  -2   3    8.58    0.90
   2   1   3   10.48    1.33
  -2  -1   3    8.93    1.11
   2  -1  -3   11.41    1.05
  -2   1  -3    9.26    1.29
   2   1   3    9.47    1.13
  -1  -2   3   11.94    1.10
   2   1  -3    9.39    1.09
  -1   2  -3   10.12    1.19
   2  -1   3   11.12    0.92
   1   2   3    9.21    1.44
   1   2   3   10.04    1.16
   1   2   3    9.17    0.99
   1   2   3   10.92    1.08
   2  -1   3   10.95    1.53
  -2   1   3   10.39    1.14
   2  -1   3    8.81    1.09
  -2   1   3    9.69    1.17
  -2   1   3    8.65    1.40
   1  -2  -3   11.72    1.03
  -1  -2   3    8.66    1.43
   2   2   3  131.01    5.46
  -2  -2   3  132.34    5.39
   2   2   3  123.51    5.20
  -2   2   3  123.69    5.24
   2   2   3  128.97    6.16
   2  -2   3  119.05    4.87
  -2   2   3  129.21    5.09
   2  -2   3  124.36    5.29
   2   2  -3  123.53    5.17
  -2   2  -3  132.24    5.49
   2  -2  -3  138.62    6.39
   2  -2   3  127.11    6.05
   2  -2  -3  127.43    5.20
   2   2   3  128.98    5.39
  -2  -2   3  130.21    6.31
   0   3   3   67.48    2.91
   0   3   3   61.11    3.08
   0  -3   3   66.03    3.71
   0   3  -3   63.90    2.96
   0  -3   3   65.94    2.89
  -3   0  -3   62.79    3.23
   3   0   3   62.38    3.11
  -3   0   3   65.36    3.14
  -3   0   3   61.80    3.72
   3   0   3   66.89    3.64
   0   3  -3   65.63    3.14
   3   0  -3   60.55    2.89
   0   3   3   62.03    3.05
   0  -3  -3   61.22    3.55
  -1   3   3   74.88    3.47
   3   1   3   76.68    3.62
   1   3  -3   79.85    3.57
  -3  -1   3   78.34    4.33
   3   1   3   80.93    4.15
   1  -3   3   74.23    4.11
   3  -1  -3   81.21    3.42
   3   1   3   77.78    3.77
  -1  -3  -3   71.47    3.98
  -1   3   3   75.21    3.46
  -3  -1   3   79.87    3.68
  -3   1  -3   75.21    3.76
   1  -3   3   75.99    3.20
  -1   3  -3   81.41    3.72
  -3   1   3   74.94    4.17
   1   3   3   73.74    3.60
   1   3   3   74.68    3.49
  -1   3  -3   75.32    3.53
   3   1  -3   74.09    3.37
  -3   1   3   70.94    3.50
   3  -1   3   73.80    3.53
  -1  -3   3   79.52    3.48
   1  -3  -3   80.23    3.41
   3  -1   3   77.84    4.11
   3  -1   3   76.09    3.17
   1   3   3   80.93    3.49
   1  -3  -3   85.43    4.35
  -1  -3   3   71.37    4.20
  -3   2  -3   13.27    1.44
   3   2   3   11.46    1.33
   2  -3   3   12.39    1.67
  -3  -2   3   11.86    1.30
  -2   3   3   15.05    1.33
   3   2   3   13.09    1.31
   3  -2  -3   12.75    1.02
  -3  -2   3   11.80    1.58
   2   3  -3   11.73    1.30
   3   2   3   13.15    1.49
  -2   3   3   12.79    1.27
   3  -2  -3   14.84    1.68
   2  -3   3   11.62    1.24
   2   3   3   11.23    1.17
   2  -3  -3   12.10    1.04
   3  -2   3    9.63    1.56
   2   3   3   11.05    1.30
   2   3   3   12.60    1.20
  -3  -2  -3   13.31    1.15
  -3   2   3   12.28    1.35
  -2  -3   3   11.45    1.56
  -2  -3   3   13.94    1.26
   2  -3  -3   14.75    1.79
   3   2  -3   11.62    1.21
   3  -2   3   13.08    1.33
  -3   2   3   14.38    1.21
  -2   3  -3   10.98    1.36
   3   3   3   16.29    1.39
  -3   3  -3   17.14    1.56
  -3   3   3   17.94    1.42
   3  -3   3   16.29    1.46
  -3  -3   3   18.41    1.51
   3   3   3   18.30    1.59
  -3  -3   3   15.23    1.85
   3   3  -3   15.28    1.41
  -3  -3  -3   16.09    1.34
   3  -3  -3   17.04    1.84
   3  -3   3   15.03    1.70
  -3   3   3   17.49    1.55
   4   0   3   48.01    2.75
   0  -4  -3   48.24    3.14
   0   4   3   50.44    2.42
   4   0  -3   52.44    2.48
   0   4  -3   56.51    2.77
  -4   0  -3   51.70    2.35
   0   4   3   50.05    2.64
   0  -4   3   53.80    2.44
   0   4   3   53.44    2.75
  -4   0  -3   49.29    2.83
  -4   0   3   47.00    2.70
   4   0   3   50.15    3.09
   0  -4   3   53.49    3.24
  -4   0   3   50.19    3.23
   4  -1  -3   45.31    3.02
  -4  -1   3   46.90    3.09
  -1   4   3   41.70    2.39
   4  -1  -3   45.62    2.23
  -1   4   3   42.35    2.41
  -4   1  -3   48.01    2.73
   4   1   3   45.90    2.55
   1   4  -3   47.05    2.48
  -4  -1   3   44.82    2.60
   1  -4   3   42.80    2.92
  -1  -4  -3   45.82    2.88
  -4   1  -3   43.26    2.20
   4   1   3   47.40    2.83
  -1   4  -3   48.73    2.65
  -1   4  -3   45.55    2.38
  -1  -4   3   42.98    2.94
   4  -1   3   43.59    2.51
   1   4   3   44.51    2.36
   1   4   3   46.58    2.53
  -4   1   3   43.93    2.51
   1   4   3   43.62    2.27
   4  -1   3   49.59    2.96
  -1  -4   3   48.09    2.33
   1  -4  -3   48.11    3.07
   4   1  -3   45.03    2.30
  -4  -1  -3   45.94    2.18
  -4  -2   3   24.87    2.24
  -2   4   3   27.82    1.84
  -4  -2   3   26.93    1.90
   2   4  -3   23.19    1.71
   2  -4   3   29.31    2.35
   4  -2  -3   25.83    2.35
  -2   4   3   24.98    1.78
   4   2   3   26.74    2.02
  -2  -4  -3   24.83    2.02
  -4   2  -3   25.14    1.94
   4   2   3   24.36    1.98
   4   2   3   24.59    1.81
   4  -2  -3   22.88    1.42
  -4  -2  -3   26.40    1.60
  -4   2   3   24.34    1.83
   2   4   3   23.48    1.61
   2   4   3   24.75    1.90
   4  -2   3   24.54    2.17
  -2   4  -3   24.93    1.74
   2  -4  -3   30.35    2.39
  -2  -4   3   23.94    2.13
  -2  -4   3   25.22    1.67
   4   2  -3   26.86    1.71
   4  -2   3   25.26    1.83
   3  -4   3   36.55    2.35
   4   3   3   41.03    2.50
  -4   3  -3   38.63    2.41
  -3   4   3   39.24    2.22
   3  -4   3   39.44    2.76
   4   3   3   35.74    2.17
   4  -3  -3   38.68    2.79
  -3  -4  -3   40.85    2.14
  -3   4   3   37.77    2.28
   3   4  -3   39.43    2.28
  -4  -3   3   36.31    2.67
  -3  -4  -3   36.54    2.44
  -4  -3   3   36.72    2.30
  -4  -3  -3   40.32    2.11
   4   3  -3   38.16    2.19
  -3   4  -3   41.24    2.34
  -3  -4   3   37.76    2.23
   3   4   3   38.51    2.42
   3  -4  -3   41.72    2.94
  -3  -4   3   38.21    2.78
   4  -3   3   34.81    2.35
   3   4   3   33.50    2.10
  -4   3   3   37.44    2.14
  -4   3   3   37.55    2.31
   4  -3   3   37.33    2.74
   4  -4   3   91.47    4.25
   4   4   3   88.54    4.00
  -4   4   3   88.04    4.19
   4   4  -3   84.75    3.98
  -4   4  -3   85.18    4.02
  -4  -4   3   89.08    4.11
  -4  -4   3   84.66    4.67
   4  -4  -3   90.61    4.88
   4  -4   3   90.22    4.86
  -4  -4  -3   95.75    3.99
   4   4   3   83.92    4.07
  -4   4   3   88.59    3.96
   0  -5  -3   26.44    2.28
   5   0  -3   29.32    1.66
   0  -5   3   23.26    2.25
   0   5   3   24.76    1.84
  -5   0   3   26.40    1.95
   5   0   3   28.19    2.15
   0   5   3   23.94    1.75
   5   0   3   24.30    1.92
   0   5  -3   27.56    1.88
  -5   0  -3   27.69    2.07
  -5   0  -3   28.01    1.51
  -1  -5  -3   11.54    1.61
  -5  -1   3   14.93    1.53
   5   1   3   17.00    1.71
  -1   5   3   15.75    1.51
  -5  -1   3   15.88    1.83
   5   1   3   17.85    1.54
  -5   1  -3   16.86    1.71
   1   5  -3   15.19    1.53
   5  -1  -3   17.15    2.01
  -1   5   3   14.03    1.37
   5  -1  -3   17.80    1.24
   1  -5   3   19.48    2.00
   5  -1   3   15.09    1.71
  -1  -5   3   17.21    1.30
   1   5   3   19.13    1.67
  -1  -5   3   14.65    1.88
   1   5   3   16.30    1.40
   5  -1   3   14.81    1.56
  -5   1   3   13.20    1.46
  -5  -1  -3   13.41    1.14
  -1   5  -3   19.10    1.59
  -1   5  -3   14.72    1.29
   5   1  -3   13.05    1.24
  -5  -1  -3   17.88    1.68
   1  -5  -3   16.92    1.94
  -5  -2   3   24.60    2.30
   5  -2  -3   27.58    2.37
  -5  -2   3   27.37    1.96
   2  -5   3   29.05    2.35
   5   2   3   28.30    2.08
   5   2   3   27.64    1.95
  -2  -5  -3   26.95    1.76
  -2   5   3   25.59    1.88
   2   5  -3   28.49    1.85
  -2  -5  -3   27.36    2.19
   5  -2  -3   26.90    1.58
  -5   2  -3   29.33    2.15
  -2   5   3   25.47    1.85
  -2   5  -3   27.19    1.76
  -2  -5   3   27.89    1.74
   5   2  -3   28.09    1.70
   2   5   3   24.02    1.86
  -2  -5   3   26.42    2.26
  -5   2   3   26.10    1.94
  -2   5  -3   26.72    1.93
   5  -2   3   24.39    1.91
   5  -2   3   25.50    2.22
   2   5   3   27.58    1.67
   2  -5  -3   24.26    2.40
  -5  -2  -3   27.52    1.63
  -3  -5  -3   26.45    1.82
   5  -3  -3   32.41    2.59
  -5  -3   3   28.38    2.39
  -5   3  -3   29.59    2.21
   5   3   3   30.71    2.08
   3   5  -3   26.41    1.89
   5   3   3   29.18    2.16
  -3   5   3   26.95    1.93
  -5  -3   3   34.22    2.28
  -3   5   3   36.17    2.07
   3  -5   3   25.10    1.91
   3  -5   3   26.41    2.33
   3   5   3   30.82    2.20
  -3  -5   3   28.55    1.98
   5   3  -3   27.20    1.83
  -3  -5   3   31.98    2.48
   3   5   3   31.64    1.91
  -3   5  -3   29.40    1.93
   5  -3   3   27.31    2.09
  -5   3   3   25.48    1.97
  -5  -3  -3   27.42    1.70
   5  -3   3   26.85    2.34
   3  -5  -3   34.63    2.65
   4  -5   3   62.82    3.19
   5   4   3   55.57    3.18
  -4  -5  -3   56.38    2.81
  -4   5   3   47.63    2.92
   5   4   3   60.28    3.08
   4   5  -3   53.23    2.88
  -5  -4   3   54.53    3.58
  -4   5   3   57.93    2.93
   5  -4  -3   55.94    3.67
  -5  -4   3   58.26    3.17
  -5   4  -3   54.26    3.11
   4  -5   3   57.57    3.69
  -4  -5   3   54.61    3.50
  -4  -5   3   59.92    3.13
   4  -5  -3   57.54    3.79
  -5   4   3   52.16    3.02
   5  -4   3   66.00    3.79
  -5  -4  -3   59.53    2.80
   4   5   3   58.10    2.94
  -4   5  -3   56.95    3.02
   5  -4   3   53.63    3.04
   5   4  -3   55.33    2.83
   4   5   3   57.73    3.12
   5   5   3   52.72    2.96
   5   5   3   55.53    3.09
   5  -5   3   55.43    3.77
   5  -5   3   60.04    3.23
  -5  -5  -3   61.09    2.94
  -5  -5   3   57.45    3.25
  -5   5  -3   59.05    3.11
  -5   5   3   57.22    3.00
   5  -5  -3   56.55    3.83
  -5  -5   3   52.08    3.52
   5   5  -3   55.58    2.95
  -5   5   3   62.64    3.24
   6   0   3    4.96    1.32
   0   6   3    3.50    0.86
  -6   0  -3    3.23    1.19
   0   6   3    2.66    0.91
   6   0  -3    3.14    1.16
   6   0   3    3.72    1.01
   6   0  -3    3.98    0.82
   0  -6   3    2.96    1.13
  -6   0   3    2.32    0.95
   0   6  -3    3.51    0.98
   0  -6  -3    3.83    1.23
  -6  -1   3   68.91    3.95
   6  -1  -3   64.10    2.95
   1  -6   3   66.59    3.98
   1   6  -3   65.27    3.28
  -1  -6  -3   62.94    3.74
   6  -1  -3   65.66    4.00
  -1   6   3   60.77    3.24
   6   1   3   64.82    3.40
  -1   6   3   65.33    3.23
  -6  -1   3   68.12    3.52
  -6   1  -3   71.54    3.68
  -1   6  -3   66.77    3.40
   1  -6  -3   62.91    3.92
   1   6   3   61.41    3.34
  -6  -1  -3   62.79    2.85
  -6   1   3   60.50    3.38
  -1  -6   3   62.48    3.85
  -6  -1  -3   67.22    3.56
   6   1  -3   65.54    3.03
   6  -1   3   60.34    3.39
   6  -1   3   72.38    3.80
  -2  -6  -3   35.77    2.48
  -2   6   3   36.78    2.30
  -6  -2   3   33.88    2.57
   2   6  -3   34.58    2.13
  -2  -6  -3   35.26    2.10
  -6  -2   3   31.80    2.38
  -6   2  -3   29.16    2.39
   6   2   3   32.97    2.21
   2  -6   3   32.87    2.64
   6  -2  -3   34.16    2.67
  -2   6   3   32.50    2.12
  -2   6  -3   33.09    1.96
   6  -2   3   33.61    2.26
   2  -6  -3   33.25    2.77
   6   2  -3   31.86    1.96
  -2  -6   3   32.03    2.16
   6  -2   3   35.26    2.60
   2   6   3   32.79    2.20
  -2   6  -3   32.33    2.26
  -6   2   3   30.66    2.24
  -6  -2  -3   28.77    1.81
  -2  -6   3   31.12    2.53
  -3   6   3   39.62    2.35
  -3   6   3   33.07    2.32
  -6   3  -3   40.24    2.66
   6  -3  -3   37.79    2.89
  -6  -3   3   37.09    2.82
   6   3   3   34.95    2.43
   3   6  -3   34.46    2.18
   3  -6   3   37.69    2.87
  -6  -3   3   40.30    2.60
  -3  -6  -3   42.26    2.30
   6   3   3   37.02    2.46
  -3  -6   3   31.13    2.70
   3   6   3   40.69    2.44
   6  -3   3   35.42    2.39
   6  -3   3   35.20    2.77
  -3  -6   3   38.77    2.29
   3  -6  -3   34.17    2.82
  -6  -3  -3   35.08    1.98
   6   3  -3   35.74    2.08
  -3   6  -3   34.36    2.40
  -6   3   3   36.04    2.41
  -3   6  -3   38.79    2.24
  -6   4  -3    6.52    1.29
  -4   6   3    9.04    1.33
  -4  -6  -3   10.91    1.24
   6   4   3    9.93    1.46
   6  -4  -3   11.22    1.84
  -4   6   3   10.69    1.41
   4   6  -3    9.17    1.33
   4  -6   3   12.48    2.00
  -6  -4   3    9.27    1.51
   6   4   3   11.26    1.64
   4  -6   3    9.24    1.32
  -6  -4   3    8.09    1.51
  -6  -4  -3   10.93    1.22
   4  -6  -3   10.24    1.80
   6   4  -3   11.38    1.24
   6  -4   3    8.40    1.39
  -4  -6   3   11.51    1.67
  -6   4   3    7.93    1.36
   6  -4   3   10.55    1.81
  -4  -6   3   12.68    1.54
   4   6   3   10.27    1.31
   4   6   3   10.57    1.52
  -4   6  -3   12.26    1.45
   5   6  -3   36.59    2.33
  -5  -6  -3   37.74    2.24
   6   5   3   38.26    2.52
  -6   5  -3   38.00    2.53
  -5   6   3   39.05    2.40
  -6  -5   3   38.01    2.73
  -5   6   3   38.92    2.46
   6   5   3   36.24    2.45
   5  -6   3   34.42    2.48
   5  -6   3   36.58    2.96
  -6  -5   3   36.95    2.77
   6  -5  -3   35.46    3.10
   6  -5   3   38.28    2.48
  -5  -6   3   30.71    2.63
   5  -6  -3   38.84    3.20
   6  -5   3   36.54    3.01
   5   6   3   35.60    2.46
   5   6   3   33.39    2.29
   6   5  -3   38.83    2.31
  -5  -6   3   39.16    2.62
  -6  -5  -3   35.90    2.16
  -5   6  -3   34.60    2.29
  -6   5   3   32.45    2.38
  -6  -6   3   18.92    2.22
   6  -6   3   24.32    2.14
  -6   6   3   20.15    1.90
  -6  -6   3   21.22    2.12
   6  -6  -3   19.04    2.41
   6   6  -3   20.86    1.83
   6   6   3   23.15    2.00
   6   6   3   21.57    1.98
  -6   6  -3   23.50    2.05
  -6  -6  -3   24.58    1.78
   6  -6   3   24.38    2.69
   0   7   3  132.12    5.68
   7   0  -3  134.93    5.39
  -7   0  -3  139.76    6.05
   7   0  -3  135.62    6.66
  -7   0   3  129.29    5.96
   0   7  -3  133.43    5.75
   7   0   3  128.70    5.89
   0   7   3  130.49    5.66
   0  -7   3  128.28    6.65
   0  -7  -3  127.63    6.49
   1   7  -3   22.10    1.82
   1  -7   3   20.77    2.23
  -1  -7  -3   25.84    1.83
  -1   7   3   24.83    1.99
  -7   1  -3   24.81    2.34
   7  -1  -3   28.51    2.59
  -7  -1   3   28.45    2.26
  -1   7   3   25.25    1.85
   7   1   3   26.88    2.10
   7  -1  -3   27.81    1.64
  -1  -7  -3   22.68    2.15
  -7   1   3   23.31    2.15
   1   7   3   25.28    2.00
   7   1  -3   23.69    1.65
  -1   7  -3   28.59    2.04
   1  -7  -3   24.23    2.43
   7  -1   3   24.36    1.99
  -1  -7   3   24.42    2.31
  -7  -1  -3   21.73    2.04
   7   1  -3   23.95    2.40
  -7  -2   3    1.79    1.03
   7  -2  -3    1.48    1.23
  -2   7   3    2.67    0.99
  -7  -2   3    1.61    1.03
   2  -7   3    4.55    1.32
   2   7  -3    2.77    0.89
  -2   7   3    3.56    1.03
  -7   2  -3    0.04    0.88
   7   2   3    0.47    0.85
  -2  -7  -3    2.12    0.84
   7  -2   3    0.77    0.99
   7   2  -3    2.74    0.87
  -7  -2  -3   -0.33    1.08
  -2   7  -3   -0.46    0.83
   7  -2   3    1.48    1.04
  -7  -2  -3    1.55    0.70
  -7   2   3    1.51    1.07
   2   7   3   -0.08    0.90
   2  -7  -3   -0.33    0.98
  -2  -7   3    0.55    1.05
  -2   7  -3    1.48    0.74
  -3   7   3   19.91    1.79
   3  -7   3   21.58    2.30
  -7   3  -3   20.36    2.09
  -3   7   3   20.58    1.87
   7  -3  -3   19.61    2.35
  -7  -3   3   16.22    1.88
   3   7  -3   21.37    1.73
  -3  -7  -3   22.27    1.72
   7   3   3   17.54    1.86
  -7  -3   3   18.78    2.04
   7   3   3   21.05    2.02
   3   7   3   18.45    1.79
  -7  -3  -3   23.07    1.56
  -3   7  -3   20.73    1.60
  -7   3   3   24.28    2.12
  -3  -7   3   18.75    2.16
   3  -7  -3   20.91    2.24
   7   3  -3   20.41    1.71
   7  -3   3   23.41    2.33
  -3   7  -3   18.20    1.75
   7  -3   3   22.03    1.94
  -4   7   3   40.27    2.57
  -7   4  -3   35.00    2.52
   4   7  -3   39.43    2.33
   7  -4  -3   37.77    3.16
  -7  -4   3   43.38    2.92
  -4   7   3   41.71    2.53
   7   4   3   39.13    2.68
   7   4   3   35.22    2.53
  -4  -7  -3   38.47    2.28
   4  -7   3   35.16    3.11
  -7  -4   3   36.42    2.77
   4   7   3   35.87    2.45
  -7   4   3   36.76    2.56
   7   4  -3   34.78    2.20
   4  -7  -3   38.83    3.19
   7  -4   3   41.75    3.13
  -4   7  -3   39.26    2.32
  -7  -4  -3   35.65    2.15
  -4  -7   3   33.13    2.47
   7  -4   3   36.49    2.63
  -4   7  -3   36.14    2.44
  -4  -7   3   35.03    2.78
  -5   7   3   11.40    1.53
   5  -7   3   12.69    1.55
   7   5   3   17.09    1.95
   5  -7   3   13.13    2.22
  -7   5  -3   13.70    1.69
  -7  -5   3   14.31    1.89
  -5  -7  -3   11.80    1.35
  -5   7   3   12.33    1.60
   7  -5  -3   14.27    2.34
   7   5   3   15.28    1.90
  -7  -5   3   19.20    2.23
   5   7  -3   14.60    1.66
  -5   7  -3   17.91    1.72
   7  -5   3   15.33    1.85
   7  -5   3   13.43    2.21
   7   5  -3   13.51    1.44
  -7   5   3    9.59    1.50
  -5  -7   3   12.83    1.70
   5  -7  -3   16.11    2.21
  -5  -7   3   13.87    1.87
  -7  -5  -3   14.69    1.42
   5   7   3   15.89    1.90
  -6   7   3    9.88    1.51
  -7  -6   3   10.01    1.79
   6  -7   3    9.27    2.02
   7   6   3    8.91    1.55
   7   6   3    7.54    1.59
  -7  -6   3    9.75    1.87
  -6   7   3   10.47    1.60
  -6  -7  -3    9.86    1.28
  -7   6  -3   10.34    1.57
   6   7  -3   10.32    1.43
   6  -7   3   10.38    1.62
   7  -6  -3    9.74    2.07
   7  -6   3    9.05    1.48
  -7  -6  -3    9.11    1.23
  -6   7  -3    7.49    1.33
  -6  -7   3   10.17    1.69
  -6  -7   3    8.79    1.75
   6  -7  -3    5.00    1.57
   7  -6   3   10.68    2.01
  -7   6   3    8.87    1.46
   6   7   3   10.53    1.59
   7   6  -3   10.45    1.48
   6   7   3    8.76    1.53
   7   7   3   50.55    3.15
  -7  -7  -3   53.76    2.80
   7  -7   3   49.21    3.11
  -7  -7   3   51.36    3.60
  -7   7  -3   50.09    3.09
   7   7   3   54.94    3.43
  -7  -7   3   54.84    3.65
   7  -7  -3   51.01    3.93
  -7   7   3   48.97    3.10
   7  -7   3   54.66    4.19
   7   7  -3   47.76    2.83
   8   0  -3    0.05    0.98
   0   8  -3    2.84    1.09
  -8   0   3    0.65    1.12
  -8   0  -3    1.96    1.19
   8   0   3    0.68    1.06
   0  -8   3    0.47    1.11
   8   0  -3    1.98    0.82
   0   8   3    1.23    0.92
   0  -8  -3    2.32    0.91
   0  -8  -3    0.86    1.13
   1   8  -3   59.15    3.14
   8   1   3   61.18    3.63
  -1  -8  -3   61.07    3.13
   1  -8   3   52.62    3.66
  -1   8   3   52.65    3.05
  -8  -1   3   67.36    3.77
   8  -1  -3   57.73    3.95
  -1   8   3   48.22    3.07
  -8   1  -3   66.49    3.68
  -8   1   3   62.47    3.49
  -8  -1  -3   56.85    3.37
   8  -1   3   56.74    3.37
  -1  -8   3   58.76    3.85
   8   1  -3   56.84    3.66
   8   1  -3   54.92    2.79
  -1   8  -3   61.71    3.33
   1   8   3   62.81    3.37
   1  -8  -3   62.69    3.90
  -2   8   3    4.19    1.13
   2   8  -3    2.62    1.02
  -8   2  -3    4.06    1.40
  -2   8   3    3.70    1.16
  -8  -2   3    4.02    1.31
   8  -2  -3    1.75    1.23
  -2  -8  -3    3.99    1.07
   8   2   3    4.49    1.26
   2  -8   3    3.71    1.30
  -2  -8   3    2.68    1.18
  -8  -2  -3    5.75    1.39
   2  -8  -3    3.98    1.48
  -2   8  -3    2.31    1.14
   2   8   3    3.96    1.13
   8   2  -3    1.97    1.32
   8   2  -3    3.39    0.91
  -8   2   3    3.88    1.18
   8  -2   3    6.47    1.33
  -8   3  -3   33.13    2.57
  -3   8   3   31.05    2.23
  -8  -3   3   28.14    2.62
   3   8  -3   29.22    2.10
  -8  -3   3   27.60    2.52
  -3  -8  -3   29.54    2.18
   8  -3  -3   28.60    2.81
   8   3   3   27.88    2.48
  -3   8   3   26.52    2.10
   3  -8   3   32.31    2.92
  -3  -8   3   30.97    2.68
  -8   3   3   32.20    2.55
   3  -8  -3   26.55    2.72
   8  -3   3   29.50    2.43
  -3   8  -3   33.19    1.98
   8  -3   3   30.31    2.76
   3   8   3   30.45    2.38
  -8  -3  -3   28.45    2.38
   8   3  -3   33.36    2.10
  -3   8  -3   26.32    2.24
  -8  -3  -3   33.28    1.96
  -4   8   3   31.41    2.28
  -8   4  -3   32.67    2.53
   8   4   3   28.04    2.54
  -4   8   3   32.75    2.38
  -8  -4   3   24.10    2.54
   4  -8   3   34.65    3.12
  -4  -8  -3   30.15    2.08
   4   8  -3   30.27    2.16
   8   4   3   28.45    2.45
  -8  -4   3   31.75    2.67
   8  -4  -3   33.29    2.85
  -4   8  -3   31.41    2.37
   8  -4   3   26.76    2.31
   8   4  -3   34.06    2.19
  -4   8  -3   26.13    1.97
   4  -8  -3   28.87    2.84
  -4  -8   3   29.80    2.56
   4   8   3   26.98    2.21
  -8  -4  -3   32.13    2.00
  -8   4   3   31.26    2.54
   8  -4   3   36.18    2.97
  -5   8   3    8.42    1.44
   8   5   3    9.65    1.61
  -8   5  -3    9.47    1.64
  -8  -5   3   13.14    2.19
  -5   8   3    8.18    1.49
   8  -5  -3    9.13    1.91
   5  -8   3   11.24    2.17
  -5  -8  -3   10.86    1.47
   5   8  -3    9.49    1.44
   8   5   3    9.20    1.76
  -8  -5   3   10.21    1.79
  -8   5   3    7.03    1.45
  -5  -8   3    8.19    1.78
   5   8   3    8.74    1.47
  -5  -8   3   11.56    1.80
   8  -5   3   10.73    1.61
  -5   8  -3    9.61    1.40
   8  -5   3    7.14    1.89
  -8  -5  -3    9.77    1.34
   8   5  -3    7.26    1.20
   5  -8  -3    8.75    1.74
  -6   8   3   21.30    2.18
   8   6   3   33.45    2.78
  -8  -6   3   21.99    2.55
   8   6   3   21.80    2.14
   6   8  -3   26.47    2.14
   6  -8   3   24.98    2.87
   6  -8   3   24.08    2.07
  -6   8   3   22.05    2.15
  -6  -8  -3   23.35    1.85
   8  -6  -3   27.33    2.76
  -8  -6   3   26.81    2.56
  -8   6  -3   19.94    2.21
   6  -8  -3   26.35    2.90
   8  -6   3   23.68    2.31
   8   6  -3   23.64    1.91
  -8  -6  -3   26.52    1.93
  -6  -8   3   26.62    2.56
   6   8   3   20.94    2.11
  -8   6   3   26.74    2.25
  -6  -8   3   23.50    2.62
  -6   8  -3   24.26    2.08
   8  -6   3   23.14    2.93
  -7  -8  -3    3.53    1.07
   8   7   3    1.10    1.13
  -7   8   3    1.10    1.27
  -8   7  -3    3.10    1.22
  -7   8   3    2.20    1.12
   7   8  -3    3.35    1.18
   7  -8   3    1.51    1.09
   8   7   3    1.62    1.39
   8  -7  -3    2.68    1.50
  -8  -7   3    0.14    1.23
  -8  -7   3    0.04    1.47
   7  -8   3   -0.18    1.40
   8   7  -3    3.45    1.19
  -8   7   3    1.00    1.03
  -7  -8   3    2.18    1.56
  -8  -7  -3    3.45    0.99
   7  -8  -3   -0.96    1.28
  -7  -8   3    2.22    1.33
   7   8   3    0.69    1.10
   8  -7   3    2.59    1.33
  -7   8  -3    2.96    1.19
   8  -7   3    3.01    1.80
   8   8   3   40.60    2.96
  -8  -8   3   38.85    3.74
  -8  -8  -3   44.94    2.82
  -8   8   3   48.15    3.12
   8  -8  -3   48.45    3.65
  -8   8  -3   42.86    2.83
   8  -8   3   50.90    3.29
  -8  -8   3   49.00    3.48
   8   8  -3   45.12    2.84
   8   8   3   45.89    3.58
   8  -8   3   50.31    4.44
   0   9   3    3.73    1.27
   9   0  -3    2.57    1.26
   0  -9  -3    2.84    0.99
  -9   0  -3    2.05    1.17
  -9   0   3    1.58    1.14
   0   9  -3    2.33    1.01
   0  -9   3    2.65    1.39
   9   0  -3    2.51    0.92
   0  -9  -3    1.23    1.18
   9   0   3    1.41    1.13
  -1  -9  -3    0.41    0.81
   9  -1  -3    1.44    1.22
  -9   1  -3    2.70    1.20
   9   1   3   -0.33    1.01
   1  -9   3   -0.14    1.03
  -9  -1   3    2.49    1.21
  -1   9   3   -0.13    0.94
   1   9  -3    1.13    1.00
   1  -9  -3    1.11    1.20
   1   9   3    2.22    1.13
   9  -1   3   -0.22    0.95
   9   1  -3   -0.30    1.07
  -9   1   3    1.81    1.19
   9   1  -3    0.78    0.86
  -1   9  -3    0.85    1.02
  -1  -9   3    1.51    1.10
  -9  -1  -3   -0.16    1.10
   2   9  -3   51.54    2.96
  -2   9   3   53.76    3.12
   9   2   3   61.85    3.74
   2  -9   3   56.56    3.92
  -9   2  -3   59.42    3.59
  -2   9   3   53.17    2.99
  -2  -9  -3   52.61    3.01
  -9  -2   3   57.11    3.69
   9  -2  -3   54.25    3.78
  -2   9  -3   55.72    3.25
   2   9   3   55.02    3.30
  -9   2   3   53.20    3.37
   9   2  -3   51.04    3.63
  -2  -9   3   47.86    3.57
   9   2  -3   47.29    2.75
   9  -2   3   55.00    3.35
   2  -9  -3   53.80    3.66
  -9  -2  -3   51.61    3.29
   9  -3  -3    3.69    1.44
  -9  -3   3    6.48    1.72
   9   3   3    6.50    1.68
  -3   9   3    2.85    1.23
  -3   9   3    4.86    1.19
   3   9  -3    3.47    1.01
  -3  -9  -3    4.89    1.11
  -9   3  -3    4.83    1.36
   3  -9   3    4.57    1.50
   9   3  -3    4.46    1.12
  -3   9  -3    4.25    1.25
  -3   9  -3    6.24    1.11
   9  -3   3    3.17    1.30
   9   3  -3    6.26    1.64
   3   9   3    5.86    1.36
  -9   3   3    2.26    1.26
  -9  -3  -3    3.31    1.29
  -3  -9   3    3.48    1.34
   3  -9  -3    5.35    1.68
  -9  -4   3    2.11    1.36
  -4   9   3    5.76    1.28
  -9  -4   3    2.91    1.24
   9  -4  -3    3.44    1.49
  -4   9   3    2.31    1.03
  -9   4  -3    2.93    1.21
  -4  -9  -3    2.30    0.95
   4   9  -3    4.67    1.18
   9   4   3    0.74    1.37
   4  -9   3    1.58    1.32
  -9   4   3    2.34    1.20
  -4   9  -3    3.34    1.17
  -9  -4  -3    4.33    0.98
   9   4  -3    3.36    1.13
  -4   9  -3    1.73    0.96
   9  -4   3    3.13    1.23
  -4  -9   3    4.13    1.37
   4   9   3    1.71    1.10
   4  -9  -3    1.35    1.50
   5   9  -3   44.50    2.87
  -5   9   3   51.08    3.15
  -9  -5   3   41.89    3.21
   9  -5  -3   43.27    3.45
  -5  -9  -3   47.60    2.74
  -9   5  -3   41.99    2.86
  -5   9   3   47.76    2.96
   9   5   3   41.36    3.26
   9   5   3   41.72    2.90
   5  -9   3   45.30    3.82
  -9  -5   3   43.53    3.55
  -5   9  -3   38.22    2.71
  -5  -9   3   43.96    3.19
   5   9   3   41.66    2.83
  -5   9  -3   39.47    2.54
  -9  -5  -3   48.43    2.63
  -9   5   3   48.53    3.19
   5  -9  -3   36.70    3.34
   9   5  -3   48.93    2.86
   9  -5   3   43.37    3.18
   9  -5   3   49.51    3.91
  -9   6  -3    9.47    1.64
  -6   9   3   11.17    1.68
   6  -9   3    9.76    2.28
   6   9  -3    9.08    1.47
   9  -6  -3    9.86    2.01
  -9  -6   3    9.55    2.06
  -6   9   3   11.32    1.87
   9   6   3    7.86    1.67
  -9  -6   3    8.56    1.77
  -6  -9  -3    9.86    1.42
   9   6   3   11.16    2.11
  -6   9  -3    7.35    1.27
  -6  -9   3    7.58    1.92
   9  -6   3   12.58    2.53
  -9  -6  -3   10.95    1.49
   9   6  -3   11.51    1.55
   6  -9  -3    8.16    2.08
   6   9   3    7.27    1.46
  -9   6   3    8.13    1.61
  -6  -9   3    6.67    1.70
   9  -6   3   11.06    1.91
  -9   7  -3    6.36    1.51
   7  -9   3    6.00    1.39
  -7   9   3    7.25    1.56
  -7   9   3    6.72    1.64
  -9  -7   3    3.59    1.46
  -9  -7   3    7.58    2.22
   7   9  -3    7.13    1.37
   9   7   3    6.19    1.57
   9   7   3    5.61    1.96
   9  -7  -3    6.71    1.95
   7  -9   3    7.97    2.22
  -7  -9  -3    6.98    1.30
  -9  -7  -3    4.64    1.18
   9  -7   3    7.96    1.65
   7   9   3    5.24    1.47
  -9   7   3    2.65    1.34
   9   7  -3    5.46    1.39
  -7  -9   3    5.95    1.71
  -7   9  -3    4.75    1.35
  -7  -9   3    5.68    1.93
   9  -7   3    6.69    2.30
   7  -9  -3    7.33    1.94
  -9  -8   3    1.00    1.32
   9   8   3    1.61    1.21
   9  -8  -3   -0.09    1.62
  -9   8  -3    1.53    1.19
   8   9  -3    1.40    1.09
  -9  -8   3   -0.82    1.40
  -8  -9  -3    1.20    0.95
   9   8   3    1.50    1.66
   8  -9   3    1.20    1.25
   8  -9   3    1.08    1.96
  -8   9   3    2.66    1.32
   8  -9  -3   -0.15    1.68
   9  -8   3    0.31    1.65
   8   9   3    1.99    1.20
   9   8  -3    0.32    1.01
  -8   9  -3    2.07    1.25
  -8  -9   3    0.99    1.30
  -9   8   3   -0.93    1.15
   9  -8   3   -0.23    1.20
  -9  -8  -3    2.36    1.00
  -8  -9   3   -0.54    1.58
  -9  -9   3   51.12    3.79
  -9  -9   3   41.57    4.27
   9  -9   3   50.72    4.96
  -9   9   3   50.83    3.37
   9   9   3   57.42    3.52
   9   9  -3   54.95    3.30
   9  -9  -3   55.14    4.03
   9  -9   3   48.84    3.45
  -9   9  -3   51.53    3.35
  -9  -9  -3   49.18    3.06
  10   0   3    0.99    1.23
 -10   0   3    4.84    1.44
   0  10   3    2.42    1.17
   0 -10  -3    1.49    0.94
  10   0  -3    4.79    1.50
 -10   0  -3    4.35    1.41
   0 -10   3    1.85    1.31
   0  10  -3    3.62    1.14
   1  10  -3   25.14    2.19
   1 -10   3   24.14    2.60
  10  -1  -3   29.18    2.73
 -10  -1   3   32.47    2.87
  -1 -10  -3   23.22    2.11
  10   1   3   29.39    2.82
 -10   1  -3   26.52    2.61
  -1  10   3   25.25    2.32
   1 -10  -3   31.77    2.35
  -1  10  -3   25.82    2.19
   1 -10  -3   29.51    2.58
 -10  -1  -3   23.14    2.31
  10  -1   3   23.62    2.39
  -1 -10   3   25.75    2.62
  10   1  -3   23.18    2.44
  10   1  -3   22.14    1.84
 -10   1   3   22.89    2.44
   1  10   3   26.30    2.30
 -10  -2   3   16.77    2.47
   2 -10   3   17.26    2.32
  -2 -10  -3   14.91    1.71
   2  10  -3   16.61    1.88
  10   2   3   18.28    2.33
  -2  10   3   19.09    1.99
 -10   2  -3   18.59    2.30
  10  -2  -3   18.93    2.54
  10  -2   3   17.59    2.12
 -10  -2  -3   18.33    2.10
  10   2  -3   16.26    1.72
  -2 -10   3   20.52    2.31
   2 -10  -3   16.95    2.30
  -2  10  -3   18.78    2.05
 -10   2   3   19.18    2.37
   2  10   3   19.73    2.03
  10   2  -3   22.39    2.48
 -10  -3   3   22.24    2.64
 -10   3  -3   20.55    2.21
  -3  10   3   16.84    2.06
  10  -3  -3   22.99    2.57
  -3 -10  -3   17.63    1.79
  -3  10   3   21.39    1.93
   3 -10   3   18.83    2.51
  10   3   3   22.54    2.57
 -10  -3  -3   17.18    2.11
  10   3  -3   21.36    2.33
   3 -10  -3   19.75    2.50
  10   3  -3   20.51    1.87
 -10   3   3   18.64    2.20
   3  10   3   22.72    2.16
  -3 -10   3   21.69    2.38
  10  -3   3   21.33    2.24
  -3  10  -3   22.34    2.07
  10  -4  -3    6.90    1.85
  -4  10   3   12.78    1.83
   4 -10   3   12.41    2.33
  10   4   3   10.26    2.19
  -4  10   3   10.48    1.76
 -10   4  -3    8.85    1.64
 -10  -4   3   12.12    2.20
  -4 -10  -3    9.67    1.48
   4  10  -3   13.39    1.80
  10  -4   3   13.22    1.98
  -4  10  -3   11.21    1.40
  -4  10  -3   12.27    1.71
  -4 -10   3   10.20    1.85
 -10   4   3   10.83    1.92
 -10  -4  -3   10.01    1.84
  10   4  -3   10.68    1.86
  10   4  -3   10.64    1.48
   4  10   3   12.71    1.88
   4 -10  -3   13.73    2.19
   5 -10   3   20.55    3.04
 -10  -5   3   18.94    2.35
 -10  -5   3   16.51    2.64
  -5  10   3   18.14    1.90
 -10   5  -3   17.59    2.06
  10  -5  -3   16.20    2.63
  10   5   3   19.54    2.62
  -5 -10  -3   19.29    1.79
   5  10  -3   14.90    1.75
  -5  10   3   15.61    2.00
   5  10   3   20.92    2.11
 -10   5   3   15.77    2.06
  10   5  -3   17.20    1.77
  10  -5   3   17.96    2.12
  -5  10  -3   18.02    1.84
  -5  10  -3   14.82    1.87
 -10  -5  -3   17.46    1.68
   5 -10  -3   20.60    2.65
  -5 -10   3   18.59    2.39
  10   6   3   19.33    2.74
  -6 -10  -3   24.07    2.05
  -6  10   3   28.37    2.41
 -10   6  -3   21.52    2.24
   6  10  -3   22.15    2.03
  10  -6  -3   22.25    2.92
 -10  -6   3   23.26    2.56
   6 -10   3   20.69    3.06
  10   6   3   18.54    2.18
 -10  -6   3   23.35    3.10
  -6  10   3   23.29    2.51
 -10  -6  -3   23.75    1.98
  10  -6   3   21.89    2.34
  10   6  -3   25.09    2.23
  -6  10  -3   21.92    2.29
  -6  10  -3   19.15    1.88
   6 -10  -3   26.37    2.94
 -10   6   3   21.42    2.33
   6  10   3   22.27    2.23
  -6 -10   3   22.24    2.60
  10   7   3    3.36    1.53
  10  -7  -3    0.89    1.44
  -7  10   3    2.46    1.50
  -7  10   3    4.15    1.32
  10   7   3    2.03    1.99
  -7 -10  -3    2.73    1.12
   7  10  -3    1.84    1.20
 -10   7  -3    3.33    1.35
   7 -10   3    6.12    2.42
 -10  -7   3    4.04    1.53
 -10  -7   3    1.02    1.82
  10  -7   3    2.88    2.19
   7  10   3    1.49    1.22
 -10   7   3    4.81    1.52
  -7  10  -3    4.39    1.47
   7 -10  -3    3.97    1.63
 -10  -7  -3    3.92    1.14
  -7  10  -3    4.67    1.24
  10   7  -3    4.61    1.30
  10  -7   3    3.41    1.42
  -7 -10   3    3.86    1.39
   8 -10   3   14.67    3.09
 -10  -8   3   17.57    2.38
  10  -8  -3   23.47    2.78
   8 -10   3   21.00    2.30
   8  10  -3   20.30    2.15
 -10  -8   3   17.34    2.98
  -8  10   3   17.62    2.29
  10   8   3   17.67    2.21
  -8  10   3   17.53    2.64
  -8 -10  -3   17.90    1.90
  10   8   3   20.88    2.98
 -10   8  -3   17.14    2.09
  10  -8   3   20.13    3.62
   8  10   3   16.30    2.18
   8 -10  -3   16.66    2.69
  10   8  -3   18.77    2.03
 -10   8   3   19.06    2.43
  -8 -10   3   16.85    2.26
 -10  -8  -3   18.98    1.84
  -8 -10   3   13.58    2.76
  10  -8   3   15.61    2.12
  -8  10  -3   15.88    2.13
 -10   9  -3    0.52    1.32
  -9  10   3   -0.01    1.16
  10   9   3   -0.65    1.15
   9 -10   3   -0.48    1.23
  -9 -10  -3    1.39    1.20
  10  -9  -3    0.29    1.77
 -10  -9   3    1.02    1.68
   9  10  -3    2.25    1.38
   9 -10   3    1.89    2.24
 -10  -9   3    0.64    1.25
 -10  -9  -3   -0.53    1.08
  10   9  -3    0.55    1.30
 -10   9   3    1.24    1.28
  10  -9   3    1.10    2.42
   9  10   3    0.42    1.24
   9 -10  -3   -0.43    1.57
  -9  10  -3    0.55    1.25
  -9 -10   3   -1.57    1.43
  10  -9   3    0.05    1.18
  -9 -10   3   -1.26    1.22
 -10  10  -3    6.28    1.58
 -10 -10   3    4.89    1.73
 -10  10   3    6.52    1.63
  10 -10   3    4.47    2.86
  10  10  -3    5.35    1.65
  10 -10   3    6.36    1.68
  10 -10  -3    5.13    1.97
 -10 -10   3    2.16    1.98
 -10 -10  -3    5.15    1.38
  10  10   3    7.22    1.79
 -11   0   3   79.24    4.72
  11   0  -3   73.16    4.64
   0 -11   3   70.98    4.64
  11   0   3   80.22    4.71
   0  11   3   70.73    3.99
   0  11  -3   71.68    3.94
   0 -11  -3   68.61    3.75
 -11   0  -3   70.37    4.17
  11   1   3   13.48    2.24
   1 -11   3   15.14    2.29
  11  -1  -3    8.40    1.87
 -11   1  -3   10.72    1.88
 -11  -1   3   11.52    2.17
  -1 -11  -3   13.04    1.73
   1  11  -3   13.97    1.87
  -1  11   3   13.97    1.91
  -1 -11   3   11.48    2.06
 -11   1   3   12.96    2.24
  11   1  -3   11.80    2.06
 -11  -1  -3   13.57    2.05
   1  11   3   10.27    1.79
  11  -1   3   11.48    2.12
   1 -11  -3   10.64    1.63
  -1  11  -3   13.91    1.71
  -2  11   3    2.02    1.30
 -11   2  -3    3.88    1.48
   2 -11   3    3.20    1.68
  11   2   3    6.45    1.81
   2  11  -3    5.00    1.30
  11  -2  -3    4.89    1.57
 -11  -2   3    1.86    1.62
  -2 -11  -3    4.56    1.20
  11  -2   3    4.54    1.54
  11   2  -3    4.96    1.20
  11   2  -3    4.63    1.48
 -11   2   3    2.62    1.57
 -11  -2  -3    4.41    1.53
   2 -11  -3    1.92    1.41
   2 -11  -3    3.07    1.25
  -2  11  -3    4.42    1.42
  -2 -11   3    3.90    1.62
   2  11   3    4.30    1.46
  11  -3  -3   31.30    3.20
  11   3   3   35.04    3.26
 -11  -3   3   24.69    3.17
  -3  11   3   31.54    2.67
 -11   3  -3   30.30    2.63
   3  11  -3   26.54    2.40
   3 -11   3   33.59    3.38
  -3 -11  -3   28.66    2.37
   3 -11  -3   31.23    2.92
  11   3  -3   31.63    2.32
   3  11   3   29.90    2.53
  -3  11  -3   31.51    2.55
 -11  -3  -3   29.64    2.66
  11   3  -3   28.53    2.75
  11  -3   3   32.57    2.93
  -3 -11   3   25.69    2.88
 -11   3   3   30.73    2.82
  -4  11   3   26.64    2.40
   4  11  -3   28.34    2.41
  -4  11   3   26.52    2.44
  11  -4  -3   29.47    2.96
  11   4   3   24.38    3.23
   4 -11   3   28.32    3.36
  -4 -11  -3   26.33    2.31
 -11  -4   3   28.43    3.25
 -11   4  -3   24.71    2.58
  11   4  -3   26.76    2.67
 -11   4   3   26.65    2.68
  11  -4   3   34.30    2.82
  -4 -11   3   27.37    2.84
   4  11   3   25.96    2.45
  -4  11  -3   27.36    2.49
  11   4  -3   30.24    2.33
   4 -11  -3   26.69    2.86
 -11  -4  -3   31.36    2.69
   5 -11   3    4.58    1.99
  11   5   3    6.66    2.32
 -11   5  -3    3.20    1.37
  -5  11   3    7.75    1.85
 -11  -5   3    5.89    1.97
  -5 -11  -3    8.67    1.53
   5  11  -3    8.60    1.55
  11  -5  -3    5.73    1.79
  -5  11   3    7.64    1.55
  11   5  -3    6.75    1.39
   5  11   3    2.87    1.38
  -5 -11   3    6.59    1.67
 -11   5   3   10.57    1.85
  -5  11  -3    5.26    1.25
  11  -5   3    6.46    1.63
  -5  11  -3    9.02    1.57
 -11  -5  -3    7.00    1.84
  11   5  -3    3.90    1.60
   5 -11  -3    4.45    1.80
  -6 -11  -3    3.25    1.13
   6 -11   3    5.40    2.10
  11  -6  -3    4.59    1.84
  -6  11   3    3.31    1.29
 -11  -6   3    3.26    1.80
 -11   6  -3    4.69    1.59
   6  11  -3    6.25    1.54
  -6  11   3    4.32    1.61
  11   6   3    5.48    2.39
 -11  -6  -3    4.94    1.28
   6 -11  -3    4.49    1.74
  11   6  -3    4.62    1.31
  -6  11  -3    4.64    1.47
   6  11   3    5.80    1.54
  11  -6   3    4.27    1.52
  -6 -11   3    3.00    1.56
  -6  11  -3    3.31    1.26
 -11   6   3    5.28    1.77
  -7 -11  -3   18.47    1.94
 -11   7  -3   19.87    2.25
  11   7   3   15.63    2.90
   7  11  -3   17.56    2.13
 -11  -7   3   15.62    2.21
  -7  11   3   17.00    2.03
  -7  11   3   14.67    2.40
   7 -11   3   20.65    3.67
 -11  -7   3   16.19    3.03
  11   7   3   22.37    2.38
  11  -7  -3   17.61    2.60
   7  11   3   22.88    2.35
   7 -11  -3   19.61    2.90
  11   7  -3   18.72    2.19
  -7  11  -3   16.77    1.93
 -11  -7  -3   17.89    1.98
  -7  11  -3   18.66    2.25
  11  -7   3   19.53    2.36
  -7 -11   3   15.46    2.43
 -11   7   3   17.05    2.27
  -8 -11  -3    4.52    1.31
  11  -8  -3    5.33    2.07
   8  11  -3    6.12    1.49
   8 -11   3    2.82    2.35
  11   8   3    8.04    2.61
 -11  -8   3    5.53    1.75
 -11  -8   3    5.68    2.22
  11   8   3    1.56    1.39
  -8  11   3    1.82    1.50
  -8  11   3    8.11    1.67
 -11   8  -3    6.79    1.72
  -8 -11   3    5.89    1.75
   8 -11  -3    7.79    2.28
 -11  -8  -3    5.28    1.30
 -11   8   3    7.50    1.74
  -8  11  -3    2.60    1.50
  11   8  -3    4.41    1.50
  11  -8   3    4.98    1.72
  11  -8   3    5.24    2.49
   8  11   3    7.33    1.63
  -8  11  -3    5.92    1.54
  -9  11   3   -0.31    1.31
  11   9   3    1.52    1.37
   9 -11   3   -2.49    2.19
 -11  -9   3    1.30    2.04
  -9 -11  -3    0.33    1.10
  11  -9  -3   -1.11    1.59
  11   9   3   -2.49    1.63
   9  11  -3    0.08    1.22
 -11  -9   3    0.36    1.33
 -11   9  -3   -0.64    1.09
 -11  -9  -3   -0.03    1.06
 -11   9   3   -0.29    1.42
  -9 -11   3   -0.50    1.38
   9  11   3   -1.01    1.20
  11  -9   3    1.17    2.43
  11   9  -3    1.98    1.47
  -9  11  -3    0.09    1.14
  11  -9   3   -1.14    1.37
  -9 -11   3   -1.23    1.77
   9 -11  -3    2.09    1.90
  10 -11   3    0.65    2.72
 -11 -10   3    4.04    2.26
  10  11  -3    2.98    1.58
 -11  10  -3    1.96    1.40
  10 -11   3    1.91    1.51
  11 -10  -3    1.31    1.73
 -10 -11  -3    4.25    1.35
 -11 -10   3    1.19    1.44
 -10  11   3    3.93    1.67
  11  10   3    2.51    1.48
 -10 -11   3    1.58    1.89
 -11 -10  -3    2.28    1.32
 -11  10   3    3.15    1.63
 -10 -11   3    3.96    1.70
  10 -11  -3    0.41    1.62
 -10  11  -3    1.39    1.39
  11 -10   3    2.14    1.47
  11 -10   3   -2.53    2.35
  11  10  -3    1.91    1.37
  10  11   3    0.86    1.42
 -11  11  -3   10.51    1.91
 -11 -11   3   15.69    3.33
 -11  11   3   15.54    2.29
  11 -11  -3    7.12    2.41
  11  11  -3   11.09    2.20
  11 -11   3   12.13    2.23
 -11 -11  -3   10.88    1.81
  11 -11   3    6.84    3.58
  11  11   3   13.37    2.30
   0  12  -3    1.10    1.09
   0  12   3    0.77    1.20
  12   0   3    1.06    1.49
 -12   0  -3    1.75    1.29
  12   0  -3    3.24    1.44
   0 -12   3    2.96    1.69
   0 -12  -3    2.35    1.27
 -12   0   3    2.36    1.62
  -1  12   3   13.97    2.14
 -12   1  -3   10.93    1.97
  -1 -12  -3   13.86    2.00
 -12  -1   3   11.81    2.22
   1  12  -3   15.12    1.97
  12  -1  -3   10.77    2.07
  12   1   3   15.52    2.66
   1 -12   3   17.01    2.49
 -12  -1  -3   15.28    2.14
  -1 -12   3   13.29    2.37
   1 -12  -3   12.70    1.89
  12   1  -3   12.96    2.27
   1  12   3   13.11    1.98
 -12   1   3   17.01    2.40
  -1  12  -3   15.08    2.00
  12  -1   3   14.45    2.49
  -2 -12  -3   12.02    1.69
 -12  -2   3   10.36    2.28
   2  12  -3    6.97    1.43
  -2  12   3   12.81    2.03
 -12   2  -3   13.26    2.10
  12  -2  -3    6.52    1.83
   2 -12   3   12.57    2.48
  12   2   3   16.37    2.83
  -2  12  -3   14.95    2.02
 -12   2   3    9.49    2.01
   2 -12  -3   14.44    1.83
  12   2  -3   14.24    2.16
 -12  -2  -3    8.41    1.74
  12   2  -3   11.97    1.80
  12  -2   3   11.45    2.11
  -2 -12   3   11.19    2.09
   2  12   3   15.91    2.06
  -3  12   3   35.20    2.91
  -3 -12  -3   41.18    2.83
 -12  -3   3   36.20    3.57
   3  12  -3   39.65    2.76
   3 -12   3   42.51    3.91
 -12   3  -3   43.93    3.22
  12   3   3   41.01    3.75
  12  -3  -3   39.73    3.45
 -12  -3  -3   41.67    3.17
 -12   3   3   41.36    3.50
   3 -12  -3   33.55    2.67
   3  12   3   39.77    3.15
  -3  12  -3   43.33    3.00
  12   3  -3   43.81    2.88
  12   3  -3   39.43    3.40
  12  -3   3   43.69    3.38
   3 -12  -3   38.66    3.23
  -3 -12   3   38.55    3.46
 -12  -4   3   10.57    2.49
  -4 -12  -3    6.95    1.44
   4  12  -3    8.39    1.62
 -12   4  -3    7.95    1.66
  12  -4  -3    9.97    2.05
   4 -12   3   10.24    2.45
  -4  12   3   10.27    1.97
  12   4   3    7.85    2.45
  12  -4   3   11.66    2.23
  12   4  -3    8.78    1.70
  -4  12  -3    8.08    1.59
   4 -12  -3    9.10    1.87
 -12  -4  -3   11.52    2.01
   4  12   3   10.07    1.82
  12   4  -3   15.18    2.40
 -12   4   3   11.90    2.18
  -4 -12   3    7.36    2.00
   5  12  -3   -0.17    1.24
 -12  -5   3   -0.44    1.70
 -12   5  -3    1.69    1.27
  -5 -12  -3    0.92    1.20
  12  -5  -3   -0.47    1.38
  -5  12   3    0.91    1.22
  -5  12   3   -0.35    1.26
  12   5   3    0.87    2.05
   5 -12   3    2.36    2.06
  12  -5   3    1.88    1.42
  12   5  -3    2.61    1.35
  12   5  -3    1.62    1.53
  -5  12  -3   -1.13    1.17
  -5 -12   3   -1.14    1.31
 -12  -5  -3    1.93    1.36
   5  12   3   -0.01    1.21
 -12   5   3   -0.50    1.23
   5 -12  -3    0.14    1.57
  12  -6  -3    8.10    2.09
   6  12  -3    6.11    1.45
  12   6   3   13.77    3.11
  -6  12   3    6.09    1.89
 -12   6  -3    6.13    1.62
  -6 -12  -3    6.31    1.52
   6 -12   3    9.12    2.77
  -6  12   3    8.32    1.55
 -12  -6   3    5.68    2.26
 -12  -6  -3    7.04    1.80
   6  12   3    7.08    1.67
  -6  12  -3   10.12    1.66
  -6 -12   3    7.45    1.80
 -12   6   3    7.51    2.04
  12  -6   3    7.54    1.97
  12   6  -3    7.72    1.93
   6 -12  -3    8.21    2.18
  12   6  -3    6.79    1.66
  -6  12  -3    8.46    1.76
  -7 -12  -3   13.48    1.89
 -12   7  -3   17.50    2.27
  -7  12   3   15.65    2.56
  12   7   3   14.09    3.06
 -12  -7   3   17.05    3.05
   7 -12   3   13.06    3.10
  -7  12   3   13.72    2.02
  12  -7  -3   21.12    2.73
   7  12  -3   16.62    2.19
  12  -7   3   16.76    2.40
   7 -12  -3   14.15    2.47
  -7  12  -3   20.23    2.20
  12   7  -3   15.81    2.56
 -12   7   3   17.91    2.37
  -7 -12   3   16.61    2.37
  12   7  -3   16.99    2.26
 -12  -7  -3   17.16    2.02
  -7  12  -3   15.93    1.93
   7  12   3   17.44    2.47
   8  12  -3   14.85    2.06
 -12  -8   3   12.51    2.99
  12   8   3   11.17    2.12
  12  -8  -3   13.47    2.43
  12   8   3    8.17    2.69
   8 -12   3   12.73    3.33
  -8 -12  -3   13.33    1.96
  -8  12   3   15.57    2.28
  -8  12   3   16.39    2.62
 -12   8  -3   20.09    2.50
 -12  -8  -3   13.09    2.00
 -12   8   3   15.39    2.26
   8 -12  -3   13.03    2.50
  12   8  -3   16.52    2.35
  -8  12  -3   14.34    2.13
  -8 -12   3   17.98    2.55
  12  -8   3   16.65    2.40
   8  12   3   15.34    2.34
  -8  12  -3    7.45    1.60
  -9 -12  -3    5.64    1.61
   9  12  -3    4.78    1.65
  12   9   3    3.63    2.69
  12   9   3    3.21    1.57
 -12   9  -3    7.53    1.83
  -9  12   3    5.45    1.66
   9 -12   3    6.83    3.03
 -12  -9   3    5.35    2.38
  12  -9  -3    4.81    2.02
  12   9  -3    3.29    1.62
   9  12   3   10.17    2.14
  12  -9   3    5.64    1.75
 -12  -9  -3    9.44    1.73
  -9  12  -3    7.71    1.85
  -9 -12   3    6.79    1.90
  -9  12  -3    6.41    1.76
 -12   9   3   10.33    2.09
   9 -12  -3    4.35    2.06
  12  10   3   15.39    2.49
  10 -12   3    9.42    3.88
 -12 -10   3   17.75    3.65
 -12  10  -3   15.88    2.36
 -10 -12  -3   17.37    2.15
 -10  12   3   16.78    2.54
  10  12   3   16.70    2.80
 -10  12  -3   17.70    2.27
  12 -10   3    1.33    3.33
  10 -12  -3   17.01    2.89
 -12  10   3   20.39    2.76
  12  10  -3   15.62    2.24
 -10  12  -3   17.56    2.39
 -12 -10  -3   18.48    2.34
  12 -10   3   24.90    2.89
   0  13  -3    3.34    1.38
  13   0   3    1.08    1.79
   0  13   3    1.24    1.26
 -13   0  -3    2.47    1.61
 -13   0   3    1.66    1.48
  13   0  -3    2.53    1.61
   0 -13  -3    0.58    1.24
   0 -13   3    0.14    1.54
   1  13  -3    6.21    1.44
 -13  -1   3    4.96    1.90
 -13   1  -3    5.50    1.68
  -1  13   3    5.76    1.63
  -1 -13  -3    5.65    1.39
  13   1   3    7.59    2.36
   1 -13   3    7.36    1.98
  13  -1  -3    5.88    1.73
 -13   1   3    8.84    2.20
  13   1  -3    6.22    1.85
   1  13   3    7.96    1.77
  -1 -13   3    7.25    2.03
   1 -13  -3    7.27    1.55
  -1  13  -3    7.19    1.64
  13  -1   3    7.45    2.08
 -13  -1  -3    3.93    1.69
  13  -2  -3   20.29    2.91
  -2 -13  -3   18.14    2.01
 -13   2  -3   22.15    2.61
 -13  -2   3   16.35    2.74
  -2  13   3   16.30    2.21
   2 -13   3   12.68    2.52
  13   2   3   18.21    3.11
   2  13  -3   18.48    2.07
  13  -2   3   19.62    2.94
 -13   2   3   16.16    2.62
  -2 -13   3   13.85    2.46
  -2  13  -3   18.80    2.24
  13   2  -3   16.13    2.36
 -13  -2  -3   18.97    2.60
   2  13   3   20.44    2.53
 -13   3  -3    0.32    1.37
  13   3   3    1.70    1.88
   3 -13   3    3.25    1.77
  13  -3  -3    3.74    1.94
  -3  13   3    2.39    1.48
  -3 -13  -3    4.04    1.35
 -13  -3   3    0.35    1.64
   3  13  -3    3.80    1.42
   3 -13  -3    2.42    1.30
 -13   3   3    5.09    1.86
   3  13   3    2.44    1.43
 -13  -3  -3    2.83    1.44
  -3  13  -3    2.36    1.23
  13   3  -3    0.83    1.38
  -3 -13   3    0.84    1.42
  13  -3   3    3.61    1.88
  13   3  -3    1.27    1.31
 -13   4  -3    4.02    1.55
  13  -4  -3    0.78    1.45
  -4 -13  -3    1.32    1.23
   4 -13   3    3.54    2.19
  -4  13   3    0.05    1.43
 -13  -4   3    0.91    1.59
   4  13  -3    2.69    1.33
  13   4   3    2.14    1.98
  -4 -13   3    3.48    1.58
 -13   4   3    3.95    1.83
   4 -13  -3    2.30    1.41
   4 -13  -3    2.24    1.67
 -13  -4  -3    2.56    1.43
  13   4  -3    1.03    1.39
  -4  13  -3    1.76    1.43
  13  -4   3    3.63    1.84
   4  13   3    2.10    1.61
  13   4  -3    2.20    1.26
  -5 -13  -3   16.54    2.25
  -5  13   3   18.95    2.68
 -13  -5   3   17.08    2.97
   5  13  -3   17.68    2.26
  13   5   3   14.67    3.13
  13  -5  -3   19.93    2.73
 -13   5  -3   21.70    2.41
   5 -13   3   13.52    2.92
  -5  13  -3   22.17    2.42
 -13  -5  -3   21.74    2.53
   5 -13  -3   18.02    2.51
  -5 -13   3   16.57    2.46
  13   5  -3   18.61    2.69
  13   5  -3   20.17    2.38
  13  -5   3   16.29    2.49
   5  13   3   20.20    2.42
 -13   5   3   22.50    2.87
  -6  13   3   16.84    2.33
  -6 -13  -3   20.29    2.18
 -13  -6   3   19.98    3.21
   6 -13   3   16.95    3.55
  13  -6  -3   17.10    2.87
   6  13  -3   15.77    2.22
  -6  13   3   18.17    2.75
 -13   6  -3   15.72    2.26
  13   6   3    8.99    2.78
  13   6  -3   16.47    2.57
   6  13   3   20.66    2.46
  -6  13  -3   19.64    2.20
  13   6  -3   18.89    2.42
   6 -13  -3   19.51    2.91
  -6 -13   3   16.48    2.63
 -13   6   3   15.60    2.45
 -13  -6  -3   18.46    2.66
  -6  13  -3   17.26    2.37
  13  -6   3   22.44    2.87
  13  -7  -3    3.69    2.02
  -7  13   3    4.99    2.06
 -13  -7   3    2.70    2.23
  -7 -13  -3    2.80    1.42
   7  13  -3    4.54    1.47
  -7  13   3    2.05    1.42
 -13   7  -3    6.75    1.82
   7 -13   3    4.49    2.40
  13   7   3    3.67    2.29
  -7  13  -3    3.41    1.45
  -7 -13   3    3.03    1.56
 -13   7   3    4.59    1.91
   7  13   3    4.90    1.60
  -7  13  -3    2.47    1.42
  13  -7   3    4.06    1.77
  13   7  -3    2.37    1.61
   7 -13  -3    6.34    2.14
 -13  -7  -3    3.77    1.68
  -8 -13  -3    4.01    1.41
 -13   8  -3    6.47    1.90
  13  -8  -3    4.92    1.91
  13   8   3    8.34    2.85
 -13  -8   3    5.69    2.60
   8  13  -3    6.06    1.62
  -8  13   3    6.07    2.00
  -8  13   3    4.38    1.47
   8 -13   3    2.99    2.71
   8  13   3    3.60    1.80
 -13  -8  -3    0.96    1.30
   8 -13  -3    7.09    2.06
  -8 -13   3    5.03    1.84
  13   8  -3    8.23    1.96
 -13   8   3    3.27    1.63
  -8  13  -3    9.17    1.85
  13  -8   3    6.34    1.97
  -8  13  -3    6.80    1.70
 -13  -8  -3    4.24    1.77
   0 -14  -3   23.72    2.30
 -14   0  -3   21.45    2.74
   0 -14   3   23.29    2.95
   0  14   3   18.56    2.57
  14   0   3   21.90    3.12
  14   0  -3   22.67    2.76
 -14   0   3   22.91    3.01
  14  -1  -3   11.71    2.45
 -14  -1   3    8.35    2.19
  14   1   3   11.11    2.60
 -14   1  -3    8.41    1.99
  -1 -14  -3    7.09    1.62
   1  14  -3   10.03    1.72
   1 -14   3    9.64    2.30
  -1  14   3    7.74    1.84
  -1  14  -3    9.85    1.86
   1 -14  -3    7.67    1.63
  14  -1   3    7.23    2.18
  -1 -14   3    9.50    2.34
 -14  -1  -3    5.44    1.81
  14   1  -3    5.98    1.81
 -14   1   3    4.67    1.98
   1  14   3    9.86    2.09
 -14  -2   3   17.45    2.83
  14  -2  -3   20.41    2.92
   2  14  -3   18.32    2.16
  14   2   3   14.15    2.88
 -14   2  -3   13.69    2.16
  -2  14   3   19.50    2.45
   2 -14   3   15.91    2.89
  -2 -14  -3   19.50    2.16
  -2 -14   3   16.64    2.71
 -14   2   3   12.77    2.47
  14  -2   3   17.45    3.03
   2  14   3   16.17    2.31
  -2  14  -3   15.02    2.26
 -14  -2  -3   19.15    2.46
  14   2  -3   20.84    2.59
   2 -14  -3   14.84    2.24
 -14  -3   3    2.17    2.03
   3 -14   3    2.41    2.03
  14  -3  -3    1.42    1.55
   3  14  -3    4.32    1.42
  -3  14   3    5.45    1.65
  14   3   3   -0.06    2.15
  -3 -14  -3    2.04    1.28
 -14   3  -3    2.11    1.46
 -14  -3  -3    2.24    1.66
  14   3  -3    2.14    1.57
  14   3  -3    4.06    1.78
 -14   3   3    1.56    1.76
  -3  14  -3    1.57    1.41
   3 -14  -3    2.25    1.25
  -3 -14   3    0.95    1.46
   3  14   3    3.69    1.62
  14  -3   3    1.68    1.85
  14   4   3   10.86    2.95
  -4 -14  -3   11.24    1.80
   4 -14   3   11.62    2.71
  14  -4  -3    6.78    2.03
 -14  -4   3    7.41    2.38
   4  14  -3   11.21    1.94
  -4  14   3   12.70    2.25
 -14   4  -3   10.08    1.96
  -4  14  -3   11.36    1.83
   4 -14  -3   12.01    2.22
   4 -14  -3    8.06    1.68
  14   4  -3   13.79    2.41
  14  -4   3   12.68    2.52
 -14   4   3    8.56    2.21
  14   4  -3   10.24    2.01
  -4 -14   3    9.77    2.30
   4  14   3   11.40    2.16
 -14  -4  -3   10.90    2.09
 -14   5  -3    3.82    1.54
 -14  -5   3    5.92    2.41
  -5  14   3    2.32    1.62
  14  -5  -3    6.08    2.03
   5 -14   3    4.51    2.27
  -5 -14  -3    3.03    1.35
  14   5   3    2.62    2.40
   5  14  -3    3.34    1.56
  14   5  -3    1.85    1.64
  14   5  -3    3.88    1.76
  -5 -14   3    5.67    1.99
   5 -14  -3    3.37    1.85
   5  14   3    6.12    1.75
 -14  -5  -3    1.51    1.67
   5 -14  -3    3.49    1.42
  -5  14  -3    6.15    1.73
  14  -5   3    6.49    2.17
 -14   5   3    3.88    1.79
 -14   6  -3    2.06    1.46
 -14  -6   3    3.12    2.01
  -6 -14  -3    2.68    1.42
  14  -6  -3    3.60    1.85
  14   6   3    2.92    2.34
   6  14  -3    2.13    1.51
  -6  14   3   -2.53    1.63
   6 -14   3    0.01    2.34
 -14  -6  -3    2.69    1.59
  14   6  -3    0.51    1.51
  14  -6   3    2.60    1.69
   6  14   3    3.49    1.79
  -6  14  -3    2.48    1.60
 -14   6   3    3.07    1.65
  -6 -14   3    2.19    1.61
   6 -14  -3    1.49    1.80
  -7  14   3   19.09    2.85
  14   7   3   10.43    2.95
 -14  -7   3   16.14    3.32
  14   7  -3   11.49    2.29
  -7  14  -3   13.77    2.18
 -14   7   3   22.51    3.04
  -7  14  -3   12.40    1.88
  -7 -14   3   12.52    2.47
 -14  -7  -3   18.26    2.94
  14  -7   3   17.43    2.88
   7 -14  -3   14.01    2.59
   0 -15  -3    1.66    1.27
  15   0  -3    1.18    1.79
 -15   0   3    2.04    1.77
   0  15  -3    3.31    1.37
  15   0   3    4.79    2.37
   0 -15   3    1.78    1.87
 -15   0  -3    1.61    1.65
   0  15   3    1.37    1.57
   1 -15   3   15.25    2.83
  15  -1  -3   13.93    2.61
 -15   1  -3   17.47    2.47
  15   1   3   16.07    3.23
 -15  -1   3   18.24    3.00
   1  15  -3   18.51    2.43
  -1  15   3   18.70    2.52
  -1 -15  -3   15.00    2.12
  15  -1   3   13.21    2.90
 -15  -1  -3   16.08    2.43
   1  15   3   17.85    2.60
  -1 -15   3   18.09    3.01
 -15   1   3   14.19    2.70
  15   1  -3   22.01    2.92
  -1  15  -3   19.22    2.42
   1 -15  -3   18.08    2.20
  15   2   3    2.84    2.20
  -2  15   3    6.76    2.03
   2 -15   3    3.29    2.17
  -2 -15  -3    0.81    1.40
 -15  -2   3    1.14    1.98
  15  -2  -3    1.66    1.86
   2  15  -3    3.12    1.56
 -15   2  -3    1.79    1.45
  15  -2   3    7.42    2.29
  15   2  -3    0.09    1.61
   2  15   3    2.62    1.72
 -15   2   3    0.26    1.64
 -15  -2  -3    3.30    1.79
  -2  15  -3    0.85    1.25
  -2 -15   3    0.59    1.51
   2 -15  -3    5.00    1.57
  -3 -15  -3   11.61    1.85
  15  -3  -3    8.12    2.18
 -15  -3   3   12.33    2.75
   3  15  -3   11.39    1.87
 -15   3  -3    8.37    1.96
  15   3   3   11.08    3.09
  -3  15   3    7.97    2.11
   3 -15   3   10.20    2.60
 -15   3   3   14.96    2.65
  15   3  -3   10.18    2.25
  -3  15  -3   15.86    2.32
  15  -3   3   10.81    2.69
 -15  -3  -3   12.98    2.25
   3  15   3   12.66    2.31
   3 -15  -3   10.73    2.00
  -3 -15   3   12.64    2.62
  15  -4  -3    2.61    2.00
  -4  15   3    7.94    2.22
  15   4   3    5.56    2.70
 -15  -4   3   11.25    2.81
   4  15  -3    6.03    1.61
 -15   4   3    6.02    2.09
  15  -4   3    5.32    2.27
  15   4  -3    5.04    1.83
  -4  15  -3    4.35    1.63
  -4 -15   3    4.16    1.87
 -15  -4  -3    6.14    1.93
   4 -15  -3    4.28    1.52
   0   0   4  117.44    5.14
   0   0   4  110.69    6.25
   0   0  -4  127.67    5.42
  -1   0   4    1.70    1.18
   0   1  -4    1.96    1.05
   1   0   4    1.30    1.35
  -1   0  -4    1.25    1.01
   0   1   4    0.78    0.82
   0   1   4    1.51    1.29
   0  -1  -4    2.53    1.01
  -1   0   4    1.77    0.87
   1   0  -4    2.44    1.04
   0  -1   4    1.56    1.34
   1   1  -4   33.56    2.31
   1   1   4   37.98    2.32
  -1  -1  -4   34.46    2.34
  -1   1  -4   43.19    2.61
  -1  -1   4   34.76    3.10
  -1   1   4   31.71    2.20
   1  -1  -4   41.45    2.46
   1  -1   4   28.87    2.84
   1   1   4   38.70    3.13
  -1  -1   4   39.20    2.40
  -1   1   4   32.21    2.82
   0   2   4    3.60    0.99
  -2   0  -4    4.15    1.28
   0  -2   4    2.73    1.30
   2   0  -4    5.48    1.20
  -2   0   4    4.76    1.10
  -2   0   4    6.35    1.69
   2   0   4    3.90    1.49
   0   2  -4    5.33    1.21
   2   1   4    3.02    1.36
   2   1   4   -0.11    0.72
   1   2  -4    2.02    1.01
  -2  -1   4    1.81    1.34
   2   1   4    2.87    1.02
  -1   2   4    0.94    0.83
   1  -2   4    1.78    1.20
  -1  -2  -4    2.87    0.98
  -2  -1   4    0.86    0.85
  -2   1  -4    1.18    1.04
  -2   1   4   -0.26    0.85
   2  -1   4    1.73    1.23
   2   1  -4    1.86    0.98
   1  -2  -4    0.47    1.30
  -1  -2   4    0.72    1.12
  -2  -1  -4    0.29    1.03
   1   2   4    0.97    1.08
   1   2   4    0.82    0.81
  -1   2  -4    0.91    1.03
   2   2   4    9.29    1.36
   2  -2  -4    7.73    1.82
  -2   2   4    7.16    1.33
   2   2  -4    6.30    1.21
   2  -2   4    7.95    1.80
  -2   2  -4    5.87    1.34
   2   2   4    8.25    1.59
  -2  -2   4    4.53    1.59
   2   2   4    5.89    1.06
   2   2   4    8.94    1.74
  -2  -2   4    6.90    1.18
   0  -3   4   -0.21    1.24
   0   3  -4    0.51    1.03
   0   3   4    0.89    0.90
   3   0  -4    1.46    0.83
  -3   0   4    0.50    1.30
   0  -3  -4    0.14    1.15
   3   0   4    0.31    0.85
  -3   0   4    0.46    0.93
   3   0   4    0.78    1.19
  -3   0  -4    0.82    1.21
   3   1   4   20.67    2.35
  -3  -1   4   24.57    2.60
  -1  -3  -4   14.04    2.15
  -1   3   4   22.14    1.93
   1  -3   4   17.81    2.45
  -3   1  -4   15.80    2.02
   3   1   4   20.66    1.80
  -3  -1   4   19.18    1.84
   1   3  -4   21.51    1.89
   3  -1  -4   16.18    2.23
   3   1  -4   20.61    1.80
   1   3   4   17.48    2.02
  -3  -1  -4   20.08    2.16
   1  -3  -4   19.38    2.41
   3  -1   4   19.44    2.41
   1   3   4   21.67    1.68
  -1  -3   4   23.05    2.59
  -1   3  -4   21.74    2.05
  -3   1   4   19.76    1.90
   3  -1   4   20.86    1.96
   3   2   4   10.90    1.52
   2  -3   4    9.46    1.94
  -3  -2   4   10.33    1.94
   3  -2  -4   10.61    1.94
  -2  -3  -4   11.96    1.90
  -2   3   4   10.85    1.55
  -3  -2   4    9.93    1.47
   2   3  -4    8.79    1.45
  -3   2   4   10.14    1.46
   3  -2   4    8.56    1.42
   2   3   4    9.75    1.69
   3  -2   4    8.42    1.79
  -3  -2  -4   11.09    1.44
  -2   3  -4   10.42    1.57
  -2  -3   4   10.71    1.92
   3   2  -4   11.23    1.55
   2  -3  -4   10.74    2.00
   3  -3  -4   -0.32    1.27
   3  -3   4    0.26    1.25
  -3   3  -4    0.09    0.90
   3   3   4    1.12    0.95
  -3  -3   4    0.91    1.29
  -3  -3   4    0.55    0.85
  -3   3   4    0.60    0.88
   3   3  -4   -0.87    0.86
   3   3   4   -0.53    1.05
  -3  -3  -4    0.08    0.82
   0   4   4   42.45    2.56
   0  -4   4   40.31    3.39
   0   4  -4   45.18    2.89
   0   4   4   39.35    2.79
  -4   0   4   39.15    2.71
   4   0   4   43.73    2.72
  -4   0  -4   42.25    3.01
   0  -4  -4   39.70    3.21
   4  -1  -4   24.60    2.54
   1  -4   4   19.16    2.37
  -4  -1   4   21.97    2.02
   4   1   4   16.89    1.90
  -1   4   4   22.07    1.95
   1   4  -4   22.80    2.11
  -1  -4  -4   22.29    2.42
  -4   1  -4   14.53    2.06
  -4  -1   4   21.08    2.41
   4  -1   4   19.12    2.42
  -1   4  -4   17.95    1.88
   4   1  -4   20.80    1.79
  -1  -4   4   16.64    2.28
  -4  -1  -4   19.43    2.21
   1   4   4   19.35    2.09
   4  -1   4   19.46    2.01
  -4   1   4   18.19    1.97
   1  -4  -4   20.11    2.46
   1   4   4   20.83    1.73
   4  -2  -4    4.01    1.61
  -2   4   4    3.91    1.22
  -4   2  -4    3.88    1.36
   2  -4   4    4.84    1.64
   2   4  -4    3.36    1.14
  -4  -2   4    5.16    1.17
   4   2   4    4.22    1.22
  -2  -4  -4    4.15    1.13
  -4  -2   4    3.18    1.51
  -4   2   4    4.97    1.30
  -2  -4   4    3.69    1.57
  -4  -2  -4    6.37    1.48
   2  -4  -4    5.16    1.51
   4  -2   4    2.05    1.07
   4   2  -4    3.70    1.04
  -2   4  -4    6.03    1.44
   2   4   4    5.29    1.34
   4  -2   4    7.09    1.76
   3   4  -4   17.14    1.75
   4   3   4   17.56    2.18
  -4   3  -4   16.85    2.02
  -4  -3   4   15.53    1.81
  -4  -3   4   19.23    2.51
   4   3   4   16.96    1.84
   3  -4   4   19.18    2.58
   4  -3  -4   20.63    2.64
  -3   4   4   16.40    1.80
  -3  -4  -4   20.67    1.80
  -3  -4   4   20.57    2.39
   4  -3   4   17.01    1.84
  -3   4  -4   16.02    1.89
   3  -4  -4   18.49    2.54
  -4   3   4   17.06    1.85
  -4  -3  -4   21.23    1.77
   4   3  -4   17.21    1.80
   4  -3   4   16.68    2.50
   3   4   4   17.10    2.10
  -4  -4   4   16.83    1.86
   4  -4  -4   15.88    2.59
   4   4   4   15.37    2.11
   4   4  -4   14.55    1.75
  -4  -4  -4   13.58    1.68
  -4  -4   4   18.64    2.32
  -4   4   4   14.67    1.77
   4  -4   4   16.13    2.46
   0   5   4    6.34    1.20
   0   5  -4    7.93    1.54
   0   5   4    6.91    1.44
   0  -5  -4    7.73    1.81
   5   0   4    6.81    1.44
  -5   0  -4    8.65    1.66
   0  -5   4    8.04    1.85
   5   0  -4    8.98    1.89
  -5   0   4    7.98    1.46
  -1   5   4   13.79    1.86
   1  -5   4   15.41    2.24
  -5   1  -4   12.52    2.04
  -5  -1   4   12.25    1.79
   5  -1  -4   13.33    2.15
   5   1   4   12.58    1.79
  -1   5   4   13.11    1.59
  -5  -1   4   10.56    2.05
   1   5  -4   14.52    1.74
   1   5   4   10.49    1.70
  -1  -5   4   13.12    2.21
   1  -5  -4   13.02    2.06
  -5  -1  -4   15.34    2.16
  -1   5  -4   14.12    1.76
   5  -1   4   14.31    1.90
  -5   1   4    9.43    1.57
   5   2   4   48.15    3.07
  -5  -2   4   45.72    3.07
   2   5  -4   53.18    3.12
  -5  -2   4   47.48    3.61
  -2  -5  -4   56.66    3.15
   5  -2  -4   45.89    3.76
  -5   2  -4   53.90    3.42
   2  -5   4   50.35    3.82
  -2   5   4   52.49    3.08
  -2  -5   4   49.83    3.66
   5  -2   4   51.88    3.20
   2   5   4   52.69    3.26
   5   2  -4   52.09    2.92
   5  -2   4   53.37    3.91
  -2   5  -4   50.54    3.12
  -5  -2  -4   48.11    3.28
  -5   2   4   56.67    3.34
   2  -5  -4   48.84    3.63
  -5  -3   4   22.95    2.11
  -3   5   4   22.84    2.07
  -3  -5  -4   24.25    1.91
   5   3   4   26.64    2.25
  -5   3  -4   29.39    2.54
   5  -3  -4   28.36    2.96
  -5  -3   4   22.45    2.55
   3  -5   4   22.54    2.61
   3   5  -4   23.14    1.99
  -5   3   4   25.64    2.33
   3   5   4   24.23    2.28
   5  -3   4   19.30    2.05
   5  -3   4   20.80    2.66
  -3   5  -4   20.76    2.25
  -3  -5   4   22.31    2.55
   3  -5  -4   25.18    2.69
  -5   4  -4   11.25    1.72
   5   4   4   14.06    1.82
  -5  -4   4   12.19    1.85
   4   5  -4   11.26    1.58
  -5  -4   4   15.33    2.21
  -4  -5  -4   12.79    1.71
  -4   5   4   15.53    1.95
   5  -4  -4   16.62    2.59
   5   4   4   12.61    1.90
   4  -5   4   17.22    2.68
  -5   4   4   11.45    1.74
   4  -5  -4   13.94    2.34
  -4  -5   4   13.14    2.20
   5  -4   4   12.16    1.73
   5  -4   4   11.84    2.14
  -4   5  -4   13.73    1.99
   5   4  -4   12.77    1.77
  -5  -4  -4   13.83    1.59
   4   5   4   14.53    2.04
  -5  -5  -4    0.61    0.84
   5  -5  -4    0.02    1.32
   5  -5   4    0.45    1.11
   5  -5   4   -0.01    1.50
  -5  -5   4    0.26    1.22
   5   5   4    1.69    1.24
  -5   5   4    1.68    1.20
   5   5  -4    0.01    1.05
   6   0   4   24.91    2.23
   0   6   4   20.03    2.21
   0  -6  -4   20.91    2.86
   0  -6   4   25.12    2.70
   6   0  -4   20.81    2.75
   0   6   4   23.43    2.09
   0   6  -4   28.55    2.39
  -6   0   4   21.30    2.14
  -6   0  -4   20.69    2.47
   1  -6   4    5.65    1.67
  -1   6   4    3.67    1.25
   6  -1  -4    3.45    1.52
  -1   6   4    6.36    1.48
  -6  -1   4    4.43    1.30
   1   6  -4    7.12    1.42
  -6   1  -4    5.44    1.54
   6   1   4    6.33    1.55
  -1  -6  -4    6.89    1.42
  -1   6  -4    7.17    1.54
  -6  -1  -4    3.40    1.35
   1   6   4    2.91    1.23
   6  -1   4    5.00    1.33
   6   1  -4    6.41    1.79
   1  -6  -4    3.69    1.58
  -6   1   4    4.68    1.47
  -1  -6   4    4.10    1.68
  -6  -2   4   17.52    1.97
  -6  -2   4   13.09    2.17
  -2   6   4   13.44    1.72
   6   2   4   16.54    2.03
   6  -2  -4   15.42    2.43
  -2  -6  -4   16.36    1.75
   2   6  -4   16.43    1.99
  -6   2  -4   17.15    2.24
   2  -6   4   18.49    2.45
  -6  -2  -4   12.91    2.09
  -2  -6   4   12.16    2.14
  -6   2   4   15.82    2.09
   6  -2   4   13.41    2.03
  -2   6  -4   13.65    1.83
   2   6   4   13.95    2.07
   6   2  -4   15.00    1.67
   2  -6  -4   17.08    2.32
  -6   3  -4    8.04    1.74
   3   6  -4    5.70    1.33
  -3   6   4    7.30    1.43
   3  -6   4    5.48    1.89
  -6  -3   4    6.88    1.57
  -3  -6  -4    7.29    1.32
   6  -3  -4    4.66    1.74
   6   3   4    5.66    1.45
  -6  -3   4    6.31    1.67
   6  -3   4    5.88    1.55
   3   6   4    5.82    1.48
  -6  -3  -4    6.86    1.68
   6   3  -4    8.48    1.33
   3  -6  -4    5.96    1.88
  -3  -6   4    8.17    1.84
  -6   3   4    5.32    1.37
  -3   6  -4    5.35    1.51
   6   4   4   10.39    1.79
   4  -6   4   14.77    2.39
   6  -4  -4   15.31    2.52
  -6   4  -4    9.99    1.84
  -4  -6  -4   12.47    1.75
  -6  -4   4   13.84    2.05
   6   4   4   12.77    1.86
  -6  -4   4   13.35    2.11
  -4   6   4   11.40    1.83
  -4   6  -4   13.76    2.03
  -6   4   4   12.47    1.83
   4   6   4   15.09    2.11
   4  -6  -4   11.73    2.35
   6  -4   4   13.37    1.84
  -4  -6   4    8.79    1.91
   6  -4   4   10.73    2.21
   6   4  -4   11.59    1.72
  -6  -5   4    7.95    1.84
   6  -5  -4    8.85    2.16
   5  -6   4    9.16    2.28
   5   6  -4    9.14    1.55
  -6  -5   4   11.95    1.92
  -5  -6  -4   10.26    1.47
  -6   5  -4   10.11    1.75
   6   5   4   10.12    1.91
  -5   6   4   11.82    1.83
  -5  -6   4   10.62    2.06
  -6  -5  -4    8.86    1.34
   6  -5   4    8.04    1.63
   5  -6  -4    8.06    2.02
   5   6   4   10.21    1.92
   6   5  -4   10.09    1.56
   6  -5   4   12.74    2.53
  -5   6  -4   10.48    1.73
  -6   5   4    9.96    1.71
  -6  -6   4   31.38    3.17
   6  -6   4   37.17    2.91
  -6   6   4   31.36    2.66
   6   6   4   33.40    2.74
  -6   6  -4   30.10    2.60
   6   6  -4   33.19    2.58
   6  -6  -4   29.27    3.22
  -6  -6  -4   35.24    2.47
   6  -6   4   40.58    3.66
   0   7  -4    1.56    1.14
   0  -7   4    1.92    1.42
  -7   0   4    1.51    1.17
  -7   0  -4    3.20    1.50
   0   7   4    2.75    1.22
   7   0   4    2.21    1.21
   7   0  -4    2.17    1.48
  -1   7   4    3.30    1.17
  -1   7   4    8.89    1.75
   7  -1  -4    4.98    1.86
  -7  -1   4    3.68    1.35
   7   1   4    5.89    1.62
  -1  -7  -4    5.67    1.42
   1  -7   4    6.35    1.81
  -7   1  -4    3.73    1.59
   1   7  -4    3.74    1.26
   7   1  -4    4.84    1.74
   7  -1   4    4.03    1.36
  -7  -1  -4    5.67    1.59
  -1  -7   4    5.34    1.85
   1   7   4    2.08    1.31
  -7   1   4    6.32    1.54
  -1   7  -4    6.24    1.49
   1  -7  -4    5.26    1.82
  -7   2  -4    6.66    1.75
  -2   7   4    6.79    1.64
   7  -2  -4    5.03    1.72
   2  -7   4   10.39    2.12
  -2   7   4    5.80    1.36
   2   7  -4    8.89    1.59
  -2  -7  -4    9.35    1.55
  -7  -2   4    5.50    1.59
   7   2   4    8.82    1.70
  -7  -2  -4   10.30    1.88
  -7   2   4    7.66    1.75
  -2   7  -4    7.02    1.53
  -2  -7   4    7.51    1.82
   7  -2   4    7.80    1.67
   2   7   4    8.96    1.77
   7   2  -4    6.72    1.33
   2  -7  -4    5.93    1.83
  -7  -3   4    5.55    1.63
   7   3   4    5.06    1.50
  -3  -7  -4    8.50    1.51
   7  -3  -4    6.58    2.00
  -3   7   4    4.59    1.30
  -7  -3   4    5.04    1.62
  -7   3  -4    6.77    1.57
   3  -7   4    4.52    1.70
   3   7  -4    5.97    1.47
  -3  -7   4    1.83    1.33
  -3   7  -4    5.28    1.50
   3  -7  -4    4.56    1.85
   3   7   4    4.63    1.49
   7  -3   4    4.18    1.41
  -7  -3  -4    8.20    1.89
   7   3  -4    3.67    1.12
  -7   3   4    3.54    1.34
   4   7  -4    1.65    1.07
  -4   7   4    0.88    1.11
  -7  -4   4    0.48    1.19
   7  -4  -4    1.83    1.67
  -7   4  -4    1.17    1.30
   4  -7   4    3.22    1.81
  -7  -4   4    2.22    1.40
  -4  -7  -4   -0.06    0.93
   7   4   4    1.32    1.30
  -4  -7   4    0.45    1.24
  -7   4   4    0.22    1.12
   7  -4   4    1.17    1.18
   4   7   4    2.96    1.29
   4  -7  -4    3.29    1.66
   7   4  -4    3.08    1.18
  -4   7  -4    2.81    1.28
  -5  -7  -4    7.78    1.41
   7   5   4    7.38    1.73
   7   5   4   10.68    1.88
  -5   7   4    6.41    1.52
   5   7  -4    7.63    1.55
   7  -5  -4   12.75    2.48
  -7  -5   4    9.07    1.85
   5  -7   4    9.05    2.48
  -7   5  -4   11.30    1.78
  -7  -5   4    6.69    1.82
   7  -5   4    6.19    2.09
   7   5  -4    8.79    1.46
  -5   7  -4    7.49    1.69
  -7   5   4    7.82    1.78
  -5  -7   4    8.67    1.99
   5   7   4    9.10    1.92
   5  -7  -4   10.41    2.29
   7  -5   4    8.71    1.77
   6  -7   4    8.21    2.22
  -7  -6   4    4.99    1.63
  -6   7   4    4.46    1.59
  -7   6  -4    4.35    1.56
  -7  -6   4    4.02    1.59
   6   7  -4    6.22    1.41
   7  -6  -4    4.24    2.00
  -6  -7  -4    4.68    1.31
   7   6   4    5.35    1.73
   6  -7  -4    9.03    2.25
  -7   6   4    6.78    1.58
  -7  -6  -4    5.28    1.24
   7  -6   4    8.96    2.54
   6   7   4    5.81    1.75
  -6  -7   4    8.14    2.07
   7   6  -4    6.81    1.51
   7  -6   4    5.48    1.55
  -7   7  -4   43.04    3.10
   7   7  -4   54.21    3.29
   7  -7   4   40.90    3.36
   7  -7   4   51.54    4.70
   7   7   4   51.34    3.45
   7  -7  -4   41.41    4.04
  -7  -7  -4   52.84    3.08
  -7   7   4   50.65    3.56
  -7  -7   4   46.46    3.70
  -8   0   4    6.71    1.76
   0  -8  -4    7.44    1.47
  -8   0  -4    7.09    1.90
   0   8   4    4.57    1.54
   8   0  -4    8.28    2.05
   8   0   4    8.94    1.77
   0   8  -4    5.53    1.44
   0  -8   4    6.74    1.98
  -1  -8  -4   20.00    2.18
   1  -8   4   19.38    2.69
  -8   1  -4   18.40    2.31
  -1   8   4   19.35    2.33
   1   8  -4   20.31    2.10
  -8  -1   4   18.46    2.50
   8  -1  -4   19.35    2.80
   8   1   4   24.42    2.50
  -1   8  -4   14.69    2.02
  -8   1   4   25.56    2.66
   8   1  -4   18.02    2.78
   8  -1   4   19.56    2.42
  -1  -8   4   15.51    2.65
  -8  -1  -4   23.55    2.68
   1   8   4   16.66    2.29
  -2   8   4    0.16    1.11
   2   8  -4    1.59    1.14
  -8   2  -4   -1.83    1.07
  -2   8   4    1.18    1.28
  -2  -8  -4    0.94    1.14
   8  -2  -4   -1.41    1.33
   8   2   4    1.35    1.27
   2  -8   4   -0.94    1.38
  -8  -2   4    0.59    1.24
   8  -2   4    0.73    1.39
   2   8   4    1.28    1.20
  -2   8  -4    0.44    1.23
  -8  -2  -4   -1.62    1.10
  -8   2   4    0.01    1.21
   8   2  -4   -1.75    1.22
   2  -8  -4   -0.63    1.50
  -2  -8   4   -1.79    1.41
  -8  -3   4   17.63    2.54
   8   3   4   16.86    2.17
   3  -8   4   20.24    2.97
   3   8  -4   17.04    1.96
  -8   3  -4   17.91    2.48
  -3  -8  -4   21.09    2.17
   8  -3  -4   16.88    2.85
  -3   8   4   13.76    1.91
  -8   3   4   12.23    2.04
   8   3  -4   13.17    1.75
  -8  -3  -4   15.79    2.40
  -3   8  -4   16.97    2.08
   8  -3   4   16.44    2.36
   3  -8  -4   23.30    2.70
   3   8   4   15.64    2.26
  -3  -8   4   16.72    2.45
  -8  -4   4    0.77    1.34
   8  -4  -4    2.80    1.59
   4   8  -4   -0.21    1.01
   4  -8   4    3.14    1.93
  -4   8   4    1.92    1.18
  -4  -8  -4    2.38    1.11
   8   4   4    1.39    1.21
  -8  -4   4    0.47    1.48
  -8   4  -4    2.69    1.52
   4  -8  -4    0.91    1.50
  -8   4   4   -0.09    1.32
  -4   8  -4    2.05    1.24
  -8  -4  -4    1.61    1.39
   4   8   4    2.90    1.57
   8   4  -4    0.40    1.10
   8  -4   4   -0.45    1.10
  -4  -8   4    1.09    1.42
  -8   5  -4    3.73    1.54
  -8  -5   4    0.03    1.21
   5  -8   4   -0.38    1.65
  -5  -8  -4    1.03    1.14
   8  -5  -4    3.69    1.85
  -5   8   4    1.65    1.25
   8   5   4   -0.67    1.30
  -8  -5   4   -0.67    1.40
   5   8  -4   -0.17    1.04
   5   8   4    1.67    1.31
   5  -8  -4    0.42    1.73
  -5  -8   4    1.52    1.56
   8  -5   4    0.48    1.37
  -5   8  -4    0.94    1.20
  -8   5   4   -0.58    1.15
   8   5  -4    0.80    1.02
  -6  -8  -4   13.70    1.88
   8  -6  -4   11.41    2.55
  -8   6  -4   12.03    1.92
   6   8  -4   12.26    1.87
   6  -8   4   11.08    2.77
  -6   8   4   12.55    1.91
   8   6   4   11.70    2.15
  -8  -6   4   13.53    2.35
  -8  -6   4   12.63    2.33
   8   6  -4   11.18    1.82
   6   8   4    9.47    1.94
   6  -8  -4   13.09    2.40
  -6  -8   4   10.93    2.35
   8  -6   4   11.72    2.00
  -8   6   4   12.84    2.17
  -6   8  -4   11.86    1.96
  -8  -7   4    3.30    1.72
   8  -7  -4    1.69    1.75
  -8   7  -4    2.05    1.31
   8   7   4    3.71    1.59
   7  -8   4    3.79    2.25
  -7  -8  -4    2.36    1.15
  -7   8   4    3.72    1.44
   7   8  -4    3.18    1.47
   8   7  -4    2.70    1.24
   8  -7   4    2.75    1.63
   7  -8  -4    0.78    1.68
  -7   8  -4    1.24    1.35
  -8  -7  -4    2.48    1.15
   7   8   4    2.79    1.51
  -7  -8   4    4.78    1.78
   8  -7   4    4.45    2.44
  -8   7   4    4.96    1.60
   8   8   4    5.71    1.71
   8  -8  -4    5.58    1.98
   8  -8   4    2.23    1.53
  -8  -8  -4    5.47    1.41
  -8   8   4    3.46    1.62
   8   8  -4    4.97    1.41
  -8  -8   4    5.59    1.99
   8  -8   4    8.86    2.70
  -8   8  -4    4.67    1.50
   9   0  -4    2.53    1.64
   0  -9   4    1.98    1.52
  -9   0  -4    1.81    1.40
  -9   0   4    2.64    1.49
   9   0   4    1.05    1.31
   0   9  -4    1.73    1.18
   0  -9  -4    2.17    1.21
   0   9   4    1.58    1.29
   9  -1  -4    1.17    1.53
   1   9  -4    0.71    1.15
  -1  -9  -4    2.34    1.27
   9   1   4    3.03    1.63
  -1   9   4    2.92    1.59
  -9  -1   4    1.74    1.46
  -9   1  -4    4.71    1.57
   1  -9   4    0.99    1.53
  -1   9  -4    1.79    1.43
   9  -1   4    1.35    1.37
   1   9   4    1.75    1.43
  -1  -9   4    5.59    1.98
  -9   1   4    1.12    1.27
  -9  -1  -4    2.63    1.49
   1  -9  -4    3.33    1.29
   9   1  -4    2.77    1.78
  -2   9   4   52.92    3.49
   9  -2  -4   59.21    4.33
  -9   2  -4   57.23    3.81
   9   2   4   58.03    4.02
  -9  -2   4   54.96    4.12
  -2  -9  -4   57.58    3.41
  -2   9   4   52.71    3.76
   2  -9   4   54.66    4.36
   2   9  -4   56.09    3.46
  -2  -9   4   57.78    4.27
  -9   2   4   57.58    3.88
   9   2  -4   61.10    4.30
  -9  -2  -4   54.09    3.77
   2   9   4   51.68    3.57
  -2   9  -4   58.77    3.73
   9  -2   4   61.55    3.89
  -9   3  -4    2.46    1.58
   3  -9   4    0.71    1.70
  -3   9   4    1.63    1.45
  -9  -3   4    2.26    1.51
   9  -3  -4    0.84    1.51
   9   3   4    0.86    1.51
  -3  -9  -4    3.67    1.28
  -3   9   4    2.04    1.16
   3   9  -4    1.13    1.26
  -9  -3  -4    2.35    1.59
  -3  -9   4    3.13    1.62
  -9   3   4    3.14    1.54
  -3   9  -4    1.10    1.29
   9   3  -4    4.19    1.80
   3   9   4    2.69    1.35
   3  -9  -4    0.66    1.59
   9   3  -4    1.68    1.14
   9  -3   4    1.76    1.40
  -4  -9  -4    3.92    1.22
   9   4   4    5.57    1.85
   4  -9   4    6.04    2.24
  -4   9   4    1.15    1.24
  -9  -4   4    0.93    1.62
  -9   4  -4    3.35    1.46
   4   9  -4    2.42    1.39
   9  -4  -4    2.89    1.95
  -9  -4  -4    4.23    1.59
   4   9   4    4.34    1.48
   9  -4   4    1.77    1.36
   9   4  -4    3.59    1.29
  -4  -9   4    0.68    1.43
   4  -9  -4    2.08    1.80
  -9   4   4    4.02    1.70
  -4   9  -4    3.71    1.56
  -5   9   4   -0.08    1.32
   9  -5  -4    0.75    1.64
  -9  -5   4    1.18    1.65
  -5  -9  -4    1.51    1.11
  -9  -5   4    1.90    1.49
   5  -9   4   -1.04    1.82
   9   5   4   -0.55    1.48
   5   9  -4    1.18    1.20
  -9   5  -4    2.43    1.30
   9  -5   4    2.59    1.54
   9   5  -4    1.32    1.29
  -5  -9   4    0.08    1.41
   5   9   4    1.30    1.51
  -9  -5  -4    2.74    1.52
  -5   9  -4    0.55    1.36
   5  -9  -4   -0.64    1.71
  -9   5   4    1.54    1.33
  -9   6  -4    7.05    1.83
  -6   9   4    5.47    1.67
  -9  -6   4    7.19    2.06
   6   9  -4    8.36    1.65
   9  -6  -4    6.13    2.09
   6  -9   4    6.44    2.61
  -9  -6   4    6.30    1.90
  -6  -9  -4    8.73    1.57
   9  -6   4    5.25    1.68
  -6  -9   4    8.82    2.23
   9   6  -4    8.34    1.54
   6   9   4    8.08    1.98
  -9   6   4    9.92    2.04
  -6   9  -4    2.07    1.39
   6  -9  -4    7.00    2.19
   7  -9   4   -0.58    2.16
   9  -7  -4   -1.06    1.75
   9   7   4    1.05    1.55
  -9  -7   4   -0.23    1.34
  -9   7  -4    0.28    1.39
  -7  -9  -4   -0.37    1.21
   7   9  -4    0.69    1.24
  -9  -7   4    0.71    1.94
  -7   9   4    0.48    1.42
   9   7  -4    1.15    1.34
   9  -7   4    1.06    1.42
  -7   9  -4    0.19    1.33
   7   9   4    0.47    1.40
  -9   7   4    1.06    1.41
  -7  -9   4    1.41    1.56
   7  -9  -4   -0.13    1.63
   9  -8  -4   -2.28    1.41
   8   9  -4    0.18    1.18
  -8   9   4    0.38    1.40
   9   8   4   -0.28    1.51
  -8  -9  -4    1.33    1.31
  -9  -8   4   -0.52    1.48
  -9   8  -4    0.45    1.20
   8  -9   4   -2.20    2.20
  -8   9  -4    1.14    1.45
   8   9   4   -1.25    1.26
  -8  -9   4    1.69    1.78
   8  -9  -4    1.08    1.86
   9  -8   4    0.80    1.48
  -9   8   4   -4.45    1.23
   9   8  -4   -1.06    1.13
  -9  -8  -4    0.57    1.26
 -10   0  -4    1.96    1.49
   0 -10  -4    2.84    1.41
   0 -10   4    4.02    2.03
 -10   0   4    1.86    1.72
  10   0   4    2.00    1.53
   0  10   4    2.54    1.45
  10   0  -4    2.47    1.78
   0  10  -4    2.81    1.47
 -10   1  -4   15.95    2.55
   1  10  -4   16.54    2.23
   1 -10   4   15.72    2.85
  -1 -10  -4   11.90    1.94
  10   1   4   12.47    2.39
  10  -1  -4   12.64    2.62
 -10  -1   4   14.48    2.43
  -1  10   4   15.35    2.36
 -10  -1  -4   14.59    2.42
 -10   1   4   14.86    2.54
   1  10   4   13.03    2.23
  10   1  -4    8.79    2.26
  10  -1   4   16.23    2.57
  -1 -10   4   17.90    2.65
  -1  10  -4   15.88    2.30
   1 -10  -4   12.55    1.93
  -2  10   4    7.30    1.93
 -10  -2   4    3.57    1.84
  -2 -10  -4    3.96    1.34
  10  -2  -4    1.29    1.65
   2 -10   4    2.81    2.02
 -10   2  -4    3.01    1.63
  10   2   4    2.29    1.72
   2  10  -4    3.28    1.31
  -2 -10   4    2.81    1.70
   2  10   4    5.32    1.61
  10   2  -4    2.53    1.65
  -2  10  -4    4.74    1.52
 -10   2   4    4.97    1.81
 -10  -2  -4    5.94    1.90
  10  -2   4    3.45    1.83
   3 -10   4   11.12    2.64
  -3  10   4    5.87    1.49
  -3 -10  -4    9.00    1.62
 -10   3  -4    6.40    1.92
   3  10  -4    4.24    1.51
  10   3   4    6.26    1.97
 -10  -3   4    9.13    2.23
  -3  10   4    8.99    2.03
  10  -3  -4    6.39    1.98
 -10   3   4    6.29    2.02
  10   3  -4   10.35    2.16
   3  10   4    6.10    1.65
  -3  10  -4    8.41    1.85
  10  -3   4    6.16    1.79
 -10  -3  -4    8.19    1.95
  -3 -10   4    6.67    1.98
  -4  10   4    2.96    1.41
   4  10  -4    1.76    1.30
  10  -4  -4    0.79    1.58
 -10   4  -4    0.57    1.29
  -4 -10  -4    0.93    1.11
  10   4   4    0.47    1.67
 -10  -4   4    0.97    1.59
   4 -10   4   -1.37    1.62
  10   4  -4    1.07    1.21
  -4  10  -4   -0.32    1.24
  10  -4   4   -1.78    1.21
 -10   4   4   -1.46    1.24
  10   4  -4    1.95    1.87
 -10  -4  -4    0.07    1.33
   4 -10  -4    0.28    1.76
   4  10   4   -0.50    1.38
  -4 -10   4    0.50    1.40
  10  -5  -4    6.34    2.17
   5  10  -4    3.94    1.61
 -10   5  -4    5.50    1.62
   5 -10   4    3.15    2.16
  -5  10   4    5.15    1.53
  -5 -10  -4    6.50    1.61
 -10  -5   4    2.56    1.85
  10   5   4    8.37    2.27
   5  10   4    8.45    1.98
 -10   5   4    4.51    1.79
  -5  10  -4    6.60    1.79
  10   5  -4    6.20    2.03
 -10  -5  -4    6.44    1.91
  -5 -10   4    5.01    1.84
  10  -5   4    8.15    2.04
   5 -10  -4    5.85    1.91
  10   5  -4    5.18    1.41
  -6 -10  -4   14.23    2.02
 -10  -6   4   20.20    3.32
  10   6   4   13.69    2.77
   6  10  -4   18.05    2.17
  10  -6  -4    9.85    2.44
 -10  -6   4   11.90    2.42
   6 -10   4   18.73    3.72
 -10   6  -4   17.45    2.51
  -6  10   4   11.50    1.98
  -6  10  -4   10.13    2.02
 -10  -6  -4   21.38    2.88
  10  -6   4   17.28    2.49
  10   6  -4   14.18    2.03
  -6 -10   4   14.22    2.68
   6 -10  -4   12.09    2.37
   6  10   4   12.40    2.14
 -10   6   4   11.96    2.21
 -10   7  -4    0.67    1.32
  -7 -10  -4    0.89    1.40
 -10  -7   4    0.20    1.70
  -7  10   4    1.95    1.44
  10  -7  -4    1.04    1.95
   7 -10   4   -0.21    2.41
 -10  -7   4    0.07    1.92
   7  10  -4   -0.29    1.28
   7  10   4   -0.39    1.33
  10  -7   4    1.75    1.69
  -7 -10   4    3.69    1.73
  -7  10  -4    0.87    1.45
 -10   7   4   -0.74    1.68
  10   7  -4    0.24    1.43
   7 -10  -4    1.90    1.78
  11   0  -4    0.57    1.78
 -11   0  -4    0.42    1.44
   0  11   4    0.25    1.52
   0  11  -4   -0.31    1.19
   0 -11   4    0.79    1.80
 -11   0   4   -0.83    1.69
  11   0   4    0.40    1.73
   0 -11  -4    0.52    1.07
   1  11  -4    0.37    1.20
  11  -1  -4   -0.70    1.66
  -1  11   4    1.31    1.63
 -11   1  -4    1.75    1.69
  11   1   4    3.09    1.85
   1 -11   4   -0.89    1.73
  -1 -11  -4    0.01    1.32
 -11  -1   4    2.99    1.85
  -1  11  -4    0.71    1.42
   1 -11  -4   -0.58    1.18
 -11   1   4   -2.13    1.47
  -1 -11   4    0.61    1.73
   1  11   4    1.24    1.40
 -11  -1  -4    0.93    1.49
  11  -1   4    1.47    1.59
  11   1  -4    0.59    1.53
   2  11  -4    2.43    1.35
  -2  11   4    1.67    1.45
 -11  -2   4   -0.25    1.84
  11   2   4   -0.64    1.77
 -11   2  -4    1.07    1.57
  11  -2  -4    0.91    1.63
   2 -11   4    1.67    2.02
  -2 -11  -4    1.11    1.38
 -11   2   4    2.12    1.71
  11  -2   4   -0.14    1.44
   2  11   4    2.50    1.65
  11   2  -4    1.51    1.57
  -2  11  -4    0.98    1.37
  -2 -11   4    2.27    1.71
 -11  -2  -4    2.99    1.73
   2 -11  -4    1.83    1.34
   3  11  -4    6.44    1.76
  -3  11   4    5.01    1.94
  11   3   4    9.72    2.48
 -11   3  -4    8.74    1.94
 -11  -3   4    5.82    2.24
  11  -3  -4    7.30    2.14
   3 -11   4    6.93    2.39
  -3 -11  -4    9.25    1.81
   3  11   4    4.88    1.74
 -11   3   4    8.32    2.17
  -3  11  -4    5.55    1.77
  11  -3   4    6.72    2.08
  -3 -11   4    7.58    2.28
  11   3  -4    3.11    1.97
 -11  -3  -4    5.07    1.81
   4 -11   4    5.55    2.30
  11   4   4    2.81    1.89
   4  11  -4    5.39    1.70
  -4 -11  -4    4.13    1.39
 -11   4  -4    5.93    1.74
 -11  -4   4    3.48    2.19
  -4  11   4    6.50    1.73
  11  -4  -4    0.74    1.90
 -11   4   4    4.70    1.83
  11  -4   4    4.04    1.79
   4  11   4    3.87    1.53
  -4 -11   4    4.66    2.10
  11   4  -4    4.52    1.93
  -4  11  -4    4.39    1.73
 -11  -4  -4    7.87    2.11
  -5 -11  -4    3.38    1.49
   5  11  -4    2.83    1.45
  11   5   4    0.81    2.15
   5 -11   4    9.28    2.98
  11  -5  -4    3.09    2.13
 -11   5  -4    3.73    1.63
  -5  11   4    0.43    1.29
 -11  -5   4    5.80    2.20
 -11  -5  -4    3.73    1.95
  -5  11  -4    2.95    1.52
   5 -11  -4    1.97    1.81
  -5 -11   4    2.97    1.88
  11  -5   4    1.64    1.76
   5  11   4    3.17    1.75
 -11   5   4    3.56    1.78
  11   5  -4    3.95    1.50
  11   5  -4    2.49    1.95
 -11  -6   4    0.34    2.05
  11   6   4    3.11    2.37
   6 -11   4    3.82    2.64
  11   6  -4    0.98    1.30
  11   6  -4    3.73    2.04
  -6 -11   4    0.76    1.58
   0  12  -4    7.27    1.75
 -12   0  -4    8.72    2.26
   0  12   4    8.23    2.28
 -12   0   4    6.53    2.28
   0 -12  -4    3.91    1.53
   0 -12   4    8.35    2.46
  12   0   4    9.30    2.50
  12   0  -4    6.71    2.07
   1  12  -4    1.43    1.53
   1 -12   4    0.93    2.04
 -12  -1   4    3.11    1.92
  12   1   4   -0.72    1.62
 -12   1  -4    1.95    1.77
  12  -1  -4    2.68    1.95
  -1 -12  -4    4.64    1.63
  -1  12   4    1.67    1.71
  -1  12  -4    0.23    1.53
  12  -1   4   -0.42    1.61
   1  12   4    1.70    1.56
   1 -12  -4   -0.04    1.13
 -12   1   4   -0.61    1.57
 -12  -1  -4    0.38    1.52
  -1 -12   4    0.43    1.83
  12   1  -4    0.05    1.60
   2  12  -4    2.32    1.50
  -2 -12  -4    3.19    1.49
 -12   2  -4    2.25    1.55
 -12  -2   4   -0.13    1.91
  12  -2  -4   -0.36    1.74
   2 -12   4   -1.43    1.67
  -2  12   4    1.41    1.78
  12   2   4    2.14    2.13
   2 -12  -4    0.66    1.27
  12  -2   4    3.37    2.08
  -2 -12   4   -1.00    1.47
  12   2  -4    0.80    1.85
 -12   2   4    1.88    1.72
  -2  12  -4    2.43    1.39
   2  12   4    0.54    1.65
 -12  -2  -4    1.82    1.60
  12   3   4    9.97    2.75
 -12  -3   4   12.25    2.80
 -12   3  -4    7.15    2.02
  -3 -12  -4   11.00    1.86
  -3  12   4    5.59    2.17
   3  12   4    7.79    1.96
 -12  -3  -4   12.27    2.57
  12   3  -4    8.40    2.22
   0   0   5   17.59    2.97
   0  -1   5    0.71    1.49
   0  -1  -5   -1.27    1.60
   1   0   5   -1.13    1.36
  -1   1  -5    6.12    1.68
   1  -1  -5    8.54    2.23
   1  -1   5    9.08    2.32
  -1  -1   5    5.04    2.12
   0  -2   5    2.40    1.86
   0   2  -5    2.17    1.45
   0  -2  -5    0.72    1.69
  -2   1  -5    1.28    1.24
   1   2  -5   -0.73    1.16
   2  -1  -5   -1.71    1.53
   1  -2   5    0.17    1.49
  -2  -1   5    1.19    1.76
   2  -1   5    0.70    1.77
  -1   2  -5    0.50    1.41
   1  -2  -5    0.50    1.63
  -1  -2   5    2.15    1.62
   2  -2   5    9.25    2.41
  -2   2  -5    6.39    1.62
  -2   2   5    9.63    1.78
   2  -2  -5    5.17    2.03
  -2  -2   5    7.74    2.03
  -3   0  -5    0.58    1.34
   0  -3   5   -0.91    1.53
   0   3  -5   -1.71    1.27
   3   0  -5   -0.54    1.41
   3  -1  -5    3.58    2.03
   1  -3   5    3.30    1.91
  -3   1  -5    7.29    1.80
   1   3  -5    8.14    1.86
  -1   3   5    5.71    1.52
  -3   1   5    3.82    1.49
  -1   3  -5    6.72    1.82
  -1  -3   5    3.52    1.96
   1  -3  -5    3.11    1.89
   2  -3   5    8.17    2.44
  -3   2  -5    6.79    1.75
   2   3  -5    7.53    1.75
   3  -2  -5    7.77    2.18
  -3  -2   5    7.50    2.27
  -2   3   5    7.93    1.59
   2  -3  -5    9.09    2.33
  -2  -3   5    6.18    2.22
  -3   2   5    6.61    1.71
  -2   3  -5    9.18    1.91
  -3  -3   5    4.94    1.87
   3  -3   5    3.41    1.86
  -3   3   5    0.75    1.25
   3  -3  -5    2.64    1.90
   3   3  -5    2.56    1.28
  -3   3  -5    5.69    1.71
  -4   0  -5   13.99    2.20
   0   4  -5   14.91    2.29
   4   0  -5   11.14    2.46
   0  -4   5    8.95    2.31
   0   4   5    9.40    1.72
   4  -1  -5    4.62    2.11
  -4   1  -5    8.75    1.90
   1   4  -5    6.83    1.62
   1  -4   5    7.24    2.18
  -1   4   5    4.64    1.47
   4   1  -5    5.30    2.31
  -4   1   5    6.23    1.61
  -1   4  -5    6.37    1.74
  -1  -4   5    7.69    2.24
   2   4  -5    4.21    1.55
  -4   2  -5    3.10    1.46
   2  -4   5    6.82    2.16
  -2   4   5    6.40    1.66
   4  -2  -5    0.69    1.79
  -4  -2   5    4.02    1.91
   2  -4  -5    5.40    2.09
  -4   2   5    4.43    1.43
  -2  -4   5    5.04    2.15
  -2   4  -5    6.65    1.83
   4  -3  -5    1.80    1.78
   3  -4   5    3.98    2.15
  -4   3  -5    9.45    1.94
  -4  -3   5    2.87    1.79
  -3   4   5    2.19    1.30
   3   4  -5    4.65    1.63
  -3  -4   5    6.34    2.10
   3  -4  -5    2.98    2.07
  -3   4  -5    2.84    1.49
  -4   3   5    2.92    1.40
  -4  -4   5   12.10    2.47
   4   4  -5   12.09    1.97
   4  -4  -5   11.44    2.45
  -4   4  -5    9.13    2.06
  -4   4   5   10.54    1.90
   0  -5   5   -0.59    1.70
  -5   0   5   -0.09    1.23
   0   5  -5    0.02    1.45
   5   0   5    1.21    1.40
   5   0  -5   -0.40    1.77
   1   5  -5    1.89    1.47
   5   1   5    2.49    1.46
  -1   5   5    0.93    1.29
  -1  -5  -5    3.09    1.34
   5  -1  -5    4.32    2.14
   1  -5   5    2.21    1.86
  -1   5  -5    1.71    1.59
  -1  -5   5   -1.26    1.59
  -5   1   5    3.94    1.59
   5   1  -5    4.55    1.96
   2   5  -5    5.19    1.72
   2  -5   5    4.35    2.21
  -5   2  -5    3.53    1.65
   5  -2  -5    5.70    2.35
  -2   5   5    7.51    1.74
  -2   5  -5    3.22    1.73
  -2  -5   5    3.37    1.88
   2  -5  -5    4.17    2.11
  -5   2   5    2.57    1.50
  -3   5   5    6.42    1.60
   3  -5   5   10.02    2.72
  -5  -3   5    4.95    2.40
  -5   3  -5    6.69    1.95
   5  -3  -5    5.93    2.21
   3   5  -5    9.15    1.94
  -3   5  -5    9.45    1.93
  -3  -5   5    6.07    2.09
  -5   3   5    5.15    1.72
   3  -5  -5    6.15    2.04
  -4   5  -5    3.41    1.73
   6   0  -5    0.51    1.74
   0  -6  -5    1.86    1.32
   0   6  -5   -1.44    1.21
  -6   0   5   -1.49    1.32
   0  -6   5   -0.77    1.65
   6   0   5    1.65    1.40
  -6  -1   5    0.90    1.22
   1  -6   5    0.12    1.84
   1   6  -5    3.07    1.47
  -1  -6  -5    1.72    1.38
   6  -1  -5    1.29    1.93
   6   1   5    3.46    1.63
  -1   6   5    4.79    1.41
   6  -1   5    1.92    1.54
  -1  -6   5    4.15    2.19
  -6   1   5    2.30    1.54
   6   1  -5    1.19    2.19
  -1   6  -5    2.36    1.59
   2  -6   5    4.89    2.23
  -2   6   5    6.37    1.66
   2   6  -5    6.20    1.84
   6  -2  -5    4.67    2.33
   6  -2   5    6.15    1.68
  -6   2   5    3.69    1.66
  -2   6  -5    4.44    1.68
   0   0   0    0.00    0.00
;
_shelx_hkl_checksum              38180
_shelx_res_file
;
TITL 16124zz in P-42(1)m
CELL  0.71073  14.6898  14.6898   4.0703   90.000   90.000   90.000
ZERR    4.000   0.0051   0.0051   0.0015    0.000    0.000    0.000
LATT -1
SYMM -X, -Y, Z
SYMM Y, -X, -Z
SYMM -Y, X, -Z
SYMM 1/2-X, 1/2+Y, -Z
SYMM 1/2+X, 1/2-Y, -Z
SYMM 1/2-Y, 1/2-X, Z
SYMM 1/2+Y, 1/2+X, Z
SFAC C  H  N BR
UNIT 32 20 4 8
TEMP -100
SIZE 0.08 0.14 0.40
L.S. 10
ACTA
BOND $H
LIST 4
CONF
FMAP 2
PLAN 5
EQIV $1 SYMM Y, 1-X, 1-Z
EQIV $2 SYMM 1-Y, X, 1-Z
MPLA C11 C12 C13 C14
MPLA C11_$1 C12_$1 C13_$1 C14_$1
MPLA C11    C12    C13    C14
MPLA C11_$2 C12_$2 C13_$2 C14_$2
WGHT    0.026700    0.007300
FVAR       0.17362
BR12  4    0.643438    0.583244    0.382655    11.00000    0.03368    0.02125 =
         0.04309    0.00126    0.00715   -0.00062
N11   3    0.828062    0.671938    0.530733    10.50000    0.02683    0.02683 =
         0.02984   -0.00052    0.00052    0.00921
C11   1    0.770791    0.729209    0.353762    10.50000    0.02381    0.02381 =
         0.02065   -0.00310    0.00310    0.00672
C12   1    0.684458    0.701345    0.267097    11.00000    0.02666    0.02023 =
         0.02651   -0.00280    0.00798    0.00084
C13   1    0.625614    0.758709    0.098057    11.00000    0.02143    0.02402 =
         0.02733   -0.00427    0.00168    0.00009
AFIX  43
H13A  2    0.566405    0.738216    0.040246    11.00000   -1.20000
AFIX   0
C14   1    0.653516    0.846484    0.013158    10.50000    0.02447    0.02447 =
         0.02209   -0.00376    0.00376    0.00722
C15   1    0.875329    0.624671    0.682928    10.50000    0.04801    0.04801 =
         0.04608    0.00227   -0.00227    0.01606
C16   1    0.589435    0.910565   -0.162371    10.50000    0.03294    0.03294 =
         0.03257    0.00128   -0.00128    0.00939
AFIX 137
H16A  2    0.531780    0.879312   -0.206546    10.50000   -1.50000
H16B  2    0.616883    0.929968   -0.370345    10.50000   -1.50000
H16C  2    0.578076    0.963981   -0.024078    10.50000   -1.50000
AFIX   0
HKLF 4
REM  16124zz in P-42(1)m
REM R1 =  0.0232 for    1001 Fo > 4sig(Fo)  and  0.0267 for all    1074 data
REM     59 parameters refined using      0 restraints
END
WGHT      0.0264      0.0145
REM Highest difference peak  0.299,  deepest hole -0.509,  1-sigma level  0.107
Q1    1   0.6420  0.5808  0.6261  11.00000  0.05    0.30
Q2    1   0.7456  0.7088 -0.1289  11.00000  0.05    0.29
Q3    1   0.5206  0.7055 -0.0362  11.00000  0.05    0.28
Q4    1   0.5329  0.5057  0.0929  11.00000  0.05    0.27
Q5    1   0.8037  0.7590  0.6807  11.00000  0.05    0.26
;
_shelx_res_checksum              41070
_shelxl_version_number           2014/6
loop_
_space_group_symop_operation_xyz
'x, y, z'
'-x, -y, z'
'y, -x, -z'
'-y, x, -z'
'-x+1/2, y+1/2, -z'
'x+1/2, -y+1/2, -z'
'-y+1/2, -x+1/2, z'
'y+1/2, x+1/2, z'
loop_
_atom_site_type_symbol
_atom_site_label
_atom_site_fract_x
_atom_site_fract_y
_atom_site_fract_z
_atom_site_U_iso_or_equiv
_atom_site_adp_type
_atom_site_calc_flag
_atom_site_occupancy
Br Br12 0.64344(3) 0.58324(2) 0.38265(14) 0.03268(14) Uani d 1
N N11 0.8281(2) 0.6719(2) 0.5307(11) 0.0278(11) Uani d 1
C C11 0.7708(2) 0.7292(2) 0.3538(15) 0.0228(11) Uani d 1
C C12 0.6845(3) 0.7013(3) 0.2671(9) 0.0245(8) Uani d 1
C C13 0.6256(2) 0.7587(2) 0.0981(10) 0.0243(8) Uani d 1
H H13A 0.5664 0.7382 0.0402 0.029 Uiso calc 1
C C14 0.6535(3) 0.8465(3) 0.0132(13) 0.0237(11) Uani d 1
C C15 0.8753(3) 0.6247(3) 0.6829(18) 0.0474(18) Uani d 1
C C16 0.5894(3) 0.9106(3) -0.1624(14) 0.0328(12) Uani d 1
H H16A 0.5318 0.8793 -0.2065 0.049 Uiso calc 0.5
H H16B 0.6169 0.9300 -0.3703 0.049 Uiso calc 0.5
H H16C 0.5781 0.9640 -0.0241 0.049 Uiso calc 0.5
loop_
_atom_site_aniso_label
_atom_site_aniso_U_11
_atom_site_aniso_U_22
_atom_site_aniso_U_33
_atom_site_aniso_U_12
_atom_site_aniso_U_13
_atom_site_aniso_U_23
Br12 0.0337(2) 0.02125(19) 0.0431(2) -0.00062(15) 0.0071(2) 0.0013(2)
N11 0.0268(15) 0.0268(15) 0.030(3) 0.009(2) 0.0005(13) -0.0005(13)
C11 0.0238(15) 0.0238(15) 0.021(3) 0.0067(19) 0.0031(16) -0.0031(16)
C12 0.0267(19) 0.0202(18) 0.027(2) 0.0008(16) 0.0080(16) -0.0028(15)
C13 0.0214(17) 0.0240(17) 0.0273(19) 0.0001(14) 0.0017(18) -0.0043(19)
C14 0.0245(16) 0.0245(16) 0.022(3) 0.007(2) 0.0038(14) -0.0038(14)
C15 0.048(2) 0.048(2) 0.046(5) 0.016(3) -0.002(2) 0.002(2)
C16 0.0329(18) 0.0329(18) 0.033(3) 0.009(3) -0.0013(18) 0.0013(18)
loop_
_atom_type_symbol
_atom_type_description
_atom_type_scat_dispersion_real
_atom_type_scat_dispersion_imag
_atom_type_scat_source
C C 0.0033 0.0016 'International Tables Vol C Tables 4.2.6.8 and 6.1.1.4'
H H 0.0000 0.0000 'International Tables Vol C Tables 4.2.6.8 and 6.1.1.4'
N N 0.0061 0.0033 'International Tables Vol C Tables 4.2.6.8 and 6.1.1.4'
Br Br -0.2901 2.4595 'International Tables Vol C Tables 4.2.6.8 and 6.1.1.4'
loop_
_geom_angle_atom_site_label_1
_geom_angle_atom_site_label_2
_geom_angle_atom_site_label_3
_geom_angle_site_symmetry_1
_geom_angle_site_symmetry_3
_geom_angle
C15 N11 C11 . . 178.9(6)
C12 C11 C12 . 7_665 118.7(5)
C12 C11 N11 . . 120.6(3)
C12 C11 N11 7_665 . 120.6(3)
C11 C12 C13 . . 121.3(4)
C11 C12 Br12 . . 120.0(3)
C13 C12 Br12 . . 118.7(3)
C12 C13 C14 . . 120.0(4)
C12 C13 H13A . . 120.0
C14 C13 H13A . . 120.0
C13 C14 C13 . 7_665 118.7(5)
C13 C14 C16 . . 120.6(2)
C13 C14 C16 7_665 . 120.6(2)
C14 C16 H16A . . 109.5
C14 C16 H16B . . 109.5
H16A C16 H16B . . 109.5
C14 C16 H16C . . 109.5
H16A C16 H16C . . 109.5
H16B C16 H16C . . 109.5
loop_
_geom_bond_atom_site_label_1
_geom_bond_atom_site_label_2
_geom_bond_site_symmetry_2
_geom_bond_distance
Br12 C12 . 1.896(4)
N11 C15 . 1.161(8)
N11 C11 . 1.391(7)
C11 C12 . 1.379(5)
C11 C12 7_665 1.379(5)
C12 C13 . 1.389(6)
C13 C14 . 1.396(4)
C13 H13A . 0.9500
C14 C13 7_665 1.396(4)
C14 C16 . 1.511(7)
C16 H16A . 0.9800
C16 H16B . 0.9800
C16 H16C . 0.9800
loop_
_geom_torsion_atom_site_label_1
_geom_torsion_atom_site_label_2
_geom_torsion_atom_site_label_3
_geom_torsion_atom_site_label_4
_geom_torsion_site_symmetry_1
_geom_torsion_site_symmetry_4
_geom_torsion
C12 C11 C12 C13 7_665 . -0.5(8)
N11 C11 C12 C13 . . 178.2(4)
C12 C11 C12 Br12 7_665 . -179.8(3)
N11 C11 C12 Br12 . . -1.1(7)
C11 C12 C13 C14 . . -0.1(6)
Br12 C12 C13 C14 . . 179.2(3)
C12 C13 C14 C13 . 7_665 0.7(7)
C12 C13 C14 C16 . . -178.3(4)
