#------------------------------------------------------------------------------
#$Date: 2019-12-26 21:24:38 +0200 (Thu, 26 Dec 2019) $
#$Revision: 246104 $
#$URL: file:///home/coder/svn-repositories/cod/cif/2/31/17/2311786.cif $
#------------------------------------------------------------------------------
#
# This file is available in the Crystallography Open Database (COD),
# http://www.crystallography.net/. The original data for this entry
# were provided by IUCr Journals, http://journals.iucr.org/.
#
# The file may be used within the scientific community so long as
# proper attribution is given to the journal article from which the
# data were obtained.
#
data_2311786
loop_
_publ_author_name
'Fulle, Kyle'
'Sanjeewa, Liurukara D.'
'McMillen, Colin D.'
'Kolis, Joseph W.'
_publ_section_title
;
 Crystal chemistry and the role of ionic radius in rare earth
 tetrasilicates:
 Ba<sub>2</sub>RE<sub>2</sub>Si<sub>4</sub>O<sub>12</sub>F<sub>2</sub> (RE
 = Er<sup>3+</sup>-Lu<sup>3+</sup>) and
 Ba<sub>2</sub>RE<sub>2</sub>Si<sub>4</sub>O<sub>13</sub> (RE =
 La<sup>3+</sup>-Ho<sup>3+</sup>).
;
_journal_issue                   'Pt 5'
_journal_name_full
'Acta crystallographica Section B, Structural science, crystal engineering and materials'
_journal_page_first              907
_journal_page_last               915
_journal_paper_doi               10.1107/S2052520617009544
_journal_volume                  73
_journal_year                    2017
_chemical_formula_sum            'Ba2 F2 O12 Si4 Yb2'
_chemical_formula_weight         963.12
_space_group_crystal_system      triclinic
_space_group_IT_number           2
_space_group_name_Hall           '-P 1'
_space_group_name_H-M_alt        'P -1'
_atom_sites_solution_primary     direct
_atom_sites_solution_secondary   difmap
_audit_creation_method           SHELXL-2014/7
_cell_angle_alpha                107.7984(14)
_cell_angle_beta                 101.8656(14)
_cell_angle_gamma                92.9455(14)
_cell_formula_units_Z            1
_cell_length_a                   5.4461(3)
_cell_length_b                   7.1212(3)
_cell_length_c                   8.9128(4)
_cell_measurement_reflns_used    9791
_cell_measurement_temperature    300(2)
_cell_measurement_theta_max      26.49
_cell_measurement_theta_min      2.46
_cell_volume                     319.66(3)
_computing_cell_refinement       'Bruker SAINT'
_computing_data_collection       'Bruker APEX3'
_computing_data_reduction        'Bruker SAINT'
_computing_molecular_graphics    'DIAMOND (Bradenburg, 1999)'
_computing_publication_material  'Bruker SHELXTL'
_computing_structure_refinement  'SHELXL-2014/7 (Sheldrick, 2014)'
_computing_structure_solution    'SHELXT-2014 (Sheldrick 2014)'
_diffrn_ambient_temperature      300(2)
_diffrn_measured_fraction_theta_full 1.000
_diffrn_measured_fraction_theta_max 1.000
_diffrn_measurement_device_type  'Bruker Photon 100'
_diffrn_measurement_method       '\f and \w scans'
_diffrn_radiation_type           MoK\a
_diffrn_radiation_wavelength     0.71073
_diffrn_reflns_av_R_equivalents  0.0234
_diffrn_reflns_av_unetI/netI     0.0146
_diffrn_reflns_Laue_measured_fraction_full 1.000
_diffrn_reflns_Laue_measured_fraction_max 1.000
_diffrn_reflns_limit_h_max       6
_diffrn_reflns_limit_h_min       -6
_diffrn_reflns_limit_k_max       8
_diffrn_reflns_limit_k_min       -8
_diffrn_reflns_limit_l_max       11
_diffrn_reflns_limit_l_min       -11
_diffrn_reflns_number            8268
_diffrn_reflns_point_group_measured_fraction_full 1.000
_diffrn_reflns_point_group_measured_fraction_max 1.000
_diffrn_reflns_theta_full        25.242
_diffrn_reflns_theta_max         26.498
_diffrn_reflns_theta_min         2.468
_diffrn_source                   Ius
_exptl_absorpt_coefficient_mu    21.033
_exptl_absorpt_correction_T_max  1.0000
_exptl_absorpt_correction_T_min  0.8387
_exptl_absorpt_correction_type   multi-scan
_exptl_absorpt_process_details   'SADABS, Bruker'
_exptl_crystal_colour            colourless
_exptl_crystal_density_diffrn    5.003
_exptl_crystal_description       block
_exptl_crystal_F_000             422
_exptl_crystal_size_max          0.112
_exptl_crystal_size_mid          0.064
_exptl_crystal_size_min          0.063
_refine_diff_density_max         1.364
_refine_diff_density_min         -0.907
_refine_diff_density_rms         0.357
_refine_ls_extinction_coef       0.0157(8)
_refine_ls_extinction_expression Fc^*^=kFc[1+0.001xFc^2^\l^3^/sin(2\q)]^-1/4^
_refine_ls_extinction_method     'SHELXL-2014/7 (Sheldrick 2014'
_refine_ls_goodness_of_fit_ref   1.138
_refine_ls_matrix_type           full
_refine_ls_number_parameters     101
_refine_ls_number_reflns         1316
_refine_ls_number_restraints     0
_refine_ls_restrained_S_all      1.138
_refine_ls_R_factor_all          0.0143
_refine_ls_R_factor_gt           0.0141
_refine_ls_shift/su_max          0.002
_refine_ls_shift/su_mean         0.000
_refine_ls_structure_factor_coef Fsqd
_refine_ls_weighting_details
'w=1/[\s^2^(Fo^2^)+(0.0427P)^2^+0.3644P] where P=(Fo^2^+2Fc^2^)/3'
_refine_ls_weighting_scheme      calc
_refine_ls_wR_factor_gt          0.0574
_refine_ls_wR_factor_ref         0.0575
_reflns_Friedel_coverage         0.000
_reflns_number_gt                1308
_reflns_number_total             1316
_reflns_threshold_expression     'I > 2\s(I)'
_cod_data_source_file            rm5005sup1.cif
_cod_data_source_block           Yb
_cod_database_code               2311786
_shelx_shelxl_version_number     2014/7
_shelx_space_group_comment
;
The symmetry employed for this shelxl refinement is uniquely defined
by the following loop, which should always be used as a source of
symmetry information in preference to the above space-group names.
They are only intended as comments.
;
_shelx_estimated_absorpt_t_min   0.202
_shelx_estimated_absorpt_t_max   0.351
_shelx_res_file
;

    KF602.res created by SHELXL-2014/7


TITL KF602 in P-1
CELL 0.71073   5.44610   7.12120   8.91280 107.7984 101.8656  92.9455
ZERR    1.00   0.00030   0.00030   0.00040   0.0014   0.0014   0.0014
LATT  1
SFAC O F SI BA YB
UNIT 12 2 4 2 2
TEMP 29.020
SIZE 0.112 0.063 0.064

L.S. 20
BOND
FMAP 2
PLAN 20
omit -3 53
acta
WGHT    0.042700    0.364400
EXTI    0.015670
FVAR       0.15152
BA1   4    0.758334    0.257334    0.045255    11.00000    0.01117    0.00726 =
         0.00835    0.00080    0.00118    0.00124
YB1   5    0.162796    0.148589    0.700821    11.00000    0.00635    0.00565 =
         0.00522    0.00090    0.00086    0.00008
SI1   3    0.383998    0.177239    0.368737    11.00000    0.00589    0.00503 =
         0.00466    0.00071    0.00046    0.00016
SI2   3    0.677726    0.440445    0.709942    11.00000    0.00432    0.00583 =
         0.00672    0.00148    0.00039    0.00015
O1    1    0.613391    0.311617    0.518465    11.00000    0.00756    0.01107 =
         0.00894   -0.00004   -0.00215   -0.00149
O2    1    0.166585    0.089155    0.437883    11.00000    0.01179    0.00981 =
         0.00858    0.00350    0.00398   -0.00093
O3    1    0.254339    0.325582    0.274147    11.00000    0.01188    0.00549 =
         0.01036    0.00233   -0.00311   -0.00155
O4    1    0.505944    0.014156    0.248603    11.00000    0.01199    0.01062 =
         0.00957   -0.00031    0.00150    0.00352
O5    1    0.445730    0.416545    0.791802    11.00000    0.00726    0.01051 =
         0.01272    0.00016    0.00454   -0.00306
O6    1    0.930037    0.378315    0.801823    11.00000    0.00771    0.00798 =
         0.01089    0.00235    0.00137    0.00344
F1    2    0.151327    0.099103    0.926722    11.00000    0.02816    0.02100 =
         0.01605    0.01235    0.01315    0.01412
HKLF 4

REM  KF602 in P-1
REM R1 =  0.0141 for    1308 Fo > 4sig(Fo)  and  0.0143 for all    1316 data
REM    101 parameters refined using      0 restraints

END

WGHT      0.0241      0.4324

REM Highest difference peak  1.364,  deepest hole -0.907,  1-sigma level  0.357
Q1    1   0.9292  0.4403  0.5524  11.00000  0.05    1.36
Q2    1   0.5359  0.0562  0.3500  11.00000  0.05    1.16
Q3    1   0.4714  0.5437  0.8862  11.00000  0.05    0.98
Q4    1   0.9672  0.2799  0.6976  11.00000  0.05    0.94
Q5    1   0.3262  0.3379  0.2127  11.00000  0.05    0.91
Q6    1   0.0067  0.0613  0.9877  11.00000  0.05    0.84
Q7    1   0.3915  0.1409  0.3194  11.00000  0.05    0.82
Q8    1   0.0700  0.0583  0.9063  11.00000  0.05    0.82
Q9    1   0.0495  0.1209  0.7084  11.00000  0.05    0.75
Q10   1   0.4973  0.0227  0.4573  11.00000  0.05    0.73
Q11   1   0.8090  0.2771  0.4751  11.00000  0.05    0.73
Q12   1   0.5336  0.2250  0.3791  11.00000  0.05    0.72
Q13   1   0.6284  0.1913  0.4644  11.00000  0.05    0.72
Q14   1   0.2325  0.3302  0.8421  11.00000  0.05    0.66
Q15   1   0.3212 -0.0337  0.3341  11.00000  0.05    0.65
Q16   1   1.0796  0.3889  0.6504  11.00000  0.05    0.64
Q17   1   0.4534  0.3286  0.0768  11.00000  0.05    0.64
Q18   1   1.1065  0.5367  0.6436  11.00000  0.05    0.64
Q19   1   0.5089  0.3169  0.1971  11.00000  0.05    0.64
Q20   1  -0.0029  0.0340  0.8097  11.00000  0.05    0.63
;
_shelx_res_checksum              4128
_shelx_hkl_file
;
  -1   0   0   25.81    0.83
  -1   0   0   27.20    0.90
  -1   0   0   27.61    0.82
  -1   0   0   27.49    0.81
  -1   0   0   27.05    0.81
  -1   0   0   27.18    0.84
   1   0   0   26.56    0.87
   1   0   0   26.03    0.83
   1   0   0   27.75    0.82
   1   0   0   27.51    0.82
   1   0   0   27.21    0.90
   1   0   0   27.83    0.82
   1   0   0   27.52    0.84
  -2   0   0  392.77   11.16
  -2   0   0  385.00   11.36
  -2   0   0  386.42   11.22
  -2   0   0  391.21   11.21
   2   0   0  404.53   11.30
   2   0   0  388.48   11.21
   2   0   0  394.17   11.18
   2   0   0  392.10   11.37
  -3   0   0  251.86    7.50
  -3   0   0  243.86    7.71
  -3   0   0  264.47    7.50
   3   0   0  247.29    7.43
   3   0   0  264.07    7.75
   3   0   0  259.92    7.45
   3   0   0  259.20    7.45
   3   0   0  255.56    7.51
   3   0   0  264.68    7.52
   3   0   0  268.15    7.65
  -4   0   0    2.26    0.33
  -4   0   0    1.96    0.40
   4   0   0    2.58    0.34
   4   0   0    2.35    0.34
   4   0   0    2.38    0.28
   4   0   0    2.94    0.57
   4   0   0    3.30    0.25
   4   0   0    2.62    0.37
   4   0   0    2.50    0.38
   4   0   0    2.78    0.39
   4   0   0    1.88    0.43
  -5   0   0   41.03    1.88
  -5   0   0   41.14    1.54
   5   0   0   39.68    1.44
   5   0   0   42.65    1.57
   5   0   0   41.14    1.67
   5   0   0   37.47    1.87
  -6   0   0   18.81    1.46
  -6   0   0   17.21    1.53
   6   0   0   20.18    1.14
  -7   0   0    7.96    1.08
   7   0   0    7.52    0.94
  -8   0   0    2.57    0.99
   8   0   0    2.38    1.12
   7  -1   0  138.13    4.64
  -7   1   0  141.85    4.66
   6  -1   0   15.01    0.81
   6  -1   0   13.37    0.88
   6  -1   0   13.02    1.24
   6  -1   0   14.80    1.01
  -6   1   0   15.91    0.99
   5  -1   0  136.65    4.12
   5  -1   0  136.48    4.26
   5  -1   0  133.50    4.14
   5  -1   0  137.79    4.06
   5  -1   0  125.97    4.48
   5  -1   0  137.93    4.23
  -5   1   0  136.27    4.21
  -5   1   0  135.16    4.62
  -5   1   0  140.23    4.27
   4  -1   0  217.42    6.63
   4  -1   0  217.14    6.76
   4  -1   0  214.16    6.42
   4  -1   0  219.36    6.37
   4  -1   0  211.20    6.38
   4  -1   0  220.94    6.31
   4  -1   0  218.68    6.43
  -4   1   0  220.49    6.41
  -4   1   0  216.95    6.46
  -4   1   0  207.61    6.71
  -4   1   0  221.55    6.35
   3  -1   0    5.99    0.37
   3  -1   0    6.42    0.36
   3  -1   0    5.43    0.51
   3  -1   0    5.61    0.36
   3  -1   0    6.34    0.40
   3  -1   0    5.71    0.31
  -3   1   0    5.90    0.33
  -3   1   0    5.60    0.37
  -3   1   0    5.73    0.31
  -3   1   0    6.18    0.38
  -3   1   0    6.06    0.37
   2  -1   0   68.56    2.14
   2  -1   0   62.85    1.97
   2  -1   0   63.59    1.97
   2  -1   0   66.00    2.00
   2  -1   0   66.35    1.97
  -2   1   0   64.93    1.94
  -2   1   0   63.58    2.11
  -2   1   0   63.01    1.94
  -2   1   0   64.54    1.96
  -2   1   0   61.48    1.99
  -2   1   0   66.77    1.98
   1  -1   0   75.39    2.21
   1  -1   0   73.72    2.23
   1  -1   0   73.12    2.22
   1  -1   0   79.20    2.31
   1  -1   0   76.36    2.24
   1  -1   0   76.70    2.23
  -1   1   0   73.98    2.23
  -1   1   0   78.65    2.24
  -1   1   0   73.52    2.24
   0  -1   0   91.00    2.75
   0  -1   0   94.86    2.74
   0  -1   0   95.97    2.76
   0   1   0   97.08    2.74
   0   1   0   95.57    2.75
   0   1   0   95.38    2.76
  -1  -1   0   27.71    0.93
  -1  -1   0   26.41    0.83
  -1  -1   0   26.34    0.82
   1   1   0   27.51    0.94
   1   1   0   26.39    0.90
   1   1   0   26.58    0.83
  -2  -1   0  186.94    5.58
  -2  -1   0  175.03    5.39
  -2  -1   0  185.86    5.34
  -2  -1   0  185.76    5.52
   2   1   0  189.49    5.39
   2   1   0  192.48    5.52
   2   1   0  191.26    5.59
   2   1   0  181.87    5.37
   2   1   0  188.87    5.37
  -3  -1   0  539.36   15.69
  -3  -1   0  514.29   15.94
   3   1   0  552.26   15.64
   3   1   0  563.56   15.71
   3   1   0  564.26   15.83
   3   1   0  545.01   15.75
   3   1   0  550.89   15.69
   3   1   0  567.83   15.87
   3   1   0  537.61   15.97
  -4  -1   0   12.70    0.87
  -4  -1   0   12.75    0.62
   4   1   0   10.44    0.73
   4   1   0   12.38    0.65
   4   1   0   12.90    0.79
   4   1   0   13.45    0.95
   4   1   0   13.30    0.68
   4   1   0   13.35    0.88
  -5  -1   0  388.89   10.99
  -5  -1   0  381.70   11.49
   5   1   0  368.64   10.92
   5   1   0  379.06   11.06
   5   1   0  359.44   11.14
  -6  -1   0   75.02    3.14
  -6  -1   0   78.67    2.61
   6   1   0   69.39    2.52
   6   1   0   75.13    2.71
  -7  -1   0   31.37    2.27
  -7  -1   0   31.71    1.64
   7   1   0   31.53    1.76
   7  -2   0   39.39    1.95
  -7   2   0   41.81    1.95
   6  -2   0   30.90    1.58
   6  -2   0   33.34    1.38
   6  -2   0   34.14    1.38
   6  -2   0   30.69    1.48
   6  -2   0   31.66    1.48
  -6   2   0   35.28    1.54
  -6   2   0   35.01    1.54
   5  -2   0  324.39    9.33
   5  -2   0  314.69    9.38
   5  -2   0  319.07    9.33
   5  -2   0  319.31    9.39
   5  -2   0  319.80    9.26
  -5   2   0  285.91    9.27
  -5   2   0  331.99    9.36
  -5   2   0  324.99    9.27
  -5   2   0  320.38    9.46
   4  -2   0  202.81    5.83
   4  -2   0  195.65    6.23
   4  -2   0  202.39    5.88
   4  -2   0  194.39    5.90
   4  -2   0  191.36    5.82
   4  -2   0  193.50    5.91
  -4   2   0  205.57    5.88
  -4   2   0  199.54    5.82
  -4   2   0  204.04    5.85
  -4   2   0  191.35    5.89
  -4   2   0  193.82    5.95
   3  -2   0   55.61    1.86
   3  -2   0   57.23    1.87
   3  -2   0   57.63    2.08
   3  -2   0   55.66    1.81
   3  -2   0   66.07    1.90
  -3   2   0   54.77    1.87
  -3   2   0   57.00    1.84
  -3   2   0   54.95    1.89
  -3   2   0   56.76    1.82
  -3   2   0   59.00    1.91
   2  -2   0  718.91   21.81
   2  -2   0  803.48   21.98
   2  -2   0  770.65   21.83
  -2   2   0  767.31   21.84
   1  -2   0  299.64    8.41
   1  -2   0  290.53    8.43
   1  -2   0  295.21    8.45
  -1   2   0  293.49    8.41
  -1   2   0  291.91    8.43
  -1   2   0  284.11    8.45
  -1   2   0  295.07    8.45
   0  -2   0  256.94    7.43
   0  -2   0  258.58    7.42
   0  -2   0  256.90    7.40
   0   2   0  261.88    7.43
   0   2   0  254.75    7.40
  -1  -2   0  536.42   15.59
  -1  -2   0  542.51   15.44
  -1  -2   0  531.33   15.57
   1   2   0  550.97   15.57
   1   2   0  551.01   15.53
  -2  -2   0    0.98    0.15
  -2  -2   0    1.31    0.25
  -2  -2   0    1.31    0.18
   2   2   0    1.37    0.21
   2   2   0    1.21    0.18
   2   2   0    0.97    0.27
   2   2   0    1.03    0.24
   2   2   0    0.97    0.15
  -3  -2   0    1.34    0.19
  -3  -2   0    1.66    0.33
  -3  -2   0    2.02    0.36
   3   2   0    1.61    0.25
   3   2   0    1.68    0.25
   3   2   0    2.47    0.43
   3   2   0    1.87    0.40
   3   2   0    1.56    0.31
   3   2   0    2.06    0.24
   3   2   0    1.52    0.24
  -4  -2   0   15.05    0.99
  -4  -2   0   14.92    0.66
   4   2   0   15.25    0.80
   4   2   0   14.27    1.08
   4   2   0   14.40    0.93
   4   2   0   15.84    0.70
   4   2   0   15.24    1.07
   4   2   0   14.92    0.70
   4   2   0   15.18    0.80
  -5  -2   0   36.65    1.82
  -5  -2   0   36.20    1.37
   5   2   0   36.00    1.48
   5   2   0   37.46    1.53
  -6  -2   0   20.01    1.62
   6   2   0   22.57    1.29
  -7  -2   0   23.97    2.19
   7   2   0   24.97    1.74
   7  -3   0   65.42    2.71
   7  -3   0   69.18    2.50
  -7   3   0   67.95    2.76
   6  -3   0   78.30    2.69
   6  -3   0   79.79    2.80
   6  -3   0   75.65    2.84
   6  -3   0   81.01    2.71
  -6   3   0   74.77    2.75
  -6   3   0   82.31    2.88
   5  -3   0    2.06    0.45
   5  -3   0    1.77    0.41
   5  -3   0    1.24    0.40
   5  -3   0    1.38    0.36
  -5   3   0    1.67    0.37
  -5   3   0    1.36    0.34
  -5   3   0    1.83    0.35
  -5   3   0    1.62    0.43
   4  -3   0    3.38    0.48
   4  -3   0    3.44    0.42
   4  -3   0    3.04    0.44
   4  -3   0    3.14    0.64
   4  -3   0    3.00    0.42
  -4   3   0    3.06    0.42
  -4   3   0    3.28    0.43
  -4   3   0    2.79    0.48
  -4   3   0    3.13    0.42
  -4   3   0    3.56    0.48
   3  -3   0    6.29    0.62
   3  -3   0    6.22    0.48
   3  -3   0    6.06    0.48
   3  -3   0    6.24    0.42
   3  -3   0    6.45    0.47
  -3   3   0    6.14    0.42
  -3   3   0    6.19    0.43
  -3   3   0    6.79    0.55
  -3   3   0    5.80    0.46
  -3   3   0    6.18    0.43
   2  -3   0  218.02    6.17
   2  -3   0  210.43    6.20
   2  -3   0  229.57    6.36
   2  -3   0  217.03    6.23
  -2   3   0  206.91    6.19
  -2   3   0  183.93    6.48
  -2   3   0  206.79    6.21
  -2   3   0  210.62    6.19
   1  -3   0   86.57    2.74
   1  -3   0   87.72    2.77
   1  -3   0   90.48    2.71
  -1   3   0   86.99    2.69
  -1   3   0   92.30    2.77
  -1   3   0   91.56    2.75
   0  -3   0  163.46    4.83
   0  -3   0  167.02    4.77
   0  -3   0  161.30    4.80
   0   3   0  157.72    4.81
   0   3   0  166.95    4.78
   0   3   0  166.08    4.82
   0   3   0  156.63    4.75
  -1  -3   0  487.16   14.23
  -1  -3   0  494.33   14.22
  -1  -3   0  505.28   14.19
  -1  -3   0  493.89   14.38
   1   3   0  518.71   14.29
   1   3   0  471.24   14.23
   1   3   0  490.57   14.16
   1   3   0  507.77   14.24
  -2  -3   0    3.49    0.32
  -2  -3   0    3.67    0.43
  -2  -3   0    4.06    0.44
  -2  -3   0    3.78    0.32
  -2  -3   0    3.50    0.31
   2   3   0    4.47    0.49
   2   3   0    4.10    0.24
   2   3   0    3.93    0.43
   2   3   0    3.55    0.31
   2   3   0    4.29    0.33
  -3  -3   0  317.57    9.55
  -3  -3   0  327.07    9.62
  -3  -3   0  323.79    9.23
   3   3   0  305.32    9.29
   3   3   0  334.03    9.28
   3   3   0  325.08    9.50
   3   3   0  318.24    9.53
   3   3   0  309.81    9.40
  -4  -3   0  331.52    9.84
  -4  -3   0  332.68    9.93
   4   3   0  324.52    9.44
   4   3   0  317.53   10.01
   4   3   0  327.56    9.66
   4   3   0  325.80    9.50
   4   3   0  317.69    9.59
  -5  -3   0   67.74    2.76
   5   3   0   67.39    2.43
   5   3   0   60.81    2.38
  -6  -3   0  114.11    4.39
   6   3   0  111.60    3.91
  -7  -3   0    5.48    1.53
   7   3   0    7.07    1.16
   7  -4   0   39.83    1.87
   7  -4   0   35.87    2.10
  -7   4   0   40.58    2.08
   6  -4   0  179.36    5.57
   6  -4   0  177.32    5.58
  -6   4   0  169.62    5.52
  -6   4   0  180.52    5.46
  -6   4   0  177.36    5.69
   5  -4   0    0.80    0.37
   5  -4   0    1.82    0.50
   5  -4   0    1.00    0.47
   5  -4   0    1.69    0.54
  -5   4   0    1.31    0.45
  -5   4   0    1.03    0.37
  -5   4   0    1.22    0.41
  -5   4   0    1.31    0.40
   4  -4   0  489.95   14.47
   4  -4   0  503.43   14.42
   4  -4   0  516.15   14.83
   4  -4   0  495.30   14.52
   4  -4   0  499.99   14.51
  -4   4   0  488.08   14.52
  -4   4   0  502.04   14.45
  -4   4   0  491.52   14.44
  -4   4   0  493.06   14.42
   3  -4   0   48.27    1.72
   3  -4   0   47.17    1.71
   3  -4   0   46.73    1.64
   3  -4   0   50.93    1.90
  -3   4   0   45.70    1.68
  -3   4   0   45.39    1.75
  -3   4   0   46.83    1.67
  -3   4   0   46.81    1.68
   2  -4   0   63.10    2.01
   2  -4   0   60.47    2.05
   2  -4   0   60.68    2.08
  -2   4   0   61.92    2.05
  -2   4   0   62.23    2.09
  -2   4   0   58.52    2.08
  -2   4   0   60.84    2.00
   1  -4   0  217.78    6.38
   1  -4   0  219.38    6.34
   1  -4   0  214.10    6.41
  -1   4   0  210.25    6.28
  -1   4   0  216.04    6.38
  -1   4   0  218.96    6.41
  -1   4   0  209.72    6.25
   0  -4   0   25.52    0.99
   0  -4   0   25.92    1.02
   0  -4   0   26.16    0.96
   0   4   0   25.49    1.00
   0   4   0   25.78    0.96
   0   4   0   25.46    1.01
   0   4   0   25.62    0.93
  -1  -4   0    0.73    0.19
  -1  -4   0    2.24    0.41
  -1  -4   0    1.19    0.23
  -1  -4   0    0.95    0.24
   1   4   0    1.53    0.21
   1   4   0    1.53    0.25
   1   4   0    1.15    0.25
  -2  -4   0    1.14    0.25
  -2  -4   0    0.84    0.25
  -2  -4   0    1.07    0.32
  -2  -4   0    0.80    0.37
   2   4   0    1.24    0.25
   2   4   0    0.87    0.17
   2   4   0    0.75    0.21
   2   4   0    0.84    0.32
  -3  -4   0  128.01    3.91
  -3  -4   0  136.16    4.30
  -3  -4   0  126.18    4.25
  -3  -4   0  131.62    3.98
   3   4   0  130.44    4.00
   3   4   0  129.69    4.20
   3   4   0  129.35    4.10
   3   4   0  125.92    3.96
  -4  -4   0   35.22    1.72
  -4  -4   0   35.02    2.05
   4   4   0   37.47    1.60
  -5  -4   0   30.23    1.79
  -5  -4   0   28.54    1.74
   5   4   0   30.86    1.52
  -6  -4   0   89.36    3.78
   6   4   0   88.40    3.35
   6  -5   0   -0.26    0.55
  -6   5   0    0.24    0.60
  -6   5   0    0.21    0.52
   5  -5   0    6.87    1.08
   5  -5   0    8.32    0.87
  -5   5   0    8.92    0.89
  -5   5   0    7.89    0.81
  -5   5   0    8.12    0.97
  -5   5   0    8.02    0.84
   4  -5   0   56.47    2.14
   4  -5   0   56.19    2.11
   4  -5   0   55.84    2.38
  -4   5   0   57.24    2.08
  -4   5   0   54.92    2.03
  -4   5   0   55.25    2.03
   3  -5   0  113.89    3.71
   3  -5   0  106.97    3.53
   3  -5   0  106.03    3.54
   3  -5   0  108.06    3.45
  -3   5   0  108.51    3.49
  -3   5   0  109.99    3.59
  -3   5   0  108.37    3.46
  -3   5   0  105.85    3.52
   2  -5   0   21.03    0.90
   2  -5   0   18.09    0.93
  -2   5   0   19.22    0.98
  -2   5   0   18.44    0.90
  -2   5   0   18.28    0.83
  -2   5   0   18.65    1.00
   1  -5   0  672.55   18.47
   1  -5   0  624.09   18.51
   1  -5   0  662.27   18.42
  -1   5   0  641.58   18.49
  -1   5   0  600.80   18.46
  -1   5   0  637.98   18.33
   0  -5   0    3.23    0.40
   0  -5   0    2.15    0.50
   0  -5   0    2.50    0.37
   0  -5   0    3.35    0.44
   0   5   0    3.08    0.46
   0   5   0    2.36    0.38
   0   5   0    2.72    0.42
  -1  -5   0  371.27   11.03
  -1  -5   0  368.38   10.73
  -1  -5   0  371.92   10.79
  -1  -5   0  377.54   10.70
   1   5   0  367.25   10.76
   1   5   0  378.56   10.78
   1   5   0  352.78   10.77
   1   5   0  352.75   10.63
  -2  -5   0  169.62    5.04
  -2  -5   0  168.35    5.39
  -2  -5   0  168.17    5.27
  -2  -5   0  165.31    5.11
   2   5   0  166.93    5.20
   2   5   0  168.18    4.94
   2   5   0  163.98    5.09
   2   5   0  163.79    5.11
  -3  -5   0   24.31    1.43
  -3  -5   0   25.58    1.36
  -3  -5   0   25.31    1.17
   3   5   0   26.53    1.24
   3   5   0   26.93    1.18
   3   5   0   26.81    1.17
  -4  -5   0   88.86    2.95
  -4  -5   0   88.72    3.38
  -4  -5   0   88.30    3.32
   4   5   0   87.17    2.93
   4   5   0   87.72    3.13
   4   5   0   90.75    3.00
  -5  -5   0   23.10    1.71
  -5  -5   0   21.67    1.83
   5   5   0   24.24    1.50
   5   5   0   21.84    1.32
  -6  -5   0    1.42    1.20
   6   5   0    0.20    1.00
   6  -6   0  111.54    3.96
  -6   6   0  111.30    3.99
   5  -6   0   62.58    2.46
  -5   6   0   57.14    2.81
  -5   6   0   62.49    2.42
  -5   6   0   61.97    2.39
   4  -6   0   31.02    1.99
   4  -6   0   30.72    1.48
  -4   6   0   29.51    1.40
  -4   6   0   29.79    1.55
  -4   6   0   32.26    1.47
   3  -6   0   77.73    2.72
   3  -6   0   77.76    2.84
   3  -6   0   73.99    2.70
  -3   6   0   74.58    2.65
  -3   6   0   78.94    2.60
  -3   6   0   70.72    2.78
  -3   6   0   73.75    2.72
   2  -6   0   24.95    1.20
   2  -6   0   23.05    1.17
  -2   6   0   23.58    1.27
  -2   6   0   23.01    1.24
  -2   6   0   23.34    1.01
  -2   6   0   23.37    1.14
   1  -6   0    0.58    0.32
   1  -6   0    0.92    0.41
   1  -6   0    0.82    0.37
  -1   6   0    1.13    0.33
  -1   6   0    0.70    0.40
  -1   6   0    0.30    0.18
  -1   6   0    0.62    0.30
   0  -6   0    2.79    0.43
   0  -6   0    1.39    0.39
   0  -6   0    1.89    0.63
   0  -6   0    2.69    0.45
   0   6   0    1.91    0.37
   0   6   0    2.45    0.42
   0   6   0    1.84    0.42
  -1  -6   0   27.15    1.29
  -1  -6   0   27.95    1.26
  -1  -6   0   29.25    1.24
  -1  -6   0   29.70    1.56
   1   6   0   27.94    1.29
   1   6   0   28.02    1.28
   1   6   0   28.88    1.32
  -2  -6   0  159.12    5.07
  -2  -6   0  166.31    5.22
  -2  -6   0  164.13    5.00
  -2  -6   0  155.08    5.83
   2   6   0  162.66    5.05
  -3  -6   0   16.22    1.17
  -3  -6   0   14.46    1.32
  -3  -6   0   15.07    1.09
  -3  -6   0   13.77    1.12
   3   6   0   16.35    1.10
   3   6   0   15.65    1.04
   3   6   0   16.34    1.05
  -4  -6   0  214.87    6.93
  -4  -6   0  212.68    7.08
   4   6   0  214.02    6.62
   4   6   0  211.01    6.77
  -5  -6   0    7.12    1.49
  -5  -6   0    6.64    1.29
   5   6   0    5.98    1.00
   5   6   0    5.22    0.89
  -6  -6   0   51.58    4.71
   5  -7   0   40.77    2.10
  -5   7   0   45.88    2.01
  -5   7   0   41.44    2.05
   4  -7   0   32.39    1.71
  -4   7   0   32.46    1.54
  -4   7   0   33.59    1.69
   3  -7   0  200.32    6.30
   3  -7   0  190.81    6.18
  -3   7   0  194.39    6.02
  -3   7   0  190.40    6.20
  -3   7   0  197.51    6.16
   2  -7   0   20.12    1.31
   2  -7   0   20.16    1.22
  -2   7   0   19.98    1.41
  -2   7   0   19.30    1.43
  -2   7   0   21.63    1.21
  -2   7   0   22.02    1.00
   1  -7   0  153.27    4.91
   1  -7   0  143.13    4.83
  -1   7   0  150.19    4.68
  -1   7   0  148.16    4.91
  -1   7   0  158.28    4.89
  -1   7   0  154.23    4.59
   0  -7   0  187.36    6.60
   0  -7   0  193.55    6.06
   0   7   0  191.87    6.02
   0   7   0  195.53    6.04
   0   7   0  191.38    5.89
  -1  -7   0   35.49    1.93
  -1  -7   0   32.88    1.60
  -1  -7   0   32.32    1.57
   1   7   0   34.04    1.56
   1   7   0   31.91    1.60
  -2  -7   0   70.14    2.68
  -2  -7   0   68.20    2.65
  -2  -7   0   71.36    2.73
  -2  -7   0   71.91    3.06
   2   7   0   71.73    2.69
   2   7   0   74.98    2.70
  -3  -7   0    7.84    1.20
  -3  -7   0   10.51    1.50
   3   7   0    9.20    1.10
   3   7   0    9.25    1.10
  -4  -7   0    0.11    1.16
  -4  -7   0    0.36    0.87
   4   7   0    0.53    0.70
   4   7   0    0.70    0.72
  -5  -7   0    3.81    1.37
   5  -8   0   36.27    2.22
  -5   8   0   41.41    2.27
  -5   8   0   38.16    2.08
   4  -8   0    0.90    0.71
  -4   8   0    1.33    0.61
   3  -8   0    9.24    1.16
  -3   8   0    8.10    1.16
  -3   8   0    9.23    0.90
   2  -8   0    1.05    0.58
  -2   8   0    0.31    0.53
  -2   8   0    1.19    0.40
   1  -8   0   80.16    3.47
   1  -8   0   79.49    3.02
  -1   8   0   72.38    3.09
  -1   8   0   82.96    3.39
  -1   8   0   81.55    2.61
   0  -8   0   43.06    2.02
   0  -8   0   40.71    2.35
   0   8   0   38.78    1.93
   0   8   0   43.70    1.97
   0   8   0   46.42    2.20
  -1  -8   0    0.24    0.94
  -1  -8   0    1.23    0.70
  -1  -8   0    1.15    0.69
   1   8   0    1.28    0.62
  -2  -8   0  119.73    4.12
  -2  -8   0  109.37    4.52
   2   8   0  118.21    4.12
  -3  -8   0   80.68    3.19
  -3  -8   0   78.32    3.66
   3   8   0   75.59    3.13
   3   8   0   76.89    3.16
   4  -9   0    6.99    1.25
  -4   9   0    4.43    0.84
   3  -9   0   76.93    3.22
  -3   9   0   74.49    3.51
  -3   9   0   76.74    2.85
   2  -9   0   62.57    2.82
  -2   9   0   60.98    2.57
  -2   9   0   66.69    2.83
   1  -9   0   10.09    1.54
   1  -9   0    6.70    1.06
  -1   9   0    7.38    0.99
   0  -9   0   32.11    2.53
   0   9   0   32.79    2.00
  -1  -9   0    7.38    1.57
   1   9   0    6.79    1.04
   3 -10   0   11.68    1.63
  -2  10   0  114.81    4.63
  -1  10   0    5.68    1.26
   0  10  -1   17.15    1.95
  -1  10  -1    1.61    1.06
  -2  10  -1   12.59    1.98
   3 -10   1    4.78    1.34
   2   9  -1   74.09    3.14
  -2  -9   1   75.40    3.80
   1   9  -1   59.70    2.62
  -1  -9   1   55.08    3.16
   0   9  -1   36.75    2.02
   0  -9   1   35.93    2.59
  -1   9  -1  240.74    7.26
  -1   9  -1  241.97    7.71
   1  -9   1  246.41    8.26
   1  -9   1  238.01    7.72
  -2   9  -1    4.47    0.62
  -2   9  -1    3.09    0.79
   2  -9   1    3.56    0.92
  -3   9  -1  116.26    4.26
  -3   9  -1  117.11    3.93
   3  -9   1  109.74    4.22
  -4   9  -1   48.29    2.24
   4  -9   1   43.14    2.50
   3   8  -1   77.91    3.01
  -3  -8   1   71.46    3.55
  -3  -8   1   80.39    2.98
   2   8  -1    0.98    0.60
  -2  -8   1    0.36    0.59
  -2  -8   1    1.59    1.06
   1   8  -1   59.27    2.43
  -1  -8   1   63.89    2.30
  -1  -8   1   59.49    2.87
  -1  -8   1   57.60    2.47
   0   8  -1    0.90    0.46
   0   8  -1    0.96    0.76
   0   8  -1    1.58    0.71
   0  -8   1    1.56    0.61
   0  -8   1    0.76    0.91
  -1   8  -1   16.53    0.88
  -1   8  -1   14.02    1.48
  -1   8  -1   16.41    1.44
   1  -8   1   15.28    1.25
  -2   8  -1   13.31    0.90
  -2   8  -1   12.50    1.11
   2  -8   1   14.58    1.27
   2  -8   1   13.17    1.18
  -3   8  -1   76.39    2.76
  -3   8  -1   76.68    2.95
   3  -8   1   76.48    2.99
  -4   8  -1   72.70    2.80
   4  -8   1   73.72    3.01
  -5   8  -1    9.71    1.39
  -5   8  -1    8.31    1.18
   5  -8   1    7.22    1.11
  -5  -7   1   -0.40    1.09
   4   7  -1  109.12    3.86
   4   7  -1  113.05    4.06
  -4  -7   1  116.49    4.07
  -4  -7   1  112.52    4.47
   3   7  -1   77.85    2.84
  -3  -7   1   84.48    2.91
  -3  -7   1   74.74    3.27
  -3  -7   1   72.50    3.19
   2   7  -1   47.90    1.71
   2   7  -1   44.23    1.91
   2   7  -1   46.90    1.92
  -2  -7   1   49.17    1.90
  -2  -7   1   43.30    1.98
  -2  -7   1   48.34    2.36
  -2  -7   1   46.76    1.96
   1   7  -1  284.23    8.28
   1   7  -1  268.58    8.43
   1   7  -1  267.84    8.42
  -1  -7   1  273.59    8.39
  -1  -7   1  278.80    8.84
  -1  -7   1  282.69    8.47
  -1  -7   1  294.46    8.40
   0   7  -1   13.29    0.99
   0   7  -1   15.47    0.97
   0   7  -1   15.58    0.71
   0   7  -1   14.63    1.11
   0  -7   1   14.55    1.02
   0  -7   1   13.60    1.60
   0  -7   1   12.89    2.01
  -1   7  -1  112.52    3.68
  -1   7  -1  116.03    3.80
  -1   7  -1  110.63    3.83
  -1   7  -1  115.53    3.57
   1  -7   1  109.84    3.77
   1  -7   1  116.06    3.84
  -2   7  -1  181.28    5.62
  -2   7  -1  165.03    5.66
  -2   7  -1  173.67    5.71
  -2   7  -1  179.82    5.45
   2  -7   1  187.68    5.58
   2  -7   1  183.37    5.67
   2  -7   1  169.24    5.60
  -3   7  -1    3.78    0.57
   3  -7   1    2.59    0.62
   3  -7   1    3.88    0.79
   3  -7   1    4.15    0.78
  -4   7  -1   26.77    1.39
  -4   7  -1   24.35    1.47
   4  -7   1   24.43    1.47
  -5   7  -1    1.10    0.65
  -5   7  -1    0.53    0.79
   5  -7   1    1.10    0.71
  -6  -6   1  109.76    4.52
   5   6  -1   36.39    2.02
   5   6  -1   38.36    1.78
  -5  -6   1   40.17    2.55
  -5  -6   1   37.32    2.11
   4   6  -1    3.31    0.79
   4   6  -1    2.71    0.69
   4   6  -1    3.14    0.58
  -4  -6   1    3.56    0.91
  -4  -6   1    2.81    0.71
   3   6  -1    2.42    0.48
   3   6  -1    1.78    0.42
   3   6  -1    2.06    0.32
  -3  -6   1    1.05    0.47
  -3  -6   1    2.00    0.65
  -3  -6   1    3.13    0.81
  -3  -6   1    1.61    0.50
   2   6  -1   38.01    1.76
   2   6  -1   38.99    1.59
   2   6  -1   40.00    1.44
   2   6  -1   40.31    1.60
  -2  -6   1   38.48    1.89
  -2  -6   1   40.69    1.63
  -2  -6   1   42.26    1.63
  -2  -6   1   40.04    1.62
   1   6  -1   40.33    1.59
   1   6  -1   40.02    1.46
   1   6  -1   38.52    1.58
   1   6  -1   40.16    1.63
  -1  -6   1   39.07    1.88
  -1  -6   1   39.50    1.56
  -1  -6   1   44.67    1.61
  -1  -6   1   40.47    1.58
   0   6  -1   18.71    1.00
   0   6  -1   17.13    0.92
   0   6  -1   17.36    0.95
   0   6  -1   17.94    0.83
   0  -6   1   17.97    0.93
   0  -6   1   19.18    0.99
   0  -6   1   17.03    0.93
  -1   6  -1   75.45    2.50
  -1   6  -1   71.67    2.55
  -1   6  -1   75.97    2.61
  -1   6  -1   76.68    2.42
  -1   6  -1   74.80    2.67
  -1   6  -1   74.03    2.48
   1  -6   1   72.42    2.59
   1  -6   1   74.63    2.56
   1  -6   1   73.73    2.52
  -2   6  -1  248.51    7.88
  -2   6  -1  260.92    7.99
  -2   6  -1  259.30    7.80
  -2   6  -1  255.37    7.95
   2  -6   1  273.02    7.93
   2  -6   1  262.50    7.96
   2  -6   1  274.65    7.91
  -3   6  -1   10.81    1.10
  -3   6  -1   11.38    0.77
  -3   6  -1   12.18    1.08
  -3   6  -1   12.05    0.86
   3  -6   1   13.16    0.93
   3  -6   1   12.30    1.00
   3  -6   1   10.58    0.98
  -4   6  -1  202.00    6.18
  -4   6  -1  202.12    6.18
  -4   6  -1  180.21    6.18
   4  -6   1  202.03    6.32
   4  -6   1  203.53    6.25
  -5   6  -1   89.55    3.08
  -5   6  -1   86.96    3.19
   5  -6   1   88.03    3.23
  -6   6  -1   55.41    2.47
   6  -6   1   57.65    2.51
   6   5  -1   85.26    3.39
  -6  -5   1   86.40    3.69
   5   5  -1  110.31    3.85
  -5  -5   1  109.02    4.01
  -5  -5   1  111.41    4.17
   4   5  -1    8.11    0.84
   4   5  -1    7.52    0.69
   4   5  -1    7.12    0.71
  -4  -5   1    8.00    0.91
  -4  -5   1    8.86    1.11
   3   5  -1  426.07   12.50
   3   5  -1  412.92   12.35
   3   5  -1  437.73   12.48
  -3  -5   1  429.36   12.45
  -3  -5   1  419.49   12.85
  -3  -5   1  434.91   12.46
  -3  -5   1  442.72   12.71
   2   5  -1   29.75    1.19
   2   5  -1   29.76    1.08
   2   5  -1   29.10    1.18
   2   5  -1   28.80    1.31
  -2  -5   1   29.65    1.16
  -2  -5   1   28.44    1.21
  -2  -5   1   29.71    1.46
  -2  -5   1   30.88    1.26
   1   5  -1  233.03    6.83
   1   5  -1  233.78    6.87
   1   5  -1  226.25    6.84
   1   5  -1  224.87    6.73
  -1  -5   1  235.35    6.81
  -1  -5   1  229.97    6.84
  -1  -5   1  221.49    7.08
  -1  -5   1  226.47    6.78
   0   5  -1  111.68    3.56
   0   5  -1  111.99    3.49
   0   5  -1  115.15    3.58
   0  -5   1  115.66    3.54
   0  -5   1  111.04    3.58
   0  -5   1  114.25    3.52
  -1   5  -1    6.91    0.64
  -1   5  -1    6.40    0.50
  -1   5  -1    6.52    0.45
  -1   5  -1    5.93    0.62
  -1   5  -1    6.56    0.43
  -1   5  -1    6.84    0.55
   1  -5   1    6.73    0.41
   1  -5   1    5.70    0.53
   1  -5   1    7.00    0.56
   1  -5   1    6.49    0.51
  -2   5  -1    7.78    0.71
  -2   5  -1    8.23    0.53
  -2   5  -1    7.69    0.70
  -2   5  -1    8.53    0.58
   2  -5   1    7.65    0.62
   2  -5   1    7.87    0.58
   2  -5   1    7.80    0.63
  -3   5  -1   39.79    1.68
  -3   5  -1   38.62    1.53
  -3   5  -1   40.08    1.54
  -3   5  -1   38.72    1.63
   3  -5   1   42.40    1.69
   3  -5   1   38.22    1.59
   3  -5   1   39.81    1.52
   3  -5   1   41.07    1.61
  -4   5  -1   30.27    1.27
  -4   5  -1   29.21    1.40
  -4   5  -1   30.35    1.34
  -4   5  -1   30.17    1.36
   4  -5   1   29.59    1.45
   4  -5   1   30.51    1.39
   4  -5   1   28.41    1.58
   4  -5   1   29.42    1.32
  -5   5  -1   15.15    0.94
  -5   5  -1   14.66    1.01
  -5   5  -1   12.99    1.23
  -5   5  -1   14.19    1.05
   5  -5   1   14.92    1.32
   5  -5   1   13.83    1.06
   5  -5   1   14.47    1.11
  -6   5  -1   16.77    1.31
   6  -5   1   16.27    1.43
   6  -5   1   20.14    1.36
  -7  -4   1   63.93    4.19
   6   4  -1    0.78    0.65
  -6  -4   1    0.90    0.88
   5   4  -1   10.13    0.94
  -5  -4   1    9.26    1.44
  -5  -4   1    9.51    1.23
   4   4  -1    4.51    0.72
   4   4  -1    2.47    0.45
   4   4  -1    4.16    0.49
   4   4  -1    3.27    0.49
  -4  -4   1    4.03    0.69
  -4  -4   1    3.82    0.68
   3   4  -1  124.74    3.93
   3   4  -1  129.80    3.92
   3   4  -1  131.44    4.17
   3   4  -1  128.90    3.85
   3   4  -1  124.76    4.20
  -3  -4   1  131.76    3.90
  -3  -4   1  125.99    3.85
  -3  -4   1  133.48    3.92
  -3  -4   1  130.95    4.17
  -3  -4   1  131.61    4.25
   2   4  -1   56.68    1.82
   2   4  -1   57.77    2.02
   2   4  -1   59.37    1.89
   2   4  -1   55.81    1.88
  -2  -4   1   58.62    1.99
  -2  -4   1   56.64    1.90
  -2  -4   1   56.90    2.12
  -2  -4   1   57.55    1.88
  -2  -4   1   56.53    1.84
   1   4  -1  105.09    3.26
   1   4  -1  103.24    3.16
   1   4  -1  107.16    3.22
   1   4  -1  101.46    3.21
  -1  -4   1   99.02    3.40
  -1  -4   1  105.28    3.21
  -1  -4   1  104.41    3.22
  -1  -4   1  106.21    3.18
  -1  -4   1  105.48    3.24
   0   4  -1  587.66   16.67
   0   4  -1  589.21   16.64
   0   4  -1  562.42   16.60
   0   4  -1  563.09   16.65
   0  -4   1  566.64   16.69
   0  -4   1  579.16   16.62
   0  -4   1  607.26   16.64
  -1   4  -1    0.31    0.13
  -1   4  -1    0.34    0.20
  -1   4  -1    0.20    0.16
  -1   4  -1    0.52    0.31
   1  -4   1    0.28    0.19
   1  -4   1    0.09    0.16
  -2   4  -1  587.00   17.59
  -2   4  -1  613.03   17.54
  -2   4  -1  594.32   17.55
  -2   4  -1  582.65   17.61
   2  -4   1  633.78   17.52
   2  -4   1  617.06   17.57
   2  -4   1  607.97   17.59
   2  -4   1  640.43   17.63
  -3   4  -1   89.89    3.08
  -3   4  -1   91.66    3.02
  -3   4  -1   90.36    3.03
   3  -4   1   97.28    3.05
   3  -4   1   95.93    3.16
   3  -4   1   92.48    3.05
   3  -4   1   93.70    2.95
   3  -4   1   96.06    3.05
  -4   4  -1  101.20    3.34
  -4   4  -1  100.36    3.36
  -4   4  -1  102.78    3.30
  -4   4  -1  103.76    3.23
   4  -4   1  104.89    3.60
   4  -4   1  103.52    3.37
   4  -4   1  103.81    3.27
   4  -4   1  100.49    3.39
   4  -4   1  105.19    3.38
  -5   4  -1   80.74    2.89
  -5   4  -1   84.66    2.96
   5  -4   1   83.56    2.82
   5  -4   1   86.22    3.01
   5  -4   1   84.69    2.93
   5  -4   1   87.29    2.93
  -6   4  -1   28.27    1.51
   6  -4   1   24.89    1.62
   6  -4   1   29.59    1.46
  -7   4  -1   10.15    1.44
   7  -4   1   11.62    1.57
   7  -4   1    9.87    1.33
   7   3  -1   92.18    3.49
  -7  -3   1   89.46    3.97
   6   3  -1   12.00    1.10
  -6  -3   1    8.01    1.32
   5   3  -1  178.91    5.53
   5   3  -1  165.46    5.46
   5   3  -1  179.51    5.34
  -5  -3   1  180.37    5.83
   4   3  -1   87.62    2.80
   4   3  -1   79.94    2.91
   4   3  -1   84.39    2.80
   4   3  -1   79.72    2.95
   4   3  -1   84.89    2.64
  -4  -3   1   86.67    3.01
  -4  -3   1   84.49    2.97
   3   3  -1   66.28    2.35
   3   3  -1   65.70    2.06
   3   3  -1   70.05    2.34
   3   3  -1   66.42    2.08
   3   3  -1   67.69    2.09
  -3  -3   1   65.52    2.36
  -3  -3   1   68.71    2.35
   2   3  -1  316.37    9.23
   2   3  -1  325.02    9.39
   2   3  -1  306.13    9.22
   2   3  -1  309.63    9.21
   2   3  -1  320.93    9.42
  -2  -3   1  321.67    9.21
  -2  -3   1  331.36    9.25
  -2  -3   1  325.50    9.20
  -2  -3   1  320.21    9.37
  -2  -3   1  324.25    9.45
   1   3  -1    4.91    0.31
   1   3  -1    4.81    0.28
   1   3  -1    5.34    0.37
   1   3  -1    4.64    0.30
  -1  -3   1    4.88    0.41
  -1  -3   1    4.72    0.34
  -1  -3   1    4.94    0.30
  -1  -3   1    4.98    0.33
   0   3  -1   55.63    1.75
   0   3  -1   55.08    1.76
   0   3  -1   54.13    1.72
   0   3  -1   56.47    1.75
   0  -3   1   53.93    1.73
   0  -3   1   53.89    1.74
   0  -3   1   56.57    1.77
   0  -3   1   53.96    1.73
  -1   3  -1    1.53    0.21
  -1   3  -1    2.23    0.31
  -1   3  -1    1.43    0.18
  -1   3  -1    2.05    0.28
   1  -3   1    1.91    0.22
   1  -3   1    1.57    0.23
   1  -3   1    1.83    0.22
  -2   3  -1  185.56    5.55
  -2   3  -1  184.10    5.59
  -2   3  -1  184.51    5.54
  -2   3  -1  175.77    5.49
   2  -3   1  198.89    5.65
   2  -3   1  189.62    5.56
   2  -3   1  188.18    5.60
   2  -3   1  190.92    5.58
  -3   3  -1   86.34    2.86
  -3   3  -1   88.11    2.86
  -3   3  -1   88.67    2.82
  -3   3  -1   94.85    2.93
  -3   3  -1   86.95    2.75
   3  -3   1   89.62    2.87
   3  -3   1   91.18    2.79
   3  -3   1   87.94    2.87
   3  -3   1   92.97    2.88
   3  -3   1   91.63    3.01
  -4   3  -1   52.97    1.96
  -4   3  -1   55.71    1.82
  -4   3  -1   55.12    2.06
  -4   3  -1   57.03    1.96
   4  -3   1   55.62    1.96
   4  -3   1   55.79    2.00
   4  -3   1   55.74    1.97
   4  -3   1   54.11    2.20
   4  -3   1   57.95    1.87
  -5   3  -1  245.20    7.09
  -5   3  -1  230.68    7.40
  -5   3  -1  237.81    7.18
   5  -3   1  239.70    7.22
   5  -3   1  242.25    7.07
   5  -3   1  232.82    7.24
  -6   3  -1   10.65    0.96
   6  -3   1    9.59    1.05
   6  -3   1    9.65    0.99
   6  -3   1   10.27    1.34
   6  -3   1   10.80    1.32
   6  -3   1   10.97    0.93
  -7   3  -1  107.67    3.85
   7  -3   1  106.61    3.64
   7  -3   1  106.29    3.86
   7   2  -1    0.71    0.71
  -7  -2   1    0.58    1.06
   6   2  -1    8.55    1.18
   6   2  -1    7.19    0.92
  -6  -2   1    8.23    1.18
   5   2  -1  115.29    3.65
   5   2  -1  104.76    4.04
   5   2  -1  110.59    3.89
   5   2  -1  116.86    3.60
   5   2  -1  118.99    3.68
  -5  -2   1  114.49    3.99
   4   2  -1   99.32    3.48
   4   2  -1  102.06    3.23
   4   2  -1  103.61    3.23
   4   2  -1  102.89    3.34
   4   2  -1  103.41    3.16
   4   2  -1  102.98    3.41
  -4  -2   1  102.11    3.40
  -4  -2   1   98.26    3.45
   3   2  -1  216.13    6.20
   3   2  -1  208.47    6.29
   3   2  -1  207.14    6.13
   3   2  -1  199.75    5.97
   3   2  -1  208.41    6.03
   3   2  -1  210.36    6.22
   3   2  -1  199.59    6.09
  -3  -2   1  205.20    6.26
  -3  -2   1  201.09    6.22
   2   2  -1  541.51   16.96
   2   2  -1  614.09   17.09
   2   2  -1  599.35   17.10
   2   2  -1  608.50   17.07
  -2  -2   1  584.82   17.08
  -2  -2   1  586.50   17.09
  -2  -2   1  626.09   16.94
   1   2  -1    0.48    0.10
   1   2  -1    0.50    0.14
  -1  -2   1    0.41    0.16
  -1  -2   1    0.47    0.12
  -1  -2   1    0.22    0.11
  -1  -2   1    0.55    0.09
  -1  -2   1    0.50    0.10
  -1  -2   1    0.76    0.13
   0   2  -1  363.51   10.24
   0   2  -1  349.34   10.24
   0  -2   1  361.92   10.24
   0  -2   1  362.26   10.24
   0  -2   1  348.61   10.22
  -1   2  -1  511.30   15.20
   1  -2   1  538.86   15.18
   1  -2   1  549.36   15.13
   1  -2   1  522.53   15.20
  -2   2  -1  233.62    7.09
  -2   2  -1  245.74    7.03
  -2   2  -1  236.09    7.00
  -2   2  -1  233.96    7.00
  -2   2  -1  235.07    6.97
   2  -2   1  236.44    6.93
   2  -2   1  239.66    7.01
   2  -2   1  249.42    7.10
   2  -2   1  243.97    7.01
   2  -2   1  244.94    7.00
  -3   2  -1  302.98    8.49
  -3   2  -1  273.30    8.47
  -3   2  -1  284.20    8.65
   3  -2   1  282.49    8.46
   3  -2   1  295.92    8.48
   3  -2   1  291.42    8.47
   3  -2   1  296.62    8.67
   3  -2   1  289.70    8.37
  -4   2  -1    2.32    0.41
  -4   2  -1    1.25    0.27
  -4   2  -1    1.57    0.34
  -4   2  -1    2.68    0.48
  -4   2  -1    1.78    0.29
   4  -2   1    1.27    0.32
   4  -2   1    1.96    0.28
   4  -2   1    1.32    0.29
   4  -2   1    2.14    0.49
   4  -2   1    1.63    0.31
  -5   2  -1    3.75    0.54
  -5   2  -1    5.96    0.80
  -5   2  -1    3.50    0.53
  -5   2  -1    3.97    0.56
   5  -2   1    3.48    0.56
   5  -2   1    3.27    0.48
   5  -2   1    4.35    0.57
   5  -2   1    4.33    0.59
  -6   2  -1    3.98    0.62
   6  -2   1    5.02    0.76
   6  -2   1    5.27    0.58
   6  -2   1    4.77    0.71
   6  -2   1    3.70    0.73
   6  -2   1    4.22    0.66
  -7   2  -1   46.44    2.13
   7  -2   1   45.00    2.15
   7  -2   1   46.06    1.92
   8   1  -1    0.84    1.09
   7   1  -1  179.29    5.67
  -7  -1   1  173.11    5.59
   6   1  -1   48.35    1.94
   6   1  -1   52.94    1.99
  -6  -1   1   51.60    1.93
  -6  -1   1   50.72    2.38
   5   1  -1   64.49    2.35
   5   1  -1   57.80    2.43
   5   1  -1   65.05    2.18
   5   1  -1   63.61    2.20
   5   1  -1   66.36    2.21
   5   1  -1   60.19    2.59
  -5  -1   1   62.71    2.52
  -5  -1   1   65.53    2.17
   4   1  -1   57.23    1.92
   4   1  -1   55.27    2.19
   4   1  -1   56.95    2.09
   4   1  -1   57.26    1.80
   4   1  -1   59.03    1.93
   4   1  -1   58.59    1.92
   4   1  -1   58.40    2.02
  -4  -1   1   56.54    2.16
  -4  -1   1   56.88    1.90
   3   1  -1   30.26    1.06
   3   1  -1   28.97    0.97
   3   1  -1   29.24    1.04
   3   1  -1   27.35    1.20
   3   1  -1   29.51    1.23
   3   1  -1   30.23    1.16
   3   1  -1   30.01    1.04
  -3  -1   1   28.56    1.20
  -3  -1   1   29.26    1.02
   2   1  -1    5.58    0.36
   2   1  -1    6.09    0.35
   2   1  -1    5.57    0.29
   2   1  -1    6.63    0.40
   2   1  -1    5.77    0.27
   2   1  -1    5.61    0.29
   2   1  -1    5.54    0.32
  -2  -1   1    6.16    0.36
  -2  -1   1    5.23    0.28
  -2  -1   1    5.24    0.35
   1   1  -1   24.86    0.81
   1   1  -1   24.23    0.78
   1   1  -1   24.34    0.81
   1   1  -1   25.68    0.81
  -1  -1   1   24.94    0.78
  -1  -1   1   23.04    0.80
  -1  -1   1   23.88    0.82
   0   1  -1  175.68    5.38
   0   1  -1  175.32    5.38
   0   1  -1  185.25    5.35
   0   1  -1  183.80    5.35
   0   1  -1  199.17    5.36
   0  -1   1  196.12    5.36
   0  -1   1  192.46    5.36
   0  -1   1  184.08    5.35
  -1   1  -1  243.50    6.90
  -1   1  -1  235.84    6.85
  -1   1  -1  236.41    6.94
  -1   1  -1  242.68    6.91
  -1   1  -1  241.76    6.91
   1  -1   1  248.20    6.90
   1  -1   1  239.94    6.86
   1  -1   1  235.54    6.91
   1  -1   1  239.75    6.93
   1  -1   1  233.23    6.91
  -2   1  -1   34.87    1.14
  -2   1  -1   34.97    1.14
  -2   1  -1   33.12    1.24
   2  -1   1   35.00    1.14
   2  -1   1   35.86    1.26
   2  -1   1   32.63    1.13
   2  -1   1   32.72    1.13
   2  -1   1   31.49    1.05
  -3   1  -1  479.45   14.41
  -3   1  -1  509.19   14.25
  -3   1  -1  503.88   14.28
  -3   1  -1  489.41   14.52
  -3   1  -1  489.11   14.31
   3  -1   1  499.70   14.18
   3  -1   1  491.92   14.30
   3  -1   1  507.10   14.29
   3  -1   1  503.15   14.29
  -4   1  -1  112.94    3.38
  -4   1  -1  115.30    3.50
  -4   1  -1  108.01    3.41
  -4   1  -1  109.15    3.77
  -4   1  -1  111.74    3.49
   4  -1   1  115.15    3.50
   4  -1   1  110.52    3.46
   4  -1   1  110.79    3.31
   4  -1   1  114.51    3.46
   4  -1   1  112.85    3.70
   4  -1   1  106.31    3.76
  -5   1  -1  182.38    5.51
  -5   1  -1  183.06    5.52
   5  -1   1  171.98    5.43
   5  -1   1  180.04    5.26
   5  -1   1  175.17    5.42
   5  -1   1  183.30    5.52
  -6   1  -1  202.74    6.05
  -6   1  -1  192.31    6.56
   6  -1   1  193.54    5.89
   6  -1   1  186.34    6.27
  -7   1  -1    7.95    1.16
   7  -1   1    8.64    1.04
   8  -1   1   43.25    2.64
  -8   0   1    2.40    0.95
   7   0  -1   65.23    2.53
  -7   0   1   65.59    2.53
   6   0  -1   44.62    1.60
   6   0  -1   42.35    1.72
   6   0  -1   43.00    1.96
   6   0  -1   47.15    1.78
   6   0  -1   45.72    1.56
   5   0  -1   29.15    1.26
   5   0  -1   27.07    1.49
   5   0  -1   30.13    1.18
   5   0  -1   30.80    1.20
   5   0  -1   28.97    1.33
   5   0  -1   27.44    1.63
  -5   0   1   29.15    1.21
  -5   0   1   29.58    1.51
   4   0  -1  699.04   19.86
   4   0  -1  654.00   20.01
   4   0  -1  687.57   19.67
   4   0  -1  695.71   19.74
   4   0  -1  705.48   19.73
  -4   0   1  675.25   20.00
  -4   0   1  683.91   19.67
  -4   0   1  690.98   19.72
   3   0  -1    5.69    0.33
   3   0  -1    7.25    0.54
   3   0  -1    7.06    0.38
   3   0  -1    4.96    0.41
   3   0  -1    5.94    0.40
  -3   0   1    5.51    0.35
  -3   0   1    5.74    0.36
  -3   0   1    5.55    0.46
   2   0  -1  584.17   16.38
   2   0  -1  589.11   16.39
   2   0  -1  576.93   16.53
  -2   0   1  547.43   16.50
   1   0  -1  108.19    3.21
   1   0  -1  112.38    3.21
   1   0  -1  110.97    3.21
  -1   0   1  111.92    3.21
  -1   0   1  111.38    3.20
  -1   0   1  107.34    3.20
   0   0  -1   18.99    0.63
   0   0  -1   20.80    0.66
   0   0  -1   19.69    0.62
   0   0   1   20.41    0.64
   0   0   1   21.74    0.66
  -1   0  -1  198.58    5.30
  -1   0  -1  161.24    5.44
  -1   0  -1  195.66    5.30
   1   0   1  185.11    5.29
   1   0   1  172.33    5.33
   1   0   1  191.18    5.39
   1   0   1  191.10    5.32
   1   0   1  171.86    5.33
  -2   0  -1   75.59    2.28
  -2   0  -1   74.51    2.24
  -2   0  -1   73.28    2.42
  -2   0  -1   70.63    2.23
  -2   0  -1   74.12    2.24
   2   0   1   77.00    2.35
   2   0   1   75.58    2.26
   2   0   1   72.85    2.27
   2   0   1   73.07    2.24
  -3   0  -1    1.52    0.24
  -3   0  -1    1.62    0.22
  -3   0  -1    1.17    0.19
  -3   0  -1    1.65    0.34
  -3   0  -1    1.14    0.19
   3   0   1    2.36    0.46
   3   0   1    1.40    0.23
   3   0   1    1.38    0.31
   3   0   1    1.57    0.23
   3   0   1    2.22    0.29
  -4   0  -1    2.51    0.34
  -4   0  -1    1.42    0.35
  -4   0  -1    2.11    0.35
  -4   0  -1    1.53    0.27
   4   0   1    1.42    0.43
   4   0   1    2.50    0.38
   4   0   1    2.69    0.60
   4   0   1    1.49    0.28
  -5   0  -1   55.18    1.93
   5   0   1   52.96    1.87
   5   0   1   50.73    2.06
   5   0   1   56.39    1.91
   5   0   1   56.23    1.99
  -6   0  -1  102.07    4.01
  -6   0  -1  100.13    4.06
   6   0   1  103.79    3.35
   6   0   1  110.19    3.56
   6   0   1  103.91    3.33
  -7   0  -1    3.47    0.75
  -7   0  -1    3.62    1.22
   7   0   1    5.07    0.92
   7  -1  -1    6.57    1.03
  -7   1   1    7.22    1.06
   6  -1  -1   63.84    2.11
   6  -1  -1   58.55    2.35
   6  -1  -1   62.92    2.24
  -6   1   1   63.42    2.30
   5  -1  -1    3.15    0.40
   5  -1  -1    4.10    0.63
   5  -1  -1    3.15    0.49
   5  -1  -1    4.75    0.56
   5  -1  -1    3.59    0.43
   5  -1  -1    3.28    0.69
  -5   1   1    3.21    0.49
  -5   1   1    3.68    0.50
   4  -1  -1    0.28    0.15
   4  -1  -1    0.10    0.21
   4  -1  -1    0.30    0.35
   4  -1  -1    0.73    0.20
   4  -1  -1    0.45    0.39
  -4   1   1    0.42    0.19
  -4   1   1    0.73    0.21
  -4   1   1    0.48    0.20
   3  -1  -1    7.54    0.39
   3  -1  -1    6.57    0.42
   3  -1  -1    6.95    0.37
   3  -1  -1    7.78    0.59
   3  -1  -1    7.19    0.36
   3  -1  -1    6.96    0.37
  -3   1   1    6.75    0.35
  -3   1   1    6.95    0.33
  -3   1   1    7.14    0.40
  -3   1   1    7.21    0.41
  -3   1   1    6.95    0.40
   2  -1  -1  194.16    5.57
   2  -1  -1  188.60    5.35
   2  -1  -1  186.50    5.35
   2  -1  -1  184.09    5.40
   2  -1  -1  179.81    5.32
  -2   1   1  183.33    5.31
  -2   1   1  180.51    5.33
  -2   1   1  184.03    5.39
  -2   1   1  179.31    5.39
  -2   1   1  188.07    5.36
  -1   1   1  127.94    3.72
   0  -1  -1   37.11    1.13
   0  -1  -1   37.06    1.14
   0  -1  -1   34.98    1.12
   0   1   1   36.59    1.13
   0   1   1   35.66    1.13
  -1  -1  -1 1000.00   30.04
   1   1   1  999.66   29.95
  -2  -1  -1  187.98    5.65
  -2  -1  -1  188.85    5.54
  -2  -1  -1  187.45    5.76
  -2  -1  -1  192.65    5.52
   2   1   1  196.99    5.66
   2   1   1  188.47    5.58
   2   1   1  193.78    5.54
   2   1   1  185.67    5.55
  -3  -1  -1  288.45    8.36
  -3  -1  -1  285.78    8.71
  -3  -1  -1  283.26    8.37
  -3  -1  -1  294.68    8.35
   3   1   1  296.28    8.73
   3   1   1  295.34    8.57
   3   1   1  288.97    8.46
   3   1   1  285.71    8.36
   3   1   1  288.26    8.41
   3   1   1  285.86    8.38
  -4  -1  -1  180.48    5.88
  -4  -1  -1  182.32    5.45
   4   1   1  186.71    5.57
   4   1   1  181.68    5.47
   4   1   1  181.62    5.41
   4   1   1  187.42    5.43
  -5  -1  -1    6.53    0.57
   5   1   1    7.44    0.59
   5   1   1    6.42    0.68
   5   1   1    5.85    0.60
   5   1   1    5.72    0.65
  -6  -1  -1   76.49    2.65
  -6  -1  -1   74.60    3.27
   6   1   1   79.40    2.81
  -7  -1  -1   22.11    2.21
  -7  -1  -1   25.57    1.49
   7   1   1   21.63    1.68
   7  -2  -1   50.03    2.18
  -7   2   1   55.02    2.28
   6  -2  -1  161.01    5.16
   6  -2  -1  166.74    5.17
   6  -2  -1  165.06    5.08
   6  -2  -1  154.71    5.12
   6  -2  -1  169.14    5.05
  -6   2   1  176.20    5.16
  -6   2   1  174.04    5.32
   5  -2  -1   42.90    1.48
   5  -2  -1   42.64    1.48
   5  -2  -1   36.63    1.55
   5  -2  -1   40.22    1.51
  -5   2   1   41.37    1.53
  -5   2   1   41.27    1.48
  -5   2   1   41.51    1.61
   4  -2  -1  167.07    5.39
   4  -2  -1  161.39    4.96
   4  -2  -1  169.04    4.96
   4  -2  -1  167.27    4.97
   4  -2  -1  169.12    5.08
   4  -2  -1  168.32    5.01
  -4   2   1  162.13    4.99
  -4   2   1  171.53    5.02
  -4   2   1  166.22    4.92
  -4   2   1  166.97    4.93
  -4   2   1  163.47    5.07
   3  -2  -1  396.46   11.85
   3  -2  -1  403.83   11.87
   3  -2  -1  429.40   12.19
   3  -2  -1  427.57   11.94
   3  -2  -1  424.35   11.89
  -3   2   1  406.22   11.81
  -3   2   1  397.56   11.92
  -3   2   1  408.62   11.84
  -3   2   1  423.21   11.90
  -3   2   1  404.85   11.90
   2  -2  -1   39.95    1.32
   2  -2  -1   40.84    1.34
   2  -2  -1   40.40    1.33
  -2   2   1   39.17    1.27
  -2   2   1   40.04    1.33
  -2   2   1   42.94    1.35
  -2   2   1   39.31    1.31
   1  -2  -1  136.52    3.85
   1  -2  -1  130.88    3.78
   1  -2  -1  129.98    3.82
  -1   2   1  123.38    3.78
  -1   2   1  124.92    3.82
  -1   2   1  130.09    3.83
   0  -2  -1    4.57    0.23
   0  -2  -1    4.57    0.28
   0  -2  -1    4.75    0.27
   0  -2  -1    4.64    0.34
   0   2   1    4.78    0.29
   0   2   1    5.04    0.29
  -1  -2  -1   45.52    1.45
  -1  -2  -1   45.40    1.47
  -1  -2  -1   45.46    1.54
  -1  -2  -1   45.24    1.38
   1   2   1   48.60    1.48
   1   2   1   46.11    1.54
   1   2   1   43.81    1.47
  -2  -2  -1    3.73    0.38
  -2  -2  -1    4.47    0.30
  -2  -2  -1    4.10    0.44
   2   2   1    3.60    0.30
   2   2   1    4.27    0.31
   2   2   1    3.63    0.42
   2   2   1    3.67    0.31
  -3  -2  -1   58.57    2.10
  -3  -2  -1   57.31    2.22
  -3  -2  -1   60.40    1.88
  -3  -2  -1   59.20    1.91
   3   2   1   60.72    1.95
   3   2   1   59.05    2.00
   3   2   1   60.24    2.13
   3   2   1   59.13    1.91
  -4  -2  -1  237.00    7.52
   4   2   1  241.54    7.20
   4   2   1  245.26    7.04
   4   2   1  237.62    7.07
   4   2   1  235.38    7.29
   4   2   1  239.14    7.09
  -5  -2  -1    2.33    0.66
   5   2   1    1.37    0.45
   5   2   1    1.77    0.35
   5   2   1    1.37    0.44
   5   2   1    2.10    0.43
  -6  -2  -1  174.01    6.18
  -6  -2  -1  176.51    5.39
   6   2   1  176.60    5.67
   7   2   1   48.54    2.41
   7  -3  -1    7.72    0.94
   7  -3  -1    7.33    0.94
  -7   3   1    6.10    0.87
  -7   3   1    6.01    1.01
   6  -3  -1   11.98    0.96
   6  -3  -1   10.75    0.83
  -6   3   1   11.36    0.91
  -6   3   1   11.05    0.96
  -6   3   1    9.75    0.91
   5  -3  -1    7.36    0.67
   5  -3  -1    6.46    0.61
   5  -3  -1    8.09    0.74
   5  -3  -1    6.79    0.67
  -5   3   1    6.60    0.62
  -5   3   1    7.02    0.68
  -5   3   1    7.13    0.66
  -5   3   1    7.21    0.63
   4  -3  -1  135.79    4.15
   4  -3  -1  131.99    4.08
   4  -3  -1  135.05    4.09
   4  -3  -1  134.12    4.50
   4  -3  -1  131.93    4.12
  -4   3   1  134.23    4.14
  -4   3   1  133.79    4.07
  -4   3   1  132.36    4.17
  -4   3   1  133.72    4.19
  -4   3   1  135.24    4.02
   3  -3  -1  244.16    7.09
   3  -3  -1  241.59    7.14
   3  -3  -1  243.14    7.13
   3  -3  -1  263.34    7.44
  -3   3   1  234.85    7.14
  -3   3   1  239.17    7.10
  -3   3   1  230.04    7.03
  -3   3   1  233.82    7.12
  -3   3   1  244.01    7.16
   2  -3  -1   33.60    1.16
   2  -3  -1   32.38    1.19
   2  -3  -1   33.13    1.21
  -2   3   1   34.39    1.22
  -2   3   1   33.31    1.17
  -2   3   1   32.66    1.18
  -2   3   1   33.09    1.18
   1  -3  -1  606.54   16.62
   1  -3  -1  564.25   16.65
   1  -3  -1  592.14   16.69
  -1   3   1  607.49   16.68
  -1   3   1  551.94   16.66
  -1   3   1  562.59   16.57
   0  -3  -1  383.48   11.22
   0  -3  -1  391.96   11.08
   0  -3  -1  386.22   11.11
   0  -3  -1  376.62   11.01
   0   3   1  374.85   11.09
   0   3   1  390.34   11.09
   0   3   1  382.88   11.04
  -1  -3  -1  273.81    7.99
  -1  -3  -1  275.50    8.13
  -1  -3  -1  272.79    8.02
  -1  -3  -1  270.14    7.91
   1   3   1  279.84    8.01
   1   3   1  276.20    8.02
  -2  -3  -1  434.50   12.41
  -2  -3  -1  431.62   12.72
  -2  -3  -1  424.45   12.59
   2   3   1  418.48   12.48
   2   3   1  421.41   12.45
   2   3   1  444.73   12.44
   2   3   1  439.27   12.60
  -3  -3  -1    9.51    0.79
  -3  -3  -1    8.55    0.71
  -3  -3  -1    8.59    0.54
   3   3   1    8.32    0.72
   3   3   1    9.14    0.57
   3   3   1    8.83    0.56
   3   3   1    8.96    0.61
   3   3   1    8.73    0.82
  -4  -3  -1   36.71    1.67
  -4  -3  -1   36.06    1.38
  -4  -3  -1   36.25    1.76
   4   3   1   35.64    1.36
   4   3   1   37.45    1.52
   4   3   1   36.36    1.42
  -5  -3  -1    7.85    1.14
   5   3   1    5.55    0.75
   5   3   1    6.34    0.71
   5   3   1    5.91    0.84
   5   3   1    5.74    0.76
  -6  -3  -1   11.34    1.68
   6   3   1   11.93    1.29
   7  -4  -1   10.00    1.15
  -7   4   1    9.53    1.37
   6  -4  -1   99.29    3.36
   6  -4  -1  100.00    3.37
  -6   4   1  101.38    3.41
  -6   4   1  100.07    3.52
   5  -4  -1   92.92    3.21
   5  -4  -1   95.72    3.15
  -5   4   1   96.92    3.10
  -5   4   1   94.36    3.16
  -5   4   1   93.55    3.21
  -5   4   1   93.98    3.01
   4  -4  -1    6.30    0.62
   4  -4  -1    8.05    1.01
   4  -4  -1    6.77    0.67
   4  -4  -1    6.92    0.60
  -4   4   1    7.39    0.59
  -4   4   1    5.70    0.56
  -4   4   1    6.65    0.61
  -4   4   1    6.50    0.57
   3  -4  -1   73.17    2.47
   3  -4  -1   77.92    2.45
   3  -4  -1   79.42    2.75
   3  -4  -1   74.87    2.50
  -3   4   1   72.84    2.44
  -3   4   1   73.83    2.52
  -3   4   1   70.76    2.39
  -3   4   1   73.42    2.45
   2  -4  -1   11.11    0.64
   2  -4  -1   11.19    0.59
   2  -4  -1   11.49    0.62
  -2   4   1    9.95    0.59
  -2   4   1   11.33    0.66
  -2   4   1   10.55    0.55
  -2   4   1   11.26    0.66
   1  -4  -1   37.10    1.25
   1  -4  -1   36.01    1.31
   1  -4  -1   36.95    1.34
  -1   4   1   34.50    1.30
  -1   4   1   29.97    1.48
  -1   4   1   35.43    1.18
  -1   4   1   36.51    1.16
   0  -4  -1    7.75    0.43
   0  -4  -1    6.03    0.59
   0  -4  -1    8.21    0.49
   0  -4  -1    5.14    0.46
   0   4   1    6.58    0.48
   0   4   1    6.57    0.43
   0   4   1    5.82    0.45
  -1  -4  -1   68.75    2.32
  -1  -4  -1   70.65    2.21
  -1  -4  -1   69.55    2.28
  -1  -4  -1   70.84    2.46
   1   4   1   69.34    2.32
   1   4   1   72.05    2.31
   1   4   1   72.46    2.33
  -2  -4  -1  186.14    5.54
  -2  -4  -1  181.95    5.75
  -2  -4  -1  183.06    5.46
  -2  -4  -1  185.46    5.85
  -2  -4  -1  181.32    5.57
   2   4   1  186.20    5.66
   2   4   1  187.94    5.57
   2   4   1  190.91    5.60
   2   4   1  183.11    5.62
  -3  -4  -1   18.25    1.11
  -3  -4  -1   15.99    1.04
  -3  -4  -1   15.44    0.87
  -3  -4  -1   14.57    0.82
   3   4   1   16.24    0.86
   3   4   1   15.73    0.84
   3   4   1   16.48    0.89
   3   4   1   14.74    1.02
   3   4   1   14.75    1.14
  -4  -4  -1  198.83    6.18
  -4  -4  -1  201.39    6.56
  -4  -4  -1  203.52    6.68
   4   4   1  209.56    6.38
   4   4   1  205.46    6.25
   4   4   1  211.00    6.19
  -5  -4  -1  191.59    6.55
   5   4   1  190.82    6.02
   5   4   1  201.00    6.23
  -6  -4  -1   35.28    2.51
   6   4   1   35.04    2.03
   6  -5  -1   32.43    1.61
  -6   5   1   33.02    1.69
  -6   5   1   29.83    1.67
   5  -5  -1  202.46    6.26
   5  -5  -1  197.35    6.31
  -5   5   1  200.30    6.28
  -5   5   1  203.84    6.19
  -5   5   1  201.24    6.06
  -5   5   1  201.13    6.25
   4  -5  -1    4.56    0.65
   4  -5  -1    5.31    0.66
  -4   5   1    4.61    0.58
  -4   5   1    4.93    0.67
  -4   5   1    5.37    0.72
  -4   5   1    5.66    0.68
   3  -5  -1  514.94   14.44
   3  -5  -1  506.86   14.39
  -3   5   1  477.58   14.40
  -3   5   1  493.54   14.37
  -3   5   1  478.77   14.31
  -3   5   1  482.87   14.31
   2  -5  -1   89.48    3.00
   2  -5  -1   86.20    3.06
   2  -5  -1   91.59    2.91
  -2   5   1   92.98    2.99
  -2   5   1   93.23    3.00
  -2   5   1   90.62    2.86
  -2   5   1   89.08    3.00
   1  -5  -1  127.77    3.75
   1  -5  -1  121.81    3.80
   1  -5  -1  117.68    3.83
  -1   5   1  121.13    3.83
  -1   5   1  115.07    3.80
  -1   5   1  118.92    3.62
  -1   5   1  120.99    3.63
   0  -5  -1  184.43    5.80
   0  -5  -1  189.65    5.74
   0  -5  -1  191.15    5.99
   0  -5  -1  192.94    5.68
   0   5   1  193.82    5.80
   0   5   1  190.94    5.68
   0   5   1  186.69    5.76
  -1  -5  -1   31.15    1.31
  -1  -5  -1   31.28    1.26
  -1  -5  -1   30.62    1.19
  -1  -5  -1   30.04    1.46
   1   5   1   30.45    1.29
   1   5   1   31.59    1.30
   1   5   1   31.76    1.30
  -2  -5  -1   35.47    1.48
  -2  -5  -1   36.82    1.70
  -2  -5  -1   37.24    1.68
  -2  -5  -1   36.76    1.39
   2   5   1   38.09    1.50
   2   5   1   35.72    1.58
   2   5   1   38.67    1.49
  -3  -5  -1   17.51    1.22
  -3  -5  -1   17.38    1.03
  -3  -5  -1   18.03    1.27
   3   5   1   16.05    1.02
   3   5   1   17.37    1.01
   3   5   1   17.31    1.00
  -4  -5  -1    5.19    0.98
  -4  -5  -1    3.29    0.83
   4   5   1    3.48    0.61
   4   5   1    4.08    0.70
   4   5   1    5.18    0.67
  -5  -5  -1   20.62    1.84
  -5  -5  -1   18.68    1.86
   5   5   1   18.74    1.34
   5   5   1   19.39    1.49
  -6  -5  -1   12.12    1.86
   6  -6  -1    1.76    0.74
  -6   6   1    1.30    0.69
  -6   6   1    1.97    0.81
   5  -6  -1   18.26    1.26
  -5   6   1   13.81    1.11
  -5   6   1   14.23    1.24
   4  -6  -1    8.39    0.88
   4  -6  -1    8.42    1.22
  -4   6   1    8.94    0.79
  -4   6   1    6.53    0.87
  -4   6   1    8.31    1.00
   3  -6  -1   16.17    1.10
   3  -6  -1   17.39    1.05
  -3   6   1   16.96    0.89
  -3   6   1   16.79    1.02
  -3   6   1   16.49    1.12
   2  -6  -1   37.85    1.61
   2  -6  -1   37.08    1.62
  -2   6   1   39.86    1.44
  -2   6   1   39.60    1.68
  -2   6   1   37.27    1.68
  -2   6   1   40.26    1.61
   1  -6  -1   15.34    0.95
   1  -6  -1   15.72    0.93
   1  -6  -1   15.63    0.96
  -1   6   1   16.26    0.71
  -1   6   1   15.99    0.80
  -1   6   1   16.97    1.03
  -1   6   1   17.29    0.95
   0  -6  -1  367.76   10.95
   0  -6  -1  358.18   11.17
   0  -6  -1  364.28   10.87
   0  -6  -1  376.66   10.80
   0   6   1  364.68   10.93
   0   6   1  370.94   10.78
   0   6   1  373.86   10.92
  -1  -6  -1    1.37    0.43
  -1  -6  -1    0.89    0.54
  -1  -6  -1    0.65    0.40
   1   6   1    1.58    0.49
   1   6   1    0.92    0.43
   1   6   1    1.03    0.38
  -2  -6  -1  214.04    6.94
  -2  -6  -1  214.31    6.65
  -2  -6  -1  216.37    6.50
  -2  -6  -1  221.04    6.90
   2   6   1  215.33    6.66
   2   6   1  211.56    6.61
  -3  -6  -1  115.66    4.17
  -3  -6  -1  114.91    4.12
  -3  -6  -1  103.85    4.11
   3   6   1  116.41    3.85
   3   6   1  118.30    3.91
  -4  -6  -1    1.83    0.80
  -4  -6  -1    1.45    1.00
   4   6   1    0.88    0.64
   4   6   1    1.45    0.61
  -5  -6  -1  128.88    4.94
  -6   7   1   -0.32    1.00
   5  -7  -1  116.54    4.11
  -5   7   1  115.16    4.07
  -5   7   1  112.81    3.99
   4  -7  -1  139.10    4.78
  -4   7   1  144.01    4.75
  -4   7   1  145.23    4.64
   3  -7  -1   56.48    2.39
   3  -7  -1   59.25    2.33
  -3   7   1   57.58    2.10
  -3   7   1   54.43    2.26
  -3   7   1   55.29    2.36
   2  -7  -1  171.86    5.60
   2  -7  -1  177.48    5.66
  -2   7   1  180.72    5.66
  -2   7   1  172.95    5.60
  -2   7   1  177.15    5.36
   1  -7  -1    3.10    0.58
   1  -7  -1    2.43    0.83
  -1   7   1    3.00    0.50
  -1   7   1    3.34    0.64
  -1   7   1    3.59    0.60
   0  -7  -1    2.02    0.55
   0  -7  -1    1.88    0.71
   0   7   1    2.46    0.62
   0   7   1    2.27    0.52
   0   7   1    1.30    0.46
  -1  -7  -1   10.15    1.05
  -1  -7  -1    7.17    1.05
  -1  -7  -1    9.78    1.25
   1   7   1    7.95    1.09
   1   7   1    7.97    0.92
  -2  -7  -1   16.10    1.64
  -2  -7  -1   16.57    1.51
  -2  -7  -1   17.10    1.40
  -2  -7  -1   17.35    1.38
   2   7   1   16.48    1.21
   2   7   1   15.05    1.22
  -3  -7  -1   35.77    2.01
  -3  -7  -1   32.06    2.22
   3   7   1   33.03    1.81
   3   7   1   34.22    1.82
  -4  -7  -1    8.89    1.57
  -4  -7  -1   12.69    1.89
   4   7   1   11.28    1.72
   4   7   1   12.64    1.73
  -5  -7  -1   75.85    4.32
   5  -8  -1   44.18    2.81
  -5   8   1   48.35    2.26
  -5   8   1   38.95    2.41
   4  -8  -1   17.55    1.59
  -4   8   1   19.51    1.33
   3  -8  -1   12.88    1.30
  -3   8   1   12.31    1.00
  -3   8   1   15.36    1.41
   2  -8  -1  124.64    4.73
  -2   8   1  131.13    4.43
  -2   8   1  126.30    4.03
   1  -8  -1   53.05    2.72
   1  -8  -1   53.64    2.37
  -1   8   1   56.74    2.36
   0  -8  -1  178.15    5.98
   0  -8  -1  184.22    6.32
   0   8   1  184.78    5.96
  -1  -8  -1  187.42    6.62
  -1  -8  -1  202.72    6.65
   1   8   1  189.00    6.28
  -2  -8  -1   26.07    1.83
  -2  -8  -1   22.33    2.13
   2   8   1   24.25    1.62
   2   8   1   26.29    1.77
  -3  -8  -1   78.40    3.44
   4  -9  -1   64.91    3.09
  -4   9   1   61.97    2.71
   3  -9  -1   12.73    1.73
  -3   9   1   12.65    1.26
   2  -9  -1   -0.21    1.36
   2  -9  -1    1.72    0.90
  -2   9   1    0.43    0.84
   1  -9  -1    6.16    1.34
   1  -9  -1    8.79    1.58
  -1   9   1    5.82    1.04
   0  -9  -1   15.95    2.16
   0   9   1   18.17    1.70
  -1  -9  -1   25.58    2.67
   1   9   1   29.87    2.07
  -1  10   1   85.22    3.84
   0  10  -2   15.61    1.81
  -1  10  -2   26.74    2.02
  -2  10  -2   17.28    1.41
  -2  10  -2   20.06    2.06
  -3  10  -2   11.02    1.42
   3 -10   2    8.95    1.39
   2   9  -2    0.88    0.75
  -2  -9   2   -1.50    1.30
   1   9  -2  155.36    5.24
  -1  -9   2  153.38    5.74
   0   9  -2   76.32    3.03
   0  -9   2   77.55    3.59
   0  -9   2   75.97    3.13
  -1   9  -2   11.57    1.31
  -1   9  -2   13.36    0.98
   1  -9   2   12.40    1.46
  -2   9  -2   44.13    1.90
  -2   9  -2   46.91    2.24
   2  -9   2   44.34    2.28
  -3   9  -2   15.51    1.58
  -3   9  -2   12.80    1.20
   3  -9   2   15.28    1.65
  -4   9  -2    0.69    0.72
   4  -9   2    0.62    0.94
   4   8  -2    3.35    1.60
   4   8  -2    2.54    0.98
  -4  -8   2    3.49    1.72
   3   8  -2    0.49    0.64
  -3  -8   2    1.17    0.82
  -3  -8   2    2.34    1.11
   2   8  -2    8.32    1.07
   2   8  -2    8.17    0.82
  -2  -8   2    7.79    1.24
   1   8  -2  116.73    3.74
   1   8  -2  118.97    3.95
  -1  -8   2  108.97    3.94
  -1  -8   2  114.02    4.39
   0   8  -2   80.58    3.15
   0   8  -2   83.07    3.20
   0   8  -2   87.00    2.82
   0   8  -2   88.97    2.97
   0   8  -2   90.46    3.16
   0  -8   2   91.71    3.62
   0  -8   2   84.78    3.17
  -1   8  -2   47.12    2.26
  -1   8  -2   47.51    1.80
  -1   8  -2   49.92    2.08
   1  -8   2   47.73    2.12
  -2   8  -2  245.07    7.83
  -2   8  -2  244.00    7.67
   2  -8   2  251.62    7.48
   2  -8   2  245.47    7.73
  -3   8  -2   36.56    1.73
  -3   8  -2   42.06    1.91
   3  -8   2   38.70    1.95
   3  -8   2   40.33    3.27
  -4   8  -2  116.58    4.10
  -4   8  -2  125.27    5.20
   4  -8   2  116.49    4.27
  -5   8  -2   92.78    3.49
   5  -8   2   85.62    3.60
   5   7  -2  133.83    4.79
   5   7  -2  147.82    5.31
  -5  -7   2  161.87    5.42
   4   7  -2    9.34    1.11
   4   7  -2    8.38    1.13
   4   7  -2    9.82    0.80
  -4  -7   2    7.87    1.37
  -4  -7   2    9.07    1.13
   3   7  -2  132.23    4.31
   3   7  -2  138.19    4.12
  -3  -7   2  129.42    4.78
  -3  -7   2  136.40    4.27
  -3  -7   2  121.45    4.34
   2   7  -2  166.89    5.00
   2   7  -2  164.65    5.14
   2   7  -2  160.66    5.15
  -2  -7   2  162.14    5.14
  -2  -7   2  154.59    5.15
  -2  -7   2  166.16    4.99
  -2  -7   2  158.83    5.55
   1   7  -2    0.59    0.45
   1   7  -2    1.04    0.57
   1   7  -2    1.91    0.46
   1   7  -2    0.83    0.30
  -1  -7   2    1.58    0.78
  -1  -7   2    1.20    0.45
  -1  -7   2    1.91    0.64
   0   7  -2  121.24    4.00
   0   7  -2  121.96    3.87
   0   7  -2  128.46    4.05
   0   7  -2  124.98    4.00
   0  -7   2  112.76    3.95
   0  -7   2  119.84    4.38
   0  -7   2  122.13    4.03
  -1   7  -2    1.23    0.38
  -1   7  -2    1.85    0.36
  -1   7  -2    1.55    0.35
  -1   7  -2    1.21    0.55
   1  -7   2    0.79    0.51
   1  -7   2    2.24    0.50
  -2   7  -2   11.17    1.22
  -2   7  -2   11.88    0.92
  -2   7  -2   13.08    0.80
   2  -7   2   12.80    1.00
   2  -7   2   10.57    1.09
   2  -7   2   11.42    0.88
  -3   7  -2    2.56    0.56
  -3   7  -2    4.45    0.58
   3  -7   2    4.36    0.66
   3  -7   2    3.30    0.72
   3  -7   2    3.65    0.70
  -4   7  -2   66.00    2.58
  -4   7  -2   64.93    2.51
   4  -7   2   64.62    2.62
  -5   7  -2   66.53    2.50
  -5   7  -2   64.01    2.64
   5  -7   2   60.40    2.69
  -6  -6   2   23.35    2.16
   5   6  -2   14.04    1.39
  -5  -6   2   14.63    1.45
  -5  -6   2   12.54    1.90
   4   6  -2   -0.11    0.40
   4   6  -2   -0.26    0.42
   4   6  -2    0.75    0.33
  -4  -6   2    0.15    0.52
  -4  -6   2   -0.15    0.73
   3   6  -2   63.97    2.26
   3   6  -2   61.24    2.23
   3   6  -2   64.80    2.14
  -3  -6   2   63.58    2.23
  -3  -6   2   62.23    2.65
  -3  -6   2   63.23    2.34
  -3  -6   2   67.06    2.31
   2   6  -2  170.10    5.66
   2   6  -2  182.48    5.53
   2   6  -2  181.32    5.55
   2   6  -2  181.38    5.44
  -2  -6   2  186.12    5.57
  -2  -6   2  179.13    5.90
  -2  -6   2  182.05    5.46
   1   6  -2   18.76    0.88
   1   6  -2   22.57    1.01
   1   6  -2   19.16    1.09
   1   6  -2   19.70    1.01
  -1  -6   2   20.16    1.05
  -1  -6   2   17.85    1.24
  -1  -6   2   19.48    1.02
  -1  -6   2   19.21    0.99
   0   6  -2  484.50   13.71
   0   6  -2  451.01   13.58
   0   6  -2  464.90   13.67
   0   6  -2  476.01   13.70
   0  -6   2  465.16   13.70
   0  -6   2  470.15   13.64
   0  -6   2  464.90   13.64
   0  -6   2  465.47   13.61
  -1   6  -2   88.28    3.02
  -1   6  -2   97.65    3.20
  -1   6  -2   92.13    3.11
  -1   6  -2   94.00    3.24
   1  -6   2   95.58    2.95
   1  -6   2   93.57    2.97
   1  -6   2   92.03    3.07
   1  -6   2   97.52    3.13
   1  -6   2   92.88    3.15
  -2   6  -2  142.57    4.82
  -2   6  -2  153.22    4.71
  -2   6  -2  154.81    4.93
  -2   6  -2  152.80    4.78
  -2   6  -2  151.75    4.70
   2  -6   2  150.46    4.79
   2  -6   2  154.55    4.69
   2  -6   2  149.36    4.80
  -3   6  -2  245.94    7.96
  -3   6  -2  256.08    8.00
  -3   6  -2  260.56    7.85
  -3   6  -2  254.92    7.87
   3  -6   2  258.47    7.93
   3  -6   2  275.69    7.91
   3  -6   2  265.24    7.92
  -4   6  -2    3.36    0.59
  -4   6  -2    2.51    0.49
   4  -6   2    3.52    0.77
   4  -6   2    2.24    0.62
   4  -6   2    2.59    0.71
  -5   6  -2   33.24    1.69
  -5   6  -2   34.23    1.54
   5  -6   2   36.12    1.77
  -6   6  -2    2.21    0.77
   6  -6   2    2.59    0.83
   6   5  -2   17.81    1.62
  -6  -5   2   21.44    1.82
   5   5  -2  143.85    4.86
  -5  -5   2  152.55    5.22
   4   5  -2  101.69    3.09
   4   5  -2  100.33    3.18
   4   5  -2   94.36    3.11
   4   5  -2   98.86    3.40
  -4  -5   2   97.57    3.41
  -4  -5   2  103.59    3.67
   3   5  -2    0.39    0.46
   3   5  -2    0.61    0.29
   3   5  -2    0.10    0.24
   3   5  -2    0.50    0.24
  -3  -5   2    0.33    0.30
  -3  -5   2    0.97    0.33
  -3  -5   2    0.06    0.50
  -3  -5   2    1.09    0.45
   2   5  -2   27.42    1.28
   2   5  -2   28.53    1.09
   2   5  -2   27.99    1.13
   2   5  -2   28.95    1.15
  -2  -5   2   27.84    1.40
  -2  -5   2   30.62    1.22
  -2  -5   2   27.84    1.14
  -2  -5   2   29.59    1.13
  -2  -5   2   28.60    1.12
   1   5  -2   40.73    1.59
   1   5  -2   43.54    1.54
   1   5  -2   42.18    1.52
   1   5  -2   40.86    1.46
  -1  -5   2   41.39    1.56
  -1  -5   2   40.78    1.76
  -1  -5   2   40.92    1.53
  -1  -5   2   43.69    1.55
  -1  -5   2   41.37    1.49
   0   5  -2   36.96    1.43
   0   5  -2   39.23    1.46
   0   5  -2   35.07    1.34
   0   5  -2   34.78    1.39
   0  -5   2   40.37    1.42
   0  -5   2   38.26    1.40
   0  -5   2   37.46    1.39
   0  -5   2   38.43    1.44
  -1   5  -2    1.30    0.29
  -1   5  -2    1.09    0.40
  -1   5  -2    0.86    0.24
   1  -5   2    1.79    0.28
   1  -5   2    0.69    0.28
   1  -5   2    1.70    0.33
  -2   5  -2    5.38    0.65
  -2   5  -2    4.63    0.43
  -2   5  -2    5.44    0.50
   2  -5   2    5.11    0.52
   2  -5   2    5.58    0.45
   2  -5   2    4.67    0.54
   2  -5   2    5.64    0.52
   2  -5   2    4.54    0.64
  -3   5  -2  278.11    8.31
  -3   5  -2  266.97    8.37
  -3   5  -2  279.36    8.30
  -3   5  -2  272.47    8.39
   3  -5   2  285.33    8.37
   3  -5   2  274.98    8.35
   3  -5   2  285.16    8.35
   3  -5   2  277.59    8.24
  -4   5  -2    1.96    0.36
  -4   5  -2    1.76    0.43
  -4   5  -2    1.22    0.55
   4  -5   2    1.12    0.44
   4  -5   2    1.62    0.62
   4  -5   2    0.17    0.48
   4  -5   2    0.94    0.42
   4  -5   2    2.39    0.54
  -5   5  -2  233.74    6.99
  -5   5  -2  226.76    7.07
   5  -5   2  222.02    7.20
   5  -5   2  226.79    7.06
   5  -5   2  224.68    7.06
  -6   5  -2   81.64    3.13
   6  -5   2   82.74    3.14
   6  -5   2   80.69    3.08
   7  -5   2   17.69    2.00
   7   4  -2   12.99    1.80
   6   4  -2   13.18    1.26
  -6  -4   2   13.24    1.46
   5   4  -2   97.43    3.15
   5   4  -2   96.67    3.33
  -5  -4   2   96.40    3.59
  -5  -4   2   98.57    3.54
   4   4  -2  181.40    5.31
   4   4  -2  178.81    5.27
   4   4  -2  175.71    5.49
   4   4  -2  160.76    5.49
  -4  -4   2  182.53    5.72
  -4  -4   2  185.37    5.63
   3   4  -2    4.84    0.40
   3   4  -2    5.68    0.40
   3   4  -2    6.13    0.75
   3   4  -2    5.45    0.42
   3   4  -2    4.26    0.67
   3   4  -2    5.69    0.44
  -3  -4   2    4.49    0.64
  -3  -4   2    5.74    0.53
   2   4  -2  514.92   15.04
   2   4  -2  489.91   15.02
   2   4  -2  531.34   15.21
   2   4  -2  529.34   15.04
  -2  -4   2  522.19   15.02
  -2  -4   2  535.35   15.31
  -2  -4   2  524.67   15.22
  -2  -4   2  524.60   15.07
  -2  -4   2  537.53   15.00
   1   4  -2  112.75    3.50
   1   4  -2  118.21    3.51
   1   4  -2  113.04    3.58
   1   4  -2  111.20    3.48
  -1  -4   2  118.07    3.48
  -1  -4   2  112.10    3.71
  -1  -4   2  118.12    3.51
  -1  -4   2  114.21    3.58
  -1  -4   2  113.46    3.61
   0   4  -2  222.29    6.69
   0   4  -2  229.79    6.76
   0   4  -2  224.33    6.71
   0   4  -2  235.50    6.74
   0  -4   2  234.55    6.72
   0  -4   2  219.09    6.80
  -1   4  -2  178.97    5.52
  -1   4  -2  195.68    5.63
  -1   4  -2  184.66    5.66
  -1   4  -2  178.81    5.56
   1  -4   2  189.74    5.47
   1  -4   2  189.75    5.61
   1  -4   2  189.59    5.57
   1  -4   2  183.09    5.51
  -2   4  -2   30.21    1.27
  -2   4  -2   30.66    1.29
  -2   4  -2   29.81    1.14
  -2   4  -2   30.84    1.20
   2  -4   2   31.59    1.20
   2  -4   2   29.45    1.22
   2  -4   2   30.65    1.15
   2  -4   2   31.22    1.15
   2  -4   2   33.07    1.24
  -3   4  -2   22.82    1.18
  -3   4  -2   23.74    1.07
  -3   4  -2   25.12    1.18
  -3   4  -2   25.93    1.08
   3  -4   2   26.02    1.18
   3  -4   2   25.46    1.12
   3  -4   2   24.92    1.15
   3  -4   2   25.08    1.03
   3  -4   2   26.14    1.14
  -4   4  -2   46.99    1.77
  -4   4  -2   47.87    2.57
  -4   4  -2   47.70    1.88
  -4   4  -2   49.77    1.84
   4  -4   2   46.76    2.00
   4  -4   2   47.77    1.89
   4  -4   2   48.22    1.85
   4  -4   2   45.80    1.82
   4  -4   2   48.52    1.73
  -5   4  -2    1.10    0.53
  -5   4  -2    1.47    0.44
   5  -4   2    1.14    0.42
   5  -4   2    0.51    0.56
   5  -4   2    2.10    0.51
   5  -4   2    1.24    0.50
  -6   4  -2   27.75    1.53
   6  -4   2   27.61    1.59
   6  -4   2   25.19    1.50
  -7   4  -2    9.96    1.57
   7  -4   2   10.64    1.37
   7   3  -2   40.21    2.11
   6   3  -2  116.76    4.09
   6   3  -2  130.29    4.19
  -6  -3   2  130.55    4.57
   5   3  -2    0.97    0.37
   5   3  -2    1.39    0.69
   5   3  -2    0.64    0.35
   5   3  -2    0.34    0.54
  -5  -3   2    2.14    0.61
   4   3  -2   82.76    2.78
   4   3  -2   85.24    2.66
   4   3  -2   84.05    2.94
   4   3  -2   87.45    2.72
   4   3  -2   85.30    2.97
   4   3  -2   85.98    2.86
   4   3  -2   83.08    3.01
  -4  -3   2   86.72    2.97
  -4  -3   2   85.77    2.99
   3   3  -2   11.06    0.64
   3   3  -2   10.02    0.53
   3   3  -2   10.23    0.68
   3   3  -2    9.44    0.50
   3   3  -2   10.34    0.73
   3   3  -2    9.90    0.70
  -3  -3   2   10.15    0.70
  -3  -3   2   10.65    0.63
   2   3  -2  108.77    3.50
   2   3  -2  114.29    3.33
   2   3  -2  111.87    3.44
   2   3  -2  110.87    3.50
   2   3  -2  107.44    3.32
   2   3  -2  110.50    3.37
  -2  -3   2  113.97    3.30
  -2  -3   2  111.29    3.30
  -2  -3   2  109.73    3.41
  -2  -3   2  117.30    3.56
  -2  -3   2  109.73    3.49
  -2  -3   2  115.79    3.40
   1   3  -2  137.40    4.10
   1   3  -2  130.98    4.02
   1   3  -2  129.40    4.00
   1   3  -2  136.15    4.01
  -1  -3   2  141.02    4.05
  -1  -3   2  138.43    3.99
  -1  -3   2  136.47    4.10
  -1  -3   2  130.58    4.15
   0   3  -2   45.01    1.49
   0   3  -2   44.95    1.56
   0   3  -2   42.43    1.47
   0   3  -2   47.66    1.52
   0  -3   2   46.10    1.51
   0  -3   2   46.19    1.51
   0  -3   2   45.68    1.53
   0  -3   2   46.20    1.49
  -1   3  -2  397.82   11.86
  -1   3  -2  406.68   11.98
  -1   3  -2  434.91   11.95
  -1   3  -2  407.55   11.90
   1  -3   2  413.93   11.97
   1  -3   2  418.49   11.91
   1  -3   2  399.19   11.89
   1  -3   2  406.78   11.92
   1  -3   2  421.78   11.87
   1  -3   2  414.69   11.83
  -2   3  -2   12.88    0.58
  -2   3  -2   12.08    0.69
  -2   3  -2   12.99    0.71
  -2   3  -2   13.41    0.67
   2  -3   2   14.50    0.70
   2  -3   2   13.53    0.67
   2  -3   2   14.04    0.68
   2  -3   2   13.76    0.68
  -3   3  -2  314.34    9.17
  -3   3  -2  329.02    9.28
  -3   3  -2  296.07    9.20
  -3   3  -2  311.13    9.36
  -3   3  -2  306.90    9.22
   3  -3   2  313.81    9.23
   3  -3   2  315.16    9.10
   3  -3   2  311.74    9.23
   3  -3   2  312.79    9.24
   3  -3   2  320.91    9.34
  -4   3  -2  205.85    6.51
  -4   3  -2  204.15    6.20
  -4   3  -2  202.59    6.28
  -4   3  -2  201.61    6.28
   4  -3   2  210.37    6.32
   4  -3   2  213.77    6.30
   4  -3   2  204.63    6.51
   4  -3   2  211.33    6.14
   4  -3   2  206.85    6.29
  -5   3  -2   43.49    1.63
  -5   3  -2   43.61    2.38
  -5   3  -2   40.14    2.00
   5  -3   2   43.02    1.74
   5  -3   2   40.17    1.79
   5  -3   2   42.64    1.58
   5  -3   2   42.76    1.72
  -6   3  -2  133.63    4.45
   6  -3   2  137.92    4.40
   6  -3   2  129.20    4.43
  -7   3  -2   16.41    1.51
   7  -3   2   16.07    1.46
   7  -3   2   18.49    1.69
   7   2  -2   48.30    2.15
   6   2  -2  143.01    4.49
   6   2  -2  129.08    4.45
  -6  -2   2  139.90    4.86
   5   2  -2    4.03    0.85
   5   2  -2    4.09    0.65
   5   2  -2    3.39    0.49
   5   2  -2    2.76    0.37
   5   2  -2    3.75    0.82
   5   2  -2    2.48    0.51
   5   2  -2    3.77    0.54
  -5  -2   2    3.13    0.67
   4   2  -2  217.18    6.79
   4   2  -2  219.72    6.67
   4   2  -2  214.76    6.42
   4   2  -2  228.63    6.58
   4   2  -2  215.41    6.51
   4   2  -2  224.62    6.50
   4   2  -2  216.48    6.64
  -4  -2   2  220.41    6.75
  -4  -2   2  214.23    6.68
   3   2  -2  210.14    6.07
   3   2  -2  209.35    6.20
   3   2  -2  198.63    6.03
   3   2  -2  213.49    6.21
   3   2  -2  216.05    6.15
  -3  -2   2  197.69    6.21
  -3  -2   2  199.74    6.20
   2   2  -2  133.60    3.93
   2   2  -2  123.06    3.81
   2   2  -2  132.51    3.88
   2   2  -2  131.12    3.90
   2   2  -2  125.59    3.88
   2   2  -2  129.20    3.81
  -2  -2   2  132.19    3.93
  -2  -2   2  130.05    3.82
  -2  -2   2  125.41    3.90
  -2  -2   2  124.06    3.87
   1   2  -2  512.14   14.95
  -1  -2   2  549.49   15.01
  -1  -2   2  522.03   15.06
  -1  -2   2  522.17   14.94
  -1  -2   2  516.93   15.05
   0   2  -2   33.21    1.11
   0   2  -2   33.19    1.17
   0   2  -2   35.33    1.14
   0   2  -2   34.00    1.11
   0  -2   2   33.46    1.11
   0  -2   2   33.36    1.18
   0  -2   2   34.92    1.13
  -1   2  -2    1.18    0.18
  -1   2  -2    0.30    0.15
  -1   2  -2    0.48    0.13
  -1   2  -2    0.67    0.14
  -1   2  -2    0.60    0.16
   1  -2   2    0.87    0.17
   1  -2   2    0.83    0.14
   1  -2   2    0.84    0.17
   1  -2   2    0.94    0.17
   1  -2   2    0.66    0.14
  -2   2  -2    8.93    0.51
  -2   2  -2    9.01    0.52
  -2   2  -2    9.27    0.53
  -2   2  -2    8.79    0.41
  -2   2  -2    9.51    0.48
   2  -2   2   10.35    0.53
   2  -2   2   10.26    0.52
   2  -2   2    8.95    0.50
   2  -2   2    8.86    0.53
   2  -2   2    9.04    0.42
  -3   2  -2   69.06    2.21
  -3   2  -2   64.41    2.22
  -3   2  -2   71.75    2.28
  -3   2  -2   67.79    2.40
  -3   2  -2   66.73    2.25
   3  -2   2   69.88    2.27
   3  -2   2   67.04    2.25
   3  -2   2   68.43    2.39
   3  -2   2   68.26    2.25
   3  -2   2   69.22    2.12
  -4   2  -2   36.21    1.39
  -4   2  -2   33.60    1.41
  -4   2  -2   33.66    1.37
  -4   2  -2   34.16    1.42
   4  -2   2   36.89    1.43
   4  -2   2   36.27    1.41
   4  -2   2   36.78    1.41
   4  -2   2   35.93    1.65
   4  -2   2   36.28    1.25
  -5   2  -2   21.03    1.02
  -5   2  -2   19.03    1.21
  -5   2  -2   21.82    1.09
  -5   2  -2   21.31    1.43
   5  -2   2   21.81    1.11
   5  -2   2   22.83    1.18
   5  -2   2   21.78    0.93
  -6   2  -2   73.00    2.67
  -6   2  -2   72.98    3.14
   6  -2   2   73.75    2.63
   6  -2   2   72.07    2.71
  -7   2  -2   22.26    1.59
   7  -2   2   23.04    1.70
   7  -2   2   24.19    1.51
   7   1  -2    2.92    0.71
   6   1  -2    5.08    0.62
   6   1  -2    5.18    0.71
   6   1  -2    5.83    0.74
  -6  -1   2    4.09    0.64
   5   1  -2   15.28    0.81
   5   1  -2   14.81    0.90
   5   1  -2   16.27    0.74
   5   1  -2   16.87    1.05
   5   1  -2   15.07    0.89
   5   1  -2   15.28    1.26
   5   1  -2   14.78    1.15
  -5  -1   2   15.30    0.82
   4   1  -2   49.56    1.82
   4   1  -2   48.85    1.62
   4   1  -2   47.73    1.95
   4   1  -2   49.26    1.71
   4   1  -2   50.31    1.79
   4   1  -2   48.08    1.64
   4   1  -2   49.76    1.70
  -4  -1   2   49.78    1.91
  -4  -1   2   47.92    1.68
   3   1  -2   70.42    2.41
   3   1  -2   72.49    2.20
   3   1  -2   69.92    2.37
   3   1  -2   68.38    2.56
   3   1  -2   69.82    2.20
  -3  -1   2   72.71    2.25
  -3  -1   2   75.73    2.28
   2   1  -2    1.72    0.23
   2   1  -2    1.70    0.22
   2   1  -2    2.08    0.19
   2   1  -2    1.68    0.20
   2   1  -2    1.97    0.25
  -2  -1   2    1.99    0.21
  -2  -1   2    2.38    0.24
  -1  -1   2  656.99   18.77
   0   1  -2   46.68    1.48
   0   1  -2   48.78    1.43
   0   1  -2   46.31    1.46
   0   1  -2   48.46    1.48
   0   1  -2   47.61    1.49
   0  -1   2   48.15    1.48
   0  -1   2   48.02    1.47
   0  -1   2   48.37    1.43
   0  -1   2   47.44    1.47
  -1   1  -2  465.99   13.49
   1  -1   2  459.57   13.48
   1  -1   2  470.21   13.42
   1  -1   2  476.95   13.55
   1  -1   2  489.02   13.50
   1  -1   2  464.04   13.48
  -2   1  -2  323.75    9.58
  -2   1  -2  279.87    9.33
  -2   1  -2  339.08    9.46
  -2   1  -2  337.01    9.44
  -2   1  -2  336.59    9.45
   2  -1   2  329.78    9.33
   2  -1   2  333.94    9.57
   2  -1   2  328.29    9.45
   2  -1   2  325.50    9.45
   2  -1   2  325.51    9.44
  -3   1  -2  101.63    3.39
  -3   1  -2  105.14    3.21
  -3   1  -2   98.41    3.15
  -3   1  -2  102.21    3.17
   3  -1   2  101.02    3.17
   3  -1   2  103.99    3.19
   3  -1   2  103.79    3.19
   3  -1   2  101.08    3.02
  -4   1  -2  267.70    8.05
  -4   1  -2  274.71    8.02
  -4   1  -2  274.81    8.08
  -4   1  -2  269.80    8.43
  -4   1  -2  274.12    8.13
   4  -1   2  276.16    8.13
   4  -1   2  271.43    8.41
   4  -1   2  269.49    8.29
   4  -1   2  278.80    8.11
   4  -1   2  276.67    8.09
  -5   1  -2    3.36    0.53
  -5   1  -2    2.30    0.44
   5  -1   2    2.55    0.46
   5  -1   2    2.46    0.45
  -6   1  -2    2.62    0.78
  -6   1  -2    4.57    0.63
   6  -1   2    2.84    0.65
  -7   1  -2    3.58    0.82
  -7   1  -2    3.80    1.22
   7  -1   2    2.63    0.72
   7  -1   2    4.77    0.94
   7   0  -2    1.49    0.58
   7   0  -2    3.46    0.76
  -7   0   2    2.62    0.64
   6   0  -2  252.39    7.37
   6   0  -2  240.64    7.39
   6   0  -2  232.84    7.52
  -6   0   2  256.12    7.48
   5   0  -2   51.10    1.91
   5   0  -2   49.58    1.87
   5   0  -2   46.64    2.03
   5   0  -2   51.38    1.82
   5   0  -2   45.48    2.21
   5   0  -2   50.32    1.75
  -5   0   2   54.95    1.84
  -5   0   2   54.14    1.86
   4   0  -2   56.81    2.01
   4   0  -2   54.22    2.18
   4   0  -2   56.12    1.81
   4   0  -2   57.03    1.89
   4   0  -2   56.90    1.92
   4   0  -2   57.12    1.94
  -4   0   2   54.22    1.89
  -4   0   2   57.86    1.90
   3   0  -2  181.37    5.43
   3   0  -2  193.22    5.53
   3   0  -2  191.93    5.59
   3   0  -2  185.79    5.76
   3   0  -2  183.30    5.53
   3   0  -2  190.34    5.54
  -3   0   2  190.54    5.54
  -3   0   2  181.80    5.53
   2   0  -2   33.45    1.08
   2   0  -2   31.54    1.20
   2   0  -2   31.21    1.06
   2   0  -2   31.53    1.06
   2   0  -2   31.14    1.06
  -2   0   2   30.19    1.05
  -2   0   2   31.45    1.05
  -2   0   2   31.33    1.07
   1   0  -2   79.32    2.36
   1   0  -2   78.41    2.32
   1   0  -2   81.81    2.35
   1   0  -2   76.22    2.32
  -1   0   2   77.76    2.36
  -1   0   2   77.62    2.40
  -1   0   2   79.88    2.31
   0   0  -2   78.60    2.47
   0   0  -2   83.10    2.43
   0   0   2   82.79    2.43
   0   0   2   84.46    2.47
   0   0   2   85.78    2.48
   0   0   2   83.50    2.44
  -1   0  -2    4.45    0.34
  -1   0  -2    3.87    0.26
  -1   0  -2    3.76    0.25
   1   0   2    3.62    0.26
   1   0   2    4.47    0.27
   1   0   2    3.45    0.23
  -2   0  -2  217.58    6.58
  -2   0  -2  225.29    6.63
  -2   0  -2  220.97    6.83
  -2   0  -2  228.25    6.64
   2   0   2  230.75    6.64
   2   0   2  234.02    6.66
   2   0   2  223.85    6.65
   2   0   2  237.79    6.71
  -3   0  -2   19.52    0.79
  -3   0  -2   17.33    0.73
  -3   0  -2   18.47    0.78
  -3   0  -2   17.52    0.82
  -3   0  -2   18.29    0.98
   3   0   2   19.25    1.01
   3   0   2   17.76    0.80
   3   0   2   17.65    0.90
   3   0   2   18.92    0.81
  -4   0  -2  202.35    6.53
  -4   0  -2  203.64    6.11
  -4   0  -2  214.15    6.11
  -4   0  -2  207.88    6.21
  -4   0  -2  207.68    6.09
   4   0   2  199.08    6.77
   4   0   2  200.67    6.35
   4   0   2  207.49    6.21
   4   0   2  203.14    6.16
  -5   0  -2   64.35    2.20
  -5   0  -2   68.28    2.28
  -5   0  -2   65.59    2.75
   5   0   2   64.12    2.59
   5   0   2   64.91    2.27
   5   0   2   66.95    2.37
  -6   0  -2   98.06    3.96
   6   0   2   97.71    3.33
   6   0   2   99.36    3.35
   6   0   2  100.28    3.45
  -7   0  -2  122.82    4.02
  -7   0  -2  113.34    4.81
   7   0   2  111.93    3.88
   7   0   2  116.22    4.19
   7  -1  -2    1.66    0.61
  -7   1   2    0.74    0.58
   6  -1  -2   65.65    2.52
   6  -1  -2   68.85    2.37
   6  -1  -2   67.62    2.33
  -6   1   2   71.71    2.52
  -6   1   2   71.71    2.46
   5  -1  -2   60.69    1.99
   5  -1  -2   56.22    2.30
   5  -1  -2   57.57    2.13
   5  -1  -2   59.81    2.08
  -5   1   2   62.25    2.10
  -5   1   2   60.11    2.11
   4  -1  -2   41.30    1.81
   4  -1  -2   42.16    1.46
   4  -1  -2   43.80    1.63
   4  -1  -2   39.11    1.49
   4  -1  -2   41.65    1.52
   4  -1  -2   41.21    1.38
   4  -1  -2   42.15    1.36
  -4   1   2   41.48    1.49
  -4   1   2   41.35    1.50
   3  -1  -2  461.78   13.84
   3  -1  -2  496.32   14.22
   3  -1  -2  491.61   13.85
   3  -1  -2  478.10   13.87
   3  -1  -2  487.92   13.94
  -3   1   2  484.28   13.95
  -3   1   2  469.45   13.94
  -3   1   2  495.90   13.81
  -3   1   2  491.84   13.84
   2  -1  -2   40.47    1.28
   2  -1  -2   39.53    1.32
   2  -1  -2   39.90    1.28
  -2   1   2   40.59    1.25
  -2   1   2   41.77    1.29
  -2   1   2   39.23    1.27
  -2   1   2   40.75    1.34
   1  -1  -2  585.40   17.90
  -1   1   2  539.49   18.40
   0  -1  -2  192.72    5.65
   0  -1  -2  196.40    5.65
   0  -1  -2  196.96    5.61
   0   1   2  192.64    5.64
   0   1   2  193.94    5.65
   0   1   2  192.76    5.60
  -1  -1  -2   94.13    2.81
  -1  -1  -2   90.58    2.81
  -1  -1  -2   92.11    2.82
  -1  -1  -2   95.08    2.79
   1   1   2   89.52    2.81
   1   1   2   92.50    2.79
   1   1   2   92.52    2.80
   1   1   2   95.32    2.82
  -2  -1  -2  242.52    6.97
  -2  -1  -2  239.21    7.22
  -2  -1  -2  228.42    6.85
  -2  -1  -2  237.81    7.03
  -2  -1  -2  236.31    6.95
  -2  -1  -2  244.06    6.94
   2   1   2  236.65    6.97
   2   1   2  235.24    6.97
   2   1   2  239.60    6.94
  -3  -1  -2   80.00    2.53
  -3  -1  -2   80.63    2.50
  -3  -1  -2   78.46    2.44
  -3  -1  -2   78.70    2.85
   3   1   2   81.82    2.69
   3   1   2   79.58    2.58
   3   1   2   77.68    2.55
   3   1   2   80.12    2.52
  -4  -1  -2   48.35    1.63
  -4  -1  -2   46.62    1.65
  -4  -1  -2   47.10    2.07
  -4  -1  -2   47.79    1.68
   4   1   2   48.25    1.78
   4   1   2   47.43    1.73
   4   1   2   50.36    1.70
  -5  -1  -2    2.90    0.41
  -5  -1  -2    3.82    0.79
   5   1   2    2.81    0.49
   5   1   2    3.05    0.50
   5   1   2    2.72    0.50
  -6  -1  -2    8.90    1.47
  -6  -1  -2    9.07    0.91
   6   1   2   10.22    1.07
   6   1   2    9.99    1.04
   7   1   2   42.18    2.27
   7  -2  -2  109.84    3.79
  -7   2   2  115.57    4.00
  -7   2   2  118.46    3.88
   6  -2  -2   27.18    1.30
   6  -2  -2   26.62    1.25
   6  -2  -2   27.53    1.28
   6  -2  -2   28.84    1.15
  -6   2   2   29.85    1.40
  -6   2   2   29.37    1.37
   5  -2  -2  192.69    5.87
   5  -2  -2  178.34    6.31
   5  -2  -2  206.32    5.89
  -5   2   2  205.49    6.03
  -5   2   2  205.23    6.08
   4  -2  -2    6.32    0.48
   4  -2  -2    6.44    0.83
   4  -2  -2    6.55    0.45
   4  -2  -2    6.68    0.53
  -4   2   2    6.51    0.50
  -4   2   2    8.20    0.60
  -4   2   2    7.45    0.55
  -4   2   2    7.00    0.45
   3  -2  -2    1.01    0.21
   3  -2  -2    1.66    0.39
   3  -2  -2    1.45    0.22
   3  -2  -2    0.94    0.19
  -3   2   2    0.95    0.19
  -3   2   2    1.07    0.23
  -3   2   2    1.23    0.25
   2  -2  -2   38.90    1.30
   2  -2  -2   39.30    1.29
   2  -2  -2   38.65    1.29
  -2   2   2   37.24    1.28
  -2   2   2   37.73    1.32
  -2   2   2   38.31    1.29
   1  -2  -2   22.20    0.80
   1  -2  -2   21.10    0.73
   1  -2  -2   20.63    0.80
  -1   2   2   21.15    0.80
  -1   2   2   20.62    0.73
  -1   2   2   21.17    0.79
   0  -2  -2  217.71    6.20
   0  -2  -2  204.88    6.17
   0  -2  -2  210.68    6.19
   0   2   2  211.04    6.18
   0   2   2  211.51    6.18
  -1  -2  -2   15.05    0.65
  -1  -2  -2   14.66    0.52
  -1  -2  -2   13.74    0.65
  -1  -2  -2   15.35    0.64
   1   2   2   14.95    0.69
   1   2   2   15.11    0.64
   1   2   2   14.76    0.61
   1   2   2   15.45    0.65
  -2  -2  -2  382.58   11.02
  -2  -2  -2  366.00   11.35
  -2  -2  -2  379.76   11.14
   2   2   2  385.28   11.04
   2   2   2  377.63   11.07
   2   2   2  400.40   11.16
   2   2   2  378.36   11.07
  -3  -2  -2  109.29    3.54
  -3  -2  -2  104.22    3.37
  -3  -2  -2  106.50    3.73
  -3  -2  -2  111.61    3.34
   3   2   2  105.97    3.53
   3   2   2  107.47    3.40
   3   2   2  111.53    3.37
   3   2   2  110.52    3.45
  -4  -2  -2  113.34    4.06
  -4  -2  -2  112.58    3.58
   4   2   2  112.87    3.58
   4   2   2  117.52    3.71
   4   2   2  110.44    3.53
   4   2   2  119.24    3.65
  -5  -2  -2  173.26    6.04
   5   2   2  170.52    5.34
   5   2   2  181.77    5.61
   5   2   2  182.56    5.50
  -6  -2  -2    4.55    0.60
  -6  -2  -2    4.96    1.25
   6   2   2    3.97    0.72
   6   2   2    4.51    0.80
   7  -3  -2   35.62    1.55
  -7   3   2   35.24    1.88
   6  -3  -2   26.68    1.44
   6  -3  -2   28.96    1.27
  -6   3   2   29.29    1.44
  -6   3   2   30.32    1.47
   5  -3  -2  214.27    7.00
   5  -3  -2  224.65    6.84
   5  -3  -2  223.42    6.80
  -5   3   2  239.82    6.73
  -5   3   2  232.81    6.91
   4  -3  -2   58.99    1.97
   4  -3  -2   57.48    2.05
   4  -3  -2   59.47    1.99
   4  -3  -2   58.58    2.42
   4  -3  -2   57.40    1.99
  -4   3   2   55.37    2.03
  -4   3   2   59.39    1.95
  -4   3   2   57.58    2.03
  -4   3   2   57.78    2.04
   3  -3  -2  223.51    6.69
   3  -3  -2  227.24    6.71
   3  -3  -2  231.54    6.70
  -3   3   2  227.60    6.67
  -3   3   2  220.06    6.73
  -3   3   2  219.74    6.69
  -3   3   2  230.80    6.74
   2  -3  -2  436.45   12.45
   2  -3  -2  428.16   12.48
   2  -3  -2  428.84   12.50
  -2   3   2  423.94   12.44
  -2   3   2  449.52   12.51
  -2   3   2  423.34   12.48
   1  -3  -2   85.72    2.80
   1  -3  -2   90.12    2.78
   1  -3  -2   90.88    2.68
  -1   3   2   85.93    2.78
  -1   3   2   88.74    2.68
  -1   3   2   92.47    2.80
   0  -3  -2  271.87    7.66
   0  -3  -2  257.05    7.81
   0  -3  -2  258.48    7.77
   0  -3  -2  260.10    7.74
   0   3   2  274.18    7.76
   0   3   2  264.09    7.76
  -1  -3  -2    6.76    0.36
  -1  -3  -2    7.26    0.50
  -1  -3  -2    7.57    0.52
  -1  -3  -2    6.94    0.47
   1   3   2    7.15    0.48
   1   3   2    6.97    0.43
   1   3   2    6.67    0.46
  -2  -3  -2    1.69    0.43
  -2  -3  -2    1.49    0.29
  -2  -3  -2    1.83    0.38
  -2  -3  -2    2.37    0.38
   2   3   2    1.86    0.41
   2   3   2    0.96    0.27
   2   3   2    1.27    0.27
   2   3   2    1.50    0.29
  -3  -3  -2    8.12    0.64
  -3  -3  -2    7.10    0.83
  -3  -3  -2    7.49    0.71
   3   3   2    7.52    0.89
   3   3   2    7.48    0.60
   3   3   2    6.79    0.59
   3   3   2    7.42    0.60
  -4  -3  -2   67.70    2.87
  -4  -3  -2   65.82    2.35
   4   3   2   68.91    2.47
   4   3   2   69.84    2.35
   4   3   2   69.03    2.40
  -5  -3  -2   26.45    1.83
   5   3   2   26.49    1.45
   5   3   2   26.82    1.37
   5   3   2   23.16    1.54
  -6  -3  -2    5.62    1.32
   6   3   2    2.36    0.77
   6   3   2    3.72    0.89
   7  -4  -2   46.20    1.94
  -7   4   2   44.08    2.21
  -7   4   2   43.86    2.17
   6  -4  -2   10.72    0.96
  -6   4   2   12.33    1.06
  -6   4   2   11.37    1.12
   5  -4  -2    0.85    0.49
   5  -4  -2    2.26    0.43
  -5   4   2    2.44    0.47
  -5   4   2    1.98    0.49
   4  -4  -2    4.00    0.54
   4  -4  -2    4.14    0.56
   4  -4  -2    5.77    0.91
   4  -4  -2    5.24    0.63
  -4   4   2    4.91    0.57
  -4   4   2    4.06    0.51
  -4   4   2    4.48    0.58
   3  -4  -2   34.26    1.34
   3  -4  -2   34.03    1.33
  -3   4   2   32.80    1.37
  -3   4   2   32.70    1.28
  -3   4   2   33.67    1.32
   2  -4  -2  178.45    5.42
   2  -4  -2  181.88    5.39
   2  -4  -2  181.51    5.33
  -2   4   2  179.25    5.34
  -2   4   2  170.17    5.37
  -2   4   2  180.37    5.40
  -2   4   2  172.87    5.28
   1  -4  -2    6.53    0.44
   1  -4  -2    6.61    0.51
  -1   4   2    6.42    0.36
  -1   4   2    5.95    0.54
  -1   4   2    5.65    0.47
   0  -4  -2  382.90   11.65
   0  -4  -2  399.01   11.58
   0  -4  -2  418.24   11.55
   0  -4  -2  398.44   11.43
   0   4   2  399.24   11.55
   0   4   2  377.38   11.55
  -1  -4  -2  298.65    9.00
  -1  -4  -2  304.93    8.84
  -1  -4  -2  307.05    8.95
  -1  -4  -2  305.49    9.11
   1   4   2  304.44    8.98
   1   4   2  306.55    9.01
   1   4   2  306.31    8.96
  -2  -4  -2  199.76    6.28
  -2  -4  -2  202.71    6.16
  -2  -4  -2  198.38    6.50
  -2  -4  -2  201.66    6.09
   2   4   2  205.10    6.17
   2   4   2  213.32    6.14
   2   4   2  201.66    6.16
  -3  -4  -2  313.09    9.53
  -3  -4  -2  316.50    9.76
   3   4   2  310.64    9.28
   3   4   2  322.23    9.40
   3   4   2  306.94    9.34
  -4  -4  -2    4.19    0.84
  -4  -4  -2    5.00    0.85
  -4  -4  -2    5.17    0.74
   4   4   2    4.44    0.63
   4   4   2    4.22    0.65
   4   4   2    5.55    0.83
  -5  -4  -2   44.65    2.49
   5   4   2   43.88    1.92
   5   4   2   41.52    1.99
  -6  -4  -2   26.80    2.54
   6  -5  -2   21.38    1.39
  -6   5   2   23.10    1.48
  -6   5   2   23.92    1.51
   5  -5  -2  115.78    3.90
   5  -5  -2  117.21    4.26
  -5   5   2  119.78    3.93
  -5   5   2  117.38    3.87
   4  -5  -2  116.02    4.44
   4  -5  -2  132.89    4.17
  -4   5   2  128.09    4.31
  -4   5   2  132.36    4.11
  -4   5   2  128.84    4.17
   3  -5  -2    8.70    0.74
   3  -5  -2    7.46    0.68
  -3   5   2    7.11    0.84
  -3   5   2    8.15    0.68
  -3   5   2    5.97    0.75
  -3   5   2    7.36    0.58
   2  -5  -2  123.94    4.01
   2  -5  -2  123.39    3.98
   2  -5  -2  125.01    3.91
  -2   5   2  124.12    3.99
  -2   5   2  127.56    3.96
  -2   5   2  128.82    4.02
  -2   5   2  123.58    3.83
   1  -5  -2  100.44    3.35
   1  -5  -2  100.25    3.21
   1  -5  -2  100.70    3.29
  -1   5   2  103.64    3.32
  -1   5   2  101.31    3.11
  -1   5   2  102.75    3.09
  -1   5   2  102.86    3.32
   0  -5  -2   21.70    0.92
   0  -5  -2   18.95    0.98
   0  -5  -2   19.45    1.02
   0  -5  -2   21.12    1.15
   0   5   2   19.69    0.92
   0   5   2   20.39    1.01
   0   5   2   21.58    1.04
  -1  -5  -2    2.82    0.39
  -1  -5  -2    2.23    0.42
  -1  -5  -2    3.01    0.56
  -1  -5  -2    2.44    0.42
   1   5   2    2.84    0.46
   1   5   2    2.79    0.46
   1   5   2    3.08    0.44
  -2  -5  -2   41.87    1.70
  -2  -5  -2   42.63    1.84
  -2  -5  -2   41.86    1.52
  -2  -5  -2   41.81    1.98
   2   5   2   42.44    1.67
   2   5   2   41.94    1.68
   2   5   2   34.20    2.31
   2   5   2   42.63    1.69
  -3  -5  -2  105.81    3.75
  -3  -5  -2   98.01    4.39
   3   5   2  105.20    3.48
   3   5   2  105.92    3.54
   3   5   2  106.41    3.55
  -4  -5  -2    3.36    0.93
  -4  -5  -2    4.66    1.04
   4   5   2    6.43    0.97
   4   5   2    4.77    0.76
  -5  -5  -2  114.72    4.57
   5   5   2  117.93    4.12
   5   5   2  106.27    3.91
   6  -6  -2   -0.12    0.73
  -6   6   2    1.11    0.70
  -6   6   2    1.02    0.85
   5  -6  -2   19.08    1.33
  -5   6   2   19.66    1.42
  -5   6   2   19.99    1.29
   4  -6  -2  174.62    5.54
   4  -6  -2  177.43    5.54
  -4   6   2  168.55    5.46
  -4   6   2  167.37    5.49
  -4   6   2  173.52    5.41
   3  -6  -2    3.61    0.62
   3  -6  -2    4.65    0.73
  -3   6   2    4.33    0.63
  -3   6   2    4.71    0.66
  -3   6   2    3.80    0.48
   2  -6  -2  366.68   10.61
   2  -6  -2  341.09   10.50
  -2   6   2  354.78   10.54
  -2   6   2  370.10   10.52
  -2   6   2  332.50   10.52
  -2   6   2  353.06   10.32
   1  -6  -2  108.49    3.65
   1  -6  -2  118.06    4.04
   1  -6  -2  114.62    3.81
   1  -6  -2  115.67    3.75
  -1   6   2  116.28    3.79
  -1   6   2  110.51    3.77
   0  -6  -2   45.01    1.99
   0  -6  -2   42.66    1.77
   0  -6  -2   44.39    1.69
   0  -6  -2   43.39    1.82
   0   6   2   45.12    1.81
   0   6   2   42.58    1.81
   0   6   2   44.55    1.67
  -1  -6  -2  281.37    8.15
  -1  -6  -2  277.53    8.53
  -1  -6  -2  272.87    8.34
   1   6   2  266.89    8.32
   1   6   2  277.76    8.31
   1   6   2  266.65    8.25
  -2  -6  -2   26.59    1.58
  -2  -6  -2   25.53    1.65
  -2  -6  -2   27.97    1.44
  -2  -6  -2   26.83    1.31
   2   6   2   25.62    1.48
   2   6   2   25.53    1.37
   2   6   2   26.07    1.34
  -3  -6  -2   95.87    3.73
  -3  -6  -2   92.62    3.64
   3   6   2   95.96    3.41
   3   6   2   93.28    3.37
  -4  -6  -2   16.17    1.97
  -4  -6  -2   20.24    1.91
   4   6   2   18.79    1.52
   4   6   2   16.17    1.45
  -5  -6  -2    0.75    1.46
  -6   7   2  137.08    4.92
   5  -7  -2    0.96    0.76
  -5   7   2    2.04    0.69
  -5   7   2    0.89    0.80
   4  -7  -2   25.41    1.53
  -4   7   2   22.20    1.31
  -4   7   2   21.78    1.75
   3  -7  -2   21.48    1.56
   3  -7  -2   19.51    1.32
  -3   7   2   18.91    1.49
  -3   7   2   19.85    1.07
  -3   7   2   18.34    1.31
   2  -7  -2    9.40    1.18
   2  -7  -2    9.15    1.01
  -2   7   2    8.23    0.69
  -2   7   2    8.11    1.23
  -2   7   2    9.74    1.02
   1  -7  -2    3.85    0.88
   1  -7  -2    1.76    0.54
  -1   7   2    2.89    0.75
  -1   7   2    2.44    0.55
  -1   7   2    2.62    0.52
   0  -7  -2   27.13    1.50
   0  -7  -2   25.91    1.67
   0   7   2   24.99    1.59
   0   7   2   23.93    1.36
   0   7   2   25.86    1.45
  -1  -7  -2  104.73    3.74
  -1  -7  -2  105.45    3.96
   1   7   2  106.12    3.60
   1   7   2  105.25    3.71
  -2  -7  -2   15.55    1.57
  -2  -7  -2   17.60    1.60
   2   7   2   14.97    1.21
   2   7   2   14.33    1.32
  -3  -7  -2  125.75    4.70
  -3  -7  -2  119.29    4.70
   3   7   2  120.78    4.37
   3   7   2  128.54    4.38
  -4  -7  -2   98.08    4.26
  -5   8   2    4.79    1.14
  -5   8   2    3.69    0.90
   4  -8  -2  135.41    4.85
  -4   8   2  138.42    4.56
   3  -8  -2  167.97    5.75
  -3   8   2  172.86    5.71
  -3   8   2  172.41    5.38
   2  -8  -2   53.10    2.44
   2  -8  -2   52.63    2.82
  -2   8   2   54.45    1.99
   1  -8  -2  154.65    5.36
   1  -8  -2  153.81    5.60
  -1   8   2  166.83    5.35
   0  -8  -2    8.99    1.34
   0  -8  -2    6.52    0.98
   0   8   2    7.66    1.04
  -1  -8  -2    6.95    1.33
   1   8   2    7.10    1.08
   1   8   2    5.17    0.90
  -2  -8  -2   21.80    2.06
  -2  -8  -2   19.22    2.17
   2   8   2   20.16    1.61
   2   8   2   20.60    1.79
  -3  -8  -2   12.24    2.21
   3  -9  -2   18.38    2.00
   2  -9  -2    7.72    1.27
   2  -9  -2    8.89    1.58
  -2   9   2    7.91    1.20
   1  -9  -2   75.80    3.77
  -1   9   2   83.35    3.46
   0  -9  -2   40.13    2.87
   0   9   2   44.37    2.49
   1  10  -3   11.89    1.71
   0  10  -3  155.39    5.61
   0 -10   3  170.96    7.19
  -1  10  -3    3.14    1.00
  -1  10  -3    3.37    0.70
   1 -10   3    4.85    2.01
  -2  10  -3  170.90    5.62
  -2  10  -3  174.70    6.01
  -3  10  -3   44.12    2.19
   3 -10   3   39.17    2.73
   3   9  -3   26.75    1.55
   2   9  -3   93.37    3.53
   2   9  -3   95.08    3.26
  -2  -9   3   91.52    4.17
   1   9  -3    2.64    0.77
   1   9  -3    1.77    0.58
  -1  -9   3    2.01    1.26
   0   9  -3    8.29    0.94
   0   9  -3    7.69    0.86
   0   9  -3    9.05    1.20
   0  -9   3    7.15    1.07
   0  -9   3    8.98    1.51
  -1   9  -3   32.85    1.77
  -1   9  -3   28.32    1.43
   1  -9   3   29.30    1.88
  -2   9  -3    6.57    0.94
  -2   9  -3    8.18    1.15
   2  -9   3    5.37    1.02
  -3   9  -3   19.16    1.40
  -3   9  -3   18.74    1.59
   3  -9   3   17.45    1.70
  -4   9  -3    4.68    0.90
   4  -9   3    3.37    1.07
   4   8  -3   27.12    1.68
  -4  -8   3   23.13    2.53
   3   8  -3   72.87    2.81
   3   8  -3   74.91    2.62
  -3  -8   3   72.21    3.43
   2   8  -3  165.43    5.14
   2   8  -3  167.11    5.32
  -2  -8   3  157.63    5.79
   1   8  -3    8.86    0.78
   1   8  -3    9.43    0.93
   1   8  -3    6.60    0.90
  -1  -8   3    4.84    1.04
  -1  -8   3    7.38    1.09
   0   8  -3  159.52    5.28
   0   8  -3  158.78    5.36
   0   8  -3  157.43    5.35
   0   8  -3  168.63    5.17
   0  -8   3  171.34    5.80
   0  -8   3  165.10    5.34
  -1   8  -3  147.61    4.97
  -1   8  -3  147.43    5.01
  -1   8  -3  151.96    4.70
  -1   8  -3  145.71    4.74
   1  -8   3  148.07    4.93
  -2   8  -3   19.40    1.31
  -2   8  -3   21.33    1.19
   2  -8   3   22.40    1.44
  -3   8  -3  111.03    3.80
  -3   8  -3  106.14    3.68
   3  -8   3  100.06    3.80
  -4   8  -3   15.75    1.32
   4  -8   3   15.13    1.52
   5  -8   3    5.03    1.13
   5   7  -3   17.35    1.66
  -5  -7   3   14.84    2.33
   4   7  -3  105.24    3.32
   4   7  -3  100.35    3.45
  -4  -7   3   98.74    4.09
  -4  -7   3  103.48    3.50
   3   7  -3    0.68    0.38
   3   7  -3    1.40    0.54
   3   7  -3    1.93    0.49
  -3  -7   3    1.49    0.83
  -3  -7   3    1.49    0.62
  -3  -7   3    0.93    0.83
   2   7  -3    9.74    0.72
   2   7  -3    8.43    0.92
   2   7  -3   10.74    0.85
  -2  -7   3    9.34    1.32
   1   7  -3    0.98    0.32
   1   7  -3    0.97    0.37
   1   7  -3    0.78    0.47
   1   7  -3   -0.08    0.56
   0   7  -3   55.27    2.20
   0   7  -3   54.65    2.16
   0   7  -3   54.41    2.08
   0   7  -3   53.90    1.98
   0  -7   3   55.51    2.04
   0  -7   3   50.51    2.10
   0  -7   3   54.63    2.12
  -1   7  -3   82.94    2.88
  -1   7  -3   87.00    3.08
  -1   7  -3   86.00    2.98
   1  -7   3   79.43    2.97
   1  -7   3   88.57    3.04
   1  -7   3   85.81    2.83
  -2   7  -3   43.88    2.08
  -2   7  -3   48.68    1.92
  -2   7  -3   47.85    1.83
   2  -7   3   43.97    1.66
   2  -7   3   45.07    2.02
   2  -7   3   42.51    1.90
   2  -7   3   49.27    1.98
  -3   7  -3  146.07    4.77
  -3   7  -3  151.05    4.83
   3  -7   3  151.75    4.88
   3  -7   3  147.22    4.72
   3  -7   3  139.47    4.90
  -4   7  -3   73.32    2.80
  -4   7  -3   73.55    2.78
   4  -7   3   68.26    2.81
  -5   7  -3   63.57    2.64
   5  -7   3   59.71    2.70
   6   6  -3   15.58    1.80
   5   6  -3   20.15    1.43
   5   6  -3   15.68    0.98
  -5  -6   3   17.73    1.97
  -5  -6   3   15.76    1.34
   4   6  -3  236.27    7.20
   4   6  -3  240.23    7.23
   4   6  -3  243.30    7.20
  -4  -6   3  244.04    7.39
  -4  -6   3  242.70    7.79
   3   6  -3   25.23    1.08
   3   6  -3   23.29    1.12
   3   6  -3   24.27    1.14
  -3  -6   3   24.87    1.11
  -3  -6   3   24.59    1.14
  -3  -6   3   21.42    1.35
   2   6  -3  228.78    6.96
   2   6  -3  227.42    6.96
   2   6  -3  220.34    7.14
   2   6  -3  239.90    6.93
  -2  -6   3  239.03    7.10
  -2  -6   3  233.59    7.02
  -2  -6   3  229.49    7.32
   1   6  -3  233.11    7.10
   1   6  -3  232.43    7.00
   1   6  -3  230.38    6.93
   1   6  -3  230.91    6.99
  -1  -6   3  237.76    7.01
  -1  -6   3  236.31    7.06
  -1  -6   3  218.66    7.28
  -1  -6   3  228.55    6.94
  -1  -6   3  235.60    7.00
   0   6  -3    8.04    0.84
   0   6  -3    9.44    0.90
   0   6  -3    9.45    0.61
   0   6  -3    8.99    0.66
   0   6  -3    9.59    0.79
   0  -6   3   10.70    0.78
   0  -6   3    7.65    0.73
   0  -6   3    9.03    0.68
   0  -6   3    8.65    0.74
  -1   6  -3  162.81    5.14
  -1   6  -3  170.59    5.35
  -1   6  -3  170.84    5.28
  -1   6  -3  162.32    5.20
   1  -6   3  175.60    5.27
   1  -6   3  163.07    5.20
   1  -6   3  166.74    5.10
  -2   6  -3    9.12    0.74
  -2   6  -3    8.58    1.05
  -2   6  -3    8.96    0.95
  -2   6  -3    9.52    0.66
   2  -6   3    9.30    0.67
   2  -6   3    9.78    0.83
   2  -6   3    9.33    0.68
   2  -6   3    9.55    0.81
   2  -6   3    8.40    0.88
  -3   6  -3    0.46    0.32
  -3   6  -3    0.14    0.67
  -3   6  -3    0.37    0.34
  -3   6  -3    0.86    0.61
   3  -6   3    0.49    0.54
   3  -6   3    0.26    0.44
   3  -6   3   -0.40    0.37
   3  -6   3    0.63    0.35
  -4   6  -3    1.30    0.46
  -4   6  -3    0.72    0.46
   4  -6   3    1.00    0.73
   4  -6   3    1.35    0.53
   4  -6   3    1.76    0.75
  -5   6  -3   52.54    2.26
   5  -6   3   51.79    2.30
  -6   6  -3   12.56    1.48
   6  -6   3   13.27    1.72
   6  -6   3   12.89    1.60
   6   5  -3   37.12    2.01
   5   5  -3   10.00    0.99
   5   5  -3   10.57    0.76
   5   5  -3   10.45    1.02
  -5  -5   3    9.33    1.49
  -5  -5   3   10.58    1.10
   4   5  -3    1.77    0.37
   4   5  -3    1.58    0.40
  -4  -5   3    1.90    0.49
  -4  -5   3    1.47    0.80
   3   5  -3   19.83    1.11
   3   5  -3   20.32    0.94
   3   5  -3   20.34    0.91
   3   5  -3   22.93    1.79
   3   5  -3   21.10    0.93
   3   5  -3   21.90    0.94
  -3  -5   3   21.78    1.26
  -3  -5   3   21.98    1.12
  -3  -5   3   19.36    0.91
  -3  -5   3   21.21    0.90
  -3  -5   3   20.62    0.96
   2   5  -3    9.10    0.80
   2   5  -3    8.01    0.57
   2   5  -3    7.64    0.53
   2   5  -3    7.49    0.53
  -2  -5   3    7.97    0.59
  -2  -5   3    8.26    0.83
  -2  -5   3    7.49    0.56
  -2  -5   3    7.97    0.70
  -2  -5   3    8.55    0.73
   1   5  -3  191.50    5.81
   1   5  -3  194.06    5.93
   1   5  -3  189.89    5.78
   1   5  -3  197.20    5.83
  -1  -5   3  205.38    5.86
  -1  -5   3  188.09    5.88
  -1  -5   3  197.26    5.83
  -1  -5   3  182.54    6.04
  -1  -5   3  191.18    5.77
   0   5  -3    0.86    0.30
   0   5  -3    1.14    0.24
   0   5  -3    0.74    0.36
   0   5  -3    1.00    0.24
   0   5  -3    0.52    0.34
   0  -5   3    0.89    0.30
   0  -5   3    0.74    0.33
   0  -5   3    0.74    0.27
   0  -5   3    0.92    0.29
  -1   5  -3  608.85   18.23
  -1   5  -3  630.59   18.36
  -1   5  -3  602.70   18.18
   1  -5   3  630.98   18.23
   1  -5   3  661.03   18.29
   1  -5   3  628.44   18.19
   1  -5   3  654.49   18.22
  -2   5  -3  111.84    3.60
  -2   5  -3  109.47    3.68
  -2   5  -3  111.22    3.74
  -2   5  -3  110.47    3.55
   2  -5   3  116.47    3.54
   2  -5   3  113.62    3.64
   2  -5   3  113.76    3.52
   2  -5   3  109.47    3.63
   2  -5   3  114.31    3.57
  -3   5  -3  159.58    5.28
  -3   5  -3  166.10    5.20
  -3   5  -3  162.89    5.08
  -3   5  -3  168.09    5.17
  -3   5  -3  158.43    5.28
   3  -5   3  163.19    5.10
   3  -5   3  169.96    5.27
   3  -5   3  172.75    5.21
   3  -5   3  169.27    5.08
   3  -5   3  168.46    5.23
  -4   5  -3  211.80    6.29
  -4   5  -3  208.76    6.35
   4  -5   3  199.19    6.43
   4  -5   3  188.71    6.46
   4  -5   3  205.73    6.41
   4  -5   3  209.53    6.39
   4  -5   3  198.37    6.20
  -5   5  -3    0.43    0.48
  -5   5  -3    0.13    0.53
   5  -5   3    2.06    0.66
   5  -5   3    2.03    0.59
  -6   5  -3   56.07    2.43
   6  -5   3   52.18    2.49
   6  -5   3   55.11    2.43
   7  -5   3    9.77    1.53
   7   4  -3   26.09    1.94
   6   4  -3  155.14    5.07
   5   4  -3   37.54    1.96
   5   4  -3   36.16    1.38
   5   4  -3   34.67    1.53
  -5  -4   3   34.67    1.86
  -5  -4   3   36.36    1.73
   4   4  -3  196.42    5.88
   4   4  -3  186.13    6.15
   4   4  -3  198.72    5.87
   4   4  -3  186.36    6.05
   4   4  -3  200.80    6.16
  -4  -4   3  200.03    6.08
  -4  -4   3  202.91    6.21
   3   4  -3  226.58    6.95
   3   4  -3  232.61    6.96
   3   4  -3  226.09    6.72
   3   4  -3  230.00    6.87
   3   4  -3  199.63    6.77
   3   4  -3  218.79    6.64
   3   4  -3  230.22    6.74
  -3  -4   3  230.30    6.97
  -3  -4   3  242.43    6.79
  -3  -4   3  232.20    6.80
  -3  -4   3  231.00    6.98
   2   4  -3    1.14    0.22
   2   4  -3    1.34    0.36
   2   4  -3    1.83    0.27
   2   4  -3    2.01    0.30
  -2  -4   3    0.90    0.23
  -2  -4   3    1.59    0.26
  -2  -4   3    1.49    0.34
  -2  -4   3    1.02    0.24
  -2  -4   3    1.35    0.34
  -2  -4   3    1.23    0.37
   1   4  -3  131.53    3.97
   1   4  -3  128.65    4.08
   1   4  -3  127.71    3.97
   1   4  -3  127.09    3.95
  -1  -4   3  131.00    4.06
  -1  -4   3  135.18    3.94
  -1  -4   3  130.11    3.96
  -1  -4   3  138.86    4.02
  -1  -4   3  122.44    4.13
   0   4  -3  129.64    3.95
   0   4  -3  129.67    4.06
   0   4  -3  128.84    3.98
   0   4  -3  122.08    3.92
   0  -4   3  135.69    3.98
   0  -4   3  127.36    3.99
   0  -4   3  130.91    3.94
  -1   4  -3   24.47    1.10
  -1   4  -3   23.68    1.03
  -1   4  -3   22.03    0.95
  -1   4  -3   22.07    0.93
   1  -4   3   22.93    0.84
   1  -4   3   23.02    0.99
   1  -4   3   24.14    1.01
   1  -4   3   24.48    0.97
   1  -4   3   23.27    0.99
  -2   4  -3    1.83    0.37
  -2   4  -3    1.42    0.26
  -2   4  -3    1.48    0.30
  -2   4  -3    2.09    0.36
   2  -4   3    1.75    0.32
   2  -4   3    1.99    0.36
   2  -4   3    0.69    0.30
   2  -4   3    1.33    0.29
   2  -4   3    1.44    0.31
  -3   4  -3   10.10    0.83
  -3   4  -3   10.53    0.68
  -3   4  -3    9.57    0.57
  -3   4  -3    9.38    0.67
  -3   4  -3    9.76    0.82
   3  -4   3   10.35    0.75
   3  -4   3   10.13    0.73
   3  -4   3    9.27    0.78
   3  -4   3   10.71    0.76
   3  -4   3   10.04    0.65
  -4   4  -3  140.18    4.74
  -4   4  -3  147.38    4.71
  -4   4  -3  145.40    4.68
   4  -4   3  148.56    4.74
   4  -4   3  150.57    4.89
   4  -4   3  151.77    4.78
   4  -4   3  151.54    4.57
   4  -4   3  147.68    4.72
  -5   4  -3   -0.01    0.43
  -5   4  -3    0.57    0.41
   5  -4   3    1.40    0.68
   5  -4   3    0.34    0.51
   5  -4   3    0.82    0.48
   5  -4   3    0.21    0.57
  -6   4  -3  152.47    5.13
   6  -4   3  155.65    5.17
   6  -4   3  153.72    5.09
   7  -4   3   49.21    2.66
   7   3  -3    1.13    0.78
   6   3  -3    6.26    0.77
   6   3  -3    6.95    0.96
   5   3  -3   11.06    0.71
   5   3  -3   12.78    0.83
   5   3  -3   10.40    1.09
   5   3  -3   12.80    1.28
   5   3  -3   11.64    0.88
   4   3  -3  119.61    3.84
   4   3  -3  114.18    3.69
   4   3  -3  113.62    3.57
   4   3  -3  111.47    3.75
   4   3  -3  109.89    3.77
   4   3  -3  114.04    3.53
  -4  -3   3  114.02    3.74
  -4  -3   3  116.83    3.80
   3   3  -3  177.52    5.45
   3   3  -3  186.86    5.60
   3   3  -3  180.45    5.63
   3   3  -3  188.46    5.57
   3   3  -3  185.00    5.58
   3   3  -3  184.81    5.46
  -3  -3   3  182.36    5.61
  -3  -3   3  182.62    5.55
  -3  -3   3  183.11    5.63
   2   3  -3   27.55    0.96
   2   3  -3   28.85    0.98
   2   3  -3   27.28    1.16
   2   3  -3   28.11    1.09
   2   3  -3   27.71    1.01
   2   3  -3   28.01    1.04
  -2  -3   3   27.88    1.14
  -2  -3   3   28.08    0.95
  -2  -3   3   26.88    1.13
  -2  -3   3   28.44    0.95
  -2  -3   3   28.85    1.08
   1   3  -3  454.09   13.49
   1   3  -3  488.20   13.52
   1   3  -3  445.03   13.53
   1   3  -3  448.42   13.63
  -1  -3   3  469.86   13.62
  -1  -3   3  478.34   13.50
  -1  -3   3  496.56   13.56
  -1  -3   3  478.94   13.63
   0   3  -3  300.91    9.16
   0   3  -3  293.82    9.07
   0   3  -3  306.37    9.08
   0   3  -3  321.07    9.12
   0  -3   3  330.18    9.10
   0  -3   3  318.41    9.18
   0  -3   3  319.66    9.10
   0  -3   3  311.38    9.08
  -1   3  -3  213.48    6.36
  -1   3  -3  212.71    6.40
  -1   3  -3  203.96    6.31
   1  -3   3  218.52    6.37
   1  -3   3  222.45    6.39
   1  -3   3  211.51    6.42
   1  -3   3  218.62    6.33
   1  -3   3  217.76    6.28
  -2   3  -3  476.20   14.07
  -2   3  -3  465.06   13.94
  -2   3  -3  474.97   14.09
  -2   3  -3  496.04   14.10
  -2   3  -3  482.46   14.03
   2  -3   3  505.79   14.08
   2  -3   3  491.03   14.06
   2  -3   3  476.78   14.08
   2  -3   3  474.97   14.03
   2  -3   3  504.83   14.08
  -3   3  -3    3.50    0.44
  -3   3  -3    3.88    0.48
  -3   3  -3    2.60    0.32
  -3   3  -3    3.37    0.45
  -3   3  -3    3.35    0.42
  -3   3  -3    3.74    0.58
   3  -3   3    3.07    0.48
   3  -3   3    2.92    0.42
   3  -3   3    4.02    0.53
   3  -3   3    3.34    0.54
   3  -3   3    3.84    0.41
  -4   3  -3   65.89    2.37
  -4   3  -3   66.39    2.45
  -4   3  -3   67.88    2.58
  -4   3  -3   67.88    2.34
   4  -3   3   70.64    2.24
   4  -3   3   67.80    2.61
   4  -3   3   65.20    2.43
   4  -3   3   69.51    2.41
   4  -3   3   68.86    2.41
  -5   3  -3   39.17    1.67
  -5   3  -3   39.42    1.93
   5  -3   3   40.10    1.54
   5  -3   3   40.10    2.29
   5  -3   3   36.75    1.80
   5  -3   3   38.93    1.69
  -6   3  -3    1.76    0.84
  -6   3  -3    2.18    0.62
   6  -3   3    1.46    0.65
   6  -3   3    1.80    0.65
  -7   3  -3    2.14    0.84
   7  -3   3    2.73    1.03
   7   2  -3   39.13    1.87
   6   2  -3   90.78    3.04
   6   2  -3   97.75    3.17
   5   2  -3  305.00    8.94
   5   2  -3  300.79    8.99
   5   2  -3  291.41    9.09
   5   2  -3  309.96    8.89
   5   2  -3  314.48    8.85
   5   2  -3  289.73    9.09
   5   2  -3  293.41    9.31
   4   2  -3    3.32    0.46
   4   2  -3    2.94    0.54
   4   2  -3    2.94    0.37
   4   2  -3    4.12    0.40
   4   2  -3    3.02    0.49
   4   2  -3    2.90    0.44
   4   2  -3    2.84    0.47
   3   2  -3  132.67    3.98
   3   2  -3  129.95    4.16
   3   2  -3  135.54    4.12
   3   2  -3  137.20    4.06
   3   2  -3  128.20    4.05
   3   2  -3  132.67    4.00
  -3  -2   3  131.67    4.11
  -3  -2   3  127.17    4.06
   2   2  -3   17.90    0.81
   2   2  -3   16.43    0.68
   2   2  -3   16.42    0.59
   2   2  -3   16.30    0.78
   2   2  -3   16.28    0.71
   2   2  -3   16.44    0.70
  -2  -2   3   16.44    0.76
  -2  -2   3   16.59    0.71
   1   2  -3   22.15    0.83
   1   2  -3   22.04    0.79
   1   2  -3   23.34    0.84
   1   2  -3   21.79    0.94
   1   2  -3   23.76    0.82
  -1  -2   3   23.51    0.85
  -1  -2   3   21.45    0.83
  -1  -2   3   22.94    0.93
  -1  -2   3   22.30    0.79
   0   2  -3   21.12    0.80
   0   2  -3   22.27    0.76
   0   2  -3   21.41    0.86
   0   2  -3   21.00    0.80
   0   2  -3   22.00    0.83
   0  -2   3   20.69    0.85
   0  -2   3   23.88    0.83
   0  -2   3   21.43    0.80
   0  -2   3   22.20    0.81
   0  -2   3   20.42    0.90
  -1   2  -3   67.82    2.22
  -1   2  -3   68.31    2.19
  -1   2  -3   65.08    2.13
  -1   2  -3   67.57    2.18
  -1   2  -3   72.59    2.24
   1  -2   3   68.65    2.19
   1  -2   3   73.94    2.24
   1  -2   3   67.74    2.21
   1  -2   3   69.08    2.14
  -2   2  -3  112.33    3.48
  -2   2  -3  105.55    3.32
  -2   2  -3  109.31    3.46
  -2   2  -3  110.81    3.52
  -2   2  -3  108.59    3.43
   2  -2   3  112.73    3.53
   2  -2   3  113.79    3.35
   2  -2   3  117.68    3.48
   2  -2   3  111.38    3.46
   2  -2   3  111.42    3.46
  -3   2  -3   41.43    1.56
  -3   2  -3   41.81    1.57
  -3   2  -3   42.82    1.68
  -3   2  -3   38.57    1.35
  -3   2  -3   38.92    1.49
  -3   2  -3   42.54    1.52
   3  -2   3   42.13    1.54
   3  -2   3   42.03    1.55
   3  -2   3   41.60    1.56
   3  -2   3   43.44    1.69
   3  -2   3   42.41    1.40
  -4   2  -3  222.93    6.68
  -4   2  -3  214.05    6.74
  -4   2  -3  216.90    6.99
  -4   2  -3  220.17    6.71
   4  -2   3  218.63    6.74
   4  -2   3  235.23    6.77
   4  -2   3  226.56    6.52
   4  -2   3  224.90    6.74
   4  -2   3  218.90    7.00
  -5   2  -3  215.16    7.05
  -5   2  -3  217.85    6.56
  -5   2  -3  219.85    6.65
   5  -2   3  218.89    7.39
   5  -2   3  218.14    6.67
   5  -2   3  209.38    6.67
  -6   2  -3   20.41    1.72
  -6   2  -3   22.77    1.33
   6  -2   3   22.55    1.38
   6  -2   3   21.79    1.41
  -7   2  -3  126.28    4.35
   7  -2   3  121.02    4.45
   7   1  -3    0.99    0.66
   7   1  -3    0.85    0.58
   6   1  -3   15.19    1.22
   6   1  -3   15.37    0.91
   6   1  -3   16.98    0.96
   5   1  -3  214.70    6.51
   5   1  -3  210.45    6.91
   5   1  -3  220.76    6.39
   5   1  -3  211.74    6.63
   5   1  -3  215.92    6.60
   5   1  -3  212.60    6.50
   5   1  -3  216.62    6.42
   4   1  -3    1.22    0.37
   4   1  -3    0.77    0.29
   4   1  -3    0.62    0.21
   4   1  -3    0.79    0.20
   4   1  -3    0.72    0.32
   4   1  -3    1.54    0.31
  -4  -1   3    0.28    0.23
   3   1  -3  584.03   16.51
   3   1  -3  550.93   16.47
   3   1  -3  540.73   16.70
   3   1  -3  588.83   16.52
   3   1  -3  593.88   16.54
  -3  -1   3  585.98   16.56
  -3  -1   3  576.34   16.52
   2   1  -3  185.55    5.48
   2   1  -3  185.74    5.58
   2   1  -3  193.97    5.60
   2   1  -3  200.94    5.62
   2   1  -3  185.72    5.70
   2   1  -3  186.97    5.67
   2   1  -3  187.91    5.55
  -2  -1   3  184.29    5.55
  -2  -1   3  195.51    5.61
  -2  -1   3  197.38    5.67
   1   1  -3  144.93    4.37
   1   1  -3  148.93    4.39
   1   1  -3  150.20    4.39
   1   1  -3  155.21    4.42
   1   1  -3  146.26    4.41
  -1  -1   3  153.15    4.41
  -1  -1   3  151.34    4.53
   0  -1   3  724.70   20.61
   0  -1   3  722.92   20.64
  -1   1  -3    7.39    0.41
  -1   1  -3    6.76    0.34
  -1   1  -3    6.64    0.44
  -1   1  -3    7.66    0.42
  -1   1  -3    6.81    0.41
   1  -1   3    6.71    0.39
   1  -1   3    7.45    0.42
   1  -1   3    6.79    0.35
   1  -1   3    7.59    0.41
  -2   1  -3   60.38    2.00
  -2   1  -3   69.87    2.18
  -2   1  -3   66.09    2.15
  -2   1  -3   65.85    2.30
  -2   1  -3   68.65    2.17
   2  -1   3   66.31    2.16
   2  -1   3   67.86    2.18
   2  -1   3   68.39    2.16
   2  -1   3   66.14    2.02
  -3   1  -3   20.84    0.95
  -3   1  -3   19.09    1.05
  -3   1  -3   19.38    0.88
  -3   1  -3   20.43    0.92
  -3   1  -3   18.68    0.83
   3  -1   3   20.55    1.09
   3  -1   3   19.12    0.89
   3  -1   3   21.43    0.93
   3  -1   3   19.82    1.02
   3  -1   3   20.15    0.91
  -4   1  -3   37.51    1.59
  -4   1  -3   40.18    1.80
  -4   1  -3   39.30    1.47
   4  -1   3   37.98    1.83
   4  -1   3   40.84    1.54
   4  -1   3   38.85    1.54
   4  -1   3   39.20    1.54
   4  -1   3   36.61    1.75
  -5   1  -3    0.58    0.32
  -5   1  -3    0.11    0.48
  -5   1  -3   -0.32    0.44
   5  -1   3    0.52    0.43
  -6   1  -3   10.60    0.97
  -6   1  -3    7.51    1.36
   6  -1   3    9.91    1.11
   6  -1   3    9.66    1.10
  -7   1  -3   27.72    1.78
   7  -1   3   27.70    1.95
   7   0  -3   87.73    3.02
   7   0  -3   84.37    3.00
  -7   0   3   89.52    3.17
   6   0  -3   12.87    1.26
   6   0  -3   12.45    0.82
   6   0  -3   13.95    1.12
  -6   0   3   13.40    0.93
   5   0  -3   49.17    1.80
   5   0  -3   47.37    1.62
   5   0  -3   47.69    1.84
   5   0  -3   47.70    1.82
   5   0  -3   47.42    1.94
   5   0  -3   43.02    2.14
  -5   0   3   48.06    1.78
  -5   0   3   50.15    1.78
   4   0  -3   84.10    2.60
   4   0  -3   87.31    2.77
   4   0  -3   87.21    2.82
   4   0  -3   85.87    2.79
   4   0  -3   85.97    2.78
   4   0  -3   81.21    3.05
  -4   0   3   87.94    2.77
  -4   0   3   86.23    2.78
   3   0  -3    2.08    0.32
   3   0  -3    1.88    0.28
   3   0  -3    1.81    0.30
   3   0  -3    1.27    0.23
   3   0  -3    2.02    0.39
  -3   0   3    2.10    0.29
  -3   0   3    1.97    0.27
  -3   0   3    1.91    0.30
   2   0  -3  135.09    4.00
   2   0  -3  135.64    4.06
   2   0  -3  139.49    4.09
   2   0  -3  128.74    3.98
   2   0  -3  135.29    3.98
  -2   0   3  136.67    4.08
  -2   0   3  137.01    4.09
  -2   0   3  138.93    3.97
  -2   0   3  140.83    3.99
   1   0  -3   11.80    0.49
   1   0  -3   11.19    0.47
   1   0  -3   11.15    0.47
  -1   0   3   12.17    0.49
  -1   0   3   11.21    0.47
   0   0  -3  474.77   13.65
   0   0   3  481.59   13.65
   0   0   3  472.55   13.59
   0   0   3  474.97   13.64
  -1   0  -3   75.02    2.29
  -1   0  -3   70.96    2.17
  -1   0  -3   67.66    2.27
  -1   0  -3   73.29    2.26
   1   0   3   77.73    2.30
   1   0   3   73.11    2.24
   1   0   3   70.99    2.25
  -2   0  -3  401.63   12.04
  -2   0  -3  415.41   11.80
  -2   0  -3  414.78   11.80
  -2   0  -3  411.29   11.80
   2   0   3  413.47   11.83
   2   0   3  391.88   11.93
   2   0   3  391.47   11.78
   2   0   3  419.16   11.81
  -3   0  -3  348.44   10.32
  -3   0  -3  350.14   10.67
  -3   0  -3  354.14   10.35
  -3   0  -3  337.33   10.25
  -3   0  -3  358.01   10.38
   3   0   3  358.06   10.37
   3   0   3  348.13   10.37
   3   0   3  364.24   10.36
   3   0   3  367.71   10.46
  -4   0  -3   40.37    1.41
  -4   0  -3   38.17    1.47
  -4   0  -3   36.23    1.79
  -4   0  -3   39.29    1.58
   4   0   3   38.10    1.51
   4   0   3   34.86    1.71
   4   0   3   38.87    1.52
   4   0   3   37.72    1.49
  -5   0  -3  208.43    6.46
  -5   0  -3  211.80    7.09
  -5   0  -3  222.48    6.49
   5   0   3  212.01    6.54
   5   0   3  211.69    6.58
   5   0   3  217.94    6.63
  -6   0  -3   27.35    2.00
  -6   0  -3   28.24    1.42
   6   0   3   29.24    1.59
   6   0   3   26.36    1.54
  -7   0  -3   11.10    1.52
   7   0   3   12.91    1.85
  -7   1   3   96.80    3.47
   6  -1  -3    6.15    0.81
  -6   1   3    6.20    0.76
  -6   1   3    5.33    0.68
   5  -1  -3  256.98    7.54
   5  -1  -3  255.01    7.71
   5  -1  -3  246.25    7.61
   5  -1  -3  219.54    8.06
  -5   1   3  267.61    7.63
  -5   1   3  270.77    7.62
   4  -1  -3  183.10    5.60
   4  -1  -3  183.06    5.96
   4  -1  -3  185.77    5.65
   4  -1  -3  189.32    5.44
   4  -1  -3  182.08    5.55
  -4   1   3  190.98    5.63
  -4   1   3  184.83    5.61
   3  -1  -3   66.38    2.07
   3  -1  -3   68.66    2.17
   3  -1  -3   64.70    2.06
  -3   1   3   67.05    2.07
  -3   1   3   68.47    2.07
  -3   1   3   66.68    2.19
  -3   1   3   65.19    2.16
  -3   1   3   66.39    2.05
   2  -1  -3  407.08   11.66
   2  -1  -3  399.46   11.63
   2  -1  -3  395.69   11.63
  -2   1   3  403.89   11.70
  -2   1   3  424.43   11.64
  -2   1   3  399.18   11.66
   1  -1  -3  132.93    3.91
   1  -1  -3  134.37    3.96
   1  -1  -3  132.85    3.95
  -1   1   3  129.74    3.96
  -1   1   3  131.98    3.95
  -1   1   3  135.11    3.94
   0  -1  -3  107.96    3.16
   0  -1  -3  101.30    3.13
   0  -1  -3  101.80    3.05
   0  -1  -3  103.99    3.06
   0   1   3  100.06    3.14
   0   1   3  101.77    3.06
   0   1   3  107.04    3.14
  -1  -1  -3  124.04    3.64
  -1  -1  -3  122.71    3.68
  -1  -1  -3  118.76    3.64
   1   1   3  124.56    3.65
   1   1   3  122.00    3.67
   1   1   3  116.79    3.63
   1   1   3  118.77    3.68
  -2  -1  -3    0.99    0.23
  -2  -1  -3    1.20    0.35
  -2  -1  -3    0.87    0.23
  -2  -1  -3    1.43    0.26
   2   1   3    1.63    0.27
   2   1   3    1.27    0.30
   2   1   3    0.71    0.20
  -3  -1  -3   70.72    2.67
  -3  -1  -3   68.34    2.31
  -3  -1  -3   70.66    2.37
  -3  -1  -3   72.55    2.20
  -3  -1  -3   65.56    2.33
   3   1   3   71.89    2.36
   3   1   3   68.78    2.32
   3   1   3   72.15    2.37
   3   1   3   71.37    2.46
  -4  -1  -3    4.32    0.77
  -4  -1  -3    4.22    0.62
  -4  -1  -3    4.44    0.44
   4   1   3    3.34    0.51
   4   1   3    3.35    0.86
   4   1   3    4.07    0.54
   4   1   3    4.07    0.54
  -5  -1  -3  168.68    5.88
  -5  -1  -3  167.67    5.24
  -5  -1  -3  172.95    5.16
   5   1   3  173.69    5.40
   5   1   3  163.13    5.32
   5   1   3  169.50    5.26
  -6  -1  -3   10.92    0.99
  -6  -1  -3   10.69    1.73
   6   1   3    8.57    1.22
   6   1   3   10.53    1.18
  -7   2   3    9.03    1.18
  -7   2   3    8.13    1.28
   6  -2  -3    5.84    0.78
  -6   2   3    5.78    0.86
  -6   2   3    4.93    0.79
   5  -2  -3   46.87    1.93
   5  -2  -3   51.41    1.74
  -5   2   3   53.33    1.95
  -5   2   3   52.42    1.93
   4  -2  -3   62.84    2.00
   4  -2  -3   59.06    2.49
   4  -2  -3   61.12    2.11
   4  -2  -3   61.30    2.01
  -4   2   3   61.95    1.96
  -4   2   3   59.56    2.03
  -4   2   3   60.72    2.10
  -4   2   3   60.65    2.12
   3  -2  -3   27.01    1.01
   3  -2  -3   26.19    1.00
   3  -2  -3   26.49    1.04
  -3   2   3   26.24    1.02
  -3   2   3   25.79    1.10
  -3   2   3   25.54    1.06
  -3   2   3   27.46    1.04
   2  -2  -3  373.92   10.96
   2  -2  -3  377.37   10.98
  -2   2   3  394.05   10.97
  -2   2   3  378.20   10.96
  -2   2   3  379.00   11.02
  -2   2   3  372.39   10.95
   1  -2  -3  111.10    3.30
   1  -2  -3  107.65    3.20
   1  -2  -3  105.38    3.30
  -1   2   3  111.99    3.30
  -1   2   3  102.37    3.31
   0  -2  -3  323.84    9.53
   0  -2  -3  334.36    9.58
   0  -2  -3  321.79    9.58
   0   2   3  342.36    9.58
   0   2   3  329.90    9.59
   0   2   3  324.53    9.49
  -1  -2  -3  470.04   13.23
  -1  -2  -3  445.51   13.25
  -1  -2  -3  448.38   13.22
   1   2   3  471.57   13.26
   1   2   3  453.86   13.25
   1   2   3  462.20   13.24
   1   2   3  452.89   13.19
  -2  -2  -3   15.98    0.77
  -2  -2  -3   15.35    1.00
  -2  -2  -3   15.47    0.80
   2   2   3   16.14    0.79
   2   2   3   17.07    0.87
   2   2   3   15.44    0.75
   2   2   3   16.43    0.78
  -3  -2  -3  320.63    9.48
  -3  -2  -3  307.36    9.89
  -3  -2  -3  321.96    9.60
   3   2   3  328.76    9.51
   3   2   3  321.17    9.60
   3   2   3  333.56    9.47
   3   2   3  315.31    9.49
  -4  -2  -3   76.63    2.63
   4   2   3   75.09    2.85
   4   2   3   79.97    2.63
   4   2   3   74.72    2.81
  -5  -2  -3   40.04    2.28
   5   2   3   41.15    1.79
   5   2   3   42.39    1.85
  -6  -2  -3    5.85    1.33
   6   2   3    6.58    0.98
   6   2   3    6.23    0.87
   7  -3  -3   90.95    3.02
  -7   3   3   91.80    3.41
  -7   3   3   87.99    3.34
   6  -3  -3  163.98    5.03
   6  -3  -3  159.60    5.14
  -6   3   3  160.03    5.93
  -6   3   3  170.17    5.28
   5  -3  -3   18.65    0.93
   5  -3  -3   18.65    1.03
  -5   3   3   18.20    1.02
  -5   3   3   19.53    0.96
  -5   3   3   19.11    1.06
   4  -3  -3  295.59    8.96
   4  -3  -3  298.01    8.91
   4  -3  -3  299.39    9.42
   4  -3  -3  308.96    8.93
  -4   3   3  304.22    8.98
  -4   3   3  300.69    9.01
  -4   3   3  310.90    8.88
   3  -3  -3    5.51    0.48
   3  -3  -3    5.61    0.47
   3  -3  -3    5.09    0.46
  -3   3   3    5.76    0.55
  -3   3   3    5.17    0.50
  -3   3   3    5.67    0.48
  -3   3   3    5.11    0.45
   2  -3  -3    6.75    0.43
   2  -3  -3    7.11    0.49
   2  -3  -3    6.08    0.48
  -2   3   3    7.47    0.43
  -2   3   3    6.66    0.53
   1  -3  -3   25.22    1.06
   1  -3  -3   26.61    0.92
   1  -3  -3   27.16    1.06
  -1   3   3   26.33    1.06
  -1   3   3   26.83    1.07
  -1   3   3   26.40    0.93
   0  -3  -3  118.59    3.66
   0  -3  -3  117.31    3.64
   0  -3  -3  116.92    3.63
   0   3   3  113.87    3.53
   0   3   3  115.73    3.63
   0   3   3  120.66    3.66
  -1  -3  -3   11.58    0.66
  -1  -3  -3   10.33    0.63
  -1  -3  -3   10.61    0.64
  -1  -3  -3   11.10    0.49
   1   3   3   10.44    0.64
   1   3   3   10.59    0.63
   1   3   3   10.23    0.56
  -2  -3  -3    2.51    0.39
  -2  -3  -3    3.57    0.61
  -2  -3  -3    2.98    0.47
  -2  -3  -3    3.64    0.43
   2   3   3    2.48    0.36
   2   3   3    3.03    0.54
   2   3   3    3.29    0.50
   2   3   3    2.38    0.38
  -3  -3  -3  157.29    4.74
  -3  -3  -3  144.34    5.16
  -3  -3  -3  149.67    4.84
   3   3   3  151.99    4.76
   3   3   3  154.15    4.70
   3   3   3  145.29    4.90
   3   3   3  155.17    4.76
  -4  -3  -3  121.09    4.04
  -4  -3  -3  124.43    4.59
   4   3   3  127.57    4.12
   4   3   3  128.69    4.09
   4   3   3  122.02    4.00
  -5  -3  -3   66.32    3.11
   5   3   3   60.51    2.46
   5   3   3   65.48    2.56
  -6  -3  -3  149.23    6.28
   7  -4  -3   10.23    1.18
  -7   4   3   11.21    1.46
  -7   4   3   11.13    1.54
   6  -4  -3   53.81    2.08
  -6   4   3   53.10    2.24
  -6   4   3   53.94    2.24
   5  -4  -3    5.88    0.85
   5  -4  -3    5.20    0.69
  -5   4   3    6.77    0.73
  -5   4   3    5.02    0.77
  -5   4   3    5.34    0.80
   4  -4  -3  259.96    7.85
   4  -4  -3  257.79    7.85
  -4   4   3  260.23    7.91
  -4   4   3  265.69    7.86
  -4   4   3  263.79    7.81
   3  -4  -3  107.44    3.42
   3  -4  -3  107.41    3.36
   3  -4  -3  108.17    3.44
  -3   4   3  102.48    3.43
  -3   4   3  105.98    3.44
  -3   4   3  107.47    3.36
  -3   4   3  101.47    3.90
   2  -4  -3  192.53    5.75
   2  -4  -3  199.67    5.72
   2  -4  -3  196.08    5.87
   2  -4  -3  188.61    5.82
  -2   4   3  185.32    5.70
  -2   4   3  186.16    5.82
  -2   4   3  196.04    5.84
   1  -4  -3  453.80   12.45
   1  -4  -3  422.94   12.58
   1  -4  -3  427.43   12.53
  -1   4   3  416.38   12.55
  -1   4   3  428.52   12.53
  -1   4   3  428.48   12.35
   0  -4  -3   32.32    1.32
   0  -4  -3   33.56    1.19
   0  -4  -3   31.95    1.34
   0  -4  -3   31.63    1.29
   0   4   3   31.27    1.19
   0   4   3   31.96    1.31
   0   4   3   32.21    1.32
  -1  -4  -3  162.74    5.15
  -1  -4  -3  170.97    5.21
  -1  -4  -3  169.59    4.99
  -1  -4  -3  172.10    5.26
   1   4   3  166.38    5.11
   1   4   3  166.15    5.20
   1   4   3  168.40    5.17
  -2  -4  -3   60.45    2.26
  -2  -4  -3   57.66    2.14
  -2  -4  -3   59.57    2.57
   2   4   3   62.14    2.21
   2   4   3   62.91    2.17
   2   4   3   59.81    2.16
  -3  -4  -3    1.10    0.46
   3   4   3    0.26    0.41
   3   4   3    0.33    0.39
   3   4   3    1.42    0.42
  -4  -4  -3   29.79    1.69
  -4  -4  -3   27.41    1.89
   4   4   3   24.49    1.40
   4   4   3   26.99    1.46
  -5  -4  -3   17.94    2.02
   5   4   3   16.77    1.36
   5   4   3   18.34    1.48
  -7   5   3    0.48    1.09
   6  -5  -3   70.66    2.70
  -6   5   3   71.38    2.79
  -6   5   3   69.33    2.84
   5  -5  -3   52.89    2.10
  -5   5   3   51.63    2.08
  -5   5   3   51.33    2.16
   4  -5  -3   34.13    1.51
   4  -5  -3   34.00    1.55
  -4   5   3   33.20    1.87
  -4   5   3   30.97    1.58
   3  -5  -3    4.49    0.70
   3  -5  -3    4.53    0.63
  -3   5   3    5.63    0.69
  -3   5   3    5.72    0.55
   2  -5  -3    5.44    0.68
   2  -5  -3    6.32    0.66
   2  -5  -3    6.71    0.65
  -2   5   3    6.22    0.78
  -2   5   3    6.41    0.49
  -2   5   3    6.94    0.67
   1  -5  -3  145.07    4.61
   1  -5  -3  151.03    4.51
   1  -5  -3  147.19    4.76
   1  -5  -3  146.74    4.67
  -1   5   3  148.90    4.64
  -1   5   3  134.91    4.53
  -1   5   3  150.78    4.65
   0  -5  -3    0.53    0.33
   0  -5  -3    1.40    0.45
   0  -5  -3    0.85    0.40
   0  -5  -3    1.19    0.33
   0   5   3    1.21    0.41
   0   5   3    0.71    0.32
   0   5   3    1.27    0.31
  -1  -5  -3  227.11    7.02
  -1  -5  -3  233.21    7.12
  -1  -5  -3  220.87    6.94
  -1  -5  -3  230.55    6.78
   1   5   3  229.58    6.91
   1   5   3  229.73    6.96
   1   5   3  232.64    7.03
   1   5   3  226.22    6.97
  -2  -5  -3  133.22    4.92
  -2  -5  -3  139.70    4.52
  -2  -5  -3  141.94    4.63
   2   5   3  140.90    4.47
   2   5   3  134.01    4.46
   2   5   3  140.62    4.53
  -3  -5  -3   36.23    2.13
  -3  -5  -3   38.52    1.93
   3   5   3   38.52    1.73
   3   5   3   38.81    1.77
  -4  -5  -3  204.99    7.14
  -4  -5  -3  203.48    6.84
   4   5   3  209.07    6.64
   4   5   3  210.70    6.63
  -5  -5  -3    6.36    1.62
   6  -6  -3  132.25    4.88
  -6   6   3  126.01    4.60
  -6   6   3  132.53    4.55
   5  -6  -3   41.62    2.00
  -5   6   3   42.24    2.06
  -5   6   3   41.66    1.89
   4  -6  -3   48.12    2.09
  -4   6   3   50.31    2.07
  -4   6   3   46.88    2.08
  -4   6   3   49.24    1.93
   3  -6  -3  194.68    6.32
   3  -6  -3  207.07    6.40
  -3   6   3  203.87    6.16
  -3   6   3  203.31    6.33
   2  -6  -3    7.34    0.84
   2  -6  -3    7.87    0.94
  -2   6   3    8.84    0.63
  -2   6   3    9.09    0.88
   1  -6  -3  146.40    4.88
   1  -6  -3  145.43    4.69
   1  -6  -3  146.97    4.77
  -1   6   3  146.74    4.45
  -1   6   3  147.24    4.74
  -1   6   3  141.46    4.71
   0  -6  -3   68.17    2.56
   0  -6  -3   66.06    2.64
   0  -6  -3   66.27    2.38
   0   6   3   66.30    2.37
   0   6   3   67.63    2.52
   0   6   3   68.66    2.37
   0   6   3   67.94    2.55
  -1  -6  -3   13.44    1.10
  -1  -6  -3   13.05    0.99
  -1  -6  -3   12.92    1.26
   1   6   3   13.00    0.93
   1   6   3   13.29    1.24
   1   6   3   15.08    1.11
  -2  -6  -3    2.26    0.73
  -2  -6  -3    1.55    0.84
  -2  -6  -3    1.21    0.61
   2   6   3    0.38    0.45
   2   6   3    0.05    0.53
  -3  -6  -3   18.33    1.85
  -3  -6  -3   19.75    1.67
   3   6   3   18.81    1.38
   3   6   3   20.10    1.45
  -4  -6  -3   52.18    3.08
  -4  -6  -3   55.61    2.95
  -6   7   3    3.15    1.28
   5  -7  -3    0.87    0.82
  -5   7   3    1.10    0.83
  -5   7   3    0.43    0.67
   4  -7  -3   18.45    1.46
  -4   7   3   18.84    1.23
  -4   7   3   19.02    1.51
   3  -7  -3   45.80    2.13
  -3   7   3   47.11    1.86
  -3   7   3   47.58    2.14
   2  -7  -3   10.88    1.43
   2  -7  -3   11.15    1.21
  -2   7   3   10.72    1.12
  -2   7   3    9.77    0.77
  -2   7   3    9.22    1.29
   1  -7  -3  168.57    5.50
   1  -7  -3  167.13    5.63
  -1   7   3  163.24    5.45
   0  -7  -3  149.61    4.91
   0  -7  -3  143.59    4.99
   0   7   3  133.28    4.60
   0   7   3  148.53    4.64
   0   7   3  135.29    4.85
   0   7   3  156.16    4.90
  -1  -7  -3   20.14    1.69
  -1  -7  -3   21.73    1.54
   1   7   3   22.03    1.51
   1   7   3   21.77    1.32
  -2  -7  -3  170.17    5.91
  -2  -7  -3  181.22    6.20
   2   7   3  165.21    5.58
   2   7   3  169.43    5.75
  -3  -7  -3   34.27    2.43
  -3  -7  -3   33.74    2.61
   3   7   3   32.54    2.02
  -5   8   3  121.86    4.61
   4  -8  -3    0.15    0.88
  -4   8   3   -0.01    0.69
  -4   8   3   -0.60    0.88
   3  -8  -3   23.38    1.78
  -3   8   3   22.56    1.37
   2  -8  -3   28.60    2.18
   2  -8  -3   30.42    1.95
  -2   8   3   33.90    2.02
   1  -8  -3    2.06    0.84
   1  -8  -3    3.25    1.12
  -1   8   3    3.07    0.86
   0  -8  -3    5.44    1.22
   0   8   3    4.51    0.78
   0   8   3    3.57    0.94
  -1  -8  -3    8.46    1.51
   1   8   3    7.21    1.15
   1   8   3    9.95    1.31
  -2  -8  -3   35.29    2.76
  -2  -8  -3   32.80    3.15
   3  -9  -3   79.22    3.65
   2  -9  -3  124.12    4.93
   2  -9  -3  117.70    4.74
   1  -9  -3   26.52    2.58
  -1   9   3   24.36    1.76
  -1   9   3   23.99    2.33
   0   9   3  105.71    3.89
   0   9   3  106.08    4.47
   2  10  -4  145.60    4.87
   1  10  -4   25.14    1.62
   1  10  -4   24.37    2.07
   0  10  -4   55.37    2.40
   0  10  -4   56.53    2.74
   0 -10   4   56.09    3.59
  -1  10  -4   85.29    3.16
  -1  10  -4   87.53    3.53
   1 -10   4   85.51    4.83
  -2  10  -4    1.93    1.00
  -2  10  -4    1.42    0.74
  -3  10  -4   26.88    2.14
   3 -10   4   17.88    2.26
   3   9  -4   12.08    1.26
   3   9  -4   11.88    1.86
  -3  -9   4    6.80    1.68
   2   9  -4    1.88    0.63
   2   9  -4    3.36    0.86
   1   9  -4    2.13    0.71
   1   9  -4    3.12    0.66
  -1  -9   4    3.33    1.36
   0   9  -4    5.62    0.77
   0   9  -4    4.16    0.76
   0  -9   4    3.13    0.91
   0  -9   4    3.85    1.32
  -1   9  -4  119.57    4.19
  -1   9  -4  120.88    3.94
  -1   9  -4  115.01    3.98
   1  -9   4  113.28    4.21
  -2   9  -4    9.51    1.10
  -2   9  -4   10.86    1.10
  -2   9  -4    9.85    1.32
   2  -9   4   10.68    1.68
  -3   9  -4  161.60    5.37
  -3   9  -4  157.69    5.22
   3  -9   4  145.29    5.35
   4  -9   4   46.12    2.65
   4   8  -4   89.10    3.02
   4   8  -4   82.77    3.17
   3   8  -4   70.34    2.70
   3   8  -4   69.79    2.52
  -3  -8   4   68.10    3.33
   2   8  -4   33.20    1.49
   2   8  -4   35.15    1.69
  -2  -8   4   29.19    2.21
   1   8  -4  210.01    6.61
   1   8  -4  213.25    6.42
   1   8  -4  216.87    6.58
  -1  -8   4  192.99    6.80
  -1  -8   4  211.19    6.98
  -1  -8   4  200.50    6.53
   0   8  -4    1.33    0.51
   0   8  -4    0.45    0.68
   0   8  -4    1.80    0.50
   0  -8   4    0.91    0.57
   0  -8   4    0.67    0.98
   0  -8   4    1.79    0.53
  -1   8  -4   49.61    2.42
  -1   8  -4   52.15    2.04
   1  -8   4   51.72    2.03
   1  -8   4   52.42    2.27
  -2   8  -4   31.92    1.52
  -2   8  -4   32.72    1.68
  -2   8  -4   33.30    1.55
   2  -8   4   29.98    1.43
   2  -8   4   30.88    1.73
  -3   8  -4    1.49    0.68
  -3   8  -4    1.97    0.55
   3  -8   4    0.87    0.72
  -4   8  -4    5.76    0.94
   4  -8   4    5.33    1.01
   5  -8   4    1.40    1.07
   5   7  -4    7.04    1.17
  -5  -7   4    3.62    1.52
   4   7  -4   10.87    0.94
   4   7  -4   12.05    1.04
  -4  -7   4    9.03    1.37
   3   7  -4   22.52    1.31
   3   7  -4   22.98    1.31
   3   7  -4   26.09    1.28
   3   7  -4   25.52    1.21
  -3  -7   4   22.74    1.36
  -3  -7   4   22.13    1.83
   2   7  -4   67.18    2.53
   2   7  -4   73.87    2.54
   2   7  -4   71.95    2.46
  -2  -7   4   64.00    2.90
   1   7  -4  137.39    4.19
   1   7  -4  128.82    4.41
   1   7  -4  119.84    4.42
   1   7  -4  131.22    4.28
  -1  -7   4  130.24    4.65
  -1  -7   4  129.95    4.35
  -1  -7   4  136.46    4.34
   0   7  -4    6.20    0.90
   0   7  -4    7.38    0.73
   0   7  -4    7.15    0.65
   0  -7   4    8.21    0.81
   0  -7   4    7.29    0.85
  -1   7  -4  114.66    3.87
  -1   7  -4  113.25    3.74
   1  -7   4  110.12    3.77
   1  -7   4  112.27    3.63
   1  -7   4  105.89    3.75
  -2   7  -4  284.27    8.33
  -2   7  -4  266.05    8.20
  -2   7  -4  251.98    8.39
   2  -7   4  270.49    8.35
   2  -7   4  283.51    8.37
   2  -7   4  272.07    8.11
  -3   7  -4   50.33    2.03
  -3   7  -4   48.81    1.93
  -3   7  -4   46.68    2.02
   3  -7   4   48.94    1.96
   3  -7   4   47.77    1.82
   3  -7   4   43.61    2.13
   3  -7   4   46.47    2.28
  -4   7  -4  170.80    5.61
  -4   7  -4  170.01    5.63
   4  -7   4  174.46    5.70
  -5   7  -4    7.11    1.03
   5  -7   4    7.14    1.08
   6   6  -4  136.26    4.73
  -6  -6   4  127.23    5.23
   5   6  -4   71.24    2.47
   5   6  -4   67.50    2.78
  -5  -6   4   70.63    3.23
   4   6  -4   30.22    1.48
   4   6  -4   33.08    1.37
   4   6  -4   31.96    1.35
   4   6  -4   31.19    1.34
  -4  -6   4   31.89    1.91
   3   6  -4  208.04    6.18
   3   6  -4  198.44    6.14
   3   6  -4  209.56    6.17
   3   6  -4  189.00    6.13
  -3  -6   4  206.75    6.71
  -3  -6   4  201.69    6.08
  -3  -6   4  206.08    6.30
   2   6  -4    4.76    0.65
   2   6  -4    4.69    0.57
   2   6  -4    5.31    0.54
   2   6  -4    5.02    0.79
  -2  -6   4    5.08    0.77
  -2  -6   4    4.34    0.69
  -2  -6   4    6.27    0.75
  -2  -6   4    6.40    0.91
   1   6  -4   55.58    2.24
   1   6  -4   57.17    2.03
   1   6  -4   55.16    2.06
   1   6  -4   57.18    2.00
  -1  -6   4   57.38    2.06
  -1  -6   4   57.33    2.12
  -1  -6   4   52.58    2.00
  -1  -6   4   56.11    2.11
  -1  -6   4   55.22    2.32
   0   6  -4   35.56    1.46
   0   6  -4   35.42    1.53
   0   6  -4   34.66    1.41
   0  -6   4   35.50    1.52
   0  -6   4   37.00    1.52
   0  -6   4   35.22    1.49
   0  -6   4   35.97    1.50
  -1   6  -4   27.90    1.26
  -1   6  -4   28.03    1.21
  -1   6  -4   29.09    1.40
   1  -6   4   28.62    1.28
   1  -6   4   28.30    1.36
   1  -6   4   27.93    1.33
  -2   6  -4    5.96    0.84
  -2   6  -4    7.29    0.62
  -2   6  -4    7.03    0.68
  -2   6  -4    5.27    0.71
   2  -6   4    7.32    0.90
   2  -6   4    6.39    0.75
   2  -6   4    7.09    0.84
   2  -6   4    7.07    0.78
   2  -6   4    6.47    0.60
  -3   6  -4   10.96    0.89
  -3   6  -4   12.14    0.90
  -3   6  -4   10.56    0.78
   3  -6   4   11.89    0.93
   3  -6   4   11.95    0.99
   3  -6   4   11.34    0.95
   3  -6   4   11.96    1.21
  -4   6  -4   77.14    2.89
  -4   6  -4   84.57    2.98
   4  -6   4   77.85    3.14
   4  -6   4   74.91    3.03
   4  -6   4   80.72    2.79
   4  -6   4   80.74    2.96
  -5   6  -4   68.63    2.73
   5  -6   4   65.34    2.55
   5  -6   4   63.21    2.72
   5  -6   4   65.16    2.78
   6  -6   4   47.33    2.59
   7   5  -4   21.40    2.24
   6   5  -4    9.35    1.33
   5   5  -4    9.88    0.84
   5   5  -4    8.49    0.97
   5   5  -4    8.34    1.12
  -5  -5   4   10.33    1.45
   4   5  -4    5.53    0.77
   4   5  -4    5.60    0.62
  -4  -5   4    5.50    0.86
   3   5  -4  399.04   11.49
   3   5  -4  376.59   11.40
   3   5  -4  372.44   11.46
   3   5  -4  380.36   11.40
  -3  -5   4  393.71   11.73
  -3  -5   4  411.51   11.80
  -3  -5   4  414.00   11.57
   2   5  -4   23.60    1.01
   2   5  -4   23.66    1.02
   2   5  -4   22.92    0.98
   2   5  -4   22.70    1.25
  -2  -5   4   22.77    1.15
  -2  -5   4   24.46    1.19
  -2  -5   4   21.81    0.98
  -2  -5   4   22.25    1.25
  -2  -5   4   23.86    1.01
   1   5  -4  354.28   10.54
   1   5  -4  361.62   10.55
   1   5  -4  359.20   10.57
   1   5  -4  351.16   10.73
  -1  -5   4  340.61   10.75
  -1  -5   4  378.85   10.60
  -1  -5   4  368.79   10.68
  -1  -5   4  361.71   10.55
  -1  -5   4  363.56   10.52
   0   5  -4  238.09    7.29
   0   5  -4  244.57    7.31
   0   5  -4  236.04    7.34
   0   5  -4  240.61    7.43
   0  -5   4  250.08    7.31
   0  -5   4  256.85    7.34
   0  -5   4  240.58    7.32
   0  -5   4  251.61    7.39
  -1   5  -4   20.85    1.16
  -1   5  -4   21.28    0.97
  -1   5  -4   18.74    1.04
  -1   5  -4   19.56    0.92
   1  -5   4   19.45    1.02
   1  -5   4   19.34    1.01
   1  -5   4   20.63    0.99
   1  -5   4   20.76    1.02
  -2   5  -4  203.02    6.51
  -2   5  -4  215.58    6.43
  -2   5  -4  205.18    6.55
  -2   5  -4  204.90    6.34
   2  -5   4  217.77    6.32
   2  -5   4  217.72    6.44
   2  -5   4  210.28    6.46
   2  -5   4  209.29    6.38
   2  -5   4  212.19    6.46
  -3   5  -4   74.93    2.64
  -3   5  -4   70.42    2.81
  -3   5  -4   75.38    2.55
  -3   5  -4   71.37    2.80
   3  -5   4   75.59    2.75
   3  -5   4   75.65    2.60
   3  -5   4   77.93    2.76
   3  -5   4   79.15    2.69
   3  -5   4   79.82    2.72
  -4   5  -4   34.69    1.60
  -4   5  -4   35.48    1.56
   4  -5   4   33.44    1.57
   4  -5   4   35.60    1.65
   4  -5   4   34.48    1.76
   4  -5   4   32.09    1.85
  -5   5  -4   14.93    1.25
   5  -5   4   17.96    1.37
   5  -5   4   15.69    1.33
  -6   5  -4   21.61    1.65
   6  -5   4   20.18    1.66
   6  -5   4   21.26    1.82
   7   4  -4   84.31    3.35
   6   4  -4    9.07    0.95
   6   4  -4    9.50    1.11
   5   4  -4  163.87    4.94
   5   4  -4  162.22    5.04
   5   4  -4  153.96    5.28
   5   4  -4  152.20    4.99
  -5  -4   4  163.81    5.32
   4   4  -4   27.47    1.43
   4   4  -4   30.09    1.42
   4   4  -4   29.83    1.30
   4   4  -4   30.41    1.54
   4   4  -4   31.91    2.03
   4   4  -4   30.13    1.25
  -4  -4   4   31.06    1.50
   3   4  -4   52.19    1.69
   3   4  -4   49.87    2.04
   3   4  -4   52.38    1.82
   3   4  -4   52.26    1.82
   3   4  -4   51.14    1.72
   3   4  -4   50.47    1.83
   3   4  -4   48.62    1.90
  -3  -4   4   54.19    1.89
  -3  -4   4   52.81    1.99
  -3  -4   4   52.75    2.01
   2   4  -4   48.84    1.76
   2   4  -4   51.42    1.82
   2   4  -4   51.30    1.70
   2   4  -4   49.48    1.72
   2   4  -4   49.34    1.94
  -2  -4   4   52.00    1.70
  -2  -4   4   51.90    1.92
  -2  -4   4   50.48    1.69
  -2  -4   4   52.89    1.82
  -2  -4   4   51.29    1.90
   1   4  -4    6.04    0.45
   1   4  -4    6.20    0.48
   1   4  -4    6.30    0.44
   1   4  -4    6.29    0.66
   1   4  -4    6.01    0.57
  -1  -4   4    6.07    0.58
  -1  -4   4    6.01    0.55
  -1  -4   4    6.75    0.62
  -1  -4   4    5.30    0.46
  -1  -4   4    6.49    0.48
   0   4  -4  118.11    3.66
   0   4  -4  115.19    3.64
   0   4  -4  114.61    3.75
   0   4  -4  116.49    3.70
   0  -4   4  113.99    3.70
   0  -4   4  120.98    3.67
   0  -4   4  120.87    3.67
   0  -4   4  119.73    3.76
  -1   4  -4    7.06    0.61
  -1   4  -4    6.45    0.66
  -1   4  -4    7.02    0.52
  -1   4  -4    7.12    0.42
  -1   4  -4    7.86    0.50
   1  -4   4    7.72    0.58
   1  -4   4    7.62    0.66
   1  -4   4    6.58    0.54
   1  -4   4    7.30    0.58
   1  -4   4    7.89    0.64
  -2   4  -4  443.74   13.84
  -2   4  -4  453.55   13.72
  -2   4  -4  451.77   13.68
  -2   4  -4  464.05   13.84
  -2   4  -4  484.41   13.78
   2  -4   4  492.90   13.72
   2  -4   4  495.12   13.82
   2  -4   4  491.55   13.75
   2  -4   4  469.56   13.87
   2  -4   4  477.14   13.86
  -3   4  -4   89.93    3.04
  -3   4  -4   84.33    3.12
  -3   4  -4   88.89    2.91
  -3   4  -4   90.66    3.11
  -3   4  -4   93.22    3.18
   3  -4   4   95.89    3.14
   3  -4   4   93.41    3.10
   3  -4   4   92.82    2.97
   3  -4   4   89.05    3.10
   3  -4   4   93.60    3.12
  -4   4  -4  108.00    3.59
  -4   4  -4  108.29    3.77
   4  -4   4  107.57    3.82
   4  -4   4  102.01    3.70
   4  -4   4  112.12    3.68
   4  -4   4  110.24    3.50
   4  -4   4  109.71    3.68
  -5   4  -4  175.85    5.84
  -5   4  -4  168.20    5.47
  -5   4  -4  174.98    5.59
   5  -4   4  172.55    5.38
   5  -4   4  173.00    5.58
   5  -4   4  173.15    5.62
  -6   4  -4    9.04    1.29
   6  -4   4   10.47    1.47
   6  -4   4    9.72    1.34
   7   3  -4   24.40    1.64
   6   3  -4   48.56    1.95
   6   3  -4   47.76    1.86
   5   3  -4  163.09    5.55
   5   3  -4  170.91    5.21
   5   3  -4  163.84    5.25
   5   3  -4  177.25    5.20
   4   3  -4   69.36    2.35
   4   3  -4   69.09    2.45
   4   3  -4   69.34    2.47
   4   3  -4   63.87    2.52
   4   3  -4   70.32    2.52
   4   3  -4   68.56    2.29
  -4  -3   4   68.91    2.47
  -4  -3   4   69.50    2.50
   3   3  -4  166.30    4.97
   3   3  -4  160.48    4.94
   3   3  -4  161.02    4.88
   3   3  -4  159.92    5.05
   3   3  -4  164.27    4.95
   3   3  -4  157.34    4.88
  -3  -3   4  159.07    4.96
  -3  -3   4  160.20    5.04
   2   3  -4  685.62   20.77
   2   3  -4  749.55   20.68
   2   3  -4  698.09   20.53
   2   3  -4  703.69   20.55
   2   3  -4  690.53   20.55
   2   3  -4  691.70   20.62
  -2  -3   4  785.63   20.67
  -2  -3   4  708.17   20.51
  -2  -3   4  721.94   20.77
  -2  -3   4  727.96   20.67
  -2  -3   4  748.82   20.52
   1   3  -4   21.21    0.98
   1   3  -4   23.30    0.91
   1   3  -4   22.61    0.88
   1   3  -4   22.39    1.07
   1   3  -4   21.85    0.90
   1   3  -4   21.63    1.06
  -1  -3   4   24.22    0.95
  -1  -3   4   22.37    0.96
  -1  -3   4   25.32    1.06
  -1  -3   4   22.38    0.88
   0   3  -4  247.96    7.79
   0   3  -4  256.46    7.59
   0   3  -4  254.77    7.63
   0   3  -4  267.61    7.53
   0   3  -4  251.26    7.59
   0  -3   4  253.46    7.63
   0  -3   4  267.72    7.61
   0  -3   4  263.68    7.76
   0  -3   4  263.40    7.62
  -1   3  -4  164.17    5.13
  -1   3  -4  171.04    5.25
  -1   3  -4  177.44    5.03
  -1   3  -4  171.48    5.11
  -1   3  -4  174.15    5.25
  -1   3  -4  164.35    5.17
   1  -3   4  172.16    5.21
   1  -3   4  178.01    5.15
   1  -3   4  173.76    5.25
   1  -3   4  172.85    5.20
  -2   3  -4   26.69    1.10
  -2   3  -4   25.94    1.11
  -2   3  -4   25.81    1.02
  -2   3  -4   28.24    1.20
   2  -3   4   26.73    1.16
   2  -3   4   27.74    1.05
   2  -3   4   25.58    1.15
   2  -3   4   27.37    1.15
  -3   3  -4   31.28    1.38
  -3   3  -4   30.52    1.29
  -3   3  -4   29.81    1.39
  -3   3  -4   29.98    1.39
  -3   3  -4   29.66    1.14
   3  -3   4   30.74    1.33
   3  -3   4   31.08    1.33
   3  -3   4   32.18    1.45
   3  -3   4   32.59    1.21
   3  -3   4   31.28    1.38
  -4   3  -4   15.72    0.95
  -4   3  -4   14.97    1.05
  -4   3  -4   14.52    0.91
   4  -3   4   15.80    1.01
   4  -3   4   16.07    0.98
   4  -3   4   14.89    0.86
   4  -3   4   15.63    1.23
   4  -3   4   13.36    1.06
  -5   3  -4   65.44    2.45
  -5   3  -4   63.84    2.73
  -5   3  -4   65.21    2.42
   5  -3   4   65.03    2.25
   5  -3   4   64.85    2.50
   5  -3   4   62.00    2.58
   5  -3   4   64.41    2.48
  -6   3  -4    1.23    0.65
  -6   3  -4    1.69    0.99
   6  -3   4    0.87    0.73
   6  -3   4    1.59    0.74
   7   2  -4   89.56    3.17
   7   2  -4   87.94    3.11
   6   2  -4   10.41    0.88
   6   2  -4    9.48    0.83
   5   2  -4    0.32    0.51
   5   2  -4    1.14    0.66
   5   2  -4    0.33    0.30
   5   2  -4    1.90    0.65
   5   2  -4    0.29    0.55
   5   2  -4    1.17    0.44
   5   2  -4    0.55    0.31
   4   2  -4    3.32    0.51
   4   2  -4    2.97    0.55
   4   2  -4    3.45    0.50
   4   2  -4    2.76    0.41
   4   2  -4    2.98    0.55
   4   2  -4    3.01    0.42
   4   2  -4    2.37    0.37
  -4  -2   4    3.43    0.48
   3   2  -4  116.96    3.74
   3   2  -4  112.77    3.58
   3   2  -4  121.69    3.67
   3   2  -4  116.05    3.61
  -3  -2   4  116.72    3.71
  -3  -2   4  114.24    3.61
   2   2  -4  101.12    3.10
   2   2  -4   99.68    3.28
   2   2  -4  102.96    3.04
   2   2  -4  100.72    3.05
   2   2  -4   98.36    3.12
   2   2  -4  104.66    3.16
   2   2  -4   98.96    3.16
  -2  -2   4  104.79    3.02
  -2  -2   4   96.45    3.07
  -2  -2   4  102.26    3.13
  -2  -2   4  102.90    3.25
   1   2  -4    6.51    0.41
   1   2  -4    6.95    0.40
   1   2  -4    6.32    0.39
   1   2  -4    6.38    0.36
   1   2  -4    6.41    0.43
  -1  -2   4    6.93    0.40
  -1  -2   4    6.33    0.38
   0   2  -4  543.57   15.01
   0   2  -4  523.91   15.11
   0   2  -4  524.02   15.11
   0   2  -4  500.16   15.06
   0   2  -4  491.73   15.07
   0  -2   4  548.39   15.09
   0  -2   4  524.73   15.09
   0  -2   4  528.59   15.12
   0  -2   4  535.02   15.06
  -1   2  -4  514.84   14.79
  -1   2  -4  512.04   14.80
  -1   2  -4  497.53   14.80
  -1   2  -4  491.89   14.71
  -1   2  -4  486.98   14.77
   1  -2   4  533.40   14.80
   1  -2   4  509.86   14.79
   1  -2   4  537.54   14.71
   1  -2   4  523.33   14.79
  -2   2  -4  189.00    6.08
  -2   2  -4  204.77    6.32
  -2   2  -4  208.40    6.25
  -2   2  -4  206.19    6.22
  -2   2  -4  209.03    6.27
   2  -2   4  223.97    6.28
   2  -2   4  212.46    6.10
   2  -2   4  207.65    6.24
   2  -2   4  208.13    6.24
  -3   2  -4  493.34   14.68
  -3   2  -4  505.08   14.71
  -3   2  -4  472.06   14.67
  -3   2  -4  478.05   14.44
  -3   2  -4  509.11   14.87
   3  -2   4  525.49   14.48
   3  -2   4  500.64   14.67
   3  -2   4  507.59   14.69
   3  -2   4  542.47   14.73
  -4   2  -4   13.37    0.81
  -4   2  -4   13.34    0.88
  -4   2  -4   12.87    1.01
   4  -2   4   11.91    1.39
   4  -2   4   13.53    0.92
   4  -2   4   13.55    0.73
   4  -2   4   15.60    0.91
   4  -2   4   13.25    0.97
  -5   2  -4  117.97    4.22
  -5   2  -4  129.99    4.53
   5  -2   4  125.86    4.15
   5  -2   4  120.31    4.15
   5  -2   4  125.45    4.14
  -6   2  -4   32.76    2.13
  -6   2  -4   30.84    1.68
   6  -2   4   35.39    1.84
   6  -2   4   32.19    1.79
  -7   2  -4   -0.42    0.91
   7   1  -4  216.77    6.53
   7   1  -4  210.19    6.58
   6   1  -4   44.93    1.78
   6   1  -4   47.61    1.73
   5   1  -4  110.18    3.25
   5   1  -4  105.05    3.56
   5   1  -4  100.74    3.44
   5   1  -4  103.52    3.37
   5   1  -4  105.90    3.48
   5   1  -4  100.93    3.82
   5   1  -4  104.97    3.52
  -5  -1   4  107.78    3.45
   4   1  -4  469.14   13.48
   4   1  -4  458.66   13.53
   4   1  -4  471.67   13.45
   4   1  -4  467.02   13.46
   4   1  -4  458.83   13.75
   4   1  -4  445.45   13.40
   4   1  -4  461.13   13.27
  -4  -1   4  462.53   13.48
  -4  -1   4  468.03   13.47
   3   1  -4   12.89    0.63
   3   1  -4   12.41    0.65
   3   1  -4   11.93    0.79
   3   1  -4   12.85    0.68
   3   1  -4   12.36    0.76
   3   1  -4   12.55    0.62
  -3  -1   4   13.17    0.69
  -3  -1   4   12.12    0.65
   2   1  -4  237.87    7.06
   2   1  -4  244.43    7.14
   2   1  -4  246.48    7.16
   2   1  -4  251.91    7.17
   2   1  -4  232.89    7.05
   2   1  -4  235.70    7.04
  -2  -1   4  240.35    7.24
  -2  -1   4  261.07    7.05
  -2  -1   4  242.02    7.07
  -2  -1   4  242.74    7.14
   1   1  -4  171.72    4.91
   1   1  -4  162.11    4.90
   1   1  -4  166.82    4.86
   1   1  -4  172.29    4.91
   1   1  -4  164.71    4.89
  -1  -1   4  161.70    4.89
  -1  -1   4  163.09    4.88
  -1  -1   4  161.22    5.06
  -1  -1   4  162.18    4.89
  -1  -1   4  172.10    4.89
   0   1  -4    1.99    0.25
   0   1  -4    2.09    0.23
   0   1  -4    1.58    0.23
   0   1  -4    1.49    0.21
   0   1  -4    1.79    0.27
   0  -1   4    2.23    0.25
   0  -1   4    1.55    0.19
   0  -1   4    1.93    0.29
  -1   1  -4    9.93    0.57
  -1   1  -4   10.39    0.48
  -1   1  -4    9.52    0.54
  -1   1  -4   10.07    0.63
   1  -1   4   10.56    0.58
   1  -1   4   10.71    0.57
   1  -1   4   10.99    0.55
   1  -1   4    9.95    0.47
  -2   1  -4   99.02    3.08
  -2   1  -4  101.02    3.11
  -2   1  -4   96.30    3.26
  -2   1  -4   95.93    3.12
  -2   1  -4   87.25    2.89
   2  -1   4   97.05    2.90
   2  -1   4   97.53    3.10
   2  -1   4   98.53    3.09
   2  -1   4   97.08    3.07
   2  -1   4   98.34    3.08
  -3   1  -4   35.69    1.47
  -3   1  -4   37.13    1.44
  -3   1  -4   35.85    1.46
  -3   1  -4   36.96    1.64
   3  -1   4   36.78    1.46
   3  -1   4   37.22    1.44
   3  -1   4   35.07    1.44
   3  -1   4   37.28    1.54
  -4   1  -4   28.81    1.22
  -4   1  -4   28.81    1.56
  -4   1  -4   27.08    1.28
   4  -1   4   28.90    1.30
   4  -1   4   28.32    1.34
  -5   1  -4  111.51    3.71
  -5   1  -4  116.29    3.69
  -5   1  -4  112.74    4.23
   5  -1   4  118.36    3.84
   5  -1   4  105.57    3.79
   5  -1   4  109.21    3.79
  -6   1  -4  205.55    6.24
  -6   1  -4  198.57    6.96
   6  -1   4  188.46    6.30
   6  -1   4  198.97    6.39
  -7   1  -4   13.02    1.67
   7   0  -4    0.35    0.59
   6   0  -4    1.02    0.73
  -6   0   4    1.53    0.52
   5   0  -4   12.96    0.94
   5   0  -4   13.63    1.03
   5   0  -4   13.40    1.01
   5   0  -4   11.63    0.92
   5   0  -4   11.92    1.29
  -5   0   4   15.12    0.88
   4   0  -4  272.40    7.98
   4   0  -4  265.19    8.01
   4   0  -4  273.54    7.99
   4   0  -4  275.13    7.95
   4   0  -4  252.71    8.28
  -4   0   4  271.97    7.99
  -4   0   4  267.90    7.92
   3   0  -4    0.55    0.21
   3   0  -4    0.43    0.20
   3   0  -4    0.37    0.19
   3   0  -4    0.95    0.16
   3   0  -4    0.66    0.15
  -3   0   4    0.45    0.19
  -3   0   4    0.93    0.24
   2   0  -4  619.72   17.93
   2   0  -4  639.64   18.00
   2   0  -4  597.44   17.93
   2   0  -4  643.59   18.02
  -2   0   4  629.86   18.01
  -2   0   4  607.32   18.07
  -2   0   4  640.37   17.91
  -2   0   4  642.67   17.93
   1   0  -4  499.49   13.78
   1   0  -4  480.60   13.78
   1   0  -4  460.48   13.77
  -1   0   4  473.96   13.77
  -1   0   4  485.71   13.76
  -1   0   4  471.82   13.76
  -1   0   4  483.06   13.69
   0   0  -4  198.17    5.63
   0   0  -4  185.78    5.60
   0   0  -4  191.79    5.53
   0   0  -4  183.23    5.53
   0   0   4  190.28    5.54
   0   0   4  189.64    5.52
   0   0   4  185.77    5.61
   0   0   4  189.42    5.60
  -1   0  -4  472.55   15.06
  -1   0  -4  525.05   14.85
  -1   0  -4  505.96   14.98
  -1   0  -4  525.01   14.99
   1   0   4  526.60   14.93
   1   0   4  539.97   14.99
   1   0   4  520.65   14.81
   1   0   4  536.81   14.89
   1   0   4  521.08   15.00
  -2   0  -4  124.67    3.83
  -2   0  -4  118.33    4.06
  -2   0  -4  122.80    3.80
   2   0   4  124.12    3.82
   2   0   4  121.98    3.79
   2   0   4  123.22    3.80
   2   0   4  123.83    3.84
  -3   0  -4  116.33    3.56
  -3   0  -4  120.34    3.70
  -3   0  -4  113.57    4.00
  -3   0  -4  112.40    3.69
  -3   0  -4  113.88    3.67
   3   0   4  117.91    3.76
   3   0   4  116.61    3.68
   3   0   4  112.12    3.67
   3   0   4  117.52    3.71
  -4   0  -4   63.48    2.68
  -4   0  -4   64.81    2.18
   4   0   4   64.68    2.32
   4   0   4   64.25    2.33
   4   0   4   63.81    2.34
  -5   0  -4    9.47    0.79
  -5   0  -4    7.89    1.23
  -5   0  -4   10.42    1.08
   5   0   4    7.44    0.97
   5   0   4    7.47    1.06
   5   0   4    9.52    0.91
  -6   0  -4    5.69    0.77
  -6   0  -4    6.83    1.47
   6   0   4    6.35    0.98
   6   0   4    6.37    0.92
  -7   1   4   38.08    1.87
  -7   1   4   38.41    1.97
   6  -1  -4  228.68    7.37
  -6   1   4  235.63    7.64
  -6   1   4  258.10    7.45
   5  -1  -4   19.27    1.18
   5  -1  -4   21.22    1.23
  -5   1   4   22.63    1.11
  -5   1   4   22.16    1.08
   4  -1  -4   80.68    2.55
   4  -1  -4   85.55    2.71
   4  -1  -4   78.69    2.55
   4  -1  -4   84.54    2.73
   4  -1  -4   78.46    3.09
  -4   1   4   84.12    2.75
  -4   1   4   83.24    2.71
  -4   1   4   82.53    2.58
   3  -1  -4  184.68    5.54
   3  -1  -4  190.69    5.63
   3  -1  -4  182.00    5.54
  -3   1   4  192.18    5.54
  -3   1   4  182.03    5.61
  -3   1   4  192.63    5.57
  -3   1   4  194.46    5.53
  -3   1   4  184.97    5.67
   2  -1  -4    6.08    0.40
   2  -1  -4    6.49    0.41
   2  -1  -4    6.54    0.42
  -2   1   4    6.66    0.42
  -2   1   4    7.17    0.53
  -2   1   4    6.36    0.41
   1  -1  -4   27.06    1.02
   1  -1  -4   27.78    0.96
   1  -1  -4   27.02    1.02
  -1   1   4   27.87    1.02
  -1   1   4   28.10    1.09
  -1   1   4   27.17    1.01
  -1   1   4   25.49    0.92
   0  -1  -4    1.22    0.21
   0  -1  -4    1.67    0.26
   0  -1  -4    1.42    0.22
   0   1   4    1.59    0.26
   0   1   4    1.94    0.22
   0   1   4    1.59    0.25
  -1  -1  -4  421.74   12.33
  -1  -1  -4  426.94   12.26
  -1  -1  -4  416.41   12.24
  -1  -1  -4  412.37   12.15
  -1  -1  -4  423.38   12.32
   1   1   4  420.20   12.34
   1   1   4  420.33   12.26
   1   1   4  439.65   12.27
   1   1   4  439.83   12.32
  -2  -1  -4   17.02    0.85
  -2  -1  -4   15.99    0.81
  -2  -1  -4   16.44    1.04
   2   1   4   15.78    0.78
   2   1   4   17.29    0.85
   2   1   4   18.85    0.90
   2   1   4   16.23    0.83
  -3  -1  -4  179.46    5.84
  -3  -1  -4  189.16    6.22
  -3  -1  -4  189.70    5.79
   3   1   4  193.09    5.83
   3   1   4  188.88    5.77
   3   1   4  191.59    5.87
   3   1   4  194.29    5.80
  -4  -1  -4  203.50    6.87
  -4  -1  -4  209.86    6.16
   4   1   4  206.80    6.35
   4   1   4  207.94    6.41
   4   1   4  208.72    6.41
  -5  -1  -4    2.41    0.45
  -5  -1  -4    4.32    1.02
   5   1   4    3.27    0.65
   5   1   4    2.43    0.57
  -6  -1  -4  184.38    6.74
   6   1   4  179.65    5.93
   6   1   4  183.61    6.01
  -7   2   4   31.63    1.84
  -7   2   4   31.59    1.77
   6  -2  -4   81.75    2.88
   6  -2  -4   89.10    2.80
  -6   2   4   90.45    3.09
  -6   2   4   85.47    3.10
   5  -2  -4   10.86    1.05
   5  -2  -4   10.40    0.72
  -5   2   4   12.77    0.88
   4  -2  -4  181.28    5.61
   4  -2  -4  182.13    5.51
   4  -2  -4  185.95    5.52
  -4   2   4  184.86    5.62
  -4   2   4  186.02    5.67
  -4   2   4  180.44    5.52
  -4   2   4  187.71    5.48
   3  -2  -4  440.09   12.65
   3  -2  -4  424.05   12.63
   3  -2  -4  426.37   12.61
  -3   2   4  447.29   12.73
  -3   2   4  430.55   12.65
  -3   2   4  446.53   12.62
   2  -2  -4   50.86    1.67
   2  -2  -4   50.38    1.71
   2  -2  -4   49.34    1.72
  -2   2   4   49.19    1.74
  -2   2   4   51.67    1.72
  -2   2   4   49.36    1.70
   1  -2  -4  460.19   13.43
   1  -2  -4  467.21   13.42
   1  -2  -4  459.88   13.29
  -1   2   4  450.23   13.24
  -1   2   4  472.64   13.40
  -1   2   4  471.36   13.42
   0  -2  -4  189.88    5.55
   0  -2  -4  182.68    5.42
   0  -2  -4  180.15    5.53
   0   2   4  181.50    5.40
   0   2   4  186.77    5.52
   0   2   4  181.26    5.53
  -1  -2  -4  118.84    3.64
  -1  -2  -4  113.13    3.57
  -1  -2  -4  115.80    3.66
   1   2   4  114.94    3.63
   1   2   4  115.59    3.57
   1   2   4  117.19    3.66
  -2  -2  -4   45.32    1.69
  -2  -2  -4   46.21    1.71
  -2  -2  -4   42.58    2.02
  -2  -2  -4   47.20    1.70
   2   2   4   46.88    1.75
   2   2   4   45.33    1.69
   2   2   4   45.56    1.72
   2   2   4   46.02    1.66
  -3  -2  -4    9.80    0.79
  -3  -2  -4    9.07    1.04
   3   2   4   10.68    0.76
   3   2   4   11.09    0.79
   3   2   4   10.26    1.01
   3   2   4    9.43    0.80
  -4  -2  -4   10.24    1.26
   4   2   4   11.15    0.90
   4   2   4   10.69    0.98
  -5  -2  -4    7.10    1.27
   5   2   4    5.47    0.83
   5   2   4    6.95    1.04
  -7   3   4    3.29    0.89
  -7   3   4    2.21    0.79
   6  -3  -4   21.01    1.12
  -6   3   4   20.89    1.41
  -6   3   4   21.70    1.33
   5  -3  -4   14.88    0.96
   5  -3  -4   15.86    0.88
  -5   3   4   14.62    0.96
  -5   3   4   13.88    1.01
  -5   3   4   15.26    0.94
   4  -3  -4   47.56    1.78
   4  -3  -4   51.23    1.79
   4  -3  -4   46.55    1.83
  -4   3   4   48.95    1.77
  -4   3   4   48.93    1.88
  -4   3   4   49.69    1.82
   3  -3  -4    7.43    0.57
   3  -3  -4    7.07    0.58
   3  -3  -4    7.90    0.57
  -3   3   4    6.97    0.59
  -3   3   4    6.72    0.67
  -3   3   4    7.36    0.60
  -3   3   4    7.88    0.54
   2  -3  -4    4.57    0.45
   2  -3  -4    3.80    0.38
   2  -3  -4    3.56    0.46
  -2   3   4    3.76    0.49
  -2   3   4    3.98    0.37
  -2   3   4    3.68    0.53
   1  -3  -4  123.45    3.89
   1  -3  -4  125.04    3.96
   1  -3  -4  130.00    3.77
   1  -3  -4  132.19    3.95
  -1   3   4  126.72    3.93
  -1   3   4  123.11    3.75
  -1   3   4  122.85    3.94
   0  -3  -4  238.06    7.04
   0  -3  -4  228.30    7.11
   0  -3  -4  245.83    7.10
   0   3   4  237.05    7.08
   0   3   4  235.50    6.96
   0   3   4  238.55    7.12
  -1  -3  -4  198.73    6.08
  -1  -3  -4  202.61    5.88
  -1  -3  -4  201.11    6.09
  -1  -3  -4  199.83    6.14
   1   3   4  198.75    6.02
   1   3   4  201.08    6.13
   1   3   4  205.77    6.11
  -2  -3  -4  409.44   12.06
  -2  -3  -4  415.56   12.13
  -2  -3  -4  367.25   12.53
   2   3   4  421.37   12.09
   2   3   4  429.42   12.19
   2   3   4  415.27   12.06
   2   3   4  420.73   12.15
  -3  -3  -4    2.36    0.55
  -3  -3  -4    2.47    0.78
  -3  -3  -4    1.44    0.49
   3   3   4    3.58    0.52
   3   3   4    1.97    0.49
   3   3   4    1.81    0.48
  -4  -3  -4  185.77    6.72
   4   3   4  205.29    6.21
   4   3   4  195.01    6.18
  -5  -3  -4   56.39    3.10
   5   3   4   59.08    2.45
   5   3   4   58.67    2.49
  -7   4   4   12.27    1.71
   6  -4  -4   87.30    3.03
  -6   4   4   88.15    3.21
  -6   4   4   84.81    3.21
   5  -4  -4  194.72    6.13
   5  -4  -4  199.65    6.12
  -5   4   4  201.48    6.18
  -5   4   4  203.47    6.07
  -5   4   4  188.20    6.19
   4  -4  -4   14.42    0.96
   4  -4  -4   15.77    0.95
  -4   4   4   14.30    0.89
  -4   4   4   14.75    0.99
  -4   4   4   14.79    0.97
   3  -4  -4  201.91    6.25
   3  -4  -4  196.75    6.21
   3  -4  -4  208.40    6.15
  -3   4   4  207.12    6.29
  -3   4   4  209.88    6.16
  -3   4   4  196.42    6.22
  -3   4   4  207.25    6.22
   2  -4  -4   89.93    2.98
   2  -4  -4   91.83    2.80
   2  -4  -4   90.62    3.22
  -2   4   4   82.66    2.92
  -2   4   4   84.93    2.95
  -2   4   4   89.63    2.80
   1  -4  -4   17.84    0.95
   1  -4  -4   18.43    0.97
   1  -4  -4   18.54    0.97
   1  -4  -4   18.93    0.87
  -1   4   4   17.85    0.98
  -1   4   4   17.86    1.00
  -1   4   4   19.44    0.78
   0  -4  -4   53.07    1.77
   0  -4  -4   52.24    1.96
   0  -4  -4   52.03    1.94
   0  -4  -4   50.74    1.91
   0   4   4   51.97    1.95
   0   4   4   52.74    1.96
   0   4   4   52.71    1.80
  -1  -4  -4   33.04    1.22
  -1  -4  -4   33.08    1.46
  -1  -4  -4   31.94    1.42
  -1  -4  -4   33.18    1.46
   1   4   4   34.15    1.47
   1   4   4   34.49    1.47
   1   4   4   34.03    1.34
  -2  -4  -4    3.38    0.81
  -2  -4  -4    0.75    0.44
  -2  -4  -4    1.38    0.44
   2   4   4    1.51    0.49
   2   4   4    0.85    0.36
   2   4   4    1.28    0.46
  -3  -4  -4    3.16    0.89
  -3  -4  -4    3.84    0.69
  -3  -4  -4    5.35    0.77
   3   4   4    4.10    0.70
   3   4   4    4.26    0.63
   3   4   4    4.22    0.69
  -4  -4  -4   48.38    2.80
   4   4   4   52.73    2.23
   4   4   4   52.03    2.23
  -5  -4  -4   64.01    3.55
  -7   5   4   13.72    2.11
   6  -5  -4    0.63    0.63
  -6   5   4   -0.22    0.78
  -6   5   4   -0.48    0.68
   5  -5  -4   55.88    2.24
  -5   5   4   55.69    2.22
  -5   5   4   53.72    2.29
   4  -5  -4    0.06    0.52
   4  -5  -4    1.19    0.48
  -4   5   4    0.19    0.49
  -4   5   4    0.76    0.38
  -4   5   4    0.59    0.46
   3  -5  -4  206.59    6.38
   3  -5  -4  201.62    6.58
  -3   5   4  210.22    6.25
  -3   5   4  205.53    6.41
  -3   5   4  205.92    6.38
   2  -5  -4   67.02    2.38
   2  -5  -4   65.08    2.39
  -2   5   4   64.28    2.36
  -2   5   4   65.53    2.07
  -2   5   4   57.87    2.37
   1  -5  -4   71.50    2.64
   1  -5  -4   69.14    2.63
   1  -5  -4   73.81    2.62
   1  -5  -4   74.15    2.49
  -1   5   4   71.90    2.65
  -1   5   4   75.66    2.65
  -1   5   4   75.48    2.40
   0  -5  -4  273.48    8.02
   0  -5  -4  270.08    8.25
   0  -5  -4  276.04    8.28
   0  -5  -4  256.61    8.18
   0   5   4  277.81    8.27
   0   5   4  266.90    8.21
   0   5   4  276.63    8.06
  -1  -5  -4    5.41    0.70
  -1  -5  -4    5.23    0.71
  -1  -5  -4    5.10    0.64
   1   5   4    5.13    0.69
   1   5   4    4.62    0.68
   1   5   4    5.29    0.67
  -2  -5  -4  191.64    6.82
  -2  -5  -4  200.44    6.35
  -2  -5  -4  196.23    6.29
   2   5   4  202.10    6.19
   2   5   4  203.01    6.32
   2   5   4  198.18    6.26
  -3  -5  -4   45.28    2.59
  -3  -5  -4   43.74    2.21
   3   5   4   49.93    2.07
   3   5   4   46.77    2.12
  -4  -5  -4    0.77    1.13
  -4  -5  -4    1.14    1.03
   4   5   4   -0.26    0.74
   4   5   4   -0.13    0.72
  -6   6   4    0.33    0.99
  -6   6   4    0.50    0.91
   5  -6  -4   98.17    3.59
  -5   6   4   95.89    3.64
  -5   6   4  100.24    3.50
   4  -6  -4   67.30    2.62
  -4   6   4   64.63    2.42
  -4   6   4   64.25    2.62
   3  -6  -4   39.58    1.95
   3  -6  -4   42.64    1.92
  -3   6   4   42.74    1.92
  -3   6   4   42.10    1.65
   2  -6  -4   11.01    1.00
   2  -6  -4    9.85    1.17
   2  -6  -4   11.04    1.09
  -2   6   4   11.16    0.71
  -2   6   4   10.64    1.07
   1  -6  -4    4.05    0.66
   1  -6  -4    3.99    0.75
   1  -6  -4    5.54    0.87
  -1   6   4    3.95    0.55
  -1   6   4    4.11    0.65
  -1   6   4    4.46    0.61
  -1   6   4    3.74    0.82
   0  -6  -4   48.19    2.10
   0  -6  -4   48.48    2.07
   0   6   4   42.90    2.13
   0   6   4   43.68    1.88
   0   6   4   50.14    1.83
   0   6   4   48.04    2.26
  -1  -6  -4    0.70    0.61
  -1  -6  -4    0.85    0.62
  -1  -6  -4    0.98    0.67
   1   6   4    1.35    0.63
   1   6   4    0.68    0.46
  -2  -6  -4   72.21    2.95
  -2  -6  -4   71.36    3.41
   2   6   4   71.40    2.72
   2   6   4   70.61    2.90
  -3  -6  -4   56.60    3.15
  -3  -6  -4   58.24    2.82
   3   6   4   57.83    2.54
   3   6   4   54.83    2.60
  -5   7   4   64.65    2.71
  -5   7   4   66.67    2.99
   4  -7  -4   86.59    3.40
  -4   7   4   85.47    3.09
  -4   7   4   86.89    3.40
   3  -7  -4   47.94    2.29
  -3   7   4   49.73    2.33
   2  -7  -4  148.79    5.12
   2  -7  -4  140.83    5.00
  -2   7   4  149.74    5.01
  -2   7   4  149.55    4.58
   1  -7  -4   10.06    1.40
   1  -7  -4   11.45    1.37
  -1   7   4   12.52    1.36
   0  -7  -4  138.46    4.86
   0  -7  -4  139.07    4.92
   0   7   4  141.98    4.58
   0   7   4  145.48    4.88
  -1  -7  -4   45.95    2.41
   1   7   4   48.08    2.11
   1   7   4   49.35    2.43
  -2  -7  -4    7.36    1.31
  -2  -7  -4    6.92    1.46
   2   7   4    7.08    0.98
   2   7   4    5.27    1.13
   3  -8  -4    6.51    1.19
   3  -8  -4    9.48    1.58
   2  -8  -4    9.65    1.42
   2  -8  -4    9.33    1.25
  -2   8   4    9.14    1.29
   1  -8  -4   10.81    1.75
   1  -8  -4   12.28    1.52
  -1   8   4   11.51    1.81
  -1   8   4   11.33    1.22
   0  -8  -4   53.17    2.88
   0   8   4   52.91    2.35
   0   8   4   55.56    2.79
  -1  -8  -4  103.96    4.34
   1   8   4  108.47    4.68
   1   8   4  108.58    3.93
   2  10  -5    1.92    0.85
   1  10  -5   47.46    2.20
   1  10  -5   49.09    2.94
   0  10  -5   42.67    2.33
   0  10  -5   42.67    2.06
   0 -10   5   40.48    3.20
  -1  10  -5    3.97    0.86
  -1  10  -5    4.35    1.07
  -2  10  -5    4.68    1.16
  -2  10  -5    2.85    0.84
   3   9  -5   38.15    1.82
   3   9  -5   39.62    2.37
  -3  -9   5   27.16    2.92
   2   9  -5    1.01    0.75
   2   9  -5    1.13    0.57
  -2  -9   5   -0.83    1.36
   1   9  -5  175.65    5.66
   1   9  -5  181.53    5.88
  -1  -9   5  174.67    6.32
   0   9  -5   59.61    2.49
   0   9  -5   54.10    2.27
   0  -9   5   60.31    3.12
   0  -9   5   52.17    2.37
  -1   9  -5   80.51    2.98
  -1   9  -5   80.76    3.15
   1  -9   5   81.47    3.26
   1  -9   5   79.06    3.19
  -2   9  -5   92.09    3.33
  -2   9  -5   94.46    3.37
  -2   9  -5   88.77    3.48
   2  -9   5   87.28    3.21
   2  -9   5   89.62    3.71
  -3   9  -5   21.08    1.60
  -3   9  -5   20.76    1.79
   3  -9   5   21.54    1.91
   4  -9   5   47.56    2.72
   4   8  -5    0.23    0.66
   4   8  -5    0.44    0.69
  -4  -8   5   -1.01    1.30
   3   8  -5  100.74    3.38
   3   8  -5   91.63    3.22
  -3  -8   5   84.00    3.92
   2   8  -5   21.45    1.37
   2   8  -5   23.14    1.25
  -2  -8   5   22.95    1.60
  -2  -8   5   24.13    2.03
   1   8  -5    0.50    0.48
   1   8  -5    1.67    0.49
  -1  -8   5    0.00    0.62
  -1  -8   5    1.17    0.98
  -1  -8   5    0.12    0.57
   0   8  -5   -0.46    0.69
   0   8  -5    0.51    0.42
   0   8  -5   -0.18    0.46
   0  -8   5    1.24    0.62
   0  -8   5    0.38    0.59
  -1   8  -5    6.17    1.10
  -1   8  -5    5.88    0.90
  -1   8  -5    5.71    0.78
   1  -8   5    5.40    0.81
   1  -8   5    6.25    0.78
  -2   8  -5   68.20    2.75
  -2   8  -5   70.11    2.58
   2  -8   5   65.31    2.75
   2  -8   5   66.85    2.52
  -3   8  -5    5.68    0.88
  -3   8  -5    6.75    0.88
  -3   8  -5    4.04    0.79
   3  -8   5    6.14    0.80
   3  -8   5    8.25    1.30
  -4   8  -5   86.35    3.43
   4  -8   5   90.12    3.56
   5   7  -5   52.20    2.19
  -5  -7   5   57.49    3.18
   4   7  -5    2.19    0.54
   4   7  -5    2.52    0.59
  -4  -7   5    4.07    1.12
   3   7  -5   76.14    2.76
   3   7  -5   80.57    2.75
   3   7  -5   79.26    2.73
  -3  -7   5   71.42    2.84
  -3  -7   5   79.63    3.08
  -3  -7   5   75.70    3.26
   2   7  -5  176.43    5.62
   2   7  -5  183.37    5.62
  -2  -7   5  176.63    5.90
  -2  -7   5  183.73    5.83
  -2  -7   5  171.72    5.95
   1   7  -5   46.02    2.20
   1   7  -5   47.60    2.02
  -1  -7   5   50.52    2.35
  -1  -7   5   51.49    2.07
  -1  -7   5   48.41    2.00
   0   7  -5  303.90   10.40
   0   7  -5  340.03   10.27
   0   7  -5  355.52   10.23
   0  -7   5  352.15   10.23
   0  -7   5  347.76   10.23
  -1   7  -5    5.70    0.71
  -1   7  -5    5.91    0.67
  -1   7  -5    3.83    0.72
   1  -7   5    5.29    0.70
   1  -7   5    4.18    0.79
   1  -7   5    4.92    0.71
  -2   7  -5   74.87    3.05
  -2   7  -5   77.04    2.82
  -2   7  -5   78.58    2.76
   2  -7   5   73.51    3.00
   2  -7   5   79.96    2.77
   2  -7   5   78.77    2.90
  -3   7  -5   29.10    1.44
  -3   7  -5   29.47    1.54
   3  -7   5   31.83    2.07
   3  -7   5   29.29    1.52
   3  -7   5   29.94    1.55
   3  -7   5   29.90    2.00
  -4   7  -5    9.67    1.21
  -4   7  -5    9.35    1.19
   4  -7   5    7.98    1.20
   4  -7   5   11.13    1.38
  -5   7  -5    1.35    0.84
   5  -7   5    1.24    0.99
   6   6  -5    3.60    0.96
  -6  -6   5    2.63    1.51
  -5  -6   5   41.44    2.49
   4   6  -5   39.42    1.62
   4   6  -5   33.95    1.76
  -4  -6   5   42.14    2.12
   3   6  -5    5.07    0.62
   3   6  -5    4.33    0.64
   3   6  -5    4.57    0.72
  -3  -6   5    4.73    0.92
  -3  -6   5    4.04    0.54
  -3  -6   5    5.78    0.96
  -3  -6   5    2.24    0.82
   2   6  -5    1.91    0.40
   2   6  -5    2.22    0.42
   2   6  -5    2.23    0.46
  -2  -6   5    1.33    0.51
  -2  -6   5    1.11    0.61
  -2  -6   5    2.60    0.46
  -2  -6   5    0.98    0.66
   1   6  -5   14.96    1.15
   1   6  -5   14.22    0.83
   1   6  -5   14.71    0.97
   1   6  -5   15.04    0.86
  -1  -6   5   16.21    1.22
  -1  -6   5   14.89    1.03
  -1  -6   5   14.45    0.95
  -1  -6   5   13.43    1.03
  -1  -6   5   15.82    1.09
   0   6  -5  115.00    3.87
   0   6  -5  114.61    3.78
   0   6  -5  115.32    3.77
   0  -6   5  114.39    3.81
   0  -6   5  120.43    3.89
   0  -6   5  122.40    3.85
  -1   6  -5   41.15    1.82
  -1   6  -5   41.32    1.63
  -1   6  -5   44.60    1.70
   1  -6   5   42.75    1.73
   1  -6   5   38.63    1.76
   1  -6   5   39.72    1.71
   1  -6   5   39.30    1.73
  -2   6  -5  123.40    4.02
  -2   6  -5  120.77    3.95
  -2   6  -5  120.68    4.16
   2  -6   5  120.42    4.07
   2  -6   5  131.98    4.04
   2  -6   5  115.60    4.07
  -3   6  -5  273.08    8.22
   3  -6   5  275.32    8.16
   3  -6   5  269.13    8.27
   3  -6   5  272.34    8.17
   3  -6   5  249.91    8.27
  -4   6  -5   22.59    1.39
  -4   6  -5   20.36    1.37
   4  -6   5   18.77    1.46
   4  -6   5   20.65    1.47
   4  -6   5   22.90    1.50
  -5   6  -5  198.70    6.36
   5  -6   5  189.52    6.28
   5  -6   5  183.61    6.31
   6  -6   5    7.60    1.58
   7   5  -5   77.99    3.37
   6   5  -5    8.13    1.10
   6   5  -5    9.05    1.29
   5   5  -5  201.39    6.24
  -5  -5   5  203.86    6.65
   4   5  -5  115.56    3.72
   4   5  -5  102.94    3.73
  -4  -5   5  125.38    4.06
  -4  -5   5  115.23    4.02
   3   5  -5   40.15    1.44
   3   5  -5   39.36    1.49
   3   5  -5   36.88    1.51
  -3  -5   5   39.93    1.77
  -3  -5   5   36.96    1.76
  -3  -5   5   36.72    1.67
   2   5  -5  205.13    6.16
   2   5  -5  207.90    6.20
   2   5  -5  201.27    6.47
   2   5  -5  203.32    6.22
   2   5  -5  208.36    6.28
  -2  -5   5  208.44    6.28
  -2  -5   5  211.36    6.41
  -2  -5   5  200.91    6.13
  -2  -5   5  203.05    6.40
  -2  -5   5  200.56    6.12
   1   5  -5  128.68    4.00
   1   5  -5  127.42    4.01
   1   5  -5  128.87    4.04
   1   5  -5  125.25    4.13
   1   5  -5  126.66    3.98
  -1  -5   5  117.64    4.16
  -1  -5   5  127.95    4.05
  -1  -5   5  129.26    3.98
  -1  -5   5  129.61    4.17
  -1  -5   5  128.70    4.00
   0   5  -5  160.85    5.14
   0   5  -5  164.71    5.07
   0   5  -5  161.32    5.01
   0   5  -5  162.59    5.00
   0  -5   5  165.80    5.14
   0  -5   5  160.17    5.02
   0  -5   5  162.05    5.02
   0  -5   5  158.54    5.00
  -1   5  -5   94.73    3.20
  -1   5  -5   95.24    3.15
  -1   5  -5   96.83    3.35
  -1   5  -5   98.99    3.30
   1  -5   5  100.35    3.20
   1  -5   5   93.73    3.22
   1  -5   5   98.86    3.29
   1  -5   5   96.79    3.23
  -2   5  -5    5.16    0.63
  -2   5  -5    5.31    0.79
  -2   5  -5    4.34    0.51
  -2   5  -5    5.13    0.77
   2  -5   5    5.18    0.71
   2  -5   5    5.21    0.81
   2  -5   5    4.90    0.78
   2  -5   5    6.11    0.72
   2  -5   5    5.01    0.73
  -3   5  -5    3.86    0.72
  -3   5  -5    2.10    0.48
  -3   5  -5    2.94    0.51
  -3   5  -5    1.59    0.38
   3  -5   5    1.91    0.50
   3  -5   5    2.32    0.65
   3  -5   5    1.32    0.54
   3  -5   5    2.57    0.59
  -4   5  -5    7.27    0.91
  -4   5  -5    7.12    0.89
   4  -5   5    7.10    1.01
   4  -5   5    4.81    0.82
   4  -5   5    5.65    1.02
   4  -5   5    7.08    0.99
  -5   5  -5   42.99    2.06
   5  -5   5   41.02    2.10
   5  -5   5   38.22    2.03
  -6   5  -5   40.18    2.36
   6  -5   5   38.39    2.41
   7   4  -5   21.14    1.79
   6   4  -5   22.82    1.41
   6   4  -5   23.85    1.37
   5   4  -5    8.01    0.79
   5   4  -5    7.81    1.26
   5   4  -5    8.18    0.84
   4   4  -5   14.29    1.01
   4   4  -5   15.47    0.88
   4   4  -5   15.59    1.21
   4   4  -5   15.83    1.04
  -4  -4   5   17.19    1.15
  -4  -4   5   17.97    1.17
   3   4  -5    5.01    0.56
   3   4  -5    5.98    0.52
   3   4  -5    5.37    0.44
   3   4  -5    5.54    0.54
   3   4  -5    5.42    0.88
  -3  -4   5    6.68    0.74
  -3  -4   5    6.93    0.74
   2   4  -5  340.40   10.64
   2   4  -5  349.28   10.44
   2   4  -5  346.47   10.35
   2   4  -5  362.69   10.47
   2   4  -5  357.68   10.38
  -2  -4   5  356.36   10.62
  -2  -4   5  359.46   10.50
  -2  -4   5  362.68   10.34
  -2  -4   5  373.02   10.47
  -2  -4   5  346.68   10.31
   1   4  -5   55.08    1.88
   1   4  -5   54.04    1.92
   1   4  -5   54.56    1.99
   1   4  -5   57.89    1.91
   1   4  -5   52.26    1.90
  -1  -4   5   59.39    2.10
  -1  -4   5   56.36    1.90
  -1  -4   5   55.49    1.95
  -1  -4   5   49.40    1.97
  -1  -4   5   53.63    1.88
   0   4  -5  273.26    8.17
   0   4  -5  278.47    8.04
   0   4  -5  267.96    8.11
   0   4  -5  259.40    8.10
   0   4  -5  273.92    8.23
   0  -4   5  270.33    8.27
   0  -4   5  281.65    8.14
   0  -4   5  285.84    8.14
   0  -4   5  274.83    8.12
  -1   4  -5  247.86    7.47
  -1   4  -5  252.26    7.59
  -1   4  -5  246.79    7.62
  -1   4  -5  261.21    7.45
  -1   4  -5  261.19    7.77
   1  -4   5  251.83    7.73
   1  -4   5  258.72    7.60
   1  -4   5  252.94    7.75
   1  -4   5  265.70    7.66
   1  -4   5  254.97    7.66
  -2   4  -5    0.20    0.42
  -2   4  -5    0.51    0.25
  -2   4  -5    0.55    0.37
  -2   4  -5    1.91    0.35
   2  -4   5    1.23    0.38
   2  -4   5    0.27    0.37
   2  -4   5    0.43    0.33
   2  -4   5    0.23    0.35
  -3   4  -5  277.22    8.67
  -3   4  -5  282.77    8.62
  -3   4  -5  283.15    8.56
  -3   4  -5  267.59    8.38
   3  -4   5  289.44    8.43
   3  -4   5  295.16    8.66
   3  -4   5  283.97    8.62
   3  -4   5  292.43    8.61
  -4   4  -5   91.92    3.36
  -4   4  -5   89.34    3.23
  -4   4  -5   93.37    3.22
   4  -4   5   92.02    3.08
   4  -4   5   96.96    3.30
   4  -4   5   94.07    3.31
   4  -4   5   88.29    3.61
  -5   4  -5   32.26    1.88
  -5   4  -5   31.30    1.70
   5  -4   5   34.00    1.80
   5  -4   5   34.46    1.83
  -6   4  -5   39.67    2.46
  -6   4  -5   41.79    2.15
   6  -4   5   39.60    2.35
   6  -4   5   38.62    2.21
   7   3  -5   42.28    2.02
   6   3  -5  249.73    7.51
   6   3  -5  246.44    7.54
   5   3  -5   15.03    1.40
   5   3  -5   17.15    1.37
   5   3  -5   17.49    0.92
   5   3  -5   17.75    0.99
   4   3  -5  282.91    8.40
   4   3  -5  270.89    8.36
   4   3  -5  284.75    8.51
   4   3  -5  279.79    8.46
   4   3  -5  284.21    8.34
   4   3  -5  260.99    8.54
  -4  -3   5  288.15    8.55
  -4  -3   5  289.37    8.43
   3   3  -5   42.24    1.58
   3   3  -5   41.09    1.52
   3   3  -5   41.23    1.60
   3   3  -5   41.06    1.56
   3   3  -5   41.36    1.38
   3   3  -5   38.94    1.74
  -3  -3   5   40.60    1.68
  -3  -3   5   41.88    1.55
   2   3  -5   72.59    2.43
   2   3  -5   73.07    2.37
   2   3  -5   75.69    2.46
   2   3  -5   70.87    2.36
   2   3  -5   70.71    2.62
   2   3  -5   73.80    2.46
   2   3  -5   74.28    2.35
  -2  -3   5   75.36    2.42
  -2  -3   5   77.06    2.35
  -2  -3   5   74.08    2.60
  -2  -3   5   75.49    2.33
  -2  -3   5   76.08    2.46
   1   3  -5  112.63    3.64
   1   3  -5  119.57    3.58
   1   3  -5  116.22    3.57
   1   3  -5  113.78    3.60
   1   3  -5  116.69    3.61
  -1  -3   5  114.26    3.59
  -1  -3   5  117.44    3.57
  -1  -3   5  114.50    3.77
  -1  -3   5  117.81    3.58
   0   3  -5    7.40    0.57
   0   3  -5    7.80    0.43
   0   3  -5    7.47    0.51
   0   3  -5    7.88    0.62
   0   3  -5    7.46    0.50
   0   3  -5    7.90    0.47
   0  -3   5    8.41    0.57
   0  -3   5    8.20    0.57
   0  -3   5    7.64    0.69
   0  -3   5    8.49    0.58
   0  -3   5   10.24    0.66
  -1   3  -5   28.50    1.19
  -1   3  -5   28.74    1.14
  -1   3  -5   29.36    1.26
  -1   3  -5   28.50    1.28
  -1   3  -5   29.67    1.15
  -1   3  -5   29.37    1.02
   1  -3   5   29.70    1.23
   1  -3   5   30.04    1.25
   1  -3   5   31.87    1.27
   1  -3   5   30.88    1.17
  -2   3  -5    0.44    0.26
  -2   3  -5    0.87    0.34
  -2   3  -5    0.58    0.33
   2  -3   5    0.57    0.34
   2  -3   5    0.75    0.29
   2  -3   5    0.72    0.36
   2  -3   5    1.16    0.32
  -3   3  -5  195.26    6.17
  -3   3  -5  195.15    6.45
  -3   3  -5  192.56    6.44
  -3   3  -5  217.26    6.39
  -3   3  -5  214.28    6.54
   3  -3   5  208.61    6.44
   3  -3   5  218.59    6.22
   3  -3   5  210.39    6.42
   3  -3   5  221.74    6.45
  -4   3  -5   61.17    2.37
  -4   3  -5   63.96    2.38
  -4   3  -5   63.44    2.59
   4  -3   5   65.51    2.44
   4  -3   5   66.82    2.54
   4  -3   5   63.77    2.82
   4  -3   5   65.04    2.21
  -5   3  -5   29.13    1.78
  -5   3  -5   28.84    1.52
   5  -3   5   26.12    1.61
   5  -3   5   29.16    1.58
  -6   3  -5  117.56    4.68
  -6   3  -5  122.66    4.22
   6  -3   5  115.47    4.24
   6  -3   5  119.32    4.30
   7   2  -5   26.45    1.56
   7   2  -5   25.30    1.57
   6   2  -5   11.27    0.90
   6   2  -5   12.69    0.98
   5   2  -5   17.56    0.84
   5   2  -5   15.37    1.21
   5   2  -5   16.42    1.38
   5   2  -5   16.61    0.94
   5   2  -5   16.51    1.38
   4   2  -5  153.79    5.18
   4   2  -5  158.70    5.24
   4   2  -5  163.04    5.05
   4   2  -5  164.87    5.10
   4   2  -5  164.02    5.00
   4   2  -5  162.95    5.00
  -4  -2   5  164.03    5.05
  -4  -2   5  170.95    5.16
   3   2  -5  159.78    5.13
   3   2  -5  161.04    5.09
   3   2  -5  158.98    4.79
   3   2  -5  164.88    4.88
   3   2  -5  164.18    5.02
   3   2  -5  160.49    4.93
   3   2  -5  160.69    4.96
  -3  -2   5  164.13    4.96
  -3  -2   5  163.23    4.88
  -3  -2   5  166.25    5.09
   2   2  -5  160.09    4.94
   2   2  -5  160.24    4.87
   2   2  -5  163.07    4.90
   2   2  -5  155.41    4.85
   2   2  -5  173.08    4.97
  -2  -2   5  160.73    5.10
  -2  -2   5  167.52    4.85
  -2  -2   5  161.67    4.92
  -2  -2   5  170.88    4.84
   1   2  -5  613.58   17.59
   1   2  -5  586.14   17.54
   1   2  -5  612.58   17.57
   1   2  -5  587.37   17.57
  -1  -2   5  627.78   17.54
  -1  -2   5  602.87   17.52
  -1  -2   5  649.12   17.57
   0   2  -5    1.11    0.25
   0   2  -5    0.13    0.17
   0   2  -5    0.65    0.18
   0  -2   5    0.10    0.25
   0  -2   5    0.51    0.20
   0  -2   5    1.13    0.25
   0  -2   5    0.58    0.15
  -1   2  -5  393.10   11.77
  -1   2  -5  396.92   11.91
  -1   2  -5  410.54   11.86
  -1   2  -5  386.39   11.84
   1  -2   5  437.95   11.89
   1  -2   5  411.51   11.86
   1  -2   5  408.59   11.87
  -2   2  -5   70.80    2.48
  -2   2  -5   71.02    2.38
  -2   2  -5   69.16    2.39
  -2   2  -5   70.74    2.43
  -2   2  -5   66.98    2.22
   2  -2   5   68.46    2.39
   2  -2   5   64.91    2.29
   2  -2   5   68.66    2.39
   2  -2   5   71.47    2.38
  -3   2  -5    3.17    0.36
  -3   2  -5    2.61    0.45
  -3   2  -5    3.60    0.55
  -3   2  -5    4.03    0.63
   3  -2   5    3.76    0.48
   3  -2   5    4.33    0.56
   3  -2   5    4.06    0.58
   3  -2   5    4.17    0.59
  -4   2  -5   53.18    2.12
  -4   2  -5   53.08    2.04
  -4   2  -5   56.56    2.37
   4  -2   5   52.75    2.19
   4  -2   5   56.00    2.14
  -5   2  -5   21.26    1.61
  -5   2  -5   21.50    1.27
   5  -2   5   23.39    1.45
   5  -2   5   21.76    1.38
  -6   2  -5   11.29    1.33
  -6   2  -5   13.46    1.81
   6  -2   5   12.65    1.48
   6  -2   5   12.05    1.51
   7   1  -5    0.64    0.62
   6   1  -5  120.70    3.95
   5   1  -5   53.42    2.04
   5   1  -5   50.95    1.92
   5   1  -5   49.15    2.38
   5   1  -5   53.78    2.20
   5   1  -5   48.38    2.16
  -5  -1   5   53.31    1.99
   4   1  -5   31.09    1.61
   4   1  -5   34.27    1.35
   4   1  -5   34.05    1.40
   4   1  -5   33.76    1.34
   4   1  -5   33.02    1.42
   4   1  -5   32.27    1.54
  -4  -1   5   36.08    1.40
  -4  -1   5   35.59    1.42
   3   1  -5   27.55    1.12
   3   1  -5   28.24    1.00
   3   1  -5   30.66    1.17
   3   1  -5   27.42    1.17
   3   1  -5   27.74    1.03
   3   1  -5   27.79    1.01
  -3  -1   5   28.48    1.23
  -3  -1   5   28.20    1.15
   2   1  -5   42.17    1.46
   2   1  -5   39.84    1.38
   2   1  -5   38.88    1.36
   2   1  -5   40.11    1.43
  -2  -1   5   40.61    1.35
  -2  -1   5   41.35    1.38
  -2  -1   5   39.87    1.58
  -2  -1   5   39.57    1.42
   1   1  -5   30.00    1.14
   1   1  -5   31.47    1.08
   1   1  -5   29.55    1.11
   1   1  -5   31.06    1.13
  -1  -1   5   30.76    1.12
  -1  -1   5   29.79    1.13
  -1  -1   5   30.59    1.10
  -1  -1   5   31.84    1.15
   0   1  -5    1.47    0.27
   0   1  -5    0.68    0.19
   0   1  -5    0.88    0.19
   0   1  -5    0.82    0.20
   0   1  -5    0.92    0.19
   0  -1   5    0.99    0.16
   0  -1   5    1.10    0.23
   0  -1   5    0.84    0.21
   0  -1   5    1.20    0.28
  -1   1  -5  169.28    5.22
  -1   1  -5  177.60    5.31
  -1   1  -5  173.63    5.34
   1  -1   5  181.36    5.32
   1  -1   5  178.70    5.23
   1  -1   5  177.99    5.36
  -2   1  -5  490.04   14.07
  -2   1  -5  476.75   14.04
  -2   1  -5  481.08   14.08
  -2   1  -5  452.16   13.86
  -2   1  -5  485.10   14.31
   2  -1   5  487.52   14.04
   2  -1   5  505.87   14.02
   2  -1   5  483.50   14.09
  -3   1  -5   90.33    3.06
  -3   1  -5   87.37    3.09
  -3   1  -5   92.20    3.34
   3  -1   5   92.99    3.06
   3  -1   5   95.26    3.12
   3  -1   5   90.86    3.12
  -4   1  -5  333.63   10.40
  -4   1  -5  357.16   11.18
  -4   1  -5  341.58   10.31
   4  -1   5  342.71   10.45
   4  -1   5  350.79   10.44
   4  -1   5  368.08   10.51
  -5   1  -5    4.05    1.00
  -5   1  -5    7.08    1.14
   5  -1   5    5.07    0.78
   5  -1   5    7.93    1.08
  -6   1  -5   48.31    2.84
  -6   1  -5   49.17    2.16
   6  -1   5   47.17    2.34
   6  -1   5   45.26    2.29
   7   0  -5   -0.86    0.59
   6   0  -5  185.50    6.23
  -6   0   5  202.74    6.15
   5   0  -5   73.77    2.76
   5   0  -5   74.25    2.64
  -5   0   5   77.72    2.67
   4   0  -5  116.21    3.76
   4   0  -5  120.46    3.65
   4   0  -5  110.20    4.07
   4   0  -5  116.92    3.53
  -4   0   5  118.20    3.68
  -4   0   5  120.46    3.76
   3   0  -5  334.36    9.75
   3   0  -5  316.52    9.51
   3   0  -5  323.32    9.51
   3   0  -5  330.96    9.64
  -3   0   5  338.79    9.50
  -3   0   5  331.12    9.67
  -3   0   5  316.93    9.65
  -3   0   5  333.76    9.48
   2   0  -5   69.35    2.26
   2   0  -5   69.32    2.23
   2   0  -5   72.67    2.30
   2   0  -5   68.61    2.22
  -2   0   5   68.84    2.27
  -2   0   5   69.62    2.20
  -2   0   5   67.07    2.39
   1   0  -5  306.04    8.89
   1   0  -5  300.74    8.74
  -1   0   5  297.95    8.77
  -1   0   5  301.71    8.85
  -1   0   5  302.15    8.88
  -1   0   5  314.25    8.87
   0   0  -5  201.19    6.03
   0   0  -5  213.98    6.06
   0   0  -5  198.56    5.93
   0   0  -5  205.66    5.93
   0   0   5  185.42    6.12
   0   0   5  203.83    5.94
   0   0   5  204.15    5.92
   0   0   5  200.06    6.03
  -1   0  -5    8.83    0.60
  -1   0  -5    7.90    0.45
  -1   0  -5    8.69    0.58
  -1   0  -5    8.80    0.55
   1   0   5    8.79    0.53
   1   0   5    9.68    0.44
   1   0   5    9.08    0.59
   1   0   5    9.12    0.62
   1   0   5    8.74    0.51
  -2   0  -5   61.80    2.15
  -2   0  -5   63.90    2.19
  -2   0  -5   58.12    2.16
  -2   0  -5   59.73    2.43
   2   0   5   63.96    2.21
   2   0   5   63.19    2.13
   2   0   5   62.09    2.19
   2   0   5   63.70    2.14
  -3   0  -5   14.15    1.11
  -3   0  -5   16.02    1.15
  -3   0  -5   15.51    1.02
   3   0   5   16.06    1.03
   3   0   5   15.83    1.08
   3   0   5   17.00    0.96
   3   0   5   16.93    0.90
  -4   0  -5   19.83    1.21
  -4   0  -5   18.67    1.44
  -4   0  -5   21.34    1.00
   4   0   5   23.10    1.16
   4   0   5   17.39    1.26
   4   0   5   20.89    1.21
  -5   0  -5   10.55    1.53
  -5   0  -5    9.93    0.91
   5   0   5   10.87    1.08
   5   0   5    9.44    1.12
  -6   0  -5   52.50    3.19
  -6   0  -5   57.61    2.65
   6   0   5   52.19    2.50
   6   0   5   48.45    2.56
   8  -1  -5   37.15    2.67
  -7   1   5   33.53    1.95
  -6   1   5    8.40    1.00
   5  -1  -5    9.70    0.65
   5  -1  -5   11.79    0.63
   5  -1  -5    8.89    0.94
  -5   1   5   11.04    0.87
   4  -1  -5    1.17    0.35
   4  -1  -5    1.35    0.27
   4  -1  -5    1.50    0.39
   4  -1  -5    1.16    0.28
  -4   1   5    1.02    0.29
  -4   1   5    1.10    0.31
  -4   1   5    1.10    0.35
  -4   1   5    1.50    0.32
   3  -1  -5  185.45    5.65
   3  -1  -5  185.82    5.65
   3  -1  -5  191.00    5.72
  -3   1   5  191.63    5.63
  -3   1   5  188.90    5.77
  -3   1   5  193.37    5.65
  -3   1   5  191.92    5.71
   2  -1  -5    0.36    0.18
   2  -1  -5    0.75    0.22
   2  -1  -5    0.24    0.18
  -2   1   5    0.70    0.24
  -2   1   5    0.36    0.21
  -2   1   5    0.42    0.22
   1  -1  -5  392.97   11.28
   1  -1  -5  371.66   11.27
  -1   1   5  380.58   11.24
  -1   1   5  380.48   11.11
  -1   1   5  399.38   11.28
  -1   1   5  398.16   11.27
   0  -1  -5  224.21    6.66
   0  -1  -5  227.59    6.77
   0  -1  -5  218.96    6.76
   0   1   5  230.41    6.78
   0   1   5  222.76    6.63
   0   1   5  233.66    6.76
   0   1   5  227.98    6.67
  -1  -1  -5    8.45    0.62
  -1  -1  -5    9.32    0.58
  -1  -1  -5    9.83    0.66
  -1  -1  -5    9.77    0.48
   1   1   5    9.56    0.60
   1   1   5   10.18    0.68
   1   1   5   10.41    0.58
  -2  -1  -5  433.99   12.77
  -2  -1  -5  435.44   12.73
  -2  -1  -5  439.50   12.80
  -2  -1  -5  405.08   13.17
   2   1   5  454.26   12.75
   2   1   5  436.65   12.73
   2   1   5  450.61   12.83
   2   1   5  433.84   12.76
  -3  -1  -5   95.83    3.76
   3   1   5  101.29    3.35
   3   1   5   98.82    3.31
   3   1   5  106.99    3.41
   3   1   5   97.17    3.41
  -4  -1  -5  130.12    4.19
  -4  -1  -5  123.95    4.70
   4   1   5  123.76    4.17
   4   1   5  127.14    4.16
   4   1   5  124.52    4.19
  -5  -1  -5   60.00    3.08
   5   1   5   65.88    2.54
   5   1   5   58.65    2.51
  -8   2   5   44.11    2.84
  -7   2   5   95.29    3.62
   6  -2  -5   40.51    1.55
   6  -2  -5   38.24    1.66
  -6   2   5   40.41    1.86
  -6   2   5   41.00    1.79
   5  -2  -5  309.37    9.33
   5  -2  -5  298.30    9.43
   5  -2  -5  325.76    9.32
  -5   2   5  328.89    9.25
  -5   2   5  319.97    9.49
   4  -2  -5   24.97    1.23
   4  -2  -5   26.94    1.12
   4  -2  -5   26.04    1.13
  -4   2   5   28.30    1.26
  -4   2   5   28.29    1.15
  -4   2   5   26.40    1.30
   3  -2  -5  177.11    5.49
   3  -2  -5  185.06    5.50
   3  -2  -5  184.59    5.50
  -3   2   5  183.29    5.48
  -3   2   5  179.14    5.56
  -3   2   5  179.43    5.46
   2  -2  -5  109.77    3.45
   2  -2  -5  112.19    3.39
   2  -2  -5  107.51    3.46
  -2   2   5  108.15    3.48
  -2   2   5  112.54    3.45
  -2   2   5  106.76    3.47
   1  -2  -5    1.33    0.29
   1  -2  -5    1.44    0.29
  -1   2   5    1.20    0.30
  -1   2   5    2.24    0.34
  -1   2   5    1.56    0.29
  -1   2   5    1.30    0.20
   0  -2  -5   12.11    0.72
   0  -2  -5   12.27    0.55
   0  -2  -5   13.55    0.77
   0   2   5   12.16    0.77
   0   2   5   12.97    0.61
   0   2   5   13.11    0.75
  -1  -2  -5   12.84    0.81
  -1  -2  -5   11.91    0.66
   1   2   5   11.45    0.79
   1   2   5   11.96    0.77
   1   2   5   11.68    0.66
  -2  -2  -5   60.23    2.33
  -2  -2  -5   65.67    2.37
  -2  -2  -5   62.49    2.77
   2   2   5   66.51    2.29
   2   2   5   68.26    2.37
   2   2   5   68.66    2.39
   2   2   5   69.93    2.41
  -3  -2  -5    8.00    1.15
  -3  -2  -5   12.18    1.29
   3   2   5    7.86    1.14
   3   2   5    9.55    0.80
   3   2   5   10.15    0.96
   3   2   5    9.03    0.91
  -4  -2  -5   60.35    2.97
   4   2   5   61.97    2.41
   4   2   5   62.47    2.46
  -5  -2  -5   90.62    4.18
   5   2   5  100.31    3.52
   5   2   5   94.01    3.51
  -7   3   5    1.48    0.83
  -7   3   5    2.53    1.01
   6  -3  -5   17.77    1.12
  -6   3   5   19.64    1.30
  -6   3   5   18.94    1.42
   5  -3  -5   25.08    1.23
   5  -3  -5   26.34    1.34
  -5   3   5   26.89    1.33
  -5   3   5   26.07    1.38
  -5   3   5   26.49    1.29
   4  -3  -5   22.37    1.13
  -4   3   5   23.64    1.11
  -4   3   5   22.50    1.19
   3  -3  -5  148.13    4.56
   3  -3  -5  148.14    4.59
   3  -3  -5  146.78    4.51
  -3   3   5  145.50    4.55
  -3   3   5  139.39    4.55
  -3   3   5  148.29    4.63
   2  -3  -5  434.86   12.72
   2  -3  -5  443.70   12.60
   2  -3  -5  436.85   12.75
  -2   3   5  431.20   12.74
  -2   3   5  429.82   12.72
  -2   3   5  431.67   12.70
   1  -3  -5   56.03    2.06
   1  -3  -5   58.04    2.09
   1  -3  -5   57.29    1.93
  -1   3   5   56.41    1.85
  -1   3   5   59.85    2.09
  -1   3   5   58.18    2.07
   0  -3  -5  393.47   11.32
   0  -3  -5  387.03   11.36
   0  -3  -5  375.64   11.18
   0   3   5  369.51   11.33
   0   3   5  379.47   11.15
   0   3   5  398.60   11.32
  -1  -3  -5   61.76    2.30
  -1  -3  -5   62.70    2.22
  -1  -3  -5   61.28    2.32
  -1  -3  -5   65.25    2.06
   1   3   5   67.49    2.36
   1   3   5   65.64    2.33
   1   3   5   64.65    2.19
  -2  -3  -5   41.65    1.77
  -2  -3  -5   45.44    1.75
   2   3   5   42.94    1.69
   2   3   5   43.43    1.81
   2   3   5   41.85    1.91
  -3  -3  -5   96.62    3.42
  -3  -3  -5   88.59    3.89
   3   3   5  100.53    3.41
   3   3   5   97.85    3.35
   3   3   5  103.15    3.44
  -4  -3  -5    1.72    1.04
   4   3   5    1.30    0.57
   4   3   5    1.20    0.62
  -5  -3  -5    0.14    1.30
  -7   4   5  106.40    4.09
   6  -4  -5   30.35    1.58
  -6   4   5   29.65    1.66
  -6   4   5   29.29    1.79
   5  -4  -5   64.76    2.40
  -5   4   5   61.54    2.48
  -5   4   5   63.47    2.41
   4  -4  -5   69.98    2.50
   4  -4  -5   65.85    2.47
  -4   4   5   69.85    2.56
  -4   4   5   67.08    2.47
   3  -4  -5    2.93    0.46
   3  -4  -5    2.56    0.46
   3  -4  -5    2.73    0.52
  -3   4   5    2.80    0.51
   2  -4  -5    6.58    0.69
   2  -4  -5    5.68    0.69
   2  -4  -5    6.15    0.73
   2  -4  -5    6.84    0.56
  -2   4   5    6.61    0.72
  -2   4   5    6.56    0.88
   1  -4  -5    4.40    0.61
   1  -4  -5    3.24    0.55
   1  -4  -5    3.89    0.52
  -1   4   5    2.65    0.55
  -1   4   5    3.73    0.58
  -1   4   5    3.22    0.42
   0  -4  -5   29.05    1.27
   0  -4  -5   27.55    1.39
   0  -4  -5   30.02    1.19
   0  -4  -5   27.82    1.37
   0   4   5   29.30    1.39
   0   4   5   30.61    1.21
   0   4   5   28.49    1.42
  -1  -4  -5  105.14    3.58
  -1  -4  -5  103.90    3.48
  -1  -4  -5  105.06    3.26
   1   4   5  108.98    3.59
   1   4   5  104.76    3.40
   1   4   5  100.55    3.53
  -2  -4  -5   89.49    3.14
  -2  -4  -5   79.29    3.66
   2   4   5   90.80    3.19
   2   4   5   90.81    3.04
   2   4   5   89.18    3.16
  -3  -4  -5  226.72    7.10
  -3  -4  -5  207.31    7.63
   3   4   5  231.25    7.10
   3   4   5  227.82    6.99
  -4  -4  -5    0.35    1.07
   4   4   5    0.74    0.71
   4   4   5    1.10    0.74
   6  -5  -5    1.71    0.78
  -6   5   5    2.72    0.93
  -6   5   5    0.31    0.72
   5  -5  -5   77.38    2.89
  -5   5   5   74.33    2.82
  -5   5   5   75.24    2.96
   4  -5  -5  136.69    4.55
  -4   5   5  135.90    4.52
  -4   5   5  137.38    4.42
  -4   5   5  136.93    4.59
   3  -5  -5    0.80    0.60
   3  -5  -5    0.26    0.47
   3  -5  -5    0.79    0.45
  -3   5   5   -0.10    0.47
   2  -5  -5  283.99    8.89
   2  -5  -5  294.18    8.94
   2  -5  -5  304.29    8.68
   2  -5  -5  299.12    9.00
  -2   5   5  290.55    8.94
   1  -5  -5   89.70    3.12
   1  -5  -5   85.15    2.99
   1  -5  -5   82.47    3.06
  -1   5   5   85.78    3.08
  -1   5   5   87.64    2.78
   0  -5  -5   31.04    1.48
   0  -5  -5   30.11    1.35
   0  -5  -5   30.51    1.56
   0   5   5   30.67    1.55
   0   5   5   27.02    1.60
   0   5   5   30.15    1.29
  -1  -5  -5   86.97    3.17
  -1  -5  -5   87.29    3.08
  -1  -5  -5   81.05    2.80
   1   5   5   87.00    2.95
   1   5   5   84.89    3.15
   1   5   5   83.35    3.16
  -2  -5  -5    9.76    1.13
  -2  -5  -5    9.38    1.69
   2   5   5    6.74    0.96
   2   5   5    8.67    1.20
  -3  -5  -5    5.85    1.04
  -3  -5  -5    4.55    1.34
   3   5   5    5.90    1.04
   3   5   5    5.72    0.89
   5  -6  -5    0.98    0.79
  -5   6   5   -0.01    0.83
  -5   6   5    0.04    0.65
   4  -6  -5    9.86    1.24
  -4   6   5    8.09    1.22
   3  -6  -5    2.14    0.64
  -3   6   5    2.44    0.74
  -3   6   5    2.88    0.66
   2  -6  -5   78.83    3.09
   2  -6  -5   77.04    3.04
   2  -6  -5   77.51    3.00
  -2   6   5   81.90    2.61
  -2   6   5   84.35    3.08
   1  -6  -5   32.58    1.77
   1  -6  -5   32.97    1.69
  -1   6   5   34.11    1.42
  -1   6   5   32.99    1.77
   0  -6  -5   37.08    2.04
   0  -6  -5   37.58    1.95
   0   6   5   38.21    1.64
   0   6   5   40.42    1.98
  -1  -6  -5  164.13    5.53
  -1  -6  -5  169.08    5.63
   1   6   5  167.76    5.62
   1   6   5  167.62    5.35
  -2  -6  -5   18.18    1.68
  -2  -6  -5   18.54    2.35
   2   6   5   20.87    1.74
   2   6   5   21.32    1.49
  -3  -6  -5  143.95    5.43
  -3  -6  -5  163.54    7.19
   4  -7  -5  125.86    4.69
  -4   7   5  134.22    5.20
   3  -7  -5   70.47    3.00
   3  -7  -5   67.11    3.01
  -3   7   5   68.96    2.91
   2  -7  -5   19.50    1.70
   2  -7  -5   21.28    1.72
  -2   7   5   21.94    1.30
  -2   7   5   19.61    2.39
   1  -7  -5   42.48    2.24
   1  -7  -5   38.95    2.14
  -1   7   5   43.89    2.27
  -1   7   5   40.28    1.79
   0  -7  -5    7.63    1.17
   0  -7  -5    5.60    1.26
   0   7   5    8.68    1.31
   0   7   5    5.29    0.83
  -1  -7  -5    8.11    1.36
   1   7   5   10.24    1.39
   1   7   5    8.13    1.29
  -2  -7  -5    5.90    1.38
   3  -8  -5   83.37    3.79
   2  -8  -5   33.70    2.51
   2  -8  -5   39.86    2.53
   1  -8  -5  141.36    5.30
  -1   8   5  146.85    5.36
   0  -8  -5    3.81    1.44
   0   8   5    3.67    1.02
   0   8   5    5.11    1.48
   1  10  -6    1.76    0.95
   0  10  -6   12.85    1.75
   0 -10   6   13.84    1.81
   0 -10   6   16.57    2.47
  -1  10  -6    2.17    0.96
  -2  10  -6   82.31    3.55
  -2  10  -6   80.23    3.39
   4   9  -6   27.62    1.89
   3   9  -6   78.44    2.98
  -3  -9   6   75.81    4.00
   2   9  -6  123.12    4.36
   2   9  -6  126.63    4.23
  -2  -9   6  118.08    4.55
  -2  -9   6  125.03    4.97
   1   9  -6   10.64    1.33
   1   9  -6    9.02    1.09
  -1  -9   6    7.26    1.57
  -1  -9   6    9.72    1.19
   0   9  -6   86.63    3.35
   0   9  -6   85.98    3.17
   0  -9   6   92.01    4.01
   0  -9   6   84.79    3.32
  -1   9  -6   99.40    3.74
  -1   9  -6  108.21    3.67
   1  -9   6  100.71    3.86
   1  -9   6   99.30    3.64
  -2   9  -6   13.12    1.44
  -2   9  -6   12.87    1.27
   2  -9   6   13.79    1.51
   2  -9   6   13.56    1.75
  -3   9  -6   18.07    1.59
  -3   9  -6   19.73    1.69
  -3   9  -6   18.24    1.80
   3  -9   6   14.08    2.00
   4  -9   6    2.23    1.30
   4   8  -6    2.15    0.75
   4   8  -6    3.93    0.78
  -4  -8   6    1.64    1.52
   3   8  -6   15.43    1.29
   3   8  -6   19.19    1.25
  -3  -8   6   16.25    1.69
  -3  -8   6   15.75    2.17
   2   8  -6   43.29    1.96
   2   8  -6   43.22    1.86
  -2  -8   6   40.09    2.51
  -2  -8   6   43.89    2.20
   1   8  -6   -0.17    0.49
   1   8  -6    1.31    0.51
  -1  -8   6    1.11    0.68
  -1  -8   6    0.81    0.66
  -1  -8   6    1.65    1.06
   0   8  -6  122.76    4.62
   0   8  -6  121.18    4.01
   0   8  -6  120.27    4.10
   0  -8   6  113.45    4.09
   0  -8   6  118.86    4.13
  -1   8  -6  112.76    3.79
  -1   8  -6  100.45    4.10
  -1   8  -6  114.94    3.89
   1  -8   6  111.01    3.85
   1  -8   6  111.82    3.94
  -2   8  -6   39.41    1.92
  -2   8  -6   38.81    1.81
   2  -8   6   37.31    1.87
   2  -8   6   37.23    2.02
  -3   8  -6  161.72    5.21
   3  -8   6  151.06    5.33
   3  -8   6  158.10    5.12
  -4   8  -6   36.13    2.44
   4  -8   6   29.33    2.20
   5   7  -6   25.07    1.54
  -5  -7   6   25.08    2.59
   4   7  -6  286.27    8.38
   4   7  -6  267.33    8.25
  -4  -7   6  269.05    8.83
   3   7  -6    4.98    0.68
   3   7  -6    4.29    0.64
   3   7  -6    5.61    0.86
  -3  -7   6    4.14    1.12
  -3  -7   6    3.45    0.90
   2   7  -6  142.76    4.50
   2   7  -6  145.20    4.52
   2   7  -6  139.56    4.57
  -2  -7   6  132.48    4.50
  -2  -7   6  137.92    4.97
  -2  -7   6  135.60    4.72
   1   7  -6   35.05    1.76
   1   7  -6   35.64    1.55
   1   7  -6   36.88    1.60
  -1  -7   6   31.38    1.70
  -1  -7   6   34.58    2.24
  -1  -7   6   37.68    2.02
   0   7  -6    4.10    0.58
   0   7  -6    3.29    0.68
   0   7  -6    3.54    0.73
   0  -7   6    2.92    0.69
   0  -7   6    3.33    0.64
  -1   7  -6    9.10    0.87
  -1   7  -6   10.02    1.32
  -1   7  -6   10.46    0.86
   1  -7   6   11.30    1.09
   1  -7   6    9.67    1.07
  -2   7  -6   12.20    1.58
  -2   7  -6   14.93    1.02
  -2   7  -6   13.88    1.07
   2  -7   6   14.32    1.22
   2  -7   6   15.41    1.25
  -3   7  -6   10.77    1.10
  -3   7  -6   11.67    1.02
   3  -7   6    7.65    1.23
   3  -7   6   10.61    1.22
  -4   7  -6   13.15    1.43
   4  -7   6   16.28    1.58
   4  -7   6   12.67    1.54
   5  -7   6   44.77    2.59
   6   6  -6    4.06    0.98
  -6  -6   6    5.54    1.62
   5   6  -6    7.55    1.02
  -5  -6   6    8.25    1.43
   4   6  -6   61.20    2.29
   4   6  -6   63.66    2.39
  -4  -6   6   68.07    2.82
  -4  -6   6   63.02    2.72
   3   6  -6    3.31    0.48
   3   6  -6    3.08    0.55
   3   6  -6    2.15    0.54
  -3  -6   6    2.81    0.54
  -3  -6   6    3.90    0.90
  -3  -6   6    2.75    0.73
   2   6  -6  102.14    3.76
   2   6  -6  107.87    3.53
   2   6  -6  105.33    3.54
  -2  -6   6  108.14    3.48
  -2  -6   6  109.90    3.77
  -2  -6   6  105.96    3.76
   1   6  -6  233.35    7.39
   1   6  -6  242.81    7.35
   1   6  -6  242.17    7.35
   1   6  -6  239.56    7.34
  -1  -6   6  243.94    7.57
  -1  -6   6  244.44    7.35
  -1  -6   6  248.65    7.56
   0   6  -6   32.13    1.43
   0   6  -6   33.62    1.39
   0   6  -6   33.68    1.41
   0   6  -6   32.31    1.58
   0  -6   6   31.64    1.55
   0  -6   6   34.35    1.60
   0  -6   6   31.41    1.49
  -1   6  -6  365.01   10.74
  -1   6  -6  345.02   10.81
  -1   6  -6  376.47   10.55
  -1   6  -6  356.97   10.67
   1  -6   6  356.37   10.74
   1  -6   6  342.61   10.74
   1  -6   6  372.20   10.82
  -2   6  -6   23.62    1.04
  -2   6  -6   22.20    1.53
  -2   6  -6   22.18    1.31
  -2   6  -6   22.83    1.26
   2  -6   6   24.98    1.43
   2  -6   6   23.81    1.37
   2  -6   6   21.21    1.47
  -3   6  -6   51.24    2.12
  -3   6  -6   50.42    2.00
   3  -6   6   54.11    2.26
   3  -6   6   49.24    2.38
   3  -6   6   44.92    2.38
   3  -6   6   50.52    2.25
  -4   6  -6   47.94    1.99
  -4   6  -6   45.88    2.17
  -4   6  -6   48.00    2.25
   4  -6   6   48.38    2.26
   4  -6   6   50.90    2.35
   4  -6   6   46.58    2.29
  -5   6  -6    9.21    1.47
   5  -6   6    9.07    1.33
   5  -6   6    9.31    1.23
   6   5  -6   91.34    3.43
   6   5  -6   96.30    3.37
   5   5  -6   41.92    1.85
  -5  -5   6   39.39    2.19
   4   5  -6   90.23    3.07
   4   5  -6   88.27    3.02
  -4  -5   6   91.36    3.32
  -4  -5   6   88.10    3.37
   3   5  -6  122.75    3.89
   3   5  -6  118.97    3.78
   3   5  -6  115.31    3.73
  -3  -5   6  119.23    4.11
  -3  -5   6  125.35    4.02
  -3  -5   6  113.80    3.95
   2   5  -6    8.66    0.63
   2   5  -6    8.23    0.79
   2   5  -6    7.94    0.94
   2   5  -6    7.70    0.64
   2   5  -6    8.22    0.73
  -2  -5   6    6.69    0.82
  -2  -5   6    6.07    0.78
  -2  -5   6    6.51    0.92
  -2  -5   6    7.83    0.87
  -2  -5   6    7.66    0.70
   1   5  -6    4.16    0.51
   1   5  -6    3.09    0.53
   1   5  -6    3.13    0.47
   1   5  -6    2.64    0.42
   1   5  -6    2.92    0.47
  -1  -5   6    4.07    0.63
  -1  -5   6    2.22    0.46
  -1  -5   6    2.33    0.59
  -1  -5   6    3.24    0.58
  -1  -5   6    2.64    0.47
   0   5  -6    3.47    0.60
   0   5  -6    4.55    0.53
   0   5  -6    3.14    0.51
   0   5  -6    3.68    0.49
   0   5  -6    2.73    0.50
   0  -5   6    3.13    0.61
   0  -5   6    1.91    0.47
   0  -5   6    3.03    0.62
   0  -5   6    2.72    0.49
  -1   5  -6   61.13    2.04
  -1   5  -6   62.28    2.23
  -1   5  -6   59.82    2.32
  -1   5  -6   61.12    2.17
   1  -5   6   57.81    2.20
   1  -5   6   62.81    2.38
   1  -5   6   57.73    2.27
   1  -5   6   63.15    2.28
  -2   5  -6   56.53    2.19
  -2   5  -6   52.61    2.31
  -2   5  -6   59.09    2.12
  -2   5  -6   57.32    2.05
   2  -5   6   58.40    2.24
   2  -5   6   54.90    2.17
   2  -5   6   61.71    2.33
   2  -5   6   60.28    2.32
   2  -5   6   60.27    2.36
  -3   5  -6   74.24    2.73
  -3   5  -6   73.68    2.67
  -3   5  -6   72.39    2.54
   3  -5   6   74.26    2.76
   3  -5   6   75.95    2.82
   3  -5   6   73.12    2.88
   3  -5   6   68.56    2.63
  -4   5  -6  181.61    6.03
  -4   5  -6  187.31    6.07
  -4   5  -6  192.81    6.01
  -4   5  -6  183.10    5.77
   4  -5   6  188.59    6.06
   4  -5   6  184.72    6.08
  -5   5  -6    1.25    0.81
  -5   5  -6    1.73    0.76
   5  -5   6    0.81    0.85
   5  -5   6    2.26    0.90
   6   4  -6   71.74    2.72
   6   4  -6   75.15    2.75
   5   4  -6   10.58    1.27
   5   4  -6   10.15    0.91
  -5  -4   6    9.26    1.28
  -5  -4   6   10.65    1.20
   4   4  -6  107.99    3.98
   4   4  -6  121.18    4.00
   4   4  -6  126.68    3.98
  -4  -4   6  124.54    4.31
  -4  -4   6  132.51    4.09
   3   4  -6  152.36    5.41
   3   4  -6  167.97    5.04
   3   4  -6  166.51    5.08
   3   4  -6  166.98    5.15
   3   4  -6  169.08    5.00
  -3  -4   6  161.93    5.34
  -3  -4   6  174.06    5.18
   2   4  -6    6.81    0.68
   2   4  -6    8.63    0.66
   2   4  -6    7.42    0.60
   2   4  -6    9.10    0.77
   2   4  -6    9.07    0.58
  -2  -4   6    7.20    0.83
  -2  -4   6    8.05    0.67
  -2  -4   6   10.44    0.77
  -2  -4   6    8.04    0.63
  -2  -4   6    6.38    0.76
   1   4  -6  263.66    8.01
   1   4  -6  270.64    7.97
   1   4  -6  282.59    7.98
   1   4  -6  271.93    8.08
   1   4  -6  262.34    8.02
  -1  -4   6  262.99    8.02
  -1  -4   6  262.04    8.01
  -1  -4   6  273.50    7.98
  -1  -4   6  267.04    7.97
  -1  -4   6  267.67    8.21
   0   4  -6  182.90    5.30
   0   4  -6  176.11    5.47
   0   4  -6  170.79    5.39
   0   4  -6  172.39    5.39
   0   4  -6  176.24    5.50
   0  -4   6  178.65    5.42
   0  -4   6  177.34    5.61
   0  -4   6  175.73    5.39
   0  -4   6  173.93    5.41
  -1   4  -6  109.09    3.52
  -1   4  -6  107.96    3.43
  -1   4  -6  114.67    3.38
  -1   4  -6  110.00    3.58
  -1   4  -6  106.18    3.65
  -1   4  -6  106.84    3.66
   1  -4   6  112.99    3.54
   1  -4   6  111.51    3.61
   1  -4   6  111.89    3.68
   1  -4   6  111.35    3.63
  -2   4  -6  133.97    4.66
  -2   4  -6  147.48    4.59
  -2   4  -6  143.06    4.53
  -2   4  -6  143.37    4.47
   2  -4   6  141.61    4.64
   2  -4   6  140.98    4.63
   2  -4   6  146.82    4.49
   2  -4   6  149.60    4.63
  -3   4  -6    1.35    0.37
  -3   4  -6    1.01    0.45
  -3   4  -6    1.23    0.46
  -3   4  -6    0.85    0.83
   3  -4   6    1.29    0.60
   3  -4   6    0.59    0.50
   3  -4   6    1.42    0.57
  -4   4  -6    1.03    0.50
  -4   4  -6    0.04    0.52
  -4   4  -6   -0.05    0.59
  -4   4  -6    0.12    0.41
   4  -4   6    0.51    0.83
   4  -4   6    1.03    0.65
   4  -4   6   -0.24    0.56
   4  -4   6    0.17    0.68
  -5   4  -6    0.57    0.81
  -5   4  -6    0.40    0.62
   5  -4   6    1.52    0.82
   5  -4   6    0.11    0.80
  -6   4  -6   28.55    2.05
  -6   4  -6   25.59    2.29
   7   3  -6    3.22    0.92
   6   3  -6   40.71    1.83
   6   3  -6   41.73    1.72
   5   3  -6   37.29    1.59
   5   3  -6   35.06    1.83
   5   3  -6   35.71    1.96
   5   3  -6   36.92    1.47
  -5  -3   6   39.95    1.86
   4   3  -6    3.12    0.72
   4   3  -6    3.60    0.50
   4   3  -6    4.27    0.62
   4   3  -6    3.28    0.58
   4   3  -6    4.83    0.71
  -4  -3   6    3.73    0.63
  -4  -3   6    3.66    0.59
   3   3  -6    4.20    0.48
   3   3  -6    3.92    0.56
   3   3  -6    4.21    0.50
   3   3  -6    3.69    0.52
   3   3  -6    4.48    0.73
   3   3  -6    3.38    0.40
   3   3  -6    3.79    0.59
   3   3  -6    6.07    0.66
  -3  -3   6    6.15    0.76
  -3  -3   6    4.26    0.56
   2   3  -6    2.05    0.30
   2   3  -6    1.48    0.33
   2   3  -6    1.76    0.39
   2   3  -6    1.65    0.31
   2   3  -6    1.33    0.29
  -2  -3   6    2.23    0.36
  -2  -3   6    1.23    0.42
  -2  -3   6    2.11    0.35
   1   3  -6  121.09    3.86
   1   3  -6  121.71    3.92
   1   3  -6  129.20    3.87
   1   3  -6  125.12    3.92
  -1  -3   6  126.30    3.88
  -1  -3   6  123.89    3.87
  -1  -3   6  124.93    3.82
  -1  -3   6  124.80    4.13
   0   3  -6  108.62    3.50
   0   3  -6  101.19    3.45
   0   3  -6  111.31    3.48
   0   3  -6  108.04    3.45
   0   3  -6  104.93    3.52
   0  -3   6  111.08    3.55
   0  -3   6  114.88    3.46
   0  -3   6  110.98    3.49
  -1   3  -6  134.23    3.92
  -1   3  -6  131.83    4.14
  -1   3  -6  130.71    4.21
  -1   3  -6  131.37    4.13
  -1   3  -6  128.36    4.07
  -1   3  -6  127.29    4.17
   1  -3   6  130.18    4.17
   1  -3   6  133.66    4.06
   1  -3   6  130.59    4.16
  -2   3  -6  172.95    5.45
  -2   3  -6  178.29    5.42
  -2   3  -6  171.55    5.27
  -2   3  -6  169.80    5.49
  -2   3  -6  163.57    5.44
   2  -3   6  173.00    5.44
   2  -3   6  174.69    5.45
   2  -3   6  180.00    5.27
   2  -3   6  178.65    5.48
  -3   3  -6   19.55    1.11
  -3   3  -6   17.12    0.88
  -3   3  -6   18.12    1.32
  -3   3  -6   19.69    1.17
   3  -3   6   19.89    1.02
   3  -3   6   18.83    1.11
   3  -3   6   19.06    1.15
   3  -3   6   20.31    1.32
  -4   3  -6  240.06    7.55
  -4   3  -6  259.18    7.60
  -4   3  -6  251.18    7.88
  -4   3  -6  232.76    7.22
   4  -3   6  246.29    7.63
   4  -3   6  240.49    7.28
   4  -3   6  240.45    7.84
   4  -3   6  246.95    7.61
  -5   3  -6   91.03    3.31
  -5   3  -6   93.19    3.67
   5  -3   6   87.57    3.36
   5  -3   6   85.54    3.37
  -6   3  -6   30.30    2.46
  -6   3  -6   35.22    2.10
   7   2  -6   14.24    1.39
   6   2  -6   35.74    1.69
   6   2  -6   38.83    1.51
   5   2  -6  248.47    8.21
   5   2  -6  237.31    8.15
   5   2  -6  263.53    7.82
   5   2  -6  259.15    7.58
   5   2  -6  263.49    7.82
  -5  -2   6  275.78    7.98
   4   2  -6    5.96    0.70
   4   2  -6    6.16    0.79
   4   2  -6    6.72    0.61
   4   2  -6    6.73    0.81
   4   2  -6    6.59    0.90
   4   2  -6    6.80    0.91
  -4  -2   6    6.26    0.80
  -4  -2   6    6.91    0.66
   3   2  -6  378.71   11.21
   3   2  -6  365.75   11.36
   3   2  -6  382.27   11.25
   3   2  -6  387.54   11.08
   3   2  -6  389.08   11.10
   3   2  -6  375.24   11.24
   3   2  -6  384.03   11.06
  -3  -2   6  381.35   11.21
  -3  -2   6  396.09   11.40
   2   2  -6   37.35    1.37
   2   2  -6   36.82    1.41
   2   2  -6   37.48    1.44
   2   2  -6   37.97    1.36
   2   2  -6   35.97    1.39
  -2  -2   6   39.78    1.38
  -2  -2   6   38.07    1.37
  -2  -2   6   38.24    1.62
  -2  -2   6   37.36    1.40
   1   2  -6   66.12    2.10
   1   2  -6   59.23    2.09
   1   2  -6   59.91    2.13
   1   2  -6   61.99    2.10
  -1  -2   6   62.39    2.05
  -1  -2   6   64.41    2.13
  -1  -2   6   64.61    2.12
   0   2  -6  119.72    3.75
   0   2  -6  115.99    3.73
   0   2  -6  124.67    3.67
   0   2  -6  114.73    3.76
   0   2  -6  121.01    3.83
   0  -2   6  125.69    3.80
   0  -2   6  124.05    3.80
   0  -2   6  117.34    3.63
  -1   2  -6   24.91    1.11
  -1   2  -6   24.12    1.02
  -1   2  -6   25.22    1.17
  -1   2  -6   24.73    1.17
  -1   2  -6   23.49    1.11
   1  -2   6   25.84    1.19
   1  -2   6   25.06    1.03
   1  -2   6   25.13    1.14
   1  -2   6   25.49    1.11
  -2   2  -6    6.02    0.72
  -2   2  -6    6.33    0.78
  -2   2  -6    7.27    0.64
  -2   2  -6    6.94    0.52
  -2   2  -6    7.34    0.71
   2  -2   6    6.17    0.57
   2  -2   6    5.72    0.76
   2  -2   6    6.35    0.68
   2  -2   6    6.93    0.63
  -3   2  -6    1.00    0.28
  -3   2  -6    1.70    0.57
  -3   2  -6    1.41    0.46
  -3   2  -6    0.69    0.43
   3  -2   6    1.42    0.61
   3  -2   6    0.72    0.34
   3  -2   6    1.08    0.38
   3  -2   6    1.35    0.81
  -4   2  -6   38.17    1.78
  -4   2  -6   37.13    1.96
  -4   2  -6   37.98    1.68
   4  -2   6   39.02    1.75
   4  -2   6   39.80    1.81
  -5   2  -6   40.64    1.86
  -5   2  -6   40.32    2.30
   5  -2   6   39.60    1.99
   5  -2   6   38.51    2.02
  -6   2  -6    6.54    1.99
  -6   2  -6    4.38    0.97
   7   1  -6   28.31    1.66
   6   1  -6    1.92    0.54
  -6  -1   6    2.45    0.63
   5   1  -6    6.21    0.91
   5   1  -6    5.88    0.93
   5   1  -6    5.09    0.68
  -5  -1   6    6.88    0.86
   4   1  -6   10.39    0.72
   4   1  -6    8.51    1.05
   4   1  -6   10.33    0.55
   4   1  -6   10.05    0.89
  -4  -1   6   12.51    0.87
  -4  -1   6   10.71    0.77
   3   1  -6   52.95    1.99
   3   1  -6   53.41    1.84
   3   1  -6   55.50    1.96
   3   1  -6   55.26    1.99
   3   1  -6   57.10    1.85
  -3  -1   6   55.70    1.96
  -3  -1   6   55.18    1.80
  -3  -1   6   54.56    2.09
  -3  -1   6   58.89    1.89
   2   1  -6  245.16    7.12
   2   1  -6  242.24    7.06
   2   1  -6  233.90    7.08
   2   1  -6  236.13    6.92
   2   1  -6  240.09    7.04
  -2  -1   6  235.29    7.07
  -2  -1   6  236.61    7.29
  -2  -1   6  235.61    7.00
   1   1  -6  132.28    4.10
   1   1  -6  129.99    4.05
   1   1  -6  125.10    4.06
   1   1  -6  130.33    3.97
   1   1  -6  135.09    4.06
  -1  -1   6  132.18    4.03
  -1  -1   6  131.48    4.02
  -1  -1   6  136.95    4.08
  -1  -1   6  136.35    4.09
   0   1  -6  436.59   12.88
   0   1  -6  445.77   12.92
   0   1  -6  425.17   12.79
   0   1  -6  438.67   12.79
   0  -1   6  454.98   12.89
   0  -1   6  453.86   12.90
   0  -1   6  435.96   12.73
   0  -1   6  445.59   12.83
  -1   1  -6    5.17    0.60
  -1   1  -6    4.74    0.52
  -1   1  -6    5.53    0.43
  -1   1  -6    5.63    0.53
   1  -1   6    5.42    0.37
   1  -1   6    5.42    0.51
   1  -1   6    5.18    0.64
   1  -1   6    6.49    0.59
  -2   1  -6  215.41    6.75
  -2   1  -6  222.84    6.79
  -2   1  -6  212.81    6.57
  -2   1  -6  226.75    6.84
  -2   1  -6  225.44    7.06
   2  -1   6  208.96    7.41
   2  -1   6  230.41    6.77
   2  -1   6  230.03    6.70
   2  -1   6  232.47    6.83
  -3   1  -6   80.70    3.15
  -3   1  -6   84.81    2.89
   3  -1   6   76.78    2.90
   3  -1   6   81.23    2.90
   3  -1   6   82.25    2.91
   3  -1   6   82.85    2.84
  -4   1  -6    2.47    0.49
  -4   1  -6    1.36    0.60
  -4   1  -6    3.38    0.93
   4  -1   6    1.96    0.56
   4  -1   6    1.70    0.58
   4  -1   6    1.60    0.68
  -5   1  -6   86.69    3.08
  -5   1  -6   84.84    3.71
   5  -1   6   90.70    3.27
   5  -1   6   81.99    3.28
  -6   1  -6    8.93    1.11
   7   0  -6   77.48    3.00
  -7   0   6   79.89    3.18
   6   0  -6    1.76    0.85
   6   0  -6    1.23    0.51
  -6   0   6    1.36    0.57
   5   0  -6  169.32    5.31
  -5   0   6  170.14    5.83
  -5   0   6  177.39    5.36
   4   0  -6  129.52    4.21
  -4   0   6  134.72    4.17
  -4   0   6  128.79    4.19
   3   0  -6  113.88    3.68
   3   0  -6  116.97    3.72
   3   0  -6  113.80    3.59
  -3   0   6  117.79    3.71
  -3   0   6  116.60    3.58
  -3   0   6  117.39    3.79
  -3   0   6  116.42    3.56
   2   0  -6  122.55    3.85
   2   0  -6  123.74    3.87
  -2   0   6  116.32    3.93
  -2   0   6  124.32    4.06
  -2   0   6  128.13    3.86
  -2   0   6  130.80    3.89
   1   0  -6    1.61    0.33
   1   0  -6    1.21    0.27
   1   0  -6    1.25    0.22
   1   0  -6    1.04    0.28
  -1   0   6    2.20    0.34
  -1   0   6    1.34    0.24
  -1   0   6    2.02    0.34
  -1   0   6    1.22    0.29
   0   0  -6    1.57    0.31
   0   0  -6    1.56    0.28
   0   0  -6    0.97    0.30
   0   0  -6    1.02    0.26
   0   0   6    1.49    0.34
   0   0   6    1.08    0.28
   0   0   6    0.99    0.24
   0   0   6    1.05    0.21
  -1   0  -6    4.88    0.41
  -1   0  -6    5.11    0.51
  -1   0  -6    4.81    0.54
  -1   0  -6    4.30    0.57
   1   0   6    4.57    0.48
   1   0   6    4.86    0.57
   1   0   6    4.56    0.50
   1   0   6    5.40    0.64
   1   0   6    4.75    0.36
  -2   0  -6   86.38    3.06
  -2   0  -6   87.58    3.37
  -2   0  -6   85.24    2.79
  -2   0  -6   90.27    3.01
  -2   0  -6   93.86    3.07
   2   0   6   95.65    3.10
   2   0   6   94.06    2.98
   2   0   6   84.68    3.66
   2   0   6   93.04    3.00
  -3   0  -6   93.65    5.08
  -3   0  -6  115.32    3.79
   3   0   6  117.63    3.83
   3   0   6  116.77    3.82
   3   0   6  120.47    3.84
  -4   0  -6   10.31    1.32
  -4   0  -6    8.88    0.81
   4   0   6   10.76    0.98
   4   0   6    9.15    1.05
  -5   0  -6  185.32    5.71
  -5   0  -6  183.48    6.63
   5   0   6  183.36    5.99
   5   0   6  179.53    5.99
   8  -1  -6    3.22    1.14
  -7   1   6   14.11    1.60
   6  -1  -6    4.08    1.01
  -6   1   6    4.06    0.76
   5  -1  -6  124.34    3.96
   5  -1  -6  127.43    4.07
   5  -1  -6  130.54    3.97
  -5   1   6  128.74    3.99
  -5   1   6  127.43    4.23
   4  -1  -6   55.17    1.90
   4  -1  -6   53.79    1.89
  -4   1   6   56.05    1.94
  -4   1   6   53.65    1.88
  -4   1   6   51.83    2.03
   3  -1  -6   57.04    1.96
   3  -1  -6   57.62    1.97
   3  -1  -6   54.71    1.99
  -3   1   6   54.38    2.04
  -3   1   6   57.27    2.06
  -3   1   6   56.46    2.04
   2  -1  -6  263.01    7.66
   2  -1  -6  260.87    7.69
   2  -1  -6  254.90    7.69
  -2   1   6  253.55    7.69
  -2   1   6  259.21    7.66
  -2   1   6  259.18    7.69
   1  -1  -6   85.25    2.70
   1  -1  -6   85.49    2.80
   1  -1  -6   83.38    2.59
   1  -1  -6   86.10    2.81
  -1   1   6   85.25    2.79
  -1   1   6   83.40    2.61
  -1   1   6   85.87    2.74
  -1   1   6   82.76    2.80
   0  -1  -6  379.38   11.50
   0  -1  -6  392.13   11.34
   0  -1  -6  402.89   11.51
   0   1   6  374.54   11.34
   0   1   6  397.36   11.51
   0   1   6  412.94   11.50
   0   1   6  379.76   11.36
  -1  -1  -6  168.81    5.07
  -1  -1  -6  170.51    5.30
  -1  -1  -6  174.85    5.19
  -1  -1  -6  174.85    5.31
   1   1   6  175.46    5.32
   1   1   6  172.39    5.18
   1   1   6  173.74    5.09
   1   1   6  151.13    5.22
   1   1   6  170.49    5.28
  -2  -1  -6   35.76    1.93
  -2  -1  -6   37.58    1.57
  -2  -1  -6   33.02    1.60
  -2  -1  -6   36.46    1.54
   2   1   6   38.29    1.61
   2   1   6   36.86    1.28
   2   1   6   38.08    1.63
   2   1   6   35.75    1.48
   2   1   6   38.06    1.55
  -3  -1  -6   54.70    2.11
  -3  -1  -6   49.37    2.49
   3   1   6   51.53    2.00
   3   1   6   53.89    2.12
   3   1   6   48.50    2.18
   3   1   6   50.77    2.15
  -4  -1  -6   20.31    1.80
   4   1   6   19.64    1.25
   4   1   6   18.48    1.35
  -5  -1  -6    4.52    1.38
   5   1   6    1.98    0.81
   5   1   6    2.39    0.78
  -7   2   6   92.03    3.60
   6  -2  -6   36.33    1.48
  -6   2   6   32.40    1.81
   5  -2  -6   14.73    0.89
   5  -2  -6   13.84    0.95
   5  -2  -6   12.32    1.13
  -5   2   6   13.60    1.03
  -5   2   6   14.44    1.09
   4  -2  -6   50.45    1.85
  -4   2   6   50.20    1.84
  -4   2   6   47.41    2.18
   3  -2  -6   13.47    0.81
   3  -2  -6   12.61    0.83
   3  -2  -6   12.96    0.82
  -3   2   6   14.25    0.88
  -3   2   6   13.53    0.83
  -3   2   6   12.60    0.83
   2  -2  -6    5.32    0.50
   2  -2  -6    5.07    0.55
   2  -2  -6    5.24    0.60
  -2   2   6    4.90    0.61
  -2   2   6    5.44    0.71
  -2   2   6    5.09    0.56
   1  -2  -6    3.81    0.60
   1  -2  -6    3.13    0.49
   1  -2  -6    3.17    0.41
  -1   2   6    3.60    0.49
  -1   2   6    3.98    0.39
  -1   2   6    4.18    0.67
  -1   2   6    3.48    0.46
   0  -2  -6  153.67    4.99
   0  -2  -6  174.97    5.25
   0  -2  -6  165.80    5.20
   0   2   6  165.88    5.03
   0   2   6  167.71    5.08
   0   2   6  174.37    5.20
   0   2   6  165.54    5.21
  -1  -2  -6  106.76    3.67
  -1  -2  -6  111.73    3.43
  -1  -2  -6  112.96    3.69
   1   2   6  112.27    3.71
   1   2   6  112.97    3.69
   1   2   6  112.42    3.55
  -2  -2  -6    1.52    0.67
  -2  -2  -6    0.72    0.49
   2   2   6    0.36    0.50
   2   2   6    0.74    0.36
   2   2   6    1.48    0.63
   2   2   6    1.41    0.49
  -3  -2  -6  253.28    8.63
  -3  -2  -6  267.52    8.06
   3   2   6  283.71    8.11
   3   2   6  219.41    8.27
   3   2   6  277.71    8.00
  -4  -2  -6   58.57    3.15
   4   2   6   65.01    2.61
   4   2   6   62.59    2.50
  -7   3   6   30.70    2.17
   6  -3  -6  131.60    4.26
  -6   3   6  130.85    4.56
   5  -3  -6   54.07    2.04
  -5   3   6   49.50    2.15
   4  -3  -6  300.71    9.14
   4  -3  -6  299.31    9.13
  -4   3   6  328.45    9.65
  -4   3   6  292.31    9.21
   3  -3  -6   14.84    0.91
   3  -3  -6   13.51    0.88
   3  -3  -6   14.22    0.94
  -3   3   6   13.77    1.11
   2  -3  -6  129.16    3.87
   2  -3  -6  128.51    4.06
  -2   3   6  125.70    4.03
  -2   3   6  123.78    4.01
  -2   3   6  114.63    4.00
   1  -3  -6  185.71    5.50
   1  -3  -6  190.62    5.76
   1  -3  -6  181.27    5.78
  -1   3   6  187.50    5.69
  -1   3   6  184.26    5.76
  -1   3   6  184.36    5.49
  -1   3   6  180.66    5.73
   0  -3  -6    1.32    0.38
   0  -3  -6    2.03    0.54
   0  -3  -6    1.48    0.35
   0   3   6    1.38    0.48
   0   3   6    2.03    0.50
   0   3   6    2.13    0.35
  -1  -3  -6   80.32    2.98
  -1  -3  -6   85.77    2.84
   1   3   6   84.17    3.00
   1   3   6   86.37    2.84
   1   3   6   86.42    3.02
  -2  -3  -6   17.17    1.20
  -2  -3  -6   15.12    1.60
   2   3   6   17.05    1.21
   2   3   6   15.72    1.04
   2   3   6   14.96    1.26
  -3  -3  -6    9.43    1.53
  -3  -3  -6   11.41    1.48
   3   3   6   10.65    1.18
   3   3   6   12.84    1.11
  -4  -3  -6    0.67    1.18
   4   3   6    0.39    0.68
   6  -4  -6   12.26    1.30
  -6   4   6   10.39    1.52
   5  -4  -6   16.14    1.21
  -5   4   6   14.19    1.27
   4  -4  -6    6.20    0.89
  -4   4   6    6.10    0.79
  -4   4   6    5.76    0.91
   3  -4  -6   15.05    1.06
  -3   4   6   14.73    1.12
  -3   4   6   17.29    1.07
   2  -4  -6  124.26    3.81
   2  -4  -6  117.93    3.84
   2  -4  -6  123.75    4.05
   2  -4  -6  122.49    4.06
  -2   4   6  124.01    4.04
  -2   4   6  116.97    4.02
   1  -4  -6  248.15    7.53
   1  -4  -6  242.11    7.27
   1  -4  -6  244.66    7.49
  -1   4   6  230.78    7.44
  -1   4   6  242.76    7.49
  -1   4   6  248.86    7.18
   0  -4  -6   14.95    1.20
   0  -4  -6   13.77    0.90
   0  -4  -6   14.06    0.91
   0  -4  -6   16.19    1.12
   0   4   6   14.91    1.12
   0   4   6   14.86    0.86
   0   4   6   12.07    1.20
  -1  -4  -6  304.88    8.99
  -1  -4  -6  294.38    8.77
  -1  -4  -6  293.96    8.56
   1   4   6  274.55    9.26
   1   4   6  286.08    8.88
  -2  -4  -6   39.22    1.93
  -2  -4  -6   34.31    2.48
   2   4   6   42.45    1.78
   2   4   6   40.60    1.97
  -3  -4  -6   17.86    2.17
   3   4   6   21.15    1.62
   3   4   6   23.21    1.53
   5  -5  -6   60.24    2.55
  -5   5   6   58.67    2.60
   4  -5  -6   99.80    3.56
  -4   5   6   97.21    3.57
   3  -5  -6  111.09    3.82
   3  -5  -6  114.21    3.95
  -3   5   6  110.71    3.89
  -3   5   6  115.30    3.94
   2  -5  -6    0.48    0.53
   2  -5  -6    0.43    0.69
   2  -5  -6    1.69    0.58
   2  -5  -6    0.77    0.44
  -2   5   6   -0.21    0.55
  -2   5   6    0.86    0.49
   1  -5  -6   35.81    2.21
   1  -5  -6   37.18    1.62
   1  -5  -6   36.28    1.81
  -1   5   6   35.96    1.81
  -1   5   6   35.22    1.42
   0  -5  -6    7.30    1.10
   0  -5  -6    7.70    0.93
   0   5   6    7.67    0.81
  -1  -5  -6   13.54    1.36
   1   5   6   12.57    1.40
   1   5   6   13.48    1.09
  -2  -5  -6   16.76    2.26
  -2  -5  -6   17.48    1.50
   2   5   6   19.12    1.66
   2   5   6   19.79    1.41
  -3  -5  -6   31.79    3.29
   3   5   6   36.01    2.28
   3   5   6   36.61    2.07
   4  -6  -6   69.79    2.92
  -4   6   6   66.31    2.88
   3  -6  -6   89.39    3.38
   3  -6  -6   91.97    3.55
  -3   6   6   95.80    3.50
   2  -6  -6    8.29    1.01
   2  -6  -6   11.22    1.34
  -2   6   6    8.38    1.13
  -2   6   6    9.62    1.24
   1  -6  -6  228.72    7.52
   1  -6  -6  247.71    7.75
  -1   6   6  245.10    7.73
  -1   6   6  243.08    7.26
   0  -6  -6  113.38    3.91
   0  -6  -6  106.01    4.15
   0   6   6  112.54    3.69
   0   6   6  107.62    4.09
  -1  -6  -6   47.22    2.30
   1   6   6   44.79    2.49
   1   6   6   44.76    2.08
  -2  -6  -6   64.55    3.04
   2   6   6   66.41    2.79
   2   6   6   63.16    3.12
   3  -7  -6    1.69    1.03
   2  -7  -6    5.60    1.17
   2  -7  -6    7.30    1.81
   1  -7  -6   25.34    2.16
   1  -7  -6   30.44    2.06
  -1   7   6   31.46    2.33
   0  -7  -6    8.05    1.36
   0   7   6    6.81    1.43
   0   7   6    9.38    1.38
  -1  -7  -6    3.15    1.47
   1   7   6    2.39    0.98
  -1 -10   7   22.01    2.17
   0  10  -7   70.43    3.44
   0 -10   7   57.68    3.03
  -1  10  -7   93.11    3.78
   1 -10   7   87.48    4.22
  -2  10  -7    2.02    1.12
   4   9  -7   77.15    3.22
   3   9  -7   53.63    2.46
  -3  -9   7   53.05    3.52
  -3  -9   7   58.10    3.40
   2   9  -7   32.61    1.96
   2   9  -7   29.73    1.70
  -2  -9   7   24.90    2.74
  -2  -9   7   28.50    2.20
   1   9  -7   64.88    2.60
   1   9  -7   64.75    2.74
  -1  -9   7   59.34    2.90
  -1  -9   7   67.32    3.46
   0   9  -7   -0.12    0.70
   0   9  -7    0.53    0.68
   0  -9   7    0.85    0.86
   0  -9   7    2.01    1.46
  -1   9  -7    5.61    0.89
  -1   9  -7    3.97    0.92
   1  -9   7    3.17    0.94
  -2   9  -7    0.63    0.77
  -2   9  -7    1.15    0.72
   2  -9   7   -1.19    0.89
   2  -9   7   -0.93    0.98
   3  -9   7   63.42    3.19
   5   8  -7   11.25    1.61
   4   8  -7   39.01    1.95
   4   8  -7   35.92    1.96
  -4  -8   7   35.21    2.94
   3   8  -7   45.94    2.06
   3   8  -7   47.22    2.13
  -3  -8   7   47.66    2.88
  -3  -8   7   44.25    2.49
   2   8  -7   48.81    2.05
   2   8  -7   49.12    2.12
  -2  -8   7   43.92    2.41
  -2  -8   7   48.26    2.68
   1   8  -7  189.27    6.16
   1   8  -7  199.38    6.26
  -1  -8   7  184.44    6.35
  -1  -8   7  207.20    6.62
   0   8  -7   12.74    1.13
   0   8  -7   13.97    1.08
   0  -8   7   11.18    1.39
   0  -8   7   11.03    1.38
  -1   8  -7  125.91    4.20
  -1   8  -7  122.11    4.11
   1  -8   7  113.08    4.21
   1  -8   7  116.63    4.18
  -2   8  -7  110.73    3.71
  -2   8  -7  107.10    3.80
   2  -8   7  107.98    3.79
   2  -8   7   88.98    4.07
  -3   8  -7   14.34    1.38
  -3   8  -7   13.04    1.47
   3  -8   7   10.29    1.65
   3  -8   7   12.35    1.67
   4  -8   7   32.62    2.40
   5   7  -7   12.65    1.42
  -5  -7   7   14.39    1.98
   4   7  -7    5.56    0.81
   4   7  -7    4.79    0.71
  -4  -7   7    4.25    1.17
  -4  -7   7    5.35    1.38
   3   7  -7   18.65    1.19
   3   7  -7   18.62    1.18
  -3  -7   7   18.42    1.65
  -3  -7   7   15.11    1.82
   2   7  -7   27.32    1.39
   2   7  -7   28.22    1.61
   2   7  -7   28.54    1.40
  -2  -7   7   29.82    2.53
  -2  -7   7   23.61    1.55
  -2  -7   7   27.83    1.75
   1   7  -7    0.55    0.41
   1   7  -7    1.34    0.66
   1   7  -7    0.23    0.44
  -1  -7   7    1.08    0.68
  -1  -7   7   -0.25    0.85
   0   7  -7    0.74    0.47
   0   7  -7    1.59    0.48
   0   7  -7    1.55    0.70
   0  -7   7    0.90    0.61
   0  -7   7    1.10    0.72
  -1   7  -7   71.38    3.03
  -1   7  -7   73.52    2.64
  -1   7  -7   78.91    2.76
   1  -7   7   73.34    2.86
  -2   7  -7  115.98    3.93
  -2   7  -7  117.28    3.93
  -2   7  -7  114.30    4.00
   2  -7   7  114.58    4.09
  -3   7  -7   13.19    1.19
  -3   7  -7   11.04    1.27
   3  -7   7   10.54    1.41
   3  -7   7    9.02    1.52
  -4   7  -7  166.16    5.74
  -4   7  -7  175.35    5.49
   4  -7   7  155.71    5.70
   4  -7   7  166.79    5.63
   6   6  -7   48.71    2.52
   6   6  -7   52.62    2.41
  -6  -6   7   49.77    3.28
   5   6  -7   56.15    2.33
  -5  -6   7   56.20    2.90
   4   6  -7   34.30    1.60
   4   6  -7   36.33    1.66
   4   6  -7   34.56    1.50
  -4  -6   7   34.80    2.11
  -4  -6   7   34.50    2.07
   3   6  -7  282.30    8.41
   3   6  -7  281.46    8.46
   3   6  -7  283.22    8.53
  -3  -6   7  265.29    8.33
  -3  -6   7  298.67    8.73
  -3  -6   7  271.56    8.79
   2   6  -7   21.16    1.27
   2   6  -7   20.61    1.13
   2   6  -7   19.79    1.08
  -2  -6   7   18.41    1.18
  -2  -6   7   18.51    1.42
  -2  -6   7   22.92    1.49
   1   6  -7  153.61    5.19
   1   6  -7  165.70    5.21
  -1  -6   7  169.04    5.32
  -1  -6   7  166.98    5.38
  -1  -6   7  156.10    5.12
   0   6  -7   95.18    3.18
   0   6  -7   87.41    3.26
   0   6  -7   88.64    3.05
   0  -6   7   93.57    3.34
   0  -6   7   91.29    3.18
  -1   6  -7    1.28    0.43
  -1   6  -7    0.33    0.64
  -1   6  -7    1.62    0.45
  -1   6  -7    1.07    0.43
   1  -6   7    0.80    0.59
   1  -6   7    0.86    0.54
   1  -6   7    1.04    0.78
  -2   6  -7   51.71    1.98
  -2   6  -7   47.37    2.35
  -2   6  -7   50.64    2.09
   2  -6   7   43.84    2.29
   2  -6   7   52.23    2.25
   2  -6   7   45.91    2.12
  -3   6  -7   26.67    1.53
  -3   6  -7   24.23    1.31
   3  -6   7   23.07    1.59
   3  -6   7   24.30    1.99
   3  -6   7   22.36    2.01
   3  -6   7   23.24    1.66
  -4   6  -7    0.96    0.68
  -4   6  -7    0.44    0.68
   4  -6   7    1.19    0.85
   4  -6   7    1.19    0.92
   5  -6   7    1.35    1.08
   6   5  -7    8.22    1.05
   6   5  -7    9.79    1.15
   5   5  -7   16.63    1.23
  -5  -5   7   15.28    1.65
  -5  -5   7   16.71    1.60
   4   5  -7    2.69    0.54
   4   5  -7    2.82    0.62
  -4  -5   7    3.13    0.82
  -4  -5   7    3.13    0.82
   3   5  -7   31.10    1.67
   3   5  -7   30.23    1.43
   3   5  -7   31.14    1.47
   3   5  -7   32.17    1.36
  -3  -5   7   30.97    1.35
  -3  -5   7   35.42    1.65
  -3  -5   7   33.89    1.74
   2   5  -7    4.40    0.70
   2   5  -7    4.82    0.77
   2   5  -7    3.84    0.57
   2   5  -7    4.66    0.58
  -2  -5   7    4.68    0.72
  -2  -5   7    5.69    0.75
  -2  -5   7    3.67    0.75
   1   5  -7  140.73    4.65
   1   5  -7  144.88    4.50
   1   5  -7  144.86    4.48
   1   5  -7  141.24    4.52
   1   5  -7  143.57    4.58
  -1  -5   7  142.57    4.50
  -1  -5   7  150.99    4.60
  -1  -5   7  125.60    4.47
  -1  -5   7  142.51    4.75
   0   5  -7  158.22    5.23
   0   5  -7  167.71    5.12
   0   5  -7  167.53    4.99
   0   5  -7  156.50    5.23
   0   5  -7  166.41    5.10
   0  -5   7  153.76    5.10
   0  -5   7  151.21    5.11
   0  -5   7  166.47    5.13
   0  -5   7  170.41    5.34
  -1   5  -7    9.73    0.76
  -1   5  -7   10.54    0.84
  -1   5  -7   10.61    0.72
  -1   5  -7   12.09    0.63
  -1   5  -7   10.69    1.10
   1  -5   7    8.76    1.09
   1  -5   7    8.98    1.02
   1  -5   7   10.09    1.13
   1  -5   7    9.21    0.93
  -2   5  -7  311.28    9.41
  -2   5  -7  322.32    9.47
  -2   5  -7  313.57    9.56
  -2   5  -7  291.76    9.68
   2  -5   7  322.32    9.69
   2  -5   7  319.23    9.58
   2  -5   7  319.61    9.66
   2  -5   7  329.74    9.62
  -3   5  -7   35.03    1.59
  -3   5  -7   32.60    1.49
  -3   5  -7   36.44    1.72
   3  -5   7   32.83    1.79
   3  -5   7   28.93    2.03
  -4   5  -7   35.01    1.89
  -4   5  -7   35.49    1.92
   4  -5   7   33.76    1.98
   4  -5   7   32.80    1.93
  -5   5  -7   72.48    3.07
  -5   5  -7   69.69    3.14
   5  -5   7   65.33    3.12
   5  -5   7   69.49    3.09
   6   4  -7   26.31    1.60
   5   4  -7  187.36    5.85
   5   4  -7  179.02    6.00
  -5  -4   7  187.33    6.16
   4   4  -7   62.99    2.42
   4   4  -7   62.24    2.53
   4   4  -7   63.57    2.39
  -4  -4   7   61.87    2.62
  -4  -4   7   66.98    2.43
   3   4  -7  133.55    4.25
   3   4  -7  133.57    4.35
   3   4  -7  135.09    4.20
   3   4  -7  132.57    4.35
   3   4  -7  135.80    4.25
  -3  -4   7  134.71    4.61
  -3  -4   7  142.29    4.31
  -3  -4   7  139.19    4.16
   2   4  -7  257.25    7.84
   2   4  -7  253.55    7.81
   2   4  -7  263.84    7.86
   2   4  -7  264.13    7.76
   2   4  -7  257.07    7.86
  -2  -4   7  258.43    8.08
  -2  -4   7  260.29    7.75
  -2  -4   7  267.38    7.76
   1   4  -7   26.39    1.29
   1   4  -7   25.71    1.15
   1   4  -7   26.01    1.16
   1   4  -7   24.57    1.14
   1   4  -7   24.22    1.21
  -1  -4   7   22.66    1.20
  -1  -4   7   25.06    1.29
  -1  -4   7   25.03    1.38
  -1  -4   7   25.95    1.20
  -1  -4   7   25.57    1.19
   0   4  -7   18.66    0.97
   0   4  -7   19.18    1.14
   0   4  -7   20.94    0.95
   0   4  -7   21.25    0.88
   0   4  -7   21.21    1.03
   0   4  -7   19.18    1.10
   0  -4   7   17.99    1.06
   0  -4   7   19.22    1.27
   0  -4   7   16.72    1.10
  -1   4  -7    0.43    0.29
  -1   4  -7    0.33    0.58
  -1   4  -7    0.81    0.35
  -1   4  -7    1.41    0.50
  -1   4  -7    1.24    0.33
   1  -4   7    2.07    0.56
   1  -4   7    1.59    0.46
   1  -4   7    0.81    0.45
   1  -4   7    1.05    0.56
  -2   4  -7   44.19    1.70
  -2   4  -7   44.67    1.84
  -2   4  -7   45.51    1.80
  -2   4  -7   42.57    1.99
   2  -4   7   42.79    1.79
   2  -4   7   44.61    1.91
   2  -4   7   44.06    1.99
   2  -4   7   45.77    1.92
  -3   4  -7    2.59    0.61
  -3   4  -7    3.23    0.66
  -3   4  -7    2.71    0.52
   3  -4   7    4.93    0.81
   3  -4   7    3.32    0.65
   3  -4   7    3.12    0.66
   3  -4   7    4.54    0.99
  -4   4  -7   31.50    1.69
  -4   4  -7   31.87    1.74
  -4   4  -7   28.66    1.35
   4  -4   7   30.54    1.78
   4  -4   7   29.70    1.77
  -5   4  -7   86.40    3.56
  -5   4  -7   84.12    3.33
   5  -4   7   80.03    3.36
   5  -4   7   80.29    3.42
   7   3  -7    5.19    1.06
   6   3  -7   18.93    1.34
   6   3  -7   19.48    1.18
   5   3  -7   19.79    1.49
   5   3  -7   18.34    1.62
   5   3  -7   17.56    1.13
  -5  -3   7   19.86    1.45
   4   3  -7   13.16    0.97
   4   3  -7   14.34    1.18
   4   3  -7   13.89    0.90
  -4  -3   7   14.08    1.17
   3   3  -7  130.94    4.00
   3   3  -7  135.55    4.10
   3   3  -7  127.31    4.20
   3   3  -7  129.99    4.05
   3   3  -7  128.86    4.21
   3   3  -7  128.23    4.14
  -3  -3   7  129.84    3.96
  -3  -3   7  124.77    3.94
  -3  -3   7  132.12    4.39
   2   3  -7  163.15    4.90
   2   3  -7  164.23    4.98
   2   3  -7  161.20    4.94
   2   3  -7  162.80    4.93
   2   3  -7  154.04    4.95
  -2  -3   7  146.12    5.01
  -2  -3   7  164.57    5.23
  -2  -3   7  160.48    4.89
   1   3  -7    0.11    0.33
   1   3  -7    0.98    0.38
   1   3  -7    0.32    0.24
   1   3  -7    0.28    0.30
   1   3  -7    0.71    0.26
  -1  -3   7    0.27    0.34
  -1  -3   7    0.45    0.37
  -1  -3   7    1.49    0.48
   0   3  -7  377.63   11.30
   0   3  -7  376.68   11.36
   0   3  -7  383.76   11.31
   0   3  -7  396.58   11.17
   0   3  -7  374.01   11.26
   0  -3   7  388.00   11.35
   0  -3   7  386.14   11.31
   0  -3   7  377.93   11.24
   0  -3   7  389.01   11.31
  -1   3  -7  194.19    5.96
  -1   3  -7  198.24    6.07
  -1   3  -7  193.24    6.13
  -1   3  -7  196.40    6.06
  -1   3  -7  199.21    5.80
  -1   3  -7  188.24    6.05
   1  -3   7  198.48    5.94
   1  -3   7  196.84    6.08
   1  -3   7  198.08    6.08
   1  -3   7  195.27    6.08
  -2   3  -7  131.72    4.36
  -2   3  -7  126.28    4.12
  -2   3  -7  127.17    4.39
  -2   3  -7  133.54    4.31
   2  -3   7  134.09    4.34
   2  -3   7  134.76    4.34
   2  -3   7  133.96    4.13
  -3   3  -7  107.43    3.70
  -3   3  -7  124.92    4.03
  -3   3  -7  115.60    4.12
   3  -3   7  117.32    3.76
   3  -3   7  124.22    4.07
   3  -3   7  121.08    4.14
   3  -3   7  118.55    4.01
  -4   3  -7    1.57    0.76
  -4   3  -7    0.02    0.62
  -4   3  -7    0.99    0.43
   4  -3   7    1.11    0.68
   4  -3   7    1.41    0.70
  -5   3  -7    1.02    1.03
  -5   3  -7    2.18    0.79
   5  -3   7    0.96    0.91
   5  -3   7    2.58    0.90
  -6   3  -7    9.89    1.69
   7   2  -7  196.57    6.38
   6   2  -7   11.71    1.15
   5   2  -7   72.72    2.68
   5   2  -7   74.43    2.68
  -5  -2   7   73.44    2.72
  -5  -2   7   77.00    2.88
   4   2  -7   89.74    2.80
   4   2  -7   84.45    3.28
   4   2  -7   86.13    3.00
  -4  -2   7   89.12    3.03
  -4  -2   7   92.70    3.21
   3   2  -7   16.76    0.90
   3   2  -7   15.81    1.02
   3   2  -7   16.76    0.83
   3   2  -7   16.57    0.87
   3   2  -7   17.00    0.82
  -3  -2   7   16.62    0.86
  -3  -2   7   16.95    1.14
  -3  -2   7   16.85    0.87
  -3  -2   7   17.36    0.91
   2   2  -7   27.50    1.21
   2   2  -7   28.68    1.21
   2   2  -7   28.29    1.24
   2   2  -7   28.76    1.16
  -2  -2   7   29.25    1.21
  -2  -2   7   28.64    1.18
  -2  -2   7   27.27    1.44
   1   2  -7    7.34    0.68
   1   2  -7    6.21    0.60
   1   2  -7    7.73    0.61
   1   2  -7    7.29    0.56
   1   2  -7    7.71    0.57
  -1  -2   7    8.96    0.67
  -1  -2   7    7.46    0.70
  -1  -2   7    7.22    0.54
  -1  -2   7    6.86    0.68
   0   2  -7   15.10    0.85
   0   2  -7   14.07    0.78
   0   2  -7   14.75    0.96
   0   2  -7   17.45    0.88
   0   2  -7   14.93    0.79
   0  -2   7   16.23    0.98
   0  -2   7   16.09    0.93
   0  -2   7   15.46    0.72
   0  -2   7   17.88    0.92
  -1   2  -7   65.97    2.27
  -1   2  -7   67.02    2.52
  -1   2  -7   65.50    2.37
  -1   2  -7   66.75    2.40
  -1   2  -7   65.89    2.47
   1  -2   7   69.84    2.39
   1  -2   7   67.98    2.11
   1  -2   7   67.78    2.41
  -2   2  -7   38.64    1.46
  -2   2  -7   41.22    1.68
  -2   2  -7   34.62    1.76
  -2   2  -7   36.27    1.68
  -2   2  -7   37.38    1.77
   2  -2   7   37.74    1.60
   2  -2   7   40.24    1.64
   2  -2   7   39.27    1.68
  -3   2  -7  216.55    6.77
  -3   2  -7  226.78    7.06
  -3   2  -7  193.37    6.41
   3  -2   7  220.67    6.76
   3  -2   7  233.91    6.95
   3  -2   7  208.51    6.75
  -4   2  -7    2.31    0.72
  -4   2  -7    2.63    0.62
  -4   2  -7    2.92    0.80
   4  -2   7    3.02    0.71
   4  -2   7    4.14    0.80
  -5   2  -7  136.96    4.54
  -5   2  -7  132.68    5.09
   5  -2   7  124.28    4.65
  -6   2  -7   82.90    3.58
   7   1  -7   24.52    1.68
   6   1  -7   20.56    1.33
  -6  -1   7   23.08    1.48
   5   1  -7   60.95    2.25
   5   1  -7   61.67    2.35
  -5  -1   7   65.97    2.46
  -5  -1   7   60.48    2.38
   4   1  -7  257.96    7.57
   4   1  -7  259.06    7.57
   4   1  -7  229.65    8.07
   4   1  -7  262.04    7.79
  -4  -1   7  261.76    7.80
  -4  -1   7  268.08    7.89
   3   1  -7    4.13    0.53
   3   1  -7    3.75    0.55
   3   1  -7    4.61    0.48
   3   1  -7    3.50    0.52
   3   1  -7    4.37    0.55
  -3  -1   7    4.20    0.62
  -3  -1   7    4.73    0.60
  -3  -1   7    5.58    0.82
  -3  -1   7    4.38    0.56
   2   1  -7  349.53   10.25
   2   1  -7  355.51   10.47
   2   1  -7  348.24   10.44
   2   1  -7  355.06   10.43
   2   1  -7  357.47   10.45
  -2  -1   7  352.01   10.42
  -2  -1   7  365.33   10.42
  -2  -1   7  358.90   10.71
  -2  -1   7  354.28   10.39
   1   1  -7  116.19    3.79
   1   1  -7  120.81    3.73
   1   1  -7  116.60    3.71
   1   1  -7  117.48    3.62
   1   1  -7  117.18    3.75
  -1  -1   7  119.32    3.67
  -1  -1   7  117.31    3.75
  -1  -1   7  118.10    3.76
  -1  -1   7  120.37    3.69
   0   1  -7   22.56    1.08
   0   1  -7   23.81    1.03
   0   1  -7   21.37    1.24
   0   1  -7   22.36    1.00
   0  -1   7   23.39    1.13
   0  -1   7   23.80    1.17
   0  -1   7   25.13    1.07
   0  -1   7   23.50    0.94
  -1   1  -7  225.42    7.11
  -1   1  -7  241.25    7.22
  -1   1  -7  227.99    7.03
  -1   1  -7  235.36    7.25
   1  -1   7  244.48    7.24
   1  -1   7  238.50    6.91
   1  -1   7  245.04    7.16
  -2   1  -7   29.49    1.58
  -2   1  -7   28.28    1.42
  -2   1  -7   29.46    1.18
  -2   1  -7   29.65    1.40
  -2   1  -7   29.28    1.53
   2  -1   7   29.75    1.32
   2  -1   7   28.91    1.41
   2  -1   7   26.47    1.48
   2  -1   7   30.10    1.35
  -3   1  -7   38.34    1.78
  -3   1  -7   41.33    2.04
   3  -1   7   39.02    2.00
   3  -1   7   39.81    1.71
   3  -1   7   35.56    1.83
  -4   1  -7    1.14    0.54
  -4   1  -7    1.11    0.75
  -4   1  -7    0.97    0.79
   4  -1   7    1.74    0.67
   4  -1   7    0.21    0.57
  -5   1  -7   11.16    1.87
  -5   1  -7   11.27    1.33
   5  -1   7   10.52    1.54
   5  -1   7   11.03    1.42
   7   0  -7   36.25    2.00
  -7   0   7   38.92    2.22
   6   0  -7   89.26    3.27
  -6   0   7   94.55    3.40
   5   0  -7    0.63    0.33
  -5   0   7    1.73    0.50
  -5   0   7    1.24    0.56
   4   0  -7    1.20    0.35
  -4   0   7    0.53    0.37
  -4   0   7    1.17    0.52
  -4   0   7    1.09    0.42
   3   0  -7    1.84    0.39
   3   0  -7    1.92    0.36
   3   0  -7    2.09    0.44
  -3   0   7    2.13    0.54
  -3   0   7    1.88    0.38
  -3   0   7    2.60    0.46
   2   0  -7  102.56    3.36
   2   0  -7  104.43    3.35
   2   0  -7  103.17    3.35
   2   0  -7  104.26    3.34
  -2   0   7  104.49    3.57
  -2   0   7  103.17    3.33
  -2   0   7  105.12    3.34
  -2   0   7  102.57    3.34
   1   0  -7   59.62    2.08
   1   0  -7   62.07    2.18
   1   0  -7   58.87    2.14
  -1   0   7   59.88    2.14
  -1   0   7   61.84    2.06
  -1   0   7   59.56    2.15
  -1   0   7   60.76    2.01
   0   0  -7   31.71    1.24
   0   0  -7   32.42    1.24
   0   0  -7   30.65    1.41
   0   0  -7   31.89    1.36
   0   0   7   30.73    1.25
   0   0   7   32.42    1.21
   0   0   7   30.49    1.41
   0   0   7   34.67    1.41
  -1   0  -7  330.56   10.16
  -1   0  -7  336.48   10.05
  -1   0  -7  338.17    9.95
  -1   0  -7  346.40   10.19
   1   0   7  344.95   10.19
   1   0   7  341.62    9.88
   1   0   7  347.43   10.06
   1   0   7  338.23   10.14
  -2   0  -7    2.91    0.66
  -2   0  -7    2.98    0.69
  -2   0  -7    3.55    0.51
  -2   0  -7    4.21    0.60
   2   0   7    2.89    0.54
   2   0   7    3.29    0.51
   2   0   7    3.86    0.72
   2   0   7    3.95    0.62
  -3   0  -7  168.80    5.35
  -3   0  -7  166.63    5.83
   3   0   7  155.74    5.31
   3   0   7  171.26    5.30
   3   0   7  163.34    5.39
   3   0   7  164.38    5.36
  -4   0  -7  105.43    3.59
  -4   0  -7  108.69    4.40
   4   0   7  113.85    3.87
   4   0   7  109.67    3.92
  -5   0  -7    0.89    1.33
   5   0   7    0.14    0.88
   5   0   7    0.57    0.95
  -7   1   7   30.77    2.09
  -6   1   7  101.02    3.69
   5  -1  -7   21.23    1.07
   5  -1  -7   20.11    1.11
  -5   1   7   17.69    1.26
  -5   1   7   20.48    1.14
   4  -1  -7  241.93    7.53
   4  -1  -7  252.90    7.55
  -4   1   7  247.82    7.69
  -4   1   7  257.43    7.61
  -4   1   7  257.60    7.51
   3  -1  -7  225.88    7.05
   3  -1  -7  230.48    7.04
   3  -1  -7  240.64    7.06
  -3   1   7  233.10    7.17
  -3   1   7  231.70    7.03
  -3   1   7  237.56    7.11
   2  -1  -7  113.82    3.65
   2  -1  -7  113.45    3.65
   2  -1  -7  114.77    3.59
  -2   1   7  111.63    3.63
  -2   1   7  110.87    3.61
  -2   1   7  108.94    4.09
   1  -1  -7  134.07    4.13
  -1   1   7  134.26    4.17
  -1   1   7  132.71    4.25
  -1   1   7  130.53    4.04
  -1   1   7  136.32    4.26
   0  -1  -7   17.16    1.02
   0  -1  -7   17.07    0.83
   0  -1  -7   16.31    0.96
   0  -1  -7   15.93    0.84
   0   1   7   16.19    0.80
   0   1   7   15.63    1.03
   0   1   7   16.31    0.99
   0   1   7   15.25    0.81
  -1  -1  -7    0.40    0.46
  -1  -1  -7    0.83    0.41
  -1  -1  -7    0.72    0.41
  -1  -1  -7    0.94    0.30
   1   1   7    0.05    0.29
   1   1   7    0.32    0.25
   1   1   7    0.51    0.49
   1   1   7    0.88    0.43
  -2  -1  -7    5.57    0.86
  -2  -1  -7    8.16    1.22
   2   1   7    6.01    0.52
   2   1   7    6.50    0.87
   2   1   7    5.91    0.86
   2   1   7    6.09    0.81
  -3  -1  -7   25.36    1.94
  -3  -1  -7   25.27    1.54
   3   1   7   27.00    1.54
   3   1   7   27.34    1.41
  -4  -1  -7   38.73    2.59
   4   1   7   40.90    1.96
   4   1   7   39.26    2.05
  -7   2   7   11.89    1.82
   6  -2  -7    2.38    0.57
  -6   2   7   -0.53    0.71
   5  -2  -7    1.34    0.46
  -5   2   7    0.29    0.58
   4  -2  -7   76.58    2.67
   4  -2  -7   75.33    2.69
  -4   2   7   76.13    2.77
  -4   2   7   76.03    2.68
  -4   2   7   76.20    2.60
   3  -2  -7   71.48    2.43
   3  -2  -7   59.48    2.34
   3  -2  -7   63.28    2.99
  -3   2   7   68.73    2.42
  -3   2   7   71.18    2.52
   2  -2  -7   17.36    0.91
   2  -2  -7   18.65    1.06
   2  -2  -7   15.97    0.97
  -2   2   7   15.13    1.01
  -2   2   7   17.63    0.96
  -2   2   7   16.31    1.11
   1  -2  -7  269.13    8.18
   1  -2  -7  266.57    8.14
   1  -2  -7  269.98    7.93
  -1   2   7  266.32    8.05
  -1   2   7  270.59    8.15
  -1   2   7  265.75    7.87
  -1   2   7  272.31    8.13
   0  -2  -7   68.11    2.51
   0   2   7   67.10    2.50
   0   2   7   62.29    2.46
   0   2   7   68.70    2.28
   0   2   7   69.32    2.32
  -1  -2  -7  232.99    6.85
  -1  -2  -7  219.08    7.12
  -1  -2  -7  227.03    7.15
   1   2   7  231.40    6.98
   1   2   7  231.30    6.91
   1   2   7  243.42    7.19
   1   2   7  229.63    7.14
  -2  -2  -7  183.76    6.01
  -2  -2  -7  180.83    6.62
   2   2   7  190.66    5.88
   2   2   7  191.46    5.68
   2   2   7  188.21    6.03
   2   2   7  192.07    6.06
   2   2   7  188.68    5.94
  -3  -2  -7   17.59    1.88
  -3  -2  -7   17.20    1.70
   3   2   7   16.54    1.25
   3   2   7   17.73    1.43
  -4  -2  -7   41.33    2.89
   4   2   7   43.27    2.12
   4   2   7   43.17    2.25
   6  -3  -7   84.66    2.99
  -6   3   7   78.60    3.28
   5  -3  -7   85.86    3.02
  -5   3   7   83.58    3.17
   4  -3  -7    5.80    0.85
  -4   3   7    4.64    0.74
  -4   3   7    4.82    0.68
   3  -3  -7  118.58    3.97
   3  -3  -7  119.58    3.99
  -3   3   7  118.61    3.92
  -3   3   7  120.62    3.98
  -3   3   7  117.71    3.95
   2  -3  -7   19.36    1.03
   2  -3  -7   19.94    1.18
   2  -3  -7   20.52    1.25
  -2   3   7   20.08    1.22
  -2   3   7   20.80    1.14
   1  -3  -7    1.63    0.48
   1  -3  -7    2.13    0.55
   1  -3  -7    1.76    0.34
  -1   3   7    2.01    0.43
  -1   3   7    1.79    0.35
  -1   3   7    1.79    0.58
  -1   3   7    0.95    0.69
   0  -3  -7    0.68    0.59
   0  -3  -7    0.77    0.46
   0   3   7    0.68    0.63
   0   3   7    0.55    0.37
   0   3   7    0.57    0.37
   0   3   7    1.27    0.54
  -1  -3  -7   36.71    1.40
  -1  -3  -7   36.48    1.77
   1   3   7   35.27    1.82
   1   3   7   34.72    1.64
   1   3   7   35.88    1.51
   1   3   7   32.55    1.86
  -2  -3  -7   88.48    3.35
  -2  -3  -7   86.41    4.02
   2   3   7   90.22    3.17
   2   3   7   92.18    3.36
   2   3   7   89.97    3.00
  -3  -3  -7    0.13    1.13
   3   3   7    0.85    0.64
   3   3   7    0.76    0.53
   3   3   7    0.73    0.76
  -6   4   7   33.56    2.48
   5  -4  -7   86.68    3.20
  -5   4   7   84.77    3.31
   4  -4  -7   10.23    1.14
  -4   4   7    9.94    1.14
   3  -4  -7  237.79    7.46
  -3   4   7  242.03    7.44
  -3   4   7  237.25    7.45
   2  -4  -7   21.03    1.34
   2  -4  -7   21.28    1.12
   2  -4  -7   21.95    1.45
  -2   4   7   20.51    1.41
  -2   4   7   20.72    1.25
   1  -4  -7   58.77    2.55
   1  -4  -7   64.45    2.53
  -1   4   7   61.82    2.12
  -1   4   7   60.34    2.51
  -1   4   7   61.16    2.36
   0  -4  -7  161.08    5.53
   0  -4  -7  162.45    5.19
   0   4   7  170.62    5.54
   0   4   7  172.19    5.21
   0   4   7  172.28    5.34
  -1  -4  -7    7.83    0.95
   1   4   7    6.55    0.92
   1   4   7    6.26    0.97
  -2  -4  -7  117.29    5.17
   2   4   7  126.82    4.19
   2   4   7  122.89    4.41
   3   4   7   14.68    1.61
   3   4   7   11.76    1.71
  -5   5   7   26.88    2.69
   4  -5  -7   12.48    1.42
  -4   5   7   11.38    1.37
   3  -5  -7    4.12    0.79
  -3   5   7    2.82    0.74
   2  -5  -7    4.43    0.81
  -2   5   7    4.88    0.80
  -2   5   7    3.58    0.89
   1  -5  -7   39.62    1.77
   1  -5  -7   40.11    2.13
  -1   5   7   42.58    2.15
  -1   5   7   41.50    1.66
  -1   5   7   43.02    1.94
   0  -5  -7  130.75    4.39
   0   5   7  137.14    4.77
   0   5   7  135.11    4.34
  -1  -5  -7    1.75    0.82
   1   5   7    1.75    0.91
   1   5   7    1.04    0.69
   2   5   7  107.59    4.22
   2   5   7  108.52    3.93
   3  -6  -7   82.25    3.42
  -3   6   7   81.98    3.38
   2  -6  -7   91.57    3.75
  -2   6   7   97.02    3.60
   1  -6  -7    0.09    0.98
  -1   6   7    2.49    0.80
  -1   6   7    0.66    1.04
   0   6   7   24.10    1.58
   0   6   7   24.50    2.18
   1   6   7   24.97    2.38
   1   6   7   22.51    1.76
   2  -7  -7   81.97    3.77
   0   7   7  141.58    6.07
  -1 -10   8   91.33    5.19
   0 -10   8   42.34    2.72
   1 -10   8   37.97    3.48
  -3  -9   8    1.73    1.85
   2   9  -8    1.32    0.73
   2   9  -8    2.04    1.03
  -2  -9   8    0.83    1.62
  -2  -9   8    1.27    1.25
   1   9  -8   51.34    2.43
   1   9  -8   49.19    2.28
  -1  -9   8   56.61    3.21
  -1  -9   8   44.37    2.64
   0   9  -8    7.82    1.17
   0   9  -8    6.61    1.02
   0  -9   8    4.52    1.64
   0  -9   8    7.73    1.17
  -1   9  -8   32.98    1.90
  -1   9  -8   37.03    2.07
   1  -9   8   33.43    2.26
  -2   9  -8   64.73    2.95
   2  -9   8   57.90    2.93
   4   8  -8    1.06    0.86
  -4  -8   8    1.31    1.71
   3   8  -8  133.66    4.55
   3   8  -8  135.38    4.54
  -3  -8   8  139.38    5.11
  -3  -8   8  126.53    5.00
   2   8  -8   65.58    2.64
   2   8  -8   70.97    2.73
  -2  -8   8   68.20    3.22
  -2  -8   8   64.32    3.03
   1   8  -8   59.69    2.42
   1   8  -8   58.39    2.46
  -1  -8   8   62.68    3.01
  -1  -8   8   56.46    2.72
   0   8  -8  106.74    3.77
   0   8  -8  106.85    3.71
   0  -8   8  104.63    3.93
   0  -8   8  100.12    4.73
  -1   8  -8    0.67    0.61
  -1   8  -8    1.64    0.67
   1  -8   8    0.55    0.90
   1  -8   8    0.63    0.83
  -2   8  -8    3.67    0.80
  -2   8  -8    5.81    0.97
   2  -8   8    4.89    1.11
   2  -8   8    2.87    0.99
  -3   8  -8    1.92    0.89
  -3   8  -8    2.25    0.92
   3  -8   8    1.46    1.09
   3  -8   8    3.57    1.23
   4  -8   8   26.45    2.74
   5   7  -8    4.38    1.00
  -5  -7   8    5.09    1.74
   4   7  -8   15.27    1.36
   4   7  -8   16.10    1.31
  -4  -7   8   14.22    1.92
  -4  -7   8   16.77    2.13
   3   7  -8   23.79    1.39
   3   7  -8   22.94    1.40
  -3  -7   8   19.81    1.97
  -3  -7   8   23.95    1.81
   2   7  -8   43.67    1.84
   2   7  -8   39.82    1.84
  -2  -7   8   40.17    2.21
   1   7  -8   35.13    1.63
   1   7  -8   33.36    1.62
  -1  -7   8   30.31    1.79
  -1  -7   8   38.21    2.13
  -1  -7   8   33.26    1.95
   0   7  -8  213.31    6.70
   0   7  -8  212.46    6.97
   0   7  -8  219.86    6.76
   0  -7   8  212.81    6.77
   0  -7   8  210.34    6.90
  -1   7  -8    4.49    0.73
  -1   7  -8    5.76    1.15
  -1   7  -8    5.78    0.88
  -1   7  -8    5.22    0.74
   1  -7   8    4.57    0.92
   1  -7   8    5.31    0.98
  -2   7  -8  142.57    4.81
  -2   7  -8  144.05    4.70
   2  -7   8  137.15    4.83
   2  -7   8  138.32    4.87
  -3   7  -8   89.53    3.23
  -3   7  -8   85.41    3.37
   3  -7   8   85.88    3.50
   3  -7   8   79.81    3.42
  -4   7  -8    9.57    1.19
   4  -7   8   10.17    1.41
   4  -7   8    7.71    1.50
   6   6  -8   -0.42    1.03
   6   6  -8    0.48    0.98
   5   6  -8  134.12    4.53
  -5  -6   8  122.89    4.95
  -5  -6   8  138.06    4.87
   4   6  -8   67.58    2.62
   4   6  -8   64.82    2.42
  -4  -6   8   69.55    2.94
  -4  -6   8   66.89    3.08
   3   6  -8   34.18    1.60
   3   6  -8   30.50    1.68
   3   6  -8   34.61    1.51
  -3  -6   8   32.61    1.94
  -3  -6   8   33.35    1.86
   2   6  -8   78.69    2.87
   2   6  -8   79.34    2.81
   2   6  -8   75.34    2.93
  -2  -6   8   85.20    3.05
  -2  -6   8   79.17    3.18
   1   6  -8   40.18    1.74
   1   6  -8   34.97    1.90
   1   6  -8   39.03    1.73
  -1  -6   8   47.68    2.59
  -1  -6   8   42.80    2.01
  -1  -6   8   42.37    2.05
   0   6  -8   24.17    1.32
   0   6  -8   25.25    1.29
   0   6  -8   23.98    1.63
   0   6  -8   24.00    1.48
   0  -6   8   24.43    1.59
   0  -6   8   26.89    1.47
  -1   6  -8    1.80    0.81
  -1   6  -8    2.84    0.55
  -1   6  -8    2.30    0.54
  -1   6  -8    2.00    0.56
   1  -6   8    4.40    0.87
   1  -6   8    2.43    0.67
  -2   6  -8   18.17    1.36
  -2   6  -8   19.40    1.08
  -2   6  -8   20.10    1.24
   2  -6   8   21.15    1.65
   2  -6   8   21.38    1.53
  -3   6  -8   98.20    3.67
  -3   6  -8   99.59    3.48
  -3   6  -8  101.71    3.47
   3  -6   8   98.23    3.85
   3  -6   8   95.91    3.77
   3  -6   8   98.04    3.72
  -4   6  -8   11.65    1.37
  -4   6  -8   10.43    1.42
   4  -6   8   10.27    1.44
   4  -6   8    8.78    1.38
   6   5  -8    1.37    0.80
   6   5  -8    5.19    1.06
   5   5  -8   76.83    2.94
  -5  -5   8   76.60    3.39
  -5  -5   8   77.87    3.19
   4   5  -8   34.02    1.44
   4   5  -8   35.46    1.66
  -4  -5   8   35.96    2.05
  -4  -5   8   32.19    1.81
   3   5  -8   33.07    1.82
   3   5  -8   36.64    1.50
   3   5  -8   35.27    1.62
   3   5  -8   35.78    1.61
  -3  -5   8   34.35    1.91
  -3  -5   8   32.91    1.55
  -3  -5   8   38.50    1.71
   2   5  -8  269.30    8.10
   2   5  -8  260.46    8.17
   2   5  -8  264.14    8.19
   2   5  -8  262.77    8.24
  -2  -5   8  266.59    8.45
  -2  -5   8  287.15    8.13
   1   5  -8   39.44    1.66
   1   5  -8   38.65    1.70
   1   5  -8   39.09    1.80
   1   5  -8   37.58    1.88
  -1  -5   8   42.91    1.81
  -1  -5   8   40.85    2.09
   0   5  -8  179.33    5.57
   0   5  -8  178.30    5.43
   0   5  -8  172.45    5.55
   0  -5   8  171.98    5.56
   0  -5   8  177.36    5.84
  -1   5  -8  173.43    5.03
  -1   5  -8  159.66    5.26
  -1   5  -8  153.58    5.41
  -1   5  -8  159.73    5.02
  -1   5  -8  163.11    5.28
   1  -5   8  164.97    5.40
   1  -5   8  170.91    5.77
   1  -5   8  168.44    5.33
  -2   5  -8    0.34    0.53
   2  -5   8    1.69    0.69
   2  -5   8    2.26    0.91
   2  -5   8    1.54    0.65
  -3   5  -8  138.48    4.63
  -3   5  -8  141.06    4.50
  -3   5  -8  142.12    4.71
   3  -5   8  125.87    5.13
   3  -5   8  140.67    4.80
   3  -5   8  138.55    4.75
  -4   5  -8   17.14    1.32
  -4   5  -8   19.57    1.54
   4  -5   8   16.43    1.74
   4  -5   8   18.24    1.74
  -5   5  -8    2.76    1.21
   7   4  -8   63.14    2.94
   6   4  -8  117.51    4.16
  -6  -4   8  118.18    4.59
   5   4  -8   25.49    1.51
  -5  -4   8   28.63    1.94
   4   4  -8   71.35    2.35
   4   4  -8   67.97    2.64
   4   4  -8   70.25    2.59
   4   4  -8   69.00    2.41
   4   4  -8   70.90    2.63
  -4  -4   8   67.21    2.86
  -4  -4   8   66.41    2.51
   3   4  -8    4.17    0.72
   3   4  -8    4.56    0.61
   3   4  -8    4.29    0.67
   3   4  -8    3.92    0.60
  -3  -4   8    3.21    0.88
  -3  -4   8    5.17    0.78
   2   4  -8   15.54    1.07
   2   4  -8   15.28    1.09
   2   4  -8   16.54    0.97
   2   4  -8   17.64    1.16
   2   4  -8   17.34    0.95
  -2  -4   8   16.90    1.31
   1   4  -8    2.80    0.56
   1   4  -8    4.86    0.73
   1   4  -8    3.89    0.57
   1   4  -8    3.00    0.47
   1   4  -8    3.36    0.64
  -1  -4   8    2.19    0.61
  -1  -4   8    3.24    0.62
  -1  -4   8    3.28    0.71
   0   4  -8  130.66    4.39
   0   4  -8  133.22    4.18
   0   4  -8  136.65    4.34
   0   4  -8  133.85    4.31
   0   4  -8  138.34    4.46
   0   4  -8  142.23    4.20
   0  -4   8  135.93    4.62
   0  -4   8  127.33    4.30
   0  -4   8  133.91    4.34
   0  -4   8  123.50    4.35
  -1   4  -8   74.02    2.42
  -1   4  -8   75.38    2.59
  -1   4  -8   74.73    2.86
  -1   4  -8   73.42    2.57
  -1   4  -8   75.95    2.70
   1  -4   8   73.00    2.71
   1  -4   8   72.27    2.62
   1  -4   8   73.53    2.74
   1  -4   8   64.29    2.75
  -2   4  -8    1.28    0.51
  -2   4  -8    1.53    0.46
  -2   4  -8    1.78    0.78
  -2   4  -8    1.22    0.50
   2  -4   8    1.38    0.81
   2  -4   8    1.14    0.55
   2  -4   8    0.80    0.68
   2  -4   8    0.78    0.65
  -3   4  -8  214.44    6.80
  -3   4  -8  212.91    6.50
  -3   4  -8  218.91    6.76
   3  -4   8  211.87    6.80
   3  -4   8  207.00    6.90
   3  -4   8  201.13    6.51
   3  -4   8  216.89    6.82
  -4   4  -8   73.37    3.08
  -4   4  -8   66.36    2.55
   4  -4   8   74.30    3.06
   4  -4   8   75.00    3.06
  -5   4  -8   53.81    2.87
  -5   4  -8   49.27    2.65
   7   3  -8   38.97    2.29
   6   3  -8   59.26    2.58
  -6  -3   8   66.75    2.95
   5   3  -8   16.44    1.16
  -5  -3   8   16.62    1.54
   4   3  -8  268.55    8.66
   4   3  -8  293.99    8.37
   4   3  -8  275.43    8.52
   4   3  -8  288.36    8.30
   4   3  -8  278.01    8.30
  -4  -3   8  277.43    8.82
   3   3  -8  121.93    3.89
   3   3  -8  128.53    3.95
   3   3  -8  126.35    3.91
   3   3  -8  120.30    4.00
  -3  -3   8  120.91    4.26
  -3  -3   8  119.66    3.95
  -3  -3   8  118.16    3.83
   2   3  -8  215.77    6.48
   2   3  -8  211.49    6.49
   2   3  -8  215.75    6.58
   2   3  -8  211.97    6.55
   2   3  -8  212.49    6.56
  -2  -3   8  208.93    6.47
  -2  -3   8  217.19    6.84
  -2  -3   8  217.43    6.79
   1   3  -8  270.32    8.12
   1   3  -8  268.13    8.04
   1   3  -8  277.18    8.00
   1   3  -8  272.13    8.02
   1   3  -8  263.51    8.04
  -1  -3   8  260.47    8.04
  -1  -3   8  246.88    8.08
  -1  -3   8  276.82    8.39
   0   3  -8    2.48    0.46
   0   3  -8    1.65    0.40
   0   3  -8    2.01    0.55
   0   3  -8    1.54    0.50
   0   3  -8    2.27    0.44
   0  -3   8    2.28    0.52
   0  -3   8    1.96    0.49
  -1   3  -8   75.98    2.88
  -1   3  -8   77.06    2.65
  -1   3  -8   76.84    2.78
  -1   3  -8   77.59    2.78
   1  -3   8   80.48    2.82
   1  -3   8   77.93    2.79
   1  -3   8   71.69    2.84
  -2   3  -8   22.01    1.31
  -2   3  -8   23.02    1.14
  -2   3  -8   20.21    1.57
  -2   3  -8   22.88    1.34
   2  -3   8   21.88    1.34
   2  -3   8   24.15    1.42
   2  -3   8   21.79    1.58
  -3   3  -8   13.06    1.24
  -3   3  -8   13.28    1.23
  -3   3  -8   12.72    0.91
   3  -3   8   14.52    1.24
   3  -3   8   12.80    1.31
  -4   3  -8    7.27    1.19
   4  -3   8   10.39    1.43
   4  -3   8   11.06    1.38
  -5   3  -8   11.39    1.71
  -5   3  -8   11.81    1.96
   7   2  -8    2.27    0.98
   6   2  -8   25.40    1.61
  -6  -2   8   26.97    1.87
   5   2  -8   44.32    1.92
  -5  -2   8   42.42    1.93
  -5  -2   8   46.81    2.15
   4   2  -8    1.21    0.36
   4   2  -8    0.86    0.39
   4   2  -8    0.17    0.39
   4   2  -8    1.27    0.78
  -4  -2   8    0.31    0.64
  -4  -2   8    0.37    0.44
   3   2  -8    7.25    1.06
   3   2  -8    9.00    0.79
   3   2  -8    8.71    0.67
   3   2  -8    9.38    0.74
  -3  -2   8    8.74    1.04
  -3  -2   8    8.09    0.76
  -3  -2   8    8.04    0.80
   2   2  -8   80.10    2.68
   2   2  -8   78.08    2.56
   2   2  -8   78.27    2.71
   2   2  -8   79.62    2.74
   2   2  -8   77.21    2.74
  -2  -2   8   78.90    2.65
  -2  -2   8   78.60    3.00
  -2  -2   8   78.29    2.68
   1   2  -8  289.00    8.64
   1   2  -8  294.65    8.71
   1   2  -8  286.40    8.58
   1   2  -8  289.29    8.67
   1   2  -8  290.20    8.76
  -1  -2   8  292.45    8.57
  -1  -2   8  284.50    8.69
  -1  -2   8  296.98    8.68
  -1  -2   8  289.30    8.69
  -1  -2   8  289.80    8.98
   0   2  -8    6.05    0.59
   0   2  -8    5.62    0.64
   0   2  -8    4.95    0.72
   0   2  -8    6.69    0.86
   0  -2   8    6.30    0.90
   0  -2   8    6.01    0.80
   0  -2   8    5.66    0.53
   0  -2   8    8.34    0.76
  -1   2  -8  313.38    9.24
  -1   2  -8  314.95    9.47
  -1   2  -8  316.73    9.58
  -1   2  -8  295.00    9.31
  -1   2  -8  313.37    9.40
   1  -2   8  319.06    9.35
   1  -2   8  323.82    9.41
   1  -2   8  290.48    9.38
   1  -2   8  311.08    9.02
  -2   2  -8  149.81    4.60
  -2   2  -8  141.45    4.80
  -2   2  -8  150.26    5.05
   2  -2   8  157.29    4.88
   2  -2   8  137.81    4.87
   2  -2   8  151.52    4.80
   2  -2   8  141.45    4.63
  -3   2  -8   44.25    2.07
  -3   2  -8   47.73    2.27
  -3   2  -8   41.60    1.67
   3  -2   8   47.64    2.04
   3  -2   8   45.75    2.09
  -4   2  -8  144.59    5.32
  -4   2  -8  139.20    4.82
   4  -2   8  143.73    5.01
   4  -2   8  149.68    4.96
  -5   2  -8    1.73    1.00
  -5   2  -8    3.79    1.34
   7   1  -8    5.10    1.02
   6   1  -8  196.82    6.34
  -6  -1   8  190.87    6.38
  -6  -1   8  205.60    6.38
   5   1  -8   68.61    2.63
  -5  -1   8   69.39    2.67
  -5  -1   8   72.57    2.76
   4   1  -8   69.80    2.44
   4   1  -8   71.01    2.60
   4   1  -8   73.05    2.43
  -4  -1   8   73.26    2.79
  -4  -1   8   71.25    2.60
  -4  -1   8   69.35    2.40
   3   1  -8  204.16    6.33
   3   1  -8  205.48    6.39
   3   1  -8  214.83    6.32
  -3  -1   8  206.58    6.28
  -3  -1   8  206.65    6.37
  -3  -1   8  209.15    6.61
   2   1  -8   36.19    1.62
   2   1  -8   39.21    1.55
   2   1  -8   39.52    1.55
   2   1  -8   36.66    1.35
   2   1  -8   38.14    1.60
  -2  -1   8   41.09    1.88
  -2  -1   8   39.84    1.52
  -2  -1   8   36.77    1.56
   1   1  -8  131.35    4.04
   1   1  -8  127.19    4.25
   1   1  -8  140.00    4.25
   1   1  -8  128.68    4.15
  -1  -1   8  130.14    4.22
  -1  -1   8  132.83    4.13
  -1  -1   8  131.26    4.09
  -1  -1   8  130.36    4.22
   0   1  -8    9.00    0.90
   0   1  -8    8.48    0.75
   0   1  -8    8.75    0.67
   0   1  -8    7.78    0.75
   0  -1   8   11.47    0.91
   0  -1   8    8.68    0.61
   0  -1   8   11.58    0.78
   0  -1   8    8.83    0.99
  -1   1  -8    5.36    0.75
  -1   1  -8    5.84    0.92
  -1   1  -8    4.36    0.64
   1  -1   8    4.83    0.71
   1  -1   8    5.81    0.71
   1  -1   8    5.30    0.50
   1  -1   8    6.24    0.85
  -2   1  -8   22.34    1.33
  -2   1  -8   20.10    1.06
  -2   1  -8   19.69    1.83
   2  -1   8   20.66    1.54
   2  -1   8   22.29    1.36
   2  -1   8   22.18    1.27
   2  -1   8   25.36    1.29
  -3   1  -8   24.39    1.55
  -3   1  -8   25.06    1.75
   3  -1   8   24.48    1.56
   3  -1   8   26.45    1.48
  -4   1  -8  132.40    4.35
  -4   1  -8  127.38    4.99
   4  -1   8  130.65    4.50
   4  -1   8  125.77    4.57
   7   0  -8    6.03    1.06
  -7   0   8    5.83    1.40
   6   0  -8   36.82    1.90
  -6   0   8   38.21    1.90
  -6   0   8   37.20    1.99
   5   0  -8    3.18    0.53
   5   0  -8    3.44    0.68
   5   0  -8    3.25    0.57
  -5   0   8    3.90    0.78
  -5   0   8    2.64    0.69
   4   0  -8   48.12    1.84
   4   0  -8   47.46    1.89
   4   0  -8   49.49    1.99
  -4   0   8   46.62    1.88
  -4   0   8   52.08    2.14
  -4   0   8   50.04    2.00
   3   0  -8  189.58    5.96
   3   0  -8  204.59    6.79
  -3   0   8  193.49    6.02
  -3   0   8  187.83    6.16
   2   0  -8    8.16    0.80
   2   0  -8    8.16    0.69
   2   0  -8    7.54    0.80
   2   0  -8    7.75    0.72
  -2   0   8    8.36    1.06
  -2   0   8    7.29    0.86
  -2   0   8    8.01    0.69
  -2   0   8    9.41    1.00
   1   0  -8  322.36    9.43
   1   0  -8  328.52    9.68
   1   0  -8  323.77    9.58
  -1   0   8  333.26    9.68
  -1   0   8  323.38    9.54
  -1   0   8  313.98    9.64
  -1   0   8  317.48    9.49
   0   0  -8  182.55    5.82
   0   0  -8  193.01    5.82
   0   0  -8  186.11    5.63
   0   0  -8  180.84    5.60
   0   0   8  185.37    5.65
   0   0   8  182.55    5.56
   0   0   8  172.60    5.76
   0   0   8  193.41    5.83
  -1   0  -8    7.87    0.86
  -1   0  -8    7.27    1.05
  -1   0  -8    7.14    0.64
  -1   0  -8    8.62    0.90
   1   0   8    7.96    1.11
   1   0   8    8.75    0.97
   1   0   8    6.48    0.74
   1   0   8    8.50    0.60
  -2   0  -8  233.91    7.60
  -2   0  -8  228.19    7.11
  -2   0  -8  220.66    6.76
   2   0   8  223.46    6.89
   2   0   8  226.16    7.23
   2   0   8  227.81    6.99
   2   0   8  224.86    7.12
  -3   0  -8   28.62    1.76
  -3   0  -8   31.04    2.12
   3   0   8   28.08    1.59
   3   0   8   30.03    1.73
  -4   0  -8   34.06    1.88
  -4   0  -8   28.03    2.38
   4   0   8   27.14    1.94
   4   0   8   28.70    1.84
  -6   1   8   60.51    2.66
  -5   1   8  106.04    3.79
  -5   1   8  108.10    3.59
   4  -1  -8    4.53    0.64
  -4   1   8    6.54    1.03
  -4   1   8    5.59    0.82
  -4   1   8    5.32    0.83
   3  -1  -8    3.65    0.60
  -3   1   8    4.38    0.63
  -3   1   8    3.16    0.54
   2  -1  -8    7.09    0.81
   2  -1  -8    8.08    0.92
  -2   1   8    8.03    0.73
  -2   1   8    6.89    0.86
   1  -1  -8   46.72    2.01
   1  -1  -8   47.56    1.93
   1  -1  -8   55.02    1.88
   1  -1  -8   46.40    1.81
  -1   1   8   48.22    1.81
  -1   1   8   48.16    1.97
  -1   1   8   49.80    1.74
   0  -1  -8   17.31    1.00
   0  -1  -8   18.91    0.94
   0  -1  -8   18.25    1.15
   0  -1  -8   14.72    1.19
   0   1   8   16.78    0.89
   0   1   8   17.62    1.17
   0   1   8   17.42    1.34
   0   1   8   18.01    0.95
  -1  -1  -8    7.26    0.68
  -1  -1  -8    5.73    0.88
  -1  -1  -8    8.98    0.97
   1   1   8    7.14    0.97
   1   1   8    7.13    0.78
   1   1   8    6.99    0.64
   1   1   8    7.89    1.23
  -2  -1  -8  171.76    6.13
  -2  -1  -8  171.02    5.57
   2   1   8  176.75    5.60
   2   1   8  166.46    5.38
   2   1   8  171.43    5.41
   2   1   8  163.59    5.58
   2   1   8  165.98    5.10
  -3  -1  -8   28.32    2.29
   3   1   8   29.86    1.66
   3   1   8   27.69    1.76
  -4  -1  -8   88.01    4.58
   4   1   8   81.56    3.46
   4   1   8   86.49    3.40
   6  -2  -8   17.35    1.35
  -6   2   8   17.05    1.68
   5  -2  -8  131.24    4.27
  -5   2   8  127.68    4.46
   4  -2  -8   25.58    1.35
  -4   2   8   24.29    1.43
  -4   2   8   25.04    1.41
   3  -2  -8  196.12    5.88
   3  -2  -8  183.79    5.84
  -3   2   8  165.14    6.09
  -3   2   8  192.38    5.86
  -3   2   8  185.33    5.92
   2  -2  -8  241.18    7.61
   2  -2  -8  229.20    7.19
   2  -2  -8  245.72    7.40
  -2   2   8  239.12    7.31
  -2   2   8  239.00    7.36
   1  -2  -8   29.91    1.30
   1  -2  -8   27.76    1.56
  -1   2   8   30.43    1.53
  -1   2   8   29.83    1.22
  -1   2   8   29.58    1.34
   0  -2  -8  148.78    4.48
   0  -2  -8  147.74    4.59
   0  -2  -8  148.51    4.83
   0  -2  -8  134.75    4.82
   0   2   8  147.08    4.57
   0   2   8  151.33    4.84
   0   2   8  142.79    5.09
   0   2   8  148.16    4.60
  -1  -2  -8   15.45    0.90
  -1  -2  -8   13.21    1.26
   1   2   8   17.26    1.53
   1   2   8   15.37    0.93
   1   2   8   14.86    1.27
  -2  -2  -8    0.68    0.99
  -2  -2  -8    0.05    0.74
   2   2   8    1.68    0.46
   2   2   8    1.78    0.58
   2   2   8   -0.20    0.67
  -3  -2  -8   33.90    2.67
   3   2   8   34.78    1.88
   3   2   8   35.23    2.12
   5  -3  -8   13.33    1.26
  -5   3   8    8.98    1.34
   4  -3  -8    0.23    0.57
  -4   3   8    0.75    0.63
   3  -3  -8   22.67    1.37
  -3   3   8   18.59    1.44
  -3   3   8   20.33    1.30
  -3   3   8   20.88    1.54
   2  -3  -8   64.04    2.61
   2  -3  -8   68.42    2.59
   2  -3  -8   58.42    2.31
  -2   3   8   66.13    2.46
  -2   3   8   67.97    2.60
   1  -3  -8    3.88    0.52
   1  -3  -8    4.41    1.01
   1  -3  -8    4.72    0.83
  -1   3   8    4.58    0.66
  -1   3   8    3.98    0.79
  -1   3   8    4.30    0.61
   0   3   8  188.45    5.99
   0   3   8  181.60    5.65
   0   3   8  179.80    5.72
  -1  -3  -8   43.95    1.74
  -1  -3  -8   45.69    2.22
   1   3   8   46.89    2.19
   1   3   8   45.22    1.92
   1   3   8   45.02    1.84
  -2  -3  -8  103.65    4.63
   2   3   8  105.69    3.93
   2   3   8   96.16    3.57
   2   3   8  103.56    3.64
   3   3   8  111.29    4.19
   3   3   8  121.64    4.46
   5  -4  -8   85.57    4.21
  -5   4   8   71.31    3.24
   4  -4  -8   90.44    3.41
  -4   4   8   87.90    3.36
   3  -4  -8    3.61    0.81
  -3   4   8    2.00    0.67
   2  -4  -8  187.04    6.12
  -2   4   8  186.43    6.09
  -2   4   8  184.18    5.96
   1  -4  -8   17.11    1.45
  -1   4   8   16.36    1.20
  -1   4   8   12.60    0.99
  -1   4   8   17.78    1.54
   0   4   8    9.22    1.07
   0   4   8    8.66    1.14
   0   4   8    9.22    0.99
  -1  -4  -8    1.58    0.94
   1   4   8    0.86    0.87
   1   4   8    1.24    0.66
   1   4   8   -0.49    0.60
   2   4   8   11.32    1.48
   2   4   8    6.23    1.23
   2   4   8    9.80    1.04
   4  -5  -8   39.99    2.65
   3  -5  -8    2.04    0.92
  -3   5   8    2.63    0.83
   2  -5  -8  110.57    4.10
  -2   5   8  102.36    3.83
   1  -5  -8   44.07    2.39
  -1   5   8   42.19    2.06
  -1   5   8   39.63    2.48
   0   5   8   40.06    2.51
   0   5   8   37.53    2.03
   0   5   8   41.79    1.89
   1   5   8  149.26    4.99
   1   5   8  147.17    4.95
   1   5   8  146.33    5.43
   2  -6  -8    1.59    1.27
   1  -6  -8    5.53    1.32
   0   6   8    4.70    1.54
  -3  -9   9   38.43    3.34
  -2  -9   9   33.07    3.09
  -1  -9   9   -0.82    1.24
  -1  -9   9    1.11    1.68
   0   9  -9   93.89    3.59
   0  -9   9   85.06    3.76
  -1   9  -9   69.20    3.05
   1  -9   9   65.51    3.25
  -2   9  -9   36.85    2.41
   2  -9   9   35.16    2.68
  -4  -8   9   67.77    3.76
   3   8  -9    0.51    0.77
   3   8  -9    1.06    0.78
  -3  -8   9    2.11    1.33
  -3  -8   9    2.15    1.54
   2   8  -9   24.98    1.60
   2   8  -9   25.35    1.66
  -2  -8   9   26.98    2.37
  -2  -8   9   22.91    2.11
   1   8  -9    3.12    0.79
   1   8  -9    1.68    0.68
  -1  -8   9    2.25    1.08
  -1  -8   9    3.63    1.35
   0   8  -9   25.82    1.58
   0   8  -9   26.53    1.69
   0  -8   9   24.89    2.07
  -1   8  -9    2.74    0.79
  -1   8  -9    1.94    0.78
   1  -8   9    3.24    1.12
  -2   8  -9   13.07    1.68
  -2   8  -9   16.46    1.50
   2  -8   9   16.06    2.07
   2  -8   9   16.67    2.31
   3  -8   9   30.68    2.62
   3  -8   9   34.09    2.66
   5   7  -9   13.04    1.74
  -5  -7   9   11.51    2.25
   4   7  -9  123.33    4.34
   4   7  -9  125.21    4.16
  -4  -7   9  123.73    4.64
  -4  -7   9  120.78    4.86
   3   7  -9    0.21    0.68
   3   7  -9    1.65    0.65
  -3  -7   9   -0.38    1.15
  -3  -7   9   -1.25    1.03
   2   7  -9  181.16    5.66
   2   7  -9  174.56    5.69
  -2  -7   9  169.65    6.01
   1   7  -9   75.56    2.93
   1   7  -9   77.65    2.98
  -1  -7   9   83.86    3.34
  -1  -7   9   79.93    3.30
   0   7  -9   29.43    1.59
   0   7  -9   31.42    1.67
   0  -7   9   27.16    1.84
   0  -7   9   32.54    2.01
  -1   7  -9  163.59    5.31
  -1   7  -9  154.04    5.18
   1  -7   9  159.98    5.36
   1  -7   9  153.57    5.44
  -2   7  -9    9.63    1.12
  -2   7  -9    6.69    0.98
   2  -7   9    9.44    1.29
   2  -7   9    7.70    1.30
  -3   7  -9   12.13    1.45
  -3   7  -9    8.70    1.23
   3  -7   9   13.39    1.94
   3  -7   9   11.57    1.58
  -4   7  -9   20.18    1.97
   4  -7   9   13.04    2.96
   4  -7   9   16.84    2.71
   5   6  -9   17.60    1.61
  -5  -6   9   17.76    2.35
  -5  -6   9   15.36    2.18
   4   6  -9   16.36    1.23
   4   6  -9   20.48    1.46
  -4  -6   9   20.47    1.97
  -4  -6   9   20.30    2.08
   3   6  -9   18.99    1.36
   3   6  -9   21.62    1.28
  -3  -6   9   21.30    1.64
  -3  -6   9   19.42    1.77
   2   6  -9    6.85    0.89
   2   6  -9    7.18    0.93
  -2  -6   9    8.28    1.04
  -2  -6   9    6.82    1.07
   1   6  -9   48.56    2.05
   1   6  -9   50.06    2.06
   1   6  -9   47.41    2.43
  -1  -6   9   46.12    2.13
  -1  -6   9   54.24    2.26
  -1  -6   9   47.25    2.36
   0   6  -9   19.07    1.28
   0   6  -9   20.96    1.24
   0   6  -9   19.92    1.70
   0  -6   9   18.39    1.47
   0  -6   9   19.72    1.61
  -1   6  -9  202.24    6.32
  -1   6  -9  199.54    6.41
   1  -6   9  200.98    6.65
   1  -6   9  196.28    6.45
  -2   6  -9    0.13    0.57
  -2   6  -9    1.48    0.70
  -2   6  -9    0.51    0.55
   2  -6   9    0.29    1.09
   2  -6   9    2.20    1.05
  -3   6  -9   84.93    3.42
  -3   6  -9   91.65    3.19
   3  -6   9   81.63    3.53
   3  -6   9   78.07    3.48
   3  -6   9   83.68    3.71
  -4   6  -9   79.60    3.13
   4  -6   9   76.62    3.54
   6   5  -9   82.29    3.35
   5   5  -9   11.32    1.31
  -5  -5   9    8.17    1.46
   4   5  -9  142.93    4.76
   4   5  -9  146.70    4.52
  -4  -5   9  138.58    4.65
  -4  -5   9  138.99    5.11
   3   5  -9  132.13    4.46
   3   5  -9  133.90    4.50
   3   5  -9  135.96    4.35
  -3  -5   9  132.40    4.67
  -3  -5   9  139.56    4.87
   2   5  -9   22.06    1.20
   2   5  -9   21.61    1.25
   2   5  -9   20.38    1.44
  -2  -5   9   21.38    1.60
   1   5  -9  214.83    6.53
   1   5  -9  195.24    6.62
   1   5  -9  215.30    6.57
  -1  -5   9  214.45    6.85
  -1  -5   9  204.81    6.51
   0   5  -9   19.01    1.18
   0   5  -9   17.79    1.12
   0   5  -9   15.49    1.45
   0   5  -9   17.70    1.18
   0  -5   9   18.26    1.51
   0  -5   9   18.32    1.33
  -1   5  -9   25.48    1.19
  -1   5  -9   20.34    1.86
  -1   5  -9   21.57    1.63
  -1   5  -9   22.89    1.24
  -1   5  -9   23.34    1.29
   1  -5   9   24.15    1.56
   1  -5   9   24.12    1.78
   1  -5   9   22.49    1.54
  -2   5  -9    8.36    0.95
  -2   5  -9    8.77    0.97
  -2   5  -9    8.07    1.00
   2  -5   9   10.04    1.31
   2  -5   9    9.13    1.18
  -3   5  -9    9.91    1.13
  -3   5  -9    8.23    1.18
  -3   5  -9    9.68    1.38
   3  -5   9    8.46    1.20
   3  -5   9    7.06    1.20
  -4   5  -9   43.72    2.41
   4  -5   9   43.00    2.55
   6   4  -9    1.15    0.93
  -6  -4   9    1.19    1.28
  -5  -4   9    4.09    1.15
   4   4  -9   74.79    2.88
   4   4  -9   73.68    2.71
   4   4  -9   77.17    3.26
   4   4  -9   75.75    2.87
   4   4  -9   80.00    2.65
  -4  -4   9   75.29    3.19
   3   4  -9   13.99    0.93
   3   4  -9   13.12    1.02
   3   4  -9   12.16    1.12
   3   4  -9   13.41    1.17
   3   4  -9   11.26    1.29
  -3  -4   9   11.74    1.41
  -3  -4   9   11.57    1.11
   2   4  -9   10.47    1.13
   2   4  -9   12.43    0.91
   2   4  -9   10.57    0.90
   2   4  -9   12.92    1.19
  -2  -4   9   10.89    1.06
  -2  -4   9   11.05    1.29
   1   4  -9  150.07    4.78
   1   4  -9  140.37    4.91
   1   4  -9  155.45    4.86
  -1  -4   9  155.57    5.18
  -1  -4   9  147.40    4.82
   0   4  -9   97.99    3.60
   0   4  -9   99.69    3.30
   0   4  -9   99.41    3.46
   0   4  -9   98.40    3.31
   0  -4   9   98.25    3.51
   0  -4   9  101.26    3.48
   0  -4   9  100.58    3.77
  -1   4  -9  159.66    5.10
  -1   4  -9  150.95    5.21
  -1   4  -9  150.91    5.35
  -1   4  -9  167.42    5.23
   1  -4   9  160.22    5.23
   1  -4   9  163.96    5.24
  -2   4  -9  185.32    5.92
  -2   4  -9  181.03    5.87
  -2   4  -9  172.24    5.90
   2  -4   9  185.67    5.94
   2  -4   9  181.48    5.94
  -3   4  -9    2.02    0.76
  -3   4  -9    2.02    0.75
  -3   4  -9    2.48    0.75
   3  -4   9    1.67    0.96
   3  -4   9    4.14    0.96
  -4   4  -9   80.83    3.44
   4  -4   9   80.52    3.50
   4  -4   9   72.27    3.40
   6   3  -9   99.02    3.77
  -6  -3   9  104.60    4.11
   5   3  -9  111.10    3.90
  -5  -3   9  111.45    4.19
   4   3  -9   11.55    1.09
   4   3  -9   11.99    1.03
   4   3  -9   14.40    1.58
   4   3  -9   12.27    0.89
   4   3  -9   13.63    1.07
  -4  -3   9   12.98    1.47
   3   3  -9  134.30    4.33
   3   3  -9  130.87    4.36
   3   3  -9  138.20    4.21
   3   3  -9  131.31    4.23
  -3  -3   9  131.57    4.65
  -3  -3   9  129.15    4.28
  -3  -3   9  132.18    4.24
   2   3  -9   12.90    0.89
   2   3  -9   12.94    0.90
   2   3  -9   11.18    1.10
   2   3  -9   13.13    1.00
  -2  -3   9   11.91    0.85
  -2  -3   9   10.66    1.01
  -2  -3   9    7.26    1.58
   1   3  -9    0.49    0.41
   1   3  -9    0.72    0.40
   1   3  -9    1.33    0.51
   1   3  -9    0.48    0.56
   1   3  -9    1.04    0.53
  -1  -3   9    1.71    0.54
   0   3  -9   21.38    1.17
   0   3  -9   19.38    1.32
   0   3  -9   20.57    1.13
   0   3  -9   20.21    1.45
   0   3  -9   21.65    1.22
   0  -3   9   22.15    1.37
   0  -3   9   22.83    1.30
  -1   3  -9   32.05    1.92
  -1   3  -9   33.83    1.65
  -1   3  -9   33.17    1.64
  -1   3  -9   33.27    1.50
   1  -3   9   34.03    1.74
   1  -3   9   33.06    1.66
  -2   3  -9   42.00    1.71
  -2   3  -9   39.64    1.94
  -2   3  -9   42.13    1.99
   2  -3   9   40.62    2.05
   2  -3   9   40.82    1.94
   2  -3   9   35.56    1.91
  -3   3  -9    3.17    0.64
  -3   3  -9    2.90    0.90
  -3   3  -9    1.97    0.82
   3  -3   9    3.20    0.82
   3  -3   9    3.96    0.92
  -4   3  -9  111.89    4.42
   4  -3   9  110.68    4.24
   4  -3   9  111.74    4.22
   6   2  -9   11.34    1.44
  -6  -2   9   14.26    1.89
   5   2  -9   98.28    3.48
  -5  -2   9   91.90    3.45
  -5  -2   9   98.42    3.70
   4   2  -9   14.55    0.94
   4   2  -9   13.91    1.11
   4   2  -9   14.34    1.08
  -4  -2   9   14.56    1.48
  -4  -2   9   14.02    1.09
   3   2  -9  238.93    7.20
   3   2  -9  238.28    7.25
   3   2  -9  238.98    7.30
  -3  -2   9  230.92    7.16
  -3  -2   9  234.14    7.88
  -3  -2   9  239.50    7.25
   2   2  -9   71.75    2.68
   2   2  -9   71.89    2.45
  -2  -2   9   74.00    2.95
  -2  -2   9   73.83    2.63
  -2  -2   9   73.87    2.55
   1   2  -9   80.48    2.87
   1   2  -9   81.24    2.82
   1   2  -9   85.75    2.95
   1   2  -9   83.96    3.03
  -1  -2   9   83.87    2.90
  -1  -2   9   83.85    2.78
  -1  -2   9   83.87    2.95
  -1  -2   9   84.33    3.26
   0   2  -9  258.97    8.32
   0   2  -9  292.53    8.49
   0   2  -9  268.51    8.53
   0   2  -9  274.60    8.35
   0  -2   9  278.98    8.18
   0  -2   9  285.62    8.48
   0  -2   9  280.84    8.41
  -1   2  -9    0.47    0.43
  -1   2  -9    0.25    0.46
  -1   2  -9   -0.70    0.54
  -1   2  -9    0.90    0.74
   1  -2   9   -0.01    0.58
   1  -2   9    1.09    0.77
   1  -2   9    0.69    0.31
  -2   2  -9   94.38    3.56
  -2   2  -9   91.89    3.06
  -2   2  -9   90.17    3.32
   2  -2   9   82.02    3.10
   2  -2   9   94.45    3.28
   2  -2   9   86.92    3.68
  -3   2  -9   43.93    2.34
  -3   2  -9   45.24    2.22
  -3   2  -9   38.19    1.67
   3  -2   9   40.98    2.22
   3  -2   9   46.43    2.14
  -4   2  -9    0.85    0.89
  -4   2  -9    1.31    1.22
   4  -2   9    1.07    1.01
   4  -2   9    1.41    1.07
   6   1  -9    1.18    0.84
  -6  -1   9    2.17    0.86
  -6  -1   9    2.30    1.07
   5   1  -9   90.66    3.00
   5   1  -9   92.32    3.30
  -5  -1   9   81.74    3.24
  -5  -1   9   92.20    3.44
   4   1  -9   21.69    1.29
   4   1  -9   19.81    1.26
   4   1  -9   22.74    1.17
  -4  -1   9   19.94    1.25
  -4  -1   9   19.24    1.31
  -4  -1   9   20.65    1.59
   3   1  -9    3.88    0.58
   3   1  -9    4.96    0.71
   3   1  -9    3.13    0.64
  -3  -1   9    3.28    0.64
  -3  -1   9    5.17    0.91
  -3  -1   9    3.24    0.56
   2   1  -9    1.55    0.38
   2   1  -9    1.36    0.56
   2   1  -9    1.12    0.53
  -2  -1   9    0.77    0.77
  -2  -1   9    1.35    0.41
  -2  -1   9    1.53    0.54
   1   1  -9   34.54    1.48
   1   1  -9   32.17    1.66
   1   1  -9   32.16    1.39
   1   1  -9   34.90    1.56
  -1  -1   9   33.21    1.39
  -1  -1   9   35.51    1.61
  -1  -1   9   34.12    1.46
   0   1  -9  167.56    5.25
   0   1  -9  158.14    5.23
   0   1  -9  169.61    5.41
   0  -1   9  169.71    5.13
   0  -1   9  171.08    5.42
   0  -1   9  174.44    5.31
  -1   1  -9    0.24    0.51
  -1   1  -9    0.85    0.60
  -1   1  -9    1.76    0.45
  -1   1  -9    0.82    0.74
   1  -1   9    2.85    0.77
   1  -1   9    1.18    0.60
   1  -1   9    1.00    0.34
  -2   1  -9  168.91    5.78
  -2   1  -9  164.48    5.44
  -2   1  -9  164.88    5.10
   2  -1   9  171.76    5.47
   2  -1   9  166.25    5.33
   2  -1   9  146.42    5.47
  -3   1  -9   76.68    3.47
  -3   1  -9   80.47    3.26
   3  -1   9   76.91    3.16
   3  -1   9   81.01    3.11
  -4   1  -9    8.59    1.51
  -4   1  -9    9.93    1.57
   4  -1   9   10.83    1.50
   6   0  -9    0.79    0.75
  -6   0   9    0.21    0.83
  -6   0   9    0.57    0.98
   5   0  -9  160.36    5.36
   5   0  -9  164.87    5.11
  -5   0   9  162.38    5.34
  -5   0   9  161.02    5.37
   4   0  -9  112.82    3.92
   4   0  -9  117.26    3.80
   4   0  -9  115.32    4.25
  -4   0   9  111.23    3.89
  -4   0   9  115.83    4.06
   3   0  -9   66.00    2.54
   3   0  -9   65.25    2.44
   3   0  -9   65.15    2.49
  -3   0   9   65.59    2.46
  -3   0   9   69.27    2.51
  -3   0   9   66.95    2.74
   2   0  -9  237.54    7.43
   2   0  -9  238.21    7.39
   2   0  -9  239.32    7.46
  -2   0   9  251.71    7.72
  -2   0   9  242.90    7.43
   1   0  -9   15.84    1.27
   1   0  -9   15.85    1.06
   1   0  -9   14.60    0.90
   1   0  -9   14.46    0.95
  -1   0   9   13.04    1.17
  -1   0   9   16.42    0.96
  -1   0   9   14.51    0.90
   0   0  -9  131.28    4.26
   0   0  -9  121.79    4.30
   0   0  -9  116.31    4.00
   0   0  -9  126.60    4.04
   0   0   9  129.53    4.07
   0   0   9  127.29    4.26
   0   0   9  125.67    3.95
  -1   0  -9   34.72    1.72
  -1   0  -9   32.73    1.43
   1   0   9   32.56    1.75
   1   0   9   32.88    1.33
   1   0   9   29.70    1.58
  -2   0  -9    3.71    0.64
  -2   0  -9    3.50    0.78
  -2   0  -9    3.54    1.07
   2   0   9    4.22    0.75
   2   0   9    4.94    0.90
  -3   0  -9    8.46    1.48
   3   0   9    8.64    1.05
   3   0   9    7.01    1.13
   6  -1  -9   10.24    1.24
   6  -1  -9    8.02    1.21
  -6   1   9    7.49    1.19
   5  -1  -9   12.94    1.15
  -5   1   9   13.51    1.37
  -5   1   9   14.22    1.40
   4  -1  -9    0.96    0.52
  -4   1   9    1.90    0.63
  -4   1   9    3.16    0.87
   3  -1  -9   27.17    1.40
   3  -1  -9   25.53    1.66
  -3   1   9   26.24    1.37
  -3   1   9   25.54    1.52
  -3   1   9   23.92    1.69
   2  -1  -9   80.08    2.93
   2  -1  -9   82.25    2.87
   2  -1  -9   81.62    3.03
  -2   1   9   80.62    2.84
  -2   1   9   78.22    2.95
   1  -1  -9   18.56    1.54
   1  -1  -9   23.45    1.52
   1  -1  -9   16.30    1.14
  -1   1   9   18.77    1.49
  -1   1   9   18.80    1.03
  -1   1   9   22.76    1.38
   0  -1  -9  180.87    5.67
   0  -1  -9  187.82    5.70
   0  -1  -9  182.50    5.95
   0  -1  -9  179.01    5.99
   0   1   9  187.04    5.70
   0   1   9  183.33    5.66
   0   1   9  188.20    5.96
  -1  -1  -9  170.79    5.55
  -1  -1  -9  169.29    5.19
   1   1   9  160.31    6.01
   1   1   9  169.26    5.32
   1   1   9  166.06    5.14
  -2  -1  -9   14.19    1.53
  -2  -1  -9   11.01    1.81
   2   1   9   12.58    0.93
   2   1   9   12.72    1.23
   2   1   9   12.29    1.51
  -3  -1  -9  140.75    5.68
   3   1   9  130.40    4.91
   3   1   9  142.22    4.78
  -5   2   9   37.58    2.04
  -4   2   9  170.10    5.46
  -4   2   9  167.13    5.52
  -3   2   9    1.59    0.95
  -3   2   9    1.41    0.84
  -3   2   9    2.57    0.61
  -2   2   9   14.26    1.06
  -2   2   9   12.10    1.31
   1  -2  -9   42.49    2.22
   1  -2  -9   44.91    2.05
   1  -2  -9   45.47    1.87
  -1   2   9   46.37    2.13
  -1   2   9   44.78    1.84
  -1   2   9   44.38    1.73
   0  -2  -9    2.85    0.63
   0  -2  -9    2.45    1.02
   0   2   9    2.10    0.54
   0   2   9    2.60    0.77
   0   2   9    3.82    0.60
  -1  -2  -9    0.24    0.56
  -1  -2  -9    1.73    0.82
   1   2   9    0.52    0.59
   1   2   9    1.96    0.77
  -2  -2  -9    1.94    1.32
   2   2   9    0.23    0.74
   2   2   9    0.25    0.87
   3   2   9   68.68    3.41
   4  -3  -9   97.92    3.61
  -4   3   9   93.40    3.55
   3  -3  -9   10.43    1.32
  -3   3   9    7.94    1.16
  -3   3   9    9.88    1.28
  -2   3   9  126.64    4.32
  -2   3   9  129.82    4.50
  -1   3   9  141.98    4.44
  -1   3   9  141.04    4.88
  -1   3   9  141.43    4.65
   0  -3  -9    3.57    0.71
   0  -3  -9    3.10    0.91
   0   3   9    3.05    0.89
   0   3   9    3.07    0.72
   0   3   9    3.73    0.67
  -1  -3  -9  133.93    4.78
   1   3   9  129.43    4.34
   1   3   9  129.85    4.26
   1   3   9  122.60    4.68
   2   3   9   29.07    2.32
   2   3   9   31.02    1.97
   3  -4  -9    4.65    1.03
   2  -4  -9    3.70    1.05
  -2   4   9    2.50    0.75
  -1   4   9   27.32    1.68
  -1   4   9   27.90    2.44
   0  -4  -9   16.20    1.91
   0  -4  -9   12.06    1.34
   0   4   9   13.68    1.34
   0   4   9   10.21    1.35
   0   4   9    9.88    1.32
   1   4   9   64.42    2.74
   1   4   9   62.52    2.65
   1   4   9   66.15    3.25
   2  -5  -9   -0.58    1.10
  -2  -9  10   54.05    3.62
  -1  -9  10  154.09    5.90
   0  -9  10   -3.07    1.85
  -3  -8  10   -0.98    2.35
   2   8 -10   33.99    2.21
   2   8 -10   32.11    2.29
  -2  -8  10   30.53    2.59
  -2  -8  10   25.70    2.43
   1   8 -10   23.76    1.73
   1   8 -10   23.89    1.68
  -1  -8  10   25.91    2.50
  -1  -8  10   21.41    2.26
   0   8 -10    3.85    0.93
   0   8 -10    4.46    0.98
   0  -8  10    4.95    1.37
   0  -8  10    3.61    1.54
  -1   8 -10   91.41    3.62
  -1   8 -10   92.41    3.88
   1  -8  10   84.34    3.83
  -2   8 -10   95.48    3.81
   2  -8  10   89.69    4.07
   4   7 -10   39.46    2.70
   3   7 -10  104.18    3.65
   3   7 -10  104.83    3.78
  -3  -7  10  106.22    3.97
  -3  -7  10   91.91    4.14
   2   7 -10   10.69    1.27
   2   7 -10   14.46    1.32
  -2  -7  10   13.62    2.09
  -2  -7  10    7.68    1.51
   1   7 -10   37.91    1.93
   1   7 -10   37.45    1.95
  -1  -7  10   36.53    2.35
  -1  -7  10   42.78    2.37
   0   7 -10   21.22    1.48
   0   7 -10   21.42    1.58
   0  -7  10   19.22    1.94
  -1   7 -10    0.69    0.79
  -1   7 -10    0.43    0.70
   1  -7  10    3.09    1.21
  -2   7 -10    2.72    0.93
  -2   7 -10    2.17    0.99
   2  -7  10    1.57    1.14
   2  -7  10   -0.86    1.29
  -3   7 -10    4.63    1.11
   3  -7  10    3.40    1.63
   3  -7  10    3.06    1.37
   4   6 -10    6.98    0.88
   4   6 -10    7.07    1.07
  -4  -6  10    5.82    1.44
   3   6 -10  115.63    3.88
   3   6 -10  111.67    4.02
  -3  -6  10  110.21    4.40
   2   6 -10    0.67    0.57
   2   6 -10    1.95    0.63
  -2  -6  10    2.56    1.09
   1   6 -10  129.45    4.54
   1   6 -10  135.85    4.56
  -1  -6  10  127.33    4.87
  -1  -6  10  147.17    4.55
   0   6 -10   69.12    2.69
   0   6 -10   68.88    2.74
   0  -6  10   67.93    2.87
   0  -6  10   68.60    3.08
  -1   6 -10    1.20    0.63
  -1   6 -10    1.35    0.74
   1  -6  10    1.62    1.14
   1  -6  10    3.30    0.96
  -2   6 -10  160.73    5.54
  -2   6 -10  165.20    5.35
   2  -6  10  155.38    5.59
   2  -6  10  166.78    5.86
  -3   6 -10   26.72    1.82
   3  -6  10   21.98    2.62
   3  -6  10   16.67    2.32
   5   5 -10  107.74    3.89
  -5  -5  10   97.72    4.35
   4   5 -10    4.95    0.73
   4   5 -10    4.24    0.83
  -4  -5  10    3.41    1.20
   3   5 -10   22.03    1.34
   3   5 -10   22.56    1.46
  -3  -5  10   24.98    2.00
   2   5 -10   13.99    1.10
   2   5 -10   12.41    1.13
  -2  -5  10   10.95    1.51
   1   5 -10    2.73    0.61
   1   5 -10    3.89    0.77
  -1  -5  10    4.43    0.87
  -1  -5  10    5.30    1.06
   0   5 -10   19.34    1.06
   0   5 -10   18.58    1.31
   0   5 -10   19.20    1.24
   0   5 -10   14.72    1.38
   0  -5  10   19.23    1.56
   0  -5  10   17.66    1.70
  -1   5 -10    6.74    0.90
  -1   5 -10    5.42    0.88
  -1   5 -10    5.47    0.80
   1  -5  10    5.11    1.23
   1  -5  10    4.51    1.03
   1  -5  10    6.40    1.07
  -2   5 -10   95.40    3.44
  -2   5 -10   95.57    3.62
  -2   5 -10   98.13    3.42
   2  -5  10   95.91    3.75
   2  -5  10   90.54    3.73
  -3   5 -10    3.75    0.98
  -3   5 -10    6.04    0.97
   3  -5  10    2.13    1.19
   3  -5  10    1.85    1.28
  -6  -4  10   13.12    2.82
   5   4 -10   35.96    2.04
  -5  -4  10   36.90    2.53
   4   4 -10   49.70    2.02
   4   4 -10   48.36    2.25
  -4  -4  10   54.11    2.73
   3   4 -10  137.03    4.34
   3   4 -10  128.81    4.37
   3   4 -10  130.71    4.45
  -3  -4  10  128.78    4.77
   2   4 -10  196.53    6.52
   2   4 -10  179.58    5.73
   2   4 -10  168.18    5.66
   2   4 -10  181.74    5.69
  -2  -4  10  180.80    6.07
  -2  -4  10  165.06    5.64
   1   4 -10   21.76    1.75
   1   4 -10   26.73    1.41
   1   4 -10   23.88    1.35
  -1  -4  10   23.69    1.73
  -1  -4  10   21.81    1.49
   0   4 -10  163.57    5.38
   0   4 -10  162.64    5.31
   0   4 -10  169.14    5.65
   0   4 -10  161.35    5.21
   0   4 -10  163.20    5.27
   0  -4  10  163.75    5.41
   0  -4  10  165.39    5.73
   0  -4  10  168.70    5.44
  -1   4 -10   28.21    1.66
  -1   4 -10   25.61    1.48
  -1   4 -10   30.46    3.25
  -1   4 -10   25.96    1.44
   1  -4  10   27.87    1.72
   1  -4  10   28.91    1.79
  -2   4 -10   17.57    1.43
  -2   4 -10   19.24    1.32
  -2   4 -10   18.53    1.55
   2  -4  10   18.07    1.78
   2  -4  10   17.04    1.60
  -3   4 -10   20.73    1.76
  -3   4 -10   21.37    1.50
   3  -4  10   16.14    1.95
   3  -4  10   21.74    1.91
  -4   4 -10    1.18    1.27
   6   3 -10    5.86    1.31
  -6  -3  10    4.66    1.56
   5   3 -10    8.98    1.27
   5   3 -10    7.64    1.02
  -5  -3  10    6.94    1.37
   4   3 -10   14.95    1.27
   4   3 -10   15.52    1.10
  -4  -3  10   13.23    1.75
   3   3 -10   19.87    1.17
   3   3 -10   18.76    1.25
   3   3 -10   17.43    1.23
  -3  -3  10   16.89    1.64
  -3  -3  10   18.54    1.19
   2   3 -10    3.82    0.63
   2   3 -10    6.02    0.76
   2   3 -10    4.30    0.87
   2   3 -10    3.54    0.63
  -2  -3  10    3.48    0.91
  -2  -3  10    4.13    0.77
  -2  -3  10    2.99    0.57
   1   3 -10    1.33    0.51
   1   3 -10    0.35    0.64
   1   3 -10    0.67    0.76
   1   3 -10    0.74    0.49
  -1  -3  10    0.46    0.91
  -1  -3  10    1.85    0.69
   0   3 -10   90.99    3.63
   0   3 -10   95.92    3.43
   0   3 -10  101.11    3.51
   0   3 -10   94.86    3.31
   0  -3  10   90.54    3.65
   0  -3  10   99.07    3.50
  -1   3 -10   61.56    2.57
  -1   3 -10   54.33    2.95
  -1   3 -10   61.25    2.37
   1  -3  10   63.80    2.66
   1  -3  10   62.69    2.55
  -2   3 -10   74.84    3.42
  -2   3 -10   76.53    3.11
   2  -3  10   74.38    3.04
   2  -3  10   74.59    3.15
  -3   3 -10  141.46    5.21
   3  -3  10  143.33    5.05
   3  -3  10  141.51    5.14
  -4   3 -10    2.76    1.50
   6   2 -10    9.96    1.49
  -6  -2  10    9.32    1.61
   5   2 -10   73.38    2.60
   5   2 -10   74.73    2.93
  -5  -2  10   65.63    2.82
  -5  -2  10   72.91    3.20
   4   2 -10  115.89    3.77
   4   2 -10  114.78    3.95
  -4  -2  10  113.64    4.25
  -4  -2  10  107.18    3.87
   3   2 -10    2.17    0.59
   3   2 -10    1.97    0.60
  -3  -2  10    1.68    0.56
  -3  -2  10    0.93    0.89
  -3  -2  10    1.08    0.73
   2   2 -10  191.63    5.95
   2   2 -10  193.13    6.26
   2   2 -10  205.79    6.20
   2   2 -10  199.32    6.18
  -2  -2  10  198.35    6.08
  -2  -2  10  184.38    6.22
  -2  -2  10  198.51    6.53
   1   2 -10   22.14    1.36
   1   2 -10   25.56    1.40
   1   2 -10   24.60    1.29
   1   2 -10   22.21    1.61
  -1  -2  10   27.27    1.84
  -1  -2  10   25.79    1.38
  -1  -2  10   23.60    1.21
  -1  -2  10   23.70    1.50
   0   2 -10   12.91    1.17
   0   2 -10   11.12    1.51
   0   2 -10   14.21    1.03
   0  -2  10   13.62    1.34
   0  -2  10   13.81    1.18
   0  -2  10   13.32    0.88
  -1   2 -10   27.59    1.47
  -1   2 -10   27.47    1.74
   1  -2  10   27.53    1.61
   1  -2  10   28.14    1.78
  -2   2 -10    3.53    0.92
  -2   2 -10    5.53    1.10
  -2   2 -10    5.58    0.82
   2  -2  10    6.64    1.02
   2  -2  10    8.74    1.29
  -3   2 -10    4.73    1.24
   3  -2  10    8.61    1.45
   3  -2  10    6.51    1.16
  -6  -1  10    6.49    1.43
   5   1 -10    8.72    1.20
   5   1 -10    7.30    1.04
  -5  -1  10    6.22    1.23
  -5  -1  10    8.87    1.27
   4   1 -10   37.12    1.85
   4   1 -10   38.78    1.74
  -4  -1  10   39.06    2.21
  -4  -1  10   35.76    1.81
   3   1 -10    3.01    0.64
   3   1 -10    3.01    0.61
  -3  -1  10    2.27    0.99
  -3  -1  10    3.30    0.64
   2   1 -10  164.46    5.08
   2   1 -10  147.69    4.71
   2   1 -10  154.96    5.00
   2   1 -10  156.13    5.15
  -2  -1  10  150.70    4.90
  -2  -1  10  152.48    5.03
  -2  -1  10  156.43    5.38
   1   1 -10   24.91    1.30
   1   1 -10   24.39    1.41
   1   1 -10   22.78    1.66
   1   1 -10   23.44    1.29
  -1  -1  10   22.25    1.51
  -1  -1  10   25.03    1.33
  -1  -1  10   22.73    1.20
   0   1 -10   25.05    1.55
   0   1 -10   27.26    1.90
   0  -1  10   25.02    1.45
   0  -1  10   24.52    1.21
   0  -1  10   25.79    1.63
  -1   1 -10  205.78    6.95
  -1   1 -10  205.62    6.30
   1  -1  10  200.03    6.41
   1  -1  10  200.48    6.09
   1  -1  10  203.26    6.59
  -2   1 -10    5.89    1.30
  -2   1 -10    7.38    1.15
  -2   1 -10    5.30    0.76
   2  -1  10    4.74    0.87
   2  -1  10    4.60    1.04
  -3   1 -10  100.93    4.27
   3  -1  10   93.54    3.89
   3  -1  10   96.87    3.77
   5   0 -10    1.54    0.78
   5   0 -10    1.29    0.62
  -5   0  10    1.77    1.09
  -5   0  10    1.23    0.79
   4   0 -10  122.40    4.06
   4   0 -10  119.41    4.15
  -4   0  10  117.04    4.11
  -4   0  10  118.49    4.35
   3   0 -10   35.07    1.69
   3   0 -10   32.97    1.69
  -3   0  10   31.33    1.64
  -3   0  10   33.89    2.08
   2   0 -10   21.90    1.42
   2   0 -10   22.34    1.35
  -2   0  10   26.54    1.58
  -2   0  10   23.80    1.31
  -2   0  10   26.45    1.86
   1   0 -10    2.21    0.64
   1   0 -10    3.01    0.62
   1   0 -10    2.63    0.60
   1   0 -10    2.93    0.92
  -1   0  10    3.82    0.58
  -1   0  10    3.79    0.81
  -1   0  10    3.44    0.67
   0   0 -10   15.11    1.77
   0   0 -10   15.46    1.35
   0   0 -10   15.33    1.24
   0   0  10   16.74    1.50
   0   0  10   15.86    1.05
   0   0  10   15.34    1.15
  -1   0 -10   55.04    2.14
  -1   0 -10   47.65    2.72
   1   0  10   55.32    2.28
   1   0  10   56.64    2.59
   1   0  10   54.74    2.00
  -2   0 -10    5.16    1.42
  -2   0 -10    1.84    1.07
   2   0  10    3.58    0.91
   2   0  10    3.36    1.04
   3   0  10   32.79    2.40
   5  -1 -10    1.40    0.92
   5  -1 -10    1.36    0.79
  -5   1  10    2.36    0.96
   4  -1 -10  116.17    4.05
   4  -1 -10  120.59    3.99
  -4   1  10   99.44    4.37
  -4   1  10  114.37    4.02
   3  -1 -10  100.23    3.67
   3  -1 -10  105.82    3.69
  -3   1  10   98.34    3.60
  -3   1  10  107.50    3.98
   2  -1 -10   52.26    2.18
   2  -1 -10   52.85    2.30
  -2   1  10   51.03    2.11
  -2   1  10   51.28    2.33
   1  -1 -10  234.30    7.23
   1  -1 -10  224.02    6.99
  -1   1  10  224.15    7.18
  -1   1  10  221.13    6.93
  -1   1  10  224.15    6.85
   0  -1 -10    1.68    0.75
   0  -1 -10    2.37    0.65
   0   1  10    1.50    0.88
   0   1  10    2.32    0.57
  -1  -1 -10   79.52    2.81
  -1  -1 -10   79.33    3.27
   1   1  10   80.12    2.97
   1   1  10   77.25    3.27
   1   1  10   76.18    2.75
  -2  -1 -10   55.36    3.42
   2   1  10   57.66    2.59
   2   1  10   63.58    2.99
   4  -2 -10    0.90    0.78
  -4   2  10   -0.38    0.72
   3  -2 -10   24.31    1.67
  -3   2  10   23.31    1.58
  -3   2  10   25.01    2.18
   2  -2 -10    6.88    0.91
   2  -2 -10    4.49    0.96
  -2   2  10    4.38    0.78
   1  -2 -10   39.42    1.85
   1  -2 -10   42.36    2.18
  -1   2  10   36.57    1.70
  -1   2  10   37.38    1.82
  -1   2  10   39.11    2.19
   0  -2 -10   14.36    1.24
   0  -2 -10   16.03    1.71
   0   2  10   14.56    1.73
   0   2  10   12.79    1.22
   0   2  10   12.36    1.25
   1   2  10  108.47    3.68
   1   2  10  110.66    3.86
   1   2  10  106.45    4.21
   2   2  10   90.53    3.96
   2   2  10   93.38    3.59
  -3   3  10  176.78    5.87
   2  -3 -10   14.21    1.70
  -2   3  10   12.53    1.41
   1  -3 -10   58.57    2.84
   1  -3 -10   56.10    2.49
  -1   3  10   61.23    2.51
   0  -3 -10   60.53    2.98
   0  -3 -10   54.66    2.40
   0   3  10   55.86    2.49
   0   3  10   56.98    2.98
   0   3  10   54.97    2.41
   1   3  10    0.67    0.98
   1   3  10   -1.35    1.18
   1  -4 -10   41.77    2.70
   1  -4 -10   37.63    2.24
  -1   4  10   38.96    2.64
   0   4  10  130.52    4.62
   2   7 -11    3.91    0.92
   2   7 -11    3.65    0.87
  -2  -7  11    2.85    1.41
   1   7 -11   10.19    1.48
   1   7 -11   10.76    1.40
  -1  -7  11    9.84    1.54
   0   7 -11   31.03    2.02
   0   7 -11   31.93    1.92
   0  -7  11   26.59    2.44
  -1   7 -11    0.59    1.02
  -1   7 -11    3.40    0.92
   1  -7  11    3.85    1.46
  -2   7 -11   60.41    3.16
   3   6 -11   13.76    1.49
   3   6 -11   10.67    1.34
  -3  -6  11   11.24    1.61
   2   6 -11  160.02    5.35
   2   6 -11  163.61    5.28
  -2  -6  11  151.26    5.69
   1   6 -11   21.20    1.57
   1   6 -11   26.30    1.69
  -1  -6  11   24.56    2.14
   0   6 -11   90.74    3.45
   0   6 -11   84.28    3.29
   0  -6  11   86.86    3.74
  -1   6 -11   26.67    1.97
  -1   6 -11   29.01    1.79
   1  -6  11   28.67    2.41
  -2   6 -11    3.47    1.16
  -2   6 -11    3.40    1.00
   2  -6  11    5.91    1.89
   4   5 -11    1.36    0.72
   4   5 -11    0.54    0.76
  -4  -5  11    0.57    1.35
   3   5 -11    7.73    1.14
   3   5 -11    6.91    0.97
  -3  -5  11    6.18    1.35
   2   5 -11   56.09    2.44
   2   5 -11   55.24    2.37
  -2  -5  11   54.56    2.85
   1   5 -11    1.33    0.66
   1   5 -11    0.78    0.68
  -1  -5  11    1.97    0.96
   0   5 -11   74.08    2.86
   0   5 -11   71.32    2.96
   0  -5  11   71.54    3.32
  -1   5 -11   92.55    3.55
  -1   5 -11   90.66    3.35
   1  -5  11   90.77    3.68
   1  -5  11   93.04    3.97
   1  -5  11   86.01    3.64
  -2   5 -11    2.44    1.00
  -2   5 -11    1.55    0.87
   2  -5  11   -0.92    1.50
   2  -5  11    2.74    1.33
   2  -5  11    1.38    1.18
   3  -5  11   98.65    4.34
   5   4 -11   37.06    2.02
  -5  -4  11   29.28    2.77
   4   4 -11  150.82    4.92
   4   4 -11  152.83    5.17
  -4  -4  11  147.31    5.56
   3   4 -11    8.76    1.19
   3   4 -11    6.10    0.87
  -3  -4  11    8.35    1.36
   2   4 -11   28.34    1.61
   2   4 -11   29.97    1.64
  -2  -4  11   28.03    2.10
   1   4 -11   39.64    1.89
   1   4 -11   39.75    1.96
  -1  -4  11   38.99    2.36
   0   4 -11   -0.08    0.67
   0   4 -11    0.62    0.63
   0   4 -11   -0.28    0.67
   0  -4  11    2.20    1.14
   0  -4  11    0.52    0.97
  -1   4 -11    0.83    0.79
  -1   4 -11    0.87    0.71
  -1   4 -11   -0.13    0.78
   1  -4  11   -0.09    1.04
   1  -4  11    0.74    0.91
  -2   4 -11    3.62    1.07
  -2   4 -11    3.30    1.04
  -2   4 -11    4.38    0.91
   2  -4  11    4.10    1.14
   2  -4  11    2.36    1.25
  -3   4 -11   30.15    2.31
   3  -4  11   30.66    2.66
   5   3 -11    5.18    0.87
   5   3 -11    7.16    1.29
  -5  -3  11    6.17    1.48
   4   3 -11   39.65    1.86
   4   3 -11   37.22    2.03
  -4  -3  11   38.83    2.53
   3   3 -11   24.61    1.51
   3   3 -11   22.66    1.45
  -3  -3  11   23.40    1.97
  -3  -3  11   20.64    1.43
   2   3 -11   82.35    3.05
   2   3 -11   84.55    3.07
  -2  -3  11   79.09    3.42
  -2  -3  11   77.83    2.88
   1   3 -11  213.47    6.69
   1   3 -11  214.13    6.76
  -1  -3  11  203.49    6.74
  -1  -3  11  214.05    7.15
   0   3 -11   19.92    1.51
   0   3 -11   20.39    1.37
   0   3 -11   19.47    1.70
   0  -3  11   18.11    1.77
   0  -3  11   19.35    1.55
  -1   3 -11  129.10    4.61
  -1   3 -11  128.76    4.57
  -1   3 -11  127.00    4.31
   1  -3  11  128.84    4.52
   1  -3  11  123.06    4.73
  -2   3 -11   44.33    2.03
  -2   3 -11   41.62    2.46
  -2   3 -11   39.94    2.38
   2  -3  11   39.36    2.33
   2  -3  11   41.26    2.60
  -3   3 -11    7.95    1.52
   3  -3  11    9.09    1.66
  -6  -2  11   99.93    4.44
   5   2 -11   24.53    1.93
   5   2 -11   23.17    1.52
  -5  -2  11   18.50    1.74
  -5  -2  11   22.77    2.34
   4   2 -11   34.83    1.90
   4   2 -11   33.31    1.72
  -4  -2  11   34.13    2.41
  -4  -2  11   31.37    1.80
   3   2 -11   26.36    1.55
   3   2 -11   27.35    1.64
  -3  -2  11   27.49    1.56
  -3  -2  11   27.52    2.07
   2   2 -11    6.00    0.86
   2   2 -11    7.88    1.07
  -2  -2  11    7.16    0.99
  -2  -2  11    7.76    1.35
   1   2 -11    0.84    0.59
   1   2 -11    0.09    0.59
  -1  -2  11    0.61    1.05
  -1  -2  11   -0.11    0.82
  -1  -2  11    0.39    0.72
  -1  -2  11    1.59    0.53
   0   2 -11    0.39    0.65
   0   2 -11    1.35    0.61
   0  -2  11    1.35    0.93
   0  -2  11    1.26    0.77
   0  -2  11    0.98    0.52
  -1   2 -11   55.44    2.62
  -1   2 -11   56.57    2.78
  -1   2 -11   53.18    2.29
   1  -2  11   52.17    2.75
   1  -2  11   54.10    2.49
  -2   2 -11   41.57    2.52
   2  -2  11   37.35    2.54
   2  -2  11   40.30    2.33
   3  -2  11   57.12    3.24
   5   1 -11    5.55    1.46
  -5  -1  11    8.67    1.52
   4   1 -11   44.99    2.02
   4   1 -11   43.16    2.14
  -4  -1  11   40.00    2.08
  -4  -1  11   39.89    2.58
   3   1 -11  148.50    4.92
   3   1 -11  148.28    4.88
  -3  -1  11  139.98    4.81
  -3  -1  11  144.88    5.20
   2   1 -11    3.90    0.79
  -2  -1  11    3.72    0.67
  -2  -1  11    3.93    1.20
   1   1 -11  214.69    6.83
   1   1 -11  226.44    7.01
  -1  -1  11  213.75    6.99
  -1  -1  11  218.69    6.77
  -1  -1  11  215.10    6.70
   0   1 -11   70.44    2.69
   0   1 -11   72.32    2.94
   0  -1  11   67.73    2.73
   0  -1  11   68.57    3.02
   0  -1  11   67.85    3.15
  -1   1 -11   35.79    2.10
  -1   1 -11   35.89    1.78
  -1   1 -11   33.82    2.32
   1  -1  11   29.86    2.23
   1  -1  11   32.24    1.98
  -2   1 -11   27.21    2.41
   2  -1  11   24.50    1.93
   2  -1  11   22.30    2.18
  -5   0  11   17.80    2.39
   4   0 -11    8.03    1.16
   4   0 -11   10.13    1.35
  -4   0  11    7.89    1.08
  -4   0  11   10.68    1.54
   3   0 -11   16.52    1.45
   3   0 -11   14.57    1.42
  -3   0  11   16.12    1.96
  -3   0  11   15.46    1.37
   2   0 -11    7.92    1.00
   2   0 -11    6.89    0.98
  -2   0  11    8.42    1.43
  -2   0  11    7.23    1.10
   1   0 -11   56.79    2.36
   1   0 -11   61.28    2.61
  -1   0  11   54.39    2.26
  -1   0  11   52.23    2.21
  -1   0  11   53.45    2.86
   0   0 -11   32.88    1.67
   0   0 -11   31.52    2.03
   0   0  11   26.86    2.13
   0   0  11   29.02    1.75
   0   0  11   28.92    1.53
  -1   0 -11   14.16    2.06
  -1   0 -11   12.75    1.84
  -1   0 -11   13.10    1.35
   1   0  11   12.56    1.52
   1   0  11   12.39    1.95
   2   0  11  147.55    5.44
   2   0  11  147.44    5.19
   4  -1 -11    2.48    1.14
  -4   1  11    2.66    0.98
  -4   1  11   -0.54    1.34
   3  -1 -11   94.92    3.53
   3  -1 -11   92.00    3.58
  -3   1  11   89.12    3.46
  -3   1  11   95.26    3.94
   2  -1 -11   65.24    2.82
   2  -1 -11   62.73    2.63
  -2   1  11   58.77    2.54
  -2   1  11   64.20    3.23
   1  -1 -11    6.20    0.92
   1  -1 -11    4.44    1.08
  -1   1  11    4.87    0.82
   0  -1 -11   34.90    1.86
   0  -1 -11   36.92    2.39
   0   1  11   33.38    1.78
   0   1  11   36.94    2.49
   0   1  11   32.34    1.88
  -1  -1 -11    5.95    1.34
   1   1  11    6.26    1.39
   1   1  11    5.18    1.13
   2   1  11    7.26    1.68
   3  -2 -11   71.53    3.21
   3  -2 -11   73.23    3.02
  -3   2  11   64.02    2.91
  -3   2  11   68.93    3.52
   2  -2 -11   88.41    3.59
   2  -2 -11   84.86    3.31
  -2   2  11   82.32    3.24
   1  -2 -11   38.06    2.06
   1  -2 -11   38.55    2.50
  -1   2  11   34.94    1.96
   0  -2 -11  106.32    4.29
   0   2  11  102.64    3.71
   1   2  11   20.60    2.96
   1   2  11   15.92    2.01
   2  -3 -11   20.94    2.36
   1  -3 -11    6.92    1.65
   1  -3 -11    6.53    1.22
  -1   3  11    6.23    1.61
   0   3  11   12.46    1.75
   1   6 -12   15.37    1.74
   1   6 -12   18.95    1.76
   0   6 -12    9.00    1.25
   0   6 -12   11.30    1.54
  -1   6 -12   15.96    2.11
  -1   6 -12   14.23    2.10
  -3  -5  12   56.56    3.50
   2   5 -12   16.65    1.59
   2   5 -12   17.54    1.58
  -2  -5  12   15.10    2.17
   1   5 -12  171.04    5.74
   1   5 -12  169.42    5.69
  -1  -5  12  167.19    6.09
   0   5 -12   36.90    2.04
   0   5 -12   36.88    2.25
   0  -5  12   38.52    2.70
  -1   5 -12  109.61    3.94
  -1   5 -12  103.09    4.13
  -2   5 -12   56.28    2.74
  -4  -4  12    1.71    1.73
   3   4 -12   24.39    1.80
   3   4 -12   23.62    1.76
  -3  -4  12   27.67    2.42
   2   4 -12   12.02    1.45
   2   4 -12    9.07    1.35
  -2  -4  12   13.52    2.06
   1   4 -12   27.45    1.78
   1   4 -12   28.55    1.85
   1   4 -12   27.55    1.91
  -1  -4  12   26.97    2.36
   0   4 -12    1.66    0.88
   0   4 -12   -0.34    0.90
   0  -4  12    1.38    1.46
  -1   4 -12   46.65    3.26
  -1   4 -12   47.41    2.69
  -1   4 -12   50.67    2.37
   1  -4  12   44.98    2.69
  -4  -3  12   21.39    2.50
   3   3 -12  168.54    5.78
   3   3 -12  172.83    5.73
  -3  -3  12  179.88    6.24
   2   3 -12   18.84    1.58
   2   3 -12   19.21    1.56
  -2  -3  12   22.02    2.16
   1   3 -12   25.72    1.81
   1   3 -12   22.94    1.66
  -1  -3  12   28.60    2.38
   0   3 -12   98.75    3.86
   0   3 -12   98.17    3.81
   0   3 -12   99.01    3.63
   0  -3  12   97.87    3.76
   0  -3  12   93.70    4.23
  -1   3 -12    0.88    1.08
  -1   3 -12    1.47    0.92
  -1   3 -12    1.70    1.13
   1  -3  12    1.61    1.19
  -2   3 -12   17.50    2.22
  -5  -2  12    6.24    1.86
  -4  -2  12    5.51    1.03
  -4  -2  12    4.86    1.59
   3   2 -12   36.41    2.01
   3   2 -12   35.76    2.06
  -3  -2  12   32.12    1.91
  -3  -2  12   39.72    2.60
   2   2 -12   10.88    1.47
   2   2 -12   12.44    1.39
  -2  -2  12   12.60    1.33
  -2  -2  12   16.38    2.13
   1   2 -12   67.85    2.80
   1   2 -12   71.27    2.98
  -1  -2  12   62.64    2.56
  -1  -2  12   69.21    3.41
   0   2 -12  146.79    5.28
   0   2 -12  143.31    5.09
   0   2 -12  141.54    4.78
   0  -2  12  133.18    4.56
   0  -2  12  139.95    4.88
  -1   2 -12    2.76    1.17
  -1   2 -12    0.41    0.97
  -1   2 -12    2.59    1.31
   1  -2  12    2.05    1.16
  -5  -1  12  126.58    5.10
  -4  -1  12   55.76    3.25
   3   1 -12   46.94    2.38
   3   1 -12   49.72    2.40
  -3  -1  12   50.87    2.93
  -3  -1  12   44.52    2.26
   2   1 -12   39.78    2.22
   2   1 -12   43.29    2.17
  -2  -1  12   38.82    2.01
  -2  -1  12   44.16    2.81
   1   1 -12    0.89    0.88
   1   1 -12    1.63    0.83
  -1  -1  12    0.21    1.53
  -1  -1  12    2.07    1.00
  -1  -1  12    1.70    0.74
   0   1 -12    1.12    0.88
   0   1 -12    1.35    1.04
   0  -1  12    0.34    0.90
   0  -1  12    4.68    1.12
  -1   1 -12   16.46    2.25
  -1   1 -12   14.89    2.26
  -4   0  12   15.58    2.59
   3   0 -12   22.59    2.12
  -3   0  12   16.87    2.43
  -3   0  12   18.43    1.69
   2   0 -12  149.03    5.12
   2   0 -12  154.87    5.33
  -2   0  12  142.95    4.97
  -2   0  12  151.97    5.67
   1   0 -12   12.72    1.90
   1   0 -12   12.41    1.54
  -1   0  12   10.72    1.43
   0   0 -12  159.16    5.83
   0   0 -12  167.18    5.44
   0   0  12  159.69    5.70
   1   0  12   59.77    3.02
  -3   1  12    4.28    1.72
   2  -1 -12    1.09    0.99
  -2   1  12    2.31    1.83
  -2   1  12    2.14    0.93
   1  -1 -12   -0.26    1.25
   1  -1 -12   -0.03    1.07
  -1   1  12    1.74    0.94
   0  -1 -12   26.25    2.72
  -2   2  12   62.56    4.94
   0   4 -13  147.92    5.71
   1   3 -13    8.95    1.28
   0   3 -13    1.77    1.33
   0   3 -13    2.38    1.14
   0  -3  13    0.40    1.35
  -2  -2  13  112.14    4.02
   1   2 -13   34.29    2.19
  -1  -2  13   34.58    2.01
   0   2 -13   30.76    2.24
   0   2 -13   37.26    3.10
   0   2 -13   30.57    2.62
   0  -2  13   30.35    2.73
  -2  -1  13    7.07    1.15
   1   1 -13    1.64    1.31
  -1  -1  13   -0.91    1.19
   0   0   0    0.00    0.00
;
_shelx_hkl_checksum              99453
loop_
_space_group_symop_operation_xyz
'x, y, z'
'-x, -y, -z'
loop_
_atom_site_label
_atom_site_type_symbol
_atom_site_fract_x
_atom_site_fract_y
_atom_site_fract_z
_atom_site_U_iso_or_equiv
_atom_site_adp_type
_atom_site_occupancy
_atom_site_site_symmetry_order
_atom_site_calc_flag
Ba1 Ba 0.75833(5) 0.25733(4) 0.04525(3) 0.00949(13) Uani 1 1 d
Yb1 Yb 0.16280(3) 0.14859(3) 0.70082(2) 0.00604(12) Uani 1 1 d
Si1 Si 0.3840(2) 0.17724(18) 0.36874(14) 0.0055(2) Uani 1 1 d
Si2 Si 0.6777(2) 0.44045(18) 0.70994(14) 0.0059(3) Uani 1 1 d
O1 O 0.6134(6) 0.3116(5) 0.5185(4) 0.0107(7) Uani 1 1 d
O2 O 0.1666(6) 0.0892(5) 0.4379(4) 0.0098(7) Uani 1 1 d
O3 O 0.2543(6) 0.3256(5) 0.2741(4) 0.0103(7) Uani 1 1 d
O4 O 0.5059(6) 0.0142(5) 0.2486(4) 0.0116(7) Uani 1 1 d
O5 O 0.4457(6) 0.4165(5) 0.7918(4) 0.0108(7) Uani 1 1 d
O6 O 0.9300(6) 0.3783(5) 0.8018(4) 0.0091(7) Uani 1 1 d
F1 F 0.1513(6) 0.0991(5) 0.9267(4) 0.0186(6) Uani 1 1 d
loop_
_atom_site_aniso_label
_atom_site_aniso_U_11
_atom_site_aniso_U_22
_atom_site_aniso_U_33
_atom_site_aniso_U_23
_atom_site_aniso_U_13
_atom_site_aniso_U_12
Ba1 0.01117(19) 0.00726(18) 0.00835(19) 0.00080(13) 0.00118(13) 0.00124(12)
Yb1 0.00635(16) 0.00565(16) 0.00522(16) 0.00090(10) 0.00086(9) 0.00008(9)
Si1 0.0059(6) 0.0050(6) 0.0047(6) 0.0007(5) 0.0005(4) 0.0002(4)
Si2 0.0043(6) 0.0058(6) 0.0067(6) 0.0015(5) 0.0004(5) 0.0001(4)
O1 0.0076(15) 0.0111(17) 0.0089(16) 0.0000(13) -0.0022(13) -0.0015(12)
O2 0.0118(16) 0.0098(16) 0.0086(16) 0.0035(13) 0.0040(13) -0.0009(12)
O3 0.0119(16) 0.0055(15) 0.0104(16) 0.0023(12) -0.0031(13) -0.0015(12)
O4 0.0120(16) 0.0106(16) 0.0096(16) -0.0003(13) 0.0015(13) 0.0035(13)
O5 0.0073(16) 0.0105(17) 0.0127(17) 0.0002(14) 0.0045(13) -0.0031(12)
O6 0.0077(16) 0.0080(16) 0.0109(16) 0.0023(13) 0.0014(13) 0.0034(12)
F1 0.0282(17) 0.0210(15) 0.0161(15) 0.0124(12) 0.0131(13) 0.0141(13)
loop_
_atom_type_symbol
_atom_type_description
_atom_type_scat_dispersion_real
_atom_type_scat_dispersion_imag
_atom_type_scat_source
O O 0.0106 0.0060 'International Tables Vol C Tables 4.2.6.8 and 6.1.1.4'
F F 0.0171 0.0103 'International Tables Vol C Tables 4.2.6.8 and 6.1.1.4'
Si Si 0.0817 0.0704 'International Tables Vol C Tables 4.2.6.8 and 6.1.1.4'
Ba Ba -0.3244 2.2819 'International Tables Vol C Tables 4.2.6.8 and 6.1.1.4'
Yb Yb -0.3850 5.5486 'International Tables Vol C Tables 4.2.6.8 and 6.1.1.4'
loop_
_geom_angle_atom_site_label_1
_geom_angle_atom_site_label_2
_geom_angle_atom_site_label_3
_geom_angle
_geom_angle_site_symmetry_1
_geom_angle_site_symmetry_3
F1 Ba1 F1 63.88(11) 2_656 1_654
F1 Ba1 O5 137.07(9) 2_656 2_666
F1 Ba1 O5 149.63(10) 1_654 2_666
F1 Ba1 O4 75.58(10) 2_656 2_655
F1 Ba1 O4 80.06(10) 1_654 2_655
O5 Ba1 O4 122.17(10) 2_666 2_655
F1 Ba1 O6 127.73(9) 2_656 2_766
F1 Ba1 O6 88.82(9) 1_654 2_766
O5 Ba1 O6 61.07(10) 2_666 2_766
O4 Ba1 O6 145.80(10) 2_655 2_766
F1 Ba1 O6 119.12(9) 2_656 1_554
F1 Ba1 O6 59.43(9) 1_654 1_554
O5 Ba1 O6 103.68(9) 2_666 1_554
O4 Ba1 O6 74.76(10) 2_655 1_554
O6 Ba1 O6 71.76(11) 2_766 1_554
F1 Ba1 O3 74.27(10) 2_656 1_655
F1 Ba1 O3 62.31(10) 1_654 1_655
O5 Ba1 O3 98.56(9) 2_666 1_655
O4 Ba1 O3 139.27(9) 2_655 1_655
O6 Ba1 O3 53.46(9) 2_766 1_655
O6 Ba1 O3 96.98(10) 1_554 1_655
F1 Ba1 O5 137.10(9) 2_656 1_554
F1 Ba1 O5 107.68(9) 1_654 1_554
O5 Ba1 O5 72.12(10) 2_666 1_554
O4 Ba1 O5 61.56(9) 2_655 1_554
O6 Ba1 O5 92.08(9) 2_766 1_554
O6 Ba1 O5 52.84(9) 1_554 1_554
O3 Ba1 O5 142.27(9) 1_655 1_554
F1 Ba1 F1 89.28(8) 2_656 1_554
F1 Ba1 F1 129.95(11) 1_654 1_554
O5 Ba1 F1 78.21(8) 2_666 1_554
O4 Ba1 F1 51.58(9) 2_655 1_554
O6 Ba1 F1 137.78(9) 2_766 1_554
O6 Ba1 F1 110.60(8) 1_554 1_554
O3 Ba1 F1 152.27(8) 1_655 1_554
O5 Ba1 F1 63.45(8) 1_554 1_554
F1 Ba1 O4 51.91(9) 2_656 .
F1 Ba1 O4 115.22(8) 1_654 .
O5 Ba1 O4 86.79(9) 2_666 .
O4 Ba1 O4 91.28(9) 2_655 .
O6 Ba1 O4 122.53(9) 2_766 .
O6 Ba1 O4 165.54(9) 1_554 .
O3 Ba1 O4 91.19(9) 1_655 .
O5 Ba1 O4 123.61(8) 1_554 .
F1 Ba1 O4 61.24(8) 1_554 .
F1 Ba1 Si2 101.60(7) 2_656 2_766
F1 Ba1 Si2 72.25(7) 1_654 2_766
O5 Ba1 Si2 80.64(7) 2_666 2_766
O4 Ba1 Si2 149.95(7) 2_655 2_766
O6 Ba1 Si2 26.22(7) 2_766 2_766
O6 Ba1 Si2 81.17(7) 1_554 2_766
O3 Ba1 Si2 27.49(7) 1_655 2_766
O5 Ba1 Si2 116.09(6) 1_554 2_766
F1 Ba1 Si2 157.71(6) 1_554 2_766
O4 Ba1 Si2 110.75(6) . 2_766
F1 Ba1 Si2 132.36(7) 2_656 1_554
F1 Ba1 Si2 82.96(6) 1_654 1_554
O5 Ba1 Si2 88.29(7) 2_666 1_554
O4 Ba1 Si2 65.29(7) 2_655 1_554
O6 Ba1 Si2 81.38(7) 2_766 1_554
O6 Ba1 Si2 26.10(7) 1_554 1_554
O3 Ba1 Si2 120.55(7) 1_655 1_554
O5 Ba1 Si2 26.75(6) 1_554 1_554
F1 Ba1 Si2 87.06(5) 1_554 1_554
O4 Ba1 Si2 148.26(6) . 1_554
Si2 Ba1 Si2 99.30(3) 2_766 1_554
F1 Yb1 O6 78.83(12) . 1_455
F1 Yb1 O5 99.82(13) . .
O6 Yb1 O5 79.54(13) 1_455 .
F1 Yb1 O4 74.96(12) . 2_656
O6 Yb1 O4 146.70(12) 1_455 2_656
O5 Yb1 O4 85.03(12) . 2_656
F1 Yb1 O2 160.87(12) . .
O6 Yb1 O2 116.01(12) 1_455 .
O5 Yb1 O2 94.98(12) . .
O4 Yb1 O2 94.47(12) 2_656 .
F1 Yb1 O2 92.15(12) . 2_556
O6 Yb1 O2 95.45(13) 1_455 2_556
O5 Yb1 O2 165.79(12) . 2_556
O4 Yb1 O2 105.62(12) 2_656 2_556
O2 Yb1 O2 75.14(13) . 2_556
F1 Yb1 Si2 115.31(9) . .
O6 Yb1 Si2 99.99(9) 1_455 .
O5 Yb1 Si2 23.55(9) . .
O4 Yb1 Si2 73.74(9) 2_656 .
O2 Yb1 Si2 75.57(9) . .
O2 Yb1 Si2 150.55(8) 2_556 .
F1 Yb1 Si2 94.79(8) . 1_455
O6 Yb1 Si2 21.43(9) 1_455 1_455
O5 Yb1 Si2 90.69(9) . 1_455
O4 Yb1 Si2 167.99(9) 2_656 1_455
O2 Yb1 Si2 97.09(9) . 1_455
O2 Yb1 Si2 80.63(9) 2_556 1_455
Si2 Yb1 Si2 106.01(3) . 1_455
F1 Yb1 Si1 160.35(8) . .
O6 Yb1 Si1 117.29(9) 1_455 .
O5 Yb1 Si1 73.98(9) . .
O4 Yb1 Si1 85.83(9) 2_656 .
O2 Yb1 Si1 22.11(9) . .
O2 Yb1 Si1 97.05(8) 2_556 .
Si2 Yb1 Si1 53.55(3) . .
Si2 Yb1 Si1 103.80(3) 1_455 .
F1 Yb1 Si1 91.64(8) . 2_656
O6 Yb1 Si1 166.90(9) 1_455 2_656
O5 Yb1 Si1 93.43(9) . 2_656
O4 Yb1 Si1 20.29(9) 2_656 2_656
O2 Yb1 Si1 75.35(9) . 2_656
O2 Yb1 Si1 93.86(9) 2_556 2_656
Si2 Yb1 Si1 75.82(3) . 2_656
Si2 Yb1 Si1 171.67(3) 1_455 2_656
Si1 Yb1 Si1 70.51(3) . 2_656
F1 Yb1 Si1 72.47(9) . 2_556
O6 Yb1 Si1 83.63(9) 1_455 2_556
O5 Yb1 Si1 162.62(9) . 2_556
O4 Yb1 Si1 107.21(9) 2_656 2_556
O2 Yb1 Si1 96.27(9) . 2_556
O2 Yb1 Si1 21.33(8) 2_556 2_556
Si2 Yb1 Si1 171.84(3) . 2_556
Si2 Yb1 Si1 74.81(3) 1_455 2_556
Si1 Yb1 Si1 118.29(2) . 2_556
Si1 Yb1 Si1 102.20(3) 2_656 2_556
F1 Yb1 Yb1 128.24(9) . 2_556
O6 Yb1 Yb1 109.65(9) 1_455 2_556
O5 Yb1 Yb1 131.83(9) . 2_556
O4 Yb1 Yb1 102.66(9) 2_656 2_556
O2 Yb1 Yb1 37.62(8) . 2_556
O2 Yb1 Yb1 37.52(8) 2_556 2_556
Si2 Yb1 Yb1 113.14(2) . 2_556
Si2 Yb1 Yb1 88.56(2) 1_455 2_556
Si1 Yb1 Yb1 59.59(2) . 2_556
Si1 Yb1 Yb1 83.29(2) 2_656 2_556
Si1 Yb1 Yb1 58.71(2) 2_556 2_556
O4 Si1 O2 115.08(19) . .
O4 Si1 O1 107.61(18) . .
O2 Si1 O1 110.22(18) . .
O4 Si1 O3 109.25(19) . .
O2 Si1 O3 107.02(19) . .
O1 Si1 O3 107.41(18) . .
O4 Si1 Yb1 128.92(14) . .
O2 Si1 Yb1 31.52(12) . .
O1 Si1 Yb1 78.72(12) . .
O3 Si1 Yb1 116.97(14) . .
O4 Si1 Yb1 29.07(12) . 2_656
O2 Si1 Yb1 111.26(13) . 2_656
O1 Si1 Yb1 83.22(12) . 2_656
O3 Si1 Yb1 133.47(14) . 2_656
Yb1 Si1 Yb1 109.49(3) . 2_656
O4 Si1 Yb1 92.75(13) . 2_556
O2 Si1 Yb1 30.42(12) . 2_556
O1 Si1 Yb1 139.72(13) . 2_556
O3 Si1 Yb1 97.50(13) . 2_556
Yb1 Si1 Yb1 61.71(2) . 2_556
Yb1 Si1 Yb1 102.20(3) 2_656 2_556
O6 Si2 O5 111.15(18) . .
O6 Si2 O1 109.63(18) . .
O5 Si2 O1 112.10(18) . .
O6 Si2 O3 105.88(18) . 2_666
O5 Si2 O3 110.32(19) . 2_666
O1 Si2 O3 107.51(18) . 2_666
O6 Si2 Yb1 110.68(13) . .
O5 Si2 Yb1 33.38(12) . .
O1 Si2 Yb1 82.02(12) . .
O3 Si2 Yb1 136.30(13) 2_666 .
O6 Si2 Yb1 30.17(12) . 1_655
O5 Si2 Yb1 124.18(14) . 1_655
O1 Si2 Yb1 79.48(12) . 1_655
O3 Si2 Yb1 117.60(13) 2_666 1_655
Yb1 Si2 Yb1 106.01(3) . 1_655
O6 Si2 Ba1 50.72(12) . 2_766
O5 Si2 Ba1 118.86(13) . 2_766
O1 Si2 Ba1 129.03(13) . 2_766
O3 Si2 Ba1 55.83(12) 2_666 2_766
Yb1 Si2 Ba1 145.78(4) . 2_766
Yb1 Si2 Ba1 71.80(2) 1_655 2_766
O6 Si2 Ba1 51.78(12) . 1_556
O5 Si2 Ba1 59.39(13) . 1_556
O1 Si2 Ba1 127.55(13) . 1_556
O3 Si2 Ba1 124.29(13) 2_666 1_556
Yb1 Si2 Ba1 67.07(2) . 1_556
Yb1 Si2 Ba1 70.50(2) 1_655 1_556
Ba1 Si2 Ba1 80.70(3) 2_766 1_556
Si2 O1 Si1 142.6(2) . .
Si1 O2 Yb1 126.37(18) . .
Si1 O2 Yb1 128.25(18) . 2_556
Yb1 O2 Yb1 104.86(13) . 2_556
Si1 O3 Si2 134.3(2) . 2_666
Si1 O3 Ba1 128.44(17) . 1_455
Si2 O3 Ba1 96.68(14) 2_666 1_455
Si1 O4 Yb1 130.64(19) . 2_656
Si1 O4 Ba1 125.09(17) . 2_655
Yb1 O4 Ba1 99.25(11) 2_656 2_655
Si1 O4 Ba1 104.74(15) . .
Yb1 O4 Ba1 95.91(11) 2_656 .
Ba1 O4 Ba1 88.72(9) 2_655 .
Si2 O5 Yb1 123.07(18) . .
Si2 O5 Ba1 121.38(17) . 2_666
Yb1 O5 Ba1 110.34(12) . 2_666
Si2 O5 Ba1 93.86(15) . 1_556
Yb1 O5 Ba1 91.50(11) . 1_556
Ba1 O5 Ba1 107.88(10) 2_666 1_556
Si2 O6 Yb1 128.40(19) . 1_655
Si2 O6 Ba1 103.06(15) . 2_766
Yb1 O6 Ba1 108.72(12) 1_655 2_766
Si2 O6 Ba1 102.12(15) . 1_556
Yb1 O6 Ba1 105.04(12) 1_655 1_556
Ba1 O6 Ba1 108.24(11) 2_766 1_556
Yb1 F1 Ba1 118.37(12) . 2_656
Yb1 F1 Ba1 111.42(12) . 1_456
Ba1 F1 Ba1 116.12(11) 2_656 1_456
Yb1 F1 Ba1 87.19(10) . 1_556
Ba1 F1 Ba1 90.72(8) 2_656 1_556
Ba1 F1 Ba1 129.95(11) 1_456 1_556
loop_
_geom_bond_atom_site_label_1
_geom_bond_atom_site_label_2
_geom_bond_distance
_geom_bond_site_symmetry_2
Ba1 F1 2.686(3) 2_656
Ba1 F1 2.723(3) 1_654
Ba1 O5 2.758(3) 2_666
Ba1 O4 2.782(3) 2_655
Ba1 O6 2.811(3) 2_766
Ba1 O6 2.867(3) 1_554
Ba1 O3 2.948(3) 1_655
Ba1 O5 3.077(3) 1_554
Ba1 F1 3.281(3) 1_554
Ba1 O4 3.297(4) .
Ba1 Si2 3.5383(12) 2_766
Ba1 Si2 3.5674(12) 1_554
Yb1 F1 2.160(3) .
Yb1 O6 2.208(3) 1_455
Yb1 O5 2.216(3) .
Yb1 O4 2.236(3) 2_656
Yb1 O2 2.255(3) .
Yb1 O2 2.260(3) 2_556
Yb1 Si2 3.3756(12) .
Yb1 Si2 3.4430(12) 1_455
Yb1 Si1 3.4733(12) .
Yb1 Si1 3.4927(12) 2_656
Yb1 Si1 3.5053(13) 2_556
Yb1 Yb1 3.5791(4) 2_556
Si1 O4 1.596(3) .
Si1 O2 1.623(3) .
Si1 O1 1.633(3) .
Si1 O3 1.644(3) .
Si1 Yb1 3.4926(12) 2_656
Si1 Yb1 3.5053(13) 2_556
Si2 O6 1.605(3) .
Si2 O5 1.610(3) .
Si2 O1 1.625(3) .
Si2 O3 1.644(3) 2_666
Si2 Yb1 3.4430(12) 1_655
Si2 Ba1 3.5383(12) 2_766
Si2 Ba1 3.5674(12) 1_556
O2 Yb1 2.260(3) 2_556
O3 Si2 1.644(3) 2_666
O3 Ba1 2.948(3) 1_455
O4 Yb1 2.236(3) 2_656
O4 Ba1 2.782(3) 2_655
O5 Ba1 2.758(3) 2_666
O5 Ba1 3.077(3) 1_556
O6 Yb1 2.208(3) 1_655
O6 Ba1 2.811(3) 2_766
O6 Ba1 2.867(3) 1_556
F1 Ba1 2.686(3) 2_656
F1 Ba1 2.723(3) 1_456
F1 Ba1 3.281(3) 1_556
