#------------------------------------------------------------------------------
#$Date: 2019-12-25 22:16:41 +0200 (Wed, 25 Dec 2019) $
#$Revision: 245862 $
#$URL: file:///home/coder/svn-repositories/cod/cif/2/31/14/2311407.cif $
#------------------------------------------------------------------------------
#
# This file is available in the Crystallography Open Database (COD),
# http://www.crystallography.net/. The original data for this entry
# were provided by IUCr Journals, http://journals.iucr.org/.
#
# The file may be used within the scientific community so long as
# proper attribution is given to the journal article from which the
# data were obtained.
#
data_2311407
loop_
_publ_author_name
'Kang, Linda'
'Lynch, Genevieve'
'Lynch, Will'
'Padgett, Clifford'
_publ_section_title
;
 Manganese(II) chloride complexes with pyridine <i>N</i>-oxide (PNO)
 derivatives and their solid-state structures.
;
_journal_coeditor_code           ZL2709
_journal_issue                   'Pt 10'
_journal_name_full
'Acta crystallographica. Section E, Crystallographic communications'
_journal_page_first              1434
_journal_page_last               1438
_journal_paper_doi               10.1107/S2056989017012038
_journal_volume                  73
_journal_year                    2017
_chemical_formula_iupac          '[Mn Cl2 (C5 H5 N O) (H2 O)]'
_chemical_formula_moiety         'C5 H7 Cl2 Mn N O2'
_chemical_formula_sum            'C5 H7 Cl2 Mn N O2'
_chemical_formula_weight         238.96
_chemical_name_systematic
'<i>catena</i>-poly[[aquachloridomanganese(II)]-di-\m-chlorido-[aquachloridomanganese(II)]-bis(\m-pyridine <i>N</i>-oxide)]'
_space_group_crystal_system      triclinic
_space_group_IT_number           2
_space_group_name_Hall           '-P 1'
_space_group_name_H-M_alt        'P -1'
_atom_sites_solution_hydrogens   mixed
_atom_sites_solution_primary     dual
_audit_creation_method
;
Olex2 1.2
(compiled 2017.03.28 svn.r3405 for OlexSys, GUI svn.r5337)
;
_cell_angle_alpha                101.042(7)
_cell_angle_beta                 109.559(10)
_cell_angle_gamma                94.196(6)
_cell_formula_units_Z            2
_cell_length_a                   6.897(2)
_cell_length_b                   7.0500(10)
_cell_length_c                   9.853(3)
_cell_measurement_reflns_used    1189
_cell_measurement_temperature    173(2)
_cell_measurement_theta_max      27.5
_cell_measurement_theta_min      2.3
_cell_volume                     438.2(2)
_computing_cell_refinement
;
CrystalClearSM Expert (Rigaku, 2011)
;
_computing_data_collection
;
CrystalClearSM Expert (Rigaku, 2011)
;
_computing_data_reduction
;
CrystalClearSM Expert (Rigaku, 2011)
;
_computing_molecular_graphics
;
<i>OLEX2</i> (Dolomanov <i>et al.</i>,  2009)
;
_computing_publication_material
;
<i>OLEX2</i> (Dolomanov <i>et al.</i>,  2009)
;
_computing_structure_refinement
;
SHELXL2017 (Sheldrick, 2015<i>b</i>)
;
_computing_structure_solution
;
SHELXT (Sheldrick, 2015<i>a</i>)
;
_diffrn_ambient_temperature      173(2)
_diffrn_measured_fraction_theta_full 0.994
_diffrn_measured_fraction_theta_max 0.992
_diffrn_measurement_device_type  'Rigaku XtalLab mini CCD'
_diffrn_measurement_method       '\w scans'
_diffrn_radiation_type           MoK\a
_diffrn_radiation_wavelength     0.71073
_diffrn_reflns_av_R_equivalents  0.0395
_diffrn_reflns_limit_h_max       8
_diffrn_reflns_limit_h_min       -8
_diffrn_reflns_limit_k_max       9
_diffrn_reflns_limit_k_min       -9
_diffrn_reflns_limit_l_max       12
_diffrn_reflns_limit_l_min       -12
_diffrn_reflns_number            4655
_diffrn_reflns_theta_full        25.242
_diffrn_reflns_theta_max         27.574
_diffrn_reflns_theta_min         2.254
_diffrn_standards_number         0
_exptl_absorpt_coefficient_mu    2.064
_exptl_absorpt_correction_T_max  0.765
_exptl_absorpt_correction_T_min  0.613
_exptl_absorpt_correction_type   multi-scan
_exptl_absorpt_process_details
;
(REQAB; Rigaku, 1998)
;
_exptl_crystal_colour            'clear brown'
_exptl_crystal_density_diffrn    1.811
_exptl_crystal_density_method    'not measured'
_exptl_crystal_description       Prism
_exptl_crystal_F_000             238
_exptl_crystal_size_max          0.286
_exptl_crystal_size_mid          0.175
_exptl_crystal_size_min          0.13
_refine_diff_density_max         0.403
_refine_diff_density_min         -0.436
_refine_ls_extinction_method     none
_refine_ls_goodness_of_fit_ref   1.136
_refine_ls_hydrogen_treatment    mixed
_refine_ls_matrix_type           full
_refine_ls_number_parameters     108
_refine_ls_number_reflns         2004
_refine_ls_number_restraints     2
_refine_ls_restrained_S_all      1.136
_refine_ls_R_factor_all          0.0370
_refine_ls_R_factor_gt           0.0311
_refine_ls_shift/su_max          0.001
_refine_ls_shift/su_mean         0.000
_refine_ls_structure_factor_coef Fsqd
_refine_ls_weighting_details
'w=1/[\s^2^(Fo^2^)+0.4440P] where P=(Fo^2^+2Fc^2^)/3'
_refine_ls_weighting_scheme      calc
_refine_ls_wR_factor_gt          0.0729
_refine_ls_wR_factor_ref         0.0797
_reflns_number_gt                1770
_reflns_number_total             2004
_reflns_threshold_expression     'I > 2\s(I)'
_cod_data_source_file            zl2709sup1.cif
_cod_data_source_block           I
_cod_database_code               2311407
_shelx_space_group_comment
;
The symmetry employed for this shelxl refinement is uniquely defined
by the following loop, which should always be used as a source of
symmetry information in preference to the above space-group names.
They are only intended as comments.
;
_shelx_estimated_absorpt_t_min   0.590
_shelx_estimated_absorpt_t_max   0.775
_shelx_hkl_file
;
   0   0  -1 3849.10   86.70
   0   0   1 3508.05   79.43
   0   0  -1 3348.04   76.29
   0   0   1 3689.36   84.35
   0   0  -2 1829.19   41.73
   0   0  -2 1642.85   37.72
   0   0   2 1817.92   41.62
   0   0  -3    2.30    0.69
   0   0  -3    0.73    0.94
   0   0   3    2.64    0.94
   0   0  -4  152.13    6.05
   0   0  -4  130.81    5.53
   0   0   4  143.92    5.93
   0   0  -5   96.02    5.76
   0   0  -5   92.12    6.01
   0   0   5   92.33    5.95
   0   0  -6  479.02   20.26
   0   0  -6  456.40   19.94
   0   0   6  486.50   21.13
   0   0  -7  226.70   10.77
   0   0  -7  233.30   11.75
   0   0   7  254.88   12.76
   0   0  -8  181.08    9.13
   0   0  -8  169.27   14.58
   0   0   8  178.40    9.84
   0   0   9  416.29   22.58
   0   0  -9  406.61   23.02
   0   0   9  431.73   23.48
   0   0 -10  522.15   48.51
   0   0  10  582.94  110.28
   0   0 -11  259.21   17.64
   0   0  11  293.36   20.00
   0   1 -11  176.01   13.24
   0  -1  11  179.76   13.57
   0   1 -10   98.93   10.18
   0  -1  10  106.24   10.70
   0   1  -9   47.21    7.92
   0  -1   9   44.57    5.30
   0  -1   8  834.46   45.20
   0   1  -8  772.53   41.87
   0  -1   8  872.19   47.55
   0  -1   7 1274.76   55.09
   0   1  -7 1174.32   53.64
   0  -1   7 1237.58   53.77
   0  -1   6 2543.84  103.43
   0   1  -6 2316.89   94.72
   0  -1   6 2511.71  102.07
   0  -1   5 1201.66   46.17
   0   1  -5 1043.01   40.64
   0  -1   5 1132.11   43.72
   0  -1   4  113.63    7.54
   0   1  -4   91.72    4.27
   0  -1   4   97.04    4.36
   0  -1   3  783.67   18.66
   0   1  -3  783.67   19.12
   0  -1   3  783.67   19.75
   0  -1   2    2.20    0.67
   0   1  -2    2.68    1.24
   0  -1   1 5715.41  128.53
   0   1  -1 6114.14  140.95
   0   1  -1 6026.04  135.27
   0  -1   1 6042.05  136.03
   0  -1   0 3151.21   72.73
   0  -1   0 3383.71   76.29
   0   1   0 3371.69   77.29
   0  -1   0 3383.42   77.29
   0   1   0 3558.82   80.46
   0  -1  -1 1209.70   32.13
   0  -1  -1 1138.48   60.18
   0   1   1 1257.75   29.24
   0  -1  -2 1320.80   31.69
   0  -1  -2 1264.68   30.10
   0   1   2 1341.20   33.39
   0  -1  -3 5681.22  129.49
   0  -1  -3 5344.66  129.03
   0   1   3 5903.82  138.16
   0  -1  -4 2300.36   87.22
   0  -1  -4 2106.23   80.50
   0   1   4 2220.81   88.33
   0  -1  -5 2945.60  111.67
   0  -1  -5 2756.16  104.71
   0   1   5 2821.89  109.51
   0  -1  -6  280.18   12.51
   0  -1  -6  256.78   11.90
   0   1   6  282.74   13.26
   0  -1  -7    3.56    1.57
   0  -1  -7    4.15    1.51
   0   1   7    5.09    1.82
   0  -1  -8   59.95    4.08
   0  -1  -8   67.66    5.17
   0   1   8   61.94    4.92
   0  -1  -9  106.66    9.97
   0  -1  -9  100.52    9.80
   0   1   9  105.26   10.56
   0  -1 -10  221.01   16.53
   0   1  10  249.97   18.66
   0  -1 -11   52.89   11.23
   0   1  11   69.04    7.18
   0   2 -12  271.13   18.06
   0  -2  12  284.20   17.95
   0   2 -11   78.63    7.60
   0  -2  11   77.31    7.27
   0   2 -10    5.51    2.30
   0  -2  10    4.96    2.35
   0  -2   9   -0.06    0.98
   0   2  -9   -0.40    1.82
   0  -2   9   -0.73    1.45
   0  -2   8  260.09   15.94
   0   2  -8  272.32   16.19
   0  -2   8  279.38   17.93
   0  -2   7  150.81   16.28
   0   2  -7  138.00    9.24
   0  -2   7  142.00    9.13
   0  -2   6 1514.26   62.46
   0   2  -6 1361.69   56.43
   0  -2   6 1513.28   63.47
   0  -2   5 1158.02   45.31
   0   2  -5 1123.76   44.68
   0  -2   5 1216.57   46.86
   0  -2   4  711.47   17.99
   0   2  -4  707.78   18.77
   0  -2   4  741.80   18.08
   0  -2   3 3933.83   90.68
   0   2  -3 3969.33   95.98
   0  -2   3 4042.44   91.54
   0  -2   2 6893.39  155.59
   0   2  -2 7455.16  170.19
   0  -2   2 7427.51  167.40
   0  -2   1 3010.84   68.64
   0   2  -1 3274.37   75.64
   0   2  -1 3300.78   74.97
   0  -2   0   29.41    2.07
   0   2   0   32.53    1.72
   0   2   0   34.98    4.75
   0  -2  -1 1646.77   40.85
   0   2   1 1759.06   40.22
   0   2   1 1736.96   43.13
   0  -2  -2   11.39    1.51
   0  -2  -2   16.92    2.87
   0   2   2   14.58    1.97
   0  -2  -3  924.49   36.57
   0  -2  -3  885.78   34.44
   0   2   3  953.36   37.85
   0  -2  -4 2381.38   94.43
   0  -2  -4 2183.81   83.74
   0   2   4 2254.68   88.44
   0  -2  -5 1668.41   68.35
   0  -2  -5 1546.85   63.72
   0   2   5 1631.88   67.66
   0  -2  -6  746.43   38.33
   0  -2  -6  669.97   34.75
   0   2   6  711.11   37.47
   0  -2  -7  587.34   31.78
   0  -2  -7  589.16   32.11
   0   2   7  599.28   33.79
   0  -2  -8  366.94   19.63
   0  -2  -8  308.25   17.09
   0   2   8  334.51   18.91
   0  -2  -9  290.82   27.42
   0   2   9  332.63   31.57
   0  -2 -10   11.83    3.10
   0   2  10   16.82    3.96
   0   3 -11   68.10    7.04
   0  -3  11   80.71    7.65
   0  -3  10   51.05    9.74
   0   3 -10   79.95    8.99
   0  -3  10   75.53    7.92
   0  -3   9  393.37   20.95
   0   3  -9  379.09   21.28
   0  -3   9  427.77   22.89
   0  -3   8  150.56   13.09
   0   3  -8  123.25   11.16
   0  -3   8  156.66   13.32
   0  -3   7  240.07   14.37
   0   3  -7  259.40   14.87
   0  -3   7  258.23   14.10
   0  -3   6    0.06    0.42
   0   3  -6    0.00    1.47
   0  -3   6    2.03    1.26
   0  -3   5   18.20    2.20
   0   3  -5   16.11    2.16
   0  -3   5   20.42    2.12
   0  -3   4   24.61    2.60
   0   3  -4   23.12    2.64
   0  -3   4   31.42    2.43
   0  -3   3 4712.34  107.71
   0   3  -3 4877.72  112.92
   0  -3   3 5124.66  116.19
   0  -3   2 4949.35  115.31
   0   3  -2 5602.42  127.92
   0   3  -2 5193.69  153.10
   0  -3   1 4593.96  110.79
   0   3  -1 4895.19  114.49
   0   3  -1 4946.13  112.99
   0  -3   0  415.18   22.73
   0   3   0  452.67   11.35
   0   3   0  444.21   18.45
   0  -3  -1  298.34   11.25
   0   3   1  314.87   10.85
   0   3   1  308.00   12.21
   0  -3  -2  873.07   34.31
   0   3   2  837.52   32.95
   0  -3  -3  803.86   31.69
   0  -3  -3  768.71   31.94
   0   3   3  788.80   32.15
   0  -3  -4    8.02    1.84
   0  -3  -4    7.90    1.59
   0   3   4    6.12    2.18
   0  -3  -5  151.84    8.29
   0  -3  -5  158.29   15.67
   0   3   5  155.57    8.90
   0  -3  -6   48.45    5.03
   0  -3  -6   36.59    3.77
   0   3   6   34.50    4.46
   0  -3  -7  433.32   23.10
   0  -3  -7  405.75   21.57
   0   3   7  437.74   24.49
   0  -3  -8  635.56  123.27
   0  -3  -8  528.71   46.33
   0   3   8  597.75  116.19
   0  -3  -9  249.49   18.08
   0   3   9  277.31   20.76
   0   3  10   31.78    6.33
   0   4 -11   20.02    6.24
   0  -4  10   17.80    4.21
   0   4 -10   14.45    4.34
   0  -4  10   18.37    4.50
   0  -4   9  285.75   25.20
   0   4  -9  336.90   30.12
   0  -4   9  349.11   30.52
   0  -4   8  444.17   19.17
   0   4  -8  466.46   20.90
   0  -4   8  481.31   20.02
   0  -4   7  304.90   17.30
   0   4  -7  321.21   18.64
   0  -4   7  324.19   17.97
   0  -4   6  165.12    8.82
   0   4  -6  142.58    9.26
   0  -4   6  173.23    8.69
   0  -4   5   20.38    2.56
   0   4  -5   15.54    2.76
   0  -4   5   24.05    2.43
   0  -4   4  458.89   19.98
   0   4  -4  499.85   21.91
   0  -4   4  502.25   21.18
   0  -4   3  824.12   32.57
   0   4  -3  880.27   34.58
   0   4  -3  915.32   36.53
   0  -4   2  230.26   13.20
   0   4  -2  257.29   14.35
   0   4  -2  259.17   14.62
   0  -4   1    8.48    1.97
   0   4  -1    8.67    1.45
   0   4  -1   12.34    1.51
   0  -4   0    5.43    1.89
   0   4   0    4.71    0.84
   0   4   0    5.70    1.45
   0  -4  -1 2083.38   80.64
   0   4   1 2119.70   80.73
   0   4   1 2142.74   82.55
   0  -4  -2 2384.06   97.76
   0   4   2 2385.49   96.50
   0   4   2 2376.94   97.25
   0  -4  -3  956.37   42.96
   0  -4  -3  842.28   37.18
   0   4   3  926.57   40.93
   0  -4  -4  390.55   20.99
   0  -4  -4  345.49   18.77
   0   4   4  366.54   20.15
   0  -4  -5  117.15   10.43
   0  -4  -5  101.02    9.59
   0   4   5  112.38   10.60
   0  -4  -6   27.59    3.67
   0  -4  -6   14.22    2.74
   0   4   6   31.94    4.99
   0  -4  -7  150.17   14.14
   0  -4  -7  133.68   12.46
   0   4   7  164.12   15.98
   0  -4  -8  136.34   10.81
   0   4   8  148.53   12.48
   0   4   9   -2.33    2.16
   0   5 -11    9.87    4.06
   0  -5  10    7.69    2.33
   0   5 -10   13.74    4.34
   0  -5   9   79.51    8.21
   0   5  -9   83.07    8.99
   0  -5   9   76.64    7.60
   0  -5   8    1.68    1.49
   0   5  -8    8.57    3.23
   0  -5   8   -0.54    0.98
   0  -5   7   37.89    4.25
   0   5  -7   17.55    3.23
   0  -5   7   25.41    2.66
   0  -5   6   62.63    6.16
   0   5  -6   69.42    7.04
   0  -5   6   77.04    6.85
   0  -5   5  604.75   32.11
   0  -5   5  642.32   32.93
   0  -5   4 1322.79   60.28
   0   5  -4 1411.81   61.23
   0   5  -4 1380.77   61.18
   0  -5   3 1523.88   67.01
   0   5  -3 1554.62   67.11
   0   5  -3 1496.54   67.74
   0  -5   2    0.34    1.53
   0   5  -2    6.47    1.70
   0   5  -2    0.23    0.92
   0  -5   1   24.13    3.37
   0   5  -1   19.69    2.20
   0   5  -1   20.55    2.95
   0  -5   0   62.27    5.22
   0   5   0   67.45    4.61
   0   5   0   60.30    4.90
   0  -5  -1  286.76   14.10
   0   5   1  294.38   13.51
   0   5   1  308.00   14.91
   0  -5  -2  317.02   17.89
   0   5   2  296.92   15.69
   0   5   2  333.45   18.31
   0  -5  -3  102.83    9.49
   0  -5  -3   90.05    9.28
   0   5   3   98.09    9.07
   0  -5  -4  374.33   17.09
   0  -5  -4  303.60   14.60
   0   5   4  340.09   15.79
   0  -5  -5  136.76   12.97
   0   5   5  153.50   14.62
   0  -5  -6  459.36   43.17
   0   5   6  486.90   45.47
   0  -5  -7  261.75   18.33
   0   5   7  260.24   19.08
   0   5   8    7.73    3.58
   0  -6  10   76.27    6.87
   0   6 -10  100.86    8.97
   0  -6   9   58.17   17.49
   0  -6   8    2.81    1.78
   0   6  -8   -1.17    2.09
   0  -6   7    1.24    1.82
   0   6  -7    3.23    2.85
   0  -6   7    0.10    0.90
   0  -6   6    2.53    1.86
   0   6  -6    2.56    1.78
   0   6  -6    0.98    0.42
   0  -6   5   68.79    5.61
   0   6  -5   51.44    4.50
   0   6  -5   46.96    7.75
   0  -6   4  561.95   31.48
   0   6  -4  652.98   36.45
   0   6  -4  572.42   32.45
   0  -6   3    5.43    2.81
   0   6  -3    1.03    1.78
   0   6  -3    3.00    0.73
   0  -6   2   49.79    5.55
   0   6  -2   46.04    4.57
   0   6  -2   43.74    7.04
   0  -6   1  312.14   18.29
   0   6  -1  328.36   18.47
   0   6  -1  276.05   17.57
   0  -6   0  649.21   35.61
   0   6   0  653.34   35.59
   0   6   0  641.74   35.82
   0  -6  -1  285.44   13.74
   0   6   1  279.59   12.11
   0   6   1  284.52   13.34
   0  -6  -2   86.24    6.33
   0   6   2   70.23    4.40
   0   6   2   82.47    6.03
   0  -6  -3    4.92    1.95
   0   6   3    1.26    1.80
   0  -6  -4    7.35    2.70
   0   6   4    9.74    3.25
   0  -6  -5  112.71   11.75
   0   6   5  113.19   12.19
   0  -6  -6  137.01   10.95
   0   6   6  122.14   10.41
   0  -6  -7   75.57    6.93
   0   6   7   62.36    6.60
   0  -7   9   17.13    5.22
   0   7  -9    9.76    3.67
   0  -7   8   20.00    4.02
   0   7  -8   22.43    5.05
   0  -7   7   52.24   11.00
   0   7  -7   60.95    7.48
   0  -7   6  203.33   18.94
   0   7  -6  218.20   20.28
   0  -7   5  199.95   18.64
   0   7  -5  202.89   18.52
   0   7  -5  165.20   18.01
   0  -7   4   10.91    3.85
   0   7  -4    4.86    2.37
   0   7  -4    4.46    1.68
   0  -7   3  101.90   10.62
   0   7  -3  112.94   10.93
   0   7  -3   81.15   15.06
   0  -7   2   -0.31    1.74
   0   7  -2    5.87    1.86
   0   7  -2    3.27    1.30
   0  -7   1  104.52   10.68
   0   7  -1  120.25   21.11
   0   7  -1   95.12    9.66
   0  -7   0  136.32   13.15
   0   7   0  136.17   12.40
   0   7   0  128.80   12.15
   0  -7  -1  193.86   18.24
   0   7   1  180.12   17.11
   0  -7  -2   47.02   10.16
   0   7   2   47.07    9.93
   0  -7  -3   30.52    7.08
   0   7   3   40.70    8.71
   0  -7  -4  155.28   12.23
   0   7   4  170.06   13.62
   0  -7  -5   49.16    6.24
   0   7   5   41.43    5.53
   0  -8   8   12.92    3.06
   0   8  -8    7.83    2.83
   0  -8   7   14.68    4.96
   0   8  -7   16.17    5.59
   0  -8   6  117.51   10.10
   0   8  -6  123.56   10.18
   0  -8   5   60.37    6.74
   0   8  -5   67.49    6.79
   0  -8   4   31.80    7.46
   0   8  -4   21.85    5.36
   0  -8   3    4.73    2.53
   0   8  -3    7.14    2.81
   0   8  -3    5.72    1.61
   0  -8   2   76.16    8.80
   0   8  -2   57.92   11.81
   0  -8   1   48.09   10.31
   0   8  -1   48.07    9.91
   0  -8   0    6.87    3.83
   0   8   0    4.69    1.97
   0  -8  -1    9.45    4.34
   0   8   1    0.02    1.61
   0  -8  -2    0.15    1.99
   0   8   2    3.20    2.12
   0  -8  -3   59.05    6.51
   0   8   3   35.00    4.67
   0  -9   3   15.92    4.52
   0  -9   2  133.49   10.49
   0  -9   1   85.00    7.98
   1  -9   0    0.73    2.41
  -1   9   0    5.07    2.91
   1  -9   1   65.44    6.70
  -1   9  -1   54.42    5.30
   1  -9   2  119.77    9.80
   1  -9   3  154.92   11.25
   1  -9   4   58.99    6.43
   1  -8  -3   71.30    6.87
  -1   8   3   69.04    6.62
   1  -8  -2   38.56    6.74
  -1   8   2   22.08    4.48
   1  -8  -1   26.14    6.33
  -1   8   1   31.61    6.98
   1  -8   0  108.94    9.74
  -1   8   0   86.38   15.54
   1  -8   1   21.41    5.53
  -1   8  -1    8.23    2.30
   1  -8   2    1.42    2.01
  -1   8  -2    1.59    0.90
   1  -8   3    2.05    2.18
  -1   8  -3    2.16    1.36
  -1   8  -3    1.15    0.80
   1  -8   4   15.77    4.57
  -1   8  -4   12.07    3.67
  -1   8  -4    6.74    2.62
   1  -8   5  154.21   12.09
  -1   8  -5  176.60   13.07
   1  -8   6  164.93   12.15
  -1   8  -6  185.33   13.38
   1  -8   7  167.72   11.79
  -1   8  -7  193.44   13.01
   1  -7  -5   54.17    5.97
  -1   7   5   63.95    6.79
   1  -7  -4    0.92    1.91
  -1   7   4   -0.04    1.91
   1  -7  -3    1.26    2.12
  -1   7   3    1.91    2.07
  -1   7   2    5.78    2.70
   1  -7  -1  499.49   44.41
  -1   7   1  471.99   41.85
   1  -7   0  734.61   39.67
  -1   7   0  672.74   60.35
   1  -7   1  349.53   19.67
  -1   7  -1  375.80   32.40
   1  -7   2   60.20    7.04
  -1   7  -2   68.89    6.95
  -1   7  -2   63.89   10.79
   1  -7   3   41.60    5.84
  -1   7  -3   41.29    4.80
  -1   7  -3   36.01    6.18
   1  -7   4   10.87    3.60
  -1   7  -4    2.26    1.91
  -1   7  -4    3.56    1.82
   1  -7   5   14.73    3.29
  -1   7  -5   16.90    3.54
  -1   7  -5   10.01    2.66
   1  -7   6    9.51    3.10
  -1   7  -6   13.11    3.71
  -1   7  -6    7.33    2.12
   1  -7   7    7.33    2.79
  -1   7  -7   10.22    3.77
   1  -7   8   49.79    5.32
  -1   7  -8   52.07    6.01
  -1   7  -9  122.73    9.80
   1  -6  -7  125.41   10.03
  -1   6   7  130.96   10.93
   1  -6  -6  403.66   29.58
  -1   6   6  385.27   28.15
   1  -6  -5   92.35    9.93
  -1   6   5   82.84    9.47
   1  -6  -4    9.53    3.35
  -1   6   4    9.07    3.27
   1  -6  -3  119.44   21.34
  -1   6   3  115.10   11.44
   1  -6  -2   -0.29    1.68
  -1   6   2    1.72    1.95
   1  -6  -1  167.15   14.56
  -1   6   1  155.99   13.87
   1  -6   0  132.28   11.86
  -1   6   0  130.85   10.83
  -1   6   0  117.64   16.40
   1  -6   1  102.64    9.74
  -1   6  -1   74.17    6.60
  -1   6  -1   76.56   11.35
   1  -6   2  643.73   35.44
  -1   6  -2  663.60   35.78
  -1   6  -2  638.47   37.24
   1  -6   3  362.42   20.61
  -1   6  -3  429.59   23.84
  -1   6  -3  378.75   23.56
   1  -6   4  651.25   35.88
  -1   6  -4  695.99   37.81
  -1   6  -4  658.98   42.50
   1  -6   5  310.91   14.60
  -1   6  -5  355.15   16.09
   1  -6   6    4.27    1.57
  -1   6  -6    6.07    2.14
   1  -6   6    5.51    1.57
   1  -6   7   33.18    4.82
  -1   6  -7   39.11    5.91
   1  -6   7   41.81    5.72
   1  -6   8    7.75    2.62
  -1   6  -8    7.71    3.23
   1  -6   8   11.50    3.31
   1  -6   9   48.18    7.25
  -1   6  -9   38.67    6.49
  -1   6 -10   63.22    6.93
   1  -5  -8    1.68    1.99
  -1   5   8   -3.58    2.28
   1  -5  -7  171.17   16.97
  -1   5   7  162.67   13.32
   1  -5  -6  184.01   17.20
  -1   5   6  171.57   16.36
   1  -5  -5   44.74    5.72
  -1   5   5   33.28    4.88
   1  -5  -3  469.81   25.18
  -1   5   3  467.38   25.14
   1  -5  -2  787.15   41.03
  -1   5   2  780.59   41.35
   1  -5  -1  173.42    9.43
  -1   5   1  160.18    7.48
  -1   5   1  173.56   17.09
   1  -5   0    6.70    1.70
  -1   5   0   12.48    1.40
  -1   5   0   12.09    2.37
   1  -5   1  112.42    7.60
  -1   5  -1  116.00    7.14
  -1   5  -1  108.15    7.25
   1  -5   2    3.58    1.57
  -1   5  -2    2.76    1.38
  -1   5  -2    1.01    0.59
   1  -5   3   33.79    3.46
  -1   5  -3   48.45    4.08
  -1   5  -3   39.48    5.40
   1  -5   4  742.47   39.15
  -1   5  -4  837.46   43.63
   1  -5   4  875.92   44.78
   1  -5   5  350.54   19.33
  -1   5  -5  449.89   24.24
   1  -5   5  423.08   22.37
   1  -5   6  194.24   11.81
  -1   5  -6  213.74   13.20
   1  -5   6  224.25   13.18
   1  -5   7  346.48   18.91
  -1   5  -7  378.17   21.11
   1  -5   7  364.55   19.73
   1  -5   8  305.67   27.17
  -1   5  -8  345.68   31.17
   1  -5   8  363.21   32.24
   1  -5   9   56.53    6.33
  -1   5  -9   56.12   11.96
   1  -5   9   70.19    8.04
  -1   5 -10    4.40    2.79
   1  -5  10    0.86    1.82
   1  -4  -9   16.04    4.86
  -1   4   9   20.65    6.43
   1  -4  -8  131.31   13.22
  -1   4   8  121.87   12.82
   1  -4  -7   37.24    7.33
  -1   4   7   40.91    8.34
   1  -4  -6    0.69    1.53
  -1   4   6    3.35    1.97
   1  -4  -5  974.35   52.83
  -1   4   5  930.84   50.15
   1  -4  -4   80.62    5.87
  -1   4   4   78.67    6.14
   1  -4  -3  636.67   28.78
   1  -4  -3  474.75   19.54
  -1   4   3  635.72   27.73
   1  -4  -2 1460.91   60.26
  -1   4   2 1439.34   61.25
   1  -4  -1  784.07   31.59
  -1   4   1  757.53   29.05
  -1   4   1  747.58   32.26
   1  -4   0  561.49   22.94
  -1   4   0  626.53   24.24
  -1   4   0  633.00   26.18
   1  -4   1  131.15    8.11
  -1   4  -1  165.06    9.34
  -1   4  -1  153.10   12.34
   1  -4   2   82.51    5.51
  -1   4  -2   75.87    4.86
  -1   4  -2   81.61    5.32
   1  -4   3   16.15    2.35
  -1   4  -3   18.77    2.39
   1  -4   3   16.59    2.20
   1  -4   4   21.05    2.53
  -1   4  -4   17.70    2.43
   1  -4   4   19.35    2.41
   1  -4   5   65.73    4.69
  -1   4  -5   82.95    6.18
   1  -4   5   95.08    6.43
   1  -4   6    8.34    1.99
  -1   4  -6   15.23    3.46
   1  -4   6   11.98    2.62
   1  -4   7  534.45   28.95
  -1   4  -7  595.11   33.16
   1  -4   7  581.39   31.63
   1  -4   8  519.47   27.02
  -1   4  -8  582.75   31.25
   1  -4   8  598.82   31.42
  -1   4  -9  248.42   23.12
   1  -4   9  239.90   21.89
  -1   4 -10   23.69    6.10
   1  -4  10   20.23    5.22
  -1   4 -11   11.73    3.85
   1  -4  11    6.18    2.39
   1  -3 -10    2.49    2.64
  -1   3  10    0.86    2.01
   1  -3  -9   95.87    9.95
   1  -3  -8  346.31   30.77
   1  -3  -8  277.02   24.28
  -1   3   8  343.94   30.71
   1  -3  -7   64.35    4.82
   1  -3  -7   55.45    3.96
  -1   3   7   51.76    4.73
   1  -3  -6  245.37   14.06
   1  -3  -6  209.23   11.37
  -1   3   6  210.78   12.53
   1  -3  -5   23.84    2.85
   1  -3  -5   15.69    1.63
  -1   3   5   20.11    2.91
   1  -3  -4  115.27    8.48
   1  -3  -4   94.57    6.45
  -1   3   4  103.08    7.92
   1  -3  -3  219.85   12.65
   1  -3  -3  175.64   10.14
  -1   3   3  207.12   12.48
   1  -3  -2   55.40    4.11
   1  -3  -2   48.87    3.67
  -1   3   2   56.37    8.71
   1  -3  -1  136.65    5.93
  -1   3   1  136.63    4.75
  -1   3   1  139.06    5.97
   1  -3   1 1468.87   36.95
  -1   3  -1 1671.40   38.96
   1  -3   2 1901.50   44.43
  -1   3  -2 2060.15   48.55
   1  -3   2 2142.38   49.89
   1  -3   3  398.59   21.53
  -1   3  -3  454.64   29.72
   1  -3   3  487.55   31.50
   1  -3   4  218.47   12.17
  -1   3  -4  237.99   13.80
   1  -3   4  259.21   14.54
   1  -3   5   32.05    2.87
  -1   3  -5   25.58    3.10
   1  -3   5   45.68    4.11
   1  -3   6   23.65    2.39
  -1   3  -6   21.45    3.25
   1  -3   6   25.09    2.81
   1  -3   7  233.66   13.15
  -1   3  -7  258.52   15.27
   1  -3   7  296.71   16.42
   1  -3   8    1.76    1.38
  -1   3  -8   -1.65    1.99
   1  -3   8    3.10    1.59
  -1   3  -9   12.76    4.31
   1  -3   9   12.21    3.23
  -1   3 -10    6.18    3.79
   1  -3  10    1.70    1.89
  -1   3 -11  160.22   12.57
   1  -3  11  164.72   12.17
  -1   2  11   22.75    5.01
   1  -2 -10    8.09    2.76
   1  -2 -10    9.13    2.85
  -1   2  10    9.28    3.35
   1  -2  -9   85.50    8.61
   1  -2  -9   65.63   11.29
  -1   2   9   83.70    9.24
   1  -2  -8   10.52    1.97
   1  -2  -8    9.07    2.16
  -1   2   8   10.20    2.72
   1  -2  -7  212.38   12.23
   1  -2  -7  176.20   10.01
  -1   2   7  197.86   11.75
   1  -2  -6   74.38    5.47
   1  -2  -6   52.30    3.81
   1  -2  -5  343.65   15.44
   1  -2  -5  308.44   13.36
  -1   2   5  314.62   14.45
   1  -2  -4 1867.36   71.49
   1  -2  -4 1672.91   63.59
  -1   2   4 1814.84   71.76
   1  -2  -3  344.19   12.44
   1  -2  -3  313.51   10.49
  -1   2   3  353.51   13.05
   1  -2  -2   15.44    1.86
  -1   2   2   18.68    2.79
   1  -2  -1  513.13   13.01
   1  -2  -1  495.78   11.29
  -1   2   1  570.90   14.89
   1  -2   0  134.25    5.22
  -1   2   0  140.05    4.90
  -1   2   0  154.86    5.95
   1  -2   1  138.46    5.34
  -1   2  -1  138.08    5.17
   1  -2   1  156.28    6.14
   1  -2   2   24.42    1.65
  -1   2  -2   25.22    2.20
   1  -2   2   23.77    1.84
   1  -2   3  398.95   21.26
  -1   2  -3  429.30   11.67
   1  -2   3  453.93   24.38
   1  -2   4  112.02    6.93
   1  -2   5  933.96   38.25
  -1   2  -5  937.02   39.53
   1  -2   5 1031.76   42.77
   1  -2   6  986.20   43.32
  -1   2  -6  972.38   42.92
   1  -2   6 1132.55   49.33
   1  -2   7  623.12   31.78
  -1   2  -7  735.35   38.60
   1  -2   7  800.24   41.43
  -1   2  -8  241.89   12.38
   1  -2   8  239.92   11.96
  -1   2  -9   14.56    3.62
   1  -2   9   14.68    4.04
  -1   2 -10   -0.80    2.22
   1  -2  10   -2.74    1.72
  -1   2 -11   14.47    5.15
   1  -2  11   28.40    8.09
   1  -1 -11   25.49    4.55
  -1   1  11   31.78    5.76
   1  -1 -10   95.41    9.91
   1  -1 -10   92.94    9.72
  -1   1  10   97.23   10.33
   1  -1  -9   42.61    4.94
   1  -1  -9   30.83    4.25
  -1   1   9   32.34    4.63
   1  -1  -8  305.71   17.45
   1  -1  -8  291.85   17.49
  -1   1   8  310.91   17.97
   1  -1  -7  327.46   15.35
   1  -1  -7  293.71   13.91
  -1   1   7  328.75   15.75
   1  -1  -6  157.04   10.87
   1  -1  -6  147.53   10.33
  -1   1   6  155.49   11.00
   1  -1  -5  598.46   23.84
   1  -1  -5  568.88   22.56
  -1   1   5  625.52   25.26
   1  -1  -4  303.49   11.35
   1  -1  -4  304.58   10.77
  -1   1   4  289.35   10.72
   1  -1  -3   21.03    1.40
  -1   1   3   22.83    2.07
   1  -1  -2   36.17    2.09
   1  -1  -2   40.05    1.74
  -1   1   2   44.66    8.06
   1  -1  -1 2217.04   50.71
  -1   1   1 2262.55   50.77
   1  -1  -1 2200.01   49.37
  -1   1   1 2509.93   60.51
   1  -1   0   66.21    2.79
  -1   1   0   63.17    3.79
   1  -1   1  594.54   13.93
  -1   1  -1  613.00   15.94
   1  -1   1  649.13   15.58
   1  -1   2  339.50   11.12
  -1   1  -2  350.06   12.25
   1  -1   2  364.11   12.48
   1  -1   3  460.05   11.83
  -1   1  -3  459.33   12.19
   1  -1   3  504.18   13.49
   1  -1   4    3.35    0.75
  -1   1  -4    2.30    1.78
   1  -1   4    7.06    1.65
   1  -1   5  421.67   23.08
  -1   1  -5  405.27   22.45
   1  -1   5  466.10   19.19
   1  -1   6  831.22   35.84
  -1   1  -6  806.29   35.78
   1  -1   6  902.88   40.70
   1  -1   7   16.15    3.20
  -1   1  -8   26.37    3.85
   1  -1   8   11.83    2.87
  -1   1  -9   36.68    7.42
   1  -1   9   37.95    7.54
  -1   1 -10  144.97   11.71
   1  -1  10  142.04   16.57
  -1   1 -11   31.75    9.07
   1  -1  11   28.82    8.13
   1   0 -12   -0.29    1.80
  -1   0  12   -1.42    2.16
   1   0 -11    2.01    1.93
  -1   0  11    3.02    2.22
   1   0 -10   12.99    3.50
  -1   0  10   14.43    3.41
   1   0  -9  100.65    6.12
   1   0  -9   94.47    6.39
  -1   0   9  104.94    6.77
   1   0  -8  205.04   11.83
   1   0  -8  213.32   12.63
  -1   0   8  215.60   12.42
   1   0  -7    0.67    0.92
   1   0  -7    3.52    1.70
  -1   0   7   -0.59    1.28
   1   0  -6  327.04   14.45
   1   0  -6  289.92   13.09
  -1   0   6  320.61   14.29
   1   0  -5  824.05   32.07
   1   0  -5  842.38   33.45
  -1   0   5  834.80   32.55
   1   0  -4  723.55   17.93
   1   0  -4  660.71   16.34
  -1   0   4  722.69   17.70
   1   0  -3 1006.56   23.86
   1   0  -3  992.97   23.38
  -1   0   3  989.80   23.23
   1   0  -2    9.26    1.34
  -1   0   2    7.35    1.15
   1   0  -1   88.96    3.31
   1   0  -1   88.67    3.18
  -1   0   1   94.57    3.37
   1   0  -1   95.26    3.37
  -1   0   0   20.70    1.01
   1   0   0   20.42    1.01
   1   0   0   21.74    1.26
   1   0   0   22.18    1.38
  -1   0  -1  723.68   17.39
   1   0   1  751.68   18.89
   1   0   2    4.88    0.63
  -1   0  -2    5.43    0.75
  -1   0  -2    7.23    1.15
   1   0   2    7.06    1.45
  -1   0  -3   27.31    1.32
   1   0   3   31.86    2.41
  -1   0  -4 1178.15   44.74
  -1   0  -4 1196.06   49.62
   1   0   4 1285.46   50.21
  -1   0  -5  186.03   12.17
  -1   0  -5  185.29   12.97
   1   0   5  205.78   10.05
  -1   0  -6   61.37    3.90
  -1   0  -6   62.32    5.11
   1   0   6   63.17    4.96
   1   0   7  303.68   16.90
  -1   0  -7  320.33   17.76
   1   0   7  362.25   19.98
  -1   0  -8   46.77    4.59
   1   0   8   55.19    4.80
  -1   0  -9  126.77   12.63
   1   0   9  125.97   12.59
  -1   0 -10  106.07    9.22
   1   0  10  110.68    9.78
  -1   0 -11   64.91    6.54
   1   0  11   62.44    6.24
   1   1 -12    0.84    1.93
  -1  -1  12   -0.57    2.07
  -1  -1  11    1.11    0.69
   1   1 -11   12.19    3.88
  -1  -1  11    1.70    1.91
  -1  -1  10  139.25   13.53
   1   1 -10  135.61   13.09
  -1  -1  10  136.47   12.88
  -1  -1   9  501.10   25.37
   1   1  -9  491.61   22.14
  -1  -1   9  494.08   20.97
  -1  -1   8  734.68   38.52
   1   1  -8  661.07   34.79
  -1  -1   8  714.13   37.75
  -1  -1   7  149.08   20.21
   1   1  -7  152.13    8.63
  -1  -1   7  142.48    7.54
  -1  -1   6  169.96   11.06
   1   1  -6  163.97    9.84
  -1  -1   6  162.90    9.47
  -1  -1   5   -0.80    0.98
   1   1  -5    3.18    1.30
  -1  -1   5    2.14    0.88
  -1  -1   4   84.83    4.42
  -1  -1   4   75.99    3.18
  -1  -1   3   37.56    5.40
  -1  -1   3   30.31    1.49
  -1  -1   2  470.88   12.09
   1   1  -2  504.03   12.76
   1   1  -2  456.03   10.35
  -1  -1   2  432.27   22.50
  -1  -1   1 1292.42   30.35
   1   1  -1 1298.24   30.10
  -1  -1   1 1166.13   26.39
   1   1  -1 1192.00   26.96
  -1  -1   0   99.24    4.00
   1   1   0  101.55    4.11
   1   1   0   89.94    3.50
  -1  -1  -1 1614.18   37.01
   1   1   1 1694.02   39.11
   1   1   1 1613.48   37.35
  -1  -1  -2  402.13   21.24
  -1  -1  -2  401.88   15.23
   1   1   2  395.72   21.32
  -1  -1  -3  363.99   12.25
  -1  -1  -3  360.89   15.96
   1   1   3  383.70   13.89
  -1  -1  -4 1212.02   46.21
  -1  -1  -4 1166.28   47.13
   1   1   4 1245.39   48.97
  -1  -1  -5    1.47    0.80
  -1  -1  -5    3.31    1.53
   1   1   5    2.14    1.53
  -1  -1  -6   63.84    8.55
  -1  -1  -6   60.22    8.57
   1   1   6   66.36    9.40
  -1  -1  -7  145.85   12.07
  -1  -1  -7  136.86   11.94
   1   1   7  161.79   14.14
  -1  -1  -8   42.08    5.43
   1   1   8   44.80    5.78
  -1  -1  -9   59.97    7.14
   1   1   9   57.88    7.31
  -1  -1 -10   14.98    3.69
   1   1  10   19.10    4.25
   1   2 -12   -2.18    2.39
  -1  -2  12    1.24    1.93
  -1  -2  11    0.63    0.80
   1   2 -11    1.26    1.89
  -1  -2  11   -0.06    0.84
  -1  -2  10    1.97    1.26
  -1  -2   9  467.67   24.24
   1   2  -9  469.58   21.34
  -1  -2   9  452.44   19.15
  -1  -2   8   81.84   15.81
   1   2  -8  108.04   15.14
  -1  -2   8   85.13   11.56
  -1  -2   7    0.57    0.34
  -1  -2   7    4.94    1.32
  -1  -2   6  316.08   15.19
   1   2  -6  289.82   13.82
  -1  -2   6  284.05   12.46
  -1  -2   5 1761.51   68.12
   1   2  -5 1666.29   65.96
  -1  -2   5 1713.46   65.25
  -1  -2   4  369.16   14.70
   1   2  -4  394.95   14.79
  -1  -2   4  380.41   12.61
  -1  -2   3  395.07   13.78
   1   2  -3  393.06   13.97
  -1  -2   3  393.40   12.74
  -1  -2   2  304.77   11.81
   1   2  -2  315.75   11.21
   1   2  -2  277.69    9.36
  -1  -2   1   73.44    3.71
   1   2  -1   67.43    3.35
   1   2  -1   57.16    2.37
  -1  -2   0  117.99    4.86
  -1  -2  -1   48.05    2.58
   1   2   1   51.36    2.76
   1   2   1   48.32    2.72
  -1  -2  -2    1.74    1.49
  -1  -2  -3  313.13   17.03
  -1  -2  -3  314.57   17.80
   1   2   3  305.65   17.16
  -1  -2  -4   78.34    5.74
  -1  -2  -4   73.71    9.45
   1   2   4   77.73    6.33
  -1  -2  -5  459.71   20.51
  -1  -2  -5  453.05   26.43
   1   2   5  448.04   20.84
  -1  -2  -6  259.69   14.54
  -1  -2  -6  262.31   15.67
   1   2   6  277.06   16.34
  -1  -2  -7    4.13    1.53
  -1  -2  -7    4.15    1.51
   1   2   7    7.16    2.83
  -1  -2  -8  253.81   23.12
   1   2   8  247.36   22.79
  -1  -2  -9   57.67   17.47
   1   2   9   57.08   17.39
  -1  -2 -10    9.55    2.70
   1   2  10    7.96    3.02
   1   3 -12   39.67    5.74
  -1  -3  11  252.51   18.79
   1   3 -11  278.86   20.82
  -1  -3  11  279.01   19.98
  -1  -3  10  203.56   22.41
   1   3 -10  197.65   18.62
  -1  -3  10  231.75   20.93
  -1  -3   9    1.26    0.65
   1   3  -9    4.52    1.97
  -1  -3   9    2.74    1.15
  -1  -3   8  343.69   23.63
   1   3  -8  319.89   18.83
  -1  -3   8  359.25   19.75
  -1  -3   7   34.18    5.61
   1   3  -7   37.60    3.77
  -1  -3   7   28.28    2.53
  -1  -3   6  198.32   14.01
   1   3  -6  209.32   12.71
  -1  -3   6  214.14    9.47
  -1  -3   5  177.00   10.95
   1   3  -5  180.35   10.75
  -1  -3   5  186.23   10.20
  -1  -3   4  857.09   36.97
   1   3  -4  930.17   36.51
  -1  -3   4  885.30   33.70
  -1  -3   3  487.01   20.55
   1   3  -3  564.49   22.75
   1   3  -3  475.40   30.46
  -1  -3   2  663.06   17.03
   1   3  -2  708.93   17.97
   1   3  -2  624.71   17.13
  -1  -3   1 1851.27   43.76
   1   3  -1 1894.44   46.94
   1   3  -1 1742.12   40.45
  -1  -3   0   27.92    2.49
   1   3   0   35.06    2.43
   1   3   0   31.78    2.20
  -1  -3  -1    4.44    1.45
   1   3   1    7.37    1.59
   1   3   1    3.54    1.01
  -1  -3  -2  611.87   24.76
   1   3   2  590.44   23.46
   1   3   2  569.01   23.50
  -1  -3  -3  187.28   12.74
  -1  -3  -3  183.62   13.34
   1   3   3  199.64   10.16
  -1  -3  -4  116.59    7.56
  -1  -3  -4  109.70    7.31
   1   3   4   98.34    6.93
  -1  -3  -5  761.82   39.09
  -1  -3  -5  741.34   39.32
   1   3   5  751.64   40.72
  -1  -3  -6   53.96    3.85
  -1  -3  -6   46.94    8.86
   1   3   6   56.49    5.34
  -1  -3  -7   37.72    7.16
  -1  -3  -7   27.04    5.61
   1   3   7   46.44    9.53
  -1  -3  -8    2.89    2.14
   1   3   8    2.85    2.37
  -1  -3  -9    1.32    1.72
   1   3   9    1.84    2.37
   1   4 -12   82.86    7.48
  -1  -4  11  247.02   19.48
   1   4 -11  275.40   19.86
  -1  -4  10  173.77   18.54
   1   4 -10  181.61   18.20
  -1  -4   9   80.90   15.10
  -1  -4   9   69.44    6.85
  -1  -4   8   43.95   11.79
   1   4  -8   72.08    5.84
  -1  -4   8   59.13    4.00
  -1  -4   7  254.46   15.54
   1   4  -7  253.49   14.68
  -1  -4   7  273.41   14.43
  -1  -4   6  148.28    8.36
   1   4  -6  147.71    9.53
  -1  -4   6  154.46    7.33
  -1  -4   5    8.73    2.18
   1   4  -5    3.69    1.61
  -1  -4   4   98.07    7.56
   1   4  -4   96.25    7.27
   1   4  -4   84.58    9.91
  -1  -4   3    1.42    1.45
   1   4  -3    3.94    1.82
   1   4  -3    0.31    0.52
  -1  -4   2  431.69   23.80
   1   4  -2  447.44   24.42
   1   4  -2  383.05   20.70
  -1  -4   1  696.74   28.17
   1   4  -1  665.85   28.03
   1   4  -1  631.79   27.04
  -1  -4   0  875.14   37.12
   1   4   0  887.79   37.01
   1   4   0  769.30   32.28
  -1  -4  -1  152.24   11.10
  -1  -4  -3   11.25    2.39
  -1  -4  -3   12.15    2.33
   1   4   3    5.91    2.24
  -1  -4  -4  824.12   45.14
  -1  -4  -4  799.63   43.34
   1   4   4  833.40   45.33
  -1  -4  -5   10.85    1.99
  -1  -4  -5    6.85    1.80
   1   4   5    9.82    3.00
  -1  -4  -6   58.65   11.56
  -1  -4  -6   48.13   10.66
   1   4   6   64.85    8.86
  -1  -4  -7   44.51    9.30
  -1  -4  -7   38.14   10.05
   1   4   7   58.88    7.50
   1   4   8   16.15    5.45
  -1  -5  11    0.63    1.57
   1   5 -11   -0.90    2.39
  -1  -5  10   -0.04    1.53
   1   5 -10   -0.25    2.24
  -1  -5   9    7.62    3.00
   1   5  -9    3.29    2.28
  -1  -5   8  248.34   14.83
   1   5  -8  247.13   14.89
  -1  -5   7 1038.44   41.85
   1   5  -7 1103.84   46.06
  -1  -5   6  791.55   42.84
   1   5  -6  811.93   44.66
  -1  -5   5  161.52   10.22
   1   5  -5  157.89   13.78
   1   5  -5  112.11   16.72
  -1  -5   4  175.49    9.49
   1   5  -4  159.21   11.52
  -1  -5   3    9.47    2.58
   1   5  -3   11.90    2.16
   1   5  -3   10.45    1.78
  -1  -5   2   13.64    3.23
   1   5  -2   16.51    2.47
   1   5  -2   12.00    1.68
  -1  -5   1    1.65    1.63
   1   5  -1    1.26    1.03
   1   5  -1    1.97    1.26
  -1  -5   0   18.50    2.74
   1   5   0   18.18    2.39
   1   5   0   14.26    2.03
  -1  -5  -1   11.00    2.81
  -1  -5  -2  192.25   11.67
   1   5   2  198.34   11.56
   1   5   2  180.62   11.37
  -1  -5  -3 1182.05   47.28
  -1  -5  -3 1155.26   46.71
   1   5   3 1111.17   46.40
  -1  -5  -4  391.01   21.51
  -1  -5  -4  319.60   21.89
   1   5   4  359.76   20.23
  -1  -5  -5    4.34    1.49
  -1  -5  -5    4.52    1.40
   1   5   5    7.75    2.49
  -1  -5  -6   30.92    6.62
   1   5   6   43.17    9.66
   1   5   7    0.48    2.20
  -1  -6  11    3.75    2.12
  -1  -6  10    9.13    3.71
   1   6 -10    5.80    2.97
  -1  -6   9    1.40    1.78
   1   6  -9    3.12    2.26
  -1  -6   8   55.47    6.64
   1   6  -8   72.62    8.36
  -1  -6   7   32.07    6.77
   1   6  -7   42.86    8.46
  -1  -6   6   22.89    4.02
   1   6  -6   24.99    3.92
  -1  -6   5  194.15   11.44
   1   6  -5  216.77   11.98
  -1  -6   4  893.53   48.53
   1   6  -4  935.87   50.94
   1   6  -4  684.72   38.50
  -1  -6   3  513.13   31.36
   1   6  -3  522.24   28.78
   1   6  -3  425.63   25.91
  -1  -6   2  657.13   36.82
   1   6  -2  682.06   37.43
   1   6  -2  600.20   33.07
  -1  -6   1   35.29    4.82
   1   6  -1   32.59    3.85
   1   6  -1   28.32    3.44
  -1  -6   0   78.47    6.12
   1   6   0   76.14    4.94
   1   6   0   75.95    5.11
  -1  -6  -1   10.14    2.64
   1   6   1    6.24    1.61
   1   6   1    7.08    2.12
  -1  -6  -2  106.47   10.64
   1   6   2  117.51   20.67
   1   6   2  104.06   10.35
  -1  -6  -3  107.39   10.70
  -1  -6  -3   86.38    8.84
   1   6   3   89.48    9.15
  -1  -6  -4   16.11    4.17
   1   6   4   26.85    6.54
  -1  -6  -5    1.97    2.09
  -1  -6  -6   39.27    4.57
   1   6   6   36.78    5.78
  -1  -7   9  202.74   14.52
   1   7  -9  198.22   14.47
  -1  -7   8  117.11   10.01
   1   7  -8  119.10   10.37
  -1  -7   7    3.20    2.26
   1   7  -7   -0.98    1.80
  -1  -7   6   20.28    4.34
   1   7  -6   17.11    3.46
  -1  -7   5   10.49    3.94
   1   7  -5    3.27    2.64
  -1  -7   4    3.92    2.26
   1   7  -4   10.39    3.06
  -1  -7   3  193.88   18.14
   1   7  -3  186.59   17.01
   1   7  -3  170.86   15.33
  -1  -7   2  201.97   18.94
   1   7  -2  185.06   16.84
   1   7  -2  167.15   15.10
  -1  -7   1  116.38   11.69
   1   7  -1  128.11   12.48
   1   7  -1   95.64    9.24
  -1  -7   0  143.61   13.93
   1   7   0  161.10   15.00
   1   7   0  136.45   13.09
  -1  -7  -1  446.18   39.80
   1   7   1  422.45   37.16
   1   7   1  391.82   34.92
  -1  -7  -2  146.39   14.81
   1   7   2  118.01   12.25
  -1  -7  -3   13.13    3.75
   1   7   3   13.53    3.35
  -1  -7  -4   45.54    5.26
   1   7   4   44.41    5.22
  -1  -8   8  109.47    9.36
   1   8  -8   99.89    8.76
  -1  -8   7  150.54   11.69
   1   8  -7  133.11   10.68
  -1  -8   6   71.74    7.21
   1   8  -6  102.74    9.22
  -1  -8   5  103.83    9.38
   1   8  -5   87.20    7.83
  -1  -8   4   42.04    9.22
   1   8  -4   34.31    7.44
  -1  -8   3    3.14    2.60
   1   8  -3    1.32    1.76
  -1  -8   2    5.26    3.31
   1   8  -2    8.02    2.83
  -1  -8   1    9.55    4.06
   1   8  -1    1.59    1.51
  -1  -8   0  120.40    9.93
   1   8   0   92.02    7.81
  -1  -8  -1  249.89   17.89
   1   8   1  184.77   13.24
  -1  -8  -2  166.38   12.32
   1   8   2  125.32    9.36
  -1  -9   4   92.08    8.25
  -1  -9   3   63.05    6.54
   2  -9   1    3.52    2.43
  -2   9  -1    4.94    1.74
  -2   9  -2   16.53    4.57
   2  -9   3   18.79    5.13
  -2   9  -3   16.72    5.45
   2  -8  -4    7.37    3.69
  -2   8   4   14.68    4.92
   2  -8  -3   26.02    7.52
  -2   8   3   26.90    7.85
   2  -8  -2   11.06    4.25
  -2   8   2   10.60    4.40
   2  -8  -1    1.01    2.16
  -2   8   1    0.90    1.34
   2  -8   0   16.78    4.80
  -2   8   0    9.61    2.76
   2  -8   1    4.92    2.47
  -2   8  -1    4.15    1.86
   2  -8   2  170.02   13.62
  -2   8  -2  171.76   15.14
   2  -8   3  159.61   12.76
  -2   8  -3  155.15   14.20
   2  -8   4   75.16    6.95
  -2   8  -4   49.45   11.73
   2  -8   5   -0.98    1.68
  -2   8  -5   -1.68    1.70
  -2   8  -5    0.86    0.69
   2  -8   6   -1.19    1.74
  -2   8  -6   -0.29    2.01
   2  -7  -6    1.21    2.16
  -2   7   6    5.66    2.56
   2  -7  -5    3.52    2.28
  -2   7   5    0.88    2.26
   2  -7  -4  171.09   13.64
  -2   7   4  161.08   12.94
   2  -7  -3  215.12   21.18
   2  -7  -2   82.17    8.90
  -2   7   2   65.02    9.70
   2  -7  -1   26.94    6.03
  -2   7   1   24.51    5.36
   2  -7   0    5.26    3.08
  -2   7   0    0.04    1.47
   2  -7   1   41.73    8.17
  -2   7  -1   23.17    5.36
   2  -7   2  115.65   11.33
  -2   7  -2  118.98   10.98
  -2   7  -2  125.49   17.49
   2  -7   3   -0.59    1.82
  -2   7  -3    4.90    1.99
  -2   7  -3    4.57    1.86
   2  -7   4    6.03    2.64
  -2   7  -4    9.36    2.35
  -2   7  -4    8.50    2.28
   2  -7   5    4.11    2.53
  -2   7  -5   10.31    3.14
  -2   7  -5    3.16    1.11
   2  -7   6  126.73   10.12
  -2   7  -6  130.12   10.62
   2  -7   7   96.02    7.81
  -2   7  -7  119.90   10.20
   2  -7   7  123.12    9.99
  -2   7  -8   39.07    5.22
   2  -6  -7   20.09    6.20
  -2   6   7   14.29    4.52
   2  -6  -6    0.38    1.76
  -2   6   6    8.42    3.98
   2  -6  -5   54.13   11.48
  -2   6   5   56.97   12.00
   2  -6  -4  100.23   10.16
  -2   6   4  104.44   10.58
   2  -6  -3   33.79    4.99
  -2   6   3   22.08    3.85
   2  -6  -2   53.41    4.94
  -2   6   2   47.02    7.83
   2  -6  -1   60.89    6.54
  -2   6   1   57.37    9.78
   2  -6   0  401.96   22.87
  -2   6   0  421.67   25.60
   2  -6   1  735.74   40.11
  -2   6  -1  825.40   43.74
  -2   6  -1  754.76   43.25
   2  -6   2  520.39   29.85
  -2   6  -2  526.09   28.47
  -2   6  -2  541.17   30.31
   2  -6   3   65.69    5.03
  -2   6  -3   66.88    4.57
  -2   6  -3   64.98    7.39
   2  -6   4    0.23    1.36
  -2   6  -4    0.54    1.26
   2  -6   5    2.51    1.51
  -2   6  -5    6.54    2.51
   2  -6   5    0.23    1.42
   2  -6   6   28.84    4.29
  -2   6  -6   33.70    5.43
   2  -6   6   46.75    6.51
   2  -6   7   62.63    6.95
  -2   6  -7   70.23    7.98
   2  -6   7   71.80    8.11
  -2   6  -8   30.60    5.47
   2  -6   8   24.88    4.90
  -2   6  -9   21.34    4.86
   2  -6   9   22.85    4.96
   2  -5  -9   96.86    8.02
  -2   5   9  108.75    9.20
   2  -5  -8   10.05    4.34
  -2   5   8   23.63    4.99
   2  -5  -7   46.10    9.93
  -2   5   7   47.21   10.31
   2  -5  -6  506.11   44.30
  -2   5   6  448.32   39.97
   2  -5  -5  314.39   17.78
  -2   5   5  305.19   17.47
   2  -5  -4  422.09   23.90
  -2   5   4  426.49   24.47
   2  -5  -3   42.56    6.49
  -2   5   3   47.44    8.42
  -2   5   2    2.35    1.17
   2  -5  -1   58.27    5.01
  -2   5   1   66.78    7.81
   2  -5   0  508.77   23.67
  -2   5   0  483.99   21.07
  -2   5   0  536.65   26.60
   2  -5   1  805.81   35.76
  -2   5  -1  853.76   36.99
  -2   5  -1  933.77   48.18
   2  -5   2    9.49    2.16
  -2   5  -2    6.85    1.68
  -2   5  -2    6.68    1.28
   2  -5   3   90.97   12.36
  -2   5  -3  100.88   13.57
   2  -5   3  105.72   14.24
   2  -5   4  279.57   15.40
  -2   5  -4  272.97   15.25
   2  -5   4  310.89   17.13
   2  -5   5  432.27   23.90
  -2   5  -5  463.59   25.97
   2  -5   5  512.48   28.21
   2  -5   6  135.27    8.23
  -2   5  -6  160.62   10.35
   2  -5   6  168.12   10.35
   2  -5   7   50.23    9.22
  -2   5  -7   62.02   11.77
   2  -5   7   61.88   11.48
  -2   5  -8   12.82    4.13
   2  -5   8   16.28    4.36
  -2   5  -9    8.57    4.29
   2  -5   9    4.88    2.70
  -2   5 -10   16.19    4.69
   2  -5  10   17.01    4.00
   2  -4 -10  228.13   14.83
  -2   4  10  241.45   16.25
   2  -4  -9    2.45    2.16
  -2   4   9    1.59    2.28
   2  -4  -8    0.73    1.63
  -2   4   8    0.15    1.99
   2  -4  -7   94.62    9.55
  -2   4   7   95.29   10.05
   2  -4  -6  179.43   10.12
  -2   4   6  154.06    9.15
   2  -4  -5  362.16   19.92
  -2   4   5  373.87   21.20
   2  -4  -4  659.62   30.39
  -2   4   4  615.66   28.24
   2  -4  -3  396.39   18.60
  -2   4   3  415.49   31.02
   2  -4  -2  651.73   28.11
  -2   4   2  685.18   38.58
   2  -4  -1 2746.58  114.98
  -2   4   1 2551.47  102.74
  -2   4   1 2933.38  123.00
   2  -4   0 1014.54   42.29
  -2   4   0 1067.01   43.44
  -2   4   0 1144.26   49.43
   2  -4   1   23.36    2.39
  -2   4  -1   32.07    2.72
   2  -4   2  146.35   10.18
  -2   4  -2  150.50   10.33
   2  -4   2  174.34   12.09
   2  -4   3    0.34    1.03
  -2   4  -3    0.54    1.15
   2  -4   3    3.56    1.34
   2  -4   4  524.50   23.36
  -2   4  -4  590.27   26.60
   2  -4   4  605.14   27.23
   2  -4   5  522.80   27.13
  -2   4  -5  585.58   30.81
   2  -4   5  650.70   33.98
   2  -4   6  386.99   21.13
  -2   4  -6  415.35   23.75
   2  -4   6  458.83   25.55
   2  -4   7  123.29    7.27
  -2   4  -7  146.75    9.97
   2  -4   7  161.96    9.99
  -2   4  -8   43.69    6.83
   2  -4   8   39.51    5.82
  -2   4  -9   96.77    8.94
   2  -4   9  111.33    9.34
  -2   4 -10   13.51    4.36
   2  -4  10   18.85    5.32
   2  -3 -10  135.04   10.58
  -2   3  10  134.79   11.08
   2  -3  -9  106.05   10.95
  -2   3   9   92.06   10.08
   2  -3  -8  207.66   12.57
  -2   3   8  225.97   13.70
   2  -3  -7  590.38   24.82
  -2   3   7  545.32   23.86
   2  -3  -6   92.90   12.76
  -2   3   6   84.83   11.75
   2  -3  -5  202.70   10.37
  -2   3   5  188.22    9.93
   2  -3  -4   40.47    3.98
  -2   3   4   41.49    6.41
   2  -3  -3  109.47    7.00
  -2   3   3  105.49    8.02
   2  -3  -2 2120.87   81.13
  -2   3   2 2230.90   89.29
   2  -3  -1 4447.62  168.39
  -2   3   1 4332.31  162.84
  -2   3   1 4728.10  189.65
   2  -3   0 1398.74   53.85
  -2   3   0 1387.10   52.62
   2  -3   1  685.28   27.17
  -2   3  -1  739.81   28.74
   2  -3   1  794.50   31.19
   2  -3   2   86.86    5.38
  -2   3  -2   85.59    5.49
   2  -3   2   99.52    6.41
   2  -3   3 1221.28   46.90
  -2   3  -3 1372.54   53.08
   2  -3   3 1458.48   56.33
   2  -3   4  561.80   23.50
  -2   3  -4  629.52   27.06
   2  -3   4  682.27   29.01
   2  -3   5  119.94    7.14
  -2   3  -5  140.43    9.09
   2  -3   6    1.47    0.63
  -2   3  -6    3.60    1.99
   2  -3   6    1.82    1.53
  -2   3  -7   93.80    6.60
   2  -3   7  107.10    7.18
  -2   3  -8   68.43    9.09
   2  -3   8   64.41   12.11
  -2   3  -9  244.24   23.73
   2  -3   9  297.84   28.38
  -2   3 -10  147.63   11.48
   2  -3  10  142.23   11.02
   2  -2 -11   42.19    5.11
  -2   2  11   36.61    5.09
   2  -2 -10    0.17    1.53
   2  -2 -10   -0.54    1.17
  -2   2  10    7.10    3.14
   2  -2  -9  138.79   13.22
   2  -2  -9  113.95   10.56
  -2   2   9  135.08   13.09
   2  -2  -8  547.56   23.38
   2  -2  -8  487.95   20.13
  -2   2   8  495.66   21.39
   2  -2  -7 1385.36   70.53
   2  -2  -7 1177.84   59.53
  -2   2   7 1284.73   65.77
   2  -2  -6 1160.43   52.66
   2  -2  -6 1021.89   44.41
  -2   2   6 1103.52   48.76
   2  -2  -5  585.31   25.51
   2  -2  -5  530.34   21.99
  -2   2   5  553.95   23.88
   2  -2  -4  649.30   26.56
   2  -2  -4  580.93   22.37
  -2   2   4  605.35   24.28
   2  -2  -3  701.64   27.75
   2  -2  -3  642.93   24.34
  -2   2   3  711.22   28.34
   2  -2  -2 2002.44   49.16
  -2   2   2 1875.48   42.12
  -2   2   2 2087.96   49.73
   2  -2  -1   47.82    2.74
  -2   2   1   44.89    3.06
  -2   2   1   59.24    7.35
   2  -2   0   85.67    3.92
  -2   2   0   79.20    3.98
   2  -2   0   89.92    4.15
   2  -2   1   13.99    1.40
  -2   2  -1   13.01    2.85
   2  -2   1   20.07    2.01
   2  -2   2 1826.70   42.17
  -2   2  -2 1952.36   46.61
   2  -2   2 2060.44   49.41
   2  -2   3 4618.55  174.00
  -2   2  -3 5495.68  207.71
   2  -2   3 5607.01  211.81
   2  -2   4 1840.00   74.28
  -2   2  -4 2276.86   93.00
   2  -2   4 2423.92   98.78
   2  -2   5  275.78   12.13
  -2   2  -5  337.70   16.19
   2  -2   5  343.17   16.30
  -2   2  -6  315.79   17.74
   2  -2   6  338.43   18.64
  -2   2  -7   -0.10    1.95
   2  -2   7    3.75    2.28
  -2   2  -8  100.82   10.60
   2  -2   8  113.89   11.48
  -2   2  -9   76.75    9.20
   2  -2   9   81.06    8.88
  -2   2 -10   20.93    4.23
   2  -2  10   20.84    4.59
  -2   1  12  134.64    9.93
   2  -1 -11    9.43    3.50
   2  -1 -11    8.15    3.02
  -2   1  11   16.09    3.83
   2  -1 -10   26.52    4.21
   2  -1 -10   34.52    4.92
  -2   1  10   34.46    5.49
   2  -1  -9   30.71    3.98
   2  -1  -9   30.10    3.69
  -2   1   9   32.89    4.34
   2  -1  -8  232.82   13.87
   2  -1  -8  201.11   11.79
  -2   1   8  213.34   12.84
   2  -1  -7  187.22    9.66
   2  -1  -7  196.60    9.84
  -2   1   7  200.75   10.33
   2  -1  -6   78.80    6.14
   2  -1  -6   70.78    5.24
  -2   1   6   80.64    6.39
   2  -1  -5 2175.77   84.08
   2  -1  -5 2008.58   77.88
  -2   1   5 2081.18   80.08
   2  -1  -4 3108.24   71.78
   2  -1  -4 2910.70   66.36
  -2   1   4 2991.17   69.61
   2  -1  -3 9232.95  209.11
   2  -1  -3 8971.60  202.32
  -2   1   3 9343.54  237.43
   2  -1  -2 5964.00  137.56
   2  -1  -2 6016.83  135.42
  -2   1   2 6268.42  141.74
   2  -1  -1  284.81   10.24
   2  -1  -1  285.37    9.61
   2  -1  -1  322.51   11.23
   2  -1   0 1146.04   30.29
  -2   1   0 1227.15   28.97
   2  -1   0 1226.94   28.91
   2  -1   1   58.48    2.35
  -2   1  -1   58.69    3.06
   2  -1   1   62.63    3.29
   2  -1   2 1314.05   29.83
  -2   1  -2 1474.38   35.04
   2  -1   2 1577.16   37.24
  -2   1  -3  787.34   31.11
   2  -1   3  817.94   32.11
  -2   1  -4  684.40   32.43
   2  -1   4  781.11   31.13
  -2   1  -5  455.06   20.34
   2  -1   5  501.90   22.22
  -2   1  -6  871.85   45.89
   2  -1   6  962.55   49.79
  -2   1  -7  425.44   18.94
   2  -1   7  440.92   19.48
  -2   1  -8  598.44   52.16
   2  -1   8  551.92   48.05
  -2   1  -9   69.44    8.50
   2  -1   9   77.06    8.80
  -2   1 -10    7.06    3.25
   2  -1  10    5.30    3.44
  -2   0  12   32.82   11.23
   2   0 -12   28.80    7.54
  -2   0  12   49.75    5.45
   2   0 -11   72.33    6.66
  -2   0  11   87.35    7.90
   2   0 -10  415.39   36.32
   2   0 -10  367.02   32.19
  -2   0  10  381.87   33.54
   2   0  -9  805.06   34.46
   2   0  -9  729.86   30.52
  -2   0   9  761.72   31.04
   2   0  -8  412.04   22.48
   2   0  -8  377.58   20.30
  -2   0   8  410.09   21.87
   2   0  -7    7.06    1.45
   2   0  -7    7.50    1.78
  -2   0   7   10.68    1.97
   2   0  -6   35.13    3.41
   2   0  -6   28.24    2.76
  -2   0   6   31.69    2.91
   2   0  -5   72.06    4.86
   2   0  -5   67.91    4.55
  -2   0   5   68.41    4.48
   2   0  -4 1772.09   42.29
   2   0  -4 1739.08   44.80
  -2   0   4 1757.26   42.04
   2   0  -3 3025.84   69.92
   2   0  -3 2914.68   66.48
  -2   0   3 2906.74   66.69
   2   0  -2 6027.53  136.47
   2   0  -2 6258.40  141.35
   2   0  -1  301.02   10.64
   2   0  -1  331.29   11.33
   2   0  -1  321.32   10.91
   2   0   0 9757.55  507.26
   2   0   0 9642.97  220.13
   2   0   0 9999.00  225.66
  -2   0  -1 6071.75  136.30
  -2   0  -1 6046.89  140.72
   2   0   1 6015.91  144.97
  -2   0  -2 3446.78   84.81
   2   0   2 3396.45   78.15
  -2   0  -3  246.00   17.07
   2   0   3  261.77   14.89
  -2   0  -4   19.92    3.37
   2   0   4   29.03    3.48
  -2   0  -5    1.45    1.70
   2   0   5   -0.90    1.42
  -2   0  -6  187.22   11.27
   2   0   6  185.04   11.19
  -2   0  -7  517.04   22.27
   2   0   7  579.48   25.07
  -2   0  -8  277.90   25.11
   2   0   8  295.64   26.54
  -2   0  -9   81.67    8.13
   2   0   9   90.72    8.36
  -2   0 -10   60.20    6.51
   2   0  10   62.06   11.58
  -2  -1  12   12.32    4.17
   2   1 -12   11.02    3.94
  -2  -1  12    8.40    3.00
  -2  -1  11   39.99   10.14
   2   1 -11   41.20    8.97
  -2  -1  11   33.74    7.33
  -2  -1  10  435.23   38.86
   2   1 -10  418.76   37.01
  -2  -1  10  446.14   38.75
  -2  -1   9  372.51   16.38
   2   1  -9  346.29   16.13
  -2  -1   9  342.24   14.83
  -2  -1   8  850.76   52.24
   2   1  -8  754.47   39.21
  -2  -1   8  822.67   42.04
  -2  -1   7  804.55   34.25
   2   1  -7  737.36   31.31
  -2  -1   7  755.69   31.48
   2   1  -6 1386.86   54.19
  -2  -1   6 1379.62   52.76
   2   1  -5 1564.51   60.85
  -2  -1   5 1547.71   58.75
  -2  -1   4 1833.72   52.11
   2   1  -4 1748.23   44.72
  -2  -1   4 1619.92   37.05
   2   1  -3    3.67    1.28
  -2  -1   3    5.47    1.07
  -2  -1   2 2543.28   61.35
   2   1  -2 2599.08   82.30
   2   1  -2 2454.38   55.45
  -2  -1   1   10.03    1.68
   2   1  -1   10.16    1.53
  -2  -1   0 4116.69   93.34
   2   1   0 4109.59   93.99
   2   1   0 4072.54   92.48
  -2  -1  -1 7214.63  163.17
   2   1   1 7258.32  165.41
   2   1   1 6738.18  152.83
  -2  -1  -2 2613.38   98.62
  -2  -1  -2 2764.81  105.28
   2   1   2 2733.78  104.04
  -2  -1  -3 2459.53   92.77
  -2  -1  -3 2699.83  104.00
   2   1   3 2474.82   95.79
  -2  -1  -4  319.18   13.30
  -2  -1  -4  307.81   14.87
   2   1   4  320.12   14.85
  -2  -1  -5  496.20   26.22
   2   1   5  492.43   22.96
  -2  -1  -6  312.25   18.77
   2   1   6  361.95   20.76
  -2  -1  -7   26.08    3.94
   2   1   7   31.46    4.63
  -2  -1  -8   18.60    4.00
   2   1   8   12.53    3.54
  -2  -1  -9    4.55    2.62
   2   1   9    1.51    2.22
  -2  -1 -10  129.57    9.95
   2   1  10  134.87   10.54
  -2  -2  12   40.47    8.34
   2   2 -12   48.45    5.51
  -2  -2  11  130.35   13.74
   2   2 -11  115.92   12.15
  -2  -2  11  127.38   12.59
  -2  -2  10   85.40    8.53
   2   2 -10   87.41    8.84
  -2  -2  10   85.08    8.29
  -2  -2   9    8.97    2.05
   2   2  -9    4.25    1.82
  -2  -2   9    3.58    1.09
  -2  -2   8  154.58   13.47
   2   2  -8  144.49   12.63
  -2  -2   8  152.26   12.57
  -2  -2   7  160.95    9.05
   2   2  -7  150.94    8.29
  -2  -2   7  154.25    7.46
  -2  -2   6 2105.43   87.24
   2   2  -6 1966.60   81.38
  -2  -2   6 1944.88   78.57
  -2  -2   5 5259.21  206.03
   2   2  -5 5092.67  196.71
  -2  -2   5 4966.26  186.63
  -2  -2   4 2663.49  104.69
   2   2  -4 2596.42  100.67
  -2  -2   3  304.69   11.67
   2   2  -3  309.50   11.73
  -2  -2   2   87.14    6.93
   2   2  -2   75.49    3.85
   2   2  -2   74.55    3.39
  -2  -2   1  509.71   14.08
   2   2  -1  479.74   13.05
   2   2  -1  458.16   11.31
  -2  -2   0 1633.80   38.23
   2   2   0 1650.10   40.95
   2   2   0 1555.94   36.43
  -2  -2  -1  184.62   10.31
   2   2   1  196.83   11.25
   2   2   1  163.53    9.40
  -2  -2  -2  127.21    7.35
  -2  -2  -2  154.31   15.50
   2   2   2  130.48    8.04
  -2  -2  -3  197.80    8.84
  -2  -2  -3  205.86   10.26
   2   2   3  180.43   12.55
  -2  -2  -4  828.66   35.69
  -2  -2  -4  842.57   38.71
   2   2   4  828.43   36.93
  -2  -2  -5 1371.76   68.89
  -2  -2  -5 1259.09   65.52
   2   2   5 1353.27   69.31
  -2  -2  -6  572.63   25.24
   2   2   6  649.40   27.59
  -2  -2  -7  203.24   19.48
   2   2   7  219.90   20.28
  -2  -2  -8    8.25    3.16
   2   2   8   21.07    6.05
  -2  -2  -9   72.89    7.08
   2   2   9   66.76    6.79
  -2  -3  12  164.85   14.54
   2   3 -12  166.65   12.76
  -2  -3  11  278.13   30.85
   2   3 -11  310.47   29.76
  -2  -3  10   90.95   15.19
   2   3 -10   96.90    9.99
  -2  -3   9  173.90   24.03
   2   3  -9  165.56    9.74
  -2  -3   8   12.11    3.06
   2   3  -8   10.35    2.72
  -2  -3   8    8.38    1.34
  -2  -3   7  151.61   19.02
   2   3  -7  137.53    9.09
  -2  -3   6  411.68   18.66
   2   3  -6  376.87   17.34
  -2  -3   5  613.84   28.21
   2   3  -5  585.68   25.55
  -2  -3   4    2.35    1.05
   2   3  -4    6.68    2.20
  -2  -3   3  616.56   26.37
   2   3  -3  623.81   27.73
   2   3  -3  530.43   20.09
  -2  -3   2 1953.38   76.41
   2   3  -2 1999.86   77.94
   2   3  -2 1684.12   63.70
  -2  -3   1 5487.89  207.41
   2   3  -1 5474.50  219.04
   2   3  -1 4659.31  175.72
  -2  -3   0 2752.30  105.38
   2   3   0 2912.48  112.29
   2   3   0 2588.65   98.32
  -2  -3  -1  258.19   11.69
   2   3   1  269.54   12.42
   2   3   1  223.37   10.35
  -2  -3  -2    3.29    1.42
   2   3   2    4.06    1.38
  -2  -3  -3  137.45    8.46
  -2  -3  -3  158.04   16.36
   2   3   3  126.68    8.42
  -2  -3  -4   49.83    6.91
  -2  -3  -4   55.45   11.56
   2   3   4   56.22    8.23
  -2  -3  -5  300.39   12.90
  -2  -3  -5  259.95   16.32
   2   3   5  316.84   15.10
  -2  -3  -6  110.97   11.25
   2   3   6  110.09   11.02
  -2  -3  -7   64.41   12.80
   2   3   7   71.93    8.40
  -2  -3  -8  140.76   10.64
   2   3   8  153.41   12.04
  -2  -4  12    9.15    3.54
   2   4 -12   15.88    4.34
  -2  -4  11   60.72   10.70
   2   4 -11   58.23   17.76
  -2  -4  10    2.12    0.73
  -2  -4   9  146.92    9.68
   2   4  -9  146.71    9.78
  -2  -4   8  580.28   24.51
   2   4  -8  556.92   26.83
  -2  -4   7  781.11   42.90
   2   4  -7  805.54   41.98
  -2  -4   6  722.78   35.84
   2   4  -6  787.71   35.92
  -2  -4   5   -1.38    1.42
   2   4  -5    8.84    1.82
  -2  -4   4  112.23    8.55
   2   4  -4  120.76    8.97
  -2  -4   3    9.87    1.91
   2   4  -3    4.73    1.36
   2   4  -3    4.25    0.78
  -2  -4   2  729.06   31.15
   2   4  -2  744.52   32.61
   2   4  -2  608.85   25.22
  -2  -4   1 1741.53   71.97
   2   4  -1 1740.78   71.55
   2   4  -1 1500.23   61.23
  -2  -4   0  361.35   16.40
   2   4   0  379.97   17.09
   2   4   0  339.50   15.02
  -2  -4  -1  403.60   19.15
   2   4   1  397.48   18.45
   2   4   1  370.54   17.24
  -2  -4  -2  826.34   42.40
   2   4   2  817.00   42.21
   2   4   2  720.83   37.39
  -2  -4  -3  575.25   31.92
  -2  -4  -3  586.61   36.32
   2   4   3  566.71   31.34
  -2  -4  -4  252.78   11.50
  -2  -4  -4  264.30   16.63
   2   4   4  252.17   12.27
  -2  -4  -5  104.19    9.82
  -2  -4  -5  107.48   11.98
   2   4   5  109.11   10.93
  -2  -4  -6    5.43    1.70
   2   4   6    0.50    2.16
  -2  -4  -7    1.93    1.17
   2   4   7    1.21    2.24
  -2  -5  11    1.11    1.95
   2   5 -11   -1.61    2.14
  -2  -5  10   18.33    4.42
   2   5 -10   10.35    4.15
  -2  -5   9   58.48    9.40
   2   5  -9   37.43    5.95
  -2  -5   8  124.53    9.03
   2   5  -8  121.55   12.25
  -2  -5   7  344.88   15.92
   2   5  -7  317.07   15.90
  -2  -5   6  245.74   15.90
   2   5  -6  241.18   14.52
  -2  -5   5  160.49   14.01
   2   5  -5  136.21   18.33
  -2  -5   4  103.98   14.39
   2   5  -4   97.11   13.30
  -2  -5   3 1116.01   57.31
   2   5  -3  879.50   44.36
  -2  -5   2  626.13   33.43
   2   5  -2  596.79   31.29
   2   5  -2  492.22   25.39
  -2  -5   1   20.59    3.92
   2   5  -1   23.77    3.94
   2   5  -1   18.39    3.02
  -2  -5   0    7.10    2.30
   2   5   0    7.83    2.20
   2   5   0   12.09    2.72
  -2  -5  -1   16.40    2.93
   2   5   1   13.78    2.64
   2   5   1   14.08    2.62
  -2  -5  -2  292.22   13.57
   2   5   2  273.87   12.55
   2   5   2  271.53   12.69
  -2  -5  -3  237.60   13.82
  -2  -5  -3  204.84   12.55
   2   5   3  231.94   13.70
  -2  -5  -4  412.08   36.49
  -2  -5  -4  395.18   38.27
   2   5   4  422.45   37.75
  -2  -5  -5   60.72    5.74
  -2  -5  -5   37.79    9.59
   2   5   5   54.86   16.72
  -2  -5  -6   23.12    7.79
   2   5   6   37.33    5.43
  -2  -6  11   14.49    3.37
   2   6 -11   24.34    4.75
  -2  -6  10   57.54    8.67
   2   6 -10   64.18    9.89
  -2  -6   9  111.46    9.87
   2   6  -9   91.16    8.57
  -2  -6   8   45.14    7.00
   2   6  -8   36.55    5.66
  -2  -6   7    0.92    2.07
   2   6  -7    3.64    2.12
  -2  -6   6    5.74    2.33
   2   6  -6    8.86    2.89
  -2  -6   5   81.94    6.89
   2   6  -5   56.60    5.07
  -2  -6   4  474.33   20.90
   2   6  -4  487.30   23.15
  -2  -6   3  655.39   28.17
   2   6  -3  668.84   28.68
  -2  -6   2  360.11   16.59
   2   6  -2  352.88   15.69
   2   6  -2  259.42   11.48
  -2  -6   1   85.61    6.22
   2   6  -1   73.12    5.30
   2   6  -1   67.89    4.48
  -2  -6   0   97.09    9.87
   2   6   0   83.20    8.34
   2   6   0   78.67    7.88
  -2  -6  -1   60.12   11.14
   2   6   1   66.63    8.46
   2   6   1   59.47    7.94
  -2  -6  -2   93.13    9.53
   2   6   2   82.19    8.61
  -2  -6  -3    3.79    1.26
  -2  -6  -4   -0.13    1.63
  -2  -6  -4   -0.17    1.40
   2   6   4    4.73    2.60
   2   6   5    4.29    3.37
  -2  -7  10   20.80    5.11
  -2  -7   9   89.67    8.63
   2   7  -9  106.49    9.28
  -2  -7   8  144.26   11.65
   2   7  -8  139.48   11.33
  -2  -7   7   17.78    5.22
   2   7  -7   24.59    5.89
  -2  -7   6    1.42    2.18
   2   7  -6    2.60    2.05
  -2  -7   5   29.91    5.40
   2   7  -5   28.24    4.67
  -2  -7   4  108.75   11.19
   2   7  -4  121.62   11.92
  -2  -7   3   16.17    4.17
  -2  -7   2    7.75    3.10
   2   7  -2    4.44    1.57
   2   7  -2    7.77    1.89
  -2  -7   1    5.74    2.43
   2   7  -1    9.91    2.47
  -2  -7   0   74.49    8.61
   2   7   0   62.23    7.08
   2   7   0   47.76    9.97
  -2  -7  -1  234.41   17.57
   2   7   1  229.53   16.90
   2   7   1  183.95   13.89
  -2  -7  -2  168.30   13.22
   2   7   2  155.55   11.79
  -2  -7  -3   10.45    4.02
   2   7   3    9.78    3.73
  -2  -8   8    5.07    3.92
   2   8  -8    4.13    2.45
  -2  -8   7    5.17    2.85
   2   8  -7    2.01    2.35
  -2  -8   6   73.63    7.85
   2   8  -6   79.41    7.54
  -2  -8   5  178.92   13.70
   2   8  -5  189.80   14.18
  -2  -8   4  160.70   12.65
   2   8  -4  161.33   12.69
  -2  -8   3    9.61    3.88
   2   8  -3   11.50    4.15
  -2  -8   2    2.70    2.33
   2   8  -2    3.64    2.89
  -2  -8   1    3.48    2.28
   2   8  -1   -0.61    1.70
  -2  -8   0    9.74    3.58
  -2  -8  -1   24.86    5.78
   3  -8  -3  365.26   22.73
  -3   8   3  336.11   21.30
   3  -8  -2  175.20   13.07
  -3   8   2  133.81   22.27
   3  -8  -1    3.25    3.41
  -3   8   1   -0.80    1.30
   3  -8   0    6.35    3.58
  -3   8   0    3.25    2.12
   3  -8   1   -2.62    1.97
  -3   8  -1    4.42    2.14
   3  -8   2   23.25    4.88
  -3   8  -2   17.80    4.04
   3  -8   3   40.82    6.64
  -3   8  -3   36.36    8.97
   3  -8   4   23.82    6.79
  -3   8  -4   18.62    5.84
   3  -8   5   87.22    7.23
  -3   8  -5   69.44   13.74
   3  -7  -6   37.18    4.99
  -3   7   6   29.74    6.07
   3  -7  -5    8.27    4.04
  -3   7   5   13.62    4.48
   3  -7  -4   87.54    8.40
  -3   7   4   73.15   13.26
   3  -7  -3  253.64   24.55
  -3   7   3  223.88   35.53
   3  -7  -2   61.42    7.37
  -3   7   2   52.81   12.74
   3  -7  -1  106.07   10.98
  -3   7   1  110.28   21.47
   3  -7   0  278.76   25.53
  -3   7   0  315.96   30.14
   3  -7   1  281.81   25.72
  -3   7  -1  352.47   31.73
   3  -7   2   78.57    8.25
  -3   7  -2   80.18   16.02
   3  -7   3   22.12    4.02
  -3   7  -3   26.81    4.17
  -3   7  -3   25.01    6.30
   3  -7   4    1.47    1.53
  -3   7  -4    4.59    2.39
  -3   7  -4   11.02    2.93
   3  -7   5   -0.31    1.40
   3  -7   6   50.19    7.27
  -3   7  -6   59.76    9.01
   3  -7   6   73.02   10.58
  -3   7  -7   95.85    8.34
   3  -7   7  112.61    9.01
   3  -6  -7    0.52    2.16
  -3   6   7    6.95    4.00
  -3   6   6   97.57    9.40
   3  -6  -5  219.64   21.55
  -3   6   5  250.23   24.38
   3  -6  -4  145.28   14.12
  -3   6   4  143.13   23.44
   3  -6  -3    3.94    2.07
  -3   6   3    6.20    1.36
   3  -6  -2  114.77   11.52
  -3   6   2  127.40   14.96
   3  -6  -1    5.84    2.74
  -3   6   1    6.70    2.43
   3  -6   0  307.66   14.52
  -3   6   0  332.84   16.48
   3  -6   1  262.10   12.42
  -3   6  -1  298.82   12.65
  -3   6  -1  287.36   15.02
   3  -6   2  690.12   28.61
  -3   6  -2  741.02   29.74
  -3   6  -2  722.51   36.40
   3  -6   3  241.11   13.89
  -3   6  -3  249.62   14.01
   3  -6   4  119.65   11.39
  -3   6  -4  134.10   12.57
   3  -6   4  156.07   14.66
   3  -6   5  114.70   10.98
  -3   6  -5  132.11   12.76
   3  -6   5  149.20   14.33
   3  -6   6   71.36    7.62
  -3   6  -6   99.85   10.66
   3  -6   6  121.28   12.61
  -3   6  -7    4.08    2.68
   3  -6   7    2.72    3.23
  -3   6  -8   13.01    4.06
   3  -6   8   15.46    4.44
   3  -5  -9    1.89    2.39
  -3   5   9    4.00    2.79
   3  -5  -8   56.97    8.73
  -3   5   8   53.69    8.61
   3  -5  -7    1.32    1.89
  -3   5   7   -0.15    1.93
   3  -5  -6  372.55   33.16
  -3   5   6  333.07   29.87
   3  -5  -5 1032.39   53.41
  -3   5   5 1013.77   55.34
   3  -5  -4  280.66   13.70
  -3   5   4  278.36   14.47
   3  -5  -3   20.44    3.46
  -3   5   3   20.80    3.23
   3  -5  -2   29.16    4.99
  -3   5   2   34.75    6.74
   3  -5  -1   41.60    6.35
  -3   5   1   45.45    9.72
   3  -5   0   25.28    4.25
  -3   5   0   25.09    3.64
  -3   5   0   27.67    5.43
   3  -5   1    4.13    1.47
  -3   5  -1    5.22    1.49
  -3   5  -1   -0.21    1.51
   3  -5   2   42.98    6.33
  -3   5  -2   46.92    6.66
   3  -5   2   47.21    6.98
   3  -5   3   10.81    1.99
  -3   5  -3   15.48    2.56
   3  -5   3   18.45    3.14
   3  -5   4  433.61   18.33
  -3   5  -4  461.09   19.86
   3  -5   4  519.12   22.25
   3  -5   5  706.59   36.30
  -3   5  -5  795.94   41.70
   3  -5   5  952.54   49.33
  -3   5  -6  242.75   22.31
   3  -5   6  255.97   23.08
  -3   5  -7   14.01    3.79
   3  -5   7   22.12    5.30
  -3   5  -8   14.89    3.54
   3  -5   8   11.63    4.19
  -3   5  -9   11.60    3.75
   3  -5   9    9.99    2.95
   3  -4 -10   14.73    4.06
  -3   4  10   13.32    3.46
   3  -4  -9   15.10    3.98
  -3   4   9   19.69    4.44
   3  -4  -8   30.16    6.85
  -3   4   8   14.06    3.77
   3  -4  -7    3.85    1.99
  -3   4   7    0.17    2.09
   3  -4  -6  540.96   24.61
  -3   4   6  542.72   24.13
   3  -4  -5    8.86    2.53
  -3   4   5    6.35    1.61
   3  -4  -4    0.36    1.53
  -3   4   4    0.75    1.05
   3  -4  -3   60.72    5.09
  -3   4   3   67.87   11.04
   3  -4  -2  816.14   36.78
  -3   4   2  906.90   40.47
   3  -4  -1  989.22   41.75
  -3   4   1  927.30   37.64
  -3   4   1 1127.95   49.45
   3  -4   0  668.74   28.59
  -3   4   0  678.64   28.05
  -3   4   0  733.23   35.27
   3  -4   1   88.69    6.70
  -3   4  -1   90.30    6.58
   3  -4   1  106.22    8.11
   3  -4   2    9.01    1.63
  -3   4  -2    4.36    1.53
   3  -4   2    6.33    2.05
   3  -4   3   -0.69    0.80
  -3   4  -3    2.66    1.93
   3  -4   3    1.93    1.51
   3  -4   4   56.79    7.75
  -3   4  -4   53.16    7.62
   3  -4   4   77.98   10.93
   3  -4   5   59.01    5.36
  -3   4  -5   70.76    7.25
   3  -4   5   83.64    8.06
  -3   4  -6    2.30    2.93
   3  -4   6    0.38    1.68
  -3   4  -7   60.58    7.31
   3  -4   7   62.02    7.25
  -3   4  -8  193.21   15.19
   3  -4   8  214.49   16.42
  -3   4  -9  336.44   23.31
   3  -4   9  340.30   22.77
   3  -3 -11    1.11    2.01
  -3   3  11    0.23    2.41
   3  -3 -10    2.09    2.28
  -3   3  10   -1.55    2.14
   3  -3  -9    7.29    2.89
  -3   3   9    9.32    3.37
   3  -3  -8  128.05    8.80
  -3   3   8  122.03   21.85
   3  -3  -7  932.72   38.08
  -3   3   7  858.26   35.40
   3  -3  -6  154.67   13.41
  -3   3   6  137.60   18.41
   3  -3  -5  123.79    8.29
  -3   3   5  120.74    8.15
   3  -3  -4  390.36   17.64
  -3   3   4  439.60   19.48
   3  -3  -3    0.75    1.28
  -3   3   3    2.45    1.13
  -3   3   2    0.17    0.17
   3  -3  -1  781.74   30.83
  -3   3   1  751.14   28.78
  -3   3   1  871.20   35.21
   3  -3   0  323.02   17.83
  -3   3   0  315.94   17.09
   3  -3   0  354.85   19.77
   3  -3   1  486.04   19.63
  -3   3  -1  426.01   27.61
   3  -3   1  529.53   21.64
   3  -3   2  959.08   41.54
  -3   3  -2  973.53   40.47
   3  -3   2 1171.10   48.74
   3  -3   3  457.30   19.27
  -3   3  -3  494.06   21.60
   3  -3   3  538.20   23.50
   3  -3   4  280.05   12.57
  -3   3  -4  338.91   16.32
   3  -3   4  386.69   18.39
  -3   3  -5    8.40    3.02
  -3   3  -6  202.57   11.39
   3  -3   6  215.16   11.79
  -3   3  -7   -1.89    2.12
   3  -3   7    2.53    1.97
  -3   3  -8  129.72   13.76
   3  -3   8  147.63   15.06
  -3   3  -9  165.90   13.07
   3  -3   9  168.66   13.15
   3  -2 -11   47.80    5.36
  -3   2  11   34.56    6.24
   3  -2 -10  160.74   16.00
  -3   2  10  169.08   16.72
   3  -2  -9   -1.61    1.51
  -3   2   9   -1.13    1.74
   3  -2  -8  216.33   11.71
   3  -2  -8  191.62    9.64
  -3   2   8  231.75   11.46
   3  -2  -7  330.16   18.60
   3  -2  -7  309.50   16.25
  -3   2   7  318.49   17.62
   3  -2  -6   23.42    3.04
   3  -2  -6   22.77    1.93
   3  -2  -5   40.38    4.15
   3  -2  -5   28.42    2.24
  -3   2   5   33.60    6.89
   3  -2  -4  119.35    7.65
   3  -2  -4  112.40    6.22
  -3   2   4  113.19    7.44
   3  -2  -3  229.89   13.11
   3  -2  -3  219.16   11.73
  -3   2   3  246.69   14.14
   3  -2  -2  113.66    7.02
  -3   2   2  117.01    6.87
  -3   2   2  151.30   14.14
   3  -2  -1   36.51    2.85
  -3   2   1   32.80    2.47
   3  -2  -1   35.84    3.10
   3  -2   0  262.94   15.14
  -3   2   0  258.60   15.04
   3  -2   0  268.11   15.00
   3  -2   1   72.31    5.89
  -3   2  -1   77.46    5.45
   3  -2   1   84.60    5.78
   3  -2   2  150.29    8.36
  -3   2  -2  137.26    8.90
   3  -2   2  153.73    9.34
   3  -2   3  859.12   34.94
  -3   2  -3  993.87   42.52
   3  -2   3 1102.22   45.91
  -3   2  -4  195.58   10.10
   3  -2   4  240.95   12.25
  -3   2  -5   35.02    5.72
   3  -2   5   41.16    6.49
  -3   2  -6    2.72    2.24
   3  -2   6    2.53    1.82
  -3   2  -7  484.72   26.60
   3  -2   7  570.81   30.60
  -3   2  -8   66.61    8.27
   3  -2   8   71.32    8.42
  -3   2  -9   -1.59    2.45
   3  -2   9    5.51    3.44
   3  -1 -12   13.55    3.16
  -3   1  12   14.73    3.73
   3  -1 -11   30.46    7.16
   3  -1 -11   18.60    4.38
  -3   1  11   29.12    6.58
   3  -1 -10    1.89    1.72
   3  -1 -10    1.45    1.26
  -3   1  10    4.61    1.89
   3  -1  -9  194.09   11.75
   3  -1  -9  175.80   10.52
  -3   1   9  169.85   10.41
   3  -1  -8   41.24    4.92
   3  -1  -8   45.47    4.38
  -3   1   8   51.42    5.36
   3  -1  -7   17.01    3.35
   3  -1  -7   14.24    2.41
  -3   1   7   13.36    2.72
   3  -1  -6  810.63   34.42
   3  -1  -6  761.40   33.85
  -3   1   6  761.13   32.74
   3  -1  -5  166.25    9.97
   3  -1  -5  155.76    8.80
  -3   1   5  155.36    9.89
   3  -1  -4  370.90   20.42
   3  -1  -4  384.72   20.59
  -3   1   4  368.53   20.11
   3  -1  -3  941.10   36.68
   3  -1  -3  973.38   37.26
  -3   1   3 1011.19   39.40
   3  -1  -2   44.74    2.72
   3  -1  -2   44.43    2.33
   3  -1  -2   41.62    2.51
   3  -1  -1  676.13   16.78
   3  -1  -1  714.69   17.53
   3  -1  -1  743.79   18.56
   3  -1   0   11.14    1.30
  -3   1   0   10.10    1.68
   3  -1   0   10.54    1.70
   3  -1   1   70.90    4.13
  -3   1  -1   73.29    4.78
   3  -1   1   78.00    5.38
   3  -1   2   33.33    1.95
  -3   1  -2   40.15    6.93
   3  -1   2   40.64    3.81
  -3   1  -3   21.95    4.15
   3  -1   3   14.52    2.05
  -3   1  -4  167.05   10.64
   3  -1   4  190.15   10.01
  -3   1  -5   77.67   15.69
   3  -1   5   88.92   12.55
  -3   1  -6  565.20   24.63
   3  -1   6  624.18   27.13
  -3   1  -7  396.29   35.09
   3  -1   7  440.29   38.94
  -3   1  -8  106.16   11.69
   3  -1   8  120.67   12.86
  -3   1  -9    0.38    2.43
   3  -1   9    6.24    3.62
  -3   0  12   69.63   13.20
   3   0 -12   63.28    5.76
  -3   0  12   81.82    7.39
   3   0 -11   66.76    7.62
   3   0 -11   67.01    7.60
  -3   0  11   77.15    8.53
   3   0 -10   66.92    8.80
   3   0 -10   54.48    9.99
  -3   0  10   49.33    9.13
   3   0  -9  220.88   11.94
   3   0  -9  205.69   18.68
  -3   0   9  219.20   10.43
   3   0  -8   42.79    6.49
   3   0  -8   39.11    5.80
  -3   0   8   40.09    5.76
   3   0  -7  118.33    7.83
   3   0  -7  126.94    7.98
  -3   0   7  123.44    7.73
   3   0  -6  517.17   23.48
   3   0  -6  476.78   21.24
  -3   0   6  479.36   20.38
   3   0  -5   65.94    4.82
   3   0  -5   59.76    4.08
  -3   0   5   63.17    4.06
   3   0  -4   15.00    2.18
   3   0  -4   13.68    1.59
  -3   0   4   13.72    2.09
   3   0  -3  222.18    8.71
   3   0  -3  220.73    8.19
  -3   0   3  240.53    8.61
   3   0  -2    8.19    1.42
   3   0  -2   13.72    1.84
   3   0  -2    8.94    1.32
   3   0  -1   49.98    2.62
   3   0  -1   48.16    2.89
   3   0  -1   52.26    3.02
   3   0   0   57.18    3.35
   3   0   0   68.54    3.62
  -3   0  -1  800.66   30.60
  -3   0  -1  802.12   40.30
   3   0   1  807.03   31.61
  -3   0  -2  468.07   19.88
   3   0   2  445.24   24.34
  -3   0  -3  272.66   13.26
   3   0   3  270.90   12.76
  -3   0  -4  127.50   12.92
   3   0   4  105.95    7.50
  -3   0  -5   15.84    2.97
   3   0   5   19.73    3.67
  -3   0  -6  158.59    9.70
   3   0   6  172.72   10.28
  -3   0  -7   44.64    8.94
   3   0   7   41.98    8.34
  -3   0  -8   23.73    5.89
   3   0   8   24.97    6.20
  -3   0  -9    0.50    2.58
   3   0   9    0.17    2.37
  -3  -1  12   43.61    8.88
   3   1 -12   57.14    5.72
  -3  -1  11   -0.59    1.55
   3   1 -11    3.44    2.03
  -3  -1  11    4.55    2.14
  -3  -1  10    2.24    0.94
   3   1 -10    3.08    1.74
  -3  -1  10    3.12    1.80
  -3  -1   9    4.27    1.07
   3   1  -9    3.35    1.57
  -3  -1   9    2.26    1.40
  -3  -1   8  679.57   36.26
   3   1  -8  614.65   32.28
  -3  -1   8  569.68   29.35
   3   1  -7  287.76   14.39
  -3  -1   7  293.90   13.36
   3   1  -6   18.94    2.43
  -3  -1   6   18.18    1.93
   3   1  -5  310.49   17.22
  -3  -1   5  305.57   16.36
  -3  -1   4  123.02    8.27
   3   1  -4  135.46    8.15
  -3  -1   4  120.30    7.33
  -3  -1   3  154.90    9.13
   3   1  -3  135.92    8.19
   3   1  -3  143.86    7.92
  -3  -1   2   34.60    6.60
   3   1  -2   30.98    2.37
   3   1  -2   33.22    1.99
  -3  -1   1  678.33   18.39
   3   1  -1  663.19   17.07
   3   1  -1  651.43   16.04
  -3  -1   0   35.53    5.76
   3   1   0   32.47    3.02
   3   1   0   35.99    3.00
  -3  -1  -1    5.66    0.84
   3   1   1    5.15    0.90
  -3  -1  -2  186.80   10.31
  -3  -1  -2  191.35   13.57
   3   1   2  187.76   12.99
  -3  -1  -3  206.76   10.43
   3   1   3  188.81   13.18
  -3  -1  -4  183.87   11.63
   3   1   4  170.76   10.35
  -3  -1  -5  357.91   21.11
   3   1   5  357.64   20.46
  -3  -1  -6  224.13   13.47
   3   1   6  214.14   13.15
  -3  -1  -7   22.18    5.15
   3   1   7   14.29    3.14
  -3  -1  -8   64.10   16.04
   3   1   8   66.46    9.82
  -3  -1  -9    9.38    4.19
   3   1   9   11.00    3.96
  -3  -2  12    1.55    1.40
   3   2 -12   -1.70    1.78
   3   2 -11   40.87    8.73
  -3  -2  10  152.01   27.27
   3   2 -10  144.36   13.95
  -3  -2   9  403.91   18.68
   3   2  -9  356.32   16.32
  -3  -2   8  492.30   28.07
   3   2  -8  484.68   25.91
  -3  -2   8  480.39   24.67
  -3  -2   7  328.99   17.03
   3   2  -7  329.61   15.96
  -3  -2   7  294.07   13.01
  -3  -2   6   18.96    2.85
   3   2  -6   17.01    2.56
  -3  -2   5  186.91   15.61
   3   2  -5  165.75   11.63
  -3  -2   4   21.03    4.04
   3   2  -4   19.15    2.39
  -3  -2   3   65.52    5.07
   3   2  -3   61.14    4.40
   3   2  -3   60.68    3.48
  -3  -2   2   19.79    3.88
   3   2  -2   20.65    2.72
   3   2  -2   16.21    1.51
  -3  -2   1  309.76   17.39
   3   2  -1  309.61   17.41
   3   2  -1  289.40   15.84
  -3  -2   0   24.42    2.35
   3   2   0   21.62    2.30
   3   2   0   21.64    2.30
  -3  -2  -1   99.03    6.91
   3   2   1  109.86    8.21
   3   2   1   98.93    7.23
  -3  -2  -2  807.03   33.35
  -3  -2  -2  887.12   41.68
   3   2   2  827.11   34.88
  -3  -2  -3   65.65    4.15
  -3  -2  -3   94.22   12.48
   3   2   3   74.34    5.68
  -3  -2  -4   61.60    8.94
   3   2   4   65.35    6.58
  -3  -2  -5  119.33   18.66
   3   2   5  109.34    7.10
  -3  -2  -6   -2.12    1.82
   3   2   6    1.15    2.14
  -3  -2  -7   50.92   12.44
   3   2   7   69.29    7.12
  -3  -2  -8    3.56    2.37
   3   2   8    1.76    2.39
  -3  -3  12    3.25    1.59
   3   3 -12    2.28    2.49
  -3  -3  11   -0.04    1.63
   3   3 -11    1.38    1.97
  -3  -3  10   38.31    7.58
   3   3 -10   28.42    5.11
  -3  -3   9  198.89   12.17
   3   3  -9  202.05   12.38
  -3  -3   8    3.46    0.94
   3   3  -8    0.57    1.70
  -3  -3   7   99.96   19.96
   3   3  -7   82.49   11.42
  -3  -3   6   13.01    2.12
   3   3  -6   13.32    2.49
  -3  -3   5  127.48   10.72
   3   3  -5  140.05   10.18
  -3  -3   4  855.37   38.94
   3   3  -4  873.07   37.03
  -3  -3   3  674.12   30.23
   3   3  -3  642.49   29.18
   3   3  -3  622.80   25.30
  -3  -3   2    2.28    1.36
   3   3  -2   14.79    2.60
   3   3  -2    6.26    1.05
  -3  -3   1   79.66    6.18
   3   3  -1   79.64    6.28
   3   3  -1   59.99    4.55
  -3  -3   0    3.64    1.15
   3   3   0    3.67    1.91
   3   3   0    1.15    0.92
  -3  -3  -1  143.09    7.42
   3   3   1  153.06    8.29
   3   3   1  132.74    8.38
  -3  -3  -2   13.68    2.41
  -3  -3  -2   14.49    3.75
   3   3   2   13.09    2.93
  -3  -3  -3   56.12    5.07
  -3  -3  -3   69.52   12.53
   3   3   3   70.25    6.85
  -3  -3  -4  211.18   29.26
   3   3   4  187.99   10.52
  -3  -3  -5   33.64    8.19
   3   3   5   38.63    8.02
  -3  -3  -6  214.05   22.77
   3   3   6  198.91   19.75
  -3  -3  -7   44.07    8.94
   3   3   7   54.34    5.97
  -3  -4  12    4.36    1.57
   3   4 -12    1.49    2.37
  -3  -4  11  128.55   25.64
   3   4 -11  127.56   10.95
  -3  -4  10  422.66   42.14
   3   4 -10  428.38   40.41
  -3  -4   9  410.59   37.14
   3   4  -9  407.24   36.01
  -3  -4   8   27.73    4.11
   3   4  -8   19.02    3.27
  -3  -4   7   14.47    3.31
   3   4  -7   13.05    2.83
  -3  -4   6    1.49    0.86
   3   4  -6    1.93    1.76
  -3  -4   5   14.79    3.50
   3   4  -5   12.78    2.95
  -3  -4   4   11.33    2.89
   3   4  -4    6.58    1.63
  -3  -4   3   -1.40    1.57
   3   4  -3    1.59    1.51
   3   4  -3    2.68    0.73
  -3  -4   2  113.17    7.65
   3   4  -2  111.54    7.50
   3   4  -2  113.17    6.77
  -3  -4   1  307.18   14.77
   3   4  -1  303.12   14.73
   3   4  -1  278.76   12.92
  -3  -4   0  788.19   40.64
   3   4   0  683.84   35.19
  -3  -4  -1  402.13   21.53
   3   4   1  390.13   21.18
   3   4   1  365.98   19.71
  -3  -4  -2   33.03    2.95
  -3  -4  -2   33.95    6.87
   3   4   2   28.49    2.95
  -3  -4  -3  430.97   23.08
  -3  -4  -3  433.59   25.39
   3   4   3  405.40   22.10
  -3  -4  -4    0.27    0.94
  -3  -4  -4   -0.17    1.72
   3   4   4    1.93    1.95
  -3  -4  -5   28.34    8.17
   3   4   5   48.87   10.54
  -3  -4  -6   39.00    8.57
   3   4   6   56.26    8.59
  -3  -5  11   25.20    8.09
   3   5 -11   31.42    8.90
  -3  -5  10  106.22   17.13
   3   5 -10  113.59   10.08
  -3  -5   9   97.72   18.20
   3   5  -9  105.03   11.04
  -3  -5   8    4.65    2.09
  -3  -5   7  282.36   17.49
   3   5  -7  303.39   17.49
  -3  -5   6  675.98   28.70
   3   5  -6  677.07   29.35
  -3  -5   5  148.47   13.26
   3   5  -5  143.19   12.65
  -3  -5   4    8.13    2.76
   3   5  -4    5.93    1.86
  -3  -5   3   36.78    4.52
   3   5  -3   29.16    4.19
  -3  -5   2   22.98    3.54
   3   5  -2   10.79    2.60
   3   5  -2   11.67    1.65
  -3  -5   1   43.19    4.88
   3   5  -1   35.71    4.27
   3   5  -1   30.54    3.31
  -3  -5   0  251.53   12.07
   3   5   0  244.82   11.75
   3   5   0  203.35   18.39
  -3  -5  -1  108.31   19.21
   3   5   1  118.37   20.95
   3   5   1  103.50    9.91
  -3  -5  -2   10.26    2.68
  -3  -5  -2    5.32    1.68
   3   5   2   10.28    2.95
  -3  -5  -3   36.17    5.11
  -3  -5  -3   33.47    6.33
   3   5   3   33.87    5.11
  -3  -5  -4  154.44   14.31
   3   5   4  150.67   12.19
  -3  -5  -5   95.18   19.15
   3   5   5  133.95   10.77
  -3  -6  11   61.88    6.56
  -3  -6  10    3.27    2.58
   3   6 -10    1.24    2.18
  -3  -6   9   51.26   10.89
   3   6  -9   56.45   11.65
  -3  -6   8   -0.75    1.99
   3   6  -8    3.90    2.30
  -3  -6   7   89.36    9.38
   3   6  -7  113.68   11.46
  -3  -6   6  240.80   22.10
   3   6  -6  251.55   22.83
  -3  -6   5  185.33   11.92
   3   6  -5  181.10   11.31
  -3  -6   4  358.54   20.28
   3   6  -4  411.35   22.94
  -3  -6   3  123.73    8.73
   3   6  -3  104.10   10.35
  -3  -6   2  180.12   11.39
   3   6  -2  170.32   10.62
  -3  -6   1  155.26   14.58
   3   6  -1  177.42   16.42
   3   6  -1  141.26   12.97
  -3  -6   0    2.81    1.89
   3   6   0    0.29    1.59
   3   6   0    4.21    1.80
  -3  -6  -1  104.77   10.91
   3   6   1  104.21   10.87
   3   6   1   88.75    9.24
  -3  -6  -2   23.19    5.55
  -3  -6  -2   16.88    4.13
   3   6   2   11.35    3.00
  -3  -6  -3    3.96    1.45
  -3  -6  -4  143.76   13.32
   3   6   4  158.63   11.29
  -3  -7   9   24.15    5.32
   3   7  -9   18.06    4.46
  -3  -7   8   48.13    8.23
   3   7  -8   33.28    5.95
  -3  -7   7   15.71    4.73
   3   7  -7   10.41    3.08
  -3  -7   6   14.83    4.78
   3   7  -6    6.35    3.00
  -3  -7   5    3.41    2.41
   3   7  -5    1.42    1.89
  -3  -7   4   -1.32    2.37
   3   7  -4    0.46    1.74
  -3  -7   3  136.51   14.12
   3   7  -3  134.22   13.70
  -3  -7   2  393.60   37.20
   3   7  -2  397.00   37.35
  -3  -7   1  304.94   22.43
   3   7  -1  289.58   21.11
  -3  -7   0    7.79    4.02
   3   7   0    9.30    3.60
   3   7   0    5.80    2.83
  -3  -7  -1    3.35    2.43
   3   7   1    5.01    3.10
   3   7   1    1.72    1.65
  -3  -7  -2    5.43    2.20
   3   7   2    4.08    2.56
  -3  -8   7  130.33   10.28
   3   8  -7  143.06   10.62
  -3  -8   6   40.18    5.61
   3   8  -6   37.60    5.11
  -3  -8   5    2.58    2.60
   3   8  -5    2.01    2.41
  -3  -8   4    1.57    2.56
   3   8  -4    5.74    3.37
  -3  -8   3    9.84    4.15
   3   8  -3    2.62    3.20
  -3  -8   2   13.41    3.98
   3   8  -2   20.42    4.40
  -3  -8   1   -0.06    2.16
   3   8  -1   -0.73    1.95
   4  -8  -3    7.04    3.56
   4  -8  -2   -2.35    2.12
  -4   8   2    1.61    1.86
   4  -8  -1   26.92    7.67
  -4   8   1   21.55    6.91
   4  -8   0   22.41    6.79
  -4   8   0   20.44    6.41
   4  -8   1    1.19    2.12
  -4   8  -1    4.08    1.99
   4  -8   2   19.29    5.66
  -4   8  -2   11.44    3.83
   4  -8   3   48.51    5.15
  -4   8  -3   48.09    7.29
   4  -8   4   87.07    7.29
  -4   8  -4   80.85   16.07
   4  -7  -5   19.71    6.37
  -4   7   5   11.29    3.98
   4  -7  -4   30.67    5.72
  -4   7   4   31.21    6.54
   4  -7  -3  113.15    9.99
  -4   7   3  117.26   18.10
   4  -7  -2  105.40   11.42
  -4   7   2  105.03   16.57
   4  -7  -1   88.58    9.82
  -4   7   1   72.14   12.86
   4  -7   0    6.64    2.45
  -4   7   0    4.25    2.18
   4  -7   1   57.06    6.72
  -4   7  -1   70.25   13.41
   4  -7   2    1.53    1.80
  -4   7  -2    2.45    1.34
   4  -7   3   76.71    7.02
  -4   7  -3   92.65   14.26
   4  -7   4   87.51    7.39
  -4   7  -4   98.09    8.13
  -4   7  -5    7.83    3.50
   4  -7   5   17.20    5.91
  -4   7  -6   18.22    4.19
   4  -7   6   25.89    5.32
   4  -6  -7   79.14    7.69
  -4   6   7   83.91    7.85
   4  -6  -6    3.85    2.43
  -4   6   6   18.91    4.46
   4  -6  -5   -0.48    2.05
  -4   6   5   -1.55    2.14
   4  -6  -4   51.05   10.93
  -4   6   4   52.93    9.57
   4  -6  -3  123.86   12.19
  -4   6   3  131.19   23.90
   4  -6  -2  271.40   24.47
  -4   6   2  275.86   25.97
   4  -6  -1  111.81   19.94
  -4   6   1  116.57   18.91
   4  -6   0   19.08    3.39
  -4   6   0   18.14    3.79
   4  -6   1   10.68    2.20
  -4   6  -1   26.08    5.40
   4  -6   2  369.37   32.53
  -4   6  -2  419.54   36.38
   4  -6   3   46.06    6.10
  -4   6  -3   49.33    6.64
   4  -6   3   51.36    7.46
   4  -6   4   -0.21    1.17
  -4   6  -4    1.03    1.49
   4  -6   4    3.75    2.79
  -4   6  -5    8.17    3.23
   4  -6   5    4.27    2.26
  -4   6  -6    3.96    3.12
   4  -6   6    1.09    2.16
  -4   6  -7   30.33    5.95
   4  -6   7   31.84    5.93
   4  -5  -9  136.80   10.45
  -4   5   9  139.86   10.66
   4  -5  -8  219.62   16.40
  -4   5   8  213.95   15.96
   4  -5  -7   87.07    8.29
  -4   5   7   81.10    7.92
   4  -5  -6  188.73   18.08
  -4   5   6  170.88   16.38
   4  -5  -5   92.27    9.64
  -4   5   5   92.65   17.53
   4  -5  -4  268.97   15.56
  -4   5   4  279.11   17.64
   4  -5  -3  213.76   19.75
  -4   5   3  245.20   18.41
   4  -5  -2   25.79    3.67
  -4   5   2   25.91    3.83
   4  -5  -1   12.71    2.64
  -4   5   1   16.17    2.83
   4  -5   0    3.56    1.53
  -4   5   0    0.80    0.65
  -4   5   0    1.28    1.28
   4  -5   1  676.91   37.10
  -4   5  -1  701.27   37.72
   4  -5   1  788.95   42.94
   4  -5   2  565.03   23.90
  -4   5  -2  569.51   23.40
   4  -5   2  667.79   28.17
   4  -5   3  235.06   13.15
  -4   5  -3  219.60   12.65
   4  -5   3  261.29   15.33
   4  -5   4   31.40    5.99
  -4   5  -4   25.49    5.38
   4  -5   4   25.53    5.59
  -4   5  -5   27.23    4.48
   4  -5   5   18.77    3.48
  -4   5  -6    4.34    3.12
   4  -5   6    9.87    3.54
  -4   5  -7   58.00    9.17
   4  -5   7   55.61    8.82
  -4   5  -8    6.30    3.48
   4  -5   8   13.51    4.65
   4  -4 -10  141.12   10.62
  -4   4  10  141.89   10.83
   4  -4  -9  145.10   11.42
  -4   4   9  125.66   10.22
   4  -4  -8   10.47    4.02
  -4   4   8   11.42    3.37
   4  -4  -7   55.45   10.75
  -4   4   7   34.60    7.14
   4  -4  -6  116.04   11.58
  -4   4   6  120.19   26.08
   4  -4  -5  353.16   16.17
  -4   4   5  385.65   23.88
   4  -4  -4 1069.84   57.48
  -4   4   4 1008.19   56.72
   4  -4  -3  819.32   44.05
  -4   4   3  895.08   47.38
   4  -4  -2   23.04    4.06
  -4   4   2   27.04    5.61
   4  -4  -1   49.52    7.08
  -4   4   1   40.47    5.53
  -4   4   1   55.38   10.93
   4  -4   0  279.55   15.42
  -4   4   0  266.86   14.20
   4  -4   0  293.04   16.40
   4  -4   1  535.66   27.92
  -4   4  -1  530.39   27.50
   4  -4   1  612.94   32.43
   4  -4   2  154.14    8.92
  -4   4  -2  150.81   12.92
   4  -4   2  179.89   11.04
   4  -4   3    1.61    1.21
  -4   4  -3    1.63    2.14
   4  -4   3    8.25    2.70
  -4   4  -4   55.07    5.01
   4  -4   4   45.50    4.67
  -4   4  -5  121.53   11.86
   4  -4   5  145.83   13.85
  -4   4  -6  239.27   22.16
   4  -4   6  278.63   25.51
  -4   4  -7  187.89   14.75
   4  -4   7  195.12   15.23
  -4   4  -8   12.21    4.67
   4  -4   8   20.44    6.79
   4  -3 -11  172.62   12.32
  -4   3  11  150.52   11.37
   4  -3 -10  364.11   25.37
  -4   3  10  367.95   87.87
   4  -3  -9  295.20   28.24
  -4   3   9  252.72   24.28
   4  -3  -8   59.93   11.35
  -4   3   8   55.30   10.45
   4  -3  -7  175.74   11.12
  -4   3   7  193.96   11.19
   4  -3  -6   33.33    4.31
  -4   3   6   36.80    6.74
   4  -3  -5  438.56   23.67
  -4   3   5  427.12   23.19
   4  -3  -4  255.46   13.07
  -4   3   4  259.42   13.26
   4  -3  -3   31.80    3.27
  -4   3   3   24.97    4.80
   4  -3  -2   72.12    5.89
  -4   3   2   66.48    5.95
  -4   3   2   85.25    7.50
   4  -3  -1 1548.28   66.92
  -4   3   1 1486.78   61.54
   4  -3  -1 1654.04   68.18
   4  -3   0 2140.94   90.64
  -4   3   0 2266.01   92.35
   4  -3   0 2472.41  100.96
   4  -3   1 1704.87  218.45
  -4   3  -1 1711.20   76.87
   4  -3   1 1987.53  254.86
   4  -3   2   53.25    3.71
  -4   3  -2   54.63    8.73
   4  -3   2   74.05    6.01
   4  -3   3    0.42    0.44
  -4   3  -3   -2.24    1.57
   4  -3   3    0.73    1.61
  -4   3  -4   11.25    2.81
   4  -3   4   14.96    3.12
  -4   3  -5  126.37    8.86
   4  -3   5  155.13   10.16
  -4   3  -6   82.13    9.20
   4  -3   6   73.84    9.68
  -4   3  -7  131.69   13.99
   4  -3   7  158.29   16.34
  -4   3  -8   33.26    9.40
   4  -3   8   40.62    5.49
   4  -2 -11  143.19   11.63
  -4   2  11  137.89   10.66
   4  -2 -10  134.14   11.04
  -4   2  10  107.98    9.34
   4  -2  -9  188.75   17.95
  -4   2   9  168.77   15.96
   4  -2  -8  309.36   17.87
  -4   2   8  296.50   16.74
   4  -2  -7  840.35   46.50
   4  -2  -7  687.50   36.40
  -4   2   7  791.73   42.73
   4  -2  -6 1529.97   79.93
   4  -2  -6 1334.65   67.41
  -4   2   6 1406.24   71.51
   4  -2  -5  777.83   34.65
   4  -2  -5  788.74   33.87
   4  -2  -4  130.41    9.49
   4  -2  -4  125.24    8.40
  -4   2   4  142.58   10.26
   4  -2  -3  125.39    9.05
   4  -2  -3  132.44    8.92
  -4   2   3  137.07    9.76
   4  -2  -2  118.95    8.67
  -4   2   2   90.49    8.92
   4  -2  -2  106.47    8.00
   4  -2  -1 1120.36   46.38
  -4   2   1 1104.93   46.38
   4  -2  -1 1125.41   46.84
   4  -2   0 1560.68   63.61
  -4   2   0 1628.92   67.13
   4  -2   0 1747.14   71.70
   4  -2   1  674.64   27.96
  -4   2  -1  728.71   31.15
   4  -2   1  713.23   30.41
   4  -2   2  139.94    7.98
  -4   2  -2  140.32   21.26
   4  -2   2  155.19    9.80
  -4   2  -3  603.95   32.13
   4  -2   3  602.23   31.86
  -4   2  -4  809.56   52.11
   4  -2   4  921.43   49.71
  -4   2  -5  206.32   22.41
   4  -2   5  209.05   11.71
  -4   2  -6  192.29   18.12
   4  -2   6  210.26   19.61
  -4   2  -7    4.42    3.33
   4  -2   7    6.24    2.60
  -4   2  -8   11.31    4.46
   4  -2   8    6.83    3.52
   4  -1 -12  218.79   14.58
  -4   1  12  216.10   14.37
   4  -1 -11  106.79    9.30
  -4   1  11  103.62    8.61
   4  -1 -10   48.85    6.91
   4  -1 -10   40.72    5.53
  -4   1  10   43.13    5.97
   4  -1  -9    4.02    2.56
   4  -1  -9    0.82    1.05
  -4   1   9    6.60    2.35
   4  -1  -8   81.34    5.78
   4  -1  -8   70.38    4.42
  -4   1   8   79.68    5.43
   4  -1  -7  774.83   41.14
   4  -1  -7  779.61   39.82
  -4   1   7  773.11   39.86
   4  -1  -6  727.78   33.01
   4  -1  -6  697.85   30.46
  -4   1   6  707.93   31.29
   4  -1  -5 1414.54   59.32
   4  -1  -5 1314.33   57.69
  -4   1   5 1368.10   56.79
   4  -1  -4  538.49   23.25
   4  -1  -4  561.51   23.59
  -4   1   4  552.82   25.97
   4  -1  -3 1064.62   41.58
   4  -1  -3 1098.68   42.40
  -4   1   3 1153.27   45.01
   4  -1  -2 2357.17   91.08
   4  -1  -2 2504.90   95.22
   4  -1  -2 2633.12  100.19
   4  -1  -1 2619.33   99.77
   4  -1  -1 2772.10  105.47
   4  -1   0   93.38    5.59
  -4   1   0   91.03    6.07
   4  -1   0  108.23    7.02
   4  -1   1  152.57   10.05
  -4   1  -1  140.82   10.18
   4  -1   1  157.12   11.16
  -4   1  -2   34.31    7.00
   4  -1   2   29.72    3.56
  -4   1  -3  404.46   24.03
   4  -1   3  428.86   23.17
  -4   1  -4  883.35   47.82
   4  -1   4  929.77   50.15
  -4   1  -5  513.63   24.19
   4  -1   5  492.51   21.64
  -4   1  -6  351.44   31.80
   4  -1   6  397.58   35.25
  -4   1  -7   45.83   10.22
   4  -1   7   59.95    7.71
  -4   1  -8   81.94    8.02
   4  -1   8  101.78    9.01
  -4   0  12  319.50   24.03
   4   0 -12  236.63   16.42
   4   0 -11  229.53   17.28
   4   0 -11  197.84   14.75
  -4   0  11  237.37   17.36
   4   0 -10  158.69   15.27
   4   0 -10  141.22   13.36
  -4   0  10  171.78   16.09
   4   0  -9  268.53   15.58
   4   0  -9  244.24   13.76
  -4   0   9  239.44   13.38
   4   0  -8  473.93   26.79
   4   0  -8  443.29   24.40
  -4   0   8  436.27   23.86
   4   0  -7  159.51   13.66
   4   0  -7  164.76    9.57
  -4   0   7  148.64   12.32
   4   0  -6   41.12    3.88
   4   0  -6   48.03    3.83
  -4   0   6   46.96    8.25
   4   0  -5    6.12    2.07
   4   0  -5    8.76    1.61
  -4   0   5   15.33    2.20
   4   0  -4  149.47   10.52
   4   0  -4  160.55   11.02
  -4   0   4  161.02   10.93
   4   0  -3 1384.27   53.60
   4   0  -3 1424.61   54.80
   4   0  -3 1368.49   52.45
   4   0  -2 9328.59  590.02
   4   0  -2 9365.22  353.03
   4   0  -2 9721.56  613.69
   4   0  -1 1673.96   64.10
   4   0  -1 1810.28   69.79
   4   0  -1 1825.15   69.79
  -4   0   0  750.70   31.25
   4   0   0  742.64   31.19
  -4   0  -1  213.34   10.05
  -4   0  -1  241.51   12.53
   4   0   1  227.44   10.95
  -4   0  -2  399.49   19.65
   4   0   2  381.25   17.89
  -4   0  -3  258.69   15.37
   4   0   3  246.87   14.18
  -4   0  -4  168.41    9.66
   4   0   4  175.82   15.50
  -4   0  -5   81.75   11.58
   4   0   5   68.68    7.83
  -4   0  -6   36.15    6.83
   4   0   6   30.81    5.68
  -4   0  -7  158.94   26.29
   4   0   7  191.49   15.10
  -4   0  -8  266.31   18.87
   4   0   8  287.95   20.05
  -4  -1  12    2.30    1.26
   4   1 -12   27.21    7.60
  -4  -1  11    7.67    2.05
   4   1 -11    8.84    2.81
  -4  -1  10  267.51   25.39
   4   1 -10  223.29   20.55
  -4  -1   9  645.82   43.38
   4   1  -9  593.45   31.19
  -4  -1   9  608.98   31.23
  -4  -1   8 1348.76   74.61
   4   1  -8 1096.17   58.36
  -4  -1   8 1204.04   63.43
  -4  -1   7  848.44   46.50
   4   1  -7  840.64   44.13
  -4  -1   7  746.91   37.87
  -4  -1   6  290.90   14.20
   4   1  -6  263.38   12.82
  -4  -1   6  253.12   11.46
  -4  -1   5   11.08    1.95
  -4  -1   4  171.13   12.55
   4   1  -4  155.26   11.19
  -4  -1   4  149.85   11.33
  -4  -1   3 1687.72   66.04
   4   1  -3 1681.39   64.87
   4   1  -3 1674.59   63.72
  -4  -1   2  493.39   32.40
   4   1  -2  468.47   30.56
   4   1  -2  508.79   20.17
  -4  -1   1   51.65    5.66
   4   1  -1   64.49    5.68
   4   1  -1   61.54    4.84
  -4  -1   0  194.99   14.89
   4   1   0  206.87   14.33
   4   1   0  185.69   12.76
  -4  -1  -1 1602.99   65.08
  -4  -1  -1 1600.85   80.08
   4   1   1 1615.16   66.53
  -4  -1  -2 1394.43   65.67
   4   1   2 1381.29   61.39
  -4  -1  -3 1480.60  119.33
   4   1   3 1360.64   69.63
  -4  -1  -4  295.14   14.39
   4   1   4  254.92   12.48
  -4  -1  -5   21.78    5.51
   4   1   5   17.05    3.94
  -4  -1  -6   48.91   11.50
   4   1   6   61.90    7.81
  -4  -1  -7   48.97   10.08
   4   1   7   66.61    9.72
  -4  -1  -8  116.04    9.43
   4   1   8  103.66    8.57
   4   2 -12    8.13    3.62
  -4  -2  11    2.14    1.80
   4   2 -11    0.98    1.70
  -4  -2  10  113.97   21.89
   4   2 -10  100.71   10.14
  -4  -2   9   47.23    6.85
   4   2  -9   41.08    5.01
  -4  -2   8  366.23   21.62
   4   2  -8  353.66   20.40
  -4  -2   7  252.32   16.48
   4   2  -7  222.39   12.86
  -4  -2   6  273.64   15.04
   4   2  -6  261.56   12.90
  -4  -2   5 1677.85   73.12
   4   2  -5 1510.76   74.61
  -4  -2   4 3448.18  186.38
   4   2  -4 3207.01  133.09
  -4  -2   3 1858.03   77.82
   4   2  -3 1935.24   81.06
   4   2  -3 1721.69   69.67
  -4  -2   2   92.29    6.81
   4   2  -2   94.51    7.23
   4   2  -2   90.72    6.43
  -4  -2   1  114.47    8.65
   4   2  -1  125.80    9.45
   4   2  -1  122.87    8.61
  -4  -2   0   29.18    2.79
   4   2   0   28.61    3.27
   4   2   0   26.90    2.64
  -4  -2  -1  255.53   11.75
   4   2   1  278.21   14.29
   4   2   1  243.67   15.71
  -4  -2  -2  636.35   32.36
  -4  -2  -2  669.22   36.70
   4   2   2  638.57   33.41
  -4  -2  -3  395.55   23.52
   4   2   3  390.44   17.97
  -4  -2  -4  234.06   14.29
   4   2   4  243.84   14.43
  -4  -2  -5  295.68   27.27
   4   2   5  319.50   29.01
  -4  -2  -6  259.78   24.82
   4   2   6  236.65   18.10
  -4  -2  -7  192.83   26.02
   4   2   7  218.60   15.73
  -4  -3  12   53.29   14.24
   4   3 -12   61.31    6.81
  -4  -3  11  281.58   24.76
   4   3 -11  262.31   19.67
  -4  -3  10  173.37   17.36
   4   3 -10  156.62   15.37
  -4  -3   9  236.28   14.66
   4   3  -9  207.20   12.67
  -4  -3   8    8.55    2.79
  -4  -3   7   20.49    4.99
   4   3  -7   25.11    3.85
  -4  -3   6    4.29    2.33
   4   3  -6    2.53    2.28
  -4  -3   5 1115.44   49.89
   4   3  -5 1094.35   48.74
  -4  -3   4 1344.13   58.57
   4   3  -4 1272.94   60.93
   4   3  -3 1097.05   48.32
   4   3  -3  992.97   42.37
  -4  -3   2  255.38   13.09
   4   3  -2  275.97   13.80
   4   3  -2  247.19   11.42
  -4  -3   1  397.58   18.29
   4   3  -1  413.40   19.52
   4   3  -1  381.00   17.36
  -4  -3   0  855.64   43.69
   4   3   0  826.07   42.98
   4   3   0  811.26   41.60
  -4  -3  -1  506.21   27.44
   4   3   1  602.44   33.77
   4   3   1  510.65   29.41
  -4  -3  -2   28.45    2.45
  -4  -3  -2   40.80    5.09
   4   3   2   29.85    3.41
  -4  -3  -3   33.64    4.73
   4   3   3   20.02    3.37
  -4  -3  -4    8.78    2.30
   4   3   4   10.56    2.62
  -4  -3  -5  118.89   22.06
   4   3   5  133.09   11.10
  -4  -3  -6  208.44   32.01
   4   3   6  242.35   17.09
  -4  -4  12   14.83    3.67
   4   4 -12    8.46    3.16
  -4  -4  11  118.79   20.13
   4   4 -11  111.64    9.45
  -4  -4  10  230.58   22.87
   4   4 -10  236.93   23.12
  -4  -4   9  151.82   14.81
   4   4  -9  161.64   15.67
  -4  -4   8  124.99    8.36
   4   4  -8  135.13    9.17
  -4  -4   7   97.02   18.29
   4   4  -7   94.05    6.60
  -4  -4   6  402.72   27.94
   4   4  -6  411.35   23.33
  -4  -4   5  366.06   23.90
   4   4  -5  363.76   21.01
  -4  -4   4   55.72   11.08
   4   4  -4   59.55    8.67
   4   4  -3   25.37    4.46
  -4  -4   2    0.38    1.57
   4   4  -2    3.90    2.24
   4   4  -2    0.29    0.31
  -4  -4   1  658.68   35.73
   4   4  -1  686.37   37.62
   4   4  -1  544.57   29.37
  -4  -4   0  979.94   39.25
   4   4   0 1045.75   44.30
   4   4   0  888.09   35.50
  -4  -4  -1  418.82   22.69
   4   4   1  492.03   26.50
   4   4   1  423.60   22.75
  -4  -4  -2  234.03   20.67
  -4  -4  -2  225.78   21.28
   4   4   2  191.14   17.55
  -4  -4  -3  116.32   19.73
   4   4   3  106.05   10.60
  -4  -4  -4   38.81   11.88
   4   4   4   49.58   10.41
  -4  -4  -5   78.42   11.63
   4   4   5   90.59    8.29
  -4  -5  11   41.79    8.44
   4   5 -11   45.81    5.87
  -4  -5  10    1.13    1.49
   4   5 -10    0.50    2.33
  -4  -5   9    1.76    1.59
   4   5  -9    8.61    3.79
  -4  -5   8   19.38    4.86
   4   5  -8   17.32    4.17
  -4  -5   7  293.82   28.17
   4   5  -7  308.37   27.84
  -4  -5   6  665.30   35.63
   4   5  -6  701.54   37.60
  -4  -5   5  679.86   42.10
   4   5  -5  685.07   36.64
   4   5  -4    8.92    2.09
  -4  -5   3    4.86    2.70
   4   5  -3    1.65    1.78
  -4  -5   2   84.75    8.82
   4   5  -2   87.26    9.07
   4   5  -2   66.74    6.51
  -4  -5   1  133.49    8.59
   4   5  -1  175.87   11.29
   4   5  -1  128.19    7.90
  -4  -5   0   63.11    8.06
   4   5   0   72.98    9.66
   4   5   0   52.39    9.66
  -4  -5  -1   14.18    2.83
   4   5   1   28.91    5.28
   4   5   1   16.63    3.16
  -4  -5  -2   94.47    9.76
  -4  -5  -2   81.02   17.99
   4   5   2   79.32    8.73
  -4  -5  -3   59.82   14.01
   4   5   3   66.84    6.56
  -4  -5  -4  234.06   19.31
   4   5   4  234.41   15.23
  -4  -6  10    6.14    2.74
   4   6 -10    3.20    3.56
  -4  -6   9   -0.80    2.28
   4   6  -9    1.05    2.14
  -4  -6   8   10.37    3.64
   4   6  -8    2.28    2.12
  -4  -6   7   32.53    7.62
   4   6  -7   36.01    8.13
  -4  -6   6  168.95   17.05
   4   6  -6  151.04   24.65
  -4  -6   5    2.91    2.33
   4   6  -5   -2.28    1.95
  -4  -6   4    5.72    2.37
   4   6  -4   12.71    3.58
  -4  -6   3  199.05   18.81
   4   6  -3  198.22   18.66
  -4  -6   2  448.82   40.05
   4   6  -2  425.13   38.02
  -4  -6   1  176.85   17.41
   4   6  -1  198.64   19.56
  -4  -6   0   44.83    9.55
   4   6   0   54.42   11.31
   4   6   0   32.53    6.91
  -4  -6  -1    2.16    1.91
   4   6   1    4.29    3.37
   4   6   1    1.70    1.53
  -4  -6  -2    0.63    0.88
   4   6   2    5.32    2.89
  -4  -7   8  144.24   11.02
   4   7  -8  115.16    9.13
  -4  -7   7  133.99   10.89
   4   7  -7  128.34   10.41
  -4  -7   6    3.56    2.85
   4   7  -6    5.49    2.85
  -4  -7   5   29.16    5.49
   4   7  -5   33.49    5.93
  -4  -7   4    4.46    3.20
   4   7  -4    0.40    2.03
  -4  -7   3   50.06    7.88
   4   7  -3   58.00    9.22
  -4  -7   2   51.38    8.23
   4   7  -2   58.88    8.86
  -4  -7   1   63.55    6.37
   4   7  -1   67.11    6.98
  -4  -7   0   15.52    3.37
   4   7   0   20.26    4.46
   5  -7  -5    5.93    2.83
  -5   7   5    2.35    2.49
   5  -7  -4    2.85    2.41
  -5   7   4    0.98    1.03
   5  -7  -3  181.23   13.15
  -5   7   3  163.26   26.12
   5  -7  -2  285.37   20.05
  -5   7   2  310.93   22.56
   5  -7  -1  197.92   14.79
  -5   7   1  179.59   31.27
   5  -7   0   88.16    7.98
  -5   7   0   84.50   19.96
   5  -7   1   46.38    6.93
  -5   7  -1   45.54    9.45
   5  -7   2   11.08    3.73
  -5   7  -2   18.77    4.19
  -5   7  -3   37.08    6.87
   5  -7   4    6.49    3.35
   5  -6  -7   63.89    6.74
  -5   6   7   68.47    7.04
   5  -6  -6    0.08    2.14
  -5   6   6    1.07    1.38
   5  -6  -5   14.87    4.65
  -5   6   5   11.86    3.37
   5  -6  -4   14.35    3.88
  -5   6   4   19.67    5.68
   5  -6  -3  100.94   10.79
  -5   6   3   91.33   16.19
   5  -6  -2   17.11    3.64
  -5   6   2   24.32    5.97
   5  -6  -1    3.18    1.68
  -5   6   1    3.60    1.30
   5  -6   0  131.19   12.76
  -5   6   0  151.92   23.17
   5  -6   1  136.55   13.53
  -5   6  -1  177.25   25.01
   5  -6   2  301.86   28.61
   5  -6   3  185.44   13.76
  -5   6  -3  212.86   16.38
   5  -6   3  264.70   19.92
  -5   6  -4   34.06    5.66
   5  -6   4   40.32    6.66
  -5   6  -5    1.11    2.20
   5  -6   5    2.49    2.35
   5  -5  -8   47.80    5.89
  -5   5   8   50.77    5.99
   5  -5  -7    2.28    3.06
  -5   5   7    0.61    2.01
   5  -5  -6    6.85    2.72
  -5   5   6    1.82    1.68
   5  -5  -5  279.87   25.66
  -5   5   5  264.85   25.81
   5  -5  -4  582.69   50.73
  -5   5   4  643.41   66.40
   5  -5  -3  216.71   13.13
  -5   5   3  230.70   15.25
   5  -5  -2   10.39    2.26
  -5   5   2   12.00    2.83
   5  -5  -1    8.94    2.33
  -5   5   1    9.78    3.33
   5  -5   0    1.19    1.19
  -5   5   0    0.38    0.84
   5  -5   1    3.39    1.76
  -5   5  -1    4.44    1.65
   5  -5   1   14.03    4.15
   5  -5   2  132.42   16.55
  -5   5  -2  184.16   16.65
   5  -5   2  196.81   18.31
  -5   5  -3   73.63    7.75
   5  -5   3   91.83    9.87
  -5   5  -4   56.62   11.75
  -5   5  -5  203.01   15.06
   5  -5   5  246.48   17.76
  -5   5  -6  268.51   18.66
   5  -5   6  274.69   18.98
   5  -4  -9   49.73    6.16
  -5   4   9   42.44    5.93
   5  -4  -8    3.64    2.22
  -5   4   8    0.57    2.01
   5  -4  -7  348.19   31.52
  -5   4   7  306.89   29.85
   5  -4  -6   12.36    3.67
  -5   4   6   10.41    3.08
   5  -4  -5  189.13   11.77
  -5   4   5  190.21   12.65
   5  -4  -4  357.64   16.25
  -5   4   4  360.17   18.16
   5  -4  -3  214.72   19.56
  -5   4   3  249.58   13.20
   5  -4  -2  222.03   13.41
  -5   4   2  233.36   14.49
   5  -4  -1  214.70   12.84
  -5   4   1  236.67   13.32
   5  -4   0  180.85   10.89
  -5   4   0  176.05    9.11
   5  -4   0  215.20   13.28
   5  -4   1  116.27    6.56
  -5   4  -1   98.83    5.97
   5  -4   1  126.35    8.32
   5  -4   2    1.38    1.34
  -5   4  -2   -0.94    1.36
   5  -4   2   -0.36    1.72
  -5   4  -3   24.28    3.64
   5  -4   3   31.57    5.11
  -5   4  -4   -0.10    1.76
   5  -4   4    1.21    1.93
  -5   4  -5  186.61   18.50
   5  -4   5  223.23   21.97
  -5   4  -6  195.24   15.04
   5  -4   6  205.90   15.48
  -5   4  -7   62.25    6.33
   5  -4   7   69.88    6.70
   5  -3 -10  138.12   10.95
  -5   3  10  143.48   11.29
   5  -3  -9   34.10    7.81
  -5   3   9   27.61    6.45
   5  -3  -8   41.66    6.37
  -5   3   8   46.96    6.93
   5  -3  -7    5.45    2.45
  -5   3   7   10.87    2.70
   5  -3  -6  154.04    9.17
  -5   3   6  163.34   22.58
   5  -3  -5  107.98    9.99
  -5   3   5  113.63   15.31
   5  -3  -4   22.92    3.56
  -5   3   4   26.35    4.61
   5  -3  -3    8.29    2.56
  -5   3   3    4.73    1.03
  -5   3   3    2.85    1.21
   5  -3  -2    3.44    1.38
  -5   3   2    5.80    1.26
   5  -3  -1  291.30   16.07
  -5   3   1  260.15   14.20
   5  -3  -1  315.81   17.66
   5  -3   0  567.52   29.53
  -5   3   0  551.46   33.58
   5  -3   0  661.82   34.88
   5  -3   1  264.41   14.75
  -5   3  -1  276.28   21.53
   5  -3   1  355.11   20.63
  -5   3  -2  151.95   14.16
   5  -3   2  165.58    9.57
  -5   3  -3   20.44    3.64
   5  -3   3   23.77    3.94
  -5   3  -4  103.66   10.45
   5  -3   4  119.02   11.90
  -5   3  -5  127.67   13.49
   5  -3   5  133.64   13.93
  -5   3  -6    1.19    2.24
   5  -3   6    6.60    3.39
  -5   3  -7   12.02    4.00
   5  -3   7   17.95    6.01
   5  -2 -11   44.22    5.47
  -5   2  11   32.45    5.87
   5  -2 -10   16.88    4.78
  -5   2  10   16.65    4.96
   5  -2  -9  125.18   12.94
  -5   2   9  108.77   11.16
   5  -2  -8   22.08    5.19
  -5   2   8   29.05    6.10
   5  -2  -7  225.40   12.32
  -5   2   7  207.41   11.42
   5  -2  -6  690.14   37.83
   5  -2  -6  642.53   34.10
  -5   2   6  710.65   39.21
   5  -2  -5  195.83   11.79
   5  -2  -5  177.75    9.72
  -5   2   5  175.07   10.33
   5  -2  -4   12.36    3.04
   5  -2  -4   12.84    2.30
  -5   2   4   14.56    3.18
   5  -2  -3   13.95    2.62
   5  -2  -2    3.33    1.51
  -5   2   2    0.00    0.88
   5  -2  -2    0.61    1.28
   5  -2  -1   18.85    2.37
  -5   2   1   19.21    2.89
   5  -2  -1   16.67    2.28
   5  -2   0    3.48    1.13
  -5   2   0    8.06    2.01
   5  -2   0    5.15    1.80
   5  -2   1    8.23    1.61
  -5   2  -1   14.12    2.70
   5  -2   1   19.92    3.90
  -5   2  -2   12.13    3.58
   5  -2   2    3.85    1.74
  -5   2  -3  343.54   18.64
   5  -2   3  378.02   17.32
  -5   2  -4  552.48   30.37
   5  -2   4  592.34   31.82
  -5   2  -5  265.29   26.27
   5  -2   5  308.86   28.21
  -5   2  -6   25.99    6.49
   5  -2   6   28.24    6.91
  -5   2  -7    1.19    2.43
   5  -2   7    2.85    2.35
   5  -1 -11   14.16    4.84
  -5   1  11   14.98    4.59
  -5   1  10  106.16   11.12
   5  -1  -9   94.89    9.91
   5  -1  -9   84.90    8.09
  -5   1   9   80.90    8.00
   5  -1  -8   12.57    3.46
   5  -1  -8    6.79    1.68
  -5   1   8    6.64    2.01
   5  -1  -7  127.23   11.42
   5  -1  -7  122.47   10.39
  -5   1   7  115.48   10.95
   5  -1  -6   34.56    5.51
   5  -1  -6   35.02    5.07
  -5   1   6   35.02    6.85
   5  -1  -5   27.46    5.03
   5  -1  -5   22.94    3.62
  -5   1   5   24.59    5.30
   5  -1  -4    2.51    1.36
   5  -1  -4    0.52    0.86
  -5   1   4   -1.40    1.05
   5  -1  -3  329.07   20.07
   5  -1  -3  402.26   18.35
   5  -1  -3  354.00   16.44
   5  -1  -2  156.47    8.32
   5  -1  -2  166.96    8.53
   5  -1  -2  161.73    8.50
   5  -1  -1  224.76   10.91
  -5   1   1  206.34   12.44
   5  -1  -1  220.65   11.06
   5  -1   0   -0.31    0.61
   5  -1   0    7.58    2.16
  -5   1  -1   50.36    8.61
  -5   1  -1   74.40   15.40
   5  -1   1   62.00    8.99
  -5   1  -2    1.21    1.36
   5  -1   2    5.53    2.39
  -5   1  -3  125.18    7.92
   5  -1   3  144.68    8.84
  -5   1  -4  170.23   17.74
   5  -1   4  201.13   12.76
  -5   1  -5   16.57    4.19
   5  -1   5   30.98    5.87
  -5   1  -6    0.40    1.59
   5  -1   6    0.00    2.03
  -5   1  -7   36.36    5.36
   5  -1   7   40.62    5.38
  -5   0  12   -0.17    2.37
   5   0 -11   62.67    9.36
   5   0 -11   52.66    7.54
   5   0 -10   55.97   11.81
   5   0 -10   46.69    9.68
  -5   0  10   44.47    9.26
   5   0  -9    7.48    3.12
   5   0  -9    4.21    1.95
  -5   0   9    2.26    1.30
   5   0  -8  208.79   11.58
   5   0  -8  199.35   10.37
  -5   0   8  201.19   10.16
   5   0  -7  188.73   10.77
   5   0  -7  197.76   11.67
  -5   0   7  151.55   13.62
   5   0  -6  138.31   18.54
   5   0  -6  118.33   15.73
  -5   0   6  127.04   17.05
   5   0  -5  229.24   12.53
   5   0  -5  216.80   10.66
  -5   0   5  209.93   12.97
   5   0  -4   12.04    2.18
   5   0  -4   13.89    2.24
  -5   0   4   15.56    2.64
   5   0  -3    3.08    1.55
   5   0  -3    3.48    1.57
   5   0  -3    0.57    0.98
   5   0  -2   10.91    2.01
   5   0  -2   15.65    2.16
  -5   0   1   72.96    5.61
   5   0  -1   80.85    6.01
   5   0  -1   78.07    5.57
  -5   0   0    2.64    1.09
   5   0   0    6.56    1.97
  -5   0  -1   34.54    6.54
   5   0   1   32.66    5.13
  -5   0  -2  493.79   28.82
   5   0   2  481.83   26.92
  -5   0  -3  142.18    8.67
   5   0   3  148.82    9.15
  -5   0  -4   22.77    9.24
   5   0   4   30.39    6.39
  -5   0  -5  134.98   14.29
   5   0   5  127.71   13.43
  -5   0  -6   14.18    3.92
   5   0   6   10.41    4.00
  -5   0  -7   46.61    7.98
   5   0   7   60.56    6.49
  -5  -1  12   46.33   10.95
   5   1 -12   44.66    5.43
  -5  -1  11    8.21    2.26
  -5  -1  10  173.46   21.72
   5   1 -10  151.25   15.04
  -5  -1   9   50.33   11.79
   5   1  -9   49.41    9.36
  -5  -1   8    1.91    1.53
  -5  -1   7   10.39    2.76
   5   1  -7    2.85    2.07
  -5  -1   7    4.40    1.24
  -5  -1   6   28.51    7.06
   5   1  -6   21.60    3.64
  -5  -1   6   16.92    3.12
  -5  -1   5    2.14    1.42
   5   1  -5    3.50    1.57
  -5  -1   5    2.60    0.67
   5   1  -4   74.26    5.63
   5   1  -4   76.41    5.11
  -5  -1   3   30.14    6.68
   5   1  -3   30.98    3.29
   5   1  -3   24.00    2.37
   5   1  -2    0.17    1.32
   5   1  -2   -0.50    0.86
  -5  -1   1  296.35   15.71
   5   1  -1  303.24   15.17
   5   1  -1  294.93   13.97
  -5  -1   0   75.37   11.00
   5   1   0   71.22   10.12
   5   1   0   79.45   11.02
  -5  -1  -1  117.64   19.25
   5   1   1  104.48    9.36
  -5  -1  -2  298.70   20.51
   5   1   2  278.50   13.07
  -5  -1  -3    6.24    2.53
   5   1   3   11.10    3.18
  -5  -1  -4   18.79    3.81
   5   1   4   31.94    5.09
  -5  -1  -5   16.19    4.34
   5   1   5   12.88    4.15
  -5  -1  -6   32.45    6.20
   5   1   6   38.54    5.13
  -5  -2  12   26.60    5.74
   5   2 -12   25.70    4.92
  -5  -2  11   80.10   15.35
   5   2 -11   80.46    7.12
  -5  -2  10   44.47   11.31
   5   2 -10   44.22    9.38
  -5  -2   9    5.95    3.35
   5   2  -9    4.50    2.05
  -5  -2   8    2.93    1.11
  -5  -2   7  473.20   20.76
   5   2  -7  439.67   19.12
  -5  -2   6  135.17   12.09
   5   2  -6  109.32    9.91
  -5  -2   5    4.29    1.32
   5   2  -5   16.57    3.29
  -5  -2   4   29.39    6.10
   5   2  -4   27.98    4.65
   5   2  -4   23.73    3.50
  -5  -2   3   27.04    5.63
   5   2  -3   31.59    5.19
   5   2  -3   30.23    4.38
  -5  -2   2   -0.40    1.11
  -5  -2   1    2.05    0.67
   5   2  -1    4.25    1.91
   5   2  -1    8.17    2.16
  -5  -2   0    4.31    1.42
   5   2   0    4.57    2.47
   5   2   0    5.80    1.68
  -5  -2  -2   14.43    3.10
   5   2   2   22.04    3.46
  -5  -2  -3  177.60   21.93
   5   2   3  166.65   15.73
  -5  -2  -4   85.06   17.24
   5   2   4   91.43    9.93
  -5  -2  -5    9.70    3.14
   5   2   5    3.50    2.53
  -5  -2  -6   90.80   12.53
  -5  -3  12  111.90   23.21
   5   3 -12  121.70    9.70
  -5  -3  11   -2.60    2.18
   5   3 -11    0.48    2.16
  -5  -3  10   83.83   18.62
   5   3 -10   76.01    8.59
  -5  -3   9    3.79    1.28
   5   3  -9    5.76    2.91
  -5  -3   8   52.70   10.75
   5   3  -8   44.99    5.51
  -5  -3   7    2.89    1.13
  -5  -3   6   76.71    6.79
   5   3  -6   77.71    5.84
  -5  -3   5   48.51    8.46
   5   3  -5   38.71    4.73
  -5  -3   4  116.06   11.42
   5   3  -4  120.11   10.85
  -5  -3   3  361.70   20.82
   5   3  -3  358.08   20.74
   5   3  -3  345.26   18.73
  -5  -3   2   58.71    9.66
   5   3  -2   61.46    6.60
   5   3  -2   56.24    5.36
  -5  -3   1    3.14    1.86
   5   3  -1    1.61    1.89
   5   3  -1   -0.10    0.94
  -5  -3   0  169.10    8.88
   5   3   0  183.39   10.79
   5   3   0  174.94    9.47
  -5  -3  -1   35.73    4.02
  -5  -3  -1   44.18    8.61
   5   3   1   41.64    4.99
  -5  -3  -2   40.15    7.79
   5   3   2   27.90    4.50
  -5  -3  -3  174.71   31.50
   5   3   3  160.20   15.96
  -5  -3  -4    3.41    2.30
   5   3   4    2.89    2.26
  -5  -3  -5   23.86    5.70
   5   3   5   23.27    5.07
  -5  -4  11    9.49    3.39
   5   4 -11    0.04    2.37
  -5  -4  10   29.85    7.44
   5   4 -10   35.55    6.07
  -5  -4   9  153.50   28.49
   5   4  -9  158.23   16.04
  -5  -4   8   95.01   18.39
   5   4  -8  103.20   10.64
  -5  -4   7    0.80    0.92
   5   4  -7    1.78    1.95
  -5  -4   6   44.66    7.27
   5   4  -6   43.65    5.57
  -5  -4   5    2.93    1.11
   5   4  -5   15.25    3.41
  -5  -4   4   79.95   13.66
   5   4  -4   75.13    8.15
  -5  -4   3  128.90   11.08
   5   4  -3  138.02    9.30
  -5  -4   2  126.79    8.46
   5   4  -2  137.53    9.30
   5   4  -2  112.55   10.47
  -5  -4   1   13.91    2.26
   5   4  -1   20.95    4.23
  -5  -4   0    9.76    2.64
   5   4   0    8.00    3.20
   5   4   0    3.23    1.95
   5   4   1   28.45    5.97
  -5  -4  -2  218.49   32.74
   5   4   2  217.68   17.76
  -5  -4  -3    1.89    1.51
   5   4   3    1.78    1.93
  -5  -4  -4   37.26    6.01
   5   4   4   36.30    4.55
  -5  -5  10   58.71    9.72
   5   5 -10   41.29    4.84
  -5  -5   9  317.86   32.63
   5   5  -9  276.70   19.92
  -5  -5   8  184.35   15.94
   5   5  -8  168.43   13.43
  -5  -5   7   64.64   10.45
   5   5  -7   46.50   10.66
  -5  -5   6   59.55   12.48
   5   5  -6   65.16    7.67
  -5  -5   5   50.73    9.34
   5   5  -5   51.65    7.58
  -5  -5   4   13.95    3.54
   5   5  -4   14.70    3.71
  -5  -5   3    4.13    2.66
   5   5  -3    4.50    2.83
  -5  -5   2   14.16    2.70
   5   5  -2   17.60    4.00
  -5  -5   1   16.46    4.21
   5   5  -1   12.74    3.96
  -5  -5   0   29.45    6.51
   5   5   0   31.19    6.74
   5   5   0   34.37    7.27
  -5  -5  -1  304.69   21.30
   5   5   1  293.27   20.05
  -5  -5  -2   97.11   17.45
   5   5   2   56.01   12.23
  -5  -6   9    2.26    2.45
   5   6  -9    8.11    3.71
  -5  -6   8    0.50    1.26
   5   6  -8   -3.10    2.05
  -5  -6   7   18.75    4.67
   5   6  -7   24.05    5.05
  -5  -6   6  193.75   15.33
   5   6  -6  177.69   14.39
  -5  -6   5  174.82   14.20
  -5  -6   4  218.09   16.88
   5   6  -4  218.43   16.63
  -5  -6   3   29.33    7.18
   5   6  -3   33.01    7.48
  -5  -6   2    4.06    2.56
   5   6  -2    1.49    2.14
  -5  -6   1   -0.54    1.80
   5   6  -1    1.89    2.39
  -5  -6   0   54.82    5.82
   5   6   0   61.92    7.62
  -5  -6  -1   19.63    5.49
  -5  -7   7   -1.78    2.56
  -5  -7   6   -0.63    2.28
   5   7  -6    0.52    2.18
  -5  -7   5   35.13    5.01
   5   7  -5   25.62    5.45
  -5  -7   4   20.38    5.09
   5   7  -4   30.64    5.91
  -5  -7   3   18.47    4.61
   5   7  -3   13.64    3.39
   6  -7  -3    7.25    2.93
  -6   7   3    7.16    2.58
   6  -7  -2    3.39    2.09
  -6   7   2    2.41    2.26
   6  -7  -1   22.08    4.65
  -6   7   1   22.92    5.93
   6  -7   0   23.92    4.63
  -6   7   0   38.75    5.70
   6  -7   1   -1.30    1.49
  -6   7  -1    0.57    2.09
   6  -6  -6   50.29    5.74
  -6   6   6   32.45    5.55
   6  -6  -5   18.91    6.14
  -6   6   5    2.70    2.18
   6  -6  -4    6.56    3.10
  -6   6   4    8.17    3.96
   6  -6  -3   12.67    3.50
  -6   6   3   15.50    3.25
   6  -6  -2  139.27   11.37
  -6   6   2  127.73   25.05
   6  -6  -1  244.19   18.41
  -6   6   1  306.01   25.37
   6  -6   0  116.99    9.30
  -6   6   0  151.69   21.62
   6  -6   1    4.29    2.12
   6  -6   2    0.67    2.35
   6  -6   3   10.66    3.96
   6  -5  -7  138.12   11.31
  -6   5   7  115.56   22.39
   6  -5  -6  134.33   11.04
  -6   5   6  117.57   18.10
   6  -5  -5   21.99    5.78
   6  -5  -4    3.39    2.03
  -6   5   4    8.40    4.48
   6  -5  -3   34.94    7.67
  -6   5   3   34.52    8.19
   6  -5  -2  151.97   14.66
  -6   5   2  185.42   31.59
   6  -5  -1  169.12   16.02
  -6   5   1  209.51   21.26
   6  -5   0   -0.19    1.17
   6  -5   0    2.28    2.24
   6  -5   1   10.81    2.95
  -6   5  -1   12.32    3.23
   6  -5   1   20.74    5.45
  -6   5  -2   94.68    8.27
   6  -5   2  123.27   10.79
  -6   5  -3  158.46   12.17
   6  -5   3  197.99   14.98
  -6   5  -4   62.11    6.64
   6  -5   4   66.34    7.48
  -6   5  -5   25.22    5.43
   6  -5   5   20.70    4.99
   6  -4  -9   41.01    5.45
  -6   4   9   40.62    5.38
   6  -4  -8   77.19    7.54
  -6   4   8   64.03    6.58
   6  -4  -7  105.72    9.40
  -6   4   7   71.39   14.43
   6  -4  -6  109.59   11.75
  -6   4   6   95.49   18.77
   6  -4  -5   67.45    7.85
  -6   4   5   71.28   11.83
   6  -4  -4  204.81   18.75
  -6   4   4  219.71   20.40
   6  -4  -3  678.37   76.39
  -6   4   3  717.02   62.99
   6  -4  -2  343.69   19.10
  -6   4   2  369.43   22.98
   6  -4  -1   14.16    2.37
  -6   4   1    6.89    1.63
   6  -4  -1   17.47    3.54
   6  -4   0   24.05    4.88
  -6   4   0   15.50    3.31
   6  -4   0   30.14    6.10
   6  -4   1    5.68    1.55
  -6   4  -1    8.50    2.35
   6  -4   1   15.23    4.31
  -6   4  -2  153.39   14.52
   6  -4   2  195.37   18.60
  -6   4  -3  137.97   14.12
   6  -4   3  202.55   20.30
  -6   4  -4  104.56    9.15
   6  -4   4  138.12   11.65
  -6   4  -5   30.94    6.35
   6  -4   5   42.10    5.28
   6  -3 -10  129.47   10.33
  -6   3  10  106.53    8.80
   6  -3  -9  250.65   18.50
  -6   3   9  214.99   15.88
   6  -3  -8   98.05    8.97
  -6   3   8   71.99   13.32
   6  -3  -7   83.45    9.22
  -6   3   7   58.11   11.42
   6  -3  -6   -3.35    1.72
  -6   3   6    2.81    2.22
   6  -3  -5   35.27    4.69
  -6   3   5   35.55    6.74
   6  -3  -4  477.08   26.79
  -6   3   4  465.91   25.72
   6  -3  -3  758.87   31.40
  -6   3   3  677.45   28.80
  -6   3   3  768.46   36.80
   6  -3  -2  222.28   20.30
  -6   3   2  211.64   19.31
   6  -3  -2  236.90   12.63
   6  -3  -1   67.74    4.61
  -6   3   1   60.51    8.44
   6  -3  -1   81.00    6.16
   6  -3   0   76.50    7.54
  -6   3   0   75.28   11.65
   6  -3   0  101.80   10.56
  -6   3  -1  374.44   21.85
   6  -3   1  458.56   25.22
  -6   3  -2  238.58   23.59
   6  -3   2  291.07   26.25
  -6   3  -3   55.01    8.99
   6  -3   3   64.66    8.17
  -6   3  -4   10.10    3.48
   6  -3   4    7.52    2.83
  -6   3  -5   13.57    4.90
   6  -3   5   12.04    4.57
  -6   3  -6   24.51    5.47
   6  -3   6   21.05    4.75
   6  -2 -10  149.47   11.92
  -6   2  10  164.58   12.07
   6  -2  -9  289.71   21.68
  -6   2   9  288.14   20.88
   6  -2  -8  285.98   30.20
  -6   2   8  304.88   27.90
   6  -2  -7  161.08   15.40
  -6   2   7  159.36   15.17
   6  -2  -6  225.30   13.45
   6  -2  -6  201.48   11.06
  -6   2   6  229.89   27.59
   6  -2  -5  322.39   14.87
   6  -2  -5  310.05   13.22
  -6   2   5  375.49   24.05
   6  -2  -4  581.56   24.70
   6  -2  -4  554.26   22.58
  -6   2   4  584.41   30.25
   6  -2  -3   51.95    5.32
  -6   2   3   41.81    8.06
   6  -2  -2   11.79    2.09
  -6   2   2   12.13    2.58
   6  -2  -2   14.20    3.04
   6  -2  -1    2.58    1.30
  -6   2   1    4.11    1.36
   6  -2  -1    3.48    1.74
   6  -2   0  400.08   16.61
  -6   2   0  427.92   18.98
   6  -2   0  458.89   20.74
  -6   2  -1  988.90   57.12
   6  -2   1 1118.29   59.93
  -6   2  -2  428.17   38.65
   6  -2   2  442.68   38.83
  -6   2  -3   99.91   18.12
   6  -2   3  119.21   12.11
  -6   2  -4   90.59   12.38
   6  -2   4  102.07    9.34
  -6   2  -5   25.97    5.87
   6  -2   5   23.25    5.53
  -6   2  -6   42.00    5.57
   6  -2   6   52.83    6.49
   6  -1 -11   54.90    6.24
   6  -1 -10  101.17    8.86
  -6   1  10  107.33    8.71
   6  -1  -9   43.36    9.49
  -6   1   9   28.17    6.24
   6  -1  -8    8.00    3.08
   6  -1  -8    2.62    1.15
  -6   1   8    1.38    1.53
   6  -1  -7  197.84   12.34
   6  -1  -7  193.92   11.12
  -6   1   7  193.23   16.34
   6  -1  -6  584.01   25.20
   6  -1  -6  524.88   21.64
  -6   1   6  568.47   24.91
   6  -1  -5 1575.40  136.11
   6  -1  -5 1508.65   58.92
  -6   1   5 1592.64  139.04
   6  -1  -4  932.28   50.29
   6  -1  -4  889.83   47.49
  -6   1   4  987.19   54.80
   6  -1  -3  127.79   11.19
   6  -1  -3  142.88   12.23
   6  -1  -3  130.62   11.44
   6  -1  -2    1.13    1.17
  -6   1   2    2.91    1.03
   6  -1  -2   -0.84    1.30
   6  -1  -1  171.32    8.86
  -6   1   1  162.71   21.64
   6  -1  -1  184.54   16.11
  -6   1   0  482.65   21.87
  -6   1   0  464.07   22.94
   6  -1   0  498.94   21.49
  -6   1  -1  174.53   11.35
   6  -1   1  196.83   12.11
  -6   1  -2   78.82   14.64
   6  -1   2   78.93   10.16
  -6   1  -3   70.13   12.00
   6  -1   3   73.90    8.27
  -6   1  -4  174.40   14.35
   6  -1   4  160.18   13.05
  -6   1  -5  122.14   27.65
   6  -1   5  164.51   12.44
  -6   1  -6  171.13   27.36
   6  -1   6  177.21   12.86
   6   0 -10  189.31   14.85
   6   0 -10  153.64   11.92
   6   0  -9   34.33    7.81
   6   0  -9   32.66    7.00
   6   0  -8   31.00    6.56
   6   0  -8   28.28    5.57
  -6   0   8   17.99    4.67
   6   0  -7   66.63    7.56
   6   0  -7   63.22    6.70
  -6   0   7   48.22    8.65
   6   0  -6  299.64   14.16
   6   0  -6  318.43   14.31
  -6   0   6  320.17   14.68
   6   0  -5  405.98   22.98
   6   0  -5  381.85   21.41
  -6   0   5  380.81   21.22
   6   0  -4  247.04   14.60
   6   0  -4  248.59   14.64
   6   0  -4  259.95   14.93
  -6   0   3    0.46    0.78
   6   0  -3    7.62    1.95
  -6   0   2  999.56   54.54
   6   0  -2  959.79   51.47
   6   0  -2 1059.28   56.76
  -6   0   1 1473.73   65.23
  -6   0   1 1379.32   87.89
   6   0  -1 1486.86   65.75
  -6   0   0  888.36   38.86
   6   0   0  906.63   36.95
  -6   0  -1  144.22   17.51
   6   0   1  151.61    9.91
  -6   0  -2   17.95    4.40
   6   0   2   18.83    4.80
  -6   0  -3   16.67    5.11
   6   0   3   18.50    5.30
  -6   0  -4   51.63   13.45
   6   0   4   52.39   10.91
  -6   0  -5  140.32   30.41
   6   0   5  147.38   11.29
  -6  -1  11   83.28   16.97
   6   1 -11   80.94    7.00
  -6  -1  10  159.57   13.30
   6   1 -10  124.30   10.05
  -6  -1   9  246.18   27.88
   6   1  -9  205.02   19.75
  -6  -1   8  459.63   42.14
   6   1  -8  431.85   37.72
  -6  -1   7  695.34   39.04
   6   1  -7  687.21   36.05
  -6  -1   6  658.56   28.80
   6   1  -6  617.17   26.08
  -6  -1   5   56.89   10.95
   6   1  -5   51.05    4.46
  -6  -1   5   41.89    7.00
  -6  -1   4  136.80   12.78
   6   1  -4  128.38   11.44
   6   1  -4  130.16   11.02
  -6  -1   3   14.54    2.79
   6   1  -3   12.90    2.81
   6   1  -3   15.52    2.49
  -6  -1   2  540.80   30.18
   6   1  -2  528.42   29.30
   6   1  -2  554.79   30.27
  -6  -1   1  862.05   34.65
   6   1  -1 1016.95   41.66
   6   1  -1  919.15   37.22
  -6  -1   0  438.22   38.83
   6   1   0  412.83   22.33
  -6  -1  -1  334.14   34.33
   6   1   1  309.78   27.52
  -6  -1  -2  161.77   24.95
   6   1   2  152.87   14.68
  -6  -1  -3  235.21   23.90
   6   1   3  202.41   19.88
  -6  -1  -4  181.25   25.89
   6   1   4  170.00   13.20
  -6  -1  -5   33.77    5.51
   6   1   5   42.98    6.07
  -6  -2  11    0.67    1.51
   6   2 -11    0.94    1.91
  -6  -2  10    1.34    1.70
   6   2 -10   12.76    3.60
  -6  -2   9    3.37    1.99
   6   2  -9   17.87    4.57
  -6  -2   8  364.85   32.86
   6   2  -8  309.02   27.88
  -6  -2   7  897.87   48.68
   6   2  -7  788.30   41.62
  -6  -2   6  480.41   29.79
   6   2  -6  490.69   26.50
  -6  -2   5  145.56   11.44
   6   2  -5  116.69    7.65
  -6  -2   4  138.75    9.17
   6   2  -4  145.31    8.90
   6   2  -4  134.50    7.14
  -6  -2   3  464.91   20.84
   6   2  -3  446.01   19.71
   6   2  -3  436.15   18.16
  -6  -2   2  456.76   22.73
   6   2  -2  544.96   23.86
   6   2  -2  502.63   20.95
  -6  -2   1   54.13   10.16
   6   2  -1   61.50    7.27
   6   2  -1   65.54    6.93
  -6  -2   0    8.02    1.80
   6   2   0   10.12    2.89
  -6  -2  -1   11.75    3.69
   6   2   1   21.83    4.48
  -6  -2  -2  176.08   20.49
   6   2   2  169.60   16.76
  -6  -2  -3  308.52   43.25
   6   2   3  271.40   19.23
  -6  -2  -4  168.93   24.63
   6   2   4  172.81   12.32
  -6  -3  11   73.88   16.15
   6   3 -11   76.22    7.12
  -6  -3  10   33.20    8.11
   6   3 -10   31.15    5.59
  -6  -3   9   89.02   19.42
   6   3  -9   79.20    7.39
  -6  -3   8  121.93   13.38
   6   3  -8  127.77   13.28
  -6  -3   7   55.38   12.74
   6   3  -7   60.14    7.02
  -6  -3   6    0.48    1.55
   6   3  -6   -0.90    1.76
  -6  -3   5   30.56    5.84
   6   3  -5   28.65    4.71
  -6  -3   4  425.88   23.92
   6   3  -4  467.02   26.27
  -6  -3   3 1077.80   57.33
   6   3  -3 1162.80  199.98
  -6  -3   2  697.62   60.20
   6   3  -2  644.10   56.30
   6   3  -2  640.08   54.92
  -6  -3   1  115.77   11.06
   6   3  -1  104.88   10.77
   6   3  -1   99.33    9.55
   6   3   0   26.54    4.86
   6   3   0   20.36    3.56
  -6  -3  -1   57.90   15.94
   6   3   1   62.13    7.18
  -6  -3  -2   48.64   11.21
   6   3   2   48.83    7.29
  -6  -3  -3   52.81    9.78
   6   3   3   58.75    6.24
  -6  -4  10  148.78   27.92
   6   4 -10  155.09   11.94
  -6  -4   9  303.35   23.25
   6   4  -9  294.61   20.70
  -6  -4   8  255.27   21.70
   6   4  -8  244.24   18.56
  -6  -4   7    8.42    3.27
   6   4  -7   18.43    4.96
  -6  -4   6   -0.46    1.93
   6   4  -6   -0.92    1.91
  -6  -4   5   12.02    3.29
   6   4  -5   10.68    3.52
  -6  -4   4  179.76   17.70
   6   4  -4  190.57   18.06
  -6  -4   3  225.32   20.72
   6   4  -3  236.88   22.12
  -6  -4   2   41.77    9.05
   6   4  -2   48.91   10.64
  -6  -4   1   57.23    6.56
   6   4  -1   55.76   11.98
   6   4  -1   44.11    9.13
   6   4   0  207.35   16.32
   6   4   0  182.84   13.78
  -6  -4  -1  209.07   34.46
   6   4   1  188.27   13.24
  -6  -4  -2  129.30   25.97
   6   4   2  120.84    9.15
  -6  -5   9   58.99   10.62
   6   5  -9   73.38    7.00
  -6  -5   8   42.54    9.01
   6   5  -8   42.19    5.63
  -6  -5   7    2.74    1.63
  -6  -5   6   74.61    7.73
   6   5  -6   74.78    8.02
  -6  -5   5  375.11   27.13
   6   5  -5  410.40   29.85
  -6  -5   4  224.02   16.92
   6   5  -4  235.94   18.31
  -6  -5   3    7.44    3.27
   6   5  -3   17.22    4.99
  -6  -5   2    6.16    3.25
   6   5  -2    4.02    2.58
   6   5  -1    6.43    3.52
   6   5   0   59.68    6.64
  -6  -6   7    7.14    2.83
   6   6  -7    5.53    2.72
  -6  -6   6  107.29    9.11
   6   6  -6  118.28    9.87
  -6  -6   5  168.41   12.19
   6   6  -5  168.41   12.44
  -6  -6   4   73.38    6.89
   6   6  -4   81.27    7.65
  -6  -6   3   25.22    5.07
   6   6  -3   32.99    6.43
  -6  -6   2   36.99    4.52
   7  -6  -3   -0.08    1.72
  -7   6   3    1.42    2.62
   7  -6  -2   53.85    5.70
  -7   6   2   47.00    7.62
   7  -6  -1   54.82    5.30
  -7   6   1   48.57    6.95
  -7   6   0  105.70   20.61
   7  -5  -6   57.14    6.35
  -7   5   6   58.52    9.76
   7  -5  -5    5.74    2.87
  -7   5   5   14.85    4.52
   7  -5  -4   37.49    4.71
  -7   5   4   41.70    6.47
   7  -5  -3   65.73    6.37
  -7   5   3   68.91   20.05
   7  -5  -2   28.30    4.82
  -7   5   2   36.22    7.65
   7  -5  -1    2.87    1.80
  -7   5   1    5.70    2.33
   7  -5   0    4.02    3.18
   7  -5   1    0.15    2.03
   7  -5   2   77.82    7.60
   7  -4  -8  116.36    9.17
  -7   4   8   96.19   19.56
   7  -4  -7    1.89    2.26
  -7   4   7   -2.53    2.51
   7  -4  -6    9.84    4.48
  -7   4   6    9.36    3.92
   7  -4  -5    7.14    3.16
  -7   4   5    0.54    2.28
   7  -4  -4  131.69   10.83
  -7   4   4  165.64   15.14
   7  -4  -3  268.97   25.70
  -7   4   3  281.83   29.45
   7  -4  -2  192.75   18.73
  -7   4   2  183.13   28.38
   7  -4  -1   78.32    8.42
   7  -4  -1   88.92   10.05
  -7   4   0    5.87    2.14
   7  -4   0    7.98    3.52
  -7   4  -1   16.42    3.62
   7  -4   1   24.76    5.36
  -7   4  -2   31.61    8.80
   7  -4   2   50.42    6.30
  -7   4  -3   13.55    3.81
   7  -4   3   18.79    4.84
   7  -3  -9  259.86   17.85
  -7   3   9  264.81   16.84
   7  -3  -8   65.10    6.70
  -7   3   8   51.72    9.66
   7  -3  -7    3.75    2.20
  -7   3   7    4.61    1.57
   7  -3  -6   32.63    7.39
  -7   3   6   29.49    7.90
   7  -3  -5    2.18    1.74
  -7   3   5   -2.09    1.74
   7  -3  -4   12.38    2.93
  -7   3   4   14.03    2.22
   7  -3  -3   47.49    6.43
  -7   3   3   33.83    6.95
  -7   3   3   50.10    9.80
   7  -3  -2   24.09    3.71
  -7   3   2   17.85    3.08
   7  -3  -2   27.15    4.75
   7  -3  -1   43.84    5.78
  -7   3   1   41.98    7.25
   7  -3  -1   55.55    7.92
  -7   3   0  179.80   18.16
   7  -3   0  217.36   21.28
  -7   3  -1  183.78   26.60
   7  -3   1  250.29   19.38
  -7   3  -2  119.83   19.71
   7  -3   2  165.18   12.90
  -7   3  -3    4.71    2.64
   7  -3   3    1.80    2.41
  -7   3  -4    3.20    3.08
   7  -3   4   15.37    4.40
   7  -2  -9   52.01    6.68
  -7   2   9   62.94    6.64
   7  -2  -8    4.44    2.66
  -7   2   8    4.80    1.97
   7  -2  -7    0.48    1.91
  -7   2   7    1.84    1.05
   7  -2  -6   75.09    8.40
  -7   2   6   59.57   11.04
   7  -2  -5  163.13   15.40
  -7   2   5  147.09   14.06
   7  -2  -4   86.89    8.76
  -7   2   4   69.19   11.63
  -7   2   4   90.49   18.03
   7  -2  -3    2.72    1.55
  -7   2   3    1.01    1.15
   7  -2  -3   -0.44    1.63
   7  -2  -2   16.55    3.73
  -7   2   2   11.65    3.69
   7  -2  -2   19.82    4.50
   7  -2  -1    1.32    1.38
  -7   2   1    0.04    0.67
   7  -2  -1    1.45    1.82
  -7   2   0   26.12    4.82
   7  -2   0   31.46    5.51
  -7   2  -1  109.57   20.82
   7  -2   1  119.56   12.59
  -7   2  -2   20.97    5.19
   7  -2   2   39.99    8.82
  -7   2  -3    2.22    1.49
   7  -2   3   10.64    4.23
  -7   2  -4   25.91    6.37
   7  -2   4   21.24    4.84
   7  -1 -10   29.18    5.34
   7  -1  -9   15.61    4.17
   7  -1  -8  139.57   11.73
  -7   1   8  106.68   18.12
   7  -1  -7   24.09    5.95
   7  -1  -7   21.16    5.13
  -7   1   7   17.87    4.86
   7  -1  -6   56.49    6.47
   7  -1  -6   68.98    7.29
  -7   1   6   47.61    9.09
   7  -1  -5  113.34   11.19
   7  -1  -5  128.53   12.04
  -7   1   5  112.75   19.27
   7  -1  -4   35.13    6.87
   7  -1  -4   37.52    7.06
   7  -1  -3   53.75    9.95
  -7   1   3   46.02    9.99
   7  -1  -3   53.69   10.03
  -7   1   2   25.68    7.21
   7  -1  -2   26.96    5.76
  -7   1   1   38.37    8.61
  -7   1   1   54.63   10.89
   7  -1  -1   68.08   12.63
  -7   1   0   36.13    6.01
   7  -1   0   45.45    6.74
  -7   1  -1    1.05    1.36
   7  -1   1    2.97    2.58
  -7   1  -2   57.16   11.98
   7  -1   2   51.26   10.77
  -7   1  -3   11.00    4.46
   7  -1   3   18.68    5.95
  -7   1  -4  109.74   21.95
   7  -1   4  134.10   10.81
  -7   0  10    4.80    1.93
   7   0  -9   19.25    3.92
   7   0  -8   28.40    6.45
   7   0  -7   34.88    5.19
  -7   0   7   22.10    4.17
   7   0  -6   13.22    3.04
  -7   0   6    1.11    1.70
  -7   0   5   19.27    5.11
   7   0  -5   15.79    3.60
  -7   0   5   16.67    3.69
  -7   0   4   20.46    5.43
   7   0  -4   20.72    4.80
   7   0  -4   20.05    4.38
  -7   0   3    1.76    0.65
   7   0  -3    0.82    1.72
  -7   0   2   21.99    4.59
  -7   0   2   29.64    6.26
   7   0  -2   22.43    4.82
  -7   0   1  140.11   21.62
   7   0  -1  174.02   16.38
  -7   0   0    3.48    1.99
   7   0   1   23.46    5.82
  -7   0  -2    4.67    2.68
   7   0   2   13.62    4.00
  -7   0  -3   32.13   10.60
   7   0   3   34.23    6.79
  -7  -1  10  109.17   21.26
   7   1 -10  105.67    8.40
  -7  -1   9   63.72   13.30
   7   1  -9   60.60    8.82
   7   1  -8   17.87    4.48
  -7  -1   7   74.21   17.03
   7   1  -7   83.81    9.03
  -7  -1   6   13.59    3.41
   7   1  -6   14.45    3.25
  -7  -1   5    2.07    0.80
   7   1  -5    5.13    2.01
  -7  -1   5    1.49    0.67
   7   1  -4   -0.54    1.70
   7   1  -4    3.92    1.70
  -7  -1   3   19.63    4.48
   7   1  -3   14.81    3.96
   7   1  -3   17.03    3.60
  -7  -1   2    7.27    2.53
   7   1  -2   11.48    3.33
   7   1  -2    2.14    1.40
  -7  -1   1    2.51    1.76
   7   1  -1    0.65    1.49
  -7  -1   0   43.11   10.62
   7   1   0   38.42    8.29
  -7  -1  -1   24.99    6.70
   7   1   1   25.51    6.03
  -7  -1  -2   36.32    7.21
   7   1   2   37.83    5.19
  -7  -1  -3  116.97   21.26
   7   1   3  129.39    9.70
  -7  -2  10   98.30   16.90
   7   2 -10   80.60    7.00
   7   2  -9   18.58    3.92
   7   2  -8    3.48    2.07
  -7  -2   7   -1.55    1.76
   7   2  -7   10.08    3.46
  -7  -2   6    1.70    1.03
  -7  -2   5    8.55    3.25
   7   2  -5    3.10    2.07
  -7  -2   4    0.44    0.86
   7   2  -4    5.74    2.95
  -7  -2   3   50.63   10.12
   7   2  -3   62.73    7.31
   7   2  -3   61.79    6.43
  -7  -2   2    1.42    0.92
   7   2  -2   11.92    3.83
   7   2  -2   10.20    3.02
   7   2  -1   16.15    4.19
  -7  -2   0  108.84   22.45
   7   2   0  109.32    9.13
  -7  -2  -1    3.75    2.58
   7   2   1    7.25    3.29
  -7  -2  -2   19.63    4.69
   7   2   2   23.80    4.88
  -7  -3  10   -2.79    2.20
   7   3 -10    0.71    1.95
  -7  -3   9   19.58    6.14
   7   3  -9   22.62    6.74
  -7  -3   8   -0.63    2.03
   7   3  -8    1.91    2.22
  -7  -3   7   25.81    7.21
   7   3  -7   13.89    4.11
  -7  -3   6  107.37   20.67
   7   3  -6  104.33    9.64
  -7  -3   5    7.27    2.56
  -7  -3   4    2.20    1.68
   7   3  -4    3.46    3.04
  -7  -3   3    1.53    0.88
   7   3  -3    2.41    2.93
  -7  -3   2    5.24    2.18
   7   3  -2    0.19    2.12
   7   3  -1   35.00    6.58
   7   3  -1   36.13    5.76
  -7  -3   0    3.25    1.65
   7   3   0    2.14    2.28
  -7  -3  -1   27.21    6.77
   7   3   1   20.70    4.52
  -7  -4   9    2.07    1.34
   7   4  -9   -0.23    2.45
  -7  -4   8    1.80    2.07
   7   4  -8    6.18    2.97
  -7  -4   7   12.15    4.19
   7   4  -7    3.73    2.49
  -7  -4   6    1.72    1.51
   7   4  -6    1.59    2.37
  -7  -4   5   -0.75    2.14
   7   4  -5    4.00    2.70
  -7  -4   4    0.42    2.05
   7   4  -4    5.36    3.56
  -7  -4   3   34.96    6.01
   7   4  -3   27.17    5.32
   7   4  -2  127.98   10.58
   7   4  -1   74.93    7.67
  -7  -5   7   38.44    7.81
  -7  -5   6   -2.12    2.18
   7   5  -6   -0.27    2.35
  -7  -5   5   -0.08    2.20
   7   5  -5    0.15    2.30
  -7  -5   4    2.22    2.74
   7   5  -4    2.45    2.47
   8  -4  -5  106.28    8.34
  -8   4   5   91.89   16.59
   8  -4  -4    6.43    2.72
  -8   4   4    5.82    1.72
   8  -4  -3    9.51    2.85
  -8   4   3    9.47    3.50
  -8   4   2  103.35    8.67
   8  -4  -1  145.91   11.06
   8  -4   0   17.97    4.73
   8  -3  -7   91.68    8.04
  -8   3   7   75.91   13.91
   8  -3  -6   45.16    5.17
  -8   3   6   39.30    9.43
   8  -3  -5    5.70    2.95
  -8   3   5    4.57    2.12
   8  -3  -4    3.62    2.05
  -8   3   4   10.43    3.69
   8  -3  -3  170.46   12.53
  -8   3   3  180.41   30.62
   8  -3  -2  411.74   98.32
  -8   3   1  178.13   27.29
   8  -3  -1  228.02   16.34
  -8   3   0   12.99    2.72
   8  -3   0   16.48    4.50
  -8   3  -1    2.87    1.36
   8  -3   1    0.84    2.45
   8  -2  -8  241.68   16.23
   8  -2  -7  166.96   12.48
  -8   2   7  131.52   21.62
   8  -2  -6   36.03    5.95
  -8   2   6   31.86    8.40
   8  -2  -5    4.38    2.79
  -8   2   5    0.15    1.30
   8  -2  -4   41.85    8.82
  -8   2   4   33.66    8.59
  -8   2   4   42.35   11.06
   8  -2  -3  198.09   14.85
  -8   2   3  164.41   24.40
   8  -2  -3  215.31   16.34
  -8   2   2  142.39   25.49
   8  -2  -2  226.75   16.42
  -8   2   1   28.89    5.59
   8  -2  -1   48.45    7.65
  -8   2   0    5.40    2.81
   8  -2   0   12.02    4.46
  -8   2  -1   81.42   13.03
   8  -2   1   82.19    8.06
   8  -1  -8  109.38    9.59
   8  -1  -7  116.04    9.78
   8  -1  -6   46.31    6.98
   8  -1  -6   45.10    6.72
  -8   1   6   31.55    7.88
   8  -1  -5  160.07   12.71
   8  -1  -5  154.38   12.04
  -8   1   5  132.49   23.33
  -8   1   4  401.25   30.75
  -8   1   3  410.97   30.18
  -8   1   3  415.01   29.45
   8  -1  -3  438.87   30.92
  -8   1   2   27.86    7.02
   8  -1  -2   40.64    8.76
  -8   1   1    3.04    2.20
   8  -1  -1    0.10    1.59
  -8   1   0   11.04    4.31
   8  -1   0    2.03    2.01
  -8   1  -1   69.54   12.27
   8  -1   1   82.01    7.75
  -8   0   9   70.40   14.87
  -8   0   8    3.33    1.40
   8   0  -8   17.93    5.30
  -8   0   7   -0.02    1.99
   8   0  -7    1.19    1.53
  -8   0   6   10.28    4.29
   8   0  -6    9.01    3.29
  -8   0   5  234.89   17.70
   8   0  -5  213.88   16.07
  -8   0   5  153.39   25.45
  -8   0   4  660.71  193.40
   8   0  -4  592.07   41.35
   8   0  -4  652.27   44.68
  -8   0   3  200.67   23.84
  -8   0   3  190.93   28.07
   8   0  -3  215.60   15.98
  -8   0   2   43.72    9.59
   8   0  -2   68.66    9.66
  -8   0   1   52.43    9.68
   8   0  -1   59.13    8.71
  -8   0   0  109.03   16.84
   8   0   0  117.95    9.55
  -8   0  -1   88.12   17.80
   8   0   1  107.50    8.63
  -8  -1   9  132.49   28.63
   8   1  -9  117.59    8.97
  -8  -1   8   57.14   11.81
   8   1  -8   56.64    5.76
  -8  -1   7   22.48    7.29
   8   1  -7   28.01    7.73
  -8  -1   6   90.49   15.88
   8   1  -6  107.75    8.84
  -8  -1   5  276.41   23.88
   8   1  -5  287.13   20.11
  -8  -1   4   59.76   12.88
   8   1  -4   72.16    7.23
  -8  -1   3   -0.17    1.24
   8   1  -3    1.97    2.07
   8   1  -3    0.73    1.47
  -8  -1   2    7.92    3.08
   8   1  -2   10.77    4.02
  -8  -1   1  160.43   28.28
   8   1  -1  146.44   10.98
  -8  -1   0  205.04   27.13
   8   1   0  240.34   15.44
  -8  -2   8   26.27    5.66
   8   2  -8   22.39    4.55
  -8  -2   7  186.00   21.62
   8   2  -7  171.82   12.61
  -8  -2   6  518.57   68.62
   8   2  -6  488.51   31.21
  -8  -2   5  290.93   24.93
   8   2  -5  319.71   21.37
  -8  -2   4   28.55    8.84
   8   2  -4   37.83    7.10
   8   2  -3    3.81    2.41
  -8  -2   1   58.21   13.76
  -8  -3   7   94.68   22.25
   8   3  -7  102.55    8.78
  -8  -3   6  145.77   23.56
   8   3  -6  158.94   12.00
  -8  -3   5   52.03   11.27
   8   3  -5   61.04    6.58
  -8  -3   4   23.59    5.93
   8   3  -4   28.19    5.74
   8   3  -3   90.76    8.17
   0   0   0    0.00    0.00
_computing_structure_solution     'SHELXT 2014/5 (Sheldrick, 2014)'
_computing_structure_solution     'SHELXT 2014/5 (Sheldrick, 2014)'
;
_shelx_hkl_checksum              3619
_shelx_res_file
;
TITL x678d_a.res in P-1
    x678d.res
    created by SHELXL-2017/1 at 18:24:22 on 21-Jul-2017
REM Old TITL x678d_a.res in P-1
REM SHELXT solution in P-1
REM R1 0.095, Rweak 0.007, Alpha 0.031, Orientation as input
REM Formula found by SHELXT: C5 N O2 Cl2 Mn
CELL 0.71073 6.8972 7.05 9.8527 101.042 109.559 94.196
ZERR 2 0.0066 0.0069 0.0097 0.009 0.015 0.008
LATT 1
SFAC C H N O Cl Mn
UNIT 10 14 2 4 4 2
EQIV $1 +X,-1+Y,+Z
EQIV $2 -X,1-Y,1-Z
DFIX 0.84 H2b O2 H2a O2
L.S. 10
PLAN  20
SIZE 0.13 0.175 0.286
TEMP -100
HTAB O2 Cl1_$1
HTAB O2 Cl1_$2
BOND $H
list 4
fmap 2
acta
OMIT -5 -1 11
OMIT -5 -2 8
OMIT 7 0 0
OMIT -5 -1 8
OMIT -7 -3 5
REM <olex2.extras>
REM <HklSrc "%.\\x678d.hkl">
REM </olex2.extras>
WGHT    0.000000    0.444000
FVAR       1.03634
MN1   6    0.244782    0.519439    0.495881    11.00000    0.02284    0.03285 =
         0.02593    0.00467    0.00858    0.00479
CL1   5    0.216082    0.817975    0.396682    11.00000    0.04781    0.03290 =
         0.04811    0.01564    0.01879    0.00728
O1    4    0.572675    0.609405    0.631060    11.00000    0.02298    0.04600 =
         0.02381   -0.00059    0.00622    0.00524
N1    3    0.642465    0.689405    0.776739    11.00000    0.02321    0.03712 =
         0.02329    0.00521    0.00778    0.00333
C1    1    0.694039    0.576096    0.873106    11.00000    0.07616    0.03883 =
         0.03241    0.01243    0.01517    0.01518
AFIX  43
H1    2    0.681698    0.438630    0.839387    11.00000   -1.20000
AFIX   0
CL2   5    0.102462    0.652684    0.693970    11.00000    0.03071    0.03773 =
         0.02670   -0.00155    0.01024    0.00162
O2    4    0.263392    0.254080    0.592725    11.00000    0.05533    0.03939 =
         0.04204    0.01147    0.01862    0.01165
H2A   2    0.146304    0.218203    0.593764    11.00000    0.08146
H2B   2    0.304713    0.162477    0.551002    11.00000    0.08692
C2    1    0.765459    0.660728    1.022202    11.00000    0.09385    0.07345 =
         0.02905    0.02039    0.01352    0.03058
AFIX  43
H2    2    0.803038    0.581108    1.091820    11.00000   -1.20000
AFIX   0
C3    1    0.782605    0.856453    1.070473    11.00000    0.05701    0.07087 =
         0.02504   -0.00082    0.00908    0.00738
AFIX  43
H3    2    0.830724    0.914540    1.173434    11.00000   -1.20000
AFIX   0
C4    1    0.729875    0.969238    0.969324    11.00000    0.06632    0.04273 =
         0.03903   -0.00637    0.01505   -0.00217
AFIX  43
H4    2    0.742987    1.107001    1.001761    11.00000   -1.20000
AFIX   0
C5    1    0.657663    0.883621    0.820256    11.00000    0.05359    0.03880 =
         0.03255    0.00739    0.01490    0.00263
AFIX  43
H5    2    0.619164    0.961235    0.749276    11.00000   -1.20000
AFIX   0
HKLF 4
REM  x678d_a.res in P-1
REM R1 =  0.0310 for    1770 Fo > 4sig(Fo)  and  0.0370 for all    2004 data
REM    108 parameters refined using      2 restraints
END
WGHT      0.0003      0.4461
REM Highest difference peak  0.402,  deepest hole -0.437,  1-sigma level  0.076
Q1    1   0.5457  0.4957  0.5077  11.00000  0.05    0.40
Q2    1   0.0520  0.5086  0.4990  11.00000  0.05    0.39
Q3    1   0.2297  0.6137  0.5604  11.00000  0.05    0.31
Q4    1   0.1190  0.7729  0.6615  11.00000  0.05    0.30
Q5    1   0.5227  0.2302  0.6041  11.00000  0.05    0.30
Q6    1  -0.0652  0.5943  0.6159  11.00000  0.05    0.28
Q7    1   0.1160  0.5554  0.6417  11.00000  0.05    0.28
Q8    1   0.6117  0.6578  0.7005  11.00000  0.05    0.27
Q9    1   0.0701  0.5658  0.7363  11.00000  0.05    0.27
Q10   1   0.5255  1.1383  0.8728  11.00000  0.05    0.27
Q11   1   0.0541  0.7014  0.2415  11.00000  0.05    0.27
Q12   1   0.2191  0.7152  0.2983  11.00000  0.05    0.26
Q13   1   0.6331  0.6286  0.8207  11.00000  0.05    0.25
Q14   1   0.5261  0.8916  0.6474  11.00000  0.05    0.25
Q15   1   0.4108  0.6339  0.6754  11.00000  0.05    0.23
Q16   1   0.4511  0.8776  0.4304  11.00000  0.05    0.23
Q17   1   0.6819  0.9523  0.7249  11.00000  0.05    0.23
Q18   1   0.7025  0.6376  0.8282  11.00000  0.05    0.23
Q19   1   0.8157  0.9184  1.0242  11.00000  0.05    0.22
Q20   1   0.5959  0.8097  0.8169  11.00000  0.05    0.22
;
_shelx_res_checksum              30985
loop_
_space_group_symop_operation_xyz
'x, y, z'
'-x, -y, -z'
loop_
_atom_site_type_symbol
_atom_site_label
_atom_site_fract_x
_atom_site_fract_y
_atom_site_fract_z
_atom_site_U_iso_or_equiv
_atom_site_adp_type
_atom_site_calc_flag
_atom_site_occupancy
Mn Mn1 0.24478(6) 0.51944(6) 0.49588(4) 0.02748(12) Uani d 1
Cl Cl1 0.21608(12) 0.81797(10) 0.39668(9) 0.04150(19) Uani d 1
O O1 0.5727(3) 0.6094(3) 0.63106(19) 0.0327(4) Uani d 1
N N1 0.6425(3) 0.6894(3) 0.7767(2) 0.0283(5) Uani d 1
C C1 0.6940(6) 0.5762(5) 0.8731(3) 0.0493(8) Uani d 1
H H1 0.681940 0.441595 0.840110 0.059 Uiso calc 1
Cl Cl2 0.10246(10) 0.65268(10) 0.69397(7) 0.03317(16) Uani d 1
O O2 0.2634(4) 0.2541(3) 0.5927(3) 0.0447(5) Uani d 1
H H2A 0.146(4) 0.218(6) 0.594(5) 0.081(16) Uiso d 1
H H2B 0.305(7) 0.162(5) 0.551(5) 0.087(16) Uiso d 1
C C2 0.7655(7) 0.6608(6) 1.0222(4) 0.0655(11) Uani d 1
H H2 0.802254 0.582800 1.090313 0.079 Uiso calc 1
C C3 0.7826(6) 0.8564(6) 1.0704(3) 0.0543(9) Uani d 1
H H3 0.829678 0.913307 1.171227 0.065 Uiso calc 1
C C4 0.7299(6) 0.9692(5) 0.9693(4) 0.0532(9) Uani d 1
H H4 0.742760 1.104037 1.001068 0.064 Uiso calc 1
C C5 0.6577(5) 0.8836(5) 0.8203(3) 0.0421(7) Uani d 1
H H5 0.619974 0.959566 0.750808 0.051 Uiso calc 1
loop_
_atom_site_aniso_label
_atom_site_aniso_U_11
_atom_site_aniso_U_22
_atom_site_aniso_U_33
_atom_site_aniso_U_12
_atom_site_aniso_U_13
_atom_site_aniso_U_23
Mn1 0.0228(2) 0.0328(2) 0.0259(2) 0.00479(16) 0.00858(16) 0.00467(16)
Cl1 0.0478(4) 0.0329(4) 0.0481(4) 0.0073(3) 0.0188(4) 0.0156(3)
O1 0.0230(9) 0.0460(12) 0.0238(9) 0.0052(8) 0.0062(8) -0.0006(8)
N1 0.0232(11) 0.0371(12) 0.0233(10) 0.0033(9) 0.0078(9) 0.0052(9)
C1 0.076(2) 0.0386(17) 0.0325(15) 0.0152(16) 0.0152(16) 0.0124(13)
Cl2 0.0307(3) 0.0377(4) 0.0267(3) 0.0016(3) 0.0102(3) -0.0016(3)
O2 0.0553(16) 0.0394(13) 0.0420(13) 0.0117(11) 0.0186(12) 0.0115(10)
C2 0.094(3) 0.073(3) 0.0290(16) 0.031(2) 0.0135(19) 0.0204(17)
C3 0.057(2) 0.071(3) 0.0249(15) 0.0074(18) 0.0091(15) -0.0009(15)
C4 0.067(2) 0.0425(19) 0.0391(17) -0.0022(17) 0.0151(17) -0.0064(15)
C5 0.054(2) 0.0388(17) 0.0325(15) 0.0027(14) 0.0149(14) 0.0075(13)
loop_
_atom_type_symbol
_atom_type_description
_atom_type_scat_dispersion_real
_atom_type_scat_dispersion_imag
_atom_type_scat_source
C C 0.0033 0.0016 'International Tables Vol C Tables 4.2.6.8 and 6.1.1.4'
H H 0.0000 0.0000 'International Tables Vol C Tables 4.2.6.8 and 6.1.1.4'
N N 0.0061 0.0033 'International Tables Vol C Tables 4.2.6.8 and 6.1.1.4'
O O 0.0106 0.0060 'International Tables Vol C Tables 4.2.6.8 and 6.1.1.4'
Cl Cl 0.1484 0.1585 'International Tables Vol C Tables 4.2.6.8 and 6.1.1.4'
Mn Mn 0.3368 0.7283 'International Tables Vol C Tables 4.2.6.8 and 6.1.1.4'
loop_
_geom_angle_atom_site_label_1
_geom_angle_atom_site_label_2
_geom_angle_atom_site_label_3
_geom_angle_site_symmetry_1
_geom_angle_site_symmetry_3
_geom_angle
Cl1 Mn1 Cl2 . . 93.43(6)
Cl1 Mn1 Cl2 . 2_566 92.57(6)
O1 Mn1 Cl1 2_666 . 95.12(8)
O1 Mn1 Cl1 . . 93.65(7)
O1 Mn1 O1 . 2_666 72.02(10)
O1 Mn1 Cl2 . 2_566 165.77(6)
O1 Mn1 Cl2 2_666 2_566 94.69(9)
O1 Mn1 Cl2 2_666 . 166.32(5)
O1 Mn1 Cl2 . . 96.81(8)
O1 Mn1 O2 . . 86.96(9)
O1 Mn1 O2 2_666 . 87.46(10)
Cl2 Mn1 Cl2 . 2_566 95.58(7)
O2 Mn1 Cl1 . . 177.42(7)
O2 Mn1 Cl2 . 2_566 87.40(8)
O2 Mn1 Cl2 . . 84.01(9)
Mn1 O1 Mn1 . 2_666 107.98(10)
N1 O1 Mn1 . . 123.78(14)
N1 O1 Mn1 . 2_666 126.50(16)
C1 N1 O1 . . 119.9(2)
C1 N1 C5 . . 122.0(3)
C5 N1 O1 . . 118.0(2)
N1 C1 H1 . . 120.4
N1 C1 C2 . . 119.1(3)
C2 C1 H1 . . 120.4
Mn1 Cl2 Mn1 . 2_566 84.42(7)
Mn1 O2 H2A . . 108(3)
Mn1 O2 H2B . . 116(3)
H2A O2 H2B . . 110(4)
C1 C2 H2 . . 119.7
C3 C2 C1 . . 120.5(3)
C3 C2 H2 . . 119.7
C2 C3 H3 . . 120.4
C2 C3 C4 . . 119.1(3)
C4 C3 H3 . . 120.4
C3 C4 H4 . . 120.0
C3 C4 C5 . . 120.1(3)
C5 C4 H4 . . 120.0
N1 C5 C4 . . 119.1(3)
N1 C5 H5 . . 120.5
C4 C5 H5 . . 120.5
loop_
_geom_bond_atom_site_label_1
_geom_bond_atom_site_label_2
_geom_bond_site_symmetry_2
_geom_bond_distance
Mn1 Cl1 . 2.479(2)
Mn1 O1 . 2.177(3)
Mn1 O1 2_666 2.182(2)
Mn1 Cl2 2_566 2.5324(19)
Mn1 Cl2 . 2.5240(19)
Mn1 O2 . 2.250(3)
O1 N1 . 1.341(3)
N1 C1 . 1.331(4)
N1 C5 . 1.339(4)
C1 H1 . 0.9300
C1 C2 . 1.376(5)
O2 H2A . 0.833(19)
O2 H2B . 0.819(19)
C2 H2 . 0.9300
C2 C3 . 1.353(5)
C3 H3 . 0.9300
C3 C4 . 1.364(5)
C4 H4 . 0.9300
C4 C5 . 1.377(4)
C5 H5 . 0.9300
loop_
_geom_hbond_atom_site_label_D
_geom_hbond_atom_site_label_H
_geom_hbond_atom_site_label_A
_geom_hbond_site_symmetry_A
_geom_hbond_distance_DH
_geom_hbond_distance_HA
_geom_hbond_distance_DA
_geom_hbond_angle_DHA
_geom_hbond_publ_flag
O2 H2A Cl1 2_566 0.833(19) 2.53(2) 3.348(4) 168(4) yes
O2 H2B Cl1 1_545 0.819(19) 2.52(3) 3.232(4) 147(4) yes
