#------------------------------------------------------------------------------
#$Date: 2019-12-26 21:22:11 +0200 (Thu, 26 Dec 2019) $
#$Revision: 246100 $
#$URL: file:///home/coder/svn-repositories/cod/cif/2/31/17/2311748.cif $
#------------------------------------------------------------------------------
#
# This file is available in the Crystallography Open Database (COD),
# http://www.crystallography.net/. The original data for this entry
# were provided by IUCr Journals, http://journals.iucr.org/.
#
# The file may be used within the scientific community so long as
# proper attribution is given to the journal article from which the
# data were obtained.
#
data_2311748
loop_
_publ_author_name
'Ende, Martin'
'Effenberger, Herta'
'Miletich, Ronald'
_publ_section_title
;
 Evolution of the \a-BaMg(CO<sub>3</sub>)<sub>2</sub> low-temperature
 superstructure and the tricritical nature of its \a-\b phase transition.
;
_journal_issue                   'Pt 5'
_journal_name_full
'Acta crystallographica Section B, Structural science, crystal engineering and materials'
_journal_page_first              827
_journal_page_last               835
_journal_paper_doi               10.1107/S2052520617009295
_journal_volume                  73
_journal_year                    2017
_chemical_formula_sum            'C6 Ba3 Mg3 O18'
_chemical_formula_weight         845.01
_space_group_crystal_system      trigonal
_space_group_IT_number           167
_space_group_name_Hall           '-R 3 2"c'
_space_group_name_H-M_alt        'R -3 c :H'
_audit_creation_method           SHELXL-2014/7
_cell_angle_alpha                90
_cell_angle_beta                 90
_cell_angle_gamma                120
_cell_formula_units_Z            2
_cell_length_a                   5.01800(10)
_cell_length_b                   5.01800(10)
_cell_length_c                   33.5012(8)
_cell_measurement_reflns_used    9499
_cell_measurement_temperature    320(2)
_cell_measurement_theta_max      45
_cell_measurement_theta_min      1.5
_cell_volume                     730.55(3)
_computing_structure_refinement  'SHELXL-2014/7 (Sheldrick, 2014)'
_diffrn_ambient_temperature      320(2)
_diffrn_measured_fraction_theta_full 0.993
_diffrn_measured_fraction_theta_max 0.994
_diffrn_measurement_device_type  StoeStadiVari
_diffrn_radiation_type           MoK\a
_diffrn_radiation_wavelength     0.71073
_diffrn_reflns_av_R_equivalents  0.0297
_diffrn_reflns_av_unetI/netI     0.0126
_diffrn_reflns_Laue_measured_fraction_full 0.993
_diffrn_reflns_Laue_measured_fraction_max 0.994
_diffrn_reflns_limit_h_max       9
_diffrn_reflns_limit_h_min       -10
_diffrn_reflns_limit_k_max       10
_diffrn_reflns_limit_k_min       -9
_diffrn_reflns_limit_l_max       66
_diffrn_reflns_limit_l_min       -36
_diffrn_reflns_number            9499
_diffrn_reflns_point_group_measured_fraction_full 0.993
_diffrn_reflns_point_group_measured_fraction_max 0.994
_diffrn_reflns_theta_full        25.242
_diffrn_reflns_theta_max         45.631
_diffrn_reflns_theta_min         3.649
_exptl_absorpt_coefficient_mu    8.240
_exptl_absorpt_correction_T_max  0.8
_exptl_absorpt_correction_T_min  0.7
_exptl_absorpt_correction_type   numerical
_exptl_absorpt_process_details   '(Stoe & Cie GmbH 2016)'
_exptl_crystal_density_diffrn    3.841
_exptl_crystal_description       prismatic
_exptl_crystal_F_000             768
_exptl_crystal_size_max          0.060
_exptl_crystal_size_mid          0.030
_exptl_crystal_size_min          0.030
_refine_diff_density_max         0.511
_refine_diff_density_min         -0.423
_refine_diff_density_rms         0.108
_refine_ls_extinction_method     none
_refine_ls_goodness_of_fit_ref   0.968
_refine_ls_hydrogen_treatment    undef
_refine_ls_matrix_type           full
_refine_ls_number_parameters     17
_refine_ls_number_reflns         701
_refine_ls_number_restraints     0
_refine_ls_restrained_S_all      0.968
_refine_ls_R_factor_all          0.0231
_refine_ls_R_factor_gt           0.0099
_refine_ls_shift/su_max          0.000
_refine_ls_shift/su_mean         0.000
_refine_ls_structure_factor_coef Fsqd
_refine_ls_weighting_details
'w=1/[\s^2^(Fo^2^)+(0.0134P)^2^] where P=(Fo^2^+2Fc^2^)/3'
_refine_ls_weighting_scheme      calc
_refine_ls_wR_factor_gt          0.0208
_refine_ls_wR_factor_ref         0.0227
_reflns_Friedel_coverage         0.000
_reflns_number_gt                484
_reflns_number_total             701
_reflns_threshold_expression     'I > 2\s(I)'
_cod_data_source_file            xk5041sup1.cif
_cod_data_source_block           norse_320
_cod_original_sg_symbol_H-M      'R -3 c'
_cod_database_code               2311748
_shelx_shelxl_version_number     2014/7
_shelx_space_group_comment
;
The symmetry employed for this shelxl refinement is uniquely defined
by the following loop, which should always be used as a source of
symmetry information in preference to the above space-group names.
They are only intended as comments.
;
_shelx_estimated_absorpt_t_min   0.638
_shelx_estimated_absorpt_t_max   0.790
_shelx_res_file
;

    norse_320.res created by SHELXL-2014/7


TITL norse_100K_woo_a.res in R-3c
REM Old TITL norse_100k_woo in R-3c

REM SHELXT solution in R-3c
REM R1 0.027,  Rweak 0.000,  Alpha 0.038,  Orientation as input
REM Formula found by SHELXT:  C2 O6 Mg Ba

CELL  0.71073   5.0180   5.0180  33.5012   90.000   90.000  120.000
ZERR    2.000   0.0001   0.0001   0.0008    0.000    0.000    0.000
LATT  3
SYMM -Y, X-Y, Z
SYMM -X+Y, -X, Z
SYMM Y, X, 1/2-Z
SYMM X-Y, -Y, 1/2-Z
SYMM -X, -X+Y, 1/2-Z
SFAC C O MG BA
UNIT 12 36 6 6
L.S. 20
TEMP 46.85
SIZE 0.06 0.03 0.03
BOND $H
ACTA
LIST 4
FMAP 2
PLAN 20
REM EXTI    0.000000
WGHT    0.013400
FVAR       0.22205
BA1   4    0.000000    0.000000    0.250000    10.16667    0.00978    0.00978 =
         0.01400    0.00000    0.00000    0.00489
MG2   3    0.000000    0.000000    0.000000    10.16667    0.00767    0.00767 =
         0.01146    0.00000    0.00000    0.00383
O3    2    0.121890    0.829516    0.129149    11.00000    0.02843    0.02408 =
         0.02271   -0.00527   -0.00877    0.02206
C4    1    0.000000    0.000000    0.130377    10.33333    0.00917    0.00917 =
         0.01011    0.00000    0.00000    0.00459
HKLF 4

REM  norse_100K_woo_a.res in R-3c
REM R1 =  0.0099 for     484 Fo > 4sig(Fo)  and  0.0231 for all     701 data
REM     17 parameters refined using      0 restraints

END

WGHT      0.0133      0.0000

REM Highest difference peak  0.511,  deepest hole -0.423,  1-sigma level  0.108
Q1    1  -0.1437 -0.0853  0.1319  11.00000  0.05    0.51
Q2    1   0.1621  0.8954  0.1403  11.00000  0.05    0.47
Q3    1   0.0831 -0.2036  0.2713  11.00000  0.05    0.32
Q4    1  -0.0579  0.6696  0.1322  11.00000  0.05    0.29
Q5    1   0.0206  0.5865  0.1352  11.00000  0.05    0.29
Q6    1   0.0693  0.6901  0.1527  11.00000  0.05    0.29
Q7    1  -0.1755  0.5129  0.1353  11.00000  0.05    0.28
Q8    1   0.0200  0.7019  0.1148  11.00000  0.05    0.23
Q9    1  -0.1102  0.7478  0.1057  11.00000  0.05    0.23
Q10   1  -0.1715  0.4334  0.1459  11.00000  0.05    0.22
Q11   1   0.3314  1.0005  0.1176  11.00000  0.05    0.22
Q12   1   0.2841  0.9119  0.1320  11.00000  0.05    0.21
Q13   1   0.1700  0.8093  0.1549  11.00000  0.05    0.21
Q14   1  -0.2237 -0.3175  0.0123  11.00000  0.05    0.21
Q15   1   0.0591  0.5777  0.1127  11.00000  0.05    0.20
Q16   1   0.1358  0.1732  0.2832  11.00000  0.05    0.19
Q17   1   0.4069  1.1427  0.1388  11.00000  0.05    0.19
Q18   1   0.1434  0.0933  0.1839  11.00000  0.05    0.19
Q19   1   0.4943  1.0894  0.1312  11.00000  0.05    0.18
Q20   1   0.0000  0.0000  0.1757  10.33333  0.05    0.17
;
_shelx_res_checksum              26177
_shelx_hkl_file
;
   0   0  -6 1070.48   45.14   0
   0   5   7    5.80    5.97   0
   2   0  32  647.08   16.34   0
   0   4  14  344.86    9.88   0
   0   5 -11    0.18    5.57   0
   0   2  16 3058.17   27.99   0
   0   4 -19    2.44    5.51   0
   0   5  -5   -2.75    5.80   0
   0   5  -2  337.07    9.86   0
   2   2  33    4.14    5.06   0
   0   3  15   -2.13    5.26   0
   0   4  11   -5.47    5.89   0
   1   2  26  530.16   12.19   0
   1   4  21    0.75    5.79   0
   0   1  11   -0.68    5.58   0
   0   4   8 1617.42   18.08   0
   0   0  -9    0.39    7.27   0
   0   4 -16 1551.53   21.14   0
   1  -2   0 3839.08   36.84   0
   0   2  13    5.00    4.73   0
   0   3 -21   -0.74    6.47   0
   0   3  12 2122.05   21.19   0
   1   1  24 1880.50   23.17   0
   2  -1  27   -0.48    6.65   0
   0   4   5    0.87    5.45   0
   1   4  18  775.87   12.32   0
   2   1  31    0.40    5.62   0
   1   3  22  373.84    9.55   0
   0   4 -13   -0.92    5.36   0
   0   4   2 1430.56   17.37   0
   1  -2   3   21.90    6.01   0
   3   1  35    3.51    5.65   0
   0   3   9   -0.89    4.86   0
   0   4 -10  423.36   11.25   0
   1   4  15    2.74    5.69   0
   1   5 -13    4.89    5.35   0
   0   4  -7   -0.04    4.89   0
   0   4  -4 1597.89   18.64   0
   2   0  29    0.61    5.84   0
   2   3  26  613.69   11.90   0
   0   2  10  200.37    8.73   0
   1   5 -10  461.78   10.61   0
   1   5  -7    0.00    5.44   0
   1   5  -4  755.75   12.75   0
   1   5  -1   10.57    5.08   0
   0   0 -12  260.71   16.30   0
   0   1   8 9999.99   65.15   0
   0   3 -18 1359.32   23.45   0
   1   3  19   13.28    5.17   0
   0   3   6 2054.44   21.40   0
   1   4  12 1185.57   15.29   0
   1   1  21   15.68    5.48   0
   2   2  27    4.43    5.64   0
   0   3   3    0.86    5.75   0
   0   2   7   -2.45    5.16   0
   1   4   9   13.42    5.89   0
   2   1  28 1351.08   18.68   0
   3   0  33   -2.34    5.78   0
   0   3 -15    2.04    5.56   0
   1   0  19    0.78    6.07   0
   1   3  16 2125.89   20.06   0
   0   3   0 2747.09   25.72   0
   3   1  32  857.79   14.68   0
   1   4   6  384.15    9.66   0
  -3  -2  20  612.02   11.82   0
  -2   3  31    2.43    5.69   0
  -2  -2  15    2.38    5.39   0
  -2   2  32  629.63   12.16   0
   0   1  -7    1.84    6.04   0
  -3  -1  28  721.39   12.03   0
  -3   0  33   -5.25    5.46   0
  -3   4  35    3.53    5.37   0
  -2   4  27    1.96    6.14   0
  -3   2  37    0.51    4.68   0
  -4  -2  19    0.00    4.54   0
  -2  -1  23    2.37    5.28   0
  -2   0  28 1181.07   15.35   0
  -3  -2  17    6.77    5.29   0
  -3   1  35   -0.56    4.61   0
  -3   3  36  809.31   13.27   0
  -2   1  30  632.32   11.85   0
  -1  -1  15   -0.19    4.66   0
  -2  -2  12  800.97   14.56   0
  -1   0  20 1550.42   18.98   0
   0   0  -6 1712.05   36.25   0
   0   1 -10 3662.90   34.77   0
  -4  -2  16  719.61   12.70   0
  -1   2  21   15.62    5.26   0
  -3   0  30  572.30   10.48   0
  -2   2  29    2.92    5.34   0
   0   0  -9   -0.14    6.53   0
  -3  -2  14  402.64   10.41   0
  -2  -1  20 1509.62   17.55   0
  -2  -2   9   -0.24    5.15   0
  -2   0  25    5.24    4.85   0
  -1  -1  12 4186.59   34.22   0
  -3   1  32 1272.83   15.52   0
  -1   4   7   18.70    6.20   0
   1  -1 -16 5309.69   49.57   0
   1   3 -11   15.30    6.09   0
   1   4 -21    4.45    5.34   0
  -3   6  12  749.05   13.10   0
   0   4  -1    3.10    5.78   0
   0   5  -8  961.17   13.77   0
  -4   5  18  378.16   11.17   0
  -2   5  11    3.38    5.87   0
   1   4 -18  394.45   11.05   0
  -4   4  19   -0.84    5.60   0
  -3   4  17   -0.02    6.13   0
  -2   6   7   -3.46    5.02   0
   0   2   4 4777.64   38.01   0
   0   3   3   -0.16    6.07   0
   1   1  -6 1970.09   31.63   0
  -3   5  16 1855.90   20.32   0
   1   3  -8 2830.04   25.85   0
  -4   6  17   -3.49    5.89   0
  -3   2  16 1988.01   36.44   0
  -2   2  14  346.98   13.04   0
  -1   5   6  390.03    9.88   0
   1   4 -15   14.51    4.94   0
   1  -1 -19   -1.96    4.95   0
  -2   0   7   -0.94    6.07   0
  -1   3  11   13.09    5.31   0
   0   4   2 1445.21   17.31   0
  -1   4  10 1162.49   15.75   0
   1   4 -12  946.49   14.87   0
  -3   6  15   -0.71    5.23   0
  -2   6  10  344.87    9.06   0
   0   5  -2  349.67    9.43   0
   1   2  -4 3045.68   29.51   0
  -2   3  16 2061.95   24.36   0
   0  -1  -8 9982.66   61.92   0
   0   3   6 2076.08   21.97   0
   1   4  -9   -3.23    5.58   0
  -1   5   9   14.96    5.23   0
  -4   5  21    9.03    5.63   0
  -4   6  20  608.12   12.70   0
  -3   5  19    6.55    5.09   0
   0   4   5   -1.60    4.97   0
   0   5   1   -2.66    4.84   0
   1   5 -19   -1.45    5.45   0
  -2   6  13   -1.42    5.88   0
  -3   4  20  892.08   15.84   0
   0   2   7   -1.44    5.12   0
   1   4  -6  895.82   14.11   0
   1   5 -16  623.90   12.17   0
  -3   6  18  413.12   10.06   0
  -1   4  13    4.58    5.17   0
   1   3  -2  880.84   14.49   0
   0   1   5    0.26    6.72   0
   1   1  -3   29.38    6.44   0
   1   2  -1   32.58    5.61   0
   1   5 -13    3.90    5.72   0
  -2   4  18 1105.94   16.43   0
  -2   5  17    6.07    4.88   0
  -1   3  14 1662.28   20.22   0
  -1   5  12 1187.09   15.34   0
   0   5   4 1188.17   14.84   0
   0  -1 -11    2.56    4.21   0
   0   3   9    5.46    5.85   0
   1   5 -10  481.97   10.89   0
  -1   1  10 3934.24   52.57   0
   1   3   1   19.60    5.37   0
   1   5  -7   -2.74    5.70   0
  -4   6  23   -1.61    5.63   0
  -3   5  22  297.81    9.72   0
  -3   6  21    5.50    6.02   0
   0   5   7   -1.53    4.83   0
   2   3 -19    5.31    5.79   0
  -2   3  19    2.91    5.37   0
  -1   4  16 2054.47   20.26   0
  -1   5  15   -0.57    5.41   0
   1   2   2  701.38   14.58   0
   2   2 -15    2.63    5.35   0
  -2   5  20  618.67   12.16   0
   1   5  -4  740.44   12.51   0
   2   3 -16 1851.94   22.24   0
  -3   3  21    2.16    5.51   0
   0   2  10  198.36    9.49   0
   0   4  11   -2.25    5.54   0
  -2   2  17    1.84    5.41   0
   2   1 -23    2.48    8.92   0
  -3   4  23    8.99    6.04   0
  -2   4  21    0.73    5.65   0
   0   3  12 2137.33   21.75   0
   1   3   4 1391.08   17.60   0
   2   1 -20 1530.58   36.27   0
   2   2 -12  825.27   16.61   0
   2   3 -13   -4.01    5.77   0
   0   5  10  704.04   11.76   0
   1   4   3   -0.24    5.70   0
   1   5  -1    6.34    5.58   0
   1   1   0 4075.70   40.62   0
  -4   1  10 1095.92   23.33   0
   2   3 -10  768.44   14.12   0
  -1   5  18  740.09   12.49   0
   2   1 -17    8.35    7.54   0
   2   2  -9    2.11    5.09   0
   2   4 -14  270.05    9.20   0
  -3   5  25   -0.55    5.62   0
   0   4  14  340.76    9.47   0
   1   2   5    5.36    4.87   0
  -2   5  23    9.20    5.77   0
   0   5  13    2.01    5.70   0
   1   4   6  375.46    9.23   0
   2   3  -7    9.49    5.69   0
   2   4 -11    3.57    5.23   0
   1   3   7    5.43    5.22   0
   0   1   8 9735.87   65.14   0
   2   1 -14 1726.53   31.29   0
   0   3  15    1.64    5.94   0
   2   2  -6  871.76   15.90   0
   2   4  -8  867.57   14.05   0
   0   2  13   -1.43    5.91   0
   2   3  -4  736.56   13.47   0
  -2   3  22  481.10   12.49   0
  -2   4  24 1909.57   21.05   0
   1   4   9   16.85    4.95   0
   2   4  -5   -3.09    5.45   0
   0   4  17   -0.20    5.29   0
  -3   4  26  640.52   13.99   0
   1   1   3   25.27    6.37   0
   1   2   8 3458.11   28.68   0
   1   3  10 1141.25   15.33   0
   2   1 -11   13.25    5.87   0
   2   2  -3   -0.82    4.43   0
   2   3  -1   -3.07    5.59   0
  -3   2  19    0.44    6.82   0
  -2   5  26  632.11   12.26   0
   2   4  -2  586.42   11.71   0
  -3   5  28  388.67   10.73   0
   1   4  12 1174.46   14.87   0
  -3   3  24 1099.89   20.64   0
   2   1  -8 3543.47   38.13   0
  -1   5  24  654.94   12.00   0
   2   4   1    4.31    4.79   0
   0   4  20 1318.55   15.98   0
   1   0 -26 1054.03   21.59   0
   1   3  13    5.93    5.03   0
  -2   2  20 3532.17   38.28   0
  -2   4  27   -0.65    5.55   0
   0   2  16 3050.44   27.38   0
   1   2  11   11.71    6.14   0
  -3   1  11   13.74    7.50   0
  -1   0   2 1987.75   43.49   0
  -1   3  23    3.28    5.48   0
  -1   4  25   -3.12    5.58   0
   2   4   4  874.70   13.25   0
   1   4  15    2.55    4.83   0
  -2   3  25    6.90    5.39   0
  -2   5  29    0.18    5.51   0
   0   1  11   -3.10    5.55   0
   1   1   6 1982.39   25.57   0
   2   1  -5    6.32    5.47   0
   2   2   3   -4.00    6.11   0
   1   0 -23    0.17    5.60   0
  -3   4  29    1.84    5.74   0
   0   3  21   -1.15    4.78   0
   1   3  16 2153.53   19.98   0
   0   4  23   -3.58    4.77   0
   2   3   8 2222.39   20.33   0
   1   4  18  745.91   12.19   0
   1   2  14 1650.39   18.94   0
   2   2   6  829.87   14.16   0
  -1   2  21   12.87    5.34   0
   1   0 -20 1632.39   31.41   0
   2   4  10  343.76    9.30   0
  -1   4  28  741.52   12.91   0
   0   2  19   -0.88    5.51   0
   3   3 -12  746.48   14.08   0
  -2   4  30  200.28    8.45   0
   3   3  -9    4.35    5.23   0
  -1   3  26  545.25   12.21   0
   1   1   9   41.51    7.05   0
   1   3  19   17.65    5.72   0
   2   3  11    4.94    4.85   0
   3   3  -6  475.99   11.08   0
   1   4  21    6.53    4.81   0
   2   1   1   38.42    6.36   0
   2   2   9    3.71    5.70   0
   3   2 -14  380.42   12.17   0
   3   2 -11    5.07    5.83   0
   3   3  -3    4.78    4.68   0
  -3   3  27   -0.32    5.04   0
   1   0 -17    0.03    6.12   0
   3   2  -8 2253.12   24.11   0
  -2   3  28 1329.66   19.26   0
   0   1  14 1685.78   24.49   0
   1   2  17   10.22    5.05   0
   2   3  14  398.81    9.59   0
   3   3   0 1093.07   15.07   0
   3   2  -5   12.48    5.82   0
  -2   2  23    2.22    5.34   0
  -1   0  -1    0.46    6.04   0
  -1   4  31    6.70    5.51   0
   1   3  22  359.74    8.96   0
   2   1   4 3147.56   28.86   0
   2   2  12  803.38   13.31   0
   3   3   3    2.27    5.42   0
   3   2  -2  845.56   14.02   0
   0   4  29    0.64    4.60   0
   1   1  12 4031.34   32.50   0
  -2   4  33   -1.46    5.14   0
  -1   3  29    2.74    5.55   0
   1   0 -14 1667.00   43.28   0
   2   3  17    7.17    4.81   0
  -1   2  24 1825.29   22.54   0
   3   2   1    0.53    4.63   0
   1   0  -5    0.50    9.40   0
   1   2  20 1484.17   17.27   0
   2   1   7    0.60    5.44   0
  -1   0  -4 2611.00   35.52   0
   1   3  25    6.21    5.02   0
   2   2  15   -6.47    4.73   0
   3   2   4  705.54   12.71   0
   3   3   9    3.76    5.30   0
  -2   1   6 1959.98   26.96   0
  -5   1  21   -4.81    5.65   0
  -3   1 -13   21.65   10.09   0
  -2  -1  38  337.65   10.40   0
  -2   0 -23    1.17    6.22   0
   0   0   6 1666.22   44.30   0
  -4   1  22  355.21    9.56   0
  -2   1  -3   28.89    8.81   0
  -2   1   9   44.14    6.61   0
   0  -2  38  252.70   10.24   0
  -3   1  20 1534.83   18.72   0
  -2   1  12 4019.65   34.15   0
  -1  -1  36  934.49   15.99   0
   1  -1 -10 3730.51   35.70   0
  -4   1  25    3.41    5.77   0
   0   0   9   -0.50    8.46   0
  -3   1  23   -1.48    5.37   0
   1  -2  33    5.01    5.69   0
  -4   1 -17    1.22    8.20   0
  -2   1  15   -2.07    5.22   0
  -1   0 -16 5013.96   55.18   0
   0  -1  31   -2.37    5.73   0
  -3   0  36  519.09   11.07   0
  -4   1  28  719.98   12.42   0
  -2   0  34  295.74    9.87   0
   0   0  12  261.41   14.32   0
  -3   1  26  546.35   11.46   0
  -2   1  18 1185.28   17.66   0
  -5   2   5   11.09    6.01   0
  -5   2   8 2264.48   22.41   0
  -1  -1  39   -1.26    5.94   0
   1  -1  -7    0.25    6.41   0
  -6   2   7   -1.59    5.77   0
  -5   2   2  852.04   15.26   0
  -5   2  11    3.60    5.04   0
  -4   1  31    1.19    6.12   0
  -1   0  29    2.55    5.93   0
  -6   2   4  909.06   14.86   0
  -6   2  10  354.06   10.13   0
  -6   2   1    0.16    5.48   0
  -6   2  13   -3.49    5.20   0
  -5   2  -1    4.44    6.18   0
  -3   1  29    4.31    6.16   0
  -2   1  21   15.25    5.88   0
   0   0  15    0.70    6.51   0
  -5   2  17   -1.95    5.78   0
  -4   2   9    9.58    6.09   0
   0  -1  34  972.29   17.25   0
  -6   2  -2  594.10   13.41   0
  -4   2   3    4.68    5.72   0
  -4   2  12  821.31   14.47   0
  -2   0  37   -5.30    6.15   0
   3  -3  15    0.44    5.96   0
  -5   2  20  623.61   11.97   0
  -5   2  -4  726.28   15.48   0
  -4   2  15   -6.28    5.12   0
  -2   1  24 1926.83   21.41   0
  -4   2   0 4318.82   35.42   0
  -3   1  32 1227.34   16.31   0
  -1  -1  42  319.23   10.27   0
  -1   0  32 1776.48   21.13   0
  -5   2  23    7.60    5.07   0
  -4   2  18 1114.19   15.39   0
   1  -1  23   -0.55    6.32   0
  -4   2  21   -1.24    5.99   0
   1  -1  -4 2448.87   34.88   0
  -2   0  40  842.46   14.37   0
  -2   1  27    0.01    5.31   0
  -5   2  -7   11.66    5.66   0
  -4   2  -3    2.75    5.50   0
   0  -1  37   -6.22    5.99   0
  -4   2  24 1963.25   19.31   0
  -1   0  35   -3.03    5.99   0
  -2   0 -20 3420.90   45.23   0
  -4   2  27    5.68    5.99   0
  -3   2  10 2054.38   22.75   0
  -3   2  13   19.52    5.62   0
  -3   2   7   -0.40    4.74   0
  -3   2  16 2175.94   22.10   0
  -2   0  43    1.06    5.20   0
  -4   2  -6  841.41   18.83   0
  -3   2   4 3057.75   30.19   0
  -3   2  19    3.25    5.36   0
   0   0  24 4775.18   39.80   0
   1  -1  26 1174.76   24.11   0
  -4   2  30  214.90    7.84   0
  -5   2 -10  715.20   18.10   0
  -3   2  22  479.06   11.04   0
  -2   1  33    1.56    5.18   0
  -1   0  38  259.46    9.61   0
  -1   1  13   -0.41    6.79   0
  -1   1  10 3822.60   38.57   0
  -1   1  16 5405.31   40.95   0
  -4   2  33   -1.12    5.81   0
   1  -1  -1    0.26    7.63   0
  -6   3  12  750.71   13.03   0
  -6   3  15    2.61    5.41   0
  -3   2  25    1.38    5.20   0
  -1   1  19    1.02    5.86   0
  -6   3   9    0.90    5.10   0
  -1   1   7    0.61    6.59   0
   0   0  27   -3.22    5.27   0
  -6   3   6  473.99   11.29   0
  -2   1  36  906.33   14.14   0
  -3   2  28 1369.42   16.63   0
  -1   1  22  476.53   11.92   0
  -5   3  10  741.26   13.40   0
  -5   3  19   13.67    5.66   0
  -1   0  41   -2.51    5.69   0
   1  -1  29   -0.53    5.93   0
  -6   3   3    4.26    5.48   0
  -5   3  22  304.78    9.33   0
  -5   3   7    9.89    5.21   0
  -3   2  31    9.55    4.96   0
  -5   3  25    4.75    5.66   0
  -2   1  -9   38.12   12.91   0
  -2   1  39   -0.18    5.46   0
   0   0  30  166.84    8.91   0
  -6   3   0 1088.11   17.11   0
  -5   3   4  752.84   14.13   0
  -4   2  -9   -0.14    6.60   0
  -1   1   4 2379.02   36.21   0
   2  -2   7   -0.12    5.59   0
  -1   1  28 1371.19   18.48   0
  -1   0  44  456.17   11.52   0
  -5   3   1    1.39    5.56   0
  -4   3  14  703.45   12.89   0
  -4   3  17    4.96    5.84   0
  -4   3  11   23.36    6.17   0
  -4   3  20  951.64   14.00   0
  -2   1  42  336.09    9.93   0
  -2   2  17   -1.00    6.20   0
   0   0  33   -1.15    5.76   0
   1  -1  32 1733.33   26.78   0
  -6   3  -3    3.01    5.99   0
  -4   3  23   12.47    5.25   0
  -2   2  14  338.33   10.29   0
  -2   2  20 3630.92   28.43   0
  -1   1  31   -2.58    5.06   0
  -4   3  26  691.32   12.21   0
  -2   2  11    1.78    6.07   0
  -2   2  23   -0.77    6.02   0
  -4   3  29    2.35    5.68   0
  -2   2  26 1293.23   17.17   0
  -5   3  -2  849.03   16.21   0
  -1   1  34  976.03   15.71   0
   1  -1   2 1868.60   40.01   0
  -2   2   8 2176.24   25.30   0
   0  -1 -11   -1.13    4.31   0
   0   0  36  620.44   13.99   0
  -4   3  32  869.11   12.89   0
  -3   2  -5    7.95    5.83   0
  -1   1   1    0.64    7.02   0
   1  -1  35   -1.45    5.23   0
  -1   1  37   -3.92    5.71   0
  -6   4  14  278.55    9.21   0
  -4   3   2  893.68   15.83   0
  -2   2   5    2.37    5.18   0
  -6   4  11    1.94    5.58   0
  -2   0 -17   -0.49    6.19   0
   0   0  39   -4.24    5.63   0
  -7   4   7    3.57    5.58   0
  -2   2  35    1.89    5.64   0
   2  -2  13   -0.13    7.16   0
  -5   3  -5    5.82    6.18   0
  -3   3  18 1370.74   16.93   0
  -3   3  21    4.52    5.06   0
  -3   3  24 1141.72   15.47   0
  -6   4   8  849.78   13.54   0
  -3   3  15   -2.19    5.15   0
  -1   1  40  763.05   14.04   0
  -5   4  18  403.55    9.89   0
  -5   4  21    9.13    5.67   0
  -3   3  27   -5.04    4.90   0
  -3   3  12 2641.94   23.92   0
  -3   3  30  319.84    9.33   0
  -2   2  38  254.18    8.98   0
  -6   4   5    0.89    5.50   0
  -4   3  -1   22.81    5.82   0
  -5   4  12  927.44   13.81   0
  -4   2 -12  764.67   24.60   0
  -3   3   9    1.69    5.20   0
  -3   3  33   -2.32    4.82   0
  -2   2   2 5139.59   42.76   0
  -1   1  43   -1.44    5.45   0
  -5   4   9    0.94    5.66   0
  -2   2  41    0.90    5.81   0
  -6   4   2  611.87   12.74   0
   2  -2  16 2995.01   58.09   0
  -5   4   6  909.44   14.63   0
  -3   3   6  539.62   12.25   0
  -5   3  -8 2178.17   28.75   0
  -4   4  19    3.78    4.98   0
  -4   4  22  737.07   12.16   0
  -4   4  25    1.78    4.92   0
   0  -1  -8 9738.44   63.76   0
  -4   4  16 1528.95   17.43   0
  -4   4  28  635.87   11.27   0
  -3   2  -8 3263.29   43.88   0
  -6   4  -1   -1.51    5.80   0
  -4   3  -4 1370.06   21.30   0
  -1   2  21    6.55    6.10   0
  -5   4   3   20.95    5.89   0
  -4   4  13   -2.05    5.76   0
   0   1  23   -1.10    4.16   0
   0   1  26 1204.21   18.97   0
  -1   2  18 1225.38   17.82   0
  -1   2  30  624.10   12.78   0
  -6   5  -5    6.98    5.18   0
  -3   4  17    0.47    5.72   0
  -3   4  20  954.08   14.05   0
  -2   3  10 2087.61   21.93   0
  -1   2  12 4062.78   33.88   0
  -1   2  24 1846.76   21.54   0
  -3   4  14  722.04   12.61   0
  -3   4  23    4.57    5.59   0
  -2   3  28 1336.95   16.63   0
  -5   5   2  341.32    9.05   0
  -1   2  27   -0.41    5.41   0
  -4   4  -5   -5.03    5.43   0
  -3   4  11   21.43    5.33   0
  -2   3   7    4.31    4.47   0
  -2   3  31    2.17    5.55   0
  -5   4 -12 1116.71   18.16   0
  -1   2   9   39.80    6.15   0
   1  -2   3   29.50    5.99   0
  -3   4   8 2855.39   24.05   0
  -1   2  30  645.75   13.73   0
  -5   5  -1    3.01    5.48   0
  -4   5  18  404.25    9.44   0
  -4   5  21   10.44    5.89   0
  -3   4  32  864.15   13.21   0
  -2   3  34  628.85   12.52   0
  -4   5  15   16.37    5.08   0
  -2   3   4 3120.21   27.73   0
  -2   4  42  402.95   11.12   0
  -1   6  26  224.95    9.45   0
  -1   6  35    3.58    7.42   0
   0   6  48  133.00    8.63   0
  -1   5  12 1204.95   15.28   0
  -1   6  29    3.28    6.36   0
  -1   6  32  390.84   10.60   0
   0   6  15    2.62    6.01   0
   1   5   2  349.35   10.20   0
   2   6  11   -6.07    7.32   0
  -2   4  39   -1.34    6.12   0
  -1   4   7   18.55    5.08   0
  -1   5  48  139.68    8.85   0
   3   6  15   -5.45    7.44   0
  -2   2  23    1.20    4.50   0
  -1   3   5    6.96    5.32   0
   0   6  18  271.06    9.82   0
   1   6  13    0.07    6.02   0
   2   4  -5   -2.28    5.38   0
  -2   4  27    0.34    5.82   0
  -2   4  33   -2.17    5.98   0
  -1   5  15    0.17    6.38   0
   0   6  42  127.09    8.82   0
   1   4  -3   21.45    4.85   0
   2   6  14  100.64    8.45   0
   3   6  18  194.71    9.60   0
  -2   3  22  484.52   11.14   0
  -2   4  30  194.04    7.80   0
  -1   5  45    4.30    7.35   0
   0   6  21    4.21    7.01   0
  -2   2  26 1246.70   18.25   0
  -2   2  35    3.42    5.02   0
  -2   3  37    4.66    5.47   0
  -1   4  52  182.89    9.30   0
   0   6  39   -3.84    7.24   0
   2   5   3   -0.65    6.22   0
   3   5   4  258.39   10.32   0
   3   6  21    9.46    7.06   0
  -2   2  29   -2.64    4.68   0
  -2   3  25    9.35    5.47   0
  -1   5  18  765.64   13.01   0
   0   5  52  163.84    8.94   0
   0   6  24  609.59   12.15   0
   0   6  27   -7.37    7.47   0
   0   6  33    2.18    7.89   0
   0   6  36  157.46    9.45   0
   1   6  43    1.13    7.45   0
   2   6  17    0.24    7.08   0
  -2   3  28 1352.62   17.40   0
  -2   3  31    2.59    5.36   0
  -2   3  34  603.50   12.51   0
  -1   4  10 1168.00   15.12   0
  -1   5  42  238.23   10.07   0
   0   6  30  143.33    8.24   0
   1   5   5    7.12    5.31   0
   1   6  19    8.97    6.41   0
   3   6  24  162.35    8.60   0
   3   6  27   -9.43    7.68   0
  -1   5  21    4.08    6.61   0
   0   5  10  709.97   12.24   0
   1   6  22  147.93    9.45   0
   1   6  40  218.28    9.32   0
   2   6  20  190.46    8.75   0
  -1   4  49   -2.65    6.51   0
  -1   5  39    8.78    5.87   0
   1   6  37    4.37    7.50   0
   0   5  49   -6.53    7.75   0
   1   3  -5    5.87    4.83   0
   1   6  25   12.23    6.73   0
   1   6  28  163.71    9.31   0
   1   6  31    1.73    7.71   0
   1   6  34  165.50    9.92   0
   2   6  32  186.55    9.52   0
   2   6  35   -2.16    7.49   0
  -1   3   8 3440.42   26.48   0
  -1   4  13    7.26    5.74   0
  -1   5  27    4.95    5.81   0
  -1   5  30  186.00    8.59   0
   0   3   0 2662.73   24.35   0
   0   4  56   69.26    7.92   0
   2   5   6  441.72   11.20   0
   2   6  29    1.97    6.95   0
   3   5   7    3.58    6.56   0
   4   5  11   -1.99    6.31   0
  -1   4  46   77.53    7.61   0
   0   5  13    2.46    5.50   0
   1   4   0 1441.42   17.20   0
   1   5   8  811.39   13.10   0
   2   4  -2  593.56   12.33   0
   0   4   5   -0.01    4.57   0
   0   5  46   74.50    7.72   0
   2   3  -7    6.55    5.14   0
   1   5  50   85.35    8.00   0
   4   5  14   68.57    7.89   0
  -1   4  16 2173.87   20.20   0
  -1   4  43    6.69    6.66   0
   0   4  53   -2.07    7.08   0
   0   5  16  739.05   12.38   0
   2   5   9    4.02    6.58   0
   3   4  -1    7.95    5.63   0
   3   5  10  203.82    9.37   0
  -1   3  11   14.25    5.36   0
   0   5  19    3.45    6.34   0
   1   4  57    2.95    6.59   0
   4   5  17    8.19    6.73   0
  -1   3  47    1.63    6.57   0
  -1   4  19   10.03    6.07   0
  -1   4  40  457.95   11.33   0
   0   4   8 1523.21   16.99   0
   0   5  22  234.41    8.53   0
   0   5  37   -5.81    6.12   0
   1   4   3    1.85    5.41   0
   1   5  14  401.46   10.44   0
   2   5  12  421.77   11.05   0
   3   5  13    1.42    7.22   0
   4   5  20  122.81    8.38   0
  -1   4  22  390.35   10.06   0
  -1   4  37   -2.05    6.32   0
   0   4  50  164.88    9.31   0
   0   5  25   -4.14    6.79   0
   0   5  31   -9.03    7.23   0
   0   5  34  270.40    9.25   0
   1   5  44  150.81    8.70   0
   2   4   1   -1.58    5.62   0
   4   5  23   -0.66    7.45   0
  -1   4  25    2.88    6.06   0
  -1   4  34  539.89   11.55   0
   0   3   3   -0.51    5.17   0
   0   5  28  639.66   11.96   0
   1   4  54   47.33    8.82   0
   2   5  45    3.33    6.85   0
   3   5  16  437.01   11.67   0
   4   5  26  137.65    8.56   0
   4   5  29    3.87    7.63   0
  -1   3  44  309.90    9.93   0
   1   3  -2  862.97   14.39   0
   1   5  17   -0.17    5.87   0
   1   5  41    2.56    7.68   0
   2   5  15    4.36    6.55   0
  -1   3  14 1631.26   18.06   0
   0   3  54   75.12    7.84   0
   0   4  47   -3.57    7.22   0
   2   5  42   85.10    8.63   0
   3   4   2  237.06    9.04   0
   0   4  11    1.58    4.84   0
   1   5  20  495.93   11.00   0
   1   5  38  138.60    8.52   0
   3   5  19   -1.65    6.08   0
   3   5  37   -4.88    7.13   0
   1   5  23   -0.78    7.05   0
   1   5  35   -6.04    6.45   0
   2   5  39    4.15    7.97   0
   3   5  22  128.78    8.76   0
   3   5  34  124.28    9.01   0
  -1   3  41    1.34    5.90   0
   0   4  44  376.32   11.23   0
   1   3  58   93.63    7.72   0
   1   4  51    1.74    7.74   0
   1   5  26  242.10    8.92   0
   1   5  29    3.85    7.35   0
   1   5  32  391.51   10.62   0
   2   3  -4  704.92   13.34   0
   2   5  21   -0.20    6.80   0
   2   5  36  175.73    9.45   0
   3   5  31    2.50    7.22   0
   4   4   6  207.88    9.21   0
  -1   3  17    8.55    4.72   0
   2   4   4  893.77   13.74   0
   2   5  24  472.54   11.50   0
   2   5  33   -6.23    7.61   0
  -1   3  38  337.83    9.89   0
   0   3  51   -3.96    6.57   0
   0   4  14  336.86    9.00   0
   2   4  52  107.17    8.44   0
   2   5  27  -10.03    6.51   0
   2   5  30  174.24    8.51   0
   0   3   6 2057.50   20.67   0
   0   4  41   -0.55    6.79   0
   1   4  48  140.38    9.15   0
   3   4   5   10.36    5.55   0
  -1   3  20 1479.75   17.10   0
  -1   3  35   -1.83    5.80   0
   0   4  17   -1.02    6.04   0
   4   4   9   -1.67    6.40   0
   5   4  16  294.75   10.10   0
  -1   2  42  310.75   10.00   0
   1   3  55    0.94    7.10   0
  -1   3  29   10.22    5.57   0
  -1   3  32 1167.76   15.41   0
   1   3   1   22.76    5.27   0
   2   4   7   -4.00    5.89   0
   3   3  -3    3.93    5.69   0
   5   4  19   -3.44    6.77   0
   0   3  48  342.92   10.50   0
   0   4  20 1317.06   15.74   0
   3   4   8  556.85   12.06   0
   5   4  22   82.42    7.92   0
   0   4  23    0.38    5.41   0
   0   4  26  765.11   13.16   0
   0   4  29    3.97    6.62   0
   0   4  32  478.86   10.73   0
   1   4  12 1146.74   15.28   0
   3   4  47   11.17    6.86   0
   4   4  12  266.43    9.69   0
   5   4  25   -3.56    6.88   0
   5   4  28   78.82    7.84   0
  -1   2  39   -2.59    5.20   0
   2   3  56   92.17    8.26   0
   2   4  46   97.07    8.93   0
   0   3   9   -0.42    4.47   0
   0   3  45    2.54    6.59   0
   1   3  52  210.25    9.56   0
   2   3  -1   -1.45    5.08   0
   2   4  10  367.60    9.97   0
   1   4  15    8.79    6.20   0
   1   4  39   -4.43    7.24   0
   3   4  11    3.15    6.21   0
   4   4  15    6.33    7.19   0
   4   4  39    1.85    7.55   0
  -1   2  36  899.49   14.85   0
   2   4  43   -8.35    6.94   0
   1   4  36  503.71   11.99   0
   2   2  60   99.71    8.22   0
   3   4  41    6.33    7.52   0
   4   4  18  205.04    9.91   0
   4   4  36  127.36    8.66   0
  -1   2  33    6.38    5.34   0
   0   2  49   -3.54    6.03   0
   0   3  42  243.26    9.56   0
   1   2  56  168.76    8.67   0
   1   4  18  743.11   12.54   0
   2   3  53    1.97    7.30   0
   2   4  40  265.66   10.56   0
   4   3   1    9.11    5.72   0
   4   4  21   -0.18    7.23   0
   4   4  33   -2.38    7.85   0
  -1   2  21   15.55    4.38   0
   0   3  12 2108.82   20.24   0
   1   3  49    2.33    7.36   0
   1   4  21   16.54    6.62   0
   1   4  33   -3.99    6.15   0
   3   3   0 1104.13   16.15   0
   3   4  38  135.69    9.35   0
   4   4  24  341.12   11.17   0
  -1   2  24 1821.66   20.37   0
  -1   2  27   -1.57    4.77   0
   1   4  27    3.69    6.91   0
   1   4  30  199.07    8.35   0
   2   4  16  778.59   13.40   0
   2   4  37   -4.74    7.89   0
   3   4  17   -1.01    6.63   0
   0   3  39    3.62    6.29   0
   2   4  34  180.22    9.50   0
   3   4  35   -1.84    6.93   0
   6   3  18   91.26    7.75   0
   2   3   2  849.10   13.98   0
   2   3  50  168.95    9.27   0
   2   4  19    2.50    5.89   0
   2   4  31    3.17    7.45   0
   3   4  29   -7.63    7.95   0
   3   4  32  294.09    9.84   0
   6   3  21   -4.00    7.26   0
   0   2  46  250.86    9.44   0
   0   3  15    4.22    4.64   0
   0   3  36  562.14   11.79   0
   1   3  46   81.57    7.11   0
   2   2  57   -1.77    7.48   0
   2   4  22  357.31    9.91   0
   2   4  25    2.71    6.81   0
   3   4  26  159.35    8.46   0
   5   3   8  459.12   11.79   0
   6   3  24  212.60    9.22   0
   6   3  27   -3.49    6.79   0
   1   2  53   -3.32    6.92   0
   1   3   7   14.95    5.42   0
   4   3   4  676.85   13.18   0
   0   3  18  569.12   11.09   0
   1   3  43    7.24    7.26   0
   3   3   3    2.00    5.62   0
   3   3  48  149.82    9.37   0
   4   3  46   50.71    8.44   0
   5   3  11   -2.93    6.82   0
  -1   1  31    0.81    4.58   0
   0   3  21   -0.57    5.01   0
   0   3  27   -1.20    5.94   0
   0   2  43    0.27    5.94   0
   2   3   5    9.15    5.54   0
   5   3  38   45.80    8.47   0
  -1   1  28 1306.16   19.17   0
   1   2  50  174.96    8.87   0
   1   3  10 1187.36   15.76   0
   2   2  54   34.69    7.84   0
   3   3  45   -0.05    7.78   0
   4   3   7    6.40    6.26   0
   4   3  43    2.02    7.62   0
   5   3  14  153.97    8.89   0
   3   2  55    6.07    7.33   0
   5   3  35   -2.31    7.05   0
   3   2  -5   10.54    5.16   0
   5   3  17   -2.87    7.35   0
   1   3  37   -3.71    5.87   0
   4   3  40  148.93    9.12   0
  -9   4   5    3.84    7.85   0
  -8   3  22  110.10    9.43   0
  -8   4   9    2.24    8.10   0
  -7   2  30  173.17    9.29   0
  -7   3  23  -13.83    7.80   0
  -6   4   2  607.80   12.83   0
  -5  -1  41    2.90    7.98   0
  -4   2  24 1957.42   20.70   0
  -8   2  29   -2.38    8.66   0
  -7   0  38   35.34    8.79   0
  -6   0  39   -6.47    8.64   0
  -9   4   8  359.99   11.18   0
  -6   2  31    6.06    8.09   0
  -6   4   5    0.21    5.52   0
  -5   2  29    0.98    7.37   0
  -5   3  19    3.99    7.03   0
  -9   3  21    2.61    8.09   0
  -4   0  38  125.02    9.03   0
  -4   3  11   18.13    5.46   0
  -2  -1  35   -0.87    5.62   0
  -9   4  11  -10.80    8.14   0
  -7   4  13    4.67    7.22   0
  -6   3  24  624.01   13.26   0
  -5   0  40  215.82   10.55   0
  -5   1  36  501.65   13.02   0
  -3   1  29    1.12    6.15   0
  -8   3  25   -5.78    7.53   0
  -8   4  15   -3.47    8.17   0
  -7   1  37   -5.71    8.02   0
  -7   2  33   -3.47    8.74   0
  -7   3  26  156.87    9.94   0
  -3   2  19   -1.61    5.98   0
  -8   2  32  183.54   10.18   0
  -6   1  38  142.17   10.23   0
  -9   3  24  179.86    9.75   0
  -7   4  16  437.97   11.85   0
  -5   3  22  310.86   10.13   0
  -4   2  27   -8.85    5.88   0
  -4   3  14  674.79   12.45   0
  -2   0  31    1.38    5.44   0
  -8   3  28  172.03   10.31   0
  -8   4  18  218.99    9.43   0
  -6   0  42  120.72    9.89   0
  -6   3  27   -2.23    7.60   0
  -7   3  29   10.22    8.41   0
  -6   4  14  287.31    9.54   0
  -5   4  -3   -1.13    5.58   0
  -5   4   0 1447.84   18.39   0
  -9   3  27   -1.83    7.83   0
  -7   4  19    1.80    6.84   0
  -5   1  39    7.03    7.97   0
  -5   4   3   21.99    6.18   0
  -4   3  17    7.48    6.24   0
  -3   2  22  492.39   11.47   0
  -8   4  21    2.30    8.12   0
  -7   1  40  196.22   10.15   0
  -5   3  25    3.85    7.25   0
  -4   0  41    4.19    6.78   0
  -9   4  20  119.67    9.14   0
  -6   4  17   -6.48    6.95   0
  -5   0  43   -7.53    8.23   0
  -5   4  -9   12.10    5.60   0
  -4   1  37    4.64    7.10   0
  -3   1  32 1183.63   16.53   0
  -8   3  31    7.74    8.18   0
  -6   1  41    5.92    8.94   0
  -8   5  -1    2.90    6.93   0
  -7   3  32  305.66   11.54   0
  -7   4  22  171.45    9.01   0
  -6   3  30  208.82    9.26   0
  -9   5  -2  158.34    8.83   0
  -9   5   1    3.30    6.95   0
  -9   5   4  145.83   10.13   0
  -8   4  24  328.16   11.52   0
  -8   5  -4  257.76   10.26   0
  -8   5   2  242.85    9.24   0
  -8   5   5   -2.07    7.66   0
  -4   3  20  930.72   14.16   0
  -3   0  39   -1.14    6.53   0
  -9   4  23   11.52    8.47   0
  -6   0  45   -1.04    8.14   0
  -6   4  20  668.23   12.88   0
  -5   4  12  957.65   14.90   0
  -9   5   7    2.80    8.08   0
  -8   5   8  472.37   12.37   0
  -7   2  39   -0.26    8.53   0
  -5   3  28  426.21   11.01   0
  -3   2  25    9.88    5.36   0
  -2   0  34  269.80    9.85   0
  -9   5  10  147.82    9.23   0
  -8   3  34  133.15    9.42   0
  -8   5  11    2.27    7.93   0
  -7   1  43   -9.36    7.71   0
  -7   4  25   -0.30    7.10   0
  -7   5  -3    2.17    6.44   0
  -7   5   3   -2.60    6.70   0
  -5   1  42  235.58   10.97   0
  -2   2  11    1.11    4.58   0
 -10   5   3    9.28    8.04   0
  -8   4  27   -8.11    8.20   0
  -7   5   6  175.13    9.10   0
  -6   3  33   14.56    8.18   0
  -5   4  15    6.44    6.65   0
  -3   3   6  521.53   11.91   0
  -2   1  27   -0.19    4.58   0
 -10   5   6   79.16    7.79   0
  -9   4  26  139.98    9.10   0
  -9   5  13    0.11    7.48   0
  -7   3  35    2.90    7.59   0
  -6   1  44  169.91   10.28   0
  -6   2  40  248.37   11.33   0
  -6   4  23    7.99    6.57   0
  -4   0  44  388.82   12.65   0
  -4   3  23   10.28    5.93   0
  -3   1  35    0.49    6.42   0
  -1  -1  33    4.47    5.03   0
  -1   0  26 1148.34   18.05   0
  -8   5  14  137.89    8.48   0
  -7   5   9   -3.67    5.91   0
  -5   0  46   78.53    8.91   0
  -5   2  38   94.85    9.14   0
  -4   1  40  472.06   11.86   0
  -9   5  16  332.46   11.45   0
  -7   4  28  408.81   12.48   0
  -7   5  12  492.80   12.25   0
  -5   3  31    3.26    7.61   0
  -3   3   9   -0.29    4.71   0
  -2   2  14  348.21    9.94   0
  -8   4  30   95.93    9.66   0
  -7   2  42   94.07    9.90   0
  -5   4  18  394.17   10.31   0
  -9   4  29   -3.34    7.31   0
  -8   3  37    1.30    7.39   0
  -3   3  12 2624.22   23.74   0
  -7   3  38  142.96   10.11   0
  -6   3  36  341.01   10.77   0
  -4   3  26  697.59   12.80   0
  -3   0  42  254.37   10.35   0
  -8   5  20  237.41   10.53   0
  -7   4  31   -2.99    8.71   0
  -5   1  45    7.74    8.17   0
  -5   4  21    9.59    6.72   0
  -4   2  36  395.23   10.69   0
  -7   5  18  400.41   11.43   0
  -6   2  43    1.47    8.56   0
  -6   5   1    2.33    6.35   0
  -2   0  37    2.52    5.88   0
  -2   1  30  600.82   12.66   0
  -2   2  17   -2.38    4.73   0
  -8   4  33    3.72    8.30   0
  -6   1  47    4.34    8.61   0
  -6   4  29   -0.17    7.67   0
  -6   5  -2  346.01   10.51   0
  -6   5   7    0.72    5.46   0
  -5   2  41   -7.07    8.11   0
  -5   3  34  462.42   11.54   0
  -3   1  38  356.76   10.92   0
  -3   3  15   -2.14    4.88   0
  -8   5  23   -7.80    8.53   0
  -6   5  -5   -5.23    6.42   0
  -6   5  10  475.16   11.66   0
  -4   1  43    6.18    7.32   0
  -4   4   1   -3.20    5.26   0
  -4   4   4 1547.32   18.76   0
  -7   2  45    7.22    8.51   0
  -7   5  21   -1.60    7.42   0
  -5   4  24  967.41   15.24   0
  -4   3  29    5.14    6.87   0
  -1   0  29    1.24    4.98   0
  -9   5  25    4.24    7.82   0
  -7   4  34  185.17   10.35   0
  -4   4  -2 1361.71   18.11   0
  -4   4  10  421.76   10.66   0
  -3   3  18 1353.51   17.07   0
  -8   5  26  200.38   10.23   0
  -2   2  20 3578.47   27.61   0
  -8   4  36  112.78    9.73   0
  -7   5  24  324.85   11.27   0
  -6   4  32  373.54   11.06   0
  -6   5  16  661.85   12.59   0
  -4   2  39   -5.77    5.94   0
  -4   4  -5    0.21    5.00   0
  -4   4  13   -2.30    6.04   0
  -6   2  46   90.85   10.03   0
  -5   4  27   10.48    7.09   0
  -9   5  28   91.44    9.48   0
  -9   6   3    0.00    6.84   0
  -9   6   6  168.88    9.11   0
  -6   5  19   -0.12    6.88   0
  -5   1  48  140.70    9.41   0
  -5   2  44  238.44   10.61   0
  -4   3  32  936.46   15.13   0
  -3   3  21    0.70    5.91   0
  -2   1  33    6.72    5.73   0
  -9   6   9   -2.51    7.73   0
  -8   5  29    5.26    8.20   0
  -7   4  37   -1.99    8.34   0
  -4   4  16 1503.67   17.45   0
  -3   1  41    4.58    6.56   0
  -3   2  34  601.35   12.45   0
  -9   6  12  140.65    9.42   0
  -8   6   7   -1.35    7.27   0
  -7   5  27    3.46    7.10   0
  -6   3  42  163.22   10.48   0
  -4   1  46   80.32    8.54   0
  -4   4  -8 1420.90   20.43   0
  -2   0  40  821.61   15.44   0
  -2   2  23   -2.92    4.82   0
  -9   6  15    5.74    7.51   0
  -8   4  39   -8.76    8.14   0
  -8   6   1    4.08    6.93   0
  -8   6  10  196.54    9.95   0
  -7   3  44  132.85    9.46   0
  -6   4  35   -2.82    6.93   0
  -8   6  13   -1.94    7.41   0
  -5   4  30  296.56    9.93   0
  -4   4  19   -6.84    5.66   0
  -3   3  24 1139.01   15.89   0
  -9   6  18  111.71    8.71   0
  -8   5  32  221.05   10.62   0
  -4   2  42  408.11   11.80   0
  -1   0  32 1750.59   21.96   0
  -8   6  16  403.38   11.04   0
  -7   4  40  154.96   10.16   0
  -7   5  30   73.73    7.97   0
  -6   5  25   -3.55    7.17   0
  -5   5   5    1.40    5.86   0
  -5   5   8 1013.62   15.30   0
  -9   6  21   -8.09    8.18   0
  -6   2  49    4.27    7.83   0
  -5   2  47    1.12    8.37   0
  -5   5   2  339.14   10.24   0
  -4   4  22  714.24   12.69   0
  -8   6  19    6.00    7.22   0
  -7   6   5    8.61    6.75   0
  -7   6   8  685.95   13.81   0
  -6   3  45   10.83    8.07   0
  -6   4  38  112.65    9.92   0
  -5   4  33    8.84    7.31   0
  -5   5  -1    2.60    5.53   0
  -3   2  37    3.50    6.46   0
  -2   1  36  933.14   15.46   0
  -8   5  35    1.17    7.98   0
  -7   3  47   -4.89    7.86   0
  -7   6   2  336.48   10.53   0
  -7   6  11   -1.01    7.31   0
  -5   5  14  643.57   12.44   0
  -3   3  27    1.17    5.51   0
  -7   5  33    4.13    7.08   0
  -7   6  -1    0.27    6.91   0
  -7   6  14  145.19    9.09   0
  -5   5  17   -6.38    6.51   0
  -4   4  25   -0.13    6.46   0
  -3   1  44  332.81   11.02   0
  -5   3  43    2.43    8.32   0
  -4   1  49    2.23    7.49   0
  -7   6  17    3.18    6.46   0
  -4   2  45   -1.65    7.33   0
  -1   1  25   -3.87    4.89   0
  -9   6  27    2.08    7.80   0
  -8   6  25    0.26    7.55   0
  -6   4  41    5.80    8.10   0
  -6   5  31   11.25    8.30   0
  -5   4  36  337.07   11.30   0
  -5   5  20  695.57   12.74   0
  -8   5  38   61.78    9.17   0
  -7   5  36  280.61   11.49   0
  -4   4  28  650.93   12.98   0
  -6   2  52  112.70    8.99   0
  -6   3  48  152.46    9.99   0
  -5   2  50  187.90   10.35   0
  -5   5  -7   -1.64    5.57   0
  -5   5  23   11.34    7.32   0
  -3   2  40  486.84   12.03   0
  -1   0  35   -0.78    4.89   0
  -8   6  28  158.70    9.40   0
  -7   6  23    3.61    6.74   0
  -2   1  39    0.15    5.77   0
  -6   5  34  248.09   10.84   0
  -5   3  46   50.12    8.84   0
  -7   4  46   69.18    8.75   0
  -7   5  39   13.18    8.49   0
  -7   6  26  264.71   11.20   0
  -5   4  39    3.02    7.77   0
  -5   5  26  225.98    9.86   0
  -4   3  41   -0.28    6.32   0
  -4   4  31   -3.23    7.04   0
  -1   1  28 1379.77   18.48   0
  -8   6  31   -2.13    8.20   0
  -6   6   6  241.02    9.67   0
  -6   6   9   -2.23    5.69   0
  -6   6  12  440.16   11.71   0
  -3   1  47    2.10    6.63   0
  -2   2  32  655.31   12.47   0
  -6   6   3   -7.37    6.28   0
  -6   6  15   -1.81    6.11   0
  -3   4   8 2728.80   24.03   0
  -3   4  11   27.84    6.08   0
  -2   3   7    0.31    5.20   0
  -2   3  10 2052.31   21.31   0
  -9   7  11   -7.55    6.94   0
  -9   7  14  136.62    9.14   0
  -7   6  29    5.78    8.24   0
  -5   5  29   -1.90    7.23   0
  -3   4  14  727.72   13.07   0
  -2   3  13   22.58    5.24   0
  -9   7  17    2.06    7.76   0
  -8   6  34  122.81    9.50   0
  -6   3  51  -10.48    7.95   0
  -6   5  37   -0.14    7.07   0
  -6   6   0  857.59   14.96   0
  -3   2  43    3.68    6.80   0
  -2   3  16 2140.51   21.07   0
  -7   5  42  133.52   10.01   0
  -6   6  21   -1.87    6.60   0
  -5   2  53    1.01    8.53   0
  -3   4   2  864.64   14.69   0
  -3   4  17   -1.58    5.10   0
  -9   7  20  126.20    8.70   0
  -5   3  49   -3.97    7.57   0
  -4   3  44  301.63   10.84   0
  -2   1  42  329.22   10.80   0
  -2   2  35    1.34    6.03   0
  -2   3  19    6.59    5.81   0
  -1   0  38  255.23    9.88   0
  -8   7   6  195.99    9.59   0
  -8   7   9    0.42    7.26   0
  -8   7  12  175.32    9.64   0
  -8   7  15   -2.20    7.44   0
  -6   4  47    0.91    8.82   0
  -6   6  -3  -10.73    6.05   0
  -6   6  24  490.02   12.47   0
  -5   5  32  515.09   11.94   0
  -3   4  20  919.43   14.00   0
  -1   1  31    2.79    5.13   0
  -8   6  37   -3.59    8.04   0
  -8   7  18  135.04    9.10   0
  -6   5  40  219.86   10.59   0
  -4   5   6  864.35   14.41   0
  -4   5  15   15.09    5.70   0
  -6   6  27   -5.80    8.23   0
  -4   4  37    0.23    7.51   0
  -4   5  18  403.33   10.90   0
  -3   4  -1   24.50    5.26   0
  -3   4  23   21.11    5.68   0
  -2   3  22  490.39   10.83   0
  -8   7  21  -10.00    8.33   0
  -7   5  45    1.84    8.45   0
  -7   6  35    6.67    8.35   0
  -4   2  51   -3.29    7.63   0
  -4   5   3   22.75    5.14   0
  -8   7  24  263.64   11.13   0
  -5   4  45    2.69    7.98   0
  -5   5  35    0.14    6.83   0
  -4   5  21   11.19    5.85   0
  -3   2  46  128.43    8.60   0
  -3   3  39   -0.41    6.80   0
  -1   2  15    4.24    4.61   0
  -6   6  30  135.38    9.29   0
  -4   3  47   -8.51    7.77   0
  -4   5   0 1388.32   18.13   0
  -3   4  26  666.68   12.36   0
  -2   3  25    2.03    5.14   0
  -6   4  50  122.95    9.53   0
  -6   5  43    3.17    8.24   0
  -5   3  52  145.91    9.96   0
  -4   5  24  952.19   14.40   0
  -2   2  38  266.79    9.08   0
  -1   1  34  984.62   15.98   0
  -1   2  18 1192.62   16.69   0
  -7   6  38   59.16    8.75   0
  -7   7  10  236.24   10.07   0
  -7   7  13    4.38    7.55   0
  -7   7  16  541.53   13.08   0
  -3   4  -4 1273.86   18.74   0
  -2   1  45   -2.25    6.08   0
  -7   7   7   -1.01    6.92   0
  -7   7  19   -3.34    7.67   0
  -6   6  33    0.38    8.44   0
  -5   5  38  219.94    9.55   0
  -5   6  10  495.41   11.72   0
  -5   6  13   10.54    5.81   0
  -4   5  27   15.59    7.35   0
  -3   4  29    6.08    5.65   0
  -2   3  28 1419.01   17.54   0
  -1   2  21   15.73    5.49   0
  -8   7  30   72.96    8.74   0
  -7   7   4  182.27    9.28   0
  -5   6   7   -5.72    6.39   0
  -5   6  19    4.53    6.82   0
  -7   7  22   97.18    8.27   0
  -5   4  48  226.66   10.77   0
  -5   6   4  776.98   13.90   0
  -4   5  -3   -2.91    4.95   0
  -3   3  42  313.34   10.76   0
  -7   6  41   -4.08    8.21   0
  -5   6  22  216.51    8.92   0
  -4   5  30  299.27   10.36   0
  -8   7  33    2.16    7.81   0
  -6   4  53    3.06    8.83   0
  -6   6  36  220.43   10.92   0
  -5   5  41   -2.28    8.26   0
  -5   6  25    1.40    7.70   0
  -4   3  50  174.90    9.68   0
  -4   4  43    2.40    7.64   0
  -3   2  49    5.11    7.03   0
  -3   4  32  927.08   14.33   0
  -2   2  41   -7.13    6.38   0
  -7   7  28  142.35    9.85   0
  -5   6   1   10.26    5.91   0
  -1   1  37   -1.38    5.42   0
  -5   3  55    0.11    7.39   0
  -4   5  33    3.35    7.87   0
  -5   6  28  433.75   11.29   0
  -3   4  35   -4.37    7.06   0
  -7   6  44  127.64    9.81   0
  -7   7  31   -9.35    7.82   0
  -6   6  39    7.08    7.87   0
  -5   4  51   -7.61    7.74   0
  -3   3  45   -6.08    7.05   0
  -6   5  49    9.10    8.52   0
  -6   7  14  145.81    9.18   0
  -5   6  31    1.98    7.67   0
  -4   4  46  154.16    9.96   0
  -6   7  11    1.90    7.18   0
  -6   7  17    6.29    6.34   0
  -4   5  36  326.59   10.99   0
  -2   2  44  728.10   14.37   0
  -7   7  34  160.54   10.29   0
  -6   7   8  647.86   13.49   0
  -4   3  53   -2.92    7.54   0
  -3   2  52  280.45   11.24   0
  -1   2  30  595.58   11.97   0
  -6   6  42  143.24    9.48   0
  -5   6  34  238.32   10.56   0
  -1   1  40  768.00   14.67   0
  -8   8  14  126.34    9.14   0
  -8   8  17    0.34    7.74   0
  -6   7   5    2.66    6.63   0
  -6   7  26  256.71   10.63   0
  -2   3  37   -3.59    6.40   0
  -8   8  11    0.77    6.71   0
  -8   8  20  146.70    9.08   0
  -7   7  37    3.46    8.07   0
  -4   5  39   -1.52    6.63   0
  -3   3  48  196.04    9.68   0
  -3   5  13   -5.84    5.88   0
  -3   5  16 1834.03   19.53   0
  -3   5  19   -2.14    6.64   0
  -8   8  23    1.08    7.45   0
  -6   7   2  336.15   10.64   0
  -6   7  29    3.11    7.99   0
  -5   4  54   60.60    8.83   0
  -5   6  37    7.04    8.49   0
  -4   4  49  -12.24    7.71   0
  -3   5  22  304.77   10.09   0
  -2   4  15    6.34    5.76   0
  -1   2  33    0.15    5.68   0
  -8   8  26   88.65    9.00   0
  -6   6  45   -5.05    8.10   0
  -2   4  12  788.39   13.26   0
  -2   4  18 1080.12   15.01   0
  -2   4  21    1.08    6.25   0
  -6   7  32  258.85   10.78   0
  -4   6  17   -5.78    5.95   0
  -4   6  20  676.56   13.25   0
  -3   5   7    9.76    5.96   0
  -3   5  25   -0.85    5.93   0
  -2   2  47   -5.07    6.61   0
  -4   5  42  184.46    9.94   0
  -4   6  11   -0.37    5.55   0
  -4   6  23    1.15    6.87   0
  -2   3  40  462.82   11.18   0
  -2   4   9   -4.20    4.72   0
  -2   4  24 1963.16   19.61   0
   0   0  33    0.03    4.73   0
  -5   5  50   63.14    8.71   0
  -5   6  40  230.82   10.75   0
  -4   3  56  154.59    9.66   0
  -4   6   8  869.47   14.52   0
  -3   5  28  418.71   10.61   0
  -6   7  35    1.34    8.08   0
  -4   6  26  397.03   10.75   0
  -3   5   4  719.37   13.30   0
  -2   4  27   -6.56    5.65   0
  -1   1  43   -2.40    5.55   0
  -1   2  36  912.09   14.68   0
  -7   8  15    4.17    7.09   0
  -7   8  18  120.88    8.83   0
  -7   8  21    4.41    7.86   0
  -4   4  52  154.13    9.50   0
  -3   3  51   -0.95    7.76   0
  -3   4  44  279.34   10.79   0
  -3   5  31   -1.73    6.98   0
   0   1  23    1.72    4.04   0
  -7   8  12  178.23    9.55   0
  -7   8  24  249.33   10.63   0
  -5   4  57   -2.07    7.85   0
  -4   6   5    0.12    5.18   0
  -4   6  29    2.97    6.65   0
  -2   4  30  210.54    8.93   0
  -7   8   9   -0.96    6.73   0
  -6   7  38   58.81    8.57   0
  -5   6  43   -4.77    8.51   0
  -5   7  15   -2.33    7.40   0
  -5   7  18  381.90   10.69   0
  -2   3  43   -0.41    6.81   0
  -1   3  14 1719.52   19.43   0
  -1   3  17   10.82    5.12   0
  -7   8  27    4.08    7.14   0
  -5   7  12  505.78   11.67   0
  -5   7  24  334.34   11.24   0
  -4   6  32  350.14   10.60   0
  -3   5   1    5.03    5.19   0
  -1   3  23    4.80    5.86   0
   0   1  26 1114.69   16.83   0
  -5   5  53   -1.19    7.74   0
  -5   7   9    8.01    6.42   0
  -5   7  27    4.57    7.87   0
  -2   2  50  192.60    9.41   0
  -2   4  33    3.99    6.85   0
  -1   2  39    0.06    6.01   0
  -1   3  11   16.13    5.00   0
   0   0  36  594.54   14.06   0
  -6   7  41   -1.86    8.15   0
  -4   6  35    0.73    7.98   0
  -3   4  47   12.36    8.02   0
  -7   8  33   -0.27    8.25   0
  -5   6  46   57.97    8.54   0
  -5   7   6  172.66    8.81   0
  -5   7  30   91.75    8.91   0
  -4   5  48  206.41   10.51   0
  -3   5  37    0.95    7.31   0
   0   1  29    1.12    5.23   0
  -4   4  55   -5.74    8.05   0
  -3   3  54   91.81    8.74   0
  -2   3  46  134.29    8.87   0
  -1   3   8 3393.52   27.42   0
  -1   3  29    2.18    6.13   0
  -5   7  33   -1.88    8.02   0
  -4   6  38  103.01    9.65   0
  -6   7  44  131.93    9.34   0
  -5   7   3    6.12    6.99   0
  -4   6  -1   -0.21    5.52   0
  -3   5  -2  826.57   14.65   0
  -2   4   0 4124.58   31.31   0
  -1   2  42  337.06   10.56   0
  -6   8  16  368.50   11.71   0
  -6   8  19    1.43    7.55   0
  -6   8  22  112.73    9.36   0
  -3   4  50  180.18   10.04   0
  -3   5  40  453.01   11.45   0
   0   1  32 1807.02   21.38   0
  -6   8  13    0.92    7.38   0
  -6   8  25    3.33    7.77   0
  -5   7  36  264.18   10.59   0
  -4   5  51    5.41    8.58   0
  -1   3   5    1.08    5.35   0
  -4   6  41    8.59    6.86   0
  -6   8  10  205.93    9.66   0
  -5   7  39   -4.09    8.56   0
  -2   3  49    6.14    6.88   0
  -1   3  35   -3.75    6.37   0
  -6   8  31    8.95    7.71   0
  -5   7   0  626.12   13.27   0
  -4   4  58   53.95    8.61   0
  -6   8   7   -1.13    6.96   0
  -4   6  44  233.55   10.96   0
  -3   6  21    5.93    6.30   0
  -3   6  24  642.28   12.99   0
  -2   4  42  393.95   10.75   0
  -1   2  45   -0.62    6.16   0
   0   1  35    0.80    5.14   0
  -6   8  34  130.70    9.32   0
  -3   4  53    4.79    7.64   0
  -3   6  15    0.19    5.82   0
  -3   6  27   -6.28    7.23   0
  -2   5  17   10.99    6.50   0
  -2   5  20  611.85   11.92   0
  -2   5  23   -2.05    6.67   0
  -5   7  42  150.38    9.09   0
  -4   5  54   48.17    8.42   0
  -4   7  22  163.16    9.26   0
  -3   5  -5    8.93    5.20   0
  -2   4  -3   -1.44    4.82   0
  -2   5  14  374.09   10.47   0
  -1   3  38  337.40    9.85   0
  -4   7  16  423.42   10.90   0
  -4   7  25    0.84    6.80   0
  -3   5  46   51.24    7.39   0
  -3   6  30  207.79    9.13   0
  -2   5  29    3.11    7.15   0
   0   2  19    0.97    4.55   0
   0   2  22 1976.85   20.82   0
  -4   7  13    3.77    6.96   0
  -4   7  28  393.36   10.99   0
  -3   6   9   13.26    6.34   0
  -2   3  52  299.94   11.04   0
  -2   4  45   -8.82    6.99   0
  -2   5  11    5.92    5.78   0
   0   2  16 3139.56   26.53   0
  -5   7  45    2.17    7.83   0
  -4   7  31   -2.26    7.91   0
  -3   6  33    7.82    6.59   0
   0   1  38  258.55    9.33   0
   0   2  28 1108.51   16.24   0
  -7   9  20  135.73    8.70   0
  -4   7  10  392.79   11.13   0
  -1   2  48  345.16   10.91   0
  -1   3  41    0.34    5.60   0
   0   2  13   -0.81    5.29   0
  -7   9  17   14.90    7.52   0
  -4   7  34  181.54   10.08   0
  -3   4  56  151.54   10.41   0
  -3   5  49   -2.16    7.72   0
  -3   6   6  476.22   11.28   0
  -3   6  36  312.14   10.37   0
  -2   5  35   12.82    7.52   0
  -1   4  19   14.22    5.57   0
  -1   4  22  381.13    9.94   0
  -1   4  25   -1.78    6.48   0
  -7   9  14  122.01    8.87   0
  -5   8  17    4.41    7.38   0
  -5   8  20  234.14   10.46   0
  -5   8  23    8.66    8.17   0
  -4   5  57   -1.76    7.21   0
  -4   7   7    4.82    6.62   0
  -1   4  16 2097.13   20.32   0
  -1   4  28  737.93   13.46   0
   0   2  31   -0.17    4.77   0
  -5   8  29   -7.10    7.69   0
  -4   6  50  101.60    9.15   0
  -4   7  37   -0.35    8.27   0
  -2   4  48  300.55   11.16   0
  -2   5  38   85.63    8.46   0
  -1   3  44  329.72   10.82   0
  -1   4  13    3.67    5.23   0
  -1   4  31    3.52    6.87   0
   0   1  41   -2.02    5.82   0
  -5   8  11   -3.08    6.86   0
  -5   8  32  214.29    9.83   0
  -3   6   3   10.37    6.06   0
  -2   5   5    5.20    4.95   0
   0   2  34  286.53    9.13   0
  -5   8  35    2.28    8.32   0
  -4   7   4  659.85   13.29   0
  -4   7  40  148.34    9.68   0
  -3   5  52  124.57    9.28   0
  -3   6  42  174.07   10.11   0
  -1   4  10 1159.37   15.92   0
  -5   8   8  468.67   12.53   0
  -4   6  53   -3.60    8.14   0
  -2   4  51   -0.61    7.13   0
   0   2  37    0.75    6.12   0
  -5   8  38   55.17    8.70   0
  -4   7  43    9.76    8.09   0
  -1   3  47   -3.50    6.39   0
  -6   9  21    6.13    7.20   0
  -6   9  24  229.33    9.81   0
  -3   6   0 1054.52   15.91   0
  -2   5   2  818.90   13.66   0
  -1   4   7   15.19    5.67   0
  -6   9  18   97.11    8.75   0
  -6   9  27    7.75    6.95   0
  -5   8   5   -6.82    6.81   0
  -4   7   1    7.04    6.19   0
  -3   5  55   -2.11    7.93   0
  -2   5  44  219.48    9.32   0
  -6   9  15    1.80    7.19   0
  -4   7  46   61.14    8.48   0
  -1   4  40  460.81   11.21   0
   0   2  40  851.32   15.00   0
  -3   7  20  420.57   11.72   0
  -3   7  23   -8.46    7.26   0
  -3   7  26  168.69    9.51   0
   0   3  21    2.99    5.09   0
   0   3  24 1683.37   18.49   0
   0   3  27   -2.29    5.78   0
  -3   6  48  145.16   10.00   0
  -3   7  29    9.73    7.97   0
  -2   4  54   44.07    8.32   0
  -2   5  47   -4.75    8.09   0
  -2   6  19    0.74    7.07   0
  -2   6  22  364.99   10.22   0
  -2   6  25   11.92    6.53   0
  -2   6  28  466.07   11.81   0
  -1   3  50  175.84    9.95   0
   0   3  18  547.20   11.38   0
  -2   6  16  748.98   13.45   0
  -2   6  31    5.83    7.31   0
  -1   4  43   -3.68    7.16   0
  -4   8  21  -13.33    7.64   0
  -4   8  27   -2.55    7.63   0
  -3   7  14  350.78   10.07   0
  -2   5  -1    3.35    5.20   0
   0   2  43   -2.38    6.78   0
   0   3  15   -0.74    4.83   0
   0   3  33   -1.18    6.53   0
  -4   7  -2  231.60    9.18   0
  -4   8  18  193.91    9.84   0
  -4   8  30   97.12    8.83   0
  -3   6  -3    2.38    5.54   0
  -3   7  35    1.90    6.82   0
  -2   6  34  163.87    8.89   0
  -4   8  15   -3.97    7.25   0
  -4   8  33   -4.85    7.79   0
  -3   6  51    5.55    7.60   0
  -3   7  11   -4.66    7.03   0
  -1   5  21    3.37    6.96   0
  -1   5  24  686.46   12.57   0
  -1   5  27    5.46    6.75   0
  -2   5  50  170.52    9.88   0
  -2   6  37   -0.25    6.61   0
  -1   4  46   92.72    8.42   0
  -1   5  18  750.37   13.45   0
  -1   5  30  188.52    9.42   0
   0   3  12 2049.24   20.53   0
   0   3  36  541.65   11.63   0
  -4   8  12  267.26   10.11   0
  -4   8  36  133.68    9.51   0
  -2   4  57    1.24    6.98   0
  -1   5  33   -0.10    7.03   0
  -3   7   8  556.01   12.40   0
  -3   7  41   17.61    7.70   0
  -1   5  15   -0.13    5.58   0
   0   3  39    4.74    6.53   0
  -5   9  22   82.19    8.32   0
  -5   9  25   -1.44    7.90   0
  -5   9  28   93.55    8.45   0
  -4   8  39  -11.80    8.15   0
  -1   5  36  482.60   12.24   0
   0   2  46  256.35    9.82   0
   1   0  31   -1.19    4.88   0
  -5   9  19    1.55    7.76   0
  -4   8   9   -3.50    7.01   0
  -2   6   7    2.87    6.28   0
  -1   4  49    0.10    7.66   0
   0   3   9   -2.35    4.77   0
  -5   9  16  317.57   10.89   0
  -3   7   5   12.86    6.68   0
  -3   7  44  130.32    9.44   0
  -2   5  53   -4.17    7.86   0
   1   1  24 1821.76   21.15   0
   1   1  27    1.69    5.04   0
  -2   5  -4  695.51   13.60   0
   0   3  42  256.96    9.91   0
   1   1  21   12.89    5.25   0
   1   1  30  623.89   13.08   0
  -5   9  13   -5.32    7.59   0
  -4   8   6  205.67    9.19   0
  -3   6  -6  448.10   11.61   0
  -1   5   9   14.15    6.28   0
  -3   7  47    1.09    7.54   0
  -2   6   4  896.03   14.57   0
  -1   5  42  237.10   10.25   0
   0   4  23   -1.27    5.63   0
   0   4  26  743.13   12.98   0
   0   4  29    3.71    6.42   0
   1   1  33    1.19    5.99   0
  -5   9  10  132.56    8.87   0
  -1   4  52  190.33   10.03   0
   0   3   6 2067.58   21.29   0
   0   4  20 1301.86   16.25   0
   0   4  32  494.06   11.72   0
  -3   7   2  250.12    9.37   0
  -2   5  56  117.99    8.45   0
   0   3  45    0.01    6.81   0
   0   4  17   10.20    6.21   0
  -1   4  -2  871.61   14.85   0
  -1   5  45   -0.27    7.68   0
   1   1  36  945.36   16.07   0
  -4   8   3    1.57    6.65   0
  -3   8  25  -11.09    7.70   0
  -3   8  28  184.76    9.96   0
  -2   6  49   -5.60    7.46   0
  -2   7  21   -6.90    7.57   0
  -2   7  24  436.80   11.21   0
  -2   7  27    2.65    6.73   0
  -2   7  30  190.05    9.93   0
   0   4  14  337.34    9.89   0
  -3   8  19    1.76    7.96   0
  -3   8  31   -1.99    7.72   0
  -2   7  18  170.18    9.31   0
  -2   7  33    1.66    7.83   0
   0   4  38  137.67    8.62   0
   1   2  26  525.94   11.26   0
   1   2  29    3.49    5.64   0
  -2   6   1   -0.06    5.96   0
  -2   7  36  147.42   10.03   0
   0   3  48  323.44   10.77   0
   1   2  20 1527.55   18.36   0
   1   2  32 1237.29   17.06   0
  -3   8  16  400.61   11.66   0
  -3   8  37    5.01    8.27   0
  -1   4  55    4.36    7.52   0
  -1   5  48  147.19    9.55   0
  -1   6  23    6.94    6.24   0
  -1   6  26  238.42    9.26   0
  -1   6  29    1.53    6.63   0
  -1   6  32  392.23   11.99   0
   0   4  41    3.69    7.18   0
   1   1  39    0.97    5.60   0
  -4   9  23    0.52    7.46   0
  -4   9  26  144.63    8.88   0
  -3   7  -1    1.95    6.11   0
  -2   5  -7    6.00    4.97   0
  -2   6  52  135.08    9.44   0
  -2   7  39    6.33    7.77   0
  -1   6  20  493.38   11.22   0
   0   3   3   -2.13    5.31   0
   0   4  11   -1.97    5.08   0
   1   2  35   -4.51    5.82   0
  -4   9  20  111.18    8.54   0
  -3   8  13    1.33    7.20   0
  -3   8  40  131.61    9.70   0
  -2   7  12  403.10   11.15   0
  -1   5   3   -0.31    4.96   0
  -1   6  17  -10.51    7.12   0
  -1   6  35   10.84    6.63   0
   1   2  17   10.48    4.93   0
  -4   9  17   -0.41    7.56   0
  -1   6  38  140.05    9.85   0
   0   4  44  424.66   11.71   0
  -2   7  42   84.60    8.43   0
  -1   5  51    0.45    7.63   0
  -1   6  14  401.85   11.02   0
   0   3  51   -0.27    6.90   0
   1   2  38  340.32   10.36   0
  -4   9  14   88.65    8.20   0
  -2   7   9    8.86    6.86   0
  -1   6  41    5.72    7.89   0
   0   4   8 1533.62   17.56   0
  -2   6  -2  583.91   12.49   0
  -2   7  45    5.07    7.61   0
   0   5  25   -8.88    7.19   0
   0   5  28  647.35   13.23   0
  -1   4  -5   -1.25    5.13   0
   0   4  47   -4.24    6.98   0
   0   5  22  236.32    8.92   0
   0   5  31    0.95    6.39   0
   1   2  41    0.05    5.91   0
   1   3  25    1.41    5.26   0
   1   3  31    6.01    6.52   0
  -4   9  11   -6.75    6.94   0
  -3   8   7   -0.69    6.97   0
  -1   5   0 1450.92   17.91   0
  -1   5  54   49.68    8.94   0
   0   5  19   -6.36    6.00   0
   1   3  22  377.40    9.90   0
  -2   7   6  431.85   11.41   0
   1   3  19   16.89    6.25   0
   1   3  34  521.20   11.51   0
   0   3   0 2668.00   24.92   0
   0   4   5   -3.81    4.91   0
   0   5  16  703.04   12.67   0
   1   2  11   12.00    4.96   0
   1   3  37   -1.70    6.57   0
  -4   9   8  350.74   11.18   0
  -1   6  47    8.26    7.63   0
   0   4  50  162.96    9.12   0
   1   2  44  326.37   10.43   0
   0   5  13    4.17    6.28   0
   1   3  16 2092.27   20.20   0
  -3   8   4  269.71    9.83   0
  -2   8  26  182.95   10.08   0
  -2   8  29    6.02    8.11   0
   0   5  43   -0.01    8.00   0
   1   3  40  463.39   11.75   0
  -2   6  -5    1.16    5.37   0
  -2   7   3    1.16    6.49   0
  -2   8  23    1.59    8.01   0
  -2   8  32  195.59    9.96   0
  -1   5  57   -2.25    7.30   0
  -1   6   5    8.74    6.36   0
  -2   8  35    4.42    7.71   0
  -1   6  50   92.21    8.75   0
  -1   7  22  160.36    9.79   0
  -1   7  25  -11.49    8.22   0
  -1   7  28  155.27    8.61   0
  -1   7  31   -1.31    7.83   0
   0   5  10  730.75   13.06   0
   1   3  13    7.97    5.21   0
  -3   9  21   -3.88    7.89   0
  -3   9  24  170.77    8.98   0
  -2   8  17    0.81    7.86   0
  -1   5  -3   16.57    5.66   0
  -1   7  34  179.31    9.88   0
   0   4  53    1.20    7.14   0
   0   5  46   89.05    8.80   0
   1   2   8 3436.43   27.11   0
   1   3  43    0.29    6.86   0
  -1   7  19    7.88    6.43   0
  -1   7  37   -6.14    7.70   0
   1   4  24  675.88   13.08   0
   1   4  27    7.82    6.04   0
   1   4  30  195.58    8.49   0
  -3   8   1    2.36    6.22   0
  -3   9  18  173.28    9.39   0
  -2   8  14  119.51    9.06   0
   1   4  21    7.44    6.81   0
  -1   7  40  215.94    9.44   0
   1   3  10 1158.56   15.34   0
   1   4  36  500.68   11.58   0
  -7   7  16  536.01   13.18   0
  -5   7 -24  445.14   11.75   0
  -5   7  -3    6.95    7.61   0
  -4   6   2  611.55   12.08   0
  -2   4   0 4269.78   29.33   0
  -7   8   3   -2.67    8.24   0
  -3   5   4  713.97   12.65   0
  -2   4 -27   -4.50    5.36   0
  -7   8 -30   39.03    7.42   0
  -6   6  21   -3.42    6.89   0
  -5   5  23    1.75    6.44   0
  -5   7   0  669.90   13.61   0
  -8   8  11   -5.41    8.13   0
  -5   7 -27    3.44    7.13   0
  -4   6 -31    2.28    6.41   0
  -4   6   5    2.70    5.83   0
  -1   3 -16 1938.18   22.83   0
  -1   3 -13   22.26    5.29   0
  -8   7  21    5.03    7.52   0
  -6   8 -11    4.55    8.01   0
  -5   6  16  662.42   12.80   0
  -2   4   3   -1.02    5.74   0
  -6   8 -17    1.39    7.89   0
  -6   8  -8  454.24   12.56   0
  -5   7   3    3.08    6.61   0
  -3   5   7    2.40    6.06   0
  -1   3 -19    1.70    5.19   0
  -1   3  -7    2.12    5.22   0
  -8   9 -11   -0.87    7.60   0
  -7   7  19    4.70    8.15   0
  -6   8 -20  183.49   10.02   0
  -6   8  -5   -1.84    8.52   0
  -5   7 -30  165.92    8.92   0
  -4   5  18  411.34   11.03   0
  -3   4  17    0.83    5.65   0
  -8   8  14  130.85   10.10   0
  -8   9  -5   10.31    7.91   0
  -7   8   9    3.60    8.37   0
  -6   8 -23   -2.49    7.68   0
  -6   8  -2  242.58   10.75   0
  -4   6   8  897.61   14.13   0
  -5   7   6  168.21    8.67   0
  -1   3  -4 3043.84   26.84   0
  -6   6  24  499.79   12.86   0
  -6   8 -26  198.84    9.94   0
  -6   8   1    0.61    8.42   0
  -4   4  25   -1.95    5.73   0
  -2   4   6  847.45   13.78   0
  -5   6  19    2.77    7.10   0
  -3   5  10  761.22   13.58   0
  -8   9   1   -9.56    7.37   0
  -6   7  17    6.75    7.75   0
  -5   5  26  233.15    9.79   0
  -5   7   9    1.86    7.34   0
  -4   6  11   -3.95    7.02   0
  -8   8  17    7.10    7.80   0
  -7   7  22  115.00    9.19   0
  -6   8 -29   -9.25    7.28   0
  -3   3  24 1112.01   18.20   0
  -1   3  -1   32.44    5.37   0
  -8   9   4  177.26    9.85   0
  -4   5  21   12.62    6.53   0
  -3   6 -15   -0.46    5.58   0
  -3   6  -9    0.77    5.69   0
  -2   3  16 2017.49   22.54   0
  -7   9 -16  159.91    9.34   0
  -7   9 -10  178.27    9.38   0
  -4   7 -17   11.73    6.87   0
  -4   7 -14  349.57   10.25   0
  -4   7  -8  547.71   12.64   0
  -3   6 -18  407.69   10.38   0
  -3   6  -6  463.62   10.82   0
  -7   8  15   -1.92    8.41   0
  -7   9 -19    8.74    7.84   0
  -7   9  -4  202.71   10.12   0
  -5   7  12  501.17   12.36   0
  -4   7 -20  430.34   11.65   0
  -4   7  -5   -2.51    7.47   0
  -3   4  20  911.16   14.82   0
  -3   6 -21    5.50    6.40   0
  -3   6  -3    9.45    6.84   0
  -2   4   9   -2.73    4.93   0
  -8   9   7    0.52    7.23   0
  -7   9 -22   44.59    7.66   0
  -3   5  13    2.84    5.50   0
  -2   5 -13   -2.12    5.84   0
  -1   3   2  702.27   13.71   0
  -7   9  -1    1.68    7.49   0
  -6   6  27   -2.21    7.75   0
  -6   7  20  269.61   10.12   0
  -5   6  22  219.65    8.98   0
  -4   7 -23    2.54    7.11   0
  -4   7  -2  243.44    9.24   0
  -2   5 -16 1818.32   20.26   0
  -2   5  -7    7.65    5.86   0
  -8   8  20  121.48    9.50   0
  -6   8  10  196.42   10.10   0
  -5   8 -16  383.18   11.69   0
  -5   8 -10  200.20    9.23   0
  -5   8  -7   -7.46    7.80   0
  -3   6 -24  616.10   12.93   0
  -3   6   0 1075.72   14.95   0
  -2   5 -19   -2.22    5.81   0
  -7   7  25    0.76    7.80   0
  -7   9   2   81.00    8.58   0
  -5   8 -19   -0.60    7.45   0
  -5   8  -4  267.32   10.26   0
  -4   7   1   -1.62    6.49   0
  -2   5  -4  735.90   12.78   0
  -7   8  18  122.79    9.41   0
  -4   4  28  625.86   14.22   0
  -4   7 -26  144.10    8.78   0
  -3   6   3    3.37    6.53   0
  -7   9   5    0.93    8.29   0
  -5   5  29   -1.75    6.30   0
  -5   8 -22  129.55    8.57   0
  -5   8  -1   -6.72    6.88   0
  -4   5  24  923.89   15.76   0
  -4   7   4  662.48   13.58   0
  -3   6 -27    1.17    6.07   0
  -2   4  12  800.89   13.61   0
  -2   5 -22  283.54    9.79   0
  -2   5  -1   -4.99    5.37   0
  -1   3   5    6.72    4.85   0
  -6   7  23    8.04    7.77   0
  -5   8 -25   -0.05    7.30   0
  -5   8   2  238.19    9.53   0
  -4   7 -29   -0.24    7.41   0
  -3   6   6  451.72   11.37   0
  -8   8  23   -2.66    7.75   0
  -7   9   8  209.32   10.52   0
  -6   9 -15    2.49    7.90   0
  -6   9  -9   -0.01    7.97   0
  -5   6  25   -4.83    7.18   0
  -4   7   7   -6.07    7.63   0
  -3   4  23   11.87    6.18   0
  -2   3  19    4.66    4.26   0
  -2   5 -25    0.54    5.58   0
  -2   5   2  810.19   13.28   0
  -6   9 -18  185.82    9.61   0
  -6   9  -6   71.40    8.15   0
  -5   7  18  392.64   10.97   0
  -5   8   5   -5.75    8.00   0
  -7   8  21   -6.92    8.50   0
  -6   8  16  375.53   11.67   0
  -6   9  -3   -1.53    8.29   0
  -5   8 -28  166.27    9.22   0
  -6   9 -21   -2.71    7.72   0
  -6   9   0  325.16   11.31   0
  -4   6  20  646.73   13.43   0
  -3   3  27   -1.37    4.87   0
  -3   6   9   10.71    7.01   0
  -2   5   5    7.28    5.60   0
  -1   4 -11   26.04    5.72   0
  -5   8   8  488.51   12.62   0
  -4   7  10  392.66   10.81   0
  -3   5  19    0.91    6.31   0
  -1   3   8 3364.29   27.56   0
  -1   4 -14  702.76   13.53   0
  -6   9 -24  164.63    9.45   0
  -6   9   3   -2.70    8.10   0
  -1   4 -17   -0.34    5.22   0
  -1   4  -5    1.80    5.68   0
  -6   7  26  262.86   10.92   0
  -5   7  21   10.95    7.52   0
  -4   5  27    5.37    6.58   0
  -7   9  14  131.76    9.45   0
  -6   8  19   -4.09    7.98   0
  -6   9 -27   -3.94    7.93   0
  -5   8  11    5.38    8.05   0
  -3   6  12  789.61   13.86   0
  -2   5   8 2251.11   21.00   0
  -1   4  -2  904.65   14.56   0
  -7   8  24  261.83   11.09   0
  -6   9   6  182.20    9.23   0
  -5   6  28  421.42   11.92   0
  -4   7  13    9.96    6.56   0
  -1   4 -20  908.92   15.75   0
  -4   8 -12  267.69   10.91   0
  -3   7 -13    8.72    6.98   0
  -3   7  -7   -4.52    6.83   0
  -6   9   9   13.36    7.92   0
  -4   6  23    0.17    6.98   0
  -4   8 -15   -0.26    7.51   0
  -4   8  -6  207.97   10.25   0
  -3   4  26  681.82   13.87   0
  -3   7  -4  660.81   13.07   0
  -1   4   1   20.62    5.24   0
  -7   9  17    0.33    7.69   0
  -5   8  14  140.55    9.55   0
  -4   8 -18  175.26    9.44   0
  -4   8  -3    3.38    6.76   0
  -3   7 -19    0.78    6.85   0
  -3   7  -1    5.69    7.36   0
  -2   3  22  481.20   12.00   0
  -2   4  18 1064.09   15.91   0
  -1   3  11   15.50    5.71   0
  -6   8  22   93.83    9.32   0
  -4   8   0  521.59   12.64   0
  -3   5  22  305.87    9.59   0
  -3   6  15    0.71    6.93   0
  -2   5  11    3.08    5.56   0
  -2   6 -11    0.04    6.48   0
  -1   4 -23    8.71    5.48   0
  -6   7  29    4.69    7.51   0
  -5   7  24  316.51   10.59   0
  -5   9 -14   85.71    8.84   0
  -4   8 -21    0.97    7.28   0
  -3   7 -22  171.65    8.99   0
  -3   7   2  259.17   10.15   0
  -2   6 -14  288.24    9.86   0
  -2   6  -5   -6.08    6.69   0
  -1   4   4 1389.43   17.39   0
  -7   8  27    1.42    8.63   0
  -6   9  12  150.94    9.29   0
  -5   9 -17    4.62    7.75   0
  -5   9  -5   -8.03    7.63   0
  -4   8   3    0.28    7.60   0
  -2   6 -17   -6.13    6.42   0
  -5   9  -2  177.04    9.63   0
  -4   8 -24  318.80   10.84   0
  -2   6  -2  592.31   11.86   0
  -7   9  20  147.85   10.02   0
  -5   9 -20  102.22    8.60   0
  -5   9   1    3.39    8.14   0
  -4   5  30  291.97   10.59   0
  -3   7 -25    1.80    6.57   0
  -3   7   5    1.57    6.63   0
  -2   6 -20  654.41   13.28   0
  -2   6   1    3.29    6.80   0
  -5   6  31    1.53    6.92   0
  -4   6  26  356.31   11.35   0
  -4   7  19   -4.57    7.51   0
  -4   8   6  198.25    9.33   0
  -2   5  14  374.95   10.03   0
  -6   8  25   -4.16    8.41   0
  -5   9 -23    4.43    7.02   0
  -5   9   4  136.99    9.68   0
  -1   4   7   18.59    5.31   0
  -5   7  27   -1.47    7.94   0
  -4   8   9    4.81    8.20   0
  -3   5  25   -0.00    6.43   0
  -3   7   8  561.40   12.02   0
  -2   4  21    1.07    5.77   0
  -2   6 -23   -2.52    6.29   0
  -2   6   4  887.78   14.01   0
  -5   8  20  219.91   10.56   0
  -5   9   7    8.84    8.08   0
  -7   9  23   -2.05    7.31   0
  -6   9  18   91.79    9.56   0
  -6  10  -1   -4.17    7.70   0
  -3   4  29    1.09    6.08   0
  -4   7  22  170.38    9.65   0
  -3   7  11    8.91    7.75   0
  -2   6   7   -1.79    5.89   0
  -1   4  10 1180.18   16.21   0
  -1   5 -12  949.45   15.11   0
  -6  10   2   91.16    8.51   0
  -5   9  10  135.84    9.43   0
  -4   8  12  257.82    9.92   0
  -3   6  21    8.10    7.11   0
  -2   3  25    2.62    5.18   0
  -2   6 -26  345.29   10.75   0
  -1   5  -3   19.36    6.53   0
  -6   8  28  154.28    9.52   0
  -5   8  23    8.12    8.19   0
  -4   6  29   -6.47    6.95   0
  -2   6  10  370.61   10.57   0
  -1   5 -18  383.19   10.84   0
  -1   5   0 1459.99   17.15   0
  -6   9  21   -7.81    7.77   0
  -5   9  13    6.19    7.98   0
  -4   8  15   -1.81    7.82   0
  -3   7  14  360.05   10.42   0
  -5   7  30   67.60    8.49   0
  -3   8 -11   -0.95    7.96   0
  -1   5   3    7.38    6.44   0
   0   3 -12 2555.37   25.68   0
   0   3  -9    2.30    4.20   0
  -4   7  25    7.70    7.85   0
  -4   9 -10  136.71    9.15   0
  -3   5  28  409.84   11.35   0
  -3   8 -14  143.31    9.02   0
  -3   8  -5   -2.64    6.50   0
  -3   8  -2  244.45   10.57   0
  -2   4  24 1912.73   20.99   0
  -1   4  13    1.84    5.22   0
  -1   5 -21    3.45    5.88   0
  -4   9 -13    3.66    8.20   0
  -4   9  -4  126.13    8.88   0
  -4   9  -1   -5.70    8.27   0
  -3   6  24  619.21   13.53   0
  -3   8 -17    2.87    7.60   0
  -2   6  13    3.42    7.17   0
   0   3 -15    0.20    4.62   0
   0   3  -3   -1.68    4.51   0
  -4   9 -16  333.88   11.32   0
  -3   7  17    7.44    7.58   0
  -3   8   1   -7.27    6.73   0
  -2   7 -12  497.56   12.10   0
  -1   5   6  374.13    9.88   0
  -6   9  24  214.59   10.64   0
  -5   8  26  176.75    9.61   0
  -4   9 -19   -0.56    7.57   0
  -4   9   2  186.46   10.24   0
  -3   8 -20  224.95    9.88   0
  -3   8   4  284.12   10.96   0
  -2   7  -3   -2.20    6.42   0
   0   3   0 2731.03   24.48   0
  -2   7 -15    1.25    6.07   0
  -2   7   0  642.32   13.33   0
  -1   5 -24  871.75   15.42   0
  -5  10  -3   -4.49    6.95   0
  -4   9   5   -5.02    7.67   0
  -2   6  16  779.73   14.03   0
  -2   7 -18  395.70   11.43   0
  -1   4  16 2167.76   21.36   0
  -1   5   9    8.25    6.45   0
   0   3 -18 1261.05   19.46   0
  -5   9  19    1.44    7.89   0
  -5  10   0  204.52    9.36   0
  -4   6  32  344.49   11.36   0
  -4   9 -22   81.64    8.37   0
  -3   8 -23   -2.60    7.16   0
  -3   8   7   -2.70    6.98   0
  -2   7   3   -1.30    6.41   0
   0   3   3    0.35    4.69   0
  -5  10   3    8.26    7.71   0
  -4   7  28  388.13   12.23   0
  -4   8  21   -3.30    7.99   0
  -4   9   8  382.72   12.09   0
  -2   5  23    0.50    6.38   0
  -3   6  27    3.77    6.68   0
  -3   8  10  212.77   10.11   0
  -2   3  28 1316.58   19.21   0
  -2   7 -21    6.72    6.58   0
  -2   7   6  426.97   11.03   0
  -6   9  27    1.82    8.00   0
  -3   5  31   -4.29    6.16   0
  -2   4  27   -1.81    5.92   0
  -1   5  12 1204.78   16.32   0
  -1   6 -10  490.53   11.78   0
  -5   8  29    3.88    8.01   0
  -4   9  11    5.56    7.31   0
  -2   7   9    3.26    7.60   0
  -1   6 -13    5.67    6.56   0
  -1   6  -4  750.30   13.12   0
   0   3   6 2084.92   21.09   0
  -5   9  22   76.07    8.46   0
  -3   8  13    2.40    8.00   0
  -2   7 -24  290.71   10.33   0
  -1   6  -1    0.50    6.08   0
   0   4 -10  430.12   10.95   0
   0   4  -4 1599.22   18.69   0
  -4   8  24  321.08   11.35   0
  -3   7  23    1.51    7.62   0
  -1   6 -16  633.03   12.97   0
  -1   6   2  328.28   10.46   0
   0   4 -13    2.93    5.42   0
   0   4  -1    3.72    5.69   0
  -4   9  14   80.34    8.65   0
  -2   7  12  424.74   11.78   0
  -4   7  31   -2.13    7.77   0
  -2   5  26  649.34   13.23   0
  -1   5  15   -3.22    5.67   0
  -1   6 -19    3.84    6.36   0
  -1   6   5   -0.68    6.96   0
   0   3   9   -6.23    5.53   0
   0   4 -16 1520.03   19.34   0
   0   4   2 1462.60   17.72   0
  -3   8  16  434.82   12.42   0
  -5   9  25    4.32    8.14   0
  -4   9  17    6.07    7.85   0
  -3   6  30  191.49    9.54   0
  -5   8  32  208.57   10.33   0
  -3   9  -9   -3.91    7.42   0
  -3   9  -6  155.05   10.04   0
  -2   7  15    3.89    7.76   0
  -1   3  23    4.27    5.06   0
  -1   6   8  822.01   13.65   0
   0   4   5    4.10    5.12   0
  -4   8  27    3.89    8.02   0
  -3   7  26  158.72    8.67   0
  -3   9 -12  131.19    8.60   0
  -3   9   0  314.27   11.39   0
  -2   8  -7    8.02    7.82   0
  -1   5  18  745.00   13.65   0
  -1   6 -22  211.92    9.19   0
   0   4 -19   -1.52    5.26   0
  -3   8  19   -4.96    8.32   0
  -3   9 -15    2.25    7.20   0
  -3   9   3   -2.61    7.82   0
  -2   4  30  199.65    8.84   0
  -2   8 -10  187.93    9.83   0
  -2   8  -1   -8.57    7.85   0
   0   3  12 2101.55   21.21   0
  -2   8 -13    3.09    7.63   0
  -2   8   2  210.19   10.06   0
  -1   6  11    1.22    6.24   0
   0   4   8 1564.27   17.68   0
  -5   9  28   85.92    9.03   0
  -3   9 -18   88.86    8.63   0
  -3   9   6   59.39    8.42   0
  -2   6  25   -6.68    7.31   0
  -2   7  18  176.61    8.81   0
  -2   8 -16  372.60   11.37   0
  -4   7  34  181.74    9.53   0
  -2   5  29    0.72    6.39   0
  -2   8   5    4.38    7.17   0
   0   5  -8  994.14   15.17   0
  -3   9   9    0.65    8.46   0
  -1   6  14  429.89   10.76   0
   0   4 -22  647.09   14.00   0
   0   5 -11    3.55    6.09   0
   0   5  -2  348.95    9.65   0
  -4   8  30   89.70    8.55   0
  -4   9  23   10.63    8.40   0
  -3   6  33    4.42    7.02   0
  -3   7  29   14.32    8.05   0
  -2   8 -19   -5.19    7.18   0
  -2   8   8  443.10   11.48   0
  -1   7  -8  664.07   13.48   0
  -1   7  -2  347.66   10.70   0
   0   4  11   -6.10    5.14   0
   0   5   1   -1.37    5.63   0
  -3   9  12  176.68    9.80   0
  -1   7 -11   14.66    6.20   0
  -1   7   1    6.66    7.21   0
   0   3  15    1.86    5.41   0
   0   5 -14  633.22   12.37   0
   0   5   4 1202.34   16.20   0
  -2   8  11    3.75    8.06   0
  -1   4  25   -3.24    5.77   0
  -1   7 -14  133.56    8.61   0
  -1   7   4  269.33   10.50   0
  -1   3  26  524.69   12.15   0
  -1   6  17    4.28    6.23   0
   0   5 -17    0.61    5.75   0
  -3   8  25   -5.42    7.82   0
  -2   6  28  445.25   11.26   0
  -1   7 -17   -2.82    7.02   0
  -1   7   7   15.11    7.42   0
   0   4  14  328.40    9.35   0
   0   5   7    2.36    5.75   0
  -4   9  26  147.66    9.71   0
  -2   8  14  122.94    9.29   0
  -3   7  32  279.91   11.17   0
  -2   5  32  714.07   13.99   0
  -2   7  24  458.23   12.23   0
  -1   5  24  668.31   12.60   0
   0   5  10  720.92   13.14   0
  -4   8  33    0.95    7.95   0
  -1   6  20  515.69   12.10   0
  -1   7 -20  234.52    9.67   0
   0   5 -20  644.32   13.36   0
  -3   6  36  283.89   11.10   0
  -3   9  18  176.53    9.37   0
  -2   8  17   -3.47    7.75   0
   0   4  17   -0.44    6.10   0
  -3   8  28  155.59    9.98   0
  -1   7  13    6.52    7.33   0
   0   6  -6  250.75    9.76   0
  -2   6  31    1.20    7.05   0
  -2   9  -5   -0.29    8.19   0
  -1   4  28  712.42   13.53   0
   0   5  13    0.08    5.82   0
   0   6  -9   -1.13    6.59   0
   0   6   0  893.69   14.83   0
  -4   9  29   -0.88    7.42   0
  -2   7  27   -1.57    8.03   0
  -2   9  -8  215.94   10.00   0
  -2   9   1   -1.07    7.57   0
   0   6 -12  415.90   11.42   0
   0   6   3   -6.64    7.30   0
  -2   8  20  191.28   10.23   0
  -2   9 -11    7.69    7.81   0
  -2   9   4  197.09    9.86   0
  -1   5  27    4.35    6.73   0
  -1   7  16  636.15   13.53   0
  -2   9 -14  125.40    9.05   0
  -1   3  29   -0.01    5.84   0
   0   2  19    0.18    4.74   0
   0   5  16  708.86   13.20   0
   0   6 -15   -6.79    6.50   0
   0   6   6  405.29   10.58   0
   1   3  -2  870.90   13.94   0
  -3   7  35    0.93    7.11   0
  -2   9   7  -15.18    7.39   0
  -1   8  -6  180.92    9.59   0
   0   3  21   -0.78    5.41   0
   1   2  -1   28.09    5.83   0
   1   3  -8 2721.47   24.40   0
   1   3   1   22.28    5.19   0
  -3   8  31    1.73    7.44   0
  -3   9  24  159.26   10.04   0
  -2   5  35    6.20    6.32   0
  -2   9 -17   -2.23    7.84   0
  -1   8  -9   -3.19    7.71   0
  -1   8   3    0.82    7.73   0
   0   6   9   -6.44    6.44   0
   1   3 -11   17.48    5.51   0
  -1   7  19    3.51    8.28   0
  -1   8 -12  178.99    9.19   0
   0   6 -18  366.02   10.80   0
   1   2   2  704.05   13.31   0
   1   3   4 1373.17   16.80   0
  -2   7  30  194.44    9.81   0
  -1   6  26  235.61    9.81   0
  -1   8   6  103.61    8.03   0
   0   5  19    4.39    6.36   0
   0   6  12  368.46   11.02   0
   1   4  -6  895.84   14.57   0
   1   4   0 1465.98   17.65   0
  -2   6  34  176.80    9.40   0
  -2   9  13   -2.62    7.67   0
  -1   4  31    9.29    5.97   0
  -1   8 -15    2.40    6.78   0
  -1   8   9    1.81    7.84   0
   1   2   5   10.51    5.35   0
   1   3 -14  697.55   13.74   0
   1   3   7   12.92    5.19   0
   1   4  -9   -0.23    5.68   0
   1   4   3   -2.82    6.23   0
  -1   5  30  168.94    8.96   0
  -3   9  27   -2.05    7.28   0
  -1   7  22  162.52    9.82   0
  -1   8  12  216.46   10.40   0
   0   6 -21    2.68    6.10   0
   0   6  15    2.27    7.12   0
   1   4 -12  960.11   15.43   0
   1   4   6  383.81   10.45   0
  -2   8  26  195.52    9.68   0
  -2   9  16  149.40    8.96   0
  -1   8 -18  119.07    8.77   0
   0   3  24 1567.89   18.71   0
   0   7  -4  173.91    9.88   0
   1   3  10 1166.78   15.46   0
  -3   8  34  129.22    9.41   0
   0   2  22 1854.59   21.61   0
   0   5  22  235.76    8.92   0
   0   7  -7   -1.44    7.50   0
   0   7   2  227.65   10.34   0
   1   2   8 3410.27   27.13   0
   1   4   9    9.57    6.44   0
  -2   7  33   -3.89    7.77   0
  -1   6  29    2.11    6.21   0
  -1   8  15  -11.52    7.96   0
   0   6  18  276.04   10.51   0
   0   7 -10  219.48    9.92   0
   0   7   5   -1.58    7.77   0
   1   3 -17   -2.48    4.92   0
   1   4 -15   17.81    6.01   0
  -2   9  19    6.06    8.05   0
   0   7 -13    4.10    7.30   0
   0   7   8  592.69   13.56   0
   1   5  -7    2.40    6.43   0
   1   5  -1    3.86    5.96   0
   1   5   2  341.62   10.56   0
   1   3  13    6.16    5.18   0
   1   4  12 1196.01   15.86   0
   1   5   5   -0.62    7.03   0
  -2   6  37   -3.31    7.21   0
  -2   8  29    0.46    7.50   0
  -1   5  33    3.77    6.44   0
  -1   8  18  220.51   10.17   0
   0   7  11   -4.32    7.82   0
   1   2  11   16.26    4.92   0
   1   5 -10  479.08   11.17   0
  -2   9  22   41.62    7.97   0
   0   6  21    7.76    7.26   0
   0   7 -16  493.29   12.26   0
   1   4 -18  391.44   10.94   0
   1   5   8  815.87   14.08   0
   1   5 -13   10.15    6.42   0
  -3   8  37    1.70    7.73   0
  -1   6  32  368.97   11.62   0
  -1   7  28  152.57    9.50   0
  -1   8  21   -5.72    8.18   0
  -1   9  -4  169.74    9.17   0
  -1   9  -1   -0.95    7.39   0
   0   3  27    0.43    5.45   0
   0   7  14  127.53    8.60   0
   1   3 -20  846.97   16.33   0
   1   3  16 2123.23   20.38   0
   1   4  15    3.86    5.66   0
   1   5  11    8.27    6.78   0
  -2   7  36  162.01    9.59   0
  -1   9  -7    7.42    7.56   0
  -1   9   5   -4.81    7.69   0
   0   7 -19    0.30    6.84   0
   1   2  14 1686.72   19.35   0
  -2   8  32  176.44    9.57   0
  -1   9 -10   83.92    8.46   0
  -1   9   8  161.66    9.34   0
   1   5 -16  630.56   13.20   0
   0   2  25   -0.98    4.81   0
   0   4  29    2.35    5.93   0
   0   5  28  625.88   12.99   0
   0   7  17   -5.08    7.27   0
   1   4  18  746.17   13.16   0
   1   5  14  431.57   10.68   0
   1   6  -5   11.16    7.42   0
   1   6   1    6.45    7.30   0
  -1   9  11    4.02    7.57   0
   1   4 -21    4.22    5.26   0
   1   6  -8  671.80   13.52   0
   1   6   4  268.17   10.40   0
  -1   5  36  472.91   12.04   0
  -1   7  31    7.86    7.99   0
   0   8  -5  -10.96    7.33   0
   0   8  -2   95.17    8.90   0
   1   3  19   15.83    5.21   0
   1   6   7    9.69    7.38   0
   0   7  20  159.90    8.69   0
   0   8  -8  253.54   10.00   0
   0   8   4  202.09    9.61   0
   1   5 -19   -3.30    5.97   0
   1   5  17    3.67    6.09   0
   1   6 -11    3.21    6.78   0
  -1   6  35    1.51    7.34   0
   0   8   7    7.25    7.42   0
   1   2  17   12.07    4.70   0
   1   4  21   11.86    6.75   0
   1   6  10  229.76    9.26   0
  -2   8  35   -0.24    7.34   0
  -1   4  37    1.80    6.37   0
  -1   8  27   -9.50    7.98   0
   0   3  30  555.51   12.22   0
   0   8 -11   -3.35    7.51   0
   0   8  10  157.72    9.35   0
   1   6 -14  145.49    8.57   0
  -2   7  39    4.02    7.54   0
   0   5  31   -7.08    6.93   0
   0   7  23    2.84    7.78   0
   1   5  20  509.84   12.06   0
   1   6  13    3.62    6.72   0
   0   4  32  468.04   11.57   0
   0   8 -14  114.26    8.25   0
   0   8  13   -1.61    7.75   0
  -1   7  34  179.87    9.37   0
   1   6  16  603.55   13.35   0
   0   6  30  141.30    9.10   0
   0   8  16  176.77    9.68   0
   1   6 -17    3.03    6.47   0
   2   3  -1   -1.19    5.80   0
   2   3   2  798.08   13.53   0
  -1   8  30   43.98    8.19   0
   0   2  28 1087.76   17.09   0
   1   5  23    5.76    6.88   0
   1   7  -3    7.77    7.46   0
   2   3   5    6.90    6.21   0
   2   4   1    0.09    6.17   0
  -1   5  39    2.79    6.34   0
  -1   6  38  125.58    8.84   0
   1   6  19    1.89    7.58   0
   1   7  -6  200.93    9.62   0
   1   7   6  106.41    8.90   0
   2   3  -7    6.21    5.80   0
   2   4  -5    3.82    6.28   0
   2   4   4  930.36   14.00   0
   0   8  19   12.75    7.91   0
   1   3  25   -2.21    5.78   0
   1   7  -9    1.20    7.53   0
   1   7   9    2.84    7.98   0
   2   3   8 2284.23   20.77   0
   2   4   7    1.47    5.70   0
   0   5  34  264.30   10.26   0
   2   4  -8  864.85   13.95   0
   2   4  10  346.24   10.39   0
   0   3  33   -4.07    5.54   0
   1   4  27   -0.68    6.68   0
   1   7 -12  180.24    9.56   0
   1   7  12  197.00    9.50   0
   2   2   0 4255.79   29.48   0
   2   2   3    2.27    5.65   0
   2   3 -10  750.82   13.18   0
   2   3  11    5.97    5.42   0
  -1   7  37    5.05    7.76   0
  -1   8  33    3.86    8.03   0
   0   4  35    3.17    6.11   0
   0   6  33   -8.64    7.67   0
   0   7  29   -7.31    8.15   0
   0   8  22   65.54    8.50   0
   2   2   6  854.13   13.98   0
   2   4 -11    1.90    6.12   0
   2   5  -3    1.27    7.09   0
   2   5   3    5.82    6.26   0
   2   5   6  438.81   11.62   0
   1   2  23   -0.95    4.46   0
   1   7  15   -1.99    8.34   0
   2   2  -6  854.36   14.51   0
   2   3  14  398.36   10.50   0
   2   4  13   -3.06    5.89   0
   1   7 -15   -0.54    7.02   0
   2   2   9   -1.16    5.75   0
   2   3 -13   -4.23    5.41   0
   2   5   9    5.05    6.35   0
   1   3  28  736.86   13.40   0
   1   6  25    2.60    7.68   0
   1   7  18  201.47   10.16   0
   2   4 -14  299.52    9.90   0
   2   4  16  751.16   13.29   0
   2   5  -9    6.05    5.87   0
   2   5  12  408.24   11.37   0
   0   8  25   -5.10    7.00   0
   1   5  29   -7.20    7.41   0
   2   2  -9   -0.41    4.88   0
   0   5  37   -3.57    7.05   0
   0   7  32  243.79   11.03   0
   1   4  30  185.98    8.92   0
   2   2  12  809.61   13.22   0
   2   3  17   -2.12    5.48   0
   2   5 -12  482.19   11.98   0
   2   5  15    4.79    7.52   0
   0   2  31   -2.42    4.64   0
   0   6  36  154.83    9.35   0
   1   7  21    0.39    7.85   0
   1   8   2  105.36    9.08   0
   2   4  19    3.66    6.62   0
   2   6  -1    1.01    7.79   0
  -1   7  40  192.03   10.15   0
   1   8  -4  170.10    8.97   0
   1   8  -1   -4.17    7.82   0
   2   3 -16 1816.84   21.23   0
   2   4 -17   -0.50    6.41   0
   2   6  -4  239.91   10.07   0
   2   6   5   -0.39    6.64   0
   2   6   8  439.35   12.54   0
   0   4  38  132.29    8.31   0
   1   2  26  522.21   11.32   0
   1   8  -7    1.37    7.98   0
   1   8   8  144.53    8.85   0
   2   2 -12  817.66   14.89   0
   2   2  15   -1.65    5.13   0
   2   3  20  629.56   12.29   0
   2   5 -15   -0.53    6.35   0
   2   5  18  184.44    9.51   0
   2   6  -7    9.87    7.51   0
   1   7  24  202.06   10.44   0
   1   8  11    3.24    8.15   0
   2   6  11    4.85    6.71   0
   0   7  35    0.32    7.34   0
   1   3  31    5.48    6.15   0
   1   5  32  391.87   10.49   0
   1   8 -10   82.61    8.85   0
   2   4  22  365.44   10.05   0
   2   6 -10  185.65    9.65   0
   2   6  14  113.30    9.62   0
   1   4  33    2.71    6.62   0
   2   5  21   -1.40    7.66   0
   0   5  40  191.84    9.88   0
   0   6  39   -2.89    8.46   0
   1   6  31   -3.08    7.76   0
   2   2  18 1069.45   14.93   0
   2   3  23    6.93    6.14   0
   2   5 -18  385.33   11.53   0
   2   1   1   35.11    5.82   0
   2   1   4 3228.23   27.18   0
   2   3 -19    9.09    5.75   0
   2   6 -13    5.58    6.87   0
   2   6  17   -1.13    7.24   0
   2   2 -15    0.56    4.61   0
   2   4  25    3.94    6.09   0
   2   5  24  448.35   11.90   0
   1   1  21   11.09    4.44   0
   1   2  29    5.38    5.76   0
   1   5  35   -5.24    7.42   0
   2   1   7    3.62    4.60   0
   2   6  20  184.69    9.95   0
   2   7   1   -4.12    7.42   0
   0   7  38   29.37    7.66   0
   2   2  21   -0.84    5.04   0
   2   7   7   -1.46    7.26   0
   2   7  10  170.29   10.12   0
   0   2  34  272.88    9.98   0
   1   3  34  527.79   12.08   0
   1   6  34  165.34    9.55   0
   1   7  30   41.55    8.16   0
   2   1  10 2083.57   21.37   0
   2   7  -5    3.70    7.74   0
   3   3   3    8.62    6.62   0
   3   3   6  472.06   11.41   0
   3   4   5   16.40    7.02   0
   1   4  36  465.25   11.38   0
   2   6  23    2.21    7.91   0
   2   7  -8  213.40    9.89   0
   2   7  13    1.11    8.00   0
   3   3  -3    9.49    6.29   0
   3   3   9   13.76    6.65   0
   3   4  -4  667.69   13.27   0
   3   4   8  556.98   11.80   0
   2   1  13   18.33    5.77   0
   3   4  11    5.09    6.43   0
   0   6  42  130.63    8.93   0
   2   7  16  158.29    9.10   0
   3   3  -6  468.54   11.38   0
   3   3  12  776.68   12.97   0
   3   4  -7    3.41    6.82   0
   2   6  26  184.75   10.25   0
   2   7 -11   -2.37    6.61   0
   3   4  14  360.16   10.30   0
   3   5  -2  230.04   10.02   0
   3   5   7   -2.37    6.71   0
   1   1  24 1785.54   21.43   0
   1   5  38  135.68    9.14   0
   1   7  33    2.01    7.34   0
   2   2 -18 1016.96   17.94   0
   2   3  29    4.60    6.55   0
   2   7  19   13.72    8.16   0
   3   2   1   -2.21    5.77   0
   3   2   4  739.09   12.67   0
   3   2   7   12.13    6.00   0
   3   3  15   -1.03    5.98   0
   3   5  -5   -2.32    7.56   0
   3   5  10  206.54    9.15   0
   1   2  32 1209.66   17.35   0
   1   6  37  -10.65    7.93   0
   2   1  16 2089.09   21.07   0
   2   4  31   -5.18    6.11   0
   3   2  10  764.73   13.28   0
   3   3  -9    2.94    5.10   0
   3   4  17    1.79    6.55   0
   3   5  13   10.25    6.84   0
   2   7  22   52.41    9.04   0
   3   3  18  443.26   11.35   0
   3   5  -8  494.23   12.40   0
   1   3  37   -1.71    5.97   0
   1   4  39    5.20    6.71   0
   3   2  -5    7.16    5.82   0
   3   2  13    3.48    6.37   0
   3   4  20  420.28   11.44   0
   3   5  16  441.09   11.35   0
   2   2  27    5.48    5.05   0
   3   3 -12  768.63   14.10   0
   3   4 -13    3.51    6.40   0
   3   6   3    6.58    7.94   0
   2   3  32  702.20   13.49   0
   2   5  33   -0.30    7.64   0
   3   2  16 1856.49   19.30   0
   3   3  21    0.89    7.16   0
   3   5 -11    3.75    6.62   0
   3   5  19   -1.64    6.81   0
   3   6   0  300.98   11.10   0
   3   6   9    5.37    7.70   0
   1   5  41    0.44    8.28   0
   2   4  34  165.62    9.27   0
   3   2  -8 2225.52   21.71   0
   3   4  23  -10.26    7.73   0
   3   6  -3    1.84    8.17   0
   3   6  12  170.55    9.53   0
   1   6  40  190.81    9.48   0
   2   6  32  174.32   10.20   0
   3   5  22  120.61    9.14   0
   3   6  -6  172.86    9.54   0
   3   6  15   -3.60    8.16   0
   1   1  27   -0.30    5.40   0
   3   2  19    5.92    6.55   0
   3   3  24  609.06   12.79   0
   3   4 -16  435.77   12.15   0
   3   5 -14  140.56    9.50   0
   2   2  30  183.17    8.58   0
   3   3 -15    3.97    5.75   0
   3   4  26  162.57    9.64   0
   3   6  -9    0.35    8.15   0
   3   6  18  190.56    9.89   0
   1   2  35   -0.16    5.43   0
   1   4  42  217.20   10.13   0
   2   5  36  164.15    9.27   0
   3   2 -11    4.18    4.74   0
   3   5  25    5.32    7.81   0
   1   3  40  448.04   12.23   0
   2   3  35   -0.36    6.89   0
   3   1   5    1.92    5.79   0
   3   2  22  294.71    9.87   0
   3   6  21    1.85    8.39   0
   2   4  37    7.21    7.28   0
   2   6  35   -1.35    7.31   0
   3   1   2  911.24   14.24   0
   3   1   8 2813.67   23.48   0
   3   1  -1   25.50    5.94   0
   3   1  11   26.21    5.58   0
   1   6  43   -1.27    7.27   0
   3   3 -18  402.68   11.73   0
   3   5  28  159.32    9.78   0
   3   6  24  172.90    9.64   0
   4   4   6  201.54    9.96   0
   2   1  25    5.10    5.43   0
   3   1  14  717.55   12.57   0
   3   2 -14  401.47   11.02   0
   4   3   4  638.12   12.35   0
   4   3   7    2.91    6.23   0
   4   3  10  416.24   11.24   0
   2   2  33    1.87    6.05   0
   2   5  39   -0.18    7.03   0
   3   3  30  197.93    9.34   0
   4   3  -2  254.43    9.60   0
   4   3  13    3.82    7.23   0
   4   4  12  280.87    9.87   0
   1   1  30  612.22   13.57   0
   3   1  17   -6.47    5.96   0
   3   6  27    4.00    7.55   0
   4   4  -3    1.10    6.60   0
   4   4  15    0.06    7.81   0
   2   3  38   98.24    7.95   0
   2   4  40  233.43   10.18   0
   4   2   5    0.98    6.81   0
   4   3  -5   10.41    6.94   0
   4   3  16  425.79   10.82   0
   4   4  -6  218.06    9.62   0
   4   5   2  165.43    9.53   0
   4   5   8  362.09   11.70   0
   4   2   2  614.31   11.89   0
   4   2   8  873.90   13.74   0
   4   4  18  207.35    9.12   0
  -6   9   6  165.09    9.97   0
  -4   8   3    3.85    7.84   0
  -4   9 -28   82.75    8.03   0
  -4   9 -19   12.30    7.95   0
  -3   8 -35    1.67    7.28   0
  -3   8 -11   -3.14    7.74   0
  -2   7 -12  490.82   12.06   0
  -1   6 -25    2.49    6.91   0
  -4   6  17   -2.30    6.54   0
  -4   9 -16  328.74   10.92   0
  -1   6 -28  414.20   11.22   0
  -1   6 -19   -2.04    6.86   0
  -7   9  11   -2.28    8.32   0
  -5   8  11    4.81    7.82   0
  -4   9 -13    0.71    8.33   0
  -3   6  12  777.99   14.07   0
  -3   7   5    8.05    7.11   0
  -3   8  -8  504.49   12.85   0
  -2   7 -36  243.93    9.96   0
  -2   7  -9    4.32    7.04   0
  -2   6   4  893.78   13.89   0
  -1   5   0 1472.41   17.19   0
  -1   6 -31    3.95    6.49   0
  -4   5  21    8.60    5.86   0
  -4   7  13    8.28    6.38   0
  -4   9 -10  137.77    9.15   0
  -6   8  16  364.03   11.90   0
  -6   9   9   10.02    7.57   0
  -5   7  18  412.82   11.96   0
  -3   8  -5   -3.42    7.78   0
  -2   7  -6  160.52    8.29   0
  -1   4   7   17.57    6.05   0
  -1   6 -34  195.51    9.36   0
   0   4  -7   -1.49    5.73   0
  -5   9   4  126.86    9.35   0
  -4   9  -7    3.95    8.24   0
  -2   4  15    1.21    5.27   0
  -1   6 -10  479.71   10.99   0
   0   3   0 2780.04   24.63   0
  -3   4  20  898.69   15.92   0
  -4   9  -4  131.17    9.76   0
  -3   8  -2  232.00   10.24   0
  -2   6   7    3.67    6.80   0
  -2   7  -3    1.39    6.34   0
  -1   5   3   -1.50    6.24   0
  -1   6  -7   -4.29    6.65   0
  -5   8  14  154.82    9.27   0
   0   4  -4 1669.18   18.58   0
  -4   8   9    2.87    7.65   0
  -3   6  15   -1.26    5.74   0
   0   5 -26  226.13    9.24   0
   0   5 -23    2.66    6.07   0
   0   5 -20  680.64   13.29   0
  -6   9  12  124.89    9.36   0
  -5   9   7    1.32    7.98   0
  -4   7  16  430.06   11.84   0
  -4   9  -1   -5.16    8.30   0
  -3   5  19    3.08    5.93   0
  -2   7   0  661.23   13.38   0
  -1   6  -4  757.24   13.55   0
   0   5 -17   -4.46    5.28   0
  -5  10  -6   87.28    8.43   0
  -3   8   1   -2.48    6.78   0
   0   5 -29    2.22    5.94   0
   0   5 -14  639.31   12.47   0
  -2   5  14  385.22   10.58   0
  -1   4  10 1155.36   15.97   0
  -3   9 -24  207.01    9.95   0
  -3   9 -21   -2.79    7.90   0
  -2   8 -25   -0.35    7.10   0
  -2   8 -22   97.94    8.63   0
  -2   8 -19   -1.07    7.56   0
  -1   5   6  391.48   10.63   0
   0   3   3   -0.82    4.56   0
   0   4  -1   -0.72    5.54   0
  -5   7  21    2.09    7.10   0
  -5  10  -3    5.83    6.90   0
  -4   9   2  178.83    9.76   0
  -3   9 -27    4.36    6.86   0
  -3   9 -15   11.76    8.14   0
  -2   6  10  348.05    9.95   0
  -2   8 -28  156.93    8.97   0
  -1   6  -1   16.54    6.95   0
  -5   8  17   -4.20    7.36   0
  -5   9  10  139.07    9.54   0
  -4   8  12  258.89   10.57   0
  -3   8   4  272.63    9.84   0
  -2   7   3    6.01    6.48   0
  -2   8 -13   -8.15    7.86   0
   1   3 -20  942.82   15.99   0
  -6   9  15    4.90    8.52   0
  -3   9 -12  140.24    8.75   0
  -2   8 -31   -1.84    7.20   0
  -1   7 -23    1.41    6.94   0
  -1   7 -20  248.63   10.06   0
   0   5  -8  948.32   14.20   0
   1   3 -23    9.63    5.28   0
   1   3 -17    3.86    5.09   0
  -3   6  18  452.31   11.61   0
  -3   9  -9    5.82    8.23   0
  -2   4  18 1073.43   16.26   0
  -2   8 -10  174.85    9.05   0
  -1   7 -26  271.65   10.34   0
  -1   7 -17   -0.47    6.27   0
   1   3 -26  604.38   13.59   0
  -4   7  19    1.88    6.73   0
  -1   6   2  352.71   10.40   0
  -1   7 -29   -0.05    6.66   0
   1   3 -14  713.19   13.46   0
  -3   7  14  365.83   10.49   0
  -3   8   7   -1.13    7.66   0
  -3   9  -6  164.20   10.11   0
  -2   7   6  448.32   11.73   0
  -2   8  -7    3.99    6.72   0
  -1   5   9   13.11    6.62   0
  -1   7 -11    8.19    7.40   0
   0   4   2 1469.42   17.08   0
   0   5  -5    0.77    5.37   0
  -5   9  13    4.81    8.09   0
  -4   6  23    2.89    6.87   0
  -1   7 -32  242.88    9.51   0
  -4   8  15   -3.40    7.34   0
  -2   5  17    3.83    5.95   0
  -2   8  -4  236.17   10.24   0
  -1   7  -8  687.85   13.50   0
   0   3   6 2078.27   20.86   0
   1   3 -11   25.42    5.55   0
  -3   4  23   12.41    5.40   0
  -3   5  22  284.97    9.90   0
  -3   9  -3    0.54    7.71   0
  -5   8  20  217.55   10.29   0
  -1   6   5    4.76    6.07   0
  -1   7  -5    5.90    7.62   0
   0   5  -2  339.17    9.54   0
   0   6 -21   -0.54    6.87   0
  -5  10   6   80.85    8.19   0
  -2   7   9    7.45    7.33   0
  -2   8  -1    1.22    8.06   0
   0   6 -24  464.97   11.78   0
   0   6 -18  383.01   10.34   0
   0   6 -15  -11.20    7.01   0
  -3   9   0  301.77   10.90   0
   0   4   5    0.28    5.08   0
   0   6 -27   -6.46    6.76   0
  -4  10  -2   78.51    8.37   0
  -3   6  21    1.80    6.59   0
  -3   7  17    7.76    6.25   0
  -1   5  12 1183.49   16.00   0
  -1   7  -2  361.93   10.66   0
   0   6 -12  409.07   10.54   0
   1   4 -24  925.70   15.83   0
   1   4 -21    6.18    5.60   0
   1   4 -18  404.42   10.81   0
  -4   7  22  164.84    9.17   0
  -4   9  11   -2.35    7.70   0
  -2   6  16  782.29   14.02   0
   0   5   1   -1.80    5.56   0
   1   4 -15   14.47    5.96   0
  -4   8  18  200.86    9.96   0
  -3   9   3    3.20    7.62   0
  -1   6   8  850.68   13.79   0
   1   3  -5    0.31    5.38   0
   1   4 -12  988.46   14.95   0
  -3   8  13   -3.94    8.13   0
  -2   7  12  418.48   11.64   0
  -2   4  21   -3.18    5.21   0
  -2   5  20  591.74   12.56   0
  -2   9 -23   -4.06    7.33   0
  -2   9 -20  133.94    8.76   0
  -2   9 -17   -2.39    7.22   0
   0   3   9    3.53    4.58   0
   0   6  -6  242.24    8.89   0
  -2   8   5   11.16    7.73   0
   0   4   8 1626.43   18.14   0
   0   5   4 1167.38   15.70   0
   1   4  -9    1.67    5.09   0
  -3   9   6   72.14    8.56   0
  -2   9 -11   -2.77    7.30   0
  -1   8 -21   -4.99    7.06   0
  -4   9  14   90.63    9.29   0
  -3   7  20  440.96   11.86   0
  -1   3  17   10.61    4.96   0
  -1   6  11    0.65    7.17   0
  -1   7   4  275.33   10.10   0
  -1   8 -24  256.40   10.20   0
  -1   8 -15   -7.19    7.01   0
   0   6  -3    7.87    5.95   0
   1   3  -2  869.63   13.59   0
  -5   9  19   -5.22    7.73   0
  -2   9  -8  220.82    9.39   0
  -1   8 -27   -4.57    6.66   0
   1   2  -1   37.07    5.75   0
  -4   8  21   -1.36    7.48   0
  -2   6  19   12.03    6.59   0
  -2   9  -5    8.71    7.94   0
  -1   8  -9   -3.12    7.97   0
  -4   7  25    3.82    7.63   0
  -3   6  24  620.13   13.29   0
   0   5   7    2.16    6.26   0
   0   6   0  925.74   14.15   0
   1   5 -19    1.91    6.25   0
  -1   7   7    6.07    7.79   0
  -1   8  -6  179.10    9.11   0
   1   4  -3   19.89    5.52   0
   1   5 -22  208.16    9.03   0
  -2   9  -2   81.63    8.91   0
   0   4  11   10.37    5.78   0
   0   7 -22  105.04    8.09   0
   0   7 -19    8.28    7.44   0
   0   7 -16  507.37   12.49   0
   1   3   1   23.82    5.75   0
   1   5 -25    4.66    6.05   0
   1   5 -13   11.29    5.57   0
  -4   9  17   -6.12    8.07   0
  -1   8  -3    5.02    8.10   0
   0   3  12 2009.60   20.35   0
   0   6   3    2.28    7.37   0
   0   7 -25   -2.38    6.61   0
   0   7 -13   -7.10    6.31   0
   1   5 -10  485.55   11.53   0
  -2   5  23    2.59    5.95   0
  -2   8  11   -2.91    6.80   0
  -3   7  23    3.59    6.87   0
  -2   9   1   -0.12    7.31   0
  -1   4  19   14.27    4.89   0
   1   4   0 1392.95   16.52   0
  -3   8  19    3.13    6.84   0
  -2   7  18  179.20    8.60   0
  -1   8   0  404.97   10.90   0
   0   5  10  706.06   12.54   0
   1   2   2  683.40   12.85   0
  -4   8  24  319.94   11.59   0
  -2   4  24 1848.30   21.35   0
  -2   6  22  372.25   11.06   0
   0   6   6  405.63   11.22   0
   0   7  -4  181.27    9.71   0
   1   5  -4  767.86   13.41   0
  -2   9   4  195.75    9.52   0
   1   3   4 1297.44   16.19   0
  -4   9  20  112.55    8.78   0
  -1   8   3    4.83    6.77   0
   0   4  14  316.33    9.61   0
   1   4   3    3.60    6.14   0
  -3   6  27    1.94    6.31   0
  -3   9  15   -4.26    7.49   0
  -1   3  20 1420.37   18.62   0
   0   7  -1   -6.68    7.48   0
   1   5  -1    7.24    6.77   0
  -2   9   7    4.58    7.62   0
  -1   7  13   -0.53    7.71   0
  -2   7  21    2.51    7.45   0
  -1   8   6   96.27    9.04   0
   0   3  15   -0.29    5.35   0
   0   5  13   -1.94    5.71   0
   0   6   9   -0.20    6.21   0
   1   6 -20  237.22    9.72   0
   1   6 -17    2.99    6.86   0
   1   6 -14  144.56    8.79   0
  -1   5  21    6.44    6.43   0
   0   7   2  240.08   10.36   0
   1   2   5    9.10    4.62   0
   1   6 -23    2.62    6.29   0
  -3   7  26  145.05    8.99   0
  -2   8  17    5.43    7.67   0
   1   3   7    9.63    5.11   0
   1   4   6  366.06    9.48   0
   1   5   2  341.17    9.63   0
   1   6  -8  638.81   13.16   0
  -2   5  26  620.83   13.19   0
  -2   9  10  154.87    9.24   0
  -1   4  22  361.32    9.65   0
  -1   9  -7    7.41    7.92   0
  -4   9  23    5.03    7.06   0
  -3   9  18  195.51    9.63   0
  -2   6  25   -1.12    5.90   0
  -1   6  20  487.24   12.02   0
  -1   7  16  640.93   13.49   0
  -1   8   9    0.35    8.30   0
  -1   9  -4  174.14    9.60   0
   0   7   5    2.86    7.47   0
   0   8 -20  138.88    9.43   0
   0   8 -17   -5.06    6.93   0
   0   8 -14  126.52    8.69   0
   2   3 -19    2.95    5.19   0
   2   3 -16 1841.24   20.82   0
   2   3 -13   -0.27    5.37   0
   0   4  17   -1.20    5.10   0
   0   6  12  367.91   10.17   0
   0   8 -23   -4.49    7.62   0
   0   8 -11   -3.53    7.67   0
   0   5  16  728.62   12.59   0
   1   5   5   -7.79    5.89   0
   1   6  -2  348.43   10.71   0
   2   2 -18 1035.75   17.24   0
   2   2 -15   -1.89    4.63   0
   2   3 -22  277.88    9.59   0
   2   3 -10  738.08   12.88   0
  -1   9  -1    7.76    7.12   0
   1   4   9   15.60    5.64   0
   2   2 -21   -0.98    5.07   0
   2   2 -12  797.68   14.47   0
  -3   8  25    7.36    7.67   0
  -2   7  24  442.23   12.04   0
  -2   8  20  181.39    9.96   0
  -1   8  12  198.77    9.92   0
   0   7   8  617.13   12.67   0
   1   3  10 1151.90   15.57   0
   2   3  -7    5.97    4.77   0
   2   4 -20  634.59   13.50   0
   2   4 -17    0.22    5.94   0
   2   4 -14  304.85    9.70   0
  -2   4  27   -0.93    5.36   0
  -1   9   2   92.03    8.69   0
   0   8  -2  106.70    9.00   0
   1   2   8 3388.78   26.76   0
   1   6   1    6.43    6.32   0
   2   2  -9    2.21    4.09   0
   2   4 -11   -1.38    5.06   0
  -3   9  21    6.95    7.95   0
  -1   5  24  645.87   12.93   0
   0   6  15    4.65    6.26   0
   1   5   8  834.42   13.36   0
   2   4  -8  847.26   14.03   0
  -3   7  29    8.75    6.67   0
  -1   6  23    3.64    6.86   0
  -1   3  23    0.20    4.85   0
  -1   9   5   -7.44    7.76   0
   0   5  19   -1.96    6.53   0
   0   7  11  -12.56    8.36   0
   0   8   1    0.08    7.22   0
   1   6   4  268.70    9.49   0
   1   7 -18  113.52    8.48   0
   1   7 -15   -0.13    7.63   0
   1   7 -12  167.75    9.32   0
   2   4  -5   -2.24    5.38   0
  -2   6  28  428.29   11.68   0
  -1   4  25   -4.01    5.59   0
  -1   8  15    1.92    7.42   0
   1   4  12 1163.93   15.15   0
   1   7 -21   -1.35    7.06   0
   1   7  -9   -5.09    7.17   0
  -2   5  29    2.61    5.75   0
  -2   8  23   -1.35    7.96   0
   0   8   4  229.61   10.44   0
   1   5  11    0.23    6.96   0
   1   7  -6  195.22    9.94   0
   2   3  -1    0.35    4.81   0
   2   5 -15    2.55    6.46   0
  -2   7  27    2.04    7.62   0
   0   6  18  273.82   10.25   0
   1   3  13   11.22    5.91   0
   1   6   7    4.96    7.02   0
   2   5 -18  392.36   11.10   0
   2   5 -12  502.09   11.37   0
   2   5  -9    5.54    6.89   0
  -3   8  28  175.35    9.87   0
  -3   9  24  169.57    9.37   0
  -1   7  22  161.53    9.52   0
   0   7  14  118.27    9.33   0
   2   5 -21   -4.64    6.65   0
  -2   9  19    0.31    7.95   0
   0   8   7  -15.45    8.14   0
   1   2  11   13.11    4.86   0
   2   3   2  836.51   13.62   0
   2   4   1    4.74    6.36   0
   2   5  -6  152.72    7.81   0
   1   7   0  386.30   10.66   0
  -1   5  27    5.25    6.27   0
  -1   6  26  234.71    9.87   0
  -1   9  11   -6.11    7.46   0
   1   4  15    3.06    5.53   0
   1   5  14  417.26   10.94   0
   1   6  10  226.10    9.73   0
   2   2   0 4220.99   29.21   0
   0   3  21    1.18    4.54   0
   1   7   3    6.82    7.69   0
   2   4   4  887.83   14.06   0
  -2   8  26  184.14    9.70   0
   0   4  23   -2.95    6.02   0
   0   7  17    1.48    7.73   0
   0   8  10  161.77    9.50   0
   2   3   5    5.37    5.80   0
  -2   6  31   -0.18    6.47   0
   1   3  16 2151.73   20.73   0
  -3   9  27    0.68    7.78   0
  -2   9  22   47.68    7.89   0
  -1   7  25    1.96    6.57   0
  -1   8  21    1.49    7.84   0
   1   6  13   -1.75    7.70   0
   1   7   6  103.32    9.28   0
   2   2   3   -3.35    5.42   0
   2   5   3   14.22    7.28   0
   2   6 -16  343.06   11.09   0
   2   6 -13   -2.15    6.89   0
   2   6 -10  188.95    9.62   0
  -2   7  30  171.25    9.64   0
  -1   4  28  693.69   13.48   0
   2   4   7    6.25    6.16   0
   2   6 -19    3.15    6.91   0
   2   6  -7    0.09    7.29   0
  -1   3  26  519.08   12.12   0
   0   2  19    2.42    4.70   0
   0   8  13    9.06    7.42   0
   1   2  14 1712.41   19.30   0
   1   4  18  725.60   12.56   0
   1   5  17   10.95    6.13   0
   1   8 -10   91.76    8.04   0
   2   6  -4  227.29   10.24   0
  -2   5  32  675.64   14.03   0
   0   5  25    1.50    6.76   0
   0   7  20  149.09    9.41   0
   1   7   9  -10.51    7.94   0
   1   8  -7   -2.20    6.83   0
   2   3   8 2195.47   20.26   0
   2   5   6  460.38   11.67   0
  -1   6  29    1.88    7.06   0
   1   8  -4  177.12    9.67   0
  -2   8  29    8.40    8.02   0
  -1   5  30  170.36    8.57   0
   1   6  16  669.55   12.79   0
   2   2   6  828.27   13.35   0
   2   4  10  350.97   10.10   0
  -1   7  28  159.92    9.82   0
  -1   8  24  203.65   10.26   0
   0   8  16  188.40    9.67   0
   2   6   2  196.97    9.72   0
   0   4  26  709.96   12.75   0
   1   3  19   10.05    5.26   0
   1   5  20  507.70   11.83   0
   1   8   2   85.71    8.51   0
   2   5   9   -4.85    7.47   0
   1   4  21    5.06    6.36   0
   2   3  11    3.15    5.29   0
  -2   7  33    5.35    8.33   0
   2   6   5   -0.94    6.55   0
   1   6  19    7.90    6.70   0
   1   8   5   -7.33    6.99   0
   2   2   9   -0.79    5.70   0
   2   4  13   -2.88    5.88   0
   2   7 -11    8.06    7.41   0
   3   3 -15    3.36    6.26   0
   3   3 -12  778.14   14.01   0
   3   3  -9    3.97    6.04   0
   0   5  28  627.52   12.96   0
   0   6  27    2.22    7.29   0
   1   2  17    7.08    4.82   0
   1   7  15   -4.54    7.60   0
   2   1   1   31.02    5.74   0
   2   5  12  407.98   10.65   0
   2   7 -14  134.40    8.96   0
   2   7  -8  227.92   10.08   0
   2   7  -5   -6.82    7.65   0
   3   3  -6  476.83   11.35   0
   3   4 -13    7.62    6.40   0
   3   4 -10  401.29   11.15   0
   3   4  -7    4.41    6.78   0
  -1   4  31    2.84    6.49   0
  -1   6  32  385.08   11.58   0
  -1   8  27   -8.75    7.79   0
   1   8   8  160.13    9.28   0
   2   6   8  429.39   11.21   0
   3   3  -3    1.85    6.13   0
   3   4 -16  423.02   11.47   0
   3   4  -4  667.84   13.15   0
  -2   8  32  172.91    9.51   0
   1   5  23    1.39    7.22   0
   2   3  14  372.08    9.68   0
   2   7  -2   82.06    8.17   0
  -1   7  31    4.15    7.75   0
   0   2  22 1852.28   21.36   0
   2   4  16  753.27   13.58   0
   3   4  -1    3.88    6.78   0
  -1   5  33    5.85    6.21   0
   0   7  26  218.15    9.70   0
   1   7  18  219.07   10.51   0
   1   8  11    2.27    7.67   0
   2   5  15    6.44    6.58   0
   3   2 -14  389.17   11.10   0
   3   2 -11    3.48    5.23   0
   3   2  -8 2298.57   22.55   0
   3   5 -11   -0.64    7.13   0
   3   5  -8  498.08   12.38   0
  -1   3  29    1.52    4.75   0
   0   4  29    2.76    5.14   0
   2   1   4 3174.93   26.89   0
   2   2  12  806.25   13.11   0
   2   7   4  192.11    9.73   0
   3   2  -5    7.49    5.52   0
   3   5 -14  135.43    8.93   0
   3   5  -5    2.11    7.27   0
   0   3  27    2.44    5.30   0
   3   2 -17    1.22    5.49   0
   3   3   3    1.62    5.46   0
   3   5  -2  221.02    9.97   0
   0   6  30  147.34    9.22   0
   2   3  17    4.31    6.04   0
   2   6  14   98.48    9.39   0
   3   2  -2  848.00   13.62   0
   3   4   5    2.89    7.12   0
  -1   8  30   49.68    8.50   0
   0   5  31   -3.52    6.61   0
   1   7  21   -7.26    8.27   0
   2   5  18  192.67    9.34   0
   2   7   7   -3.20    7.12   0
   3   5   1    1.14    7.29   0
   2   4  19    1.89    6.17   0
   3   3   6  451.03   10.49   0
  -1   6  35    2.89    6.90   0
   0   7  29   -6.30    7.92   0
   0   8  25   -0.36    8.40   0
   2   7  10  166.60    9.76   0
  -1   7  34  161.40    9.91   0
   1   4  27    5.07    6.54   0
   2   1   7   -0.15    4.56   0
   2   2  15   -2.43    4.99   0
   2   6  17   -5.75    8.03   0
   3   6  -9   -3.63    7.57   0
   3   2   4  712.22   12.40   0
   3   3   9    2.55    6.72   0
   3   5   7   -6.14    7.56   0
   3   6 -12  131.40    9.24   0
   3   6  -6  172.00    9.96   0
   3   6  -3    0.51    7.84   0
  -1   4  34  506.54   12.24   0
   1   7  24  213.69   10.27   0
   2   3  20  610.89   11.76   0
   2   5  21   -9.01    7.71   0
   3   6   0  315.26   11.42   0
  -1   5  36  453.61   12.02   0
   0   4  32  470.69   11.68   0
   0   6  33    0.86    7.87   0
   2   4  22  365.85   10.17   0
   2   7  13    4.00    7.31   0
   3   4  11   -3.27    6.27   0
  -1   8  33    2.25    7.78   0
   0   2  25    1.49    5.05   0
   1   5  29    0.87    6.16   0
   3   2   7    9.30    6.11   0
   3   5  10  209.53    9.87   0
   3   6   3   -7.69    7.74   0
   0   3  30  550.04   12.31   0
   0   5  34  265.84   10.04   0
   0   7  32  248.69   11.05   0
   2   1  10 2110.83   21.51   0
   2   6  20  187.31    9.28   0
   3   3  12  787.90   13.03   0
   2   2  18 1103.05   15.01   0
   2   7  16  162.05    9.74   0
   3   4  14  369.20   10.72   0
   1   4  30  165.91    8.72   0
   2   5  24  459.43   11.81   0
   3   1 -10 1139.34   17.51   0
   3   1  -7   13.29    5.15   0
   3   5  13   -4.93    7.78   0
  -1   3  32 1166.16   18.24   0
  -1   7  37    0.23    7.12   0
   1   3  28  715.60   13.22   0
   2   3  23   -2.33    6.61   0
   3   1  -4 1327.20   17.52   0
   3   2  10  723.99   12.45   0
   3   6   9    7.09    8.12   0
   2   4  25    1.79    6.12   0
   2   6  23   -3.28    7.84   0
   3   1 -13    8.61    4.98   0
   3   3  15   -9.66    5.99   0
   1   6  31    1.66    8.21   0
   2   7  19   -0.56    8.25   0
   3   4  17    2.75    7.69   0
   0   6  36  146.70    9.61   0
   1   5  32  363.21   10.44   0
   2   1  13   16.22    5.82   0
   3   1   2  882.37   14.40   0
   3   5  16  419.37   11.04   0
   3   6  12  169.82    9.45   0
   0   4  35    7.93    6.20   0
   0   7  35    5.52    8.69   0
   2   2  21    0.01    5.74   0
   3   2  13    0.78    5.46   0
   4   3 -11    0.21    6.32   0
   4   3  -8  570.56   12.10   0
   4   3  -5    1.69    5.74   0
   4   3  -2  261.42    9.55   0
   4   4  -9   -5.64    6.97   0
   4   4  -6  209.18    9.75   0
   4   4  -3    7.18    7.51   0
   1   7  30   30.46    8.72   0
   2   5  27    0.30    6.58   0
   3   3  18  428.42   11.05   0
   4   3   1    4.47    6.95   0
   4   4 -12  258.23   10.18   0
   0   5  37   -1.03    6.67   0
   2   3  26  638.43   12.54   0
   2   6  26  185.69    9.90   0
   2   7  22   55.33    8.32   0
   3   1   5    2.02    5.68   0
   3   4  20  423.17   11.57   0
   3   5  19    3.71    8.36   0
   3   6  15    1.94    7.82   0
   4   3 -14  348.25   10.69   0
   4   4   3    5.92    7.39   0
   1   2  26  510.55   11.07   0
   1   4  33   11.74    6.76   0
   4   5  -7   10.91    7.59   0
   4   5  -4  142.97    9.49   0
   0   2  28 1134.01   17.25   0
   0   3  33    3.72    5.79   0
   1   3  31    1.02    6.30   0
   3   2  16 1887.42   19.31   0
   4   2  -7    4.62    5.90   0
   4   2  -4  925.05   14.95   0
   4   5 -10  132.91    8.44   0
   4   5  -1   -5.45    7.24   0
   1   6  34  166.07    9.55   0
   3   1   8 2825.17   23.84   0
   4   2 -10  358.62   10.71   0
   4   2  -1   -0.14    6.15   0
   4   5   2  170.24    9.44   0
   1   5  35   -2.57    7.73   0
   2   1  16 2084.56   20.71   0
   3   3  21   15.57    6.27   0
   3   6  18  197.09    9.39   0
   4   2   2  629.72   12.55   0
   4   4   9    4.58    7.14   0
   4   5   5    4.44    7.96   0
   0   6  39    4.51    8.43   0
   1   7  33   -0.43    8.18   0
   2   2  24 1873.64   19.33   0
   3   4  23   -0.29    6.48   0
   3   5  22  129.83    8.66   0
   4   2 -13   -0.64    5.70   0
   4   3  10  393.21   11.01   0
   0   7  38   39.82    7.69   0
   3   1  11   27.01    6.17   0
   3   2  19    8.66    5.69   0
   3   6  21   -3.82    8.03   0
   4   4  12  267.09    9.49   0
   0   4  38  122.34    8.03   0
   4   2   8  913.45   14.38   0
   4   3  13   -7.32    7.03   0
   0   5  40  205.43    9.92   0
   1   4  36  460.30   12.08   0
   3   3  24  631.19   12.17   0
   3   5  25   -1.60    7.91   0
   4   5  11   -1.07    7.27   0
   1   2  29    8.62    4.81   0
   1   6  37    7.89    7.61   0
   2   1  19   -0.46    4.81   0
   2   5  33    1.84    7.69   0
   3   4  26  149.83    8.52   0
   4   4  15    6.80    6.70   0
   1   3  34  531.21   12.21   0
   1   5  38  137.07    9.25   0
   2   6  32  170.12    9.82   0
   3   1  14  711.76   12.91   0
   3   6  24  157.87    9.94   0
   4   2  11    1.83    5.81   0
   4   5  14   83.21    8.71   0
   0   3  36  550.58   13.09   0
   3   2  22  292.22    9.20   0
   4   3  16  409.05   10.82   0
   2   4  34  163.92    9.75   0
   4   1  -3    0.35    5.74   0
   4   4  18  208.35   10.41   0
   0   2  31   -0.60    4.87   0
   2   3  32  697.65   12.99   0
   3   3  27   -6.06    7.47   0
   3   5  28  176.17    9.22   0
   4   1  -6  385.71   10.61   0
   4   1   0 1452.39   17.58   0
   4   2  14  294.36    9.30   0
   4   5  17   16.33    7.81   0
   3   4  29    9.88    6.63   0
   4   1  -9   14.02    5.88   0
   4   3  19    3.18    7.56   0
   3   1  17   -4.65    5.16   0
   3   6  27    1.47    7.83   0
   4   1   6  876.42   14.21   0
   4   4  21  -10.04    8.39   0
   1   1  24 1773.80   20.75   0
   1   4  39    1.04    7.20   0
   1   6  40  209.73   10.38   0
   2   1  22  459.88   10.67   0
   2   5  36  164.29    9.37   0
   2   6  35   -3.65    7.99   0
   3   2  25    3.34    6.42   0
   4   2  17    7.27    7.06   0
   4   5  20  137.46    9.20   0
   1   2  32 1205.20   17.07   0
   4   1 -12 1142.95   17.47   0
   5   3  -4  279.21   10.62   0
   5   3  -1    1.86    7.08   0
   1   3  37   -0.22    6.32   0
   1   5  41    3.70    7.91   0
   2   2  30  218.68    8.33   0
   3   3  30  203.77    9.63   0
   3   5  31   -0.33    8.14   0
   4   1   9    5.83    5.33   0
   4   3  22  186.81    9.73   0
   5   3  -7    3.02    6.57   0
   5   3   2  239.50    9.24   0
   5   4  -5    1.62    6.96   0
   5   4  -2  174.55    9.88   0
   5   4   1    1.09    7.27   0
   2   4  37   -2.58    7.41   0
   4   4  24  348.68   11.63   0
   5   3 -10  203.83    9.87   0
   5   3   5    0.10    6.47   0
   5   4   4  128.71    9.62   0
   2   3  35   -1.41    5.92   0
   3   0  -3    3.77    4.88   0
   3   1  20  923.69   13.97   0
   4   1  12  967.67   14.80   0
   4   5  23   -6.25    8.13   0
   5   4   7    1.15    8.03   0
   3   0   3    2.52    4.48   0
   5   2  -6  456.95   11.80   0
   5   2  -3   11.49    6.72   0
   5   2   0  664.58   13.40   0
   5   2   3    0.52    7.10   0
   0   3  39   -4.75    6.31   0
   2   0  11   -1.79    4.59   0
   2   5  39   -1.50    7.79   0
   3   2  28  406.54   10.55   0
   4   3  25    0.31    7.91   0
   5   2   6  165.55    9.10   0
   5   5  -3   -5.33    6.62   0
   5   5   3   -2.91    7.17   0
   3   0   6  557.53   11.83   0
   4   1  15    9.80    6.76   0
   5   2  -9    2.92    6.38   0
   5   5   6   86.86    8.24   0
   0   2  34  271.77   10.11   0
   1   6  43    5.57    7.69   0
   4   2  23    0.47    7.23   0
   4   5  26  144.80    9.49   0
   5   3  14  152.11    9.23   0
   1   1  27   -0.05    5.11   0
   1   4  42  214.96   10.14   0
   2   2  33   -2.30    5.46   0
   3   0   9   -0.23    5.52   0
   3   1  23   11.39    5.72   0
   2   4  40  255.85   10.67   0
   5   2  12  491.33   11.47   0
   5   4  16  321.26   11.12   0
   1   2  35   -4.24    5.84   0
   1   3  40  452.90   12.02   0
   1   5  44  144.26    9.07   0
   2   0  14  350.13   10.04   0
   2   3  38   99.67    8.36   0
   4   1  18  386.28   10.10   0
   4   3  28  374.56   10.83   0
   5   3  17   -0.00    6.78   0
   4   2  26  390.91   11.38   0
   4   4  30   96.42    8.96   0
   4   5  29   16.18    7.89   0
   5   2  15    8.05    7.22   0
   2   1  28 1352.18   17.51   0
   2   5  42   87.58    8.97   0
   3   0  12 2638.08   23.40   0
   3   5  37    3.00    7.51   0
   5   1  -2  351.28   10.61   0
   5   1   1   12.55    6.80   0
   5   1   4  795.58   14.07   0
   5   4  19   -7.60    7.63   0
   3   1  26  698.52   13.13   0
   3   3  36  315.58   10.95   0
   5   1  -5    7.81    6.15   0
   5   3  20  222.92    9.41   0
   3   4  38  122.56    9.27   0
   4   0   1   -2.44    5.58   0
   4   1  21    5.15    6.19   0
   4   3  31   10.87    7.88   0
   2   0  17   -2.76    5.40   0
   2   2  36  392.14   11.22   0
   3   0  15    1.30    4.96   0
   4   0  -2 1420.74   18.18   0
   5   1  -8  835.77   14.98   0
   5   1  10  488.74   11.96   0
   5   4  22   83.03    8.48   0
   3   2  34  439.33   11.64   0
   4   0  -5   -1.71    5.33   0
   4   0   7    0.02    5.06   0
   4   2  29   -2.85    7.39   0
   4   4  33    1.49    7.83   0
   5   3  23   -7.57    8.59   0
   1   1  30  603.36   12.95   0
   2   4  43  -10.67    7.56   0
   5   1  13   12.80    6.33   0
   5   2  21    7.19    8.16   0
   2   3  41   -1.58    6.33   0
   3   5  40  135.89    8.90   0
   4   0  10  437.71   10.49   0
   4   1  24  928.95   14.35   0
   5   1 -11    3.30    5.74   0
   5   4  25   -0.24    7.98   0
   1   2  38  321.81   10.47   0
   2   1  31    0.71    5.98   0
   3   0  18 1353.16   16.91   0
   4   0  -8 1558.59   20.38   0
   5   1  16  671.63   13.29   0
   6   3   3    7.37    7.94   0
   1   3  43    4.75    6.56   0
   2   5  45    2.41    7.15   0
   3   3  39    8.76    6.86   0
   3   4  41   -3.55    7.98   0
   4   0  13    1.14    5.30   0
   5   2  24  330.25   11.22   0
   6   3  -3    4.77    7.55   0
   6   3   0  301.92   11.18   0
   6   3   6  172.25    9.54   0
   2   0  20 3459.41   27.70   0
   4   2  32  344.52   11.22   0
   6   3   9    7.69    7.91   0
   4   1  27    6.11    6.79   0
   5   1  19   -3.31    7.47   0
   5   4  28   85.51    8.83   0
   6   2  -2  232.77   10.13   0
   6   2   1   -2.17    6.67   0
   6   2   4  247.36    9.55   0
   6   2   7    0.08    7.52   0
   6   3  12  134.85    9.39   0
   2   2  39    4.40    6.75   0
   3   0  21   -0.46    6.07   0
   3   2  37   -3.11    7.32   0
   4   0  16 1513.22   17.48   0
   5   3  29    1.09    8.44   0
   6   2  -5   -1.72    7.65   0
   6   2  10  199.31    9.98   0
   4   0 -11   -1.63    4.92   0
   5   2  27   -6.46    8.11   0
   2   4  46   96.78    8.59   0
   5   1  22  218.40    9.83   0
   1   1  33   -0.73    5.51   0
   2   1  34  614.03   12.91   0
   2   3  44  226.61   10.33   0
   3   3  42  149.61    9.68   0
   4   0  19   -7.16    5.53   0
   6   2  16  397.68   11.99   0
   6   3  18  103.86    8.90   0
   3   4  44  145.21    9.24   0
   4   1  30  304.71    9.75   0
   4   4  39    3.61    7.31   0
   5   0  -1    1.47    5.17   0
   1   2  41    1.94    6.76   0
   3   0  24 1127.12   15.95   0
   5   0  -4 1201.69   17.21   0
   5   2  30   77.41    9.02   0
   5   3  32  200.39    9.75   0
   6   1  -1   -7.36    6.99   0
   6   1   2  354.33   10.47   0
   6   1   5   10.34    6.24   0
   6   1   8  655.15   13.78   0
   6   3  21   -8.01    8.06   0
   3   2  40  453.84   12.11   0
   4   0  22  732.79   13.22   0
   5   0  14  642.62   13.01   0
   5   1  25    4.39    6.65   0
   6   2  19   -4.50    7.28   0
   4  -2  27   -3.38    8.53   0
   6  -6  24  586.58   14.66   0
   6  -3  30  212.58   12.52   0
   6   0  24  510.62   15.48   0
   7  -8  15    0.59    9.06   0
   7  -1  26  268.02   13.25   0
   3  -4  19   16.38    6.29   0
   5  -3  29    5.07    7.94   0
   6  -7  19    1.58    8.55   0
   8  -3  29    1.94   10.32   0
   3  -5  14  391.86   12.31   0
   4  -5  21    2.80    7.82   0
   4   1  21    1.75    8.26   0
   6  -1  28  415.59   14.70   0
   8  -7  24  210.24   11.77   0
   4   0  25    1.46    8.26   0
   7  -7  23    3.79    9.24   0
   7  -3  31    3.99   10.75   0
   8  -8  19   11.26    8.89   0
   9  -6  27    0.36   10.54   0
   9  -3  27    9.44    9.31   0
   2  -2  19    0.98    5.92   0
   4  -6  16  742.27   16.49   0
   5  -7  15    6.52    7.82   0
   6  -5  29    7.28    9.14   0
   6  -4  31    1.80   10.08   0
   7  -2  30   97.02   11.75   0
   8  -2  28  180.47   12.45   0
   9  -5  29   -3.05    9.87   0
   2  -4  12  778.33   16.65   0
   3  -1  25   -1.29    7.91   0
   3   1  20  945.31   18.23   0
   4  -3  28  701.55   15.27   0
   7  -4  32  299.02   13.68   0
   4  -4  26  725.12   14.79   0
   5  -2  31    0.72    9.29   0
   7  -8  18  209.05   12.31   0
   8  -6  29   -4.14    9.49   0
   8  -5  31   -8.38   10.82   0
   3  -3  24 1616.41   20.53   0
   3   0  24 1094.41   18.60   0
   5  -6  23    2.61    8.46   0
   5  -4  30  189.53   11.41   0
   2  -1  21   13.44    7.53   0
   5  -1  30  299.27   12.02   0
   6  -7  22  156.21   10.61   0
   6  -6  27    3.65    8.07   0
   6  -3  33   14.97    9.80   0
   7  -1  29   -3.00   11.74   0
   5  -3  32  696.27   16.30   0
   6   0  27   -8.74    9.27   0
   8  -8  22   57.20   10.21   0
   8  -7  27    0.68    9.85   0
   8  -4  33    9.88   10.72   0
   8  -3  32  194.96   12.79   0
   3  -5  17    3.93    6.96   0
   4  -2  30  209.02   10.30   0
   6  -1  31    1.55   10.03   0
   7  -7  26  228.27   12.11   0
   5  -7  18  168.29   11.07   0
   7  -5  33   -3.50    9.35   0
   8  -2  31    1.45   11.58   0
   4  -6  19   -2.42    7.67   0
   6  -4  34  157.10   11.50   0
   7  -2  33    2.05   10.80   0
   4   1  24  955.96   18.65   0
   5   0  29   -2.31    8.72   0
   7  -8  21   -4.89    8.60   0
   7  -4  35    8.22   11.20   0
   8  -6  32  187.80   11.54   0
   8  -5  34  123.46   11.49   0
   2  -2  22 1944.01   22.74   0
   4  -4  29   -5.13    7.32   0
   4  -3  31    4.32    7.72   0
   5  -6  26  218.79   11.53   0
   2  -4  15    4.67    6.47   0
   2   1  19    0.09    6.08   0
   3  -3  27    1.84    7.88   0
   5  -4  33  -10.55    8.37   0
   5  -2  34  452.81   14.38   0
   6  -7  25   -1.25    8.51   0
   8  -7  30   32.43   10.72   0
   3   1  23   11.18    7.07   0
   5  -1  33   -4.33    9.58   0
   6  -2  35    3.80    8.85   0
   8  -8  25    2.10    8.63   0
   8  -3  35    3.30   10.20   0
   3  -2  29    9.19    8.19   0
   3   0  27    5.12    7.43   0
   5  -3  35    3.70    9.23   0
   7  -7  29   10.40    9.80   0
   7  -1  32  256.59   13.67   0
   8  -4  36  125.81   12.09   0
   2  -1  24 1942.15   23.32   0
   4  -5  27    1.98    8.21   0
   4  -2  33   -0.25    8.48   0
   5  -7  21    4.52    8.88   0
   6   0  30  107.54   11.15   0
   7  -5  36  175.70   12.14   0
   3  -5  20  589.19   13.74   0
   6  -5  35    3.57    9.86   0
   6  -1  34  244.32   13.25   0
   7  -8  24  197.36   12.41   0
   7  -6  34  150.44   11.95   0
   8  -6  35   -2.63   10.46   0
   8  -2  34  135.56   12.02   0
   4  -6  22  356.39   12.34   0
   6  -4  37    1.21    8.81   0
   7  -4  38  130.41   12.30   0
   7  -2  36  270.68   14.17   0
   8  -5  37    1.72   10.47   0
   4  -4  32  472.17   13.02   0
   4   0  31   -2.38    8.44   0
   5  -6  29   -3.04    9.04   0
   5   0  32  489.89   14.68   0
   6  -7  28  146.89   10.73   0
   6  -6  33   -6.76    9.72   0
   8  -7  33    0.80    9.39   0
   2  -2  25   -6.44    6.26   0
   4   1  27    8.66    7.47   0
   5  -4  36  490.57   13.73   0
   5  -2  37   -0.93    9.35   0
   2  -4  18 1062.90   17.92   0
   2  -3  23    2.77    7.11   0
   3  -3  30  571.84   13.42   0
   3  -1  31   -2.40    7.03   0
   5  -5  34  275.01   11.28   0
   6  -2  38  105.92   10.01   0
   7  -7  32  252.71   13.02   0
   8  -4  39   -5.60    9.95   0
   4  -5  30  189.16   10.85   0
   5  -7  24  455.26   13.84   0
   5  -3  38   94.87   11.10   0
   5  -1  36  322.05   13.51   0
   7  -5  39   -6.96   10.12   0
   7  -1  35    8.45    9.63   0
   2   1  22  471.43   13.40   0
   3  -5  23   -0.05    7.38   0
   3  -2  32 1257.63   18.49   0
   3   1  26  675.82   15.62   0
   4  -2  36  400.87   13.13   0
   6  -5  38  137.26   11.83   0
   7  -8  27   -2.07    8.47   0
   7  -6  37   10.89    9.84   0
   2  -1  27   -1.60    7.46   0
   3   0  30  319.81   11.23   0
   4  -6  25   -0.73    7.99   0
   6  -4  40  265.31   13.02   0
   6  -1  37   -0.20    9.74   0
   6   0  33   -0.32    9.34   0
   7  -2  39    5.48   11.12   0
   8  -5  40  148.94   11.28   0
   8  -2  37    0.88    9.31   0
   7  -4  41   12.22   10.86   0
   4  -4  35    7.02    9.02   0
   6  -7  31    5.22    9.36   0
   6  -6  36  138.12   11.24   0
   4  -3  37    6.91    7.96   0
   5  -4  39    5.43    9.83   0
   7  -7  35    6.31   10.02   0
   1  -2  18 1201.05   19.47   0
   1   0  19   -2.16    5.47   0
   2  -4  21    1.94    6.79   0
   2  -2  28 1122.57   17.78   0
   4   0  34  273.91   11.20   0
   5  -5  37   -7.60    9.33   0
   5  -2  40  448.26   14.59   0
   5   0  35   -4.13    8.97   0
   6  -3  42  152.99   12.42   0
   6  -2  41    0.10   10.80   0
   1  -1  20 1597.31   21.55   0
   2  -3  26  524.46   13.36   0
   3  -3  33   -1.10    7.28   0
   3  -1  34  621.56   14.75   0
   4   1  30  309.93   12.71   0
   5  -7  27    2.78    8.13   0
   7  -8  30   43.61   10.50   0
   7  -5  42   95.88   11.56   0
   2  -5  13    0.07    6.48   0
   3  -5  26  628.19   14.74   0
   4  -5  33    4.71    7.37   0
   5  -3  41   -2.45    8.42   0
   5  -1  39    5.78    9.61   0
   7  -6  40  218.42   12.32   0
   7  -1  38   61.90    9.98   0
   3  -2  35    7.81    7.37   0
   4  -2  39   -6.12    9.03   0
   3   0  33    4.21    7.40   0
   3   1  29   -3.59    7.52   0
   6  -7  34  161.59   11.58   0
   6  -4  43   -7.28    9.77   0
   6  -1  40  212.86   12.38   0
   7  -4  44  149.86   11.87   0
   7  -2  42  144.73   11.98   0
   2  -1  30  634.49   13.77   0
   2   1  25    4.24    6.56   0
   5  -6  35    5.19    9.48   0
   6  -6  39    5.24    9.52   0
   4  -4  38  124.74    9.58   0
   4  -3  40  482.14   14.30   0
   5  -4  42  221.81   12.38   0
   7  -7  38   33.42    9.41   0
   2  -4  24 1878.12   22.98   0
   5  -7  30  178.76   11.74   0
   5  -5  40  194.32   11.80   0
   1  -3  16 1990.13   24.78   0
   1  -2  21   14.63    5.94   0
   1   0  22  499.49   13.41   0
   2  -3  29    5.68    7.51   0
   2  -2  31    1.75    6.57   0
   3  -3  36  550.75   14.17   0
   4   0  37   -0.33    8.72   0
   5   0  38  209.23   11.80   0
   6  -3  45   -0.65   10.30   0
   6  -2  44  223.50   12.83   0
   7  -8  33   -7.39    8.01   0
   1  -1  23   -3.46    5.79   0
   3  -5  29   10.83    7.76   0
   3  -1  37    2.34    8.34   0
   4  -5  36  477.03   12.99   0
   7  -6  43    2.08    9.84   0
   7  -5  45   -6.35    9.15   0
   3  -6  21    4.92    7.52   0
   3  -2  38  344.28   12.64   0
   4  -6  31    1.57    7.43   0
   4   1  33    3.76    7.88   0
   6  -5  44  164.89   11.44   0
   7  -1  41    5.08    9.25   0
   6  -7  37    2.81    8.97   0
   6  -4  46   92.26   11.64   0
   7  -4  47    2.27   10.54   0
   2  -1  33   10.72    7.44   0
   3   0  36  833.26   16.47   0
   3   1  32  909.25   17.39   0
   5  -6  38  125.77    9.86   0
   6  -6  42  107.90   11.37   0
   6  -1  43   11.34    9.68   0
   7  -2  45    4.50   10.11   0
   2   1  28 1403.60   20.60   0
   2   2  21    1.94    5.95   0
   4  -4  41   -1.49    8.20   0
   1  -3  19    0.42    6.15   0
   2  -4  27   -7.11    7.20   0
   4  -3  43   -4.04    8.46   0
   5  -7  33   -0.64    8.50   0
   5  -5  43    5.61    9.50   0
   5  -4  45    6.81    8.73   0
   1  -2  24 1868.26   22.18   0
   1   1  21   16.00    6.21   0
   2  -5  19    3.04    6.33   0
   2  -3  32 1179.23   18.36   0
   2  -2  34  292.41   11.27   0
   3  -3  39   -0.23    8.99   0
   4  -5  39    3.45    9.23   0
   6  -3  48  140.34   12.20   0
   1   0  25    1.20    5.63   0
   3  -6  24  593.35   14.66   0
   3  -5  32  697.85   15.59   0
   4  -6  34  171.55   10.62   0
   4   0  40  444.03   14.06   0
   5  -3  47   16.46   10.57   0
   5   0  41   -6.96    9.00   0
   6  -2  47  -12.32   11.02   0
   3  -1  40  463.48   12.89   0
   5  -1  45    2.20   10.16   0
   6  -5  47   13.46   10.55   0
   3  -2  41   -6.37    7.98   0
   4  -2  45   -0.84    9.80   0
   4   1  36  323.57   12.47   0
   5  -6  41   -7.24    9.20   0
   6  -7  40  205.33   11.96   0
   6  -4  49    8.29    9.94   0
   4  -1  44  282.62   11.81   0
   6  -6  45    2.68    9.98   0
   1  -3  22  456.16   12.71   0
   2  -5  22  293.38   11.12   0
   2  -4  30  199.27   10.23   0
   3   0  39   -1.62    7.23   0
   3   1  35    3.32    7.71   0
   4  -4  44  402.50   12.71   0
   5  -7  36  150.75   10.89   0
   6  -1  46   75.88   11.33   0
   1  -2  27   -0.68    7.17   0
   2   1  31   -1.79    7.11   0
   2   2  24 1832.50   25.37   0
   4  -3  46   93.16    9.74   0
   5  -5  46   76.55   10.46   0
   5  -4  48  132.40   11.08   0
   2  -3  35   -2.09    6.97   0
   2  -2  37    4.97    7.14   0
   3  -6  27    3.13    7.37   0
   3  -5  35    2.10    8.04   0
   3  -3  42  258.69   11.05   0
   4  -6  37   -1.21    8.95   0
   1  -1  29   -1.51    6.18   0
   1   0  28 1407.68   19.33   0
   1   1  24 1737.45   22.38   0
   4   0  43   -6.77    9.17   0
   6  -3  51    5.22   10.62   0
   6  -2  50   97.90   11.52   0
   3  -1  43    5.64    7.77   0
   5  -3  50  182.75   11.74   0
   5   0  44  203.96   12.01   0
   6  -7  43    1.27    9.32   0
   6  -5  50   77.27   11.12   0
   3  -2  44  331.28   12.06   0
   4  -2  48  286.84   13.25   0
   5  -6  44  141.81   11.29   0
   5  -1  48  217.63   12.78   0
   6  -4  52  119.52   11.17   0
   1  -3  25    6.23    5.81   0
   2  -5  25   -3.28    7.06   0
   2  -4  33   -0.49    7.94   0
   2  -1  39    8.20    8.15   0
   4  -4  47    2.01   10.39   0
   4  -1  47  -13.21    9.79   0
   4   1  39    4.12    8.09   0
   5  -7  39    5.53    9.94   0
   1  -2  30  626.05   14.07   0
   3   0  42  320.39   12.67   0
   6  -1  49    9.87   11.06   0
   2  -3  38  325.36   11.85   0
   2  -2  40  846.88   16.41   0
   2   1  34  604.56   14.59   0
   3  -5  38   90.44    9.64   0
   3   1  38  177.07   10.45   0
   4  -3  49   -4.03    8.75   0
   5  -5  49   -0.64   10.24   0
   5  -4  51    1.94    9.52   0
   1  -4  17    0.14    5.92   0
   1   0  31    5.74    6.15   0
   1   1  27    2.00    6.29   0
   2   2  27    2.97    6.34   0
   3  -4  43    3.07    9.10   0
   3  -3  45    8.05    7.78   0
   4  -6  40  246.45   11.08   0
   2  -5  28  397.85   12.37   0
   3  -1  46  132.66    9.81   0
   4   0  46  142.81   11.53   0
   5  -6  47   -0.41    9.24   0
   5  -3  53   -8.45    9.69   0
   5   0  47   -6.55   10.76   0
   6  -2  53   -4.45    9.70   0
   1  -4  20  893.90   17.59   0
   4  -2  51  -11.11    9.85   0
   5  -1  51    5.64   10.52   0
   1  -2  33   10.80    6.66   0
   2  -1  42  346.61   11.61   0
   3  -6  33    1.65    8.01   0
   4  -4  50  152.67   11.52   0
   4  -1  50  180.42   11.82   0
   4   1  42  163.66   11.02   0
   5  -7  42   79.07   10.28   0
   1  -1  35   -5.24    7.83   0
   2  -3  41    6.56    8.27   0
   3  -5  41    1.11    8.69   0
   3   0  45    5.35    9.22   0
   4  -3  52  201.35   12.74   0
   5  -5  52  160.04   11.81   0
   0  -1  19    3.99    6.32   0
   1   0  34 1015.20   16.43   0
   1   1  30  585.75   13.97   0
   2  -2  43   -0.76    7.56   0
   2   1  37   -0.95    6.38   0
   2   2  30  198.59   10.52   0
   3  -3  48  325.10   13.28   0
   3   1  41    2.18    8.01   0
   4  -6  43   -9.35    9.40   0
   5  -4  54   52.95    9.86   0
   1  -4  23    6.51    6.67   0
   2  -5  31   -7.39    7.67   0
   3  -4  46   85.06    9.05   0
   5  -2  55   -6.42    9.92   0
   0   0  21    4.60    5.54   0
   1  -2  36  959.83   16.56   0
   2  -4  39    5.05    7.05   0
   3  -6  36  296.87   11.97   0
   3  -2  50  180.57   10.69   0
   4   0  49    0.74    8.96   0
   5  -6  50   81.13    9.77   0
   5  -3  56   98.01   11.12   0
   0  -1  22  477.06   12.42   0
   1   2  23    2.79    5.74   0
   4  -2  54   34.23   10.20   0
   5  -7  45   -0.54    8.19   0
   5   0  50   80.71   10.82   0
   1  -4  26  646.90   14.59   0
   1  -1  38  274.85   11.16   0
   2  -3  44  330.01   12.65   0
   3  -5  44  244.31   11.81   0
   4  -4  53    3.93    9.26   0
   4  -1  53    5.66   10.12   0
   5  -1  54   65.36   10.28   0
   1   0  37   -5.15    6.79   0
   1   1  33    2.64    6.08   0
   2  -5  34  426.63   12.90   0
   2  -2  46  259.74   11.27   0
   2   1  40  478.95   13.62   0
   3  -3  51   12.43   10.10   0
   3   0  48  198.33   11.76   0
   4  -6  46  103.14   10.26   0
   4  -3  55    0.75    9.89   0
   5  -5  55    4.61    9.27   0
   5  -4  57    5.91   10.32   0
   2   2  33    1.40    6.62   0
   3  -4  49   14.02    9.84   0
   3   1  44  301.48   12.34   0
   0  -1  25    4.04    5.92   0
   1  -2  39    4.88    8.23   0
   3  -6  39   -2.44    9.59   0
   1  -4  29   -1.42    7.05   0
   1   2  26  512.41   13.56   0
   3  -2  53   -1.15    9.84   0
   5  -2  58   97.17   11.78   0
   1  -1  41   -5.52    8.42   0
   2  -1  48  347.45   12.61   0
   4   0  52  161.07   11.28   0
   0  -1  28 1429.52   19.24   0
   0   0  27    0.39    5.88   0
   1   0  40  795.16   15.82   0
   1   1  36  921.40   16.59   0
   2  -5  37    3.50    8.21   0
   2  -3  47    8.62    7.83   0
   3  -5  47    5.27    9.56   0
   4  -4  56   77.66   10.30   0
   4  -2  57    0.96    9.51   0
   2  -2  49   -3.68    7.93   0
   2   0  47   -4.84    8.86   0
   2   1  43    5.50    7.78   0
   3   0  51   -7.03    9.55   0
   4  -6  49  -12.20    8.76   0
   4  -1  56  117.11   11.52   0
   5  -1  57   -4.71    9.98   0
   1  -4  32  904.29   16.76   0
   1   2  29    3.35    6.26   0
   2   2  36  395.40   12.62   0
   3  -4  52  210.54   12.20   0
   3  -3  54   99.77   10.23   0
   3   1  47    9.64    9.45   0
   4  -3  58   81.50   11.07   0
   1  -2  42  336.99   11.35   0
   2  -4  45    1.08    7.53   0
   3  -6  42  149.86   10.49   0
   0  -1  31    5.26    7.22   0
   0   0  30  180.75    8.85   0
   1  -1  44  477.33   12.77   0
   1   0  43    1.11    8.27   0
   1   1  39   -9.23    7.21   0
   2  -5  40  442.99   12.53   0
   2  -1  51    2.00    9.41   0
   3  -2  56  196.80   11.22   0
   0  -2  29    5.35    5.90   0
   2  -3  50  179.74   10.24   0
   4   0  55   -8.46    9.60   0
   0   0  33   -1.51    7.36   0
   1  -4  35    9.64    6.50   0
   1   2  32 1204.92   19.16   0
   2  -2  52  201.61   10.76   0
   2   0  50  198.34   11.53   0
   2   1  46  151.81   10.00   0
   2   2  39   -6.21    8.20   0
   4  -6  52   96.58    9.77   0
   4  -4  59   -8.51   10.44   0
   0  -1  34 1012.78   16.08   0
   1  -2  45   11.72    7.59   0
   3  -6  45    5.90    8.47   0
   3  -4  55   -9.18    9.42   0
   3  -3  57    4.84    9.69   0
   3   0  54   73.15   10.26   0
   4  -1  59    5.45   10.27   0
   0  -3  18 1348.53   21.08   0
   0  -2  32  640.11   14.02   0
   2  -5  43   -0.39    8.72   0
   3   1  50  180.03   11.42   0
   4  -3  61    4.62   10.29   0
   0  -3  21    0.27    5.99   0
   1  -1  47    8.51    9.10   0
   1   1  42  332.76   11.86   0
   0  -3  24 1119.90   18.20   0
   0   0  36  636.17   14.26   0
   1  -4  38  159.10    9.36   0
   1   0  46  113.27    9.00   0
   1   2  35   -0.56    6.95   0
   2  -3  53   -0.92    9.51   0
   2  -1  54  116.00   10.87   0
   3  -5  53   -3.03    9.88   0
   3  -2  59   13.73    9.56   0
   0  -1  37    3.39    6.80   0
   2  -2  55    6.48    9.93   0
   0  -3  27    1.45    6.67   0
   0  -2  35    9.90    6.59   0
   1  -2  48  345.71   11.79   0
   2   0  53   -5.86    9.29   0
   2   1  49    8.76    8.39   0
   2   2  42  386.64   12.82   0
   1  -5  27    1.16    7.17   0
   1  -3  46  116.96   10.32   0
   2  -5  46   45.11    9.83   0
   3  -6  48  127.51   10.70   0
   3  -4  58  122.71   10.85   0
   3  -3  60  117.64   10.76   0
   0   0  39   -0.37    7.80   0
   1  -4  41    3.89    8.40   0
   1  -1  50  263.35   12.07   0
   1   1  45  -10.36    8.18   0
   3   0  57   -2.25    9.94   0
   0  -3  30  315.81   10.57   0
   0  -2  38  261.45   11.05   0
   0  -1  40  761.52   14.71   0
   1  -5  30  290.53   11.96   0
   1   0  49   -6.86    8.91   0
   1   2  38  323.54   11.63   0
   3   1  53  -12.95    9.40   0
   0   2  22 1893.38   24.61   0
   2  -3  56  208.37   12.13   0
   2  -1  57   -6.17    9.53   0
   3  -5  56   89.85   10.69   0
   0  -3  33    3.11    7.19   0
   0   2  25   -2.08    5.96   0
   1  -2  51  -13.97    9.90   0
   2  -2  58  103.76   10.63   0
   3  -2  62   45.24    9.48   0
   3  -1  61   -2.36   10.16   0
   0   0  42  792.96   15.80   0
   1  -5  33   -2.78    7.49   0
   1  -4  44  281.00   12.08   0
   1  -3  49   -2.66    9.38   0
   2  -5  49    9.16    9.07   0
   2   0  56  117.66   10.78   0
   2   1  52  275.60   12.20   0
   2   2  45   -1.60    7.73   0
   3  -6  51   -4.74    8.23   0
   0  -2  41   -3.30    7.86   0
   0  -1  43    1.34    7.24   0
   0   2  28 1092.67   18.19   0
   3  -4  61   16.83    9.14   0
   0  -3  36  841.30   16.10   0
   1   1  48  333.41   11.56   0
   1   2  41    0.74    6.65   0
   3  -3  63   -1.44    8.65   0
   3   0  60  160.99   11.24   0
   3   1  56  121.62   10.78   0
   0   2  31    1.17    5.44   0
   1  -2  54  119.61   10.76   0
   2  -3  59   -5.66    9.12   0
   2  -1  60  156.70   11.27   0
   0  -2  44  723.55   15.49   0
   0  -1  46  113.62   10.19   0
   0   0  45   -2.20    7.46   0
   1  -4  47   -1.08    7.68   0
   1  -3  52  264.12   11.30   0
   2  -2  61   -8.54    9.67   0
   2   2  48  296.33   12.63   0
   3  -1  64   72.05   10.79   0
   0  -3  39   -1.89    6.99   0
   0   2  34  276.66   10.79   0
   1   2  44  318.44   11.93   0
   2  -5  52  130.89   11.07   0
   2   0  59  -13.59    9.41   0
   2   1  55    4.51    8.66   0
   1  -5  39    3.09    7.97   0
   1  -1  56  201.45   10.90   0
   1   1  51   -1.22    7.50   0
  -1   0  20 1593.99   21.33   0
  -1   0  23   -3.56    5.62   0
  -1  -1  21   21.30    6.76   0
  -1  -1  24 1819.65   21.60   0
  -1  -1  27    0.13    6.80   0
  -1   0  29    9.02    6.11   0
   0  -4  22  677.07   15.63   0
   0  -4  25   -1.27    6.64   0
   0  -3  42  314.76   11.93   0
   0  -2  47   -1.95    8.92   0
   0  -1  49    3.36    8.74   0
   0   2  37   -0.24    7.30   0
   1  -2  57  -12.42    9.59   0
   2  -3  62   46.73   10.42   0
   3   0  63  -10.13    8.78   0
  -1  -1  30  639.85   14.03   0
  -1   0  32 1825.28   21.50   0
   0  -4  19    2.82    6.42   0
   0  -4  28  619.56   14.71   0
   1  -5  42  175.25   10.55   0
   1  -3  55   -7.81    8.89   0
   2  -1  63    3.47    9.59   0
  -1  -1  18 1187.08   19.02   0
   0  -4  31   -3.20    7.08   0
   1   2  47    5.64    7.94   0
   2  -5  55    2.07    9.36   0
   2  -2  64  127.10   10.94   0
  -1  -1  33    4.89    6.40   0
  -1   0  35    3.80    7.49   0
  -1   1  25    5.29    6.80   0
   1  -1  59   -3.50    9.65   0
   1   1  54  100.21   10.77   0
   2   0  62   71.64    9.99   0
   2   1  58   94.06   10.29   0
  -1   1  22  477.58   12.28   0
  -1   1  28 1406.36   18.96   0
   0  -4  34  256.72   10.96   0
   0  -3  45   -1.41    7.37   0
   0  -2  50  194.32   11.19   0
   0   0  51   -3.97    8.78   0
   0   2  40  791.59   15.21   0
  -1  -1  36  931.80   15.68   0
  -1   1  31    6.86    6.10   0
   0  -1  52  323.05   12.02   0
   1  -5  45    4.51    8.15   0
   1  -4  53   -1.75    9.30   0
   1  -2  60  163.71   11.76   0
  -1   0  38  270.05   10.20   0
  -1   1  19    4.04    5.24   0
  -1   1  34 1022.45   16.65   0
   0  -4  37   -5.57    7.39   0
   1  -3  58  107.38   10.99   0
  -1  -2  25    2.33    5.87   0
  -1  -2  28 1358.70   18.96   0
  -1  -1  39    8.90    7.77   0
   0  -3  48  192.06   11.39   0
   0   2  43   -5.41    7.50   0
   1   2  50  183.93   11.13   0
   2  -5  58   89.17    9.49   0
  -1  -2  22  462.98   12.07   0
  -1   0  41    2.95    7.81   0
  -1   1  37    7.38    7.25   0
   0  -2  53   -0.70    9.35   0
   1   1  57    0.32    9.01   0
   0  -4  40  441.99   12.70   0
   0  -1  55   -7.59    9.67   0
   0   0  54   37.35    8.41   0
   1  -5  48  200.89   10.89   0
   1  -4  56  132.86   11.32   0
   1  -1  62   36.94    9.63   0
   2   0  65    5.98    9.90   0
   2   1  61    7.21    8.75   0
  -1  -2  19    1.00    5.21   0
  -1  -1  42  322.83   11.14   0
  -1   1  40  760.28   14.67   0
   0  -4  43    1.98    8.47   0
   0  -3  51    6.86    9.06   0
   0   2  46  255.39   11.52   0
   1  -3  61    3.49    9.25   0
   1  -2  63    0.34    9.29   0
   0   1  53    7.05    7.85   0
   1   2  53    0.50    8.69   0
  -1  -2  16 1993.26   25.01   0
  -1  -1  45   -4.58    7.37   0
  -1   1  43   -1.02    8.26   0
   0  -2  56  101.70    9.62   0
   0   0  57   -2.03    9.38   0
   1  -5  51   -3.40    8.37   0
   1   1  60  155.73   11.78   0
  -1   0  47   -0.21    8.47   0
  -1   2  27    0.07    5.37   0
  -1   2  30  586.01   13.03   0
   0  -1  58  151.97   10.45   0
   0   3  27    1.26    6.20   0
   0   3  30  558.03   14.50   0
   1  -4  59    2.11    9.55   0
   1  -1  65  -12.24    9.57   0
  -1   2  24 1807.47   22.57   0
  -1   2  33    1.22    5.90   0
   0  -4  46  147.60   10.78   0
   0  -3  54   77.21   10.15   0
   0   2  49    1.15    7.16   0
   0   3  33   -0.54    6.38   0
  -1  -1  48  340.26   11.79   0
  -1   2  36  909.71   15.76   0
   0   1  56  206.98   11.74   0
   1  -3  64   65.09    9.84   0
  -1   2  21    9.41    6.15   0
   0  -2  59   -2.19    9.30   0
   0   3  36  535.15   13.90   0
   1  -5  54   50.29    9.43   0
   1   2  56  164.30   11.24   0
  -1  -3  26  654.62   14.86   0
  -1  -3  29    1.53    7.02   0
  -1  -3  32  926.94   16.88   0
  -1   0  50  283.09   11.06   0
  -1   2  39   -0.16    6.39   0
   0  -4  49    7.16    8.38   0
   0  -1  61   -6.23   10.14   0
   0   0  60  183.11   11.83   0
  -1  -3  35    0.15    6.51   0
  -1  -1  51  -13.71    9.17   0
  -1   1  49   -2.42    8.76   0
   0  -3  57    4.54    9.97   0
   0   2  52  201.16   11.25   0
   0   3  39    5.62    7.09   0
   1   1  63   -0.60    8.96   0
  -1  -3  23   11.88    6.99   0
  -1  -3  38  172.51   10.19   0
  -1   2  42  320.97   10.93   0
  -1   0  53    2.96    8.87   0
   0   1  59   -2.99    9.70   0
   0   3  42  242.12   10.90   0
  -1  -3  41    6.26    7.20   0
  -1   2  45   -6.13    8.06   0
   0  -2  62   58.64    9.92   0
   1  -5  57   -2.24    7.84   0
   1   2  59  -10.52    8.29   0
  -1  -3  20  908.34   17.46   0
  -1  -1  54  108.82    9.66   0
  -1   1  52  318.33   12.83   0
   0  -1  64   81.83   10.29   0
   0   0  63   -1.19    9.78   0
   0   2  55   -3.31    8.52   0
  -1  -3  44  309.65   12.19   0
   0  -3  60  140.49   11.14   0
   0   3  45    9.20    7.53   0
  -2   0  31   -6.36    6.97   0
  -2   0  34  284.20   11.06   0
  -1   0  56  212.61   12.20   0
  -1   2  48  326.80   12.02   0
   0  -4  55    4.59    9.47   0
  -2   0  28 1110.92   16.79   0
  -2   0  37    4.71    6.87   0
  -1  -3  47    9.02    9.06   0
  -1   1  55    3.18    9.69   0
   0   1  62   39.60    9.39   0
  -2   0  40  858.12   15.87   0
  -2   1  30  628.48   13.71   0
  -2   1  33    6.51    6.56   0
  -2   1  36  952.46   16.29   0
  -1  -1  57    1.13    8.58   0
   0  -2  65    7.79    9.11   0
   0   2  58   90.90   10.72   0
   0   3  48  328.11   12.19   0
  -2  -1  29    2.54    7.26   0
  -2  -1  32 1187.14   17.46   0
  -2  -1  35   -8.11    7.82   0
  -2   0  25    0.90    5.95   0
  -2   1  27   -1.12    7.03   0
  -2   1  39   14.14    7.73   0
  -1  -3  17    3.50    6.40   0
  -1  -2  55   -9.99    8.44   0
  -1   2  51   -6.79    8.83   0
   0   0  66  105.38   10.50   0
  -2  -1  38  331.95   11.02   0
  -2   0  43   -4.77    7.54   0
  -1  -3  50  196.65   11.31   0
  -1   0  59  -16.48    9.93   0
  -1   3  32 1211.90   18.95   0
  -1   3  35    0.02    6.95   0
   0  -3  63   -4.71    9.57   0
  -2  -1  41    8.04    7.40   0
  -2   0  22 1987.58   22.62   0
  -2   1  24 1943.47   22.30   0
  -2   1  42  333.13   11.10   0
  -1   3  29    1.45    6.30   0
  -1   3  38  352.55   12.01   0
   0  -4  58   68.98    9.94   0
  -2  -1  44  330.96   12.41   0
  -2   0  46  279.80   11.01   0
  -2   1  45   -9.69    8.87   0
  -1  -2  58   95.69   10.41   0
  -1  -1  60  138.89   10.39   0
  -1   3  41   -1.51    7.68   0
   0   1  65    5.10    9.81   0
   0   3  51    1.58    7.85   0
  -1  -3  53    0.61    8.77   0
  -1   2  54  113.21   10.79   0
  -1   3  26  530.11   13.58   0
   0   2  61   -2.25    8.80   0
  -2  -1  47  -13.96    9.25   0
  -2   0  49   -4.03    9.33   0
  -2   2  32  684.12   14.34   0
  -1  -4  30  288.33   11.95   0
  -1  -4  33    0.61    7.41   0
  -1  -4  36  317.59   11.98   0
  -1  -4  39   -3.34    8.77   0
  -1   0  62   45.33    9.82   0
  -1   3  44  324.71   11.90   0
  -2   0  19    4.91    6.48   0
  -2   1  21   18.09    6.00   0
  -2   1  48  357.04   11.80   0
  -2   2  29    2.12    7.01   0
  -2  -2  33    1.42    6.41   0
  -2  -2  36  400.79   11.80   0
  -2  -2  39    3.02    8.03   0
  -1  -4  42  178.38   10.78   0
  -1  -2  61   -4.07    9.42   0
  -1  -1  63    1.73   10.13   0
  -1   2  57   -2.82    9.52   0
  -2  -2  30  201.22    9.49   0
  -2  -2  42  402.51   12.98   0
  -2  -1  50  160.42    9.94   0
  -2   0  52  201.91   10.46   0
  -2   1  51    2.65    9.17   0
  -2   2  26 1299.11   18.81   0
  -1  -4  45   -1.19    9.70   0
  -1  -3  56  136.02   11.30   0
  -1   3  23    1.06    5.97   0
  -1   3  47    4.57    8.17   0
  -2  -2  27   -5.12    7.12   0
  -1   0  65   -9.56   10.03   0
   0   2  64  107.96    9.83   0
  -2  -2  45   -1.63    7.53   0
  -2  -1  53    7.22    9.90   0
  -2   0  55   -7.75    8.54   0
  -2   1  18 1230.31   18.51   0
  -1  -4  48  217.74   11.76   0
  -1  -3  59    3.47    9.31   0
  -1  -1  66   55.28    9.93   0
  -1   2  60  152.53   11.37   0
  -2  -2  24 1953.07   23.26   0
  -2  -2  48  295.01   11.46   0
  -2   0  16 3049.90   29.05   0
  -2   2  23    0.19    5.62   0
  -1  -2  64   56.09    8.95   0
  -2  -1  56  194.31   12.14   0
  -1  -4  51   -0.42    8.91   0
  -1   3  53   -8.89    8.87   0
  -2  -2  51    3.36    9.41   0
  -2   1  57   -4.49    9.47   0
  -1   3  20 1449.56   22.35   0
  -2  -2  21   -1.88    6.77   0
  -2  -2  54   28.30   10.05   0
  -2   2  20 3530.88   30.72   0
  -2   3  34  602.63   14.08   0
  -2   3  37    3.69    7.61   0
  -2   3  40  480.71   13.43   0
  -1  -4  54   56.29    9.63   0
  -1   2  63   -4.47    9.53   0
  -2  -1  59  -12.02    8.98   0
  -9   5  19   -3.22    8.35   0
  -7   4  28  405.47   12.28   0
  -6   3  33    4.19    7.38   0
  -4   4 -11    0.53    5.36   0
  -3   3  12 2731.13   24.28   0
  -7   3  35    8.09    7.27   0
  -6   5  10  479.75   11.99   0
  -9   4  29   12.69    7.36   0
  -9   6  -6   77.30    8.98   0
  -9   6   0  304.47   11.20   0
  -8   4  30   94.63    9.15   0
  -7   5  18  419.50   12.00   0
  -6   4  26  401.25   11.69   0
  -6   5 -17    3.18    6.24   0
  -4   4   7   -3.23    5.24   0
  -9   6  -9    6.89    7.46   0
  -9   6   3    3.52    7.90   0
  -4   2  33   -2.10    6.56   0
  -4   4 -14  310.16    9.76   0
 -10   6   2   83.02    8.43   0
  -9   6 -12  148.99    9.58   0
  -9   6   6  181.62    9.76   0
  -8   6   1    6.04    8.11   0
  -6   5  13    7.06    6.40   0
  -5   3  31   -0.65    6.65   0
 -10   6   5    9.54    7.68   0
  -8   6  -8  439.87   12.34   0
  -8   6   4  240.82   10.37   0
  -4   4  10  436.28   10.34   0
  -3   3  15   -0.62    5.56   0
  -9   6 -15    5.63    8.33   0
  -9   6   9    3.86    8.20   0
  -8   6 -11    4.71    7.30   0
  -7   4  31    7.02    7.94   0
  -7   5  21   -3.86    7.86   0
  -6   5 -20  499.96   12.11   0
  -4   3  26  670.97   13.28   0
  -8   6   7   -4.09    6.89   0
  -6   5  16  680.42   13.49   0
  -4   4 -17    3.23    5.00   0
  -9   5  25   -2.43    8.12   0
  -9   6  12  159.21    9.80   0
  -8   4  33    7.91    8.14   0
  -8   6 -14  116.28    8.76   0
  -8   6  10  184.13   10.44   0
  -6   3  36  300.89   11.33   0
  -6   4  29   -5.39    7.18   0
  -5   5  -1   -1.69    6.33   0
  -4   4  13    0.17    5.42   0
  -3   2  28 1361.38   18.75   0
  -5   4  24  933.68   15.23   0
  -5   5  -7   -1.83    6.19   0
  -5   5   2  328.84    9.49   0
  -9   6  15    9.80    8.33   0
  -8   5  26  181.62    9.51   0
  -8   6 -17   -0.52    8.08   0
  -7   6  -7   14.89    7.37   0
  -7   6  -1    3.29    6.45   0
  -5   5 -10  710.26   13.10   0
  -5   5   5    8.96    5.70   0
  -8   6  13    0.69    6.97   0
  -7   6 -10  230.01    9.77   0
  -7   6   5   -1.60    7.92   0
  -6   5  19   -3.74    6.37   0
  -9   5  28   85.97    9.12   0
  -7   6   8  708.35   13.80   0
  -5   3  34  428.62   11.94   0
  -5   5   8 1000.50   14.49   0
  -4   4 -20 1166.07   17.56   0
  -4   4  16 1528.15   17.66   0
  -9   6  18  107.46    8.91   0
  -8   6  16  379.51   11.86   0
  -7   4  34  170.55   10.00   0
  -7   6 -13   -4.71    6.88   0
  -5   5 -13    0.82    4.96   0
  -4   3  29    0.90    6.17   0
  -7   6  11   -0.66    7.47   0
  -5   5  11   -0.46    5.89   0
  -8   4  36  120.37    9.50   0
  -8   5  29   -0.85    7.70   0
  -7   5  27   -6.72    7.94   0
  -6   4  32  377.16   11.05   0
  -6   5  22  226.10    9.14   0
  -5   4  27    0.53    5.82   0
  -8   6  19    6.57    7.92   0
  -7   6 -16  631.98   13.28   0
  -5   5 -16  679.58   13.25   0
  -4   4  19    5.59    6.25   0
  -9   6  21   -2.93    7.27   0
  -7   6  14  149.10    8.36   0
  -5   5  14  645.02   12.29   0
  -3   3  21   -4.30    4.74   0
  -3   2  31    5.91    5.93   0
  -7   6 -19    4.79    7.36   0
  -7   6  17    1.65    8.31   0
  -6   6   0  895.38   14.64   0
  -9   7  -4  175.27    9.41   0
  -8   5  32  214.42   10.18   0
  -8   6  22  102.28    8.51   0
  -7   4  37   -1.01    7.36   0
  -7   5  30   72.87    8.87   0
  -6   6  -6  398.85   11.01   0
  -5   5 -19    2.55    5.64   0
  -5   5  17    0.82    6.99   0
  -9   7  -7   -2.36    7.45   0
  -6   6  -9    3.97    6.72   0
  -6   6   6  250.95    9.25   0
  -5   3  37    2.95    6.52   0
  -5   4  30  306.32   10.68   0
  -4   3  32  897.54   15.47   0
  -9   7 -10  183.31    9.84   0
  -9   7   8  208.88   10.00   0
  -6   4  35    0.68    7.30   0
  -6   6   9   -4.17    7.09   0
  -7   6  20  272.39    9.90   0
  -6   6 -12  362.70   10.62   0
  -3   3  24 1088.25   16.02   0
  -3   4  -1   15.99    5.07   0
  -3   4   2  868.57   13.81   0
  -9   6  27    1.31    8.36   0
  -9   7 -13    0.24    7.54   0
  -9   7  11    7.67    7.34   0
  -8   7  -6  106.64    8.95   0
  -8   7  -3    0.60    7.98   0
  -8   7   3    3.57    8.24   0
  -6   5  28  438.02   12.15   0
  -6   6  12  442.06   11.72   0
  -5   5  20  705.59   12.73   0
  -3   4   5    6.58    5.98   0
  -2   3  -2  679.74   13.58   0
  -2   3   1   37.38    5.33   0
  -8   7   6  203.45    9.27   0
  -3   4  -7   11.98    5.39   0
  -2   2  23    1.30    5.11   0
  -2   3   4 3074.12   26.23   0
  -9   7  14  139.29    8.82   0
  -8   5  35   -6.45    7.55   0
  -8   7  -9   11.13    7.79   0
  -8   7   9    3.67    8.12   0
  -7   5  33   -1.12    7.65   0
  -7   6  23    2.01    7.90   0
  -6   6 -15   -5.91    6.31   0
  -6   6  15    6.89    7.55   0
  -4   4  25    2.38    6.30   0
  -3   4   8 2858.41   23.64   0
  -4   5   0 1422.89   16.93   0
  -4   5   3   24.17    5.76   0
  -2   3   7   -0.72    4.70   0
  -9   7  17   -1.80    8.02   0
  -8   7 -12  182.51    9.78   0
  -8   7  12  182.72    9.68   0
  -5   4  33    4.88    6.98   0
  -4   5  -6  383.56   10.30   0
  -4   5   6  856.96   13.54   0
  -3   4  11   18.50    6.30   0
  -6   4  38   92.80    8.83   0
  -6   6  18  387.75   11.50   0
  -3   2  34  584.59   13.72   0
  -8   7 -15    7.61    7.22   0
  -8   7  15    2.52    7.37   0
  -6   5  31    1.80    7.43   0
  -6   6 -18  236.10    9.47   0
  -4   3  35    0.07    6.15   0
  -4   5  -9   11.95    5.91   0
  -4   5   9    9.13    5.57   0
  -3   3  27    1.87    5.66   0
  -2   3  10 2130.35   21.62   0
  -9   7  20  120.20    9.51   0
  -7   7   4  185.97    9.79   0
  -8   7  18  130.35    9.48   0
  -7   5  36  259.40   10.93   0
  -7   7  -5    0.22    6.18   0
  -7   7   7    4.92    8.20   0
  -4   5  12  963.03   14.25   0
  -3   4 -13    5.67    4.35   0
  -3   4  14  732.32   12.69   0
  -8   5  38   54.29    8.25   0
  -8   6  31    4.62    7.72   0
  -7   7  -8  637.94   13.55   0
  -7   7  10  226.33   10.23   0
  -6   6  21   -4.03    6.66   0
  -5   5  26  225.72    8.93   0
  -5   6   1   -0.16    6.50   0
  -5   6   4  793.17   13.77   0
  -4   5 -12 1124.05   16.25   0
  -9   7  23   -5.64    7.62   0
  -5   6  -5   -1.96    6.51   0
  -5   6   7    7.96    7.04   0
  -4   5  15    7.68    6.74   0
  -2   2  26 1286.80   18.62   0
  -2   3  13   21.03    5.06   0
  -8   7  21   -0.35    7.95   0
  -7   6  29   -2.02    8.45   0
  -7   7 -11   -2.18    7.14   0
  -5   4  36  337.61   10.90   0
  -3   4  17    8.68    5.98   0
  -6   5  34  224.39   10.50   0
  -6   6  24  498.67   12.43   0
  -5   6  -8  818.18   14.15   0
  -5   6  10  481.11   11.06   0
  -7   7 -14  133.92    8.77   0
  -7   7  16  516.17   12.86   0
  -4   5 -15    5.09    5.43   0
  -3   4 -16 1984.26   22.55   0
  -9   8  -2   97.73    9.17   0
  -9   8   1   -6.04    7.52   0
  -8   6  34  140.05    9.33   0
  -5   5  29    3.18    7.01   0
  -5   6 -11   10.69    6.38   0
  -5   6  13    6.48    6.18   0
  -3   3  30  330.64   10.37   0
  -2   3  16 2068.32   21.17   0
  -9   8  -5   -0.43    7.01   0
  -9   8   7   -8.42    7.74   0
  -8   7  24  267.00   10.40   0
  -7   5  39   -4.40    7.89   0
  -4   4  31   -0.38    6.41   0
  -7   6  32  273.94   11.12   0
  -7   7  19   -5.48    6.91   0
  -5   6  16  684.24   13.17   0
  -9   8  -8  140.96    9.14   0
  -7   7 -17   -0.87    6.52   0
  -6   7   2  333.46   10.85   0
  -5   6 -14  397.76   10.88   0
  -4   5  21    5.02    6.67   0
  -9   8  13   -8.16    7.11   0
  -6   5  37    5.09    7.64   0
  -6   7  -4  267.53   10.12   0
  -6   7   5    8.32    6.63   0
  -4   5 -18  727.73   13.90   0
  -9   8 -11    8.05    7.22   0
  -8   8  -1   -1.26    8.02   0
  -8   8   5   -1.21    8.03   0
  -7   7  22  106.59    9.50   0
  -6   7   8  680.76   12.89   0
  -5   4  39    3.18    7.00   0
  -5   5  32  512.95   12.51   0
  -5   6  19    9.44    7.16   0
  -8   6  37   -1.63    7.13   0
  -8   8  -4  225.66    9.79   0
  -8   8   8  258.18   10.49   0
  -6   7  -7   -4.47    7.11   0
  -6   7  11    0.56    6.55   0
  -3   4 -19   13.18    5.35   0
  -2   2  29   -2.69    4.96   0
  -8   8  -7    0.69    7.84   0
  -8   8  11   -2.91    7.89   0
  -7   6  35    5.20    8.40   0
  -6   6  30  133.61    9.50   0
  -5   6 -17   -3.94    6.65   0
  -7   7  25    9.20    7.85   0
  -6   7 -10  217.75    9.71   0
  -6   7  14  144.53    8.45   0
  -5   6  22  230.35   10.08   0
  -4   4  34  275.08    9.82   0
  -3   3  33   -1.40    5.79   0
  -8   7  30   64.37    8.88   0
  -8   8 -10  149.98    9.33   0
  -6   7  17   -7.31    6.69   0
  -2   3  22  479.10   11.33   0
  -8   8  17   -2.86    7.77   0
  -6   7 -13    0.04    6.69   0
  -4   5 -21    8.99    5.50   0
  -8   8 -13   -1.53    6.72   0
  -6   5  40  206.52   10.09   0
  -6   6  33    6.70    7.96   0
  -5   5  35   -1.19    7.20   0
  -4   5  27   10.10    6.61   0
  -3   4  26  650.57   12.43   0
  -3   5   1   -1.80    5.96   0
  -3   5   4  740.61   13.04   0
  -8   7  33    1.30    8.13   0
  -8   8  20  128.60    9.37   0
  -7   8   0  394.70   11.82   0
  -7   8   6  206.43   10.26   0
  -5   6 -20  455.49   11.82   0
  -4   6   2  612.99   12.39   0
  -4   6   5    4.33    6.66   0
  -3   5  -2  806.19   13.56   0
  -3   5   7   10.91    5.36   0
  -7   6  38   48.88    8.61   0
  -7   8  -3    4.33    7.32   0
  -7   8   9    3.93    7.87   0
  -6   7 -16  616.92   12.93   0
  -4   6   8  879.76   14.15   0
  -3   5  10  781.74   13.23   0
  -7   8  -6  100.97    8.98   0
  -7   8  12  171.57   10.00   0
  -6   7  23    3.96    8.05   0
  -8   8  23   -0.91    7.79   0
  -5   6  28  417.49   11.78   0
  -4   4  37    0.41    6.47   0
  -3   5  13    3.05    6.40   0
  -2   2  32  659.19   14.32   0
  -7   7  31    7.64    7.62   0
  -7   8  -9   -2.14    7.41   0
  -7   8  15   -0.06    7.81   0
  -4   5  30  292.96   10.33   0
  -4   6  -7   -0.88    6.06   0
  -4   6  14  294.37    9.82   0
  -3   3  36  868.42   15.85   0
  -3   4  29    0.70    6.12   0
  -3   5  -8 2228.79   21.68   0
  -2   3  25    4.56    4.58   0
  -2   4   0 4287.54   29.55   0
  -2   4   3   -0.88    4.78   0
  -2   4   6  844.67   13.48   0
  -6   6  36  209.14    9.93   0
  -5   5  38  206.76   10.38   0
  -5   7   3   -0.71    6.16   0
  -5   7   6  178.39    8.21   0
  -5   7   9   -3.05    7.42   0
  -2   4   9    3.43    5.65   0
  -8   8  26   82.51    8.87   0
  -7   8  18  127.37    9.30   0
  -5   7  -3    8.43    5.90   0
  -4   6  17   -5.36    6.92   0
  -3   5  16 1853.05   18.94   0
  -2   4  -3    0.62    4.46   0
  -7   6  41   -2.42    8.46   0
  -7   8 -12  190.05    9.03   0
  -5   7  -6  451.50   11.50   0
  -5   7  12  496.81   11.46   0
  -4   6 -10  342.48    9.59   0
  -2   4  12  792.44   13.05   0
  -7   7  34  168.45   10.34   0
  -5   6  31    2.67    7.05   0
  -5   7  15    7.03    7.55   0
  -3   5 -11    4.26    5.53   0
  -7   8  21    2.62    7.33   0
  -4   6  20  659.10   13.00   0
  -3   5  19    5.00    5.53   0
  -7   8 -15   -4.10    7.69   0
  -5   7  -9    1.96    5.49   0
  -4   5  33    5.87    6.85   0
  -4   6 -13    4.93    5.71   0
  -2   3  28 1379.48   18.18   0
  -2   4  15    0.23    4.93   0
  -7   8  24  269.41   10.90   0
  -6   6  39    0.37    7.75   0
  -6   8   7   -0.38    8.04   0
  -5   7  18  398.83   10.77   0
  -4   4  40  433.93   12.01   0
  -3   4  32  912.12   15.16   0
  -8   9  -2   93.01    8.73   0
  -8   9   1    2.07    7.81   0
  -8   9   7    4.02    8.20   0
  -8   9  10   81.15    9.12   0
  -6   8  -2  221.76   10.09   0
  -6   8  10  181.33    9.75   0
  -4   6  23   11.06    7.11   0
  -3   5  22  315.48    9.87   0
  -2   4  -9    0.40    4.84   0
  -1   2  21   14.43    5.01   0
  -8   9  13    3.65    8.27   0
  -6   8  13    7.92    7.71   0
  -5   5  41   -4.40    6.80   0
  -5   6  34  236.48   10.26   0
  -5   7 -12  385.66   10.92   0
  -5   7  21    3.74    7.39   0
  -3   5 -14  365.84   10.28   0
  -2   4  18 1104.10   15.14   0
  -8   9  -5    5.69    6.91   0
  -7   7  37   -1.28    8.04   0
  -6   7  32  248.80   10.83   0
  -6   8  -5  -12.91    7.50   0
  -6   8  16  383.01   11.97   0
  -4   6 -16  713.49   13.51   0
  -8   9  -8  148.85    8.47   0
  -6   8  -8  441.59   11.84   0
  -5   7  24  309.65   10.70   0
  -4   5  36  321.69   10.81   0
  -6   8  19    0.61    7.71   0
  -5   7 -15    6.40    6.21   0
  -2   4 -12  778.63   14.18   0
  -1   3   5    9.63    5.41   0
  -6   6  42  136.20    9.91   0
  -6   8 -11   -8.61    6.98   0
  -3   4  35   11.79    6.11   0
  -2   3  31    2.69    5.43   0
  -1   3   2  713.48   13.21   0
  -1   3   8 3480.13   27.24   0
  -7   8  30   68.72    7.97   0
  -6   7  35   12.95    7.71   0
  -6   8  22  115.58    9.31   0
  -5   6  37    3.05    7.05   0
  -3   5 -17    4.17    5.22   0
  -1   3  -1   29.74    5.67   0
  -1   3  11    6.41    5.61   0
  -7   9   2   87.65    8.20   0
  -7   9   8  226.74    9.79   0
  -1   2  24 1811.25   21.34   0
  -7   9  -1   -2.39    7.09   0
  -7   9  11   -3.79    7.92   0
  -5   7 -18  153.76    8.84   0
  -4   6 -19   -5.51    5.79   0
  -3   5  28  411.78   10.43   0
  -2   4  24 1799.78   19.06   0
  -7   9  -4  194.69    9.51   0
  -7   9  14  130.23    8.93   0
  -6   8 -14  118.14    8.00   0
  -6   8  25    5.65    7.67   0
  -4   7   4  655.65   12.28   0
  -4   7   7    1.04    6.12   0
  -4   7  10  402.38   10.96   0
  -3   6   0 1053.12   15.18   0
  -3   6   3    3.98    5.53   0
  -3   6   6  466.53   10.64   0
  -3   6   9   -2.76    5.86   0
  -1   3  14 1639.79   18.81   0
  -7   8  33   -0.87    7.17   0
  -4   5  39    2.81    6.77   0
  -4   7  13   14.01    7.12   0
  -3   6  12  767.85   12.90   0
  -7   9  -7    1.33    6.63   0
  -7   9  17    3.51    7.13   0
  -5   7  30   82.82    7.55   0
  -3   6  15    5.69    6.87   0
  -2   4 -15    0.64    4.56   0
  -6   7  38   37.20    8.44   0
  -5   6  40  192.67    9.86   0
  -5   8   8  454.49   12.00   0
  -4   6  32  330.18   10.99   0
  -4   7  -5    4.87    6.71   0
  -4   7  16  421.06   10.81   0
  -1   3  17    9.80    4.70   0
  -7   9  20  140.38    8.74   0
  -5   8  -1    2.07    7.20   0
  -5   8  11   -5.97    6.68   0
  -3   4  38  179.38    8.79   0
  -3   5  31    1.45    5.48   0
  -3   6  -6  465.17   10.95   0
  -2   3  34  616.50   13.20   0
  -2   4  27    1.37    4.95   0
  -2   5   5    5.86    5.22   0
  -2   5   8 2285.63   21.01   0
  -5   8  14  154.67    8.46   0
  -4   7  -8  574.04   12.31   0
  -4   7  19    2.70    6.38   0
  -3   5 -20  529.54   12.48   0
  -3   6  18  440.75   10.51   0
  -2   5   2  806.52   13.02   0
  -2   5  11    5.32    5.36   0
  -1   2  27   -2.83    5.09   0
  -7   9  23   -1.37    7.58   0
  -5   7  33    3.13    7.49   0
  -5   8  -4  270.18    9.37   0
  -5   8  17   -4.00    7.79   0
  -2   5  -1    3.46    4.87   0
  -2   5  14  395.73   10.35   0
  -6   8  31   13.48    8.14   0
  -3   6  -9    3.07    5.96   0
  -3   6  21    5.91    6.83   0
  -5   8  -7   -7.12    7.17   0
  -5   8  20  216.19   10.23   0
  -4   6  35    1.73    7.05   0
  -2   5  17    0.26    6.36   0
  -6   7  41    5.62    7.06   0
  -6   9   9  -12.28    7.45   0
  -4   5  42  171.31    9.11   0
  -4   7 -11    5.57    6.17   0
  -3   5  34  444.84   11.36   0
  -2   4  30  209.98    8.79   0
  -6   9   0  303.55   10.63   0
  -6   9  12  142.89    9.60   0
  -4   7  25    7.70    7.53   0
  -3   6  24  608.75   12.61   0
  -6   9  -3    2.03    7.35   0
  -6   9  15    1.43    8.05   0
  -5   7  36  250.10   10.61   0
  -5   8 -10  206.84    9.26   0
  -5   8  23    4.10    7.03   0
  -3   6 -12  749.27   13.46   0
  -2   4 -18 1020.20   17.32   0
  -2   5  -7   13.06    5.56   0
  -2   5  20  605.88   12.30   0
  -1   3  23    1.06    5.18   0
  -6   8  34  123.13    9.18   0
  -6   9  18  110.16    9.08   0
  -6   9  -6   81.52    8.21   0
  -4   7 -14  345.79   10.39   0
  -2   3  37    3.26    5.52   0
  -6   9  21    3.08    7.78   0
  -5   8 -13    0.64    6.78   0
  -5   8  26  186.34    9.47   0
  -4   6  38  103.73    8.49   0
  -1   2  30  615.34   13.58   0
  -3   5  37   -3.14    6.50   0
  -2   4  33   -0.92    5.92   0
  -2   5 -10  726.70   13.23   0
  -1   4   4 1350.67   16.81   0
  -1   4   7    9.48    5.16   0
  -1   4  10 1177.01   15.78   0
  -6   9  -9    3.56    6.85   0
  -5   7  39    4.47    7.80   0
  -3   6 -15    0.56    5.62   0
  -6   8  37    2.76    7.67   0
  -6   9  24  219.79   10.12   0
  -4   7  31  -13.52    7.74   0
  -1   3  26  541.73   11.49   0
  -1   4   1   17.58    5.08   0
  -1   4  13   12.25    5.10   0
  -4   7 -17    6.84    6.02   0
  -3   6  30  202.24    8.64   0
  -6   9 -12  156.04    9.46   0
  -4   8   6  197.14    8.65   0
  -4   8   9    2.91    6.45   0
  -4   8  12  276.18   10.61   0
  -3   7   2  233.44    9.45   0
  -3   7   5   11.67    5.90   0
  -3   7   8  566.12   11.70   0
  -3   7  11    6.21    7.15   0
  -1   4  -2  858.81   13.62   0
  -6   9  27    4.88    6.66   0
  -4   6  41   -2.61    7.24   0
  -4   8   0  515.27   12.41   0
  -4   8  15   -4.04    7.78   0
  -3   7  14  372.32   10.22   0
  -2   5 -13    0.83    5.14   0
  -5   8  32  213.67   10.41   0
  -3   7  17    9.96    7.15   0
  -1   4  19   15.83    5.21   0
  -5   7  42  139.61    9.72   0
  -5   9   7    3.78    7.57   0
  -5   9  10  125.44    8.93   0
  -4   7  34  174.67    9.75   0
  -4   8  -3   -1.33    7.12   0
  -4   8  18  210.24    9.21   0
  -3   5  40  444.02   12.00   0
  -3   6  33   -4.90    6.89   0
  -2   4  36  393.22   10.95   0
  -2   5  29   -0.27    6.43   0
  -2   6   7    1.59    6.22   0
  -2   6  10  369.66   10.45   0
  -5   9   1    3.93    7.26   0
  -5   9  13   -4.63    8.05   0
  -3   6 -18  400.02   11.01   0
  -3   7  -4  654.69   12.30   0
  -3   7  20  448.15   11.45   0
  -2   6   4  860.80   13.51   0
  -2   6  13    8.45    6.36   0
  -1   3  29    5.22    4.60   0
  -5   9  16  346.50   11.42   0
  -4   8  -6  197.75    9.32   0
  -4   8  21   -0.30    6.79   0
  -2   6   1   -1.33    5.35   0
  -2   6  16  754.02   13.41   0
  -1   2  33    4.57    4.67   0
  -5   8  35   -1.56    7.40   0
  -5   9  -2  163.93    9.29   0
  -5   9  19    6.01    7.71   0
  -3   7  -7    0.92    6.54   0
  -3   7  23    5.50    7.38   0
  -4   8  24  330.63   11.11   0
  -2   6  19   -5.95    6.60   0
  -5   9  -5   -1.00    7.67   0
  -5   9  22   82.50    8.45   0
  -4   7  37   -0.26    7.76   0
  -4   8  -9    3.39    6.54   0
  -3   6  36  301.68   10.52   0
  -2   5 -16 1773.21   20.50   0
  -2   5  32  696.26   13.01   0
  -1   4  -8 2711.97   24.06   0
  -3   7  26  158.69    9.04   0
  -2   6  -5   -0.16    6.10   0
  -1   4  25    5.51    4.90   0
  -6  10   2   78.12    7.66   0
  -5   9  -8  375.59   11.20   0
  -4   8  27    4.81    7.87   0
  -3   7 -10  391.71   10.71   0
  -2   4  39   -0.50    6.54   0
  -2   6  22  373.57   10.15   0
  -1   3  32 1205.24   17.17   0
  -5   8  38   53.62    8.40   0
  -5   9  25   -7.74    7.09   0
  -4   8 -12  254.79    9.64   0
  -2   6  -8  852.40   14.16   0
  -1   5   6  369.46   10.07   0
  -1   5   9   18.42    5.50   0
  -1   5  12 1174.88   15.56   0
  -5   9  28   87.04    8.83   0
  -4   7  40  140.37    8.96   0
  -2   5  35    8.37    6.58   0
  -1   4 -11   18.42    5.32   0
  -1   4  28  731.98   13.28   0
  -1   5   3   -3.35    5.03   0
  -1   5  15    8.29    6.36   0
   0   2  19   -0.63    4.60   0
  -5   9 -11    1.53    6.86   0
  -3   6  39    3.62    7.10   0
  -3   7 -13   11.01    6.20   0
  -1   5   0 1381.92   16.41   0
  -1   5  18  747.80   12.74   0
  -4   8 -15   -4.01    7.13   0
  -3   7  32  296.47   10.63   0
   0   3   9   -1.11    5.46   0
  -4   8  33   -4.34    7.71   0
  -3   8   7    2.82    6.99   0
  -3   8  10  225.94    9.62   0
  -3   8  13    4.13    7.98   0
  -2   5 -19    2.42    5.06   0
  -2   6 -11   -1.12    4.87   0
  -1   3  35    0.31    5.80   0
  -1   5  21   11.42    6.60   0
   0   3  12 2107.29   20.62   0
  -4   9   8  366.70   11.30   0
  -4   9  11   -0.98    7.53   0
  -4   9  14   81.67    8.87   0
  -3   8  16  417.63   11.61   0
  -1   4  31    6.85    6.07   0
   0   3   3   -3.30    5.28   0
   0   3  15    2.85    4.62   0
  -4   7  43    5.93    7.50   0
  -4   9   2  173.13    9.18   0
  -4   9  17   19.06    8.13   0
  -2   5  38   94.29    7.81   0
  -2   6  31    0.26    7.05   0
  -3   6  42  153.70    8.89   0
  -3   7 -16  418.27   10.99   0
  -3   7  35    3.22    7.59   0
  -3   8  19  -11.23    6.63   0
  -2   7   6  460.11   11.44   0
  -2   7   9    3.72    6.15   0
  -2   7  12  420.80   10.65   0
  -1   5  -6  851.57   13.87   0
  -4   8  36  115.78    8.76   0
  -4   9  -1   -0.50    7.76   0
  -3   8  -2  231.85    8.79   0
  -3   8  22  118.75    9.41   0
  -2   7   3   11.07    6.06   0
  -2   7  15    4.17    6.35   0
  -1   4 -14  695.16   13.68   0
   0   3   0 2687.42   23.81   0
  -5  10   6   78.61    7.86   0
  -2   6 -14  281.97    9.49   0
  -2   7  18  179.43    8.55   0
  -5  10   3    2.54    7.52   0
  -4   9  23    3.01    8.09   0
  -3   8  -5    0.60    7.24   0
  -2   7  21   -0.81    7.52   0
  -1   4  34  536.39   12.15   0
  -1   5  27    6.65    6.50   0
   0   2  25    1.85    4.75   0
  -5  10   0  200.59    9.03   0
  -3   8  25    2.30    7.15   0
  -2   6  34  182.78    8.65   0
  -2   7  -3   -1.34    6.79   0
   0   3  -3   -1.74    5.00   0
  -4   9  -7    6.80    7.34   0
  -4   9  26  135.55    9.09   0
  -3   7  38  149.26    8.76   0
  -2   5  41   -0.19    7.11   0
  -1   5  -9   -0.57    4.73   0
  -5  10  -3    1.73    6.58   0
  -4   8  39   -2.49    7.63   0
  -2   7  24  460.15   11.22   0
  -1   6   8  785.41   13.43   0
  -1   6  11    2.14    6.65   0
   0   3  24 1614.21   18.59   0
  -2   7  -6  156.83    8.48   0
  -1   5  30  197.61    8.91   0
  -1   6   5    0.98    5.82   0
  -1   6  14  415.26   10.39   0
   0   4   8 1604.62   17.63   0
   0   4  11    3.30    5.10   0
   0   4  14  341.65    9.86   0
  -2   6 -17    3.41    5.52   0
  -2   6  37    9.50    7.15   0
  -1   6   2  344.62   10.15   0
  -1   6  17    4.45    6.14   0
   0   4   5    0.14    5.02   0
  -5  10  -6   83.78    7.88   0
  -4   9 -10  140.97    8.40   0
  -1   6  20  519.93   11.76   0
   0   2  28 1097.43   16.77   0
   0   4   2 1444.72   17.08   0
   0   4  17    2.80    5.18   0
  -3   8 -11    0.52    6.84   0
  -3   8  31   -8.47    7.04   0
  -1   4 -17    0.81    4.49   0
  -1   4  37   -2.45    6.00   0
  -1   5 -12  955.12   15.06   0
  -3   7  41    0.29    7.62   0
  -2   7  -9   -4.65    5.58   0
  -2   7  30  171.06    9.46   0
  -1   5  33    4.08    6.66   0
  -1   6  23   -2.10    6.79   0
   0   3  27   -1.75    5.25   0
   0   4  20 1280.25   15.95   0
   0   4  -1   -6.38    4.82   0
  -3   8  34  133.42    8.77   0
  -1   6  -4  727.97   12.61   0
  -3   8 -14  128.92    8.96   0
  -3   9   9   -4.02    7.78   0
  -3   9  12  163.23    9.57   0
  -3   9  15    8.13    7.52   0
  -2   6  40  244.82   10.02   0
  -3   9   3   10.03    7.31   0
  -3   9  18  194.38    9.66   0
  -2   7  33   -4.96    7.40   0
  -2   8   8  446.19   11.82   0
  -2   8  11   -5.57    7.63   0
  -2   8  14  126.20    9.18   0
  -2   8   5    0.66    7.66   0
  -2   8  17   -4.88    7.64   0
  -1   5  36  467.76   11.80   0
  -1   6  -7   -8.29    6.09   0
   0   2  31    0.04    4.50   0
   0   3  -9    4.91    4.86   0
   0   3  30  567.56   12.05   0
   0   4  26  784.10   13.40   0
  -3   7  44  134.51    9.06   0
  -3   8  37    7.30    7.51   0
  -3   9   0  323.23   10.75   0
  -3   9  21   -2.18    7.14   0
  -2   8  20  186.46    9.95   0
  -1   5 -15   12.87    5.43   0
  -1   6  29    6.68    7.10   0
   0   5  10  728.74   12.89   0
   0   5  13    7.58    6.62   0
  -4  10   1   -0.31    6.75   0
  -3   9  24  173.45    9.62   0
   0   5   7    6.68    5.54   0
   0   5  16  738.48   13.31   0
  -3   9  -3    1.69    6.93   0
  -2   7  36  168.91    9.14   0
  -2   8  -1   -0.83    7.55   0
  -2   8  23   -4.80    7.55   0
   0   5   4 1180.15   15.31   0
   0   5  19    4.19    6.70   0
  -2   6  43   -0.29    6.69   0
  -2   7 -15    3.37    6.10   0
  -1   6  32  379.68   11.47   0
  -1   7   7   12.99    6.95   0
  -1   7  10  221.98    8.83   0
  -1   7  13   -6.27    7.59   0
  -1   7  16  642.14   13.44   0
   0   4  -7    4.48    4.51   0
   0   4  29    1.19    6.09   0
  -3   9  27    8.20    7.89   0
  -2   8  26  175.29    9.52   0
  -1   7   4  267.84    9.69   0
   0   3  33    1.52    5.44   0
   0   5   1   -0.34    5.40   0
   0   5  22  244.16    9.25   0
  -3   8  40  124.82    8.40   0
  -3   9  -6  167.74    9.32   0
  -1   4 -20  817.68   16.08   0
  -1   5  39    0.33    6.72   0
  -1   7  19   -0.72    6.67   0
   0   5  -2  328.36    9.83   0
  -2   7  39   -2.02    7.60   0
  -2   8  -7    8.21    7.00   0
  -1   6  35    1.75    7.59   0
   0   2  34  271.01    9.71   0
   0   4  32  481.22   11.49   0
  -3   9  -9    3.25    6.48   0
  -1   5 -18  388.94   10.79   0
  -1   6 -13   10.32    6.06   0
  -1   7  -2  341.25    9.72   0
  -1   7  25   -5.40    7.56   0
   0   3 -12 2544.92   24.99   0
   0   4 -10  426.48   10.65   0
  -2   8  32  184.15    9.35   0
  -1   7  -5    1.71    7.06   0
   1   2  11   16.68    5.47   0
  -2   8 -10  177.47    8.88   0
  -1   5  42  207.54    9.52   0
   0   3  36  539.94   12.41   0
   0   6  12  368.33   10.47   0
   0   6  15   -8.91    7.17   0
   1   2   8 3443.68   26.98   0
   1   2  14 1581.39   18.41   0
  -3   9 -12  132.33    8.55   0
  -2   7  42   93.72    8.11   0
  -1   6  38  126.22    8.52   0
   0   4  35    0.42    5.98   0
   0   6   6  396.74   10.90   0
   0   6  18  269.99   10.09   0
   1   3   7   11.18    5.89   0
   1   3  10 1176.01   15.30   0
   1   3  13    6.51    5.05   0
   1   3  16 2197.66   20.86   0
   0   5  -8  966.32   14.79   0
   0   5  31   -3.86    6.56   0
   0   6   3   -0.62    6.55   0
   1   2   5    4.56    4.60   0
  -2   9  10  167.95    8.94   0
  -2   9  13   -4.69    7.04   0
  -2   9  16  174.31    9.51   0
  -1   6 -16  620.66   13.15   0
  -1   7  -8  688.85   13.23   0
  -1   7  31   -2.71    6.92   0
   0   6  21    5.83    6.26   0
   1   2  20 1434.39   17.95   0
   1   3   4 1346.61   16.39   0
  -2   9  19  -10.27    7.64   0
   0   4 -13   -1.22    5.41   0
   0   6   0  879.01   14.19   0
  -2   8 -13   -3.64    6.77   0
  -2   9  22   50.89    7.99   0
  -1   8  12  204.94   10.19   0
   0   6  24  595.66   12.11   0
   1   2   2  705.02   13.08   0
   1   3  22  370.27    9.96   0
   1   4  12 1208.65   15.82   0
  -1   8   9   -5.04    7.19   0
  -1   8  15   -4.86    6.94   0
   1   3   1   20.58    5.10   0
   1   4   9   16.77    5.58   0
   1   4  15   -1.63    5.50   0
  -2  -4  17    3.56    8.44   0
   0  -7  31    5.16   10.14   0
   0  -1  22  489.01   13.61   0
   1  -7  38   48.90   11.29   0
   1  -6  40  213.00   13.96   0
   1  -3  37   13.10    9.48   0
   2  -4  42  417.50   14.86   0
   3  -3  39   -0.75    9.19   0
   4  -7  47    4.47   11.50   0
   4  -5  45    7.62   11.20   0
  -2  -5  15    1.10    8.55   0
  -2  -2  12  796.67   16.42   0
  -1  -6  26  280.27   13.18   0
   0  -8  26   96.54   11.16   0
   2  -6  44  216.41   13.03   0
   2  -2  34  287.25   12.39   0
   3  -4  43    0.76   10.63   0
  -1  -7  21   -1.49   11.01   0
  -1  -3  29    5.67    9.23   0
  -1  -2  25   11.85    7.31   0
   0  -4  37    2.54    9.87   0
   1  -5  42  173.82   12.92   0
   1  -4  41    9.83   10.71   0
   1  -1  26 1187.02   20.53   0
  -2  -4  20  625.58   15.97   0
  -2  -3  19    0.71    7.10   0
  -2  -5  18  391.47   13.91   0
  -2  -2  15   -3.81    6.11   0
  -1  -1  18 1219.78   19.84   0
   0  -7  34  147.16   11.83   0
   2  -7  45   -6.76   10.89   0
   3  -6  48  134.48   13.33   0
   3  -5  47    2.38   11.31   0
  -1  -6  29   -7.27   10.50   0
   0  -3  36  847.65   16.71   0
   0  -2  32  684.29   15.10   0
   1  -7  41    4.08   10.78   0
   1  -6  43   14.91   10.78   0
   2  -3  41    0.81    9.29   0
   2  -1  27   -2.31    6.94   0
   4  -4  44  388.01   15.24   0
   0  -1  25   -0.44    6.54   0
   3  -2  35    1.45    7.65   0
   4  -6  49    6.02   11.21   0
  -2  -5  21    3.83    9.44   0
  -2  -4  23   -2.59    8.80   0
  -2  -3  22  307.08   12.26   0
  -1  -4  33   -3.49    8.62   0
   2  -6  47   -6.36   10.21   0
   2  -4  45   -6.34   10.60   0
   4  -5  48  156.87   13.02   0
  -1  -3  32  897.29   16.89   0
  -1  -2  28 1358.04   19.75   0
   0  -6  39   -7.99   11.15   0
   3  -4  46   81.03   12.00   0
   3  -3  42  249.99   13.13   0
  -1  -1  21   13.15    6.82   0
   0  -4  40  443.67   14.06   0
   1  -5  45   -7.81   11.58   0
   1  -4  44  299.94   14.03   0
   2  -2  37    2.77    8.50   0
  -1  -7  27    1.87   10.31   0
  -1  -6  32  248.02   13.84   0
   1  -1  29   -4.32    7.56   0
  -2  -5  24  310.16   13.31   0
  -2  -4  26  376.70   13.80   0
   0  -3  39   -4.07   10.19   0
   1  -7  44  104.94   11.45   0
  -1  -4  36  346.33   14.03   0
   0  -2  35    9.62    7.48   0
   1  -6  46   63.58   10.81   0
   2  -5  49    6.08   11.69   0
   3  -6  51  -14.70   10.70   0
   3  -5  50  184.72   14.11   0
  -1  -3  35   10.84    9.33   0
  -1  -2  31    6.34    8.96   0
   0  -1  28 1379.80   20.32   0
   2  -3  44  347.51   14.38   0
  -1  -7  30   64.45   10.41   0
  -1  -5  37   -3.16   10.26   0
  -1  -1  24 1920.85   23.53   0
   0  -6  42  130.40   11.50   0
   2  -1  30  629.23   16.60   0
   4  -6  52   99.46   11.35   0
  -2  -6  22  109.08   10.68   0
  -2  -5  27   -4.91    9.45   0
  -1  -6  35   13.48    9.85   0
   0  -4  43    2.45    9.15   0
   2  -4  48  307.04   13.10   0
  -2  -4  29    4.89    8.09   0
  -2  -2  24 1820.29   22.30   0
   0  -5  44  176.79   11.73   0
   1  -5  48  192.26   12.95   0
   1  -4  47    1.09   10.55   0
   1  -2  39   -1.56    7.53   0
   3  -2  38  334.63   13.46   0
   4  -5  51    0.65   10.80   0
  -1  -4  39   -0.36   11.04   0
   0  -3  42  316.51   13.69   0
   2  -2  40  876.49   18.33   0
   3  -4  49   10.22   10.81   0
   3  -3  45   -5.01    9.11   0
  -1  -7  33   -2.71    9.98   0
   0  -2  38  272.12   12.51   0
   1  -6  49    9.86   10.87   0
   1  -1  32 1733.85   23.07   0
  -3  -3   9    4.14    7.82   0
  -2  -6  25    4.76    9.64   0
  -2  -5  30   75.93   10.76   0
  -1  -3  38  181.78   10.71   0
  -1  -2  34  637.36   14.66   0
  -1  -1  27    0.36    7.77   0
   0  -6  45  -13.54   10.71   0
   0  -1  31   -0.45    6.61   0
  -3  -3  12  755.76   16.82   0
  -2  -4  32  349.55   13.69   0
  -2  -3  31    2.57    8.86   0
  -2  -2  27   -7.58    8.42   0
  -2  -1  17   11.14    6.22   0
  -1  -6  38   44.88   10.27   0
  -1  -5  40  196.06   11.96   0
   2  -5  52  130.14   12.77   0
   3  -5  53   -4.47   11.47   0
   0  -4  46  160.49   12.42   0
   1  -3  46  136.27   10.26   0
   2  -3  47  -12.69    9.52   0
  -3  -3  15    4.25    7.67   0
  -2  -6  28  160.61   11.74   0
   0  -5  47   -5.14   10.42   0
   1  -5  51  -19.09   11.10   0
   2  -4  51  -11.04   10.64   0
  -3  -4  16  412.86   13.84   0
  -2  -5  33    0.89   10.25   0
  -2  -1  20 1483.86   20.45   0
  -1  -4  42  170.03   12.55   0
   1  -2  42  337.35   12.12   0
   2  -1  33    1.23    7.44   0
  -3  -3  18  411.50   13.40   0
  -2  -2  30  207.10   11.28   0
  -1  -1  30  644.33   15.04   0
   0  -3  45    1.06    8.68   0
   0  -2  41    1.23    9.09   0
  -2  -3  34  436.15   13.33   0
  -1  -6  41   12.01    9.18   0
  -1  -5  43    0.52   10.72   0
   0  -6  48  127.61   11.57   0
   1  -1  35    0.72    6.48   0
   2  -2  43   -4.54    8.78   0
   3  -4  52  179.33   12.54   0
  -3  -3  21    2.29    8.23   0
  -3  -2  11    3.20    6.86   0
  -2  -6  31    3.03    9.10   0
  -2  -1  23    1.83    7.73   0
   3  -3  48  320.83   14.00   0
  -3  -4  22  157.80   10.97   0
  -3  -2   5    5.35    6.58   0
  -3  -2  14  385.76   12.58   0
   0  -4  49   -2.10   10.78   0
   2  -5  55    5.86   10.52   0
  -3  -2  17    1.22    7.60   0
  -2  -5  36  241.11   13.09   0
  -1  -4  45  -10.53   11.14   0
   0  -5  50   60.97   11.68   0
   1  -3  49   -2.04    8.61   0
  -3  -3  24  621.49   15.21   0
  -2  -3  37   -5.35    9.55   0
  -2  -2  33   11.51    7.77   0
  -1  -1  33   -4.50    8.51   0
   2  -3  50  181.99   12.43   0
   3  -5  56  107.49   12.09   0
  -3  -4  25    7.12    8.66   0
  -3  -2  20  619.16   14.90   0
  -2  -1  26  541.81   13.24   0
  -1  -5  46   47.73   11.28   0
  -1  -3  44  291.42   12.19   0
  -1  -2  40  475.39   13.43   0
   0  -3  48  215.54   12.84   0
   1  -2  45   -6.44    7.69   0
   2  -4  54   40.28   11.42   0
   2  -1  36  914.97   18.43   0
  -3  -3  27   -1.24    8.50   0
  -2  -5  39   -4.89    9.66   0
   1  -1  38  258.28   10.75   0
  -3  -4  28  372.98   13.34   0
  -3  -2  23    2.99    6.88   0
  -1   0  20 1575.25   22.31   0
   3  -4  55   -5.93   10.58   0
  -2  -6  37   -6.49    9.77   0
  -2  -4  41    4.64    8.70   0
  -2  -3  40  436.97   13.54   0
  -2  -1  29    4.64    7.16   0
  -1  -4  48  209.10   13.08   0
  -1  -1  36  974.74   17.53   0
   0  -5  53    8.68   10.24   0
   0  -4  52  142.54   11.35   0
  -3  -5  26  165.34   11.02   0
  -3  -3  30  203.37   11.64   0
  -3  -2  26  643.95   14.99   0
  -1  -3  47  -10.49   10.87   0
  -1  -2  43    3.86    8.29   0
   1  -3  52  258.52   12.13   0
   2  -5  58   93.80   11.04   0
  -3  -4  31  -11.32    9.61   0
  -1  -5  49   -9.12   10.85   0
  -1   0  23    1.57    7.17   0
   0  -3  51   12.10   10.24   0
   1  -2  48  357.98   13.79   0
   2  -3  53   -9.16   10.37   0
  -2  -5  42  141.17   11.34   0
  -2  -1  32 1245.58   19.05   0
   1  -4  56  133.22   12.26   0
   1   0  25   -0.08    6.30   0
   2  -4  57    2.48   10.89   0
  -3  -5  29    3.76    8.68   0
  -2  -2  39    5.11    8.23   0
   1  -1  41    3.94    7.88   0
   2  -1  39    1.37    7.21   0
  -3  -3  33   -7.72    7.90   0
  -3  -1  13    5.65    6.72   0
  -3  -1  16 2148.52   24.76   0
  -2  -4  44  213.30   11.74   0
  -2  -3  43    5.54    8.64   0
  -1  -1  39    4.41    8.29   0
  -3  -4  34  176.73   12.06   0
  -3  -1  10 1127.46   19.41   0
  -3  -1  19    8.06    7.22   0
  -1  -4  51   -6.07    9.73   0
  -1  -2  46  138.82   11.19   0
  -3  -5  32  205.39   11.34   0
  -2  -1  35    9.67    8.73   0
  -1  -3  50  184.43   12.31   0
   2  -2  49   -0.23    8.99   0
  -3  -3  36  327.99   12.99   0
  -3  -1   7   14.82    6.50   0
  -2  -5  45   -5.51   10.33   0
  -2  -2  42  408.81   13.60   0
  -2   0  16 3070.12   29.90   0
   0  -1  43    6.36    8.71   0
   0   0  30  161.02    8.78   0
   1  -3  55   -3.76   10.02   0
   1   0  28 1337.92   21.67   0
  -3  -4  37    1.37    9.88   0
  -2  -4  47   -9.12   10.52   0
  -2  -3  46   49.62   11.27   0
  -2   0  13    1.34    5.51   0
  -2   0  19   -2.36    6.02   0
  -1   0  29   -2.54    6.38   0
   1  -2  51   -2.27   10.10   0
  -3  -5  35    3.60    9.34   0
  -1  -1  42  346.17   12.52   0
   1  -4  59  -12.85   10.14   0
   1  -1  44  445.10   13.88   0
   2  -3  56  180.29   12.13   0
  -2  -1  38  340.48   12.65   0
  -2   0  22 1933.76   22.62   0
  -1  -4  54   47.23   11.55   0
   2  -4  60  107.01   12.04   0
   2  -1  42  339.10   13.32   0
  -3  -1  28  716.52   14.61   0
  -2   0  25   -5.68    7.31   0
  -1  -2  49    5.34    8.65   0
   0  -4  58   63.08   11.20   0
   0   0  33    3.75    7.27   0
  -3  -4  40  157.80   11.19   0
  -2  -2  45    5.12    8.49   0
  -1  -3  53   -4.99    9.43   0
  -1   0  32 1824.70   21.84   0
   1   0  31    1.51    6.51   0
  -3  -5  38   38.04    9.32   0
  -3  -2  38   83.86   10.49   0
  -3  -1  31    5.76    8.57   0
  -2  -4  50   95.95   11.61   0
  -2  -3  49  -16.17   10.58   0
   0  -1  46  123.25   10.52   0
   2  -2  52  195.46   12.17   0
  -4  -3  20  437.54   13.54   0
  -2   0  28 1133.15   17.38   0
  -1  -1  45   -1.06    9.31   0
   0  -2  53  -11.40   10.05   0
   1  -3  58  101.30   12.28   0
  -4  -3  23   -1.05    8.38   0
  -2  -1  41    0.69    7.85   0
  -1   0  35   -0.82    7.85   0
   1  -2  54   97.97   11.17   0
  -3  -4  43   -8.44    9.42   0
  -3  -1  34  529.04   13.80   0
  -1  -4  57    3.86   10.60   0
  -1  -2  52  278.86   13.12   0
   0   0  36  582.22   13.72   0
   1  -1  47    1.75    8.52   0
  -4  -3  26  147.12   10.52   0
  -4  -2  16  725.43   16.01   0
  -4  -2  19   -5.09    7.55   0
  -4  -2  22  371.00   12.48   0
  -3  -2  41    2.63    9.53   0
  -2  -2  48  323.29   12.19   0
  -2   0  31    2.61    6.80   0
   1   0  34  936.01   17.83   0
   2  -3  59    9.62    9.36   0
   2  -1  45    5.92    8.56   0
  -4  -3  29    5.96    9.10   0
  -4  -2  13    1.86    7.10   0
  -4  -2  25    1.55    8.12   0
  -1  -3  56  147.43   11.20   0
  -3  -1  37   -2.28    9.01   0
  -2  -4  53    0.98   10.33   0
  -2  -3  52  143.52   11.35   0
  -2  -1  44  327.71   11.91   0
  -1  -1  48  341.19   13.22   0
  -1   0  38  273.58   11.59   0
   0  -1  49   -6.62    9.18   0
  -4  -2  28  429.00   13.41   0
  -2   0  34  288.88   10.60   0
   0  -2  56  107.81   11.13   0
   0   0  39   -8.00    7.63   0
  -4  -3  32  286.68   12.56   0
  -3  -4  46   50.97    9.59   0
  -3  -2  44  238.64   12.20   0
  -3   0  21    2.29    7.11   0
   0  -3  60  141.89   11.35   0
   1  -3  61    7.28   10.44   0
  -4  -2  31    0.27    8.76   0
  -3   0  24 1641.23   20.42   0
  -2  -2  51    5.10    9.16   0
  -1  -2  55  -15.59    9.92   0
   1  -2  57    0.83    9.49   0
   1  -1  50  285.07   12.51   0
   1   0  37    6.40    6.79   0
  -4  -4  33   -1.14    9.75   0
  -4  -3  35    1.96    8.84   0
  -3  -3  48  144.60   11.65   0
  -3  -1  40  479.67   12.94   0
  -3   0  27   -1.11    7.37   0
  -2  -1  47   10.92    9.79   0
  -2   0  37    5.87    7.18   0
  -1  -3  59   -0.76   10.54   0
  -4  -2  34  165.96   10.98   0
  -4  -1  18  726.77   15.42   0
  -4  -1  21    8.52    7.46   0
  -2  -3  55   -4.71   10.08   0
  -4  -1  24  673.60   14.32   0
  -3  -2  47   18.21    9.69   0
  -3   0  30  566.23   13.04   0
   0  -1  52  314.20   12.20   0
   0   0  42  817.21   16.50   0
  -4  -4  36  108.93    9.77   0
  -4  -3  38  130.46   10.51   0
  -4  -1  15    0.49    6.71   0
  -4  -1  27    6.08    7.02   0
  -3  -1  43    9.02    9.58   0
  -2   0  40  868.70   16.33   0
  -4  -2  37    0.76    9.18   0
  -4  -1  30  181.29   10.48   0
  -3   0  33   -7.75    8.16   0
  -2  -2  54   38.92   10.02   0
   0  -3  63   -0.82    9.42   0
   0  -2  59   -4.44    9.53   0
   1   0  40  731.47   16.04   0
  -4  -1  12 1136.50   19.08   0
  -3  -3  51   -4.84    9.68   0
  -2  -1  50  177.01   12.04   0
   1  -3  64   54.80   10.02   0
  -4  -4  39   -2.42    8.14   0
  -4  -3  41   -0.64    8.83   0
  -4  -1  33    5.53    8.54   0
  -3  -2  50  186.72   12.37   0
  -3   0   9   -3.30    5.69   0
  -2  -3  58  102.19   10.67   0
   1  -2  60  160.88   11.40   0
   1  -1  53    1.02    8.68   0
  -4  -2  40  247.42   11.02   0
  -3  -1  46   70.97   10.52   0
  -3   0  36  544.06   13.19   0
  -2   0  43   -1.45    9.05   0
   0  -1  55   -3.29    9.92   0
   0   0  45   -1.75    8.23   0
  -4  -1   9   15.03    6.65   0
  -3   0  39   11.66    8.19   0
  -1   0  47   -0.39    8.78   0
   1   0  43    2.29    7.29   0
  -4  -3  44  127.36   10.07   0
  -4  -2  43  -11.80    9.82   0
  -3  -3  54   49.87    9.10   0
  -2  -1  53    3.15    8.35   0
  -3  -2  53    6.10   10.01   0
  -3  -1  49   -2.51    9.59   0
  -2   0  46  260.43   10.98   0
  -1   1  22  470.84   12.44   0
  -1   1  25    1.74    5.74   0
  -1   1  28 1395.86   19.85   0
  -3   0  42  258.57   11.65   0
  -2   1  24 1923.29   22.53   0
  -1  -1  57    7.84    9.99   0
  -1   1  19   -6.16    5.47   0
   0   0  48  459.32   13.77   0
   1  -1  56  215.43   11.98   0
  -4  -3  47    9.60    8.73   0
  -4  -1  42  225.41   11.92   0
  -4   0  20 1330.71   19.20   0
  -4   0  23    3.75    6.24   0
  -2   1  21    6.97    6.10   0
  -2   1  27    0.01    6.25   0
   0  -1  58  166.55   11.94   0
   1  -2  63   -1.22    9.83   0
  -4   0  32  483.16   13.37   0
  -2  -2  60   94.95   10.91   0
  -2   1  18 1232.85   18.97   0
  -2   1  30  610.90   13.37   0
   1   0  46  119.89    9.38   0
  -4   0  17   -3.66    6.63   0
  -3  -1  52  202.36   11.85   0
  -2  -1  56  205.05   11.69   0
  -2   0  49    7.12    9.36   0
  -2   1  33    3.77    7.72   0
  -4   0  35   -1.63    8.20   0
  -3  -2  56   91.99   10.11   0
  -3   0  45    1.48    7.87   0
   0   1  23    2.17    5.79   0
   0   1  26 1141.05   19.04   0
  -5  -2  27    3.70    8.11   0
  -5  -2  30  164.33   11.01   0
  -4  -1  45    4.40    7.93   0
  -2   1  15    0.04    6.53   0
  -2   1  36  960.05   16.68   0
  -1  -2  64   56.97   10.68   0
  -1   1  37   -9.91    7.43   0
   0  -2  65   -0.08    9.17   0
   0   0  51   -4.10    8.44   0
   0   1  29   -0.83    5.33   0
  -5  -2  33    6.26    9.89   0
  -4   0  14  322.81   10.61   0
  -4   0  38  133.86    9.95   0
  -3   1  23    2.04    7.16   0
  -3   1  26  569.37   13.28   0
  -3   1  29   -2.58    7.87   0
  -1  -1  60  158.49   11.56   0
   0   1  32 1768.85   22.84   0
  -3   0  48  342.25   12.94   0
  -1   0  53   -0.25    9.28   0
   1   0  49   -0.88    8.66   0
  -5  -2  36  170.00   10.68   0
  -5  -1  26  224.47   10.80   0
  -5  -1  29    7.17    8.46   0
  -4  -1  48  146.72   11.45   0
  -4   0  41    0.92    9.03   0
  -3  -1  55   -2.30    9.18   0
  -3   1  20 1470.55   19.23   0
  -2  -1  59    4.95    9.25   0
  -2   1  39   -2.82    6.92   0
  -1   1  40  751.94   15.48   0
   0  -1  61    1.29    9.98   0
   0   1  35   -1.25    6.64   0
  -5  -1  23    2.88    7.70   0
  -5  -1  32  378.93   13.12   0
  -3   1  35    0.87    7.08   0
  -5  -2  39    3.30    8.30   0
  -5  -1  20  489.89   13.43   0
  -5  -1  35   -9.56    9.28   0
  -4   0  11    3.21    6.02   0
  -3   1  17   11.93    5.68   0
  -2   1  42  328.24   11.86   0
   0   0  54   34.74    9.48   0
  -4  -1  51    1.09    9.83   0
  -4   0  44  414.87   13.50   0
  -3   0  51    3.32    8.62   0
  -3   1  38  349.34   11.16   0
  -1   1  43    0.18    7.96   0
   0   1  38  273.45   10.87   0
  -5  -2  42   74.35   10.27   0
  -5  -1  17    2.50    7.45   0
  -5  -1  38  133.18   10.36   0
  -3  -1  58  102.16   10.46   0
  -1  -1  63   -9.49    9.35   0
  -1   0  56  217.88   12.24   0
  -3   1  41    1.24    8.61   0
  -5  -1  41   -2.30    8.82   0
  -4   0  47    1.77    9.36   0
  -3   1  14 1593.72   20.69   0
   0  -1  64   78.60   10.65   0
   0   1  41   -0.40    7.24   0
  -5  -2  45    6.01    8.47   0
  -5   0  28  652.41   14.74   0
  -4  -1  54   59.80    9.89   0
  -4   1  25   -8.21    7.34   0
  -4   1  28  737.15   14.15   0
  -4   1  31    7.78    8.25   0
  -3   0  54  100.55   10.95   0
  -1   1  46  110.67    9.96   0
  -5   0  25    0.52    7.65   0
  -5   0  31    4.78    7.00   0
  -4   0   8 1520.84   21.88   0
  -4   1  34  552.91   12.89   0
  -3   1  44  348.81   11.61   0
   0   0  57   -0.59    9.09   0
  -5  -1  44  159.84   10.58   0
  -5   0  22  245.92   10.62   0
  -4   0  50  175.72   11.34   0
  -4   1  37   -2.73    8.01   0
   0   1  44  459.17   13.34   0
  -5   0  37   -0.87    7.43   0
  -3   1  47   -1.30    9.15   0
  -5  -1  47    7.34    9.29   0
  -5   0  19   -4.90    7.12   0
  -4  -1  57   -2.90   10.05   0
  -4   1  40  490.64   12.77   0
  -3   0  57    4.61    9.35   0
  -1   1  49    4.20    7.08   0
   1   1  30  589.72   14.86   0
   1   1  33    2.18    6.25   0
  -4   0  53    4.13    8.49   0
  -4   1  43    7.43    7.86   0
  -2   0  61   -9.69    9.60   0
   0   0  60  165.90   12.29   0
   0   1  47    1.28    7.57   0
  -5  -1  50   61.11   10.14   0
  -5   0  16  713.32   15.20   0
  -4   1  16 2033.14   22.39   0
  -3   1  50  155.28   10.04   0
  -1   0  62   38.93   10.33   0
   1   1  36  870.53   17.31   0
  -4   1  46   89.55   10.12   0
  -1   1  52  335.03   12.59   0
  -4   0  56   86.25   11.07   0
  -2   1  54  124.32   10.88   0
   1   1  39    0.07    6.72   0
  -3   1  53    8.08    9.19   0
   0   1  50  280.41   11.78   0
  -5   0  13    0.27    7.09   0
  -5   0  49   -0.33    9.14   0
  -5   1  27   -1.49    7.51   0
  -5   1  36  510.59   13.77   0
  -4   0   5   -0.63    5.64   0
  -4   1  13    1.86    6.67   0
  -4   1  49   -1.29    9.62   0
  -5   1  24  676.18   14.37   0
  -5   1  39    4.23    8.93   0
  -3   2  28 1406.48   18.85   0
  -3   2  31   -2.05    6.75   0
  -3   2  34  640.33   13.97   0
  -2   0  64  102.92   11.31   0
  -2   2  29   -2.70    6.02   0
  -1   1  55   -4.97    8.58   0
  -6  -1  31   -0.27    8.14   0
  -6  -1  34  161.32   10.12   0
  -3   0  63   11.69    8.97   0
  -3   2  25    3.39    7.20   0
  -3   2  37   -0.78    7.02   0
  -2   1  57   -7.42    9.52   0
  -2   2  26 1292.72   17.98   0
  -1   0  65    1.56    9.58   0
  -6  -1  37   -7.94    7.95   0
  -5   0  52  167.02   11.03   0
  -5   1  21   10.98    7.23   0
  -5   1  42  220.62   11.51   0
  -4   0  59    4.79    8.34   0
  -4   1  52  195.64   11.48   0
  -3   1  56  175.92   11.68   0
  -3   2  40  480.41   12.92   0
  -2   2  23   -2.95    5.72   0
   0   1  53    6.71    8.38   0
  -5   1  45   -0.25    9.51   0
  -4   2  30  210.91   10.07   0
  -4   2  33   -8.77    8.15   0
  -3   2  22  488.61   11.90   0
  -3   2  43    5.49    8.56   0
  -1   2  30  590.11   13.57   0
  -1   2  33    2.71    7.10   0
  -6  -1  43   -2.74    7.92   0
  -6   0  27   -5.66    8.69   0
  -6   0  30  147.35   10.23   0
  -6   0  33   -6.67    8.62   0
  -6   0  36  142.33   10.01   0
  -5   1  18  751.11   14.89   0
  -4   1  55   -3.88    9.76   0
  -4   2  27    4.73    6.48   0
  -4   2  39    3.99    8.58   0
  -2   2  44  703.98   14.53   0
  -1   1  58  169.51   11.30   0
  -1   2  36  930.66   15.94   0
  -6   0  39    9.00    8.81   0
  -5   0  55    5.37    8.14   0
  -5   1  48  136.75   10.64   0
  -4   1  10 1105.14   17.52   0
  -3   2  46  132.93   10.45   0
  -2   1  60  174.20   11.06   0
  -2   2  20 3582.83   29.44   0
  -1   2  27   -0.85    5.38   0
  -1   2  39   -6.33    7.33   0
  -6   0  24  580.63   14.23   0
  -6   0  42  148.16   10.15   0
  -4   2  24 1849.73   20.57   0
  -3   2  19    4.09    5.71   0
  -2   2  47   -2.21    7.89   0
  -4   2  45    9.47    9.10   0
  -1   2  42  323.12   10.70   0
  -6   0  21    5.10    7.98   0
  -6   0  45   -8.18    8.48   0
  -5   1  51   -5.30    8.53   0
  -4   1  58  112.23   10.43   0
  -4   2  21    0.69    6.05   0
  -3   2  49    0.75    7.72   0
  -5   1  15    5.72    5.43   0
  -3   1  62   44.35   10.08   0
  -2   2  17   -1.63    6.28   0
  -2   2  50  190.87   10.99   0
  -1   1  61   -7.14    9.39   0
  -1   2  45   -3.09    7.79   0
  -6   0  48  128.63    9.94   0
  -6   1  32  389.29   12.50   0
  -6   1  35    9.52    8.85   0
  -5   2  32  736.00   14.82   0
  -5   2  35   -3.12    8.09   0
  -4   2  48  319.47   11.41   0
  -3   2  16 2107.12   22.91   0
  -2   1  63   -4.82    9.61   0
  -6   1  29   -0.10    8.05   0
  -6   1  38  137.32   10.56   0
  -5   1  54   52.65    9.18   0
  -5   2  29   -0.20    6.72   0
  -4   2  18 1089.89   16.88   0
  -6   1  26  229.51   10.71   0
  -6   1  41    9.06    9.18   0
  -5   2  41    3.99    7.82   0
  -4   1  61    5.63    8.81   0
  -4   2  51    3.39    9.16   0
  -2   2  53    7.71    8.56   0
  -1   2  48  348.91   11.45   0
  -6   1  44  160.24   10.58   0
  -5   2  44  229.44   12.21   0
  -4   1   7   13.52    5.91   0
  -6   1  23   10.68    7.55   0
  -5   1  12 1157.45   18.03   0
  -5   1  57   -6.81    8.90   0
  -3   2  55    3.44    8.23   0
  -1   1  64   89.40    9.53   0
  -5   2  47    8.07    7.92   0
  -4   2  54   25.61    9.73   0
  -1   2  51   -8.60    8.25   0
   0   2  34  277.10   10.79   0
   0   2  37    3.79    6.27   0
  -4   2  15   -2.91    6.48   0
  -3   2  13   11.79    6.71   0
  -2   2  14  346.46   10.79   0
  -2   2  56  103.45   10.34   0
   0   2  31    5.10    6.18   0
   0   2  40  803.69   16.05   0
  -6   1  20  510.37   13.74   0
  -5   2  20  598.30   13.27   0
  -5   2  50  166.08   10.30   0
  -3   2  58  109.03   10.48   0
  -4   2  57    7.30    8.93   0
  -1   2  54  107.01   10.08   0
   0   2  28 1114.07   18.37   0
   0   2  43    3.06    7.38   0
  -5   2  53  -12.30    9.06   0
  -6   2  31   -4.92    8.36   0
  -6   2  34  183.31    9.52   0
  -3   3  33   -0.33    7.87   0
  -3   3  39    0.73    8.00   0
  -2   2  59    3.41    9.03   0
   0   2  46  254.96   10.78   0
  -6   2  28  455.59   13.07   0
  -6   2  43  -10.91    8.88   0
  -5   2  17    1.65    6.75   0
  -4   3  32  928.66   16.12   0
  -4   3  35    5.18    7.29   0
  -4   3  38  169.72    9.44   0
  -4   3  41   -2.62    8.33   0
  -3   2  61  -11.55    8.88   0
  -3   3  30  326.44   11.16   0
   0   2  25    1.91    5.52   0
  -6   1  17    2.31    6.97   0
  -6   2  46  111.43   10.52   0
  -5   1   9   16.20    6.22   0
  -5   2  56  119.99   10.43   0
  -4   3  29    3.10    7.37   0
  -4   3  44  300.98   12.15   0
  -1   2  57   -2.18    8.59   0
  -6   2  25    4.04    8.02   0
  -3   3  27   -5.79    7.29   0
  -6   2  49   12.59    8.66   0
  -5   3  37  -11.78    8.32   0
  -4   3  26  704.50   13.65   0
  -4   3  47   -3.51    8.96   0
  -3   2  10 2106.65   23.75   0
  -3   3  48  199.58   11.62   0
  -2   2  62   56.88    9.28   0
  -2   3  34  606.66   13.52   0
  -2   3  37    2.10    7.42   0
  -2   3  40  467.61   12.94   0
  -7   1  37   15.64    8.61   0
  -5   3  31   -4.90    7.89   0
  -5   3  34  448.71   12.15   0
  -5   3  40  449.78   12.58   0
  -5   3  43   -4.50    9.67   0
  -4   1   4 1261.13   20.23   0
  -2   2  11    3.19    5.23   0
  -2   3  43    4.18    7.99   0
  -7   1  31    7.75    8.41   0
  -7   1  34  157.52   10.54   0
  -7   1  40  193.09   11.19   0
  -7   1  43    8.21    9.45   0
  -6   2  22  376.10   11.71   0
  -6   2  52  117.23   10.31   0
  -5   2  14  387.39   11.33   0
  -3   3  24 1103.97   16.35   0
   0   2  22 1860.06   24.06   0
  -6   1  14  406.53   12.18   0
  -5   3  28  402.79   11.41   0
  -5   3  46   52.86    8.54   0
  -4   3  23    1.26    6.47   0
  -3   3  51    7.18    7.44   0
  -2   3  46  153.89   10.07   0
  -7   1  28  150.63    9.68   0
  -5   3  49    9.10    9.10   0
  -5   3  25    2.28    6.53   0
  -3   3  21    0.01    6.95   0
  -3   3  54   84.40   10.36   0
  -2   2  65    1.33    8.02   0
  -2   3  49    8.76    8.51   0
  -6   2  19   -0.12    7.19   0
  -4   3  20  943.38   15.76   0
  -6   3  36  341.10   12.25   0
  -6   3  39  -10.97    9.25   0
  -2   3  52  299.21   12.09   0
  -7   2  33    1.41    8.68   0
  -7   2  36  174.84   10.85   0
  -7   2  39    6.91    9.01   0
  -7   2  42   82.74    9.58   0
  -6   3  33   11.92    7.23   0
  -6   3  45   -4.73    8.87   0
  -5   3  22  306.94   10.09   0
  -3   3  57   -2.11    9.06   0
  -7   2  30  183.49   10.60   0
  -7   2  45    3.32    8.26   0
  -5   2  11    4.02    6.40   0
  -5   3  55    4.56    8.97   0
  -2   3  22  479.25   12.22   0
  -1   3  38  353.10   11.60   0
  -6   2  16  756.88   15.01   0
  -6   3  48  162.54   10.29   0
  -4   3  59   -3.50    8.86   0
  -3   3  18 1353.11   17.87   0
  -2   3  55    2.91    8.69   0
  -1   3  35   -3.89    6.63   0
  -1   3  41    1.86    7.27   0
  -7   2  27   -0.37    8.23   0
  -6   3  51    1.90    9.18   0
  -5   3  19    0.31    7.28   0
  -4   3  17    0.14    5.80   0
  -3   2   7    0.26    5.04   0
  -1   3  32 1190.09   18.06   0
  -1   3  44  320.08   11.60   0
  -5   3  58  104.77   10.43   0
  -3   3  60  160.54   10.54   0
  -1   3  47    2.47    7.49   0
  -6   3  24  624.25   13.95   0
  -1   3  29    5.48    6.50   0
  -7   2  24  448.11   12.93   0
  -6   3  54   44.63    8.43   0
  -2   3  58  110.69   10.25   0
  -1   3  50  171.84   10.69   0
  -4   4  37   -5.03    8.15   0
  -2   3  19   -1.05    5.50   0
  -7   3  38  121.47   10.00   0
  -7   3  41   -1.41    8.68   0
  -6   2  13    0.71    6.66   0
  -6   3  21   14.36    7.53   0
  -5   4  36  343.50   11.91   0
  -5   4  39   -8.55    9.39   0
  -5   4  42  163.23   10.54   0
  -4   2   6  817.60   15.51   0
  -4   3  14  702.72   13.95   0
  -4   4  34  266.90   10.28   0
  -4   4  43    7.00    7.52   0
  -3   3  15    2.43    5.58   0
  -3   3  63   -3.64    8.15   0
  -1   3  26  515.32   12.67   0
  -7   2  21   -3.12    7.44   0
  -7   3  35   -2.58    8.21   0
  -5   2   8 2267.78   24.35   0
  -5   4  33   12.71    8.66   0
  -4   4  31   -4.21    8.02   0
  -7   3  32  299.50   11.12   0
  -5   4  30  310.13   11.26   0
  -5   4  48  196.83   11.48   0
  -3   4  38  173.85    9.98   0
  -3   4  41    0.98    8.20   0
  -2   3  61   -0.65    8.70   0
  -7   3  29    8.44    8.42   0
  -4   4  28  641.40   13.28   0
  -3   4  44  298.57   10.79   0
  -6   3  18  447.80   12.04   0
  -6   4  35    5.92    8.83   0
  -6   4  38  112.59   10.48   0
  -6   4  41   19.13    9.34   0
  -5   4  27   15.82    7.85   0
  -5   4  51  -12.45    8.34   0
  -4   4  52  163.47   11.14   0
  -3   4  47    9.46    8.55   0
  -7   3  26  172.69   10.44   0
  -6   4  32  373.04   12.48   0
  -6   4  47    2.21    8.94   0
  -5   1   3    0.44    5.70   0
  -3   4  50  193.85   11.02   0
  -2   3  16 2051.90   22.30   0
  -1   3  23    4.80    5.89   0
  -7   2  18  172.41    9.78   0
  -5   4  54   54.52   10.01   0
  -4   4  25   -0.10    6.60   0
  -4   4  55  -14.21    8.85   0
  -3   4  29    2.60    6.38   0
  -6   4  50  100.88    9.65   0
  -3   3  12 2653.14   24.83   0
  -3  -6  24  213.89   11.04   0
  -3  -1  13    6.66    5.61   0
  -2  -4  38   95.11   10.50   0
  -4  -4   6  195.17   10.09   0
  -4  -4   9    0.16    7.56   0
  -4  -3   2  242.41   10.05   0
  -4  -3   5    7.94    6.93   0
  -4  -3   8  557.72   13.39   0
  -2  -3  37   -5.03    8.24   0
  -2  -2  33    4.37    7.54   0
   0  -1  31   -4.58    6.07   0
   1  -2  39    1.49    6.62   0
  -4  -4  12  264.50   11.01   0
  -4  -3  11    3.41    7.22   0
  -3  -4  31    1.15    8.60   0
  -3  -3  30  193.74   10.18   0
  -3  -2  26  654.30   13.63   0
  -3  -1  16 2113.94   22.06   0
  -2  -6  37   -1.01    7.94   0
  -2  -5  39    9.90    8.05   0
  -1  -6  44   98.32    9.98   0
  -4  -3  14  372.32   11.63   0
  -3  -6  27    3.89    8.47   0
   1  -5  51    2.38    8.57   0
  -4  -4  15    8.42    8.07   0
  -1  -5  46   51.37    9.64   0
   0  -3  45   -0.69    8.06   0
  -4  -4  18  194.73   10.76   0
  -4  -3  17   12.32    7.70   0
  -3  -5  32  201.62   10.74   0
  -3  -1  19    7.96    6.02   0
  -2  -4  41    4.29    8.76   0
   0  -5  50   81.83    9.59   0
  -4  -5  13   -4.02    8.69   0
  -4  -2   4  894.93   15.87   0
  -4  -2   7   -1.92    6.37   0
  -4  -2  10  350.45   11.11   0
  -3  -4  34  183.77   10.48   0
  -3  -3  33    1.81    8.63   0
  -3  -2  29    2.14    7.47   0
   0  -4  49   -3.09    8.79   0
   0  -2  41   -1.47    6.86   0
  -4  -3  20  442.04   12.54   0
  -4  -2   1    0.75    6.43   0
  -4  -2  13    0.09    7.09   0
  -2  -5  42  139.28   10.10   0
  -2  -3  40  443.07   12.17   0
  -2  -2  36  389.04   11.15   0
  -2  -1  29   -2.49    6.05   0
  -4  -5  16  332.32   11.84   0
  -4  -4  21   -3.84    7.45   0
  -4  -2  16  789.07   14.53   0
  -3  -1  22  374.44   10.23   0
   1  -1  32 1674.77   22.75   0
  -3  -5  35    0.88    8.22   0
   0  -1  34  959.44   16.38   0
  -4  -5  19   -0.15    8.21   0
  -4  -4  24  326.57   11.61   0
  -4  -3  23    3.77    6.87   0
  -4  -2  19    5.77    7.23   0
  -3  -2  32  708.87   14.14   0
  -2   0  13    0.30    5.04   0
  -1  -4  48  204.47   11.02   0
   1  -2  42  322.67   11.31   0
  -3  -4  37   -7.25    7.95   0
  -3  -3  36  331.40   10.88   0
  -3  -1  25    1.16    6.65   0
  -2  -4  44  234.15   10.96   0
   0  -3  48  219.42   10.84   0
   1  -5  54   54.73    8.69   0
  -4  -5  22   81.13    9.21   0
  -2  -5  45  -13.49    8.50   0
  -2  -3  43    7.73    8.43   0
  -2  -2  39   -6.70    8.13   0
  -2  -1  32 1220.91   16.69   0
  -2   0  16 3123.96   27.18   0
  -4  -4  27    2.74    8.12   0
  -3  -5  38   51.14    8.83   0
  -1  -3  47    2.41    8.05   0
   0  -5  53    2.80    8.69   0
   1  -3  49   -1.76    8.41   0
  -4  -5  25   -3.94    7.72   0
  -1  -2  43   -2.54    7.51   0
  -1  -1  36  954.09   15.77   0
   1  -4  53    0.32    8.69   0
  -4  -2  25   -2.73    7.37   0
  -3  -4  40  156.45   10.13   0
  -3  -3  39    5.95    8.98   0
  -3  -2  35    4.75    6.98   0
  -3  -1  28  752.09   13.60   0
  -2   0  19    2.13    5.19   0
  -4  -4  30   77.28    9.16   0
  -4  -1   9   13.84    6.39   0
  -4  -1  12 1167.70   16.88   0
  -2  -4  47   -1.37    8.86   0
  -1   0  23   -0.93    4.79   0
   0  -1  37    3.14    6.28   0
  -4  -5  28   96.50    8.70   0
  -4  -1   6  379.02   11.10   0
  -4  -1  15    5.31    6.57   0
  -2  -2  42  413.21   12.28   0
  -2  -1  35   -2.07    6.14   0
  -1  -4  51  -11.18    9.26   0
   1  -1  35   -2.47    5.69   0
  -4  -2  28  453.00   12.02   0
  -2  -3  46   47.51    9.37   0
  -2   0  22 1979.82   20.96   0
  -4  -3  32  284.77   10.26   0
  -4  -1   3   -2.17    5.62   0
  -3  -2  38  106.08    9.03   0
  -3  -1  31    9.33    6.47   0
   0  -3  51   -2.78    7.84   0
   1  -2  45    4.56    6.66   0
  -4  -1  21    2.51    6.66   0
  -3  -4  43   -3.67    8.31   0
  -3  -3  42  167.22   10.33   0
  -3   0  12 2033.44   21.78   0
  -1  -3  50  164.97   10.64   0
  -1  -2  46  132.33    9.51   0
  -1  -1  39   -4.16    6.47   0
  -4  -2  31    2.57    7.92   0
  -3   0  15   -3.05    5.03   0
  -2   0  25    1.56    5.24   0
   0  -2  47   -0.99    7.31   0
  -4  -3  35   -1.12    8.20   0
  -4  -1   0 1371.61   19.81   0
  -4  -1  24  675.33   13.45   0
  -3   0  18  540.63   11.56   0
  -2  -4  50   99.54    9.64   0
  -2  -1  38  337.83   10.15   0
   0  -4  55    0.98    8.53   0
  -4  -4  36  139.36    9.51   0
  -3  -1  34  514.18   12.00   0
   0  -1  40  793.43   15.16   0
  -5  -3  13    0.29    7.26   0
  -5  -3  16  416.80   11.90   0
  -3  -2  41   -9.16    7.10   0
  -3   0  21   -5.42    5.43   0
  -1  -4  54   55.49    8.48   0
  -5  -3  19   -4.32    7.19   0
  -4  -2  34  168.50    8.99   0
  -4  -1  27   -3.15    6.31   0
  -3  -4  46   52.12    8.83   0
  -3  -3  45    5.29    8.37   0
  -2   0  28 1145.99   15.99   0
   1  -1  38  268.68   10.60   0
  -5  -4  17    4.26    6.89   0
  -5  -3  22  107.80    9.36   0
  -5  -2  12  394.88   11.53   0
  -5  -2  15    7.44    7.19   0
  -4  -3  38  126.94    9.86   0
  -3   0  24 1706.58   19.12   0
  -1  -1  42  351.95   11.27   0
  -5  -4  20  115.98    8.65   0
  -5  -2   9   -4.10    6.35   0
  -5  -2  18  180.29    9.16   0
  -4  -4  39  -11.52    8.01   0
  -3  -1  37   -1.80    6.63   0
  -1  -3  53   -0.57    8.38   0
  -1  -2  49    9.13    7.65   0
   0  -3  54   85.56    9.23   0
   0   0  27    0.51    5.36   0
  -5  -4  23   -0.34    7.70   0
  -5  -3  25    1.04    8.01   0
  -5  -2   6  431.58   12.24   0
  -5  -2  21    1.12    7.81   0
  -4  -2  37    4.05    8.26   0
  -4  -1  -3   13.41    5.52   0
  -4  -1  30  181.50    8.68   0
  -3   0  27    4.19    5.79   0
  -2  -2  48  314.44   11.64   0
  -2   0  31   -6.00    5.51   0
   0  -2  50  206.41   10.02   0
  -5  -4  26  143.72    9.67   0
  -5  -3  28  170.17   10.10   0
  -5  -2  24  478.14   12.58   0
  -4  -3  41    7.67    8.11   0
  -3  -3  48  160.72    9.93   0
  -2  -3  52  142.80    9.82   0
  -1   0  32 1672.76   19.51   0
   0  -4  58   54.35    8.95   0
   0  -1  43   -0.96    6.66   0
  -4  -1  33    3.72    6.70   0
  -1  -4  57    4.48    8.20   0
  -5  -4  29    8.33    8.46   0
  -5  -2  27   -5.28    8.22   0
  -4  -2  40  267.14   10.95   0
  -4   0  17    3.46    6.23   0
  -3   0  30  587.45   11.86   0
  -2  -1  44  351.32   11.34   0
   0   0  30  176.63    8.49   0
  -5  -3  31    7.11    7.63   0
  -5  -1  14  424.30   11.37   0
  -5  -1  17    1.76    6.89   0
  -4   0  11    0.41    4.87   0
  -4   0  20 1271.04   16.32   0
  -2   0  34  268.89    9.20   0
  -1  -1  45   -3.60    6.05   0
  -5  -1  11    4.21    6.43   0
  -5  -1  20  513.16   12.09   0
  -4  -3  44  151.77    9.89   0
  -4  -1  36  510.77   12.34   0
  -4   0   8 1554.33   19.13   0
  -4   0  23   -1.86    6.42   0
  -3  -2  47    6.64    7.07   0
  -1  -3  56  127.23    9.57   0
  -1  -2  52  292.25   11.45   0
  -5  -1   8  818.81   14.68   0
  -5  -1  23   -0.19    6.96   0
  -3   0  33   -7.04    6.65   0
  -2  -2  51   -2.98    8.44   0
  -1   0  35    1.11    5.12   0
   0  -3  57   -1.13    7.39   0
  -5  -3  34  122.10    9.35   0
  -4  -2  43    6.70    8.67   0
  -4   0  26  742.38   13.60   0
  -3  -3  51    1.34    7.55   0
  -3  -1  43    8.43    6.78   0
  -2  -3  55    6.47    8.00   0
  -4   0   5   -0.31    5.15   0
   0  -2  53    1.20    7.20   0
  -5  -1   5   -2.62    6.12   0
  -4  -1  39   -4.64    6.97   0
  -4   0  29    8.19    6.71   0
  -2  -1  47    0.96    7.61   0
   0  -1  46  112.61    8.39   0
   0   0  33    5.82    5.48   0
  -5  -1  29   11.27    6.46   0
  -4  -3  47    0.64    7.98   0
  -3  -2  50  179.21   10.31   0
  -3   0  36  541.88   11.83   0
  -1  -1  48  326.55   11.38   0
  -5  -2  36  161.69    9.22   0
  -1   0  38  266.83    9.86   0
  -5  -1  32  364.56   11.27   0
  -4  -2  46  114.72    9.49   0
  -4   0  32  461.71   11.03   0
  -3  -1  46   73.52    7.91   0
  -2  -2  54   48.72    8.37   0
  -1  -3  59    3.83    8.21   0
  -1  -2  55    0.87    7.63   0
  -4  -1  42  223.50    9.49   0
  -4   0   2 1380.50   18.84   0
  -2   0  40  806.43   13.93   0
  -5  -2  39    1.74    7.86   0
  -3   0  39    2.56    6.37   0
  -2  -3  58   94.35    8.81   0
  -5  -1  35   -0.51    6.64   0
  -5   0  16  709.20   13.32   0
  -4   0  35    2.68    6.20   0
  -2  -1  50  186.92    9.91   0
   0   0  36  593.10   13.19   0
  -5   0  13    1.90    6.17   0
  -4  -2  49   -0.93    8.30   0
  -1   0  41   -0.03    6.38   0
   0  -1  49    4.59    6.60   0
  -6  -2  17   -2.68    6.72   0
  -6  -2  20  179.45    9.23   0
  -5  -2  42   85.46    9.17   0
  -5   0  25   -2.59    6.05   0
  -4  -1  45    0.45    8.37   0
  -1  -1  51   -0.74    7.47   0
  -6  -2  23    4.83    7.74   0
  -5  -1  38  134.98    8.83   0
  -5   0  10  709.37   13.43   0
  -5   0  28  637.23   12.80   0
  -4   0  38  134.32    9.09   0
  -3   0  42  256.91    9.39   0
  -3   1  17    8.09    5.14   0
  -3   1  20 1512.00   17.69   0
  -2   0  43   -3.19    6.05   0
  -2   1  18 1217.90   16.85   0
  -2   1  21   14.39    5.93   0
  -6  -3  27    6.23    6.65   0
  -4   0  -1   -1.82    5.16   0
  -3   1  14 1602.04   18.63   0
  -3   1  23    3.24    5.26   0
  -2  -2  57   -2.85    7.41   0
  -2   1  15    2.66    4.70   0
  -2   1  24 1886.46   20.38   0
  -1  -2  58  106.48    9.48   0
  -6  -2  29    5.61    7.49   0
  -5   0  31   -3.03    6.97   0
  -3   1  26  549.69   11.32   0
  -6  -1  16  613.39   13.23   0
  -6  -1  19    0.56    6.99   0
  -6  -1  22  147.03    8.93   0
  -5  -2  45    1.89    7.82   0
  -5  -1  41   14.05    8.06   0
  -5   0   7    2.08    5.55   0
  -4  -2  52  106.86    9.04   0
  -4  -1  48  135.88    9.60   0
  -3  -2  56   92.16    8.75   0
  -3   1  11   12.31    5.61   0
  -2  -1  53   -3.65    8.22   0
  -2   1  27    3.32    5.82   0
   0   0  39   -2.05    5.55   0
  -6  -2  32  196.49    9.45   0
  -6  -1  13    0.88    7.32   0
  -6  -1  25   -9.47    7.69   0
  -5   0  34  268.02   10.50   0
  -4   0  41   -9.45    6.65   0
  -4   1  19    9.38    6.42   0
  -3  -1  52  205.70   10.57   0
  -3   1  29   -0.91    5.51   0
  -1   0  44  436.94   11.81   0
  -6  -1  28  162.32    9.30   0
  -4   1  16 2073.82   20.62   0
  -4   1  22  370.95    9.67   0
  -4   1  25   -4.51    6.19   0
  -2   0  46  268.66    9.52   0
  -1  -1  54  103.29    9.02   0
  -6  -2  35   -3.75    7.38   0
  -6  -1  10  213.86    9.73   0
  -3   1  32 1248.01   16.64   0
  -6  -1  31    8.15    7.15   0
  -5  -1  44  158.46    9.36   0
  -5   0   4 1171.87   16.99   0
  -5   0  37    4.83    7.78   0
  -4   1  13    5.16    4.95   0
  -4   1  28  712.39   12.66   0
  -3   1   8 3316.93   27.91   0
  -2  -2  60   98.41    9.24   0
  -4  -1  51   15.07    8.24   0
  -4   1  31    3.54    7.02   0
  -3  -1  55   -0.11    8.18   0
  -3   0  48  338.77   11.60   0
  -3   1  35    7.00    5.74   0
  -2  -1  56  188.70    9.97   0
  -1   0  47    3.01    6.58   0
  -1   1  25   -2.13    4.96   0
  -5  -1  47    1.31    8.14   0
  -5   0  40  223.70    9.23   0
  -2   0  49   -0.49    7.59   0
  -6   0  21   -2.89    5.94   0
  -6   0  24  606.26   13.11   0
  -6   0  27    2.33    7.33   0
  -4   0  47    4.05    7.89   0
  -2   1  36  911.31   14.86   0
  -1   1  28 1331.67   18.01   0
  -6   0  15    4.98    6.47   0
  -5   1  21   11.21    5.76   0
  -5   1  24  693.39   13.06   0
  -3   1  38  336.06    9.91   0
  -1  -1  57    3.92    8.42   0
  -5   0   1    2.46    5.34   0
  -5   0  43  -11.60    8.07   0
  -5   1  27    3.83    6.07   0
  -4   1   7   15.38    5.39   0
  -4   1  37   12.52    7.22   0
  -1   1  31   -3.99    5.26   0
  -6  -1  40  199.74    9.30   0
  -6   0  33    1.18    7.60   0
  -5   1  30  175.45    8.37   0
  -3   0  51   -2.84    8.04   0
  -5  -1  50   74.10    8.16   0
  -3  -1  58  114.50    8.84   0
  -2  -1  59    9.00    8.87   0
  -2   0  52  196.25    9.99   0
  -2   1  39    1.27    5.59   0
   0   0  45    1.14    5.99   0
  -6   0  36  145.32    9.36   0
  -5   1  12 1116.42   15.38   0
  -5   1  33    2.08    6.41   0
  -4   0  50  163.66    9.33   0
  -1   0  50  275.46   10.50   0
  -1   1  34  978.47   15.70   0
  -6  -1  43    5.86    7.03   0
  -6   0   9   -4.75    6.10   0
  -5   0  46   85.10    8.43   0
  -5   1  36  487.00   11.32   0
  -6   0  39   -3.48    7.34   0
  -5   1   9   16.75    5.01   0
  -4   1   4 1283.31   17.68   0
  -4   1  43    3.85    7.28   0
  -3   0  54   78.05    8.77   0
  -3   1  44  344.10   10.93   0
  -2   1  42  331.05    9.97   0
  -5   0  49   -4.78    7.68   0
  -5   1  39    8.33    7.88   0
  -1   1  37    0.77    5.70   0
  -7  -1  21   -1.57    7.24   0
  -7  -1  27   -5.37    7.62   0
  -6   0  42  147.84    9.20   0
  -3  -1  61   -1.92    7.79   0
  -2   0  55   -0.61    7.78   0
  -7  -1  30   34.82    7.96   0
  -6   1  20  511.52   11.38   0
  -6   1  29    2.71    7.40   0
  -2  -1  62   42.75    9.09   0
  -1   0  53    0.03    6.68   0
  -7  -1  33    9.91    7.00   0
  -6   1  17    3.72    6.74   0
  -6   1  32  388.41   11.16   0
  -5   1   6  366.42   10.31   0
  -5   1  42  225.94    9.38   0
  -4   1  46   86.85    7.70   0
  -3   1  47    0.91    7.49   0
  -2   1  45    4.72    6.69   0
  -6   0  45   -1.59    7.57   0
  -5   0  52  163.54    9.99   0
  -3   0  57   -6.13    8.19   0
  -1   1  40  766.25   14.14   0
  -7   0  23   -3.67    6.95   0
  -7   0  26  204.95    9.59   0
  -6   1  14  431.83   11.21   0
  -6   1  35   -0.52    6.45   0
  -4   0  56   64.31    8.44   0
  -7   0  20  160.64    9.22   0
  -7   0  29   -0.91    7.14   0
  -5   1  45    1.58    6.77   0
  -4   2  24 1968.20   19.83   0
  -4   2  27   -1.25    6.23   0
  -7   0  17   -2.49    6.49   0
  -7   0  32  244.46    9.87   0
  -6   1  38  128.18    8.20   0
  -4   1   1   17.57    5.17   0
  -4   2  21    4.80    5.42   0
  -4   2  30  212.77    8.44   0
  -3   1  50  193.12    9.86   0
  -2   0  58   81.96    9.55   0
  -2   1  48  351.47   11.17   0
  -7   0  35   -3.60    7.32   0
  -6   0  48  150.77    8.87   0
  -6   1  11    0.01    5.47   0
  -4   2  18 1109.82   15.04   0
  -4   2  33   -9.81    6.44   0
  -3   2  22  473.10   10.63   0
  -3   2  25    7.41    5.25   0
  -3   2  28 1389.42   16.85   0
  -1   1  43    0.86    5.88   0
  -7   0  14  133.82    8.52   0
  -6   1  41    0.90    8.09   0
  -5   0  55    2.08    7.51   0
  -5   1   3   -1.87    5.07   0
  -5   1  48  137.82    9.38   0
  -5   2  23    0.05    6.57   0
  -5   2  26  656.54   12.23   0
  -5   2  29    2.31    6.65   0
  -3   2  19   -0.23    5.46   0
  -3   2  31    0.28    5.31   0
  -7   0  38   40.46    8.35   0
  -5   2  20  606.08   11.70   0
  -5   2  32  729.75   13.51   0
  -4   0  59   -5.58    7.96   0
  -4   2  15    1.18    5.68   0
  -4   2  36  393.87   10.39   0
  -3   0  60  130.01    9.41   0
  -6   1   8  824.17   14.31   0
  -6   1  44  173.74    9.80   0
  -5   2  17    6.80    6.13   0
  -5   2  35    1.52    7.50   0
  -4   1  52  197.61   10.30   0
   0   1  29    2.32    4.49   0
  -4   2  39   -5.61    7.30   0
  -3   1  53    3.47    7.29   0
  -3   2  16 2112.01   20.71   0
  -2   1  51    2.97    7.13   0
  -7   1  22  161.82    8.98   0
  -7   1  25    3.88    7.51   0
  -7   1  28  145.54    9.48   0
  -7   1  31   -3.20    7.51   0
  -5   1  51   -6.19    7.72   0
  -5   2  38  112.64    8.57   0
  -1   1  46  119.63    8.00   0
   0   1  32 1669.63   21.44   0
  -7   1  19    0.05    7.14   0
  -6   1  47    2.89    8.01   0
  -4   2  12  777.82   12.90   0
  -6   2  25    0.56    5.99   0
  -6   2  28  457.04   10.91   0
  -6   2  31   -8.06    7.03   0
  -5   2  41    1.74    7.67   0
  -4   1  55    5.39    7.97   0
  -4   2  42  400.36   10.74   0
  -3   2  13   16.92    5.54   0
  -3   2  40  483.55   11.07   0
   0   1  35    1.66    5.21   0
  -7   1  16  619.31   13.06   0
  -6   2  34  173.70    9.63   0
  -2   2  23   -2.19    4.56   0
  -2   2  32  665.75   12.82   0
  -6   1   5   -5.16    5.62   0
  -6   2  37   -8.46    8.03   0
  -5   1   0 1387.12   19.08   0
  -3   0  63    3.81    6.94   0
  -3   1  56  198.05   10.04   0
  -2   2  20 3626.44   27.82   0
  -7   1  40  211.47    9.28   0
  -6   1  50   85.98    9.02   0
  -6   2  16  765.53   13.51   0
  -4   2   9   -3.21    5.40   0
  -3   2  43    0.58    5.91   0
  -2   1  54  112.46    8.70   0
  -2   2  35    6.79    4.97   0
  -1   1  49    2.91    6.16   0
  -7   1  13    0.69    6.47   0
  -6   2  40  278.17   10.66   0
  -7   1  43   -2.75    8.00   0
  -4   1  58   99.95    9.39   0
  -3   2  10 2092.27   21.49   0
  -2   2  17   -0.94    5.17   0
  -2   2  38  238.85    9.32   0
  -6   2  13   -1.00    6.17   0
  -6   2  43    0.85    8.20   0
  -5   1  57    1.39    8.20   0
  -5   2  47   -0.07    8.00   0
  -4   2  48  308.39   11.20   0
  -3   2  46  149.20    8.93   0
  -5   2   8 2222.34   21.61   0
  -2   2  41   -4.12    6.30   0
  -7   2  24  466.81   12.09   0
  -7   2  33    3.16    7.80   0
  -3   1  59   -3.21    7.33   0
  -7   2  21    0.96    7.04   0
  -7   2  36  168.67    9.70   0
  -6   2  46   98.96    8.96   0
  -6   2  10  364.49   10.38   0
  -4   2  51   -3.59    6.93   0
  -3   2  49    0.02    6.29   0
  -2   2  14  356.76    9.81   0
  -8   1  27    3.83    7.56   0
  -8   1  30   47.83    7.63   0
  -7   2  18  170.07    8.70   0
  -7   2  39    9.36    7.96   0
  -4   1  61   -3.06    7.80   0
  -2   2  44  716.41   13.97   0
  -8   1  24  184.72    9.24   0
  -8   1  33   -2.07    7.42   0
  -6   2  49   -4.19    7.66   0
  -5   3  28  425.21   11.29   0
  -3   2   7    0.81    5.14   0
  -8   1  21   -3.89    6.66   0
  -7   2  42   94.96    8.22   0
  -5   2   5    8.00    5.44   0
  -5   3  25   -6.54    5.80   0
  -5   3  31    1.21    6.11   0
  -7   2  15    7.50    5.90   0
  -5   1  -3   16.34    5.37   0
  -5   3  22  309.15    9.92   0
  -5   3  37    1.93    7.17   0
  -4   2  54   19.81    8.46   0
  -4   3  26  716.49   13.01   0
  -4   3  29    2.41    5.77   0
  -4   3  32  928.95   14.16   0
  -3   1  62   42.31    7.65   0
  -3   2  52  302.24   11.04   0
  -2   2  47   -1.73    6.52   0
  -7   2  45    5.69    7.61   0
  -6   2   7    0.70    5.71   0
  -6   2  52  117.02    8.96   0
  -6   3  27   -0.47    7.17   0
  -6   3  30  194.73    8.65   0
  -6   3  33   -1.10    7.30   0
  -4   3  23    9.64    6.44   0
  -4   3  35    9.21    5.88   0
  -6   3  24  608.47   12.00   0
  -6   3  36  340.21   11.03   0
  -5   3  19   -0.30    5.51   0
  -5   3  40  464.09   11.46   0
  -2   2  11   -0.72    4.38   0
  -1   2  27    2.54    5.12   0
  -1   2  30  609.50   12.66   0
  -1   2  33    9.11    5.29   0
  -7   2  12  399.19   11.01   0
  -6   3  21   -1.17    7.00   0
  -6   3  39  -11.14    7.79   0
  -5   2  56  112.98    8.82   0
  -8   2  29    3.23    7.87   0
  -5   3  43   -5.35    7.70   0
  -4   2   3    1.79    4.36   0
  -4   2  57   -3.02    7.44   0
  -3   2  55   -7.55    7.55   0
  -2   2  50  188.78   10.02   0
  -1   2  36  890.34   15.08   0
  -8   2  26  199.02    9.43   0
  -8   2  32  176.19    9.87   0
  -8   2  35   -2.19    7.34   0
  -6   3  42  179.47    9.71   0
  -5   3  16 1800.04   18.66   0
  -8   2  23   -0.52    6.92   0
  -7   3  29    6.58    7.10   0
  -4   3  17    0.60    5.11   0
  -4   3  44  296.88   10.30   0
  -3   3  27    3.25    5.27   0
  -1   2  21   16.44    5.12   0
  -1   2  39    1.18    5.45   0
  -7   2   9   -2.32    6.20   0
  -7   3  35   -2.38    6.68   0
  -6   2   4  884.52   14.81   0
  -6   3  45   -4.25    7.71   0
  -5   2   2  829.31   14.39   0
  -3   2   4 2997.46   26.75   0
  -3   3  24 1148.12   15.76   0
  -3   3  36  848.60   13.85   0
  -8   2  20  183.83    9.56   0
  -7   3  38  148.19    8.89   0
  -5   3  13    0.57    6.19   0
  -3   3  39   -4.08    6.57   0
  -7   3  20  429.64   11.39   0
  -7   3  41    5.27    7.53   0
  -4   2  60  102.61    8.57   0
  -4   3  14  721.46   12.90   0
  -4   3  47    1.34    7.73   0
  -3   2  58   89.95    9.63   0
  -3   3  21    1.55    5.97   0
  -2   2  53    1.82    6.85   0
  -1   2  42  317.47   10.19   0
  -8   2  17    7.78    6.60   0
  -6   3  48  134.12    9.08   0
  -3   3  42  312.74   10.49   0
  -7   3  44  158.56    9.44   0
  -6   3  12  771.24   13.56   0
  -7   3  17    6.14    5.77   0
  -5   3  52  143.91    9.29   0
  -4   3  50  175.06    9.78   0
  -3   3  18 1379.81   16.71   0
  -8   2  14  110.64    8.27   0
  -7   2   6  425.13   11.32   0
  -7   3  47    8.03    7.64   0
  -6   3  51   -0.26    7.09   0
  -3   3  45   -2.66    6.95   0
  -8   3  28  183.87    9.75   0
  -8   3  31   -3.58    7.60   0
  -4   2   0 4187.96   31.65   0
  -4   3  11   25.85    5.36   0
  -8   3  25   -2.65    7.23   0
  -7   3  14  368.69   10.21   0
  -6   2   1    0.26    5.44   0
  -8   3  40  148.48    9.03   0
  -6   3   9   10.83    6.14   0
  -5   3  55   -7.90    7.68   0
  -4   3  53   -0.82    7.96   0
  -3   3  15   -5.86    4.88   0
  -3   3  48  204.61    9.79   0
  -8   3  22  118.38    9.05   0
  -6   4  32  365.86   11.39   0
  -5   2  -1    5.93    4.99   0
  -6   4  26  382.90   11.19   0
  -6   4  29  -10.16    6.48   0
  -6   4  35   -1.70    6.79   0
  -6   4  38  105.81    9.28   0
  -5   4  33   -4.90    7.53   0
  -2   3  28 1332.44   17.29   0
  -2   3  31    1.15    4.91   0
  -2   3  34  625.07   12.75   0
  -8   3  19   -4.00    7.46   0
  -7   3  11    3.81    5.81   0
  -5   4  27   13.18    6.10   0
  -5   4  36  332.62   10.27   0
  -5   4  39   -6.54    7.62   0
  -3   3  51   -6.01    7.36   0
  -2   3  37   -1.16    6.12   0
  -7   4  28  388.26   11.65   0
  -7   4  31   -8.36    7.79   0
  -7   4  34  176.29    9.76   0
  -6   4  23   -1.46    6.20   0
  -6   4  41    6.31    6.82   0
  -5   4  24  975.87   14.40   0
  -4   3   8 2751.29   23.36   0
  -4   3  56  147.23    9.70   0
  -2   3  25    6.27    4.78   0
  -2   3  40  463.83   11.73   0
  -8   3  16  434.08   11.75   0
  -7   4  25    8.35    7.61   0
  -7   4  37    6.84    7.53   0
  -6   4  44  219.37   10.42   0
  -3   3  12 2693.61   23.44   0
  -6   3   6  478.34   11.50   0
  -6   4  20  677.35   12.58   0
  -5   4  21    3.08    5.80   0
  -2   3  43    1.51    6.44   0
  -7   4  43    6.09    7.56   0
  -6   4  47    4.87    8.08   0
  -4   4  28  668.46   12.89   0
  -4   4  31    4.02    5.94   0
  -3   3  54   80.17    8.34   0
  -7   3   8  559.75   12.02   0
  -6   4  17    9.47    6.63   0
  -5   4  18  396.06   10.66   0
  -4   3  59    0.47    7.71   0
  -4   4  25   -5.96    6.30   0
  -4   4  40  465.24   12.08   0
  -8   3  13    0.76    6.45   0
  -7   4  46   58.65    8.50   0
  -5   3   4  725.45   13.24   0
  -5   4  48  220.95   10.32   0
  -2   3  46  133.00    8.42   0
  -9   3  27   -2.28    6.80   0
  -8   4  27   -3.68    7.99   0
  -8   4  33   -0.34    7.10   0
  -8   4  36  132.86    9.43   0
  -4   4  22  714.91   12.93   0
  -4   4  43    2.11    7.75   0
  -2   3  19   -0.21    4.63   0
  -9   3  24  160.72    9.28   0
  -8   4  39    1.86    6.98   0
  -4   2  -3   -1.24    4.91   0
  -4   3   5    6.79    5.53   0
  -8   4  24  338.30   10.55   0
  -5   4  15   10.29    5.69   0
  -5   4  51    0.89    7.64   0
  -4   4  46  154.31    9.26   0
  -3   3   9   -0.55    4.69   0
  -9   3  21    4.81    6.47   0
  -8   3  10  198.02    9.72   0
  -8   4  21   -1.53    7.73   0
  -6   3   3    1.25    5.90   0
  -6   4  53    2.64    7.46   0
  -5   2  -4  676.11   14.05   0
  -4   4  19   -2.66    5.37   0
  -7   3   5    3.60    6.38   0
  -2   3  16 2055.23   21.05   0
  -7   4  13    2.18    7.05   0
  -5   4  54   69.79    8.18   0
  -4   4  49   -2.03    7.85   0
   0   2  31    2.51    4.82   0
  -8   4  18  213.71    9.76   0
  -5   4  12  922.93   13.86   0
  -4   4  16 1599.25   18.01   0
  -3   4  32  893.99   14.15   0
  -3   4  35    5.46    6.56   0
  -3   4  38  173.23    8.88   0
  -9   4  29    8.21    8.25   0
  -5   3   1    2.85    5.37   0
  -4   4  52  153.39    9.57   0
  -3   4  41    2.75    7.07   0
  -8   4  15    3.40    6.94   0
  -7   5  30   86.14    9.21   0
  -7   5  33    0.87    7.89   0
  -7   5  36  268.95   10.77   0
  -6   5  31    3.49    7.84   0
  -6   5  37   -2.72    7.92   0
  -5   4  57   -1.36    7.14   0
  -9   4  26  140.84    9.09   0
  -7   5  27    9.29    7.61   0
  -7   5  39    3.64    8.34   0
  -6   5  28  444.74   11.16   0
  -6   5  40  228.02   10.27   0
  -3   3   6  548.05   11.49   0
  -3   4  23   12.09    5.33   0
  -3   4  44  287.28   10.49   0
  -2   3  13   17.49    5.74   0
  -9   4  23    3.60    7.00   0
  -7   3   2  245.02    9.68   0
  -7   5  42  149.53    9.67   0
  -6   3   0 1105.02   16.46   0
  -6   4   8  883.72   14.45   0
  -6   5  25    9.22    7.58   0
  -6   5  43   -2.63    7.74   0
  -5   4   9    4.19    6.31   0
  -4   4  13    6.20    5.21   0
  -4   4  55   -2.90    8.31   0
  -8   5  35   -0.60    7.90   0
  -7   5  24  335.62   10.19   0
  -7   5  45    2.88    7.95   0
  -5   5  32  513.91   12.17   0
  -5   5  35   -0.18    7.56   0
  -3   4  47    0.86    6.77   0
  -1   3  32 1193.56   17.69   0
  -1   3  35   -2.88    6.07   0
  -9   4  20  117.79    8.88   0
  -8   4  12  268.28   10.01   0
  -8   5  29   11.18    7.52   0
  -8   5  38   54.50    8.39   0
  -6   5  22  225.20    9.00   0
  -5   5  29    6.40    6.28   0
  -3   4  20  937.94   14.02   0
  -1   3  38  328.11   10.37   0
  -7   5  21    5.84    6.53   0
  -5   5  26  215.84    8.93   0
  -1   3  29    1.37    5.29   0
  -7   4   7    2.82    6.35   0
  -6   5  19    0.17    6.80   0
  -6   5  49    1.39    7.62   0
  -5   5  44  191.25    9.81   0
  -3   4  50  171.39    9.22   0
  -9   4  17    0.13    7.34   0
  -5   5  23    1.80    6.14   0
  -4   4  10  424.13   10.06   0
  -3   4  17   -4.72    6.02   0
  -1   3  26  504.11   11.76   0
  -6   4   5   -2.33    6.14   0
  -5   5  47   -0.84    7.95   0
  -8   4   9   -5.77    6.88   0
  -8   5  20  243.72   10.41   0
  -6   5  16  675.55   12.98   0
  -5   3  -2  845.01   14.77   0
  -2   3  10 2042.64   21.08   0
  -5   2  -7   10.42    5.13   0
  -5   5  50   74.93    8.67   0
  -4   5  36  312.66   10.61   0
  -1   3  23    3.63    4.93   0
  -9   5  28   88.16    8.74   0
  -8   5  17   -2.10    7.72   0
  -4   5  39    4.86    7.44   0
  -3   3   3    1.97    4.50   0
  -5   5  17   -3.25    6.02   0
  -4   3  -1   16.09    4.82   0
  -4   5  27    4.29    6.07   0
  -3   4  14  708.88   12.47   0
   5  -1   0 1429.57   17.53   0
   5   0   5    3.98    5.53   0
   6   2   4  247.38   10.55   0
   6   4  -1   -6.67    7.59   0
   3   6  12  184.49   10.38   0
   6   3   3   -0.32    8.29   0
   7  -1 -13    4.41    6.47   0
   2   1  13   20.40    5.07   0
   3   0   9   -2.73    5.72   0
   3   2  16 1867.96   19.80   0
   3   4  17    1.09    7.47   0
   4   1  12  959.06   14.14   0
   4   2  14  297.93   10.23   0
   4   5  11    7.75    7.77   0
   7   2  -4  182.72    9.67   0
   2   4  19   -8.78    6.75   0
   2   5  18  165.12    9.51   0
   6  -2 -13    0.94    5.79   0
   6   1   5    4.76    7.73   0
   7   0  -5   -2.74    7.66   0
   3   5  16  414.66   12.40   0
   5  -2  -8 2206.23   23.49   0
   5   1  10  497.77   11.79   0
   5   3  11    0.27    6.87   0
   6   4   2   88.27    8.57   0
   7  -1 -10  219.04    9.52   0
   3   1  14  711.81   12.67   0
   5   2  12  502.75   12.37   0
   5   4  10  140.25    9.66   0
   6  -1  -2  345.98    9.60   0
   1   5  20  488.27   12.60   0
   2   6  17    3.97    7.36   0
   4   3  16  430.52   11.83   0
   6   2   7   -3.12    7.10   0
   7   2  -1    9.01    7.62   0
   1   3  19   16.53    5.66   0
   4   0  10  427.10   10.18   0
   5   0   8  973.34   14.36   0
   6  -2 -10  367.16   11.05   0
   8   0 -16  167.44    9.87   0
   4   5  14   83.74    9.17   0
   7  -1  -7    5.14    6.46   0
   7   0  -2  236.90    9.07   0
   2   3  20  633.14   13.02   0
   3   6  15   -0.43    7.82   0
   6   1   8  658.71   13.20   0
   1   2  17    4.57    4.50   0
   1   4  21    5.54    6.41   0
   3  -1   4 2997.20   27.06   0
   4  -1   5    5.69    5.50   0
   4   2  17    4.64    6.74   0
   6  -1   1    9.46    6.59   0
   6   0   6  242.06    9.65   0
   8   0 -13    3.46    6.89   0
   8   1 -11    2.15    6.95   0
   0   3  18  511.47   12.52   0
   3   4  20  423.57   11.69   0
   4   1  15    7.35    6.08   0
   5  -2  -5    5.35    5.21   0
   5   1  13    2.45    6.82   0
   6   2  10  198.22   10.38   0
   7   2   2   88.59    8.29   0
   2   5  21    1.76    7.41   0
   3   2  19    5.26    6.40   0
   3   5  19   -1.54    7.37   0
   5   2  15  -11.05    7.43   0
   6  -2  -7    1.17    5.69   0
   7  -1  -4  287.43   10.25   0
   7   0   1   -3.64    7.80   0
   7   1   3   11.30    7.63   0
   8   0 -10  165.00    9.44   0
   3   0  12 2724.73   23.94   0
   4   4  18  216.08   10.64   0
   8   1  -8  138.16    9.44   0
   2   4  22  363.14   11.25   0
   3   3  21   10.35    6.62   0
   5   0  11    0.80    6.64   0
   2   1  16 2095.08   21.37   0
   2   6  20  176.62   10.15   0
   3   1  17    2.11    5.18   0
   4   5  17    6.31    8.26   0
   6   1  11    4.35    7.33   0
   7   2   5   11.74    7.69   0
   8   0  -7    5.78    7.76   0
   4   0  13   -0.89    5.39   0
   6  -1   4  795.20   13.84   0
   6   0   9    5.10    7.25   0
   8  -1 -12  206.91   10.22   0
   8   1  -5    4.53    7.78   0
   2   0  11   -0.05    4.58   0
   3   6  18  176.24   10.33   0
   4  -2  -3   -0.35    4.69   0
   5   3  17   -3.78    6.82   0
   6   2  13    4.50    7.94   0
   6   3  12  133.59    9.25   0
   7  -1  -1   -3.08    5.99   0
   7   1   6  213.93   10.38   0
   1   5  23    5.07    6.86   0
   4   2  20  655.72   13.32   0
   5  -2  -2  812.15   14.05   0
   5   1  16  657.39   13.03   0
   6  -2  -4  888.96   14.97   0
   4  -1   8 2838.96   24.43   0
   4   1  18  394.01   11.02   0
   5   2  18  408.66   11.75   0
   7  -2  -9   -5.00    6.21   0
   8  -1  -9    7.58    7.29   0
   8   0  -4  221.98   10.05   0
   8   1  -2   86.00    8.39   0
   2   2  21    2.33    5.94   0
   2   3  23    0.98    6.62   0
   3   4  23   11.03    7.49   0
   3   5  22  119.51    9.58   0
   4   4  21   -0.85    8.35   0
   7   2   8  218.41   10.36   0
   3  -1   7    0.11    5.29   0
   5   0  14  656.32   12.83   0
   6   1  14  135.63    9.00   0
   7  -1   2  343.94   10.73   0
   2   5  24  459.02   12.83   0
   5  -1   9    3.37    6.28   0
   6   3  15    2.94    8.79   0
   7   1   9    1.22    8.38   0
   8  -1  -6  116.72    8.73   0
   8   0  -1    1.46    7.67   0
   3   3  24  619.86   13.34   0
   4   5  20  119.11    9.81   0
   6  -2  -1   -6.60    5.89   0
   6   2  16  388.53   11.76   0
   7  -2  -6  470.59   11.83   0
   8   1   1   -2.15    7.62   0
   1   2  20 1432.90   18.77   0
   2   4  25    1.06    6.51   0
   3   0  15   -0.08    5.04   0
   4   0  16 1637.98   18.61   0
   5  -2   1    0.10    5.47   0
   5   3  20  232.33    9.45   0
   5   4  19   -5.72    8.08   0
   3   1  20  949.68   14.40   0
   3   6  21    6.30    8.08   0
   4  -2   0 4268.44   32.53   0
   5   1  19    2.82    6.58   0
   5   2  21    1.12    8.08   0
   7  -1   5    5.98    7.36   0
   8  -1  -3   -3.59    7.57   0
   8   0   2  104.26    8.74   0
   0   4  23   -1.68    5.45   0
   2   1  19   -0.82    4.83   0
   4   2  23    6.39    6.26   0
   7  -2  -3    0.43    6.62   0
   7   0  10  247.97   10.38   0
   7   1  12  181.34    9.89   0
   4  -1  11   18.55    5.44   0
   4   1  21    8.68    6.05   0
   4   4  24  313.91   11.33   0
   6   1  17    5.06    6.81   0
   6   3  18   96.01    9.58   0
   0   3  21   -0.76    4.74   0
   3   4  26  152.93    9.99   0
   3   5  25   -2.24    7.71   0
   5   0  17   -0.91    6.00   0
   6  -2   2  626.06   12.39   0
   6   0  15   -5.76    7.68   0
   8  -1   0  410.81   11.93   0
   2   0  14  349.83   10.44   0
   4   3  25   12.88    6.68   0
   4   5  23    0.12    7.84   0
   5  -1  12  937.03   14.19   0
   6   2  19   -4.23    7.48   0
   7   2  14  127.47    9.53   0
   8   0   5    3.13    7.90   0
   5  -2   4  757.98   13.72   0
   5   4  22   75.17    8.99   0
   7  -2   0  662.44   13.11   0
   7  -1   8  694.64   13.62   0
   2   5  27    4.67    7.47   0
   3  -1  10 2096.70   21.79   0
   7   1  15   12.22    8.39   0
   1   3  25   -1.57    5.65   0
   3   3  27    2.92    7.38   0
   4   0  19   -6.63    5.76   0
   7   0  13   -2.42    6.86   0
   8  -1   3    6.65    7.71   0
   2   4  28  443.52   12.26   0
   3   0  18 1395.57   17.15   0
   4  -2   3    3.21    5.02   0
   5   2  24  320.72   10.35   0
   6  -2   5   -0.68    6.25   0
   6   1  20  253.71   11.07   0
   8  -2  -5    2.23    6.96   0
   1   4  27    3.80    6.30   0
   3   1  23    7.41    5.71   0
   6  -1  13    0.81    6.15   0
   6   0  18  374.80   11.13   0
   6   3  21   -9.53    8.46   0
   8   0   8  257.79   10.81   0
   4  -1  14  722.04   13.05   0
   4   1  24  932.37   14.52   0
   4   4  27    9.51    7.85   0
   5   0  20  707.32   13.59   0
   6   2  22   98.41    9.28   0
   7  -2   3    1.72    6.08   0
   5  -1  15   10.64    5.86   0
   8  -2  -2  244.69   10.65   0
   1   2  23    6.10    5.29   0
   3   4  29   10.24    7.59   0
   3   5  28  169.14    9.63   0
   4   3  28  390.12   12.18   0
   4   5  26  146.30    9.22   0
   5  -2   7    7.95    5.95   0
   5   4  25   -1.73    7.92   0
   7   0  16  525.08   12.72   0
   7   1  18  140.80    9.51   0
   8  -1   6  196.99    9.62   0
   5   1  25   13.82    7.49   0
   6  -2   8  922.05   14.85   0
   6   1  23    7.09    8.56   0
   7  -2   6  163.42    8.97   0
   8   1  13    0.69    7.67   0
   9  -1  -2  100.08    9.06   0
   2   3  29    0.09    6.47   0
   3   2  28  397.25   10.73   0
   5   2  27    6.86    7.91   0
   6  -1  16  674.72   12.69   0
   8  -2   1    6.78    6.76   0
   2   0  17   -0.29    5.48   0
   2   2  27    1.30    6.11   0
   3  -1  13   23.99    5.24   0
   3   3  30  182.23    9.42   0
   4  -2   6  848.59   14.36   0
   6   0  21    0.71    6.69   0
   6   2  25    4.68    8.52   0
   8  -1   9    2.65    7.97   0
   5   0  23   -1.15    6.89   0
   9  -1   1    3.56    8.10   0
   3   0  21   -1.17    5.32   0
   3   1  26  669.70   13.20   0
   4  -1  17    0.83    6.12   0
   4   1  27    7.14    6.91   0
   4   4  30   94.48    9.32   0
   5  -1  18  393.05   10.25   0
   7   0  19    0.50    7.17   0
   7   1  21  -10.98    8.41   0
   2   4  31   -2.35    6.48   0
   5   3  29    0.97    7.95   0
   5   4  28   91.72    8.69   0
   7  -2   9    4.99    7.06   0
   8  -2   4  253.67   10.35   0
   4   3  31   -2.07    7.92   0
   4   5  29   -6.42    7.30   0
   5  -3  -7    8.99    5.35   0
   6  -3  -3    0.28    5.83   0
   6  -2  11    0.03    5.56   0
   8  -1  12  178.44    9.91   0
   3   4  32  279.36   11.09   0
   6  -1  19   -2.61    7.02   0
   6   1  26  264.35   11.06   0
   7  -1  17   -6.96    7.97   0
   7   2  23    1.81    7.72   0
   9  -1   4  183.93    9.63   0
   5   1  28  447.09   11.42   0
   6   0  24  498.95   12.34   0
   7  -3  -2  244.92   10.06   0
   4   0  25    0.50    6.91   0
   6   2  28  166.18    9.70   0
   8  -2   7   10.30    7.45   0
   8   0  17    5.72    7.86   0
   3   2  31    5.61    7.15   0
   5  -3  -4  702.51   15.00   0
   6  -3   0 1128.15   17.18   0
   7  -2  12  517.30   12.30   0
   7   0  22  103.94    8.19   0
   7   1  24  266.28   10.38   0
   9  -1   7    5.49    7.84   0
   1   2  26  507.35   11.90   0
   3  -1  16 2127.17   21.19   0
   3   3  33   12.22    7.65   0
   5  -1  21    3.61    6.10   0
   8  -1  15   -6.76    7.80   0
   4  -1  20  967.32   14.67   0
   4   1  30  297.15   10.73   0
   4   2  32  335.92   10.63   0
   7  -3   1   15.75    6.36   0
   2   0  20 3559.24   27.40   0
   2   2  30  197.20    8.95   0
   3   0  24 1142.41   15.62   0
   4   4  33    3.45    8.40   0
   5   3  32  217.39   10.79   0
   7  -1  20  252.10   10.51   0
   8  -2  10  202.02    9.72   0
   4   3  34  166.60   10.43   0
   6  -3   3    0.65    5.73   0
   6   1  29   -4.89    7.11   0
   8   0  20  136.27    9.38   0
   9  -1  10   88.42    8.20   0
   2   4  34  161.09    9.75   0
   5  -3  -1    3.49    5.00   0
   5   1  31    4.10    7.87   0
   6   0  27   -0.88    6.91   0
   7  -2  15    6.37    7.48   0
   7   0  25   -0.96    8.36   0
   4  -2  12  800.83   13.92   0
   6   2  31   -0.86    7.90   0
   7  -3   4  660.57   13.55   0
   7   1  27    7.19    7.51   0
   9  -2   5    3.47    6.91   0
   3   4  35   -1.66    7.79   0
   4   0  28  655.09   13.29   0
   5  -2  16 1869.40   19.80   0
   8  -2  13    5.02    7.73   0
   1   3  31    7.12    5.90   0
   5  -1  24  933.42   14.40   0
   5   0  29    3.92    6.57   0
   8  -3   2  240.83    9.96   0
   9  -1  13    0.84    7.20   0
   3   2  34  426.47   11.68   0
   6  -3   6  471.78   11.71   0
   7  -1  23    4.09    6.76   0
   8   0  23    8.65    8.01   0
   9  -2   8  205.92   10.27   0
   0   3  27   -0.33    5.22   0
   3  -1  19    0.69    4.92   0
   3   3  36  312.29   11.33   0
   4  -1  23   15.55    5.68   0
   4   2  35    8.77    7.89   0
   5   3  35    5.10    8.46   0
   6  -1  25    2.39    6.73   0
   6   1  32  244.76   11.27   0
   7  -3   7    3.55    6.56   0
   3   0  27   -6.90    6.44   0
   4   4  36  119.96    9.88   0
   6   0  30  103.88    9.30   0
   7   0  28  149.49   10.08   0
   8  -3   5    3.28    6.77   0
   2   3  35    2.19    6.70   0
   5   1  34  210.79   10.70   0
   7   1  30   60.76    8.84   0
   8  -2  16  363.93   11.83   0
   1   1  24 1790.62   20.64   0
   1   2  29    1.73    4.69   0
   2   0  23    1.79    4.81   0
   2   2  33   -2.63    6.39   0
   4  -2  15    1.09    5.73   0
   4   3  37    3.64    7.86   0
   6  -3   9    7.03    6.26   0
   6  -2  20  668.32   12.73   0
   9  -2  11   -7.91    7.21   0
   5  -3   5    4.30    5.56   0
   5  -2  19    0.66    5.77   0
   5   2  36  241.55   10.41   0
   7  -3  10  396.36   11.22   0
   7  -1  26  265.07   10.96   0
   8  -3   8  492.15   12.99   0
   4   0  31    2.73    6.87   0
   5  -1  27   -1.25    6.29   0
   5   0  32  473.80   12.50   0
   8   0  26   86.06    9.36   0
   3   4  38  123.82    8.92   0
   6  -1  28  430.74   12.09   0
   8  -1  24  258.77   10.70   0
   4  -1  26  700.67   13.27   0
   6   1  35   13.42    7.87   0
   8  -2  19   -5.94    7.13   0
   9  -2  14  142.72    8.87   0
   2  -1  15    0.86    5.39   0
   3  -1  22  479.83   10.83   0
   3   2  37   -3.09    6.91   0
   4   2  38   92.28    9.10   0
   5  -3   8 2313.70   22.93   0
   5   3  38   48.53    8.15   0
   6  -3  12  772.49   14.04   0
   6   0  33   -2.34    8.17   0
   7  -3  13    8.60    7.07   0
   7   1  33    1.06    7.89   0
   8  -3  11   -4.29    7.23   0
   2   1  31    3.77    6.03   0
   6  -2  23    5.62    6.38   0
   3   0  30  335.77    9.64   0
   3   3  39    1.86    7.59   0
   4  -2  18 1108.69   15.27   0
   4   4  39   -6.93    7.15   0
   5  -2  22  285.31    9.34   0
   6   2  37    3.23    7.67   0
   7  -1  29   -1.59    8.10   0
   3  -2  11   13.08    5.53   0
   3   1  35   10.64    5.92   0
   4   3  40  148.65   10.21   0
   5  -1  30  296.39   10.29   0
   5   2  39   -1.26    7.94   0
   7  -2  24  339.72   11.00   0
   8  -2  22  106.51    9.22   0
   9  -2  17    3.57    7.27   0
   0   2  25   -1.53    4.71   0
   2   0  26 1259.83   16.37   0
   2   3  38   92.30    8.02   0
   5   0  35   -0.28    7.56   0
   6  -1  31   -2.55    7.60   0
   8  -3  14  153.69    9.00   0
   8  -1  27    1.10    7.31   0
   9  -3   9    1.83    7.37   0
   2   2  36  369.72   10.95   0
   4   0  34  260.12    9.49   0
   5  -3  11    2.76    5.80   0
   6  -3  15   -1.71    5.55   0
   7  -3  16  449.46   11.14   0
   1   1  27   -0.96    5.17   0
   4  -1  29   -2.10    6.97   0
   6  -2  26  399.60   11.56   0
   6   1  38   30.28    8.54   0
   7   0  34  155.95   10.17   0
   1   0  19   -1.78    5.02   0
   3  -1  25    9.48    5.86   0
   6   0  36  206.07    9.58   0
   9  -2  20  135.96    8.90   0
   4  -2  21   -2.24    6.39   0
   4   1  39   -0.83    7.96   0
   4   2  41   -2.39    8.15   0
   5  -2  25   -2.49    5.99   0
   7  -2  27   -4.32    8.03   0
   7  -1  32  263.81   10.85   0
   8  -3  17   -1.07    7.31   0
   9  -3  12  141.72    9.24   0
   2  -1  18 1199.64   16.63   0
   3   2  40  432.35   12.08   0
   7  -3  19   -2.76    6.99   0
   8  -1  30   86.21    8.75   0
   2   1  34  591.18   12.57   0
   3  -2  14 1615.31   18.89   0
   3   0  33    2.88    5.70   0
   5  -3  14  382.05   10.04   0
   5  -1  33   -1.69    7.88   0
   6  -3  18  451.16   10.96   0
   3   1  38  168.10    9.10   0
   3   3  42  142.65    9.35   0
   4  -3   4 1332.05   19.07   0
   5   0  38  194.85   10.37   0
   5   2  42  127.90    9.44   0
   6  -1  34  242.20    9.66   0
   9  -3  15   -3.15    7.28   0
   1   3  37    0.09    6.66   0
   4   0  37   -5.58    7.48   0
   4   3  43   -0.63    7.54   0
   6  -2  29   11.79    7.42   0
   8  -3  20  228.11   10.60   0
   2   0  29    1.95    5.11   0
   4  -1  32  923.05   14.81   0
   6   0  39    1.38    8.46   0
   2   2  39   -3.31    6.67   0
   2   3  41    2.77    6.71   0
   4  -3   7   15.89    5.41   0
   4  -2  24 1949.01   19.96   0
   5  -2  28  413.74   10.65   0
   7  -4   5    6.76    6.10   0
   7  -3  22  189.74    9.67   0
   7  -2  30   72.34    9.29   0
   7  -1  35    7.02    8.09   0
   3  -1  28 1369.73   16.66   0
   8  -1  33   -4.64    7.15   0
   9  -3  18  110.48    8.44   0
   0   2  28 1079.93   17.42   0
   1   1  30  591.81   12.49   0
   1   2  35    1.63    6.11   0
   2  -1  21   16.57    5.87   0
   3  -2  17    5.62    4.96   0
   4   1  42  168.69    9.97   0
   1   0  22  438.56   10.90   0
   4   2  44  214.10   10.78   0
   5  -1  36  317.24   10.32   0
   5   1  43  -12.83    8.06   0
   6  -1  37  -12.36    8.55   0
   7  -4   8  568.25   12.88   0
   8  -4   9   -1.23    6.50   0
   8  -3  23    2.17    7.93   0
   3   2  43   -6.45    7.49   0
   4  -3  10 1129.46   16.66   0
   5   0  41   -1.86    8.39   0
   6  -2  32  364.70   11.57   0
   2   1  37   -1.85    6.28   0
   5   2  45    1.62    7.79   0
   7  -4  11   -0.46    6.49   0
   7  -2  33    1.60    8.40   0
   7   0  40  157.18    8.97   0
   8  -2  31   -1.90    7.46   0
   9  -3  21   -2.08    7.84   0
   3   1  41    2.17    6.15   0
   3   3  45   -2.50    8.41   0
   4  -2  27   -3.30    6.24   0
   4  -1  35   -4.61    6.93   0
   5  -2  31    3.90    6.39   0
   6  -4   4  879.91   15.72   0
   6   0  42  122.99    9.57   0
   7  -1  38   43.92    9.01   0
   8  -4  12  260.21   10.39   0
   3  -2  20 1509.62   17.95   0
   4   3  46   47.30    7.96   0
   6   1  44  120.98    9.74   0
   8  -3  26  184.90   10.02   0
   3  -1  31    4.14    5.60   0
   4  -3  13    7.01    5.84   0
   6  -4   7   -1.16    5.84   0
   7  -4  14  357.18   10.99   0
   2  -1  24 1936.42   20.34   0
   5  -1  39    0.65    7.57   0
   6  -1  40  223.93   10.49   0
   8  -4  15    5.64    7.11   0
   9  -3  24  209.54    9.49   0
   2   2  42  388.26   11.43   0
   4   1  45    6.26    8.18   0
   5  -3  23    5.82    6.41   0
   6  -4  10  363.71   10.74   0
   6  -3  27   10.46    6.96   0
   6  -2  35    5.77    6.76   0
   8  -2  34  128.82    9.13   0
   1   1  33    9.47    5.63   0
   4   2  47    6.93    7.73   0
   5   1  46   46.90    8.40   0
   7  -2  36  260.14   10.95   0
   1   2  38  322.38   10.36   0
   4  -2  30  216.50    8.97   0
   5  -2  34  425.47   11.15   0
   7  -4  17    8.97    6.97   0
   7  -1  41    0.02    8.18   0
   8  -4  18  196.63    9.59   0
   8  -3  29  -10.10    7.81   0
   0   2  31    1.97    5.46   0
   3  -2  23    3.80    5.18   0
   3   2  46   50.12    8.31   0
   4  -1  38  187.52    9.41   0
   6  -4  13    3.40    6.19   0
   6   0  45   -1.52    8.22   0
   9  -4  16  306.27   10.55   0
   9  -3  27   11.86    7.11   0
   2   1  40  454.28   11.10   0
   3  -1  34  613.12   12.58   0
   3   1  44  298.20   10.66   0
   5  -3  26  659.47   13.11   0
   6  -3  30  194.00    9.44   0
   7  -4  20  478.35   12.06   0
   8  -2  37    7.54    7.67   0
   2  -1  27    1.82    4.87   0
   4  -3  19   19.83    6.07   0
   5  -1  42  193.51   10.49   0
   6  -4  16  796.67   14.23   0
   6  -2  38  111.88    8.38   0
   6  -1  43   -8.45    7.48   0
   8  -4  21   -4.29    7.78   0
   9  -4  19    2.08    7.01   0
   7  -2  39    1.26    7.28   0
   4  -2  33    0.78    7.08   0
   4   1  48  212.33   10.27   0
   5  -2  37   -9.21    6.66   0
   5   1  49   -2.65    7.88   0
   2   2  45    1.14    6.90   0
   3  -2  26  557.86   11.32   0
   3   0  42  309.76   10.67   0
   6  -4  19   -3.89    6.83   0
   7  -4  23   -3.45    6.88   0
   7  -3  34  181.19   10.13   0
   7  -1  44  129.40    8.68   0
   8  -4  24  353.59   11.46   0
   9  -4  22   79.38    9.17   0
   1   1  36  889.22   14.98   0
   4  -1  41   -5.58    6.56   0
   4   2  50  113.65    9.38   0
   5  -4   3   -0.30    5.40   0
   5  -4   6  396.52   11.50   0
   5  -3  29   -2.76    7.16   0
   6  -3  33  -10.75    7.37   0
   0   1  26 1169.83   17.72   0
   3  -1  37    1.53    6.85   0
   3   2  49    3.28    8.58   0
   4  -3  22  362.96    9.76   0
   5  -4   0 1335.26   20.56   0
   1   2  41    3.08    6.23   0
   2   0  38  247.89    9.31   0
   2   1  43    2.15    6.78   0
   3   1  47   -3.40    7.56   0
   5  -4   9   22.58    5.81   0
   6  -2  41    1.20    7.50   0
   6  -1  46   61.47    8.76   0
   2  -2  13    1.21    5.23   0
   5  -1  45    1.64    6.92   0
   6  -4  22  375.85   11.11   0
   7  -4  26  149.68    9.75   0
   7  -2  42  146.39    9.48   0
   8  -4  27   -2.68    7.57   0
   9  -4  25    1.94    7.06   0
   0   2  34  266.14    9.51   0
   3  -2  29   -0.86    5.39   0
   4  -2  36  385.08   10.42   0
   5  -4  12 1198.61   16.66   0
   5  -2  40  451.20   11.64   0
   7  -3  37    6.39    8.37   0
   4  -3  25    0.12    6.40   0
   5  -3  32  719.53   13.16   0
   6  -3  36  344.04   11.41   0
   1   0  31   -1.34    5.57   0
   3   0  45   -6.18    7.39   0
   4  -1  44  296.90   10.95   0
   4   1  51    6.34    7.45   0
   5  -4  15   10.08    6.10   0
   5   0  50   75.39    8.89   0
   2  -2  16 2993.25   25.85   0
   6  -4  25    0.70    6.00   0
   6  -2  44  244.75   11.11   0
   7  -4  29    6.32    7.73   0
   8  -4  30  102.00    8.81   0
   9  -4  28   91.62    8.21   0
   1   1  39    4.53    6.09   0
   3  -1  40  454.35   10.89   0
   4   0  49    1.69    8.14   0
   4   2  53   -1.17    8.55   0
   5  -4  18  780.59   13.95   0
   7  -2  45    3.90    8.45   0
   0   1  29    2.28    4.95   0
   2  -1  33    0.84    5.34   0
   2   0  41    0.94    6.58   0
   3  -3   9   -0.23    5.19   0
   3  -2  32 1238.06   16.51   0
   4  -3  28  740.72   13.50   0
   5  -1  48  216.14   10.40   0
   6  -1  49    6.04    8.15   0
   2  -2  19    0.20    5.67   0
   2   1  46  115.85    8.48   0
   3   1  50  169.23    9.46   0
   3   2  52  116.70    9.79   0
   4  -2  39    8.90    6.40   0
   5  -3  35    4.06    6.48   0
   5  -2  43   14.00    6.96   0
   7  -3  40  145.04    9.35   0
   1  -1  20 1562.69   19.42   0
   1   2  44  305.39   10.55   0
   5  -4  21    0.75    6.60   0
   6  -3  39   -5.09    7.40   0
   7  -4  32  284.27   10.84   0
   8  -4  33   -2.86    8.39   0
   0   2  37   -2.49    5.33   0
   3  -3  15    2.04    4.62   0
   5   0  53   -0.81    8.43   0
   6  -2  47    4.73    8.89   0
   7  -5  12  403.08   11.68   0
   8  -5  19   -0.76    7.33   0
   2  -2  22 1992.59   20.67   0
   3   0  48  192.23    8.96   0
   4  -3  31    1.86    5.92   0
   4   1  54   61.38    8.80   0
   2  -1  36  889.10   14.11   0
   3  -3  18  544.51   11.80   0
   3  -2  35    2.70    5.75   0
   4   0  52  137.40    9.81   0
   5  -3  38  114.47    8.05   0
   7  -3  43    1.63    7.94   0
   1  -1  23   -1.41    4.71   0
   1   1  42  331.37   10.54   0
   5  -2  46   62.87    7.91   0
   6  -3  42  150.74    9.32   0
   7  -5  18  187.85    9.32   0
   8  -5  22  111.51    8.91   0
   8  -4  36  113.83    9.14   0
   0   1  32 1721.52   20.86   0
   2  -2  25   -2.44    5.95   0
   2   1  49    0.89    7.17   0
   3  -3  21   -3.09    5.05   0
   3   1  53    1.39    7.82   0
   4  -3  34  550.39   12.26   0
   7  -5  21   -2.44    7.03   0
   8  -5  25    9.37    7.87   0
   6  -4  34  186.07    8.98   0
   1   0  37   -2.89    5.08   0
   3  -2  38  324.28   10.55   0
   5  -3  41   -7.58    8.05   0
   6  -2  50  112.17    8.92   0
   7  -3  46   66.87    9.22   0
   8  -4  39    0.41    8.56   0
   1  -1  26 1171.99   16.13   0
   3  -3  24 1656.02   18.22   0
   3   0  51    5.32    7.90   0
   4  -2  45    4.09    7.68   0
   6  -3  45    0.84    8.19   0
   7  -5  24  473.17   12.40   0
   0   2  40  778.69   15.27   0
   2  -2  28 1155.75   15.88   0
   4  -4  11   -0.99    5.32   0
   5  -4  30  190.70    8.53   0
   5  -2  49   -5.14    7.50   0
   6  -5   8  791.23   15.52   0
   6  -5  11    2.90    6.46   0
   6  -5  14  426.46   11.57   0
   8  -5  28  164.76    9.89   0
   4  -4   8 1565.93   20.14   0
   4  -4  14  331.17   10.16   0
   4  -3  37    6.49    7.44   0
   4   0  55   -8.35    7.85   0
   4   1  57    8.13    7.74   0
   6  -5  17    0.77    6.57   0
   6  -4  37   -6.68    7.01   0
   7  -5  27    2.61    7.72   0
   9  -5  29    4.64    7.51   0
   0   1  35   -1.58    5.39   0
   1   1  45   -2.81    6.38   0
   2   0  47   -5.00    7.19   0
   3  -3  27   -0.32    6.41   0
   4  -4   5    2.04    5.70   0
   4  -4  17    1.42    6.01   0
   1  -1  29   -2.27    5.87   0
   3  -2  41    3.31    7.34   0
   5  -4  33   -2.10    7.16   0
   5  -3  44  225.40   10.67   0
   6  -5  20  530.36   12.34   0
   7  -4  41   -5.39    7.57   0
   8  -5  31   -0.23    7.25   0
   1   0  40  774.24   14.07   0
   2   1  52  265.06   10.77   0
   3   1  56  116.66   10.11   0
   4  -1  53   -2.33    8.17   0
   6  -2  53    6.43    7.92   0
   2  -2  31    4.80    5.43   0
   3  -1  49   -1.26    7.71   0
   4  -2  48  300.44   10.84   0
   6  -5  23    1.32    6.67   0
   6  -4  40  270.79   10.88   0
   6  -3  48  165.04    9.56   0
   7  -5  30  195.91    9.26   0
   3  -3  30  599.99   11.94   0
   3   0  54   80.89    8.89   0
   4  -3  40  479.06   11.44   0
   5  -2  52  134.88   10.03   0
   8  -5  34  141.16    9.83   0
   5  -4  36  510.87   12.46   0
   6  -5  26  240.99   10.17   0
   7  -4  44  142.36    9.52   0
   0   0  27    0.23    5.13   0
   1  -1  32 1756.09   19.27   0
   4  -4  26  765.61   13.77   0
   4   0  58   53.69    8.86   0
   5  -3  47   10.24    8.58   0
   5  -1  57   -6.83    7.74   0
   7  -5  33    1.08    8.09   0
   0   1  38  261.55    9.73   0
   2  -2  34  294.10    9.27   0
   2   0  50  204.26    9.79   0
   3  -2  44  342.14   10.31   0
   1   1  48  329.04   11.00   0
   3  -3  33   -1.59    5.92   0
   6  -5  29    0.85    7.13   0
   6  -4  43   -2.99    7.40   0
   6  -3  51   -6.59    8.32   0
   8  -5  37    1.28    7.53   0
   1   0  43    5.62    5.51   0
   2  -1  45    2.76    6.14   0
   4  -4  29    3.79    6.99   0
   4  -3  43    6.58    6.79   0
   4  -2  51   -1.25    7.89   0
   4  -1  56  120.59    9.33   0
   5  -4  39   -1.82    7.45   0
   7  -5  36  165.38   10.10   0
   3  -1  52  268.90    9.84   0
   3  -1  22  480.04   11.84   0
   4  -4  11    3.19    5.89   0
   4   1  27    3.07    7.31   0
   5   1  28  425.71   12.81   0
   3  -3  12 2057.23   21.92   0
   4  -1  26  681.07   13.79   0
   4   2  26  356.17   11.95   0
   6  -5  14  421.23   11.77   0
   7   0  28  130.71   10.24   0
   4  -3  19   10.72    6.40   0
   5  -3  23   11.37    7.43   0
   5   0  29    1.29    6.52   0
   6  -6   3   -2.93    6.34   0
   7  -1  29   -2.04    8.60   0
   8  -6  11   -2.73    7.92   0
   8  -3  26  199.66   11.08   0
   8  -1  27   -6.12    8.08   0
   8   0  26   96.18   10.27   0
   9  -3  24  218.32   10.65   0
   4   0  28  613.54   13.41   0
   5  -4  18  729.48   13.84   0
   7  -4  23   -7.23    7.22   0
   9  -6  12  182.57   10.09   0
   9  -4  22   82.54    8.98   0
   2   1  22  465.57   12.15   0
   3   1  26  648.31   13.96   0
   4  -2  24 1898.12   20.24   0
   6   0  30  123.24    9.93   0
   8  -4  24  347.98   12.24   0
   4  -5   0 1349.39   20.33   0
   5  -5  10  716.72   13.57   0
   6  -2  29   -4.34    7.18   0
   6   1  29   -0.71    8.49   0
   7  -6  10  223.19   10.32   0
   5  -2  28  399.49   11.58   0
   6  -3  27   -0.02    7.81   0
   7  -3  28  409.12   12.29   0
   7  -2  30   85.98    9.98   0
   9  -5  20  109.77    9.70   0
   2  -1  18 1270.61   18.06   0
   3  -2  20 1531.04   18.40   0
   6  -6   6  410.09   12.23   0
   6  -1  31    1.98    7.10   0
   8  -6  14  116.02    9.60   0
   4  -4  14  314.35   10.13   0
   6  -5  17    1.71    7.35   0
   9  -6  15    1.44    8.01   0
   2  -2  13   -2.92    5.54   0
   3  -4   4 1285.51   19.71   0
   7  -4  26  152.17   10.56   0
   8  -3  29  -11.31    8.67   0
   8  -1  30   81.31    9.17   0
   9  -4  25   10.04    7.81   0
   9  -3  27    3.14    7.53   0
   3  -3  15   -2.17    5.79   0
   3  -1  25    1.85    6.53   0
   3   0  27    3.89    6.26   0
   4  -1  29    1.04    7.04   0
   4   1  30  324.80   11.34   0
   5  -3  26  640.01   13.51   0
   5   1  31    7.94    7.83   0
   7  -6  13    7.91    7.36   0
   7  -1  32  252.48   11.43   0
   7   0  31   14.79    8.95   0
   4  -5   3    0.50    5.75   0
   4  -3  22  376.05   10.22   0
   5  -5  13    1.07    6.51   0
   5  -4  21   10.26    6.05   0
   5   0  32  481.35   13.04   0
   8  -4  27   11.58    7.90   0
   4  -2  27    9.02    6.98   0
   6  -4  25   -1.47    6.69   0
   6  -2  32  327.22   12.10   0
   9  -5  23   -5.34    7.99   0
   2   2  24 1892.64   23.92   0
   4   0  31   -5.52    6.97   0
   6  -6   9   -0.32    6.45   0
   6   0  33   -0.82    8.70   0
   7  -3  31    0.08    9.06   0
   8  -6  17   -1.24    8.30   0
   6  -5  20  510.36   12.69   0
   6  -3  30  186.61    9.32   0
   6   1  32  251.88   11.12   0
   9  -6  18  188.10    9.93   0
   3   1  29   -0.83    6.32   0
   3   2  28  412.70   12.46   0
   5  -2  31   -0.35    6.71   0
   6  -1  34  222.43   11.46   0
   9  -4  28   89.53    9.27   0
   2   1  25    0.12    5.57   0
   3  -2  23   -0.23    5.47   0
   7  -6  16  640.68   14.18   0
   7  -4  29    9.54    8.53   0
   8  -5  25   11.66    7.57   0
   8  -3  32  200.15   10.75   0
   9  -7  10  154.83    9.15   0
   3  -4   7   13.33    5.37   0
   4  -5   6  381.65   11.54   0
   8  -4  30   91.99    9.82   0
   8  -1  33   -3.25    8.55   0
   2  -1  21   11.17    5.40   0
   5  -5  16  688.95   13.11   0
   5  -4  24  691.56   13.11   0
   5  -3  29   -4.29    6.49   0
   6  -6  12  369.63   11.25   0
   7  -1  35   -4.91    8.47   0
   7   0  34  148.03    9.97   0
   9  -5  26  144.55    9.82   0
   3  -3  18  536.14   11.60   0
   4  -3  25    0.64    5.80   0
   6  -4  28  468.39   11.73   0
   9  -6  21    2.09    7.80   0
   2  -2  16 3031.48   26.60   0
   3  -1  28 1384.67   17.64   0
   3   0  30  319.03   10.43   0
   4   1  33    7.24    7.27   0
   5   0  35    1.16    7.96   0
   5   1  34  219.29   10.88   0
   6  -2  35   -2.49    8.45   0
   9  -7  13    5.33    7.90   0
   4  -2  30  202.82    8.64   0
   6  -3  33   -1.48    7.82   0
   6   0  36  219.66   11.33   0
   7  -6  19    1.53    7.74   0
   7  -3  34  181.44    9.60   0
   4   0  34  249.34   10.36   0
   8  -7  12  200.41   10.41   0
   8  -5  28  189.69   10.02   0
   4  -5   9   13.86    5.97   0
   5  -2  34  441.37   11.65   0
   6  -1  37   17.57    8.59   0
   7  -5  27   13.60    7.27   0
   7  -4  32  283.17   11.54   0
   8  -3  35  -14.32    8.68   0
   3  -4  10 1147.55   17.37   0
   5  -5  19    1.84    6.69   0
   5  -1  36  308.94   10.60   0
   6  -6  15    5.46    6.89   0
   8  -6  23    0.86    8.18   0
   8  -4  33    3.14    8.44   0
   9  -5  29    4.20    8.11   0
   3  -2  26  553.59   11.88   0
   5  -4  27    9.30    6.48   0
   5  -3  32  724.32   13.92   0
   6  -4  31   -8.02    8.25   0
   9  -7  16  160.24    9.23   0
   2   2  27   -0.37    5.90   0
   3  -3  21   -1.58    6.23   0
   3   1  32  904.40   16.13   0
   4  -3  28  721.28   13.69   0
   7  -1  38   36.45    9.03   0
   7   0  37   -4.75    9.15   0
   8  -2  37    2.71    8.12   0
   7  -6  22  150.69    9.76   0
   8  -7  15    1.50    7.17   0
   2  -2  19    3.36    5.95   0
   2  -1  24 1906.97   20.59   0
   2   1  28 1354.47   19.06   0
   6  -3  36  309.84   11.96   0
   7  -3  37    6.86    9.01   0
   8  -5  31    9.00    8.41   0
   3  -1  31    0.29    6.83   0
   4  -5  12 1174.00   17.42   0
   4  -2  33    9.56    7.37   0
   5  -6   8  796.12   15.18   0
   5   0  38  204.25   10.63   0
   5   1  37    1.50    8.99   0
   6  -6  18  268.27   10.48   0
   7  -5  30  187.13   10.64   0
   3  -4  13    6.93    5.64   0
   3   0  33    2.22    6.54   0
   4  -4  23   -2.10    5.71   0
   4   1  36  324.98   11.49   0
   5  -5  22  256.63    9.72   0
   6   0  39    7.87    8.13   0
   7  -4  35    7.07    9.02   0
   8  -6  26  187.28   10.06   0
   8  -3  38   51.65    9.24   0
   9  -7  19    0.56    7.37   0
   9  -6  27    0.57    7.88   0
   5  -2  37    1.17    7.11   0
   6  -1  40  203.80   11.15   0
   8  -4  36  130.03    9.47   0
   4   0  37    0.37    6.55   0
   5  -4  30  174.85    8.89   0
   5  -1  39    1.36    7.69   0
   6  -4  34  173.46   10.15   0
   3  -2  29   -0.06    5.86   0
   5  -6  11   -3.45    6.25   0
   5  -3  35   -0.43    6.83   0
   7  -7  14  133.79    9.69   0
   7  -6  25    1.06    8.18   0
   3  -3  24 1632.27   18.67   0
   4  -3  31   -1.80    6.28   0
   7  -1  41    1.69    9.01   0
   8  -5  34  142.47    9.86   0
   2   0  29   -2.12    5.06   0
   4  -5  15    0.64    5.17   0
   6  -6  21    2.67    6.39   0
   7  -5  33   -3.47    8.48   0
   7  -3  40  142.50   10.18   0
   8  -6  29   -0.80    8.26   0
   9  -7  22   38.22    8.58   0
   3   1  35    4.09    6.79   0
   4  -4  26  744.44   13.78   0
   5  -5  25   -4.14    6.81   0
   6  -3  39    6.57    7.36   0
   2  -2  22 1952.32   20.63   0
   2  -1  27    3.66    5.24   0
   3  -4  16 2034.10   21.50   0
   4  -2  36  390.30   10.89   0
   7  -4  38  126.63    9.69   0
   7  -2  42  133.41   10.11   0
   8  -7  21    5.93    7.96   0
   8  -4  39   10.47    8.83   0
   2   1  31    1.79    6.10   0
   2   2  30  205.76    9.62   0
   5  -6  14  400.40   11.35   0
   5  -4  33    8.22    7.89   0
   5  -2  40  442.84   12.62   0
   5   0  41    7.94    8.25   0
   7  -7  17    1.72    6.94   0
   7  -6  28  172.62   10.22   0
   3   0  36  853.82   15.30   0
   6  -4  37    2.13    8.29   0
   6   0  42  141.10    9.96   0
   1   1  24 1821.37   22.48   0
   3  -2  32 1223.73   16.97   0
   4  -5  18  741.46   14.15   0
   4   1  39   -0.50    7.28   0
   5  -3  38  103.83    8.21   0
   5  -1  42  164.14   10.43   0
   6  -5  32  387.45   11.08   0
   6  -1  43    0.91    9.04   0
   8  -5  37   -0.91    8.81   0
   3  -3  27   -4.20    5.67   0
   4  -3  34  533.10   12.72   0
   4   0  40  437.97   11.97   0
   7  -5  36  169.62   10.57   0
   8  -7  24  215.06   11.34   0
   8  -6  32  196.71   10.14   0
   7  -3  43   -2.05    8.67   0
   7  -1  44  120.09   10.86   0
   4  -4  29   -2.97    6.12   0
   5  -6  17   -2.27    6.80   0
   6  -3  42  161.98   10.51   0
   7  -7  20  167.44    9.86   0
   7  -4  41    7.39    8.84   0
   2  -2  25   -0.40    5.29   0
   2   0  32  640.31   12.77   0
   4  -2  39   11.50    7.75   0
   7  -6  31    2.30    8.15   0
   2  -3  17    5.35    4.96   0
   2  -1  30  610.88   12.36   0
   4  -5  21    6.96    6.61   0
   4  -1  41    1.36    7.70   0
   5  -4  36  497.17   12.83   0
   6  -6  27    6.58    7.93   0
   7  -2  45    1.48    8.83   0
   3   1  38  168.38    9.21   0
   5   0  44  193.76   11.56   0
   6  -5  35   -2.03    6.96   0
   6  -4  40  265.01   10.30   0
   8  -7  27   -7.05    8.88   0
   5  -6  20  483.82   12.30   0
   5  -3  41   -7.50    8.21   0
   7  -7  23    2.11    7.53   0
   1  -1  20 1578.65   19.56   0
   2   1  34  621.60   13.59   0
   3  -3  30  566.98   12.04   0
   3  -2  35   11.51    6.08   0
   3   0  39   -8.29    7.22   0
   4  -3  37   -6.63    6.69   0
   5  -1  45   -1.52    8.54   0
   6  -1  46   67.49    8.96   0
   6   0  45    2.00    8.40   0
   7  -5  39   10.76    7.91   0
   1   2  26  527.42   13.40   0
   4  -4  32  477.40   12.05   0
   4   0  43  -11.17    7.95   0
   4   1  42  168.87   10.47   0
   1   1  27   -2.08    5.52   0
   6  -3  45    5.66    8.26   0
   7  -6  34  182.91    9.52   0
   7  -4  44  151.72   10.19   0
   7  -3  46   67.88    8.30   0
   2  -3  20 1477.42   18.16   0
   2  -2  28 1174.34   16.02   0
   4  -5  24  682.32   12.97   0
   6  -6  30  161.79    8.88   0
   6  -2  47    1.84    8.41   0
   2   0  35   -5.09    6.47   0
   4  -2  42  405.26   12.09   0
   5  -6  23    6.38    7.04   0
   5  -4  39    0.88    6.98   0
   6  -5  38  149.37   10.03   0
   6  -4  43    9.41    8.83   0
   7  -7  26  210.64   10.19   0
   8  -7  30   37.09    8.76   0
   2  -1  33   -5.80    5.79   0
   3  -5   5    3.38    5.81   0
   4  -1  44  288.40   11.23   0
   6  -7  19   -1.49    7.63   0
   3  -3  33   -5.88    7.17   0
   5  -5  34  291.34   10.01   0
   5  -3  44  240.72   10.85   0
   7  -5  42   83.45    9.23   0
   1  -1  23   -0.89    4.88   0
   3  -2  38  328.60   10.13   0
   3   1  41    8.11    6.78   0
   4  -4  35    5.99    7.72   0
   4  -3  40  473.39   11.77   0
   5   0  47    6.45    8.45   0
   2  -3  23    5.65    6.10   0
   3   0  42  314.24   11.06   0
   4  -5  27    1.06    5.95   0
   6  -6  33   -2.62    7.89   0
   6  -1  49    5.37    8.09   0
   1  -2  15    1.19    4.66   0
   2  -2  31   -1.96    6.59   0
   2   1  37    5.02    6.24   0
   5  -6  26  237.76   10.08   0
   5  -1  48  223.38   10.51   0
   6  -7  22  148.53    9.69   0
   6  -3  48  153.46    9.89   0
   7  -7  29   -2.71    7.86   0
   7  -4  47   -6.83    8.35   0
   8  -7  33   -3.41    7.36   0
   3  -5  11    3.95    5.33   0
   4   0  46  152.35    9.68   0
   5  -4  42  220.82   10.65   0
   6  -5  41    7.34    8.60   0
   1   1  30  609.11   13.19   0
   1   2  29    5.91    5.57   0
   3  -4  28  701.46   12.93   0
   4  -2  45    0.82    7.58   0
   5  -5  37   -0.41    8.19   0
   6  -4  46  105.90    9.51   0
   6  -2  50   90.61    9.54   0
   2  -1  36  913.15   14.67   0
   2   0  38  260.40    9.93   0
   3  -3  36  558.09   12.50   0
   4  -6  13    0.60    6.37   0
   7  -5  45    4.51    8.26   0
   1  -1  26 1241.45   17.02   0
   3  -5  14  387.20   10.99   0
   3  -1  43   -6.45    7.33   0
   4  -4  38  141.39    9.30   0
   4  -3  43    7.29    8.12   0
   4  -1  47   -8.22    6.74   0
   5  -6  29    6.48    7.38   0
   5  -3  47    4.19    8.38   0
   6  -6  36  153.38   10.05   0
   1  -2  18 1232.46   17.27   0
   2  -3  26  534.18   11.48   0
   3  -2  41    5.49    6.57   0
   6  -7  25    2.12    7.39   0
   7  -7  32  253.82   11.01   0
   2  -4   9   -1.90    4.84   0
   4  -6  16  740.72   14.41   0
   2  -2  34  293.36    9.45   0
   3  -5  17   -0.89    5.91   0
   3  -4  31   -1.09    6.69   0
   3   0  45   14.31    7.33   0
   3   1  44  270.73   10.85   0
   5  -4  45    6.76    8.33   0
   5   0  50   67.69    8.64   0
   6  -5  44  148.28    9.73   0
   2  -4  12  792.05   15.00   0
   5  -5  40  207.25   10.22   0
   5  -1  51   -8.51    8.68   0
   6  -3  51    0.26    7.68   0
   1  -2  21   18.57    5.78   0
   2   1  40  462.24   12.22   0
   3  -3  39    2.85    7.17   0
   4  -6  19   -1.89    6.43   0
   4   0  49    8.64    7.88   0
   5  -6  32  407.62   11.80   0
   6  -7  28  158.73    9.15   0
   6  -4  49  -14.21    8.91   0
   1  -1  29   -7.24    6.02   0
   1   1  33    6.80    6.11   0
   2  -4  15    0.44    5.41   0
   2  -3  29    5.55    5.59   0
   3  -5  20  613.55   12.97   0
   4  -4  41    7.09    7.88   0
   6  -6  39    0.61    8.32   0
   6  -2  53    3.37    8.78   0
   7  -7  35    4.37    8.06   0
   1   2  32 1181.30   18.80   0
   2   0  41   -1.84    6.92   0
   3  -1  46  135.39    9.34   0
   4  -3  46   97.06    9.54   0
   4  -1  50  189.05   10.59   0
   5  -3  50  166.58   10.52   0
   5  -2  52  129.64   10.19   0
   3  -4  34  517.27   12.22   0
   3  -2  44  334.10   10.48   0
   2  -4  18 1093.06   16.45   0
   2  -2  37   -4.37    6.02   0
   4  -6  22  367.21   11.04   0
   6  -7  31   -0.23    7.53   0
   6  -5  47    0.57    8.28   0
   1  -2  24 1914.39   20.24   0
   1   0  34 1001.44   15.64   0
   3  -5  23    7.85    6.53   0
   5  -6  35    5.82    7.81   0
   5  -5  43    2.42    8.51   0
   5  -4  48  118.65    9.42   0
   2  -3  32 1212.70   16.18   0
   3  -3  42  242.87   10.24   0
   3   0  48  208.28   10.52   0
   7  -7  38   40.92    8.68   0
   2  -4  21    2.41    5.85   0
   3   1  47    3.98    7.41   0
   4  -6  25   -3.49    6.82   0
   4  -4  44  397.94   11.38   0
   5  -7  21    3.45    6.84   0
   5  -1  54   56.37    9.16   0
   2   1  43   -2.34    6.62   0
   3  -5  26  628.88   13.01   0
   3  -4  37    3.07    7.47   0
   4  -3  49    8.23    8.92   0
   4   0  52  159.62   10.83   0
   1  -2  27    6.26    6.05   0
   1   1  36  888.45   14.98   0
   2   0  44  720.09   14.44   0
   3  -2  47   -1.09    7.36   0
   5  -3  53   -2.24    8.40   0
   6  -7  34  166.17    9.92   0
   2  -2  40  823.59   13.99   0
   3  -1  49   -4.52    6.57   0
   4  -5  39   -3.99    7.84   0
   4  -1  53   -4.78    7.87   0
   5  -7  24  443.94   12.22   0
   5  -6  38  127.24    9.63   0
   5  -2  55    1.50    8.06   0
   6  -5  50   73.86    9.21   0
   1   2  35    0.44    5.60   0
   2  -3  35    2.76    6.05   0
   4  -6  28  448.06   12.05   0
   5  -5  46   81.38    8.84   0
   5  -4  51    5.04    8.23   0
   0   0  21    0.85    5.23   0
   1   0  37   -2.75    5.29   0
   3  -5  29   -0.25    6.83   0
   3  -3  45    3.61    7.44   0
   1  -1  35   -6.84    5.65   0
   4  -4  47   -6.55    7.15   0
   5  -7  27   -1.88    7.97   0
   6  -7  37   -2.12    8.02   0
   1  -3  13   24.36    5.67   0
   1  -2  30  648.14   12.33   0
   3  -4  40  464.97   11.58   0
   3   0  51    3.78    7.74   0
   4  -2  54   41.62    9.02   0
   4  -6  31    1.09    6.29   0
   4  -5  42  223.10   10.39   0
   5  -6  41    0.53    8.22   0
   5  -1  57   -7.39    7.61   0
   0   1  26 1154.69   17.70   0
   1   1  39    1.86    6.01   0
   2  -3  38  344.53   10.24   0
   2  -2  43   -2.52    6.27   0
   2   0  47   -1.99    7.15   0
   2   1  46  133.39    8.49   0
   3  -5  32  702.66   13.72   0
   3  -2  50  166.50    8.86   0
   5  -5  49   10.76    8.45   0
   0   0  24 4704.87   32.84   0
   3  -1  52  277.64   11.33   0
   4   0  55    5.33    7.38   0
   5  -7  30  177.30    9.31   0
   5  -4  54   56.52    8.94   0
   5  -2  58  110.95    9.65   0
   1  -2  33   -0.65    6.67   0
   1   0  40  770.35   14.28   0
   2  -4  30  201.59    9.10   0
   4  -1  56  121.74   10.00   0
   6  -7  40  188.86    9.74   0
   1  -3  22  474.84   11.37   0
   3  -4  43    0.48    6.87   0
   4  -6  34  182.08    8.92   0
   4  -4  50  164.42    9.42   0
   2  -1  48  346.59   11.23   0
   4  -5  45    6.63    8.00   0
   5  -6  44  155.59    9.96   0
   0   0  27    1.52    4.75   0
   0   1  29    0.45    5.48   0
   2  -3  41   -0.93    6.34   0
   2  -2  46  272.66   10.40   0
   4  -3  55   -2.76    8.57   0
   5  -7  33   -0.42    7.50   0
   0  -1  19   -0.66    4.79   0
   1  -3  25    6.56    6.16   0
   2  -4  33    0.78    5.96   0
   3   0  54   85.43    8.75   0
   4  -2  57   -5.46    7.62   0
   5  -5  52  170.64    9.99   0
   1  -2  36  943.31   14.50   0
   1   1  42  313.25   10.58   0
   2   0  50  202.47    9.90   0
   4  -6  37   -0.94    6.70   0
   6  -7  43   -0.72    7.23   0
   0  -1  22  504.37   11.49   0
   0   2  28 1081.62   18.26   0
   1  -1  41   -1.72    6.00   0
   1   0  43    3.92    6.66   0
   2   1  49   -5.97    7.12   0
   3  -4  46   75.21    9.18   0
   3  -3  51    4.27    8.51   0
   3  -1  55   -4.58    8.32   0
   4  -4  53    0.63    8.62   0
   5  -7  36  164.96   10.60   0
   5  -4  57    0.77    7.98   0
   1  -3  28 1352.27   16.95   0
   4  -5  48  131.66    9.90   0
   4  -1  59   -5.23    8.28   0
   0  -1  25    6.81    5.87   0
   0   1  32 1783.86   20.88   0
   2  -4  36  399.55   10.61   0
   2  -3  44  347.69   10.45   0
   3  -6  15    5.12    5.63   0
   3  -6  18  434.37   11.76   0
   1  -2  39    9.67    6.93   0
   2  -2  49  -12.23    7.39   0
   2  -1  51   -4.80    6.56   0
   3  -6  21    2.57    6.08   0
   4  -6  40  252.83   10.73   0
   1  -3  31    3.64    6.58   0
   4  -3  58  100.12    8.87   0
   5  -7  39   -4.94    8.79   0
   5  -5  55    5.00    7.84   0
   0  -1  28 1456.29   18.09   0
   1   1  45    3.22    6.60   0
   2  -5  16 1798.54   21.26   0
   3  -6  24  603.11   13.25   0
   3  -4  49   -8.20    8.08   0
   4  -2  60   98.93    9.66   0
   0   2  31   -0.66    5.09   0
   1   0  46  117.56    8.44   0
   2  -5  13    0.63    5.48   0
   2  -5  19    7.48    5.99   0
   2  -4  39    0.72    6.32   0
   2   0  53   -1.16    8.03   0
   3  -3  54   84.66    9.76   0
   3   0  57   -5.98    7.99   0
   4  -4  56   83.96    9.54   0
   0   1  35   -0.07    5.60   0
   1  -3  34  618.73   12.80   0
   2  -5  22  295.91    9.40   0
   2  -3  47   -4.60    6.84   0
   3  -6  27   -1.94    6.69   0
   3  -1  58  108.47    9.09   0
   4  -6  43    8.57    7.82   0
   4  -5  51   -0.20    7.65   0
   0  -1  31   -0.81    6.24   0
   1  -2  42  316.12   10.84   0
   2  -5  25    1.55    6.10   0
   4  -7  26  148.13    9.11   0
   2  -2  52  193.79    9.23   0
   2  -1  54  100.80    9.14   0
   3  -6  30  184.91    9.20   0
   3  -5  44  227.44   10.65   0
   5  -7  42   79.64    9.02   0
   2  -5  28  420.80   11.45   0
   2  -4  42  411.99   11.06   0
   4  -7  29    3.03    6.76   0
   0   2  34  285.30   10.06   0
   1  -3  37    0.00    6.10   0
   3  -2  59    0.47    8.04   0
   0  -2  17   -2.40    5.51   0
   0  -2  20 3643.08   28.29   0
   0  -1  34  988.86   14.80   0
   0   1  38  258.87    9.67   0
   1   0  49   -3.73    6.99   0
   1   1  48  332.18   11.07   0
   2  -5  31    3.14    6.84   0
   2  -3  50  181.42   10.24   0
   3  -6  33    4.65    7.25   0
   3  -3  57   -2.03    8.39   0
   4  -7  32  289.45   11.26   0
   4  -6  46   87.78    8.57   0
   4  -5  54   44.47    8.68   0
   0  -2  23   -1.35    5.05   0
   1  -2  45    3.26    6.44   0
   2   0  56  107.52    9.37   0
   3  -5  47   -0.83    8.31   0
   4  -4  59    3.48    7.36   0
   5  -7  45   -7.16    7.31   0
   0  -2  14  348.32   10.25   0
   0  -2  26 1328.71   17.24   0
   0   0  39    4.90    5.53   0
   1  -4  20  936.21   15.25   0
   2  -4  45   -5.26    8.16   0
   3  -1  61    5.40    7.73   0
   0  -1  37   -1.69    6.32   0
   1  -4  17   -1.67    5.53   0
   1  -4  23   17.53    6.14   0
   1  -3  40  457.48   11.29   0
   2  -5  34  446.79   11.88   0
   2  -1  57   -5.43    8.21   0
   3  -6  36  326.16   11.11   0
   4  -7  35    1.80    7.40   0
   0  -2  29   -2.21    6.25   0
   0   2  37   -1.36    5.92   0
   1  -4  14  687.77   13.93   0
   3  -4  55   -6.98    7.51   0
   4  -6  49    8.38    7.66   0
   0   1  41    7.00    6.16   0
   1  -2  48  346.13   11.15   0
   2  -3  53    0.65    8.25   0
   0  -2  32  687.28   13.17   0
   0   0  42  784.91   14.36   0
   1  -3  43   -3.93    7.33   0
   1   0  52  296.65   11.06   0
   2  -5  37    7.57    7.25   0
   2  -4  48  297.87   11.26   0
   3  -6  39    2.39    7.77   0
   3  -5  50  161.92    9.87   0
   3  -3  60  109.11    9.15   0
   3  -2  62   48.01    8.46   0
   4  -7  38  133.79    9.31   0
   4  -5  57    8.81    8.46   0
   0  -1  40  765.06   14.24   0
   1  -4  11   20.65    5.81   0
   1   1  51    4.77    6.98   0
   2   0  59    2.21    8.79   0
   0  -2  35    4.59    5.82   0
   1  -1  53    1.93    7.74   0
   3  -6  42  163.28    9.85   0
   3  -4  58   98.77    9.14   0
   0   1  44  443.22   11.86   0
   0   2  40  789.43   14.94   0
   1  -4  35    0.05    6.02   0
   1  -3  46  116.59    8.95   0
   1  -2  51    7.71    7.90   0
   2  -3  56  165.95   10.68   0
   2  -1  60  163.75    9.74   0
   4  -7  41    7.43    7.88   0
   0  -1  43    3.05    7.05   0
   0   0  45   -8.29    6.76   0
   2  -4  51   -7.19    8.58   0
   3  -5  53   -7.88    7.51   0
   1   0  55   -6.79    7.37   0
   3  -3  63    1.20    7.77   0
   1  -4  38  162.70    8.50   0
   1   1  54  100.98    8.87   0
   3  -6  45   -8.57    8.13   0
   4  -7  44  147.21    9.60   0
   1  -3  49    6.54    8.43   0
   2  -2  61    2.26    8.27   0
   0  -2  41   -1.18    7.28   0
   0  -1  46  108.71    8.75   0
   0   1  47    2.33    6.64   0
   1  -4  41    6.41    7.61   0
   1  -2  54  108.42    9.32   0
   1  -1  56  197.53   10.64   0
   2  -4  54   51.00    9.20   0
   3  -4  61    3.07    7.91   0
   0  -3  24 1054.45   15.26   0
   0  -3  27    0.18    6.36   0
   0   0  48  465.99   11.39   0
   2  -3  59    7.34    8.49   0
   2   0  62   48.06    8.72   0
   3  -5  56  105.48    8.52   0
  -1   1  22  453.86   11.90   0
  -1   1  25    1.52    4.19   0
  -1   1  28 1396.35   18.50   0
   0  -3  30  312.86   10.10   0
   2  -1  63    3.54    8.25   0
   3  -6  48  152.03    9.95   0
   4  -7  47   -1.81    7.21   0
  -1   0  23   -3.17    4.70   0
  -1   0  26 1150.19   16.19   0
  -1   0  29    1.72    5.46   0
   0  -3  33    2.50    6.87   0
   0  -2  44  740.84   13.99   0
   1   0  58  152.72    9.77   0
   2  -6  23    0.20    7.11   0
   2  -6  26  369.67   11.17   0
  -1   0  20 1534.94   19.36   0
  -1   1  31    3.34    5.47   0
   1  -4  44  274.25   10.08   0
   1  -3  52  272.17   10.33   0
   2  -6  20  629.36   13.97   0
  -1   0  32 1776.37   19.44   0
   0  -3  15   -0.86    5.61   0
   0  -3  36  858.76   14.42   0
   0   0  51    5.86    7.35   0
   1  -2  57    2.09    7.94   0
   1  -1  59   -4.39    8.28   0
   2  -6  32  352.41   11.12   0
   2  -5  49    0.68    7.65   0
   2  -4  57   -6.75    8.11   0
   3  -7  31   -0.41    7.20   0
  -1   1  34  975.85   15.56   0
   0   1  50  275.92   10.48   0
   2  -3  62   48.65    8.97   0
   2  -2  64  112.66    9.56   0
   3  -7  34  175.54    9.58   0
   3  -6  51    0.37    8.14   0
   0  -2  47    3.66    6.80   0
   1  -4  47    8.16    8.40   0
   2  -6  35    2.96    7.16   0
  -1  -1  24 1940.75   20.56   0
  -1  -1  27    2.61    5.26   0
  -1   1  37    3.24    6.04   0
   0  -3  39    0.26    6.50   0
   1  -5  24  912.34   15.38   0
   1  -5  27   -2.19    6.79   0
   1  -5  30  319.22   10.83   0
   1  -3  55    1.57    8.32   0
   3  -7  37    6.47    7.70   0
  -1  -1  21   14.54    6.07   0
  -1  -1  30  640.01   12.31   0
  -1   2  27   -1.97    5.21   0
   0  -3  12 2562.87   25.52   0
   1  -5  21    0.36    6.29   0
   1  -5  33    5.57    7.32   0
   2  -6  38  107.28    8.98   0
   2  -5  52  151.34    9.26   0
  -1  -1  33   16.08    5.55   0
  -1   2  30  619.96   13.58   0
   0  -3  42  330.13   11.03   0
   0   0  54   35.25    8.28   0
   1   0  61    7.75    8.06   0
   2  -4  60  109.48    9.36   0
   3  -7  40  139.92   10.12   0
   3  -6  54   48.01    8.00   0
  -1  -1  36  976.67   15.07   0
  -1   1  40  758.45   14.17   0
   0  -2  50  210.44    9.38   0
   0   1  53   -0.79    6.80   0
   1  -5  18  388.34   11.25   0
   1  -5  36  315.96   11.05   0
   1  -4  50  162.96    9.40   0
   1  -1  62   50.01    8.50   0
   2  -6  41    2.31    7.46   0
  -1  -1  18 1246.79   17.13   0
  -1   2  33    6.42    5.27   0
  -1  -1  39   -1.53    6.99   0
   0  -3  45    9.54    6.64   0
   0  -1  55   -7.01    8.02   0
   1  -5  39   -6.82    6.46   0
   1  -3  58  110.07    9.60   0
   2  -5  55   -1.05    8.09   0
   3  -7  43   -2.49    7.33   0
  -1   1  43    4.42    6.34   0
  -1   2  36  907.94   15.74   0
   1  -5  15   12.73    5.58   0
   1  -4  53  -13.81    8.02   0
   2  -6  44  232.70   10.68   0
  -1   0  44  432.35   10.91   0
   0   0  57    5.18    8.02   0
   1  -5  42  170.44   10.10   0
  -1  -1  15   -0.77    4.87   0
  -1  -1  42  345.07   10.11   0
  -1   2  39    1.03    6.30   0
   0  -4  28  632.93   12.92   0
   0  -3  48  219.29   10.47   0
   1   0  64   73.80    8.20   0
   3  -7  46   68.96    7.91   0
  -1  -2  25    5.97    6.27   0
  -1  -2  28 1395.35   17.10   0
  -1  -2  31    9.26    5.68   0
   0  -4  25    0.27    5.34   0
   0   1  56  197.37    9.81   0
   1  -1  65  -10.81    8.14   0
   2  -6  47   -1.63    8.36   0
   2  -5  58   92.42    8.80   0
  -1  -2  34  613.62   12.21   0
  -1  -1  45    4.61    7.48   0
  -1   0  47   -0.72    7.36   0
  -1   1  46  119.53    8.09   0
   0  -4  22  714.50   13.67   0
   0  -1  58  158.40    9.68   0
   1  -4  56  147.93    9.98   0
   1  -3  61   10.38    7.74   0
  -1  -2  22  483.98   11.02   0
  -1  -2  37   -2.86    6.21   0
   1  -2  15    4.80    5.95   0
   5  -6  29   10.12    7.38   0
   7  -6  34  153.02   11.15   0
   1  -4   5    3.03    5.26   0
   3  -1  28 1404.69   19.63   0
   4  -7  17    3.76    7.72   0
   5  -8  16  409.90   12.23   0
   5  -3  35    5.08    7.94   0
   5  -2  34  432.50   13.10   0
   6  -5  35    4.50    7.81   0
   6  -3  36  324.85   12.25   0
   2  -5  13    1.32    6.17   0
   3  -5  23    9.51    6.34   0
   4  -6  25   -2.31    7.90   0
   4  -4  32  478.86   12.84   0
   6  -8  23   -5.28    8.42   0
   6  -6  33    2.08    8.22   0
   7  -9  19   -3.46    8.55   0
   7  -7  32  267.94   12.01   0
   8  -4  36  103.80    9.75   0
   2  -3  23   -2.43    5.93   0
   4  -2  33    2.57    6.95   0
   6  -4  37    0.97    8.69   0
   6  -2  35   -8.84    8.30   0
   1  -3  13   21.73    5.40   0
   4  -5  30  179.17    9.25   0
   5  -5  34  272.35   11.53   0
   8  -5  37   10.60    8.41   0
   2  -2  25    5.00    5.58   0
   3  -6  18  425.08   12.03   0
   3  -4  28  732.89   13.76   0
   3  -3  30  585.58   13.37   0
   6  -9  15   -8.89    7.60   0
   7  -4  38  122.76   10.23   0
   7  -3  37    3.80    8.28   0
   2  -4  21    1.86    6.59   0
   3  -7   7    2.34    6.38   0
   4  -7  20  448.73   12.69   0
   4  -1  32  894.43   16.53   0
   5  -8  19    7.82    7.71   0
   6  -7  31    6.53    7.95   0
   1  -4   8 2770.91   27.54   0
   7  -9  22   50.90    9.12   0
   7  -6  37    6.64    8.60   0
   2  -5  16 1822.35   21.16   0
   2   0  23    1.43    5.20   0
   3   0  27   -3.28    5.80   0
   6  -8  26  192.21    9.98   0
   6  -5  38  117.42   10.27   0
   7  -8  30   44.22    9.09   0
   7  -5  39    2.03    8.71   0
   1  -2  18 1276.57   18.29   0
   2  -6   5   -2.52    6.34   0
   3  -5  26  645.42   13.20   0
   4  -6  28  444.66   11.78   0
   6  -6  36  156.02    9.96   0
   7  -7  35    4.38    8.50   0
   4  -4  35   -1.95    7.78   0
   5  -3  38  106.31    9.58   0
   5  -2  37   -6.11    7.99   0
   6  -9  18  185.08   10.24   0
   6  -3  39   -1.35    8.23   0
   1  -3  16 2120.54   22.39   0
   2  -3  26  561.06   11.99   0
   3  -6  21    7.33    6.17   0
   3  -1  31    0.70    6.55   0
   4  -5  33    7.00    7.22   0
   5  -8  22  120.57    9.81   0
   5  -5  37   -9.14    8.73   0
   6  -4  40  237.84   12.01   0
   8  -4  39   -2.56    8.43   0
   3  -4  31   11.74    7.35   0
   4  -7  23   -4.42    7.87   0
   4  -2  36  400.80   12.37   0
   5  -7  30  177.68   10.61   0
   6  -7  34  167.21   10.37   0
   1  -4  11   24.31    6.05   0
   2  -6   8  848.03   16.07   0
   2  -4  24 1894.86   20.84   0
   3  -3  33   -1.30    7.07   0
   5  -6  35   14.69    8.56   0
   7  -4  41    2.69    9.19   0
   2  -5  19    9.39    6.65   0
   3  -7  13    8.24    6.87   0
   6  -9  21   -0.61    8.28   0
   7  -8  33    6.20    8.42   0
   7  -6  40  208.67   11.09   0
   1  -1  20 1571.79   20.24   0
   3  -5  29   11.75    7.28   0
   4  -6  31   -1.85    7.83   0
   6  -6  39   -6.48    9.08   0
   3  -6  24  611.85   13.59   0
   4  -8  15   -1.08    7.50   0
   4  -1  35    7.27    6.92   0
   5  -8  25   -2.68    8.41   0
   7  -7  38   33.11    8.27   0
   7  -5  42   68.28    9.48   0
   1  -2  21   18.02    6.38   0
   4  -7  26  149.30   10.15   0
   1  -3  19   -3.63    5.33   0
   2  -6  11    0.63    6.18   0
   2  -3  29    6.11    7.02   0
   4  -5  36  468.27   12.22   0
   4  -4  38  126.61    8.76   0
   5  -3  41   -5.05    8.67   0
   1  -4  14  702.76   13.48   0
   3  -7  16  444.76   12.22   0
   3  -4  34  527.36   12.95   0
   3  -2  35   -8.85    7.16   0
   5  -7  33   -2.18    7.57   0
   5  -5  40  194.57    9.83   0
   6  -9  24  154.48    9.52   0
   6  -7  37    0.57    8.16   0
   6  -4  43    4.17    8.97   0
   6  -3  42  145.99   10.50   0
   2  -4  27    3.39    6.12   0
   2   0  26 1271.91   19.12   0
   3   0  30  324.08   11.12   0
   5  -6  38  115.55   10.62   0
   5  -2  40  450.45   13.36   0
   3  -3  36  541.06   13.17   0
   3  -1  34  625.69   13.83   0
   4  -8  18  189.60   10.04   0
   4  -6  34  188.05   10.71   0
   4  -2  39    6.09    7.59   0
   2  -6  14  294.55   10.41   0
   2  -2  31   -0.79    5.80   0
   3  -5  32  687.14   13.50   0
   5  -8  28  163.79   10.29   0
   6  -6  42  110.23   10.32   0
   7  -4  44  125.68    9.82   0
   1  -5   3   13.62    5.95   0
   2  -1  30  584.48   12.52   0
   3  -7  19    2.31    7.12   0
   4  -7  29    4.02    8.56   0
   1  -4  17   -2.95    5.89   0
   1  -3  22  469.37   11.66   0
   1  -1  23    3.49    4.86   0
   6  -9  27    8.72    7.46   0
   7  -5  45   -1.35    8.32   0
   1  -2  24 1988.52   21.01   0
   4  -8  21    7.13    7.16   0
   4  -5  39    8.87    7.33   0
   4  -4  41   -4.24    7.89   0
   5  -7  36  143.21    9.75   0
   6  -7  40  191.76   10.64   0
   2  -6  17   -6.44    6.57   0
   2  -4  30  209.47    9.26   0
   2  -3  32 1268.59   16.95   0
   3  -4  37   -4.14    7.95   0
   4  -1  38  162.08    9.42   0
   5  -5  43  -12.88    7.54   0
   3  -2  38  335.36   11.27   0
   5  -8  31   -7.78    7.90   0
   5  -6  41   11.10    7.93   0
   5  -3  44  218.63   11.20   0
   3  -7  22  169.01    9.70   0
   3  -5  35   -2.44    8.07   0
   4  -6  37   -5.14    7.22   0
   5  -4  45   -1.78    8.93   0
   6  -4  46   90.65    9.32   0
   6  -3  45    1.25    8.92   0
   1  -5   9   -0.88    5.43   0
   3  -3  39   -3.17    6.63   0
   5  -2  43    0.86    7.69   0
   6  -6  45   -9.39    8.66   0
   1   0  22  472.14   12.44   0
   2  -2  34  297.67    9.86   0
   2   0  29   -0.02    5.63   0
   3  -1  37   -0.59    6.77   0
   3   0  33   -3.47    6.36   0
   4  -8  24  322.60   11.44   0
   4  -3  43   -5.00    6.90   0
   4  -2  42  402.10   12.22   0
   5  -9  23    1.37    8.42   0
   7  -4  47   -7.19    8.54   0
   1  -3  25    8.66    5.64   0
   2  -6  20  645.28   13.07   0
   2  -1  33   11.06    6.31   0
   4  -5  42  224.84   11.52   0
   5  -7  39    4.96    7.86   0
   6  -7  43   -1.52    8.77   0
   6  -5  47    3.73    9.12   0
   1  -5  12  942.17   16.21   0
   1  -2  27   -0.58    5.49   0
   1  -1  26 1157.90   16.60   0
   2  -4  33    0.52    7.48   0
   3  -7  25   -1.51    7.91   0
   5  -8  34  116.82    9.91   0
   2  -3  35    0.43    6.26   0
   3  -4  40  454.52   12.45   0
   4  -4  44  379.04   11.57   0
   5  -6  44  141.11   10.25   0
   5  -5  46   79.33    9.88   0
   3  -5  38  108.90    9.03   0
   4  -8  27    4.50    7.84   0
   4  -6  40  231.40   11.34   0
   1  -5  15    7.64    6.19   0
   2  -6  23   -6.72    7.10   0
   3  -2  41    5.72    7.62   0
   4  -1  41   -2.97    7.78   0
   5  -9  26  127.34    8.72   0
   5  -3  47   -1.65    8.19   0
   1  -3  28 1375.09   17.82   0
   2  -5  31   -0.45    7.04   0
   3  -3  42  261.21   10.80   0
   5  -4  48  123.12    9.98   0
   6  -6  48  142.80   10.52   0
   6  -4  49    2.27    9.04   0
   6  -3  48  146.39   11.21   0
   0  -2  14  346.11   10.39   0
   2  -2  37    9.48    6.95   0
   3  -7  28  379.61   11.85   0
   4  -3  46   74.48    9.88   0
   5  -7  42   88.08    9.42   0
   1  -2  30  632.46   12.80   0
   1   0  25   -1.41    5.23   0
   4  -5  45   -1.86    8.69   0
   5  -8  37    2.03    7.91   0
   5  -2  46   54.50    8.45   0
   6  -5  50   74.67    9.15   0
   1  -4  26  653.26   13.19   0
   1  -1  29    2.46    5.21   0
   2  -6  26  382.79   11.63   0
   2  -4  36  398.31   10.87   0
   2  -3  38  320.26   10.86   0
   2  -1  36  958.46   15.82   0
   2   0  32  672.72   14.24   0
   3  -6  36  318.06   10.47   0
   3  -1  40  464.48   12.62   0
   4  -8  30   83.77    8.58   0
   4  -2  45    3.86    6.93   0
   5  -9  29   -0.45    8.65   0
   3  -5  41   -3.20    8.44   0
   3  -4  43    7.09    8.30   0
   3   0  36  816.34   16.14   0
   4  -6  43    3.30    8.44   0
   4  -4  47   -7.71    7.29   0
   5  -6  47   13.27    8.29   0
   5  -5  49   -9.87    8.38   0
   0  -3  12 2638.22   26.17   0
   0  -2  17    0.60    4.92   0
   1  -3  31    5.09    7.04   0
   2  -5  34  427.69   11.37   0
   3  -7  31    2.85    8.20   0
   1  -5  21    7.10    6.63   0
   3  -2  44  331.69   11.64   0
   5  -7  45    3.53    8.36   0
   5  -3  50  171.22   10.91   0
   0  -3  15    0.24    5.46   0
   1  -4  29    0.62    6.68   0
   2  -6  29   -7.28    7.64   0
   3  -6  39    1.20    8.29   0
   4  -8  33    3.80    7.99   0
   5  -4  51    5.80    8.63   0
   6  -4  52  116.74    9.61   0
   0  -2  20 3652.91   28.62   0
   0  -1  19    0.23    5.02   0
   1  -2  33    6.89    5.86   0
   2  -4  39   -4.36    6.77   0
   4  -5  48  122.21   10.51   0
   4  -3  49    7.19    8.31   0
   4  -1  44  283.42   11.30   0
   1   0  28 1358.44   18.73   0
   2  -3  41   10.30    6.86   0
   4  -6  46  110.56    9.54   0
   1  -5  24  903.01   14.89   0
   2  -5  37   -6.37    7.99   0
   2  -1  39    6.12    5.70   0
   3  -7  34  190.83   10.50   0
   3  -5  44  235.24   10.02   0
   3  -4  46   90.13    8.22   0
   3  -1  43   -7.64    7.09   0
   4  -2  48  299.48   11.80   0
   5  -6  50   73.82    8.59   0
   1  -3  34  614.44   12.51   0
   2   0  35    0.38    5.89   0
   1  -4  32  883.79   14.95   0
   2  -7  21   -3.32    7.10   0
   2  -6  32  336.11   10.48   0
   4  -8  36  118.53    9.76   0
   0  -2  23    1.76    5.31   0
   0  -1  22  495.94   11.55   0
   2  -4  42  420.18   12.34   0
   3  -6  42  155.08   10.19   0
   1  -5  27    6.09    5.86   0
   1  -2  36  948.09   14.81   0
   3  -8  26  167.25    9.28   0
   3  -2  47    2.38    6.70   0
   4  -7  44  137.01   10.08   0
   5  -4  54   55.20    9.59   0
   2  -5  40  442.32   12.71   0
   2  -3  44  325.10   11.45   0
   3  -7  37   -1.57    7.92   0
   4  -6  49   -1.84    9.03   0
   4  -5  51    6.95    7.95   0
   5  -3  53   -1.36    8.54   0
   0  -4   7   -1.61    5.13   0
   0  -4  10  406.28   11.75   0
   1  -3  37   12.72    7.17   0
   1   0  31    0.83    5.63   0
   2  -6  35   -4.08    7.99   0
   3  -5  47    2.13    7.36   0
   4  -3  52  205.67   10.90   0
   0  -4  13   -1.24    5.48   0
   0  -2  26 1307.81   16.89   0
   1  -4  35    3.67    7.72   0
   2  -1  42  352.79   11.25   0
   4  -8  39   10.55    8.22   0
   0  -3  24 1074.71   15.66   0
   0  -1  25    2.80    5.13   0
   1  -5  30  312.83    9.95   0
   2   0  38  248.86   10.51   0
   3  -8  29   -0.78    7.56   0
   3  -6  45    1.30    8.68   0
   3  -1  46  131.77    9.28   0
   4  -2  51   -0.44    7.73   0
   0  -4  16 1565.71   19.44   0
   1  -6  19   -1.44    6.33   0
   1  -2  39    8.08    7.28   0
   2  -7  27    9.38    7.53   0
   2  -4  45    4.97    8.03   0
   3  -7  40  151.40    9.46   0
   3  -3  51    5.25    8.38   0
   4  -7  47    1.98    7.38   0
   0  -4  19   -2.37    5.10   0
   0  -3  27   -1.79    6.11   0
   0  -2  29   -6.30    6.45   0
   0   0  21   -0.37    4.56   0
   2  -6  38  105.21    9.31   0
   2  -5  43   -1.75    7.01   0
   2  -3  47   -1.98    8.29   0
   2  -2  46  263.59   10.05   0
   3  -2  50  169.26    9.96   0
   4  -5  54   43.51    9.19   0
   1  -6  22  224.10    9.71   0
   1  -3  40  476.36   11.66   0
   1   0  34  962.30   15.88   0
   2  -7  30   73.35    8.86   0
   3  -8  32  192.97   10.40   0
   3  -5  50  169.55    9.86   0
   4  -6  52  126.69    9.90   0
   5  -4  57   -0.17    8.64   0
   0  -4  22  696.19   13.68   0
   4  -3  55    3.06    8.90   0
   5  -3  56  108.14    9.27   0
   1  -6  25    0.75    7.13   0
   2  -1  45   -3.44    7.20   0
   3  -6  48  138.55    9.87   0
   4  -4  56   74.90    9.56   0
   0  -3  30  319.15   10.32   0
   0   0  24 4885.49   34.12   0
   1  -2  42  349.96   10.84   0
   2  -4  48  312.68   11.33   0
   3  -7  43  -11.95    8.65   0
   0  -4  25    1.83    6.46   0
   0  -2  32  690.62   12.87   0
   2  -7  33    2.69    7.63   0
   2  -5  46   64.02    8.98   0
   2   0  41    1.12    6.35   0
   3  -8  35   -0.80    7.34   0
   3  -1  49   -0.78    7.46   0
   4  -2  54   38.54    8.94   0
   0  -1  31    5.58    5.47   0
   1  -6  28  423.20   11.99   0
   1  -4  41   14.82    6.69   0
   1  -3  43   -9.46    7.96   0
   1  -1  41    3.09    6.88   0
   2  -2  49  -10.00    8.11   0
   3  -3  54   86.70    9.44   0
   1   1  27    0.42    4.81   0
   2  -3  50  164.91    9.38   0
   3  -5  53    2.53    8.32   0
   3  -2  53    0.87    8.49   0
   4  -5  57    3.77    7.95   0
   0  -4  28  638.32   13.29   0
   0  -3  33   -1.93    7.12   0
   1   0  37    3.31    5.22   0
   3  -4  55   -5.16    8.46   0
   0  -2  35   -4.14    6.92   0
   2  -7  36  263.53   10.61   0
   3  -8  38   48.29    7.95   0
   3  -7  46   54.49    8.62   0
   3  -6  51  -10.83    8.49   0
   1  -6  31    0.32    6.46   0
   1  -2  45    8.11    6.51   0
   2  -4  51   -8.81    8.49   0
   2  -1  48  349.05   11.39   0
   4  -3  58  117.46    9.50   0
   0  -5  14  629.57   14.15   0
   1  -4  44  293.57   10.44   0
   1  -3  46  136.21    9.41   0
   2  -5  49   -2.84    8.03   0
   4  -4  59   -5.37    8.87   0
   0  -5  11    2.71    6.04   0
   0  -5  17    1.42    5.96   0
   0  -3  36  848.42   14.87   0
   1  -1  44  444.02   11.89   0
   2   0  44  721.78   14.78   0
   1  -6  34  214.95   10.11   0
   1   1  30  602.39   13.65   0
   2  -7  39    0.47    7.88   0
   2  -3  53    7.13    8.69   0
   2  -2  52  205.54   10.83   0
   3  -5  56   98.92    9.63   0
   3  -3  57    5.05    8.33   0
   3  -1  52  288.76   11.38   0
   0  -5  23    1.05    6.49   0
   0  -2  38  247.89    9.34   0
   1  -5  42  163.67   10.16   0
   1   0  40  777.07   14.54   0
   0  -1  37   -4.02    5.92   0
   3  -2  56  193.25   10.61   0
   0  -5  26  223.99    9.85   0
   0  -3  39   -4.61    7.27   0
   1  -4  47   10.72    7.08   0
   1  -2  48  336.07   10.80   0
   2  -5  52  130.68    9.93   0
   2  -4  54   25.32    8.68   0
   1  -6  37    5.76    7.98   0
   1  -3  49   -4.04    7.34   0
   2  -7  42  121.86    9.83   0
   2  -1  51    8.63    7.47   0
   0  -4  37  -12.61    7.24   0
   0  -2  41    0.81    7.52   0
   1  -5  45   -2.48    8.65   0
   1  -1  47    1.71    6.86   0
   1   1  33    2.65    5.85   0
   4  -3  61   -1.89    7.87   0
  -1  -2  19    2.62    4.79   0
   0  -5  29   -1.33    6.10   0
   0  -1  40  785.51   14.36   0
   2   0  47    8.20    7.44   0
  -1  -2  22  467.62   11.06   0
  -1  -1  18 1246.98   17.68   0
   0  -3  42  319.73   11.23   0
   1  -6  40  191.77   10.48   0
   1   0  43    0.51    6.66   0
   2  -6  50  106.96    8.84   0
   2  -2  55    5.45    7.27   0
   3  -3  60  104.05   10.19   0
  -1  -2  25   11.02    6.32   0
  -1  -1  15    3.75    4.85   0
  -1  -1  21   13.61    5.37   0
   0  -5  32  447.04   12.10   0
   0   0  36  607.32   12.69   0
   1  -4  50  184.61   10.90   0
  -1  -1  24 1911.39   20.32   0
   0  -4  40  445.13   12.38   0
   1  -3  52  279.31   11.42   0
   2  -7  45   -3.94    7.53   0
   2  -5  55    4.73    8.51   0
   2  -4  57   -8.94    8.16   0
   3  -2  59    6.90    8.48   0
  -1  -3  17   -2.40    4.77   0
  -1  -3  20  927.94   14.86   0
  -1  -3  23   11.02    6.46   0
  -1  -2  28 1384.43   17.20   0
   0  -2  44  724.17   13.72   0
   1  -5  48  205.17   10.49   0
  -1  -3  14  722.02   14.16   0
  -1  -1  27   -3.83    5.33   0
   0  -5  35   -3.58    7.23   0
   0  -1  43   -5.33    6.84   0
   1  -6  43   -2.30    8.58   0
   1  -1  50  297.76   10.88   0
   1   1  36  912.68   16.21   0
   2  -1  54  108.61    9.29   0
  -1  -2  31   -4.40    6.74   0
   0  -3  45   -2.30    7.07   0
   1  -7  32  235.57   11.04   0
   2  -6  53  -13.56    7.93   0
  -1  -3  11   20.32    5.87   0
  -1  -1  30  637.97   12.91   0
   0  -4  43    0.06    8.24   0
   0   0  39    4.96    5.47   0
   0   1  26 1165.90   17.93   0
   1  -4  53    7.79    8.51   0
   1   0  46  118.13    8.69   0
   2  -3  59   -8.30    7.84   0
   2  -2  58   88.35    9.20   0
   2   0  50  205.88   10.36   0
   0  -5  38  200.15   10.03   0
   0  -2  47   -3.30    7.56   0
  -1  -2  34  620.93   13.04   0
   0   1  29   -0.95    5.19   0
   1  -7  35    5.85    7.49   0
   1  -5  51   -5.95    8.55   0
   1  -3  55    0.66    7.81   0
   2  -5  58  112.06    8.67   0
   2  -4  60   93.61    9.47   0
  -1  -3  32  895.33   14.52   0
  -1  -1  33    2.84    5.76   0
  -1   0  20 1620.59   20.10   0
   0  -3  48  200.58   10.32   0
   1  -6  46   74.73    8.63   0
   1   1  39    1.20    5.70   0
  -1   0  23   -1.01    4.94   0
   0  -4  46  152.60   10.20   0
   0   0  42  802.69   14.60   0
   1  -1  53   -9.52    8.15   0
   3  -2  62   44.84    8.22   0
  -1  -4  21    6.34    6.38   0
  -1  -4  24  939.67   15.80   0
  -1  -3  35    1.12    6.81   0
  -1  -2  37    3.78    6.19   0
  -1   0  26 1244.61   16.84   0
   0  -6  27   -2.95    7.07   0
   0  -5  41   -8.25    6.86   0
   1  -7  38   48.59    8.28   0
   1  -4  56  141.83   10.29   0
   2  -1  57    5.61    7.87   0
  -1  -4  18  389.79   11.26   0
  -1  -4  27    7.71    6.87   0
  -1  -1  36  938.89   14.51   0
  -1   0  29    2.75    6.10   0
   0  -6  30  117.90    8.90   0
   0  -2  50  198.62   10.38   0
   0   1  32 1715.26   20.43   0
   1   0  49   -0.44    6.99   0
   2  -3  62   33.77    8.85   0
  -1  -4  15   13.46    6.14   0
   1  -6  49   -0.09    8.04   0
   1  -5  54   59.32    9.06   0
   1  -3  58  104.90   10.03   0
   1  -2  57   -4.68    8.65   0
   2  -2  61    3.06    8.15   0
  -1  -4  30  301.30    9.93   0
  -1  -3  38  174.43    9.60   0
   0  -6  33    1.92    7.69   0
   0  -5  44  183.68   10.23   0
   0  -4  49    4.51    8.29   0
   0  -3  51   -6.82    7.64   0
   1  -7  41   -1.93    8.30   0
  -1  -1  39   -1.57    6.21   0
  -1   0  32 1771.98   19.45   0
   0   0  45    0.15    7.12   0
   0   1  35    1.12    5.70   0
   1   1  42  335.10   10.83   0
  -1  -4  12  925.99   16.47   0
  -1  -4  33    4.77    6.28   0
   0  -6  36  192.21   10.11   0
   1  -1  56  221.87   10.59   0
  -1  -3  41    0.44    8.05   0
  -1   0  35   -0.65    6.45   0
   0  -2  53    1.77    8.28   0
   1  -4  59   13.25    8.38   0
  -1  -4  36  322.13   10.19   0
  -1  -2  43   -4.31    6.79   0
  -1  -1  42  329.90   10.71   0
   1  -7  44  107.88    8.53   0
   1  -5  57   -3.56    7.93   0
   1   0  52  310.26   11.24   0
   2  -1  60  140.13    9.65   0
   0  -6  39    0.20    7.44   0
   0  -4  52  147.12    9.44   0
   0  -3  54   82.45    8.66   0
   0  -1  52  305.80   10.57   0
   0   1  38  253.52    9.62   0
   1  -3  61    1.35    8.19   0
   1  -2  60  177.20   10.58   0
  -1  -4   9   -2.31    5.90   0
  -1  -4  39    8.58    7.82   0
  -1  -3  44  307.52   11.24   0
  -1   0  38  257.74    9.12   0
   0   0  48  483.73   11.66   0
   1   1  45   -2.50    6.80   0
   2  -2  64  118.19    9.36   0
  -1  -2  46  136.89    9.26   0
  -1  -1  45   -0.96    6.63   0
   0  -6  42  130.33    9.09   0
   0  -2  56   98.99    9.51   0
   1  -1  59   -4.70    7.68   0
  -1  -5  22  207.94    9.58   0
  -1  -5  25    8.28    6.62   0
   0  -4  55  -18.71    8.66   0
   0  -3  57    5.05    8.69   0
   0   1  41   -1.35    6.10   0
  -1  -5  31   -7.54    7.50   0
  -1  -3  47   -0.39    7.23   0
   0  -1  55    0.51    8.55   0
   1   0  55    4.61    7.60   0
  -1  -2  49    2.80    8.62   0
   0  -6  45    2.06    8.25   0
   0   0  51   -0.65    6.37   0
   1  -2  63    2.76    8.11   0
  -1  -5  34  222.08   10.14   0
  -1  -1  48  370.20   10.79   0
  -2  -2  27    3.15    5.56   0
  -2  -2  30  218.73    9.39   0
  -2  -1  26  541.54   12.07   0
  -1  -5  37   -2.55    7.93   0
  -1  -3  50  180.91   10.71   0
  -1   1  31    2.93    5.72   0
   0   1  44  452.56   11.94   0
  -2  -2  33   -2.37    7.15   0
  -2  -1  23    0.23    5.29   0
  -2  -1  29    2.76    5.65   0
   0  -4  58   61.71    8.93   0
   1  -1  62   53.44    8.76   0
  -2  -1  20 1495.34   18.44   0
  -2  -1  32 1223.34   16.18   0
  -1  -2  52  300.59   11.60   0
  -1   1  34  925.16   14.73   0
   0  -6  48  114.97    8.79   0
   0  -3  60  160.48    9.61   0
   0  -1  58  159.16    9.76   0
  -2  -2  18 1069.60   16.11   0
  -2  -2  36  390.72   10.69   0
  -2  -1  35   -1.99    6.05   0
  -1  -5  40  210.02   10.64   0
  -1  -1  51    2.39    6.96   0
   0   0  54   36.80    8.30   0
   1   0  58  155.06    9.37   0
  -2  -3  25   -0.14    6.52   0
  -2  -3  28  411.15   10.69   0
  -2  -3  31   -6.15    6.70   0
  -1  -3  53   14.34    8.75   0
  -1   1  37   -1.03    6.10   0
   0   1  47    4.41    6.65   0
  -2  -3  22  297.56   10.20   0
  -2  -3  34  444.07   11.75   0
  -2  -2  39   -0.06    6.45   0
  -2  -1  17    6.58    4.94   0
  -2  -1  38  343.87   10.23   0
  -1  -5  43    2.39    7.37   0
  -2  -2  15    6.69    5.64   0
  -2   0  25    4.75    5.88   0
  -2   0  28 1141.49   15.72   0
  -2   0  31    2.28    6.08   0
  -1  -4  51    0.28    8.02   0
  -1  -2  55   -1.27    8.32   0
  -1   1  40  788.93   14.26   0
  -2  -3  19    6.51    5.16   0
  -2  -2  42  406.71   11.92   0
  -2  -1  41   -0.49    6.66   0
  -2   0  34  288.62    9.81   0
  -1  -1  54   92.87    9.71   0
  -1   0  50  274.08   10.81   0
   0  -3  63   -4.54    8.01   0
  -2   0  22 2012.32   20.70   0
  -1  -5  46   63.34    8.31   0
   0  -1  61   -3.78    7.79   0
   0   0  57    2.36    7.27   0
   1  -1  65    1.19    7.39   0
  -2  -1  14 1606.16   19.42   0
  -2   0  37    0.62    5.90   0
  -1  -3  56  139.57    9.48   0
  -2  -6  13    5.81    8.61   0
  -2  -3  22  295.03   10.25   0
  -1  -4  33   10.25    7.06   0
   3  -4  46   82.99    9.79   0
  -2  -5  21   -7.10    7.87   0
  -2  -2  18 1100.20   16.06   0
  -1  -3  32  933.65   14.90   0
  -1  -2  28 1337.18   17.11   0
   0  -6  39    1.67    8.50   0
   0  -4  40  456.14   12.94   0
   1  -2  36  870.09   14.96   0
   2  -2  37   -2.66    6.02   0
  -1  -5  34  212.13   10.93   0
  -1  -1  21   15.55    5.25   0
   1  -4  44  289.51   11.05   0
  -1  -7  27    0.71    7.73   0
  -1  -6  32  259.50   11.17   0
   0  -7  37   -6.05    7.82   0
   0  -5  41   -6.22    7.48   0
   1  -1  29   -0.81    5.33   0
  -2  -5  24  337.24   11.94   0
  -2  -3  25    7.86    7.24   0
   0  -3  39   -3.36    7.64   0
   1  -7  44  105.87    9.34   0
  -2  -6  19    8.49    7.72   0
  -2  -2  21    6.46    5.55   0
  -1  -4  36  313.22   11.23   0
   1  -6  46   55.92    8.61   0
   2  -5  49   -4.17    8.69   0
   3  -6  51    3.50    7.88   0
   3  -5  50  162.08   10.69   0
  -1  -3  35    2.83    7.34   0
  -1  -2  31    4.45    7.00   0
   2  -3  44  340.17   11.61   0
  -1  -7  30   70.99    8.63   0
  -1  -5  37    0.75    8.57   0
  -1  -1  24 1948.89   21.05   0
   0  -6  42  140.53    9.67   0
   1  -3  43    3.31    6.33   0
   2  -6  50  107.35   10.03   0
   2  -1  30  592.82   14.90   0
  -2  -6  22  107.55    8.80   0
  -2  -5  27    4.59    8.05   0
  -2  -1  11   15.88    5.08   0
  -1  -6  35    0.08    7.41   0
   0  -7  40  156.74    9.65   0
   0  -4  43   -3.27    7.18   0
   2  -4  48  303.15   11.93   0
  -2  -4  29    5.63    6.75   0
  -2  -3  28  398.76   10.80   0
  -2  -2  24 1861.42   19.71   0
   0  -5  44  189.48    9.71   0
   1  -5  48  189.67   11.25   0
   1  -4  47    3.89    8.62   0
   1  -2  39    2.49    5.57   0
  -2  -1  14 1655.20   19.60   0
  -1  -4  39   -2.39    8.76   0
  -3  -3   6  468.34   12.00   0
  -2  -6  25   -2.03    7.63   0
  -1  -7  33   -1.88    7.75   0
   1  -1  32 1801.95   22.03   0
   2  -2  40  832.48   16.05   0
  -3  -4   7    3.29    6.35   0
  -3  -4  10  387.00   11.41   0
  -3  -3   3    5.79    6.02   0
  -3  -3   9    1.78    6.27   0
  -1  -6  38   56.41    8.58   0
  -1  -5  40  214.52   11.06   0
  -1  -3  38  164.95    9.04   0
  -1  -2  34  627.08   12.53   0
   0  -6  45   -7.86    8.50   0
   0  -1  31    5.63    6.02   0
  -3  -4  13    4.59    6.89   0
  -3  -3  12  767.02   13.87   0
  -2  -4  32  356.78   10.83   0
  -2  -3  31    0.98    6.59   0
  -2  -2  27    2.56    5.96   0
  -2  -1  17    9.27    5.29   0
  -1  -1  27   -5.28    5.35   0
   2  -5  52  141.84   10.67   0
  -3  -3  15    2.90    6.60   0
  -2  -6  28  161.61   10.23   0
   1  -3  46  137.14    9.49   0
   2  -6  53    5.15    8.53   0
  -3  -4  16  416.97   11.95   0
   0  -5  47   -6.43    8.75   0
   2  -3  47    2.77    7.21   0
  -3  -3  18  430.83   11.69   0
  -2  -1  20 1490.81   17.94   0
  -1  -4  42  190.36   10.65   0
   1  -5  51    0.31    8.74   0
   2  -4  51    0.11    7.95   0
  -3  -4  19    4.63    6.50   0
  -3  -2   8 2233.50   23.29   0
  -3  -2  11    1.52    5.93   0
  -2  -4  35    5.54    8.09   0
  -2  -3  34  446.23   12.28   0
  -2  -2  30  189.86    9.08   0
  -1  -6  41    4.76    8.40   0
  -1  -3  41    2.02    7.94   0
  -1  -2  37   -0.41    7.31   0
   0  -3  45    2.59    7.85   0
   1  -4  50  177.56   10.81   0
   1  -2  42  353.65   10.72   0
  -3  -5  14  143.69    9.30   0
  -3  -3  21    5.54    7.01   0
  -3  -2   5   12.21    5.55   0
  -3  -2  14  386.76   10.83   0
  -2  -7  23    2.15    6.66   0
  -2  -6  31    7.91    7.88   0
  -1  -5  43   -7.42    7.70   0
  -1  -1  30  630.23   12.47   0
   0  -6  48  106.14    9.84   0
   0  -2  41    8.89    7.16   0
   2  -1  33    4.19    5.67   0
  -3  -5  17    8.22    7.26   0
  -3  -4  22  168.41    9.65   0
  -3  -2   2  802.23   15.66   0
  -2  -1  23   -1.22    6.26   0
   0  -1  34  972.65   15.37   0
   1  -1  35    3.49    5.70   0
  -3  -2  17   -0.31    6.38   0
  -2  -5  36  245.13   10.78   0
   2  -2  43   -5.60    6.30   0
  -3  -5  20  234.16   10.11   0
   0  -5  50   71.71    9.26   0
   2  -5  55    5.65    9.17   0
  -3  -4  25    7.52    6.61   0
  -2  -6  34  109.46    9.22   0
  -2  -4  38   97.02    8.32   0
  -2  -3  37    0.18    8.27   0
  -2  -2  33    4.91    6.32   0
  -1  -6  44  122.63    9.82   0
  -1  -4  45    2.07    7.20   0
   1  -3  49    2.96    7.97   0
  -3  -5  23    0.52    7.70   0
  -3  -2  -1   -0.22    5.23   0
  -2  -1  26  559.75   11.71   0
  -1  -5  46   69.81    9.06   0
  -1  -3  44  312.22   11.07   0
  -1  -2  40  465.79   12.16   0
  -1  -1  33    8.35    6.56   0
   1  -5  54   53.70    8.79   0
  -3  -4  28  389.84   11.93   0
  -3  -2  23   10.31    6.77   0
  -2  -5  39    7.88    8.56   0
   0  -3  48  211.39   10.50   0
   1  -4  53    5.18    8.48   0
   1  -2  45   -2.34    7.13   0
   2  -3  50  171.97   10.19   0
   0  -2  44  701.03   13.66   0
   0  -1  37   -2.35    6.28   0
   2  -4  54   34.02    8.92   0
  -3  -5  26  181.01   10.03   0
  -2  -6  37    4.47    7.70   0
  -2  -4  41   -8.91    8.40   0
  -2  -2  36  384.63   11.41   0
  -3  -3  30  209.67    9.86   0
  -3  -2  26  647.68   13.21   0
  -2  -3  40  469.04   11.89   0
  -2  -1  29    9.38    5.75   0
  -1  -4  48  205.75   10.84   0
  -1   0  20 1532.06   19.48   0
   0  -4  52  146.48   10.46   0
   1  -1  38  271.20   10.09   0
  -3  -4  31    9.00    6.81   0
   0   0  24 4689.90   35.40   0
  -3  -5  29    2.29    7.44   0
  -2  -5  42  152.06    9.62   0
  -1  -5  49    2.43    8.35   0
  -1  -3  47    7.45    8.18   0
  -3  -3  33   -3.39    7.86   0
  -3  -2  29    3.28    7.25   0
  -3  -1  10 1102.77   16.21   0
  -1   0  23    0.69    5.59   0
   1  -3  52  276.36   11.53   0
   2  -5  58   87.09    8.62   0
  -3  -1   7   18.98    5.51   0
  -3  -1  19    7.44    6.43   0
  -2  -4  44  224.72   10.82   0
  -2  -3  43    5.91    8.64   0
  -2  -2  39    3.45    6.49   0
  -2  -1  32 1228.14   16.26   0
   0  -3  51  -10.78    7.01   0
   0  -2  47   -2.21    7.45   0
   1  -5  57    7.73    8.24   0
  -3  -5  32  204.13   10.61   0
   0  -1  40  774.59   14.49   0
   1  -4  56  137.00    9.76   0
   1  -2  48  367.90   11.80   0
  -3  -6  27   -0.85    7.55   0
  -3  -2  32  723.53   13.79   0
  -3  -1  22  360.23    9.83   0
  -1  -4  51   11.25    8.31   0
   0   0  27    1.48    5.37   0
  -3  -3  36  299.73   11.03   0
  -3  -1   4 1313.63   18.90   0
  -2  -5  45    3.23    8.42   0
  -2   0  13   -0.79    5.43   0
  -1   0  26 1206.25   16.70   0
   0  -4  55    3.71    7.94   0
  -3  -5  35    8.05    7.67   0
  -3  -4  37    4.03    7.62   0
  -3  -1  25    1.25    6.65   0
  -2  -1  35    1.44    5.92   0
  -2   0  16 3069.32   26.26   0
   1  -1  41   -2.41    6.10   0
  -2  -4  47   -9.20    8.31   0
  -2  -3  46   66.63    9.44   0
  -2   0  19   -0.97    4.91   0
  -4  -3  11    0.32    6.26   0
  -4  -3  14  361.76   10.97   0
  -4  -3  17    6.69    6.49   0
  -3  -2  35    1.38    6.70   0
  -2   0  22 2052.90   21.18   0
   1  -3  55    9.86    9.21   0
  -4  -4  18  196.35   10.21   0
  -4  -3  20  458.42   12.05   0
  -3  -3  39    6.83    8.38   0
  -3  -1  28  737.08   12.97   0
   0  -3  54   85.93    8.78   0
   0  -2  50  199.60   10.26   0
   0  -1  43   -1.94    6.79   0
   0   0  30  164.33    8.30   0
  -4  -4  21   -2.35    7.30   0
  -4  -3  23   -1.96    7.20   0
  -3  -5  38   39.91    8.00   0
  -3  -4  40  147.16    9.31   0
  -2  -1  38  331.07    9.96   0
  -1  -1  42  354.38   11.03   0
  -4  -2  13    3.09    6.14   0
  -4  -2  16  771.49   14.23   0
  -4  -2  19    3.69    6.74   0
  -3  -2  38  102.41    8.91   0
  -3  -1  31    4.77    7.29   0
  -2  -2  45    6.71    7.62   0
  -2   0  25   -2.01    5.21   0
  -1  -2  49   -2.79    7.78   0
   1  -4  59   -6.24    7.75   0
   1  -2  51   -2.59    7.40   0
  -4  -4  24  334.17   11.44   0
  -4  -3  26  163.36    9.68   0
  -4  -2  10  349.93   10.55   0
  -4  -2  22  358.83   10.93   0
  -2  -4  50  110.35    9.33   0
   0  -4  58   73.65    8.80   0
  -4  -4  27    0.38    8.08   0
  -3  -3  42  162.46   10.24   0
  -2  -3  49    1.08    8.02   0
  -2   0  28 1164.80   16.25   0
   1  -1  44  457.23   12.71   0
  -4  -3  29   11.41    7.88   0
  -4  -2   7   -0.74    6.18   0
  -4  -2  25   -8.71    7.15   0
  -3  -4  43   -0.73    7.58   0
  -2  -1  41    4.09    7.39   0
   0   0  33   -4.62    5.81   0
  -3  -2  41    1.27    8.08   0
  -3  -1  34  524.31   11.64   0
  -4  -4  30   84.66    9.21   0
  -4  -3  32  285.09   11.10   0
  -2  -2  48  312.95   11.33   0
  -2   0  31   -5.44    6.35   0
  -1  -1  45    3.22    6.16   0
   0  -3  57   -2.18    8.58   0
   0  -2  53    4.44    7.51   0
   0  -1  46  115.09    7.89   0
   1  -3  58  113.35   10.17   0
  -3  -3  45  -12.63    8.30   0
  -1  -2  52  271.63   11.46   0
  -1   0  35   -0.73    6.06   0
  -4  -4  33   -5.68    7.23   0
  -3  -4  46   54.98    8.70   0
  -3  -1  37   -1.92    6.48   0
  -3   0  15    4.13    5.58   0
  -3   0  18  553.88   12.00   0
  -2  -4  53   -7.96    7.11   0
  -2  -3  52  150.82    9.60   0
  -1  -3  56  138.47    9.55   0
   1   0  31    1.12    4.80   0
  -4  -1  15   -0.97    6.03   0
  -4  -1  18  747.33   13.04   0
  -3   0  21   -0.59    5.15   0
   0   0  36  625.14   13.28   0
  -4  -2  34  163.19    9.80   0
  -4  -1  12 1173.90   16.71   0
  -3   0  12 2037.35   21.21   0
  -3   0  24 1649.79   18.26   0
  -2   0  34  290.01    9.29   0
  -4  -4  36  118.07    8.95   0
  -3   0  27   -1.45    6.43   0
  -1  -1  48  338.89   11.05   0
   1  -1  47    1.28    6.63   0
  -4  -1   9   14.50    5.89   0
  -4  -1  27    0.94    6.14   0
  -3  -3  48  154.87    9.51   0
  -3  -1  40  495.50   11.64   0
  -2  -2  51    1.54    6.91   0
  -1   0  38  242.53    8.79   0
   0  -1  49    1.12    6.94   0
  -4  -2  37   -3.67    7.76   0
  -4  -1  30  195.64    9.31   0
  -2  -3  55    7.17    8.45   0
  -2   0  37   -0.68    6.74   0
  -1  -2  55   -6.15    8.26   0
   0  -3  60  143.58    9.68   0
   0  -2  56  123.53    9.34   0
  -4  -4  39   -5.45    7.35   0
  -3  -2  47   -9.06    8.55   0
  -4  -3  41   -1.04    7.84   0
  -3  -1  43    9.08    7.88   0
  -1  -3  59   -6.02    8.46   0
   0   0  39   -0.43    5.83   0
  -4  -2  40  274.21   11.02   0
  -4  -1   6  374.69   10.85   0
  -4  -1  33   -7.81    6.33   0
  -3  -3  51    4.67    8.24   0
  -3   0  33    6.63    5.84   0
  -1   0  41   -1.05    6.40   0
  -1  -1  51    5.52    7.62   0
  -4  -1  36  489.91   12.30   0
  -4  -3  44  129.13    8.95   0
  -3  -1  46   99.76    9.40   0
  -3   0  36  541.21   11.62   0
   0  -1  52  307.30   11.17   0
  -5  -3  22  111.92    9.48   0
  -4  -2  43    3.77    8.27   0
  -1  -2  58  112.70    8.97   0
   0  -2  59    7.40    8.78   0
   0   0  42  814.67   14.89   0
   1   0  37   -0.17    5.10   0
  -5  -3  19   -1.37    6.90   0
  -5  -3  25    5.57    6.80   0
  -5  -2  21   -1.84    7.11   0
  -5  -2  24  440.75   12.02   0
  -4  -1   3   -0.47    5.48   0
  -4  -1  39    3.97    8.17   0
  -4   0  20 1300.58   16.75   0
  -4   0  23   -6.37    6.58   0
  -3  -3  54   42.81    8.29   0
  -1   0  44  470.69   11.84   0
  -5  -3  28  165.82    9.25   0
  -5  -2  18  166.13    8.97   0
  -5  -2  27   -4.56    7.69   0
  -4   0  26  716.95   12.79   0
  -3   0  39   -2.02    6.27   0
  -5  -3  31   -5.87    7.82   0
  -5  -2  30  192.07    9.88   0
  -4  -3  47   12.23    8.37   0
  -4  -2  46  110.79    9.59   0
  -4   0  14  322.12    9.85   0
  -4   0  29   -4.17    6.03   0
  -3  -2  53   -5.25    7.97   0
  -2  -2  57    4.49    8.49   0
  -1  -1  54  116.74    9.24   0
  -4  -1  42  212.83   10.19   0
  -3  -1  49    6.67    7.10   0
  -2  -1  53   -3.70    7.74   0
  -5  -3  34  128.38    8.96   0
  -5  -2  33    2.56    7.54   0
  -3   0  42  266.60    9.87   0
  -5  -1  20  516.17   12.00   0
  -5  -1  23    0.67    6.94   0
  -5  -1  26  229.07    9.86   0
  -4   0  11   -0.44    4.64   0
  -2   0  46  271.24    9.53   0
  -2   1  21   17.94    5.22   0
  -2   1  24 1901.23   20.03   0
  -1   0  47   -1.30    6.85   0
   0  -1  55   -6.50    7.42   0
   0   0  45   -0.32    6.06   0
  -5  -3  37    4.59    7.85   0
  -5  -1  17    0.42    6.41   0
  -5  -1  29   -3.04    7.10   0
  -4  -2  49    6.58    8.09   0
  -4  -1  45    4.67    8.44   0
  -4   0  35    6.69    6.36   0
  -2   1  18 1234.95   16.88   0
  -2   1  27   -0.20    4.96   0
  -1  -2  61   -3.21    8.08   0
  -3  -2  56  102.64    9.01   0
  -3  -1  52  211.78   10.60   0
  -2   1  30  632.99   12.56   0
  -5  -1  14  416.20   11.08   0
  -4  -1   0 1278.61   19.69   0
  -4   0  38  142.05    9.01   0
  -3   0  45    4.28    6.46   0
  -2  -2  60  104.27    9.38   0
  -2   1  15    1.30    4.65   0
  -1  -1  57    4.85    7.30   0
  -5  -3  40  126.66    8.65   0
  -4   0   8 1569.38   19.06   0
  -3   1  20 1498.32   17.92   0
  -3   1  23    7.06    5.21   0
  -3   1  26  556.27   11.34   0
  -2  -1  56  169.88    9.62   0
  -2   0  49    6.31    7.50   0
  -1   1  31   -0.27    5.43   0
  -5  -1  11    0.45    6.10   0
  -4  -1  48  154.29    9.75   0
  -3   1  29    6.45    5.53   0
  -1   0  50  296.82   10.86   0
  -5  -1  38  138.57    9.48   0
  -4  -2  52   99.69    8.66   0
  -3   1  17    5.75    4.97   0
  -3   1  32 1260.62   16.45   0
   0   0  48  453.07   12.16   0
  -3   0  48  318.54   10.33   0
  -1   1  34  959.46   15.30   0
  -5   0  22  246.62    9.50   0
  -3   1  14 1655.86   19.14   0
  -3   1  35    3.86    6.79   0
  -5  -2  45   -1.29    7.60   0
  -5  -1   8  826.89   15.08   0
  -5  -1  41   -1.85    8.17   0
  -5   0  19    1.12    6.37   0
  -5   0  31   -1.26    7.39   0
  -4  -1  51  -12.54    7.92   0
  -4   0  44  415.45   10.98   0
  -2  -1  59   -5.27    8.01   0
  -2   0  52  189.50    9.81   0
  -2   1  39    0.25    6.48   0
  -4   0   5   -1.13    4.80   0
  -1  -1  60  145.89   10.08   0
  -1   1  37   -2.75    5.93   0
  -5   0  16  734.86   13.50   0
  -5   0  34  290.44    9.60   0
  -4   1  22  378.55   10.27   0
  -4   1  25    1.03    5.51   0
  -4   1  28  726.96   12.67   0
  -1   0  53   -4.80    7.01   0
  -5  -1  44  178.56    9.35   0
  -4   0  47   -1.14    7.97   0
  -4   1  19    9.44    6.20   0
  -4   1  31   -3.12    6.07   0
  -3   1  11   17.85    5.59   0
  -5   0  37   -4.30    6.62   0
  -4  -1  54   57.81    8.67   0
  -4   1  34  552.29   12.03   0
  -3   1  41   -6.10    6.68   0
  -2   1  42  313.22    9.58   0
  -1   1  40  780.59   14.35   0
   0   1  29    0.54    4.73   0
  -5   0  13    2.23    4.90   0
  -4   1  16 2106.32   20.57   0
  -2   0  55    6.01    7.86   0
  -6  -2  26  183.49    9.51   0
  -6  -2  29   -0.99    7.40   0
  -5  -1  47   -5.52    7.29   0
  -5   0  40  210.12    9.08   0
  -4   1  37    4.19    6.25   0
  -3   0  54   94.17    9.33   0
  -2  -1  62   54.59    8.56   0
   0   1  32 1738.68   21.55   0
  -6  -2  32  170.19    9.08   0
  -4   0  50  169.60    9.61   0
  -2   1  45   -2.44    6.99   0
  -6  -2  35    0.18    7.52   0
  -6  -1  25   -2.57    6.98   0
  -6  -1  28  150.91    9.04   0
  -5   0  10  695.53   13.28   0
  -5   0  43  -15.73    7.92   0
  -4   1  40  472.02   12.05   0
  -1   0  56  211.64    9.82   0
  -1   1  43    0.48    6.22   0
   0   1  35    0.94    5.65   0
  -6  -1  22  148.10    8.97   0
  -6  -1  31   -4.69    7.11   0
  -5  -1  50   80.01    8.69   0
  -4  -1  57   -6.00    7.59   0
  -3  -1  61   11.78    8.04   0
  -3   1   8 3274.40   27.63   0
  -6  -1  19    2.13    6.74   0
  -6  -1  34  167.39    9.10   0
  -6  -1  37   -2.50    7.36   0
  -5   0  46   87.48    9.18   0
  -5   1  24  688.72   12.79   0
  -5   1  27    9.31    5.97   0
  -5   1  30  194.75    9.20   0
  -4   0  53   -5.38    7.34   0
  -4   1  43    6.99    6.56   0
  -3   0  57   -0.79    7.62   0
  -2   0  58   86.00    8.91   0
  -2   1  48  350.14   10.76   0
   0   1  38  261.31    9.91   0
  -6  -1  16  608.31   13.08   0
  -5   1  33    1.05    6.38   0
  -1   1  46  114.77    8.05   0
  -6  -1  40  208.40    9.92   0
  -6   0  27    0.82    7.59   0
  -6   0  30  155.24    9.09   0
  -5   1  36  507.67   12.21   0
  -4   1  46   99.68    8.73   0
  -6   0  24  606.24   12.99   0
  -6   0  33    3.54    7.54   0
  -5   0   7   -0.53    5.46   0
  -5   0  49    8.12    7.80   0
  -3   1  50  171.26    9.53   0
  -6  -1  43   -3.50    7.35   0
  -6   0  21   -3.44    6.84   0
  -5   1  39    3.03    6.66   0
  -4   0  56   71.01    8.60   0
  -2   1  51    8.88    7.37   0
   0   1  41   -1.12    5.19   0
  -3   0  60  120.38    9.58   0
  -2   0  61   -5.42    8.81   0
  -1   1  49    4.11    7.27   0
  -6   0  18  270.12    9.85   0
  -5   0  52  164.77    9.68   0
  -5   1  15    1.93    5.02   0
  -5   1  42  217.91    9.21   0
  -4   1  49   -2.01    6.51   0
  -3   1  53   -2.35    8.09   0
  -3   2  31   -0.83    6.36   0
  -6   0  15    0.79    6.36   0
  -6   0  42  132.49    8.70   0
  -4   1   7   17.56    5.36   0
  -3   2  25    7.14    5.40   0
  -3   2  34  613.51   12.53   0
  -5   1  12 1165.56   16.02   0
  -4   0  -1    0.06    4.90   0
  -4   2  27  -12.58    6.64   0
  -4   2  30  202.81    8.31   0
  -4   2  33   -5.74    6.95   0
  -3   2  22  499.56   11.31   0
  -2   1  54  105.43    8.72   0
  -6   0  45   -5.39    7.82   0
  -5   0   4 1146.50   17.19   0
  -5   0  55    8.22    7.46   0
  -4   2  24 1908.76   19.09   0
  -4   2  36  398.36   11.17   0
  -2   2  32  650.34   12.68   0
  -1   1  52  326.00   11.39   0
  -6   1  26  229.56    9.67   0
  -6   1  35   -3.09    7.99   0
  -5   1  48  137.61    9.25   0
  -3   0  63   -0.20    7.21   0
  -2   2  35    2.12    5.48   0
  -6   0  48  149.12    9.88   0
  -6   1  23   -3.33    7.12   0
  -4   2  21   -0.27    5.30   0
  -4   2  39   -5.79    6.24   0
  -3   1  56  182.81   10.07   0
  -3   2  19   -0.55    4.93   0
  -2   0  64  108.61    9.12   0
  -2   2  23   -2.95    5.48   0
  -6   1  38  137.54    8.29   0
  -3   2  43    4.30    6.89   0
  -2   2  38  253.18    8.77   0
  -6   1  20  504.28   11.30   0
  -6   1  41   19.35    7.63   0
  -5   1   9   12.00    5.85   0
  -5   1  51   -4.90    7.47   0
  -5   2  29    6.70    7.00   0
  -4   2  18 1069.68   14.82   0
  -4   2  42  414.72   10.78   0
  -2   1  57   -5.13    7.11   0
  -7  -1  30   38.55    8.25   0
  -5   2  26  653.94   12.16   0
  -5   2  35   15.11    6.40   0
  -2   2  20 3610.96   27.59   0
  -2   2  41   -0.58    6.43   0
  -7  -1  33    3.55    7.15   0
  -6   1  17   -1.31    6.29   0
  -6   1  44  166.61    9.46   0
  -5   2  23    5.11    5.86   0
  -5   2  38   90.08    7.80   0
  -4   1   4 1298.44   17.93   0
  -3   1  59   -3.98    8.18   0
  -3   2  46  149.58    8.81   0
  -6   0   9   -0.73    5.69   0
  -5   1  54   54.48    8.08   0
  -5   2  41    1.23    7.30   0
  -4   1  58  112.79    8.91   0
  -2   2  44  750.71   14.12   0
  -7   0  29   -0.10    6.92   0
  -7   0  35   -5.19    7.86   0
  -6   1  47    2.76    7.55   0
  -5   2  20  589.65   11.60   0
  -4   2  15   -0.72    4.97   0
  -7   0  26  225.65    9.95   0
  -7   0  38   39.67    7.52   0
  -6   1  14  431.94   11.14   0
  -3   2  49    2.69    7.29   0
  -2   2  17   -1.38    4.42   0
  -7   0  23    1.06    7.20   0
  -5   2  17    4.52    6.21   0
  -3   2  13   26.65    5.09   0
  -2   1  60  146.17    9.56   0
  -2   2  47   -1.39    6.83   0
  -1   2  30  619.37   12.68   0
  -1   2  33   -4.73    5.38   0
  -6   1  50   85.81    8.54   0
  -5   1   6  370.04   10.41   0
  -5   1  57    4.92    7.45   0
  -5   2  47    5.26    7.73   0
  -1   2  27    0.92    4.98   0
  -1   2  36  903.88   15.21   0
  -6   2  28  443.58   11.63   0
  -6   2  31    5.41    6.34   0
  -6   2  34  186.64    8.90   0
  -6   2  37   -5.53    7.60   0
  -4   1  61   -8.80    7.31   0
  -4   2  12  784.40   13.44   0
  -4   2  51   -1.74    6.54   0
  -3   1  62   36.14    8.69   0
  -1   2  39   -6.42    6.49   0
  -7   1  31    2.36    7.37   0
  -7   1  34  171.77    9.70   0
  -6   2  40  259.90   10.88   0
  -3   2  52  265.93   10.71   0
  -1   2  24 1745.31   20.65   0
  -7   1  28  154.50    9.51   0
  -7   1  37   -0.42    7.47   0
  -6   1  11   10.98    5.96   0
  -5   2  50  187.10    9.75   0
  -2   2  50  207.94    9.46   0
  -7   1  25   -4.74    7.46   0
  -6   2  43   -0.78    8.11   0
  -4   2  54   38.51    8.15   0
  -2   2  14  329.24    9.64   0
  -1   2  42  333.20   10.35   0
  -7   1  22  152.65    9.14   0
  -6   2  19   -1.26    5.74   0
  -6   2  46  113.14    9.42   0
  -4   1   1   20.86    5.37   0
  -3   2  10 2067.63   21.22   0
  -3   2  55   -1.88    7.73   0
  -1   2  21   15.90    4.42   0
  -4   2   9   -1.12    5.41   0
  -2   2  53   -0.99    7.30   0
  -1   2  45   -2.04    6.00   0
   4   0  16 1628.32   18.99   0
   5   4  13    2.96    7.77   0
   6  -4  -8  859.13   15.77   0
   6   3  12  146.00   10.33   0
   7  -3   1    1.26    6.05   0
   9  -3  -9   -3.06    7.97   0
   7   1  12  185.27   10.43   0
   8  -1   6  203.23    9.24   0
   3   0  15   -2.79    5.10   0
   3   2  19    6.67    6.39   0
   5  -3   2  824.79   14.10   0
   6  -3   3    4.78    5.48   0
   6  -1  13   -1.36    7.61   0
   6   0  15    8.97    6.75   0
   7  -4  -7   -0.25    6.37   0
   8  -3  -1   -8.17    7.89   0
   5   2  18  380.42   11.01   0
   5   3  17   -0.30    8.33   0
   7  -1  11    8.07    6.98   0
   7   2  11   -2.41    7.58   0
   8  -4  -9   -7.72    7.58   0
   8   0   8  265.21   11.13   0
   8   1   7    1.99    7.25   0
   9  -3  -6   77.95    8.91   0
   9  -2  -1   -4.80    8.44   0
   9  -1   1    0.44    7.88   0
   4   3  19    2.52    7.68   0
   5  -2  10  744.35   13.66   0
   5   0  17   -3.14    6.40   0
   6   2  16  367.06   12.01   0
   7   0  13    1.31    7.11   0
   4   2  20  633.95   13.63   0
   6   1  17    7.90    7.98   0
   7  -2   9    7.10    7.73   0
   4  -1  14  691.93   12.85   0
   5  -1  15   12.31    6.26   0
   6  -4  -5   -1.43    5.81   0
   6  -2  11   -3.72    7.15   0
   7  -3   4  688.98   13.18   0
   8  -1   9   -3.56    8.18   0
   4  -2   9    2.21    4.96   0
   4   4  18  193.97   10.28   0
   6   3  15    6.12    8.01   0
   7  -4  -4  677.88   13.87   0
   8  -3   2  237.12   10.55   0
   8  -2   7    6.11    8.59   0
   9  -3  -3   -0.13    7.69   0
   5   4  16  351.80   12.33   0
   7   1  15    9.95    8.16   0
   8  -4  -6  210.51    9.84   0
   8   0  11   -0.43    8.48   0
   8   1  10   90.31    8.90   0
   9  -1   4  171.59    9.95   0
   3   3  21    9.67    6.80   0
   4  -3   1   22.41    5.48   0
   6  -3   6  493.37   11.87   0
   6   0  18  382.13   11.58   0
   7  -1  14  142.67    9.20   0
   7   2  14  129.39    9.48   0
   5  -3   5    8.31    6.12   0
   6  -1  16  635.95   12.75   0
   7   0  16  506.16   13.25   0
   2   0  14  345.37   10.10   0
   3  -1  13   24.60    6.17   0
   4   0  19    2.90    5.86   0
   5   2  21    7.17    7.59   0
   5   0  20  710.88   13.86   0
   5   3  20  227.32   10.72   0
   6   2  19  -11.46    8.68   0
   7  -3   7   -2.01    7.16   0
   8  -4  -3   -2.06    7.04   0
   8  -3   5    0.08    7.83   0
   8  -1  12  187.82   10.25   0
   3   2  22  301.65   10.41   0
   5  -2  13   -4.60    5.80   0
   7  -4  -1   10.05    6.52   0
   8  -2  10  186.28   10.13   0
   9  -1   7    1.40    8.37   0
   1   2  17    6.93    4.99   0
   3   0  18 1320.54   17.13   0
   4   3  22  172.61   10.00   0
   5  -1  18  396.66   11.25   0
   6  -2  14  286.16    9.69   0
   6   3  18   98.50    9.85   0
   8   0  14  117.76    9.66   0
   8   1  13   -1.30    7.93   0
   4   2  23    9.85    7.46   0
   4  -1  17    2.04    5.60   0
   7  -1  17    0.70    7.03   0
   7   2  17    8.28    8.54   0
   9  -4  -5    4.42    7.03   0
   9  -3   3    7.80    7.72   0
   1   3  19   10.18    5.38   0
   2   2  21    4.31    5.78   0
   4  -2  12  828.97   13.81   0
   6  -1  19    6.48    7.47   0
   6   0  21    2.52    8.27   0
   7   0  19  -12.91    8.38   0
   8  -4   0  511.11   12.57   0
   5  -3   8 2272.69   22.45   0
   7  -4   2  250.93    9.93   0
   7  -2  15    4.03    7.61   0
   8  -1  15   13.86    8.24   0
   9  -2   8  220.74   10.04   0
   9  -1  10  100.81    9.57   0
   3  -2   8 3242.66   27.99   0
   4  -3   4 1301.57   18.01   0
   6  -4   1   -1.34    5.96   0
   6   2  22  110.90    9.79   0
   8  -2  13    5.12    7.39   0
   4   0  22  710.95   13.78   0
   5  -4  -3   14.77    5.89   0
   5   2  24  329.69   12.05   0
   8   0  17   10.41    8.56   0
   9  -4  -2  182.77    9.96   0
   5  -2  16 1870.29   20.07   0
   5   0  23   -6.02    6.44   0
   5   3  23    1.06    8.32   0
   6  -2  17    5.12    7.53   0
   9  -3   6  190.75   10.24   0
   2   3  23    2.55    6.78   0
   3   1  23    9.95    6.35   0
   6   3  21   -1.19    7.87   0
   7   2  20  140.65   10.15   0
   8  -4   3    3.63    7.51   0
   3  -1  16 2137.05   21.49   0
   4   3  25    5.51    7.77   0
   5  -1  21    3.40    6.20   0
   5   1  25   -3.32    7.95   0
   7  -1  20  253.08   10.00   0
   9  -2  11   -7.07    7.56   0
   9  -1  13   -1.23    8.05   0
   3   2  25    4.52    6.64   0
   7  -4   5    3.77    6.98   0
   7   0  22   94.28    9.46   0
   9  -4   1    0.38    7.30   0
   2   0  17   -3.00    4.78   0
   3   0  21   -2.77    5.25   0
   4  -1  20  977.94   15.23   0
   4   2  26  369.81   11.06   0
   6  -1  22  239.39    9.74   0
   6   0  24  502.98   12.24   0
   7  -2  18  401.24   11.13   0
   8  -2  16  380.25   11.03   0
   4  -2  15   -3.25    6.08   0
   6  -4   4  912.81   15.08   0
   5  -4   0 1470.08   19.96   0
   6   2  25    4.83    8.39   0
   8  -4   6  215.89   10.12   0
   8   0  20  145.44    9.15   0
   4  -3   7   11.23    5.57   0
   9  -4   4  141.77    9.48   0
   9  -2  14  143.90    9.67   0
   5   0  26  217.89   10.42   0
   5   2  27    2.77    7.11   0
   5   3  26  178.30   10.68   0
   6  -2  20  684.66   13.16   0
   7   1  24  257.84   11.54   0
   1   2  20 1428.82   20.21   0
   3  -2  11   19.15    4.97   0
   4   0  25    1.93    5.96   0
   4   1  27   11.49    7.30   0
   5  -2  19   -0.38    6.06   0
   6   3  24  214.73   10.27   0
   7  -1  23   13.52    7.28   0
   8  -1  21    4.09    8.35   0
   5  -1  24  961.96   15.41   0
   5   1  28  423.09   12.58   0
   7   0  25    1.02    8.27   0
   8  -2  19    9.15    7.66   0
   9  -3  12  147.08    9.79   0
   3   3  27   -0.50    6.83   0
   6  -4   7    5.05    6.37   0
   6  -1  25    5.67    8.15   0
   6   0  27  -15.75    8.73   0
   7  -2  21    4.19    7.04   0
   8  -4   9   -3.40    7.49   0
   1   3  22  355.61   11.23   0
   3  -1  19    0.49    5.99   0
   4   3  28  394.25   12.57   0
   8   0  23   12.07    8.21   0
   9  -4   7    4.50    7.87   0
   9  -2  17   -0.99    8.53   0
   4  -1  23    1.84    6.47   0
   4   2  29    0.39    7.51   0
   5  -4   3    1.50    5.41   0
   2   3  26  630.36   14.23   0
   3   0  24 1105.82   16.00   0
   3   2  28  399.43   11.45   0
   4  -2  18 1086.96   15.75   0
   6   2  28  166.94   10.34   0
   4  -3  10 1099.04   16.39   0
   6  -2  23    3.34    7.67   0
   6   1  29   -3.75    8.35   0
   7  -4  11    5.10    6.18   0
   7  -1  26  265.97   11.62   0
   7   1  27    0.27    8.27   0
   2   0  20 3690.03   28.93   0
   5  -2  22  315.37   10.57   0
   5   2  30   87.90    9.35   0
   6  -3  18  440.30   11.67   0
   7  -3  19   -4.25    7.37   0
   8  -4  12  265.56   10.69   0
   8  -2  22  108.65    9.93   0
   8  -1  24  266.79   10.71   0
   9  -4  10  140.45    9.96   0
   5   0  29   -0.03    6.82   0
   5   3  29    6.69    9.12   0
   6  -4  10  368.10   10.92   0
   6   3  27    0.51    7.37   0
   7  -2  24  337.65   11.75   0
   7   0  28  143.20    9.75   0
   4   0  28  629.46   13.28   0
   4   1  30  298.54   10.82   0
   5  -1  27    6.38    7.62   0
   3  -2  14 1685.37   19.44   0
   5  -4   6  387.52   10.90   0
   5   1  31   -2.79    8.09   0
   6  -1  28  446.32   12.56   0
   6   0  30  120.71    9.23   0
   8   0  26   81.16    8.50   0
   2  -1  15    2.30    5.70   0
   5  -3  17    4.83    6.44   0
   8  -3  20  215.90    9.70   0
   2   1  25    6.93    6.02   0
   2   2  27   -4.78    5.86   0
   7  -4  14  386.62   10.64   0
   8  -5   4  264.47   10.34   0
   9  -4  13    6.83    7.88   0
   3  -1  22  487.62   11.36   0
   3   1  29   -0.40    6.55   0
   3   3  30  184.29    9.59   0
   4  -1  26  700.68   13.58   0
   4   3  31    9.20    7.87   0
   6  -2  26  390.76   11.69   0
   6   2  31    3.24    8.56   0
   7  -1  29    2.63    8.81   0
   7   1  30   69.90    8.88   0
   8  -4  15   -2.56    8.07   0
   8  -2  25   -3.58    8.28   0
   8  -1  27    9.99    8.55   0
   4  -2  21   -0.21    5.53   0
   4   2  32  348.10   11.86   0
   6  -4  13   -1.32    6.65   0
   6  -3  21    8.22    6.28   0
   6   1  32  251.04   11.15   0
   7  -5   3   -4.60    6.31   0
   7  -3  22  176.01    9.11   0
   1   2  23   -0.19    5.35   0
   3   0  27    3.32    6.06   0
   5  -2  25   -8.98    6.74   0
   7  -2  27   -4.41    8.85   0
   9  -5   5    4.20    7.36   0
   9  -2  23    0.79    8.55   0
   3   2  31    4.77    6.70   0
   5   2  33   -2.21    7.84   0
   8  -5   7   -2.54    6.98   0
   5  -4   9   15.53    6.27   0
   5  -1  30  316.06   11.00   0
   6  -1  31    1.55    8.29   0
   7  -4  17    9.73    7.34   0
   8  -3  23    5.67    7.97   0
   9  -4  16  315.21   11.37   0
   1   3  25    2.66    5.21   0
   2   3  29   -1.97    6.00   0
   7  -5   6  458.26   12.03   0
   2   0  23   -2.10    4.87   0
   3  -2  17    7.12    5.11   0
   4   1  33    1.27    6.27   0
   5  -3  20  615.42   12.33   0
   5   1  34  215.68    9.94   0
   8  -2  28  158.13   10.41   0
   9  -5   8  375.08   11.41   0
   1   1  21   15.80    5.54   0
   6  -4  16  780.01   14.34   0
   6  -2  29    0.94    8.06   0
   7  -3  25   10.00    8.21   0
   8  -1  30   75.00    8.30   0
   6  -3  24  622.37   12.74   0
   7  -1  32  249.88   10.54   0
   7   1  33   -3.44    7.82   0
   8  -5  10  208.95    9.75   0
   2  -1  18 1217.82   16.91   0
   4  -2  24 1843.09   19.32   0
   4  -1  29    1.18    5.96   0
   6  -5   2  331.19   10.94   0
   6   1  35    6.71    8.13   0
   6   2  34  122.42    9.95   0
   7  -2  30   97.85    8.38   0
   9  -4  19   -6.43    8.08   0
   9  -3  24  218.81   10.54   0
   2   1  28 1303.56   17.99   0
   2   2  30  200.39    9.08   0
   3  -1  25    7.23    5.53   0
   3   1  32  840.03   14.90   0
   4   2  35    5.08    7.60   0
   5  -4  12 1194.83   16.91   0
   5  -2  28  427.10   11.01   0
   7  -5   9   -3.03    6.50   0
   7  -4  20  461.72   12.17   0
   8  -3  26  194.93   10.03   0
   9  -5  11    4.03    7.26   0
   8  -4  21    0.91    8.31   0
   4  -4   2 1359.22   20.07   0
   5  -3  23   10.54    6.93   0
   5  -1  33    2.74    7.48   0
   5   2  36  263.54   11.12   0
   6  -1  34  228.63   11.21   0
   3   2  34  440.39   12.18   0
   6  -5   5   -1.52    5.76   0
   6  -4  19    2.80    6.97   0
   7  -3  28  400.43   12.14   0
   8  -5  13   -7.61    7.56   0
   8  -2  31   -1.73    8.04   0
   8  -1  33   -4.45    8.77   0
   3  -2  20 1537.35   18.29   0
   5   1  37    0.23    7.96   0
   6  -3  27   -7.65    7.33   0
   9  -5  14   81.31    9.62   0
   1   2  26  523.63   12.61   0
   4   1  36  311.92   10.40   0
   6  -2  32  363.00   11.07   0
   7  -5  12  424.72   11.76   0
   7  -2  33    0.31    8.93   0
   7  -1  35    6.12    7.97   0
   9  -4  22   81.70    8.59   0
   9  -3  27   -3.74    7.99   0
   2   0  26 1247.15   16.74   0
   3  -3   9    1.67    4.96   0
   4  -3  19   13.34    6.20   0
   5  -4  15    4.45    6.11   0
   8  -4  24  353.30   11.88   0
   8  -3  29    2.36    7.72   0
   4  -4   5   -2.34    4.92   0
   4  -2  27   -3.56    5.71   0
   4  -1  32  873.30   14.25   0
   5  -2  31    7.06    7.58   0
   6   1  38   63.96    8.73   0
   6   2  37    5.74    7.53   0
   7   0  37   -0.84    8.05   0
   8  -5  16  431.13   12.53   0
   3  -1  28 1401.13   17.64   0
   6  -5   8  844.60   15.27   0
   1   1  24 1756.33   21.09   0
   2  -1  21   15.74    5.27   0
   3   1  35   -3.12    6.98   0
   5  -3  26  652.00   13.00   0
   5   0  38  204.53   10.62   0
   6  -1  37   -8.33    8.40   0
   8  -2  34  115.45    9.66   0
   9  -5  17   -4.15    7.48   0
   2   1  31    0.72    5.98   0
   4   2  38   91.10    8.93   0
   5  -1  36  316.38   11.19   0
   6   0  39   10.03    8.68   0
   7  -5  15    8.10    6.18   0
   7  -3  31    1.48    7.02   0
   9  -4  25    1.42    7.76   0
   1   0  19    1.48    4.47   0
   2   2  33    1.76    6.27   0
   5   2  39   -5.12    7.62   0
   6  -3  30  191.16    9.11   0
   3  -2  23    0.04    5.94   0
   4  -4   8 1549.60   19.81   0
   5  -4  18  762.25   13.86   0
   6  -5  11    6.43    6.19   0
   6  -2  35    8.26    7.20   0
   7  -2  36  269.20   11.18   0
   7  -1  38   35.62    9.23   0
   8  -5  19    1.58    7.37   0
   8  -3  32  217.54   10.83   0
   3   2  37   -0.09    6.87   0
   4  -3  22  374.70    9.94   0
   4   1  39    0.12    7.62   0
   5   1  40  213.12   10.25   0
   2  -2  13   -0.97    5.31   0
   4  -2  30  200.35    9.28   0
   5  -2  34  448.10   11.93   0
   7  -5  18  176.48    9.51   0
   9  -5  20  126.64    9.42   0
   4  -1  35    1.82    6.23   0
   6   1  41   -0.09    8.69   0
   9  -4  28   93.33    9.22   0
   3  -1  31   -2.60    6.59   0
   5  -3  29    4.11    6.35   0
   7  -3  34  187.30   10.36   0
   8  -2  37   -5.37    8.18   0
   1   2  29    4.54    5.61   0
   2  -1  24 1933.54   20.58   0
   5   0  41   -4.57    8.45   0
   6  -5  14  417.28   11.47   0
   6  -3  33    8.30    8.03   0
   6  -1  40  201.88   10.44   0
   8  -5  22  128.66    9.17   0
   4  -4  11    1.54    4.54   0
   5  -4  21    3.15    5.51   0
   5  -1  39   -5.67    6.79   0
   6   0  42  125.30    9.72   0
   8  -3  35    6.17    8.04   0
   3   1  38  158.90    8.20   0
   4  -3  25    1.29    6.48   0
   4   2  41    5.53    7.80   0
   6  -2  38  113.88    8.76   0
   7  -5  21    2.34    7.31   0
   7  -2  39  -10.06    8.42   0
   7  -1  41   -2.53    8.27   0
   9  -5  23   -5.09    8.03   0
   1   1  27    1.51    5.39   0
   3  -2  26  530.89   11.33   0
   4   0  40  421.09   12.13   0
   5   2  42  134.67    9.38   0
   1   0  22  469.14   11.33   0
   4  -2  33   -8.09    6.68   0
   5  -2  37    7.64    7.92   0
   5   1  43   -2.67    7.74   0
   6  -5  17   -1.09    6.79   0
   2  -2  16 3037.21   26.24   0
   2   2  36  384.99   11.36   0
   4  -1  38  172.68    9.46   0
   4   1  42  165.78    9.99   0
   5  -3  32  712.73   13.82   0
   7  -3  37    4.47    8.64   0
   8  -5  25   -3.79    7.65   0
   4  -4  14  325.51    9.50   0
   7  -4  32  308.75   11.51   0
   9  -5  26  147.17    9.51   0
   3  -1  34  600.92   12.47   0
   5  -5   7   -1.62    5.69   0
   6  -3  36  294.49   10.35   0
   6   1  44  107.97    9.47   0
   7  -5  24  459.62   12.51   0
   8  -3  38   57.99    8.84   0
   2  -1  27   -1.19    5.92   0
   3  -3  18  522.69   11.41   0
   5  -1  42  155.95    9.61   0
   5   0  44  175.60   10.45   0
   6  -2  41    3.48    8.67   0
   4  -3  28  718.95   12.88   0
   6  -5  20  523.12   12.30   0
   6   0  45   -0.27    8.03   0
   7  -2  42  143.33    9.56   0
   3  -2  29    5.08    5.65   0
   4  -4  17   -1.73    5.80   0
   5  -5  10  724.25   14.09   0
   6  -4  31    1.24    7.74   0
   8  -5  28  163.38    9.64   0
   1   2  32 1193.16   17.97   0
   2  -2  19   -7.24    5.66   0
   3   0  39    4.17    5.88   0
   3   1  41    3.33    6.37   0
   4  -2  36  397.67   11.13   0
   4   0  43    2.02    8.05   0
   5  -2  40  457.62   12.56   0
   9  -5  29   -1.19    7.86   0
   2   1  37    3.49    6.34   0
   5  -3  35   -2.86    6.65   0
   7  -5  27    0.13    7.93   0
   7  -4  35    6.57    7.94   0
   7  -3  40  158.82   10.34   0
   8  -6  17   -8.72    7.21   0
   8  -4  36  127.01    9.58   0
   1   1  30  622.50   12.70   0
   4  -1  41   -6.90    7.76   0
   5   1  46   60.16    9.05   0
   6  -3  39   -4.31    8.14   0
   2   2  39   -1.12    7.16   0
   3  -3  21    5.18    4.99   0
   4   1  45    6.57    7.81   0
   5  -5  13   -3.70    5.76   0
   6  -5  23   -1.14    7.16   0
   3  -1  37   -5.32    6.03   0
   3   2  43   -4.60    7.35   0
   4  -4  20 1312.97   17.25   0
   4  -3  31    4.43    6.05   0
   6  -2  44  240.56   11.25   0
   8  -5  31   -1.27    8.05   0
   2  -1  30  621.12   12.13   0
   3  -2  32 1256.49   16.70   0
   5   0  47   -1.16    8.77   0
   6  -4  34  178.22    8.80   0
   7  -2  45    2.82    8.65   0
   8  -6  20  197.71   10.17   0
   2  -2  22 1998.97   20.81   0
   5  -4  30  184.12    9.39   0
   6   0  48  115.02    9.34   0
   7  -5  30  200.16   10.29   0
   4  -2  39   -0.71    7.04   0
   5  -5  16  715.15   13.28   0
   5  -2  43   -7.40    7.86   0
   7  -4  38  140.77    9.71   0
   7  -3  43   -0.35    8.56   0
   8  -4  39    1.76    7.89   0
   3  -3  24 1640.74   18.76   0
   3   1  44  282.70   10.84   0
   6  -5  26  228.46    9.11   0
   9  -6  24  151.65    8.89   0
   0   2  25    1.28    4.94   0
   6  -3  42  169.29    9.14   0
   8  -6  23   -4.27    7.64   0
   1   1  33    5.43    5.73   0
   1   2  35    1.27    5.50   0
   2   1  40  475.98   12.11   0
   4  -3  34  526.81   12.39   0
   5  -5  19   -4.59    6.20   0
   5   1  49    0.40    8.29   0
   6  -4  37    8.06    8.14   0
   7  -6  19   12.27    7.19   0
   8  -5  34  141.54    9.10   0
   1  -1  20 1600.89   19.65   0
   3  -1  40  480.75   12.10   0
   4   1  48  208.33   10.59   0
   6  -2  47    8.78    8.60   0
   6  -1  49    3.92    8.04   0
   2  -2  25    0.97    5.86   0
   2  -1  33    2.67    5.46   0
   2   0  38  252.99    9.65   0
   3  -2  35   -5.47    5.95   0
   5  -4  33    5.94    6.38   0
   6  -5  29   -1.96    7.58   0
   7  -5  33   -4.11    7.38   0
   9  -6  27    0.95    6.85   0
   2   2  42  383.13   11.66   0
   5  -3  41   -8.57    7.95   0
   5   0  50   80.64    9.43   0
   7  -4  41    5.18    8.06   0
   8  -6  26  199.28    9.72   0
   3  -3  27    1.08    5.48   0
   4  -2  42  407.79   11.12   0
   5  -5  22  244.04    9.58   0
   5  -2  46   48.10    8.79   0
   7  -6  22  150.43    9.31   0
   7  -3  46   59.45    9.36   0
   3   0  45   -4.33    7.58   0
   6  -3  45   -2.92    8.20   0
   8  -5  37   -1.18    7.77   0
   4  -3  37    9.16    6.44   0
   4   0  49   -6.90    8.06   0
   6  -4  40  267.60   10.84   0
   1  -1  23   -0.16    4.85   0
   3   1  47   -3.41    7.45   0
   5  -4  36  481.49   12.09   0
   6  -5  32  391.37   11.84   0
   7  -5  36  148.11    9.92   0
   8  -6  29    0.77    7.92   0
   2  -2  28 1176.43   15.84   0
   2  -1  36  943.02   15.00   0
   2   1  43    0.68    6.66   0
   3  -4   7   18.32    5.38   0
   3  -2  38  331.18   10.51   0
   5  -5  25    6.70    6.73   0
   6  -6  15    2.30    6.30   0
   6  -2  50   96.17    9.10   0
   7  -6  25   -0.40    7.57   0
   0   2  28 1108.11   18.12   0
   1   1  36  892.87   15.23   0
   1   2  38  341.51   10.63   0
   2   0  41    0.01    6.78   0
   3  -4  10 1152.57   17.60   0
   3  -3  30  594.53   11.90   0
   4  -4  29   -2.98    5.83   0
   5  -1  51    1.39    8.66   0
   7  -4  44  126.99    9.71   0
   4  -2  45   -1.80    8.03   0
   4   1  51   -1.77    7.51   0
   5  -3  44  228.04    9.67   0
   8  -5  40  136.20    9.16   0
   2  -3  11   16.17    5.31   0
   3  -4  13    7.11    5.77   0
   5  -2  49    1.95    8.18   0
   5   0  53  -11.72    9.10   0
   6  -6  18  252.36   10.09   0
   6  -3  48  141.18   10.20   0
   4  -3  40  475.01   11.56   0
   6  -5  35    5.07    7.78   0
   6  -4  43    2.09    8.71   0
   7  -6  28  139.20    9.51   0
   8  -6  32  190.95   10.22   0
   1  -1  26 1243.84   16.56   0
   2  -2  31   -4.13    6.02   0
   3   0  48  206.54   10.08   0
   4  -4  32  477.93   11.96   0
   5  -5  28  640.62   12.77   0
   5  -4  39   -5.98    6.80   0
   1   0  34  950.49   14.82   0
   3  -4  16 2083.10   21.54   0
   3  -3  33   -1.50    5.86   0
   3  -2  41    0.79    7.50   0
   4  -1  50  182.37   10.45   0
   4   0  52  134.28    9.87   0
   6  -6  21    1.30    6.76   0
   0   1  26 1125.01   17.13   0
   2  -1  39   -0.35    5.89   0
   3   1  50  170.04   10.16   0
   4  -5   9   19.71    5.63   0
   6  -2  53   -0.42    8.80   0
   7  -4  47   -4.13    7.93   0
   2  -3  17    8.97    4.90   0
   2   1  46  130.49    8.99   0
   3  -4  19    9.44    6.06   0
   4  -5  12 1167.66   17.64   0
   5  -3  47   11.95    7.11   0
   7  -6  31    5.31    7.86   0
   8  -6  35    7.93    8.03   0
   0   2  31    0.82    5.43   0
   1   1  39    2.47    5.06   0
   2   0  44  714.76   14.12   0
   4  -5  15    3.41    5.82   0
   4  -2  48  301.32   11.17   0
   5  -5  31    8.84    6.05   0
   5  -1  54   61.20    8.54   0
   6  -6  24  590.51   13.27   0
   1  -1  29    0.57    5.11   0
   1   2  41    5.12    6.43   0
   4  -4  35   -5.15    7.07   0
   4  -3  43    5.04    6.86   0
   5  -4  42  213.19   10.12   0
   5  -2  52  133.58    9.82   0
   6  -4  46  100.31    9.07   0
   6  -3  51    7.51    8.24   0
   2  -3  20 1489.68   17.95   0
   2  -2  34  278.96    9.34   0
   3  -3  36  553.24   12.44   0
   4  -5  18  758.04   14.08   0
   4   1  54   59.92    8.58   0
   1   0  37   -4.80    6.09   0
   3  -2  44  340.97   11.03   0
   6  -6  27   -5.51    7.06   0
   7  -6  34  166.98    9.43   0
   0   1  29    1.53    5.01   0
   3   0  51    5.77    8.09   0
   4  -1  53    0.50    8.03   0
   5  -5  34  262.84   10.17   0
   2  -3  23    3.26    5.16   0
   1   7   6  102.33    8.60   0
   2   2   9   -0.93    4.81   0
   2   6   5    5.72    6.56   0
   5   1  -8  826.66   13.81   0
   5   4 -14   84.37    8.19   0
   6   1 -25    6.14    6.84   0
   6   2 -29    1.79    6.97   0
   6   2 -26  192.99    9.58   0
  -1   5  15    3.62    5.42   0
   2   5   9    2.46    7.24   0
   3   0   0 2710.12   24.62   0
   4   3   1   14.58    6.23   0
   1   2  11   17.51    5.56   0
   2   3  11    2.68    6.19   0
   2   7   1    2.08    7.48   0
   3   5   4  269.08   10.31   0
   4   1   0 1430.93   16.75   0
   5   2  -6  439.78   11.05   0
   6   1 -22  154.93    8.70   0
   6   2 -23   -4.36    7.17   0
   1   3  13    7.88    4.92   0
   2   1   7   -0.07    5.35   0
   3   2   7    8.24    5.43   0
   4  -1 -10 1147.19   17.57   0
   4   4   0  534.25   12.17   0
   4   5  -4  126.91    9.03   0
   5  -1 -18  722.13   14.41   0
   5   0 -10  735.37   13.33   0
   5   3  -7   -5.50    6.57   0
   5   4 -11    2.67    7.26   0
   0   7  11    2.24    7.58   0
   1   8   2  111.39    8.99   0
   3   1   5    7.16    4.97   0
   6   1 -19   -0.52    7.00   0
   6   2 -20  202.91    9.64   0
   6   3 -27    1.97    6.85   0
   6   3 -24  164.10    8.98   0
   1   5  14  398.99   11.37   0
   3   3   9   11.11    6.84   0
   3   4   8  567.36   11.98   0
   5   4  -8  377.08   11.49   0
   6   2 -17    8.80    7.21   0
   6   3 -21   -3.70    7.82   0
   1   7   9    2.43    7.98   0
   4   3   4  675.93   12.63   0
   4   5  -1   -2.85    8.03   0
   5   2  -3   14.35    7.27   0
   5   3  -4  285.74   10.81   0
   6   0 -21   -2.81    6.14   0
   6   1 -16  627.89   13.03   0
   0   5  16  694.08   14.18   0
   0   6  15   -3.02    6.80   0
   1   4  15    5.60    6.02   0
   2   7   4  181.41   10.42   0
   5  -1 -15    2.88    5.27   0
   6   3 -18  182.65    9.95   0
   1   6  13   -5.18    7.30   0
   2   5  12  416.18   11.46   0
   4   1   3   18.80    6.53   0
   4   2   5    8.74    6.50   0
   5   0  -7    0.15    5.08   0
   6   2 -14  114.12    9.00   0
   5   4  -5    2.01    8.58   0
   6   0 -18  270.10    9.80   0
   6   1 -13   10.71    7.04   0
   0   3  15   -0.94    4.92   0
   1   8   5    1.91    7.69   0
   2   2  12  815.49   13.94   0
   6   3 -15   -2.89    7.67   0
   3   0   3   -3.30    5.19   0
   3   2  10  763.79   12.90   0
   4  -1  -7   11.51    5.43   0
   4   5   2  185.71    9.96   0
   5   2   0  645.76   12.89   0
   5   3  -1    2.49    6.78   0
   6   2 -11   -2.69    7.49   0
   0   4  17    0.29    5.50   0
   2   6  11  -10.81    8.19   0
   4   3   7    7.09    7.17   0
   6   0 -15    2.41    6.36   0
   2   7   7  -10.14    8.36   0
   3   1   8 2840.69   23.64   0
   3   6   6   83.12    8.71   0
   4   4   6  214.45    9.23   0
   4   6  -2   82.32    9.21   0
   5  -1 -12 1174.49   17.09   0
   6   3 -12  164.84    8.94   0
   1   7  12  198.55   10.26   0
   3   3  12  746.21   13.05   0
   4   0   1   -2.36    4.86   0
   5   0  -4 1190.50   15.85   0
   1   5  17   -3.40    6.75   0
   4   2   8  913.16   14.64   0
   5   5  -6   77.77    9.30   0
   2   1  10 2143.17   21.82   0
   2   5  15    8.83    7.62   0
   4   1   6  892.10   13.71   0
   4   5   5    0.76    8.06   0
   5   1   1    8.86    5.94   0
   6   0 -12  372.89   10.28   0
   1   6  16  641.51   13.93   0
   2   4  16  737.48   13.22   0
   5   2   3    1.46    6.34   0
   6   1  -7    4.88    7.29   0
   1   4  18  732.30   14.06   0
   4   6   1    0.67    7.85   0
   5  -1  -9   12.50    5.57   0
   5   4   1    0.74    7.60   0
   5   5  -3    5.20    8.41   0
   0   5  19    0.70    6.69   0
   2   7  10  169.28   10.12   0
   3   6   9   -0.90    8.04   0
   4   4   9    2.32    6.88   0
   2   6  14  125.97    9.47   0
   3   2  13    1.67    5.58   0
   4  -1  -4 1323.81   18.06   0
   5   0  -1   -3.08    5.29   0
   6   0  -9    4.53    5.76   0
   3   5  13   -6.70    8.41   0
   5   3   5   -0.90    6.80   0
   6   1  -4  281.57    9.93   0
   7   2 -22   53.45    8.54   0
   1   7  15    1.54    8.72   0
   2   2  15    0.25    5.03   0
   3   3  15    1.32    5.99   0
   4   0   4 1592.51   17.98   0
   5   1   4  795.71   13.77   0
   5   4   4  145.08    9.79   0
   3   0   6  546.79   11.60   0
   3   1  11   20.11    5.62   0
   4   2  11    2.68    5.95   0
   5   2   6  171.79    8.34   0
   5   5   0  208.33    9.44   0
   6   3  -3    0.99    7.95   0
   7   1 -18  193.91    9.64   0
   7   2 -19   -1.21    7.54   0
   4   1   9    3.86    5.42   0
   5  -1  -6  390.23   10.55   0
   6   0  -6  401.68   10.96   0
   7   2 -16  166.83    9.80   0
   2   5  18  173.30    9.60   0
   3   6  12  176.09   10.18   0
   4   4  12  286.52   10.81   0
   6  -1 -14  410.77   11.24   0
   7   1 -15   -1.58    7.50   0
   1   6  19   10.12    8.24   0
   2   4  19   -4.69    6.50   0
   2   7  13    2.27    8.00   0
   4   3  13    1.47    6.59   0
   5   3   8  465.14   12.23   0
   6   4  -4  130.74    8.87   0
   0   3  18  521.04   12.42   0
   0   4  20 1255.78   18.28   0
   1   3  19   10.31    5.85   0
   5   4   7    0.33    8.34   0
   5   5   3   -0.11    7.70   0
   6   2   1   -5.26    8.06   0
   6   3   0  336.79   11.23   0
   7   2 -13    0.63    7.62   0
   2   1  13   23.69    6.00   0
   2   6  17   -2.58    8.07   0
   3   5  16  427.84   12.16   0
   4  -1  -1   22.62    5.48   0
   5   1   7   -0.59    6.53   0
   6  -1 -11   -2.69    6.54   0
   3   2  16 1878.99   19.67   0
   5   2   9    2.34    6.42   0
   6   0  -3   -4.84    5.51   0
   7   2 -10  177.56    9.26   0
   1   4  21    7.42    6.26   0
   3   3  18  430.47   11.27   0
   4   0   7   -1.40    5.75   0
   4   2  14  293.86    9.92   0
   6   4  -1   -7.71    7.64   0
   7   0 -14  133.51    8.70   0
  -1   4  19   12.31    5.21   0
   1   2  17   10.45    5.33   0
   5  -1  -3    1.23    4.48   0
   6   3   3   -2.75    7.76   0
   7   1  -9    5.72    7.83   0
   2   3  20  585.25   12.42   0
   3   6  15   -2.51    7.85   0
   4   1  12  938.03   13.96   0
   4   4  15   -0.17    6.63   0
   5   3  11    5.88    7.88   0
   5   5   6   86.51    8.05   0
   6   2   4  249.29    9.39   0
   7   2  -7    2.50    7.24   0
   2   2  18 1072.22   15.16   0
   3   0   9   -0.93    5.35   0
   3   1  14  702.98   12.42   0
   4   3  16  430.33   10.91   0
   5   0   5   -2.68    5.29   0
   5   4  10  137.34    9.77   0
   6  -1  -8  848.70   14.44   0
   6   0   0  928.86   14.76   0
   7   0 -11    1.73    6.44   0
   2   5  21   -1.46    7.24   0
   2   7  16  158.37    9.80   0
   6   4   2   81.69    8.28   0
   7   1  -6  104.81    8.75   0
   3   4  20  415.69   11.77   0
   3   5  19    5.30    8.15   0
   5   1  10  468.89   10.89   0
   5   2  12  517.63   11.49   0
   7   2  -4  191.12    9.73   0
   1   5  23   -3.24    6.74   0
   1   6  22  146.10    9.30   0
   2   6  20  186.09   10.06   0
   6   1   5    5.76    6.33   0
   6   3   6  186.73   10.01   0
   7   0  -8  632.05   13.05   0
   5  -1   0 1467.25   17.89   0
   6  -1  -5    4.13    6.04   0
   6   2   7    3.39    6.50   0
   7   1  -3   -1.55    7.59   0
   3   2  19    2.33    6.20   0
   4   0  10  415.29   10.56   0
   4   2  17   -5.12    6.06   0
   5   3  14  144.20    9.36   0
   5   4  13    5.23    8.34   0
   3   6  18  198.10    9.79   0
   5   0   8  968.39   14.52   0
   6   0   3   -5.49    5.77   0
   7   0  -5   -3.69    7.02   0
   7   2  -1    1.59    7.48   0
   1   3  22  363.44   10.50   0
   4   1  15   12.93    5.89   0
   4   3  19   -3.36    7.54   0
   4   5  17   -2.50    7.67   0
   1   4  24  666.86   13.53   0
   2   1  16 2065.18   20.87   0
   5   1  13    6.79    7.13   0
   5   2  15   -0.22    7.22   0
   6   1   8  681.72   13.31   0
   6   3   9    4.85    7.01   0
   7   1   0  404.57   11.47   0
   0   4  23   -0.41    5.30   0
   2   3  23   11.97    6.37   0
   3   1  17    2.78    5.69   0
   6  -1  -2  353.50   10.28   0
   6   2  10  189.91    9.06   0
   3   0  12 2692.62   23.57   0
   3   4  23    6.81    7.50   0
   3   5  22  126.18    9.04   0
   5  -2 -11    1.83    5.18   0
   5  -1   3   23.51    5.96   0
   7   0  -2  227.52    9.54   0
   0   3  21   -2.94    4.88   0
   2   6  23    3.65    7.82   0
   5   3  17   12.50    7.83   0
   5   4  16  347.38   11.42   0
   7  -1 -10  219.30    9.15   0
   1   2  20 1450.51   18.44   0
   2   4  25    1.08    6.92   0
   7   1   3   -1.67    7.44   0
   2   0  11   -2.54    4.57   0
   3   6  21    6.92    8.06   0
   4   2  20  650.28   12.41   0
   5   0  11    1.92    5.60   0
   6   1  11   -6.75    7.63   0
   6   3  12  142.81    9.50   0
   8   1 -11    3.97    7.88   0
   1   5  26  227.73    9.78   0
   3   2  22  313.45   10.04   0
   4   0  13   -0.37    5.23   0
   4   5  20  137.26    9.30   0
   6  -1   1    9.63    6.33   0
   6   2  13   11.32    7.73   0
   7  -1  -7    4.49    6.40   0
   7   0   1   -1.21    7.09   0
   4   1  18  402.68   10.19   0
   4   3  22  180.66    8.78   0
   5  -2  -8 2105.36   24.01   0
   5   1  16  648.16   12.90   0
   5   2  18  402.03   10.63   0
   8   1  -8  134.43    9.25   0
   5   4  19   -6.58    8.33   0
   3   5  25   -5.33    7.55   0
   5   3  20  212.24    9.23   0
   6   3  15   15.75    7.72   0
   7   0   4  198.98    9.88   0
   7   2   8  226.60   10.20   0
   8   1  -5   -0.75    6.89   0
   1   3  25    2.44    5.89   0
   2   1  19   -2.00    5.63   0
   2   5  27    2.79    7.62   0
   3   1  20  960.51   14.34   0
   3   4  26  151.49    9.70   0
   6  -1   4  789.24   13.88   0
   6   1  14  133.38    8.92   0
   1   4  27    2.03    6.16   0
   2   6  26  186.53   10.27   0
   3   0  15    1.32    5.83   0
   4  -1   8 2822.32   24.36   0
   4   2  23   -0.28    6.91   0
   4   4  24  328.68   11.61   0
   5  -2  -5    1.61    5.71   0
   5   0  14  657.23   12.18   0
   6   2  16  403.43   11.19   0
   8   0  -7   -4.41    7.37   0
   3   6  24  175.45    9.54   0
   4   5  23   -3.61    7.94   0
   5   2  21    2.58    7.98   0
   7  -1  -1    2.36    6.70   0
   8   1  -2  103.55    8.30   0
   4   0  16 1584.02   17.76   0
   5   1  19    7.11    6.39   0
   1   1  33    4.97    5.47   0
   4  -1  32  937.78   14.47   0
   5  -2  25   -0.73    6.54   0
   5   2  45    1.60    7.26   0
   6  -2  26  358.22   10.05   0
   6  -1  34  206.03    9.92   0
   6   0  39    9.17    7.73   0
   8  -2  22  111.88    8.28   0
   3  -2  11   14.92    4.62   0
   3  -1  28 1352.43   16.15   0
   4  -2  21    4.32    5.03   0
   7   0  37   -0.20    6.94   0
   5  -3  -1    1.21    5.14   0
   5  -3   2  842.50   15.05   0
   6  -3  12  771.84   13.16   0
   7  -3  13    5.56    6.61   0
   8  -3   8  445.82   11.90   0
   2  -1  21   17.28    4.87   0
   4   0  40  462.22   11.91   0
   5  -3  -4  664.33   15.01   0
   5  -3   5    9.24    5.48   0
   5   0  41   -0.41    7.69   0
   9  -2  17    1.78    7.17   0
   3  -2  14 1691.42   19.27   0
   3   2  46   56.93    8.30   0
   3   3  48  145.60    9.33   0
   4   2  47   -3.84    7.39   0
   5  -3   8 2280.41   22.64   0
   5  -1  36  337.43   10.65   0
   6  -3  15   10.12    6.32   0
   6  -2  29   -0.28    7.15   0
   7  -1  35    5.49    7.81   0
   8  -3  11   -6.59    6.94   0
   8  -2  25    0.10    7.33   0
   2   1  40  455.60   11.63   0
   4   1  45    0.06    7.99   0
   5  -2  28  426.36   11.03   0
   6  -1  37    9.64    8.18   0
   7  -3  16  451.41   11.07   0
   0   1  26 1102.21   17.14   0
   4  -2  24 1888.30   19.03   0
   6   0  42  122.70    9.55   0
   7   0  40  152.92    9.42   0
   8  -3  14  162.42    9.06   0
   8  -1  33   -1.68    7.93   0
   9  -2  20  134.53    8.93   0
   2   2  45   -3.25    7.61   0
   3  -1  31    2.45    6.37   0
   3   1  44  281.00   10.26   0
   4  -1  35    8.94    6.16   0
   5  -3  11    2.84    4.99   0
   5   1  46   67.38    8.69   0
   7  -2  30   81.33    8.95   0
   1   2  41    2.64    6.13   0
   6  -3  18  444.10   10.66   0
   7  -3  19   -5.73    5.96   0
   8  -3  17   -0.45    7.52   0
   8  -2  28  153.00    9.31   0
   1   1  36  896.06   14.89   0
   2  -1  24 1866.42   19.51   0
   2   0  35   -0.54    5.67   0
   3  -2  17   10.72    4.96   0
   5  -3  14  403.09   10.59   0
   9  -2  23    1.22    6.94   0
   5  -2  31    3.82    7.04   0
   5  -1  39    3.42    7.50   0
   5   0  44  180.64   10.22   0
   7  -1  38   52.63    8.20   0
   4  -2  27   -3.04    5.74   0
   6  -1  40  215.80   10.37   0
   7  -3  22  190.54    9.48   0
   7  -2  33   -0.01    8.29   0
   8  -3  20  231.09   10.22   0
   3   2  49   -7.17    7.11   0
   4   2  50  112.74    8.98   0
   2   1  43   -2.78    6.57   0
   3  -2  20 1493.19   17.57   0
   3  -1  34  632.20   12.67   0
   4  -1  38  176.16    8.52   0
   4   1  48  196.57   10.63   0
   6   0  45   -2.45    8.46   0
   9  -3  15    4.98    7.32   0
   3   0  42  304.21   10.60   0
   5   1  49   -1.42    7.81   0
   6  -2  35   -4.97    7.57   0
   7  -3  25    7.16    7.85   0
   8  -3  23    9.76    7.80   0
   0   1  29    0.39    5.12   0
   0   2  37   -0.56    5.70   0
   2  -1  27   -1.60    5.03   0
   3   1  47  -10.57    7.28   0
   4  -2  30  210.72    9.26   0
   5  -2  34  457.21   11.92   0
   7  -1  41    6.53    8.12   0
   2   2  48  313.08   11.30   0
   5  -1  42  171.60    9.69   0
   7  -2  36  266.96   10.75   0
   9  -3  18   93.39    8.52   0
   1   2  44  323.83   10.64   0
   2   0  38  236.31    8.73   0
   3  -2  23    5.76    5.21   0
   4   0  46  147.50    9.64   0
   6  -1  43   -1.75    8.17   0
   1   1  39    3.76    5.95   0
   4  -3   4 1363.39   19.24   0
   4  -3   7   14.11    5.53   0
   6  -3  27    1.55    6.95   0
   8  -3  26  177.68   10.01   0
   9  -3  21    4.92    7.05   0
   1   0  31    0.06    5.36   0
   3  -1  37    8.68    6.79   0
   4  -3  10 1144.58   16.74   0
   4  -1  41   -2.60    6.51   0
   5  -3  23    9.09    5.83   0
   6  -2  38  103.09    9.26   0
   6   0  48  118.58    9.04   0
   2  -1  30  650.73   12.71   0
   4  -2  33    0.62    7.12   0
   4   1  51    2.68    8.43   0
   4   2  53    1.02    7.86   0
   5  -2  37    1.99    7.79   0
   3  -2  26  567.03   11.98   0
   3   2  52  121.70    9.19   0
   7  -2  39    2.38    7.98   0
   7  -1  44  134.32    9.77   0
   8  -3  29   -2.22    7.96   0
   8  -2  37    2.35    7.68   0
   9  -3  24  220.38    9.65   0
   2   1  46  139.06    8.87   0
   3   0  45    5.85    6.15   0
   5  -3  26  651.12   12.86   0
   5  -1  45   11.72    7.94   0
   6  -3  30  195.33    9.44   0
   3   1  50  170.44    9.34   0
   4  -3  16 2075.01   20.79   0
   5   0  50   75.52    9.14   0
   6  -1  46   64.82    8.97   0
   7  -4  11   -2.14    7.31   0
   0   1  32 1682.20   20.83   0
   2   0  41   -0.67    5.50   0
   4   0  49   -9.54    7.71   0
   6  -2  41    9.01    8.31   0
   8  -4  12  260.09   10.38   0
   9  -3  27   12.24    7.67   0
   4  -3  19    3.53    6.01   0
   4  -1  44  280.17   10.72   0
   7  -4  14  364.82   11.21   0
   8  -4  15    0.56    7.16   0
   8  -3  32  190.10    9.85   0
   1   0  34  960.19   15.06   0
   1   1  42  331.02   10.42   0
   2  -1  33    4.24    6.00   0
   3  -2  29    3.16    5.44   0
   4  -2  36  389.99   10.50   0
   5  -3  29    2.01    7.14   0
   5  -2  40  467.85   11.69   0
   6  -3  33    1.23    7.63   0
   7  -4  17   11.09    7.01   0
   7  -3  34  185.68    9.74   0
   7  -2  42  140.83    9.44   0
   8  -4  18  184.39    9.43   0
   4  -3  22  388.60   10.40   0
   4   1  54   65.42    8.84   0
   5  -1  48  204.17   10.47   0
   6  -4   7    0.53    5.80   0
   6  -4  10  356.22   10.55   0
   7  -4  20  441.32   11.88   0
   3   0  48  199.21    9.79   0
   6  -4   4  910.66   15.91   0
   6  -4  13    2.09    5.20   0
   6  -1  49    1.73    7.80   0
   8  -4  21    2.61    6.94   0
   1  -1  20 1504.06   18.84   0
   2  -2  13   -0.33    5.40   0
   2   1  49   -5.29    6.90   0
   5  -3  32  738.23   13.86   0
   5   0  53   -2.77    8.17   0
   6  -4  16  786.69   14.28   0
   6  -2  44  233.67    9.90   0
   7  -3  37   13.68    8.18   0
   3  -2  32 1247.38   15.87   0
   3   1  53   -1.81    7.07   0
   4  -3  25    0.25    6.46   0
   4  -2  39   -4.31    6.31   0
   4   0  52  157.16    9.63   0
   5  -2  43  -10.94    7.92   0
   6  -3  36  307.31   10.07   0
   7  -4  23    1.64    6.34   0
   8  -4  24  340.79   11.26   0
   0   1  35   -1.46    5.33   0
   2  -2  16 3013.21   25.67   0
   6  -4  19    0.51    5.65   0
   7  -2  45    9.23    7.12   0
   1   0  37   -4.46    4.86   0
   7  -4  26  156.60    9.24   0
   9  -4  22   82.78    8.81   0
   1  -1  23    1.46    4.40   0
   1   1  45   -1.69    6.14   0
   2  -2  19   -3.68    4.71   0
   5  -3  35    0.79    6.97   0
   6  -4  22  359.98   10.21   0
   8  -4  27    2.18    7.26   0
   3  -2  35    1.76    6.54   0
   4  -3  28  724.57   12.62   0
   6  -3  39    1.32    7.83   0
   6  -2  47    1.32    7.72   0
   7  -3  40  158.03    9.78   0
  -8   3  13    5.06    8.36   0
  -8   3  16  439.31   12.54   0
  -8   3  19    0.48    8.26   0
  -6   1  50   75.22    9.68   0
  -5   3  25    0.94    7.18   0
  -4   1  49    0.39    8.63   0
  -4   2  39    5.10    7.84   0
  -8   3  10  215.96   10.31   0
  -7   2  42   92.95    9.58   0
  -7   3   2  254.81    9.87   0
  -7   3  29   11.60    8.60   0
  -6   2  43  -13.57    8.03   0
  -6   3  30  209.44   10.43   0
  -8   3   7    6.10    6.82   0
  -8   3  25   -4.81    7.92   0
  -6   3   0 1075.52   16.38   0
  -5   3   4  732.91   13.17   0
  -5   3  28  429.10   11.44   0
  -3   2  34  608.32   12.87   0
  -1   1  28 1317.46   18.82   0
  -5   2  44  258.05   10.45   0
  -3   1  47    4.95    6.97   0
  -8   3   4  272.45   10.41   0
  -8   3  28  185.48    9.71   0
  -6   3  33   -7.13    6.95   0
  -7   3  -1    9.52    6.14   0
  -5   3  31   -2.63    6.48   0
  -4   2  42  403.33   11.05   0
  -4   3  14  686.70   12.90   0
  -4   3  17   -1.83    5.30   0
  -2   1  42  347.53   10.98   0
   0   0  33   -0.13    4.74   0
  -8   3  31    6.40    7.92   0
  -7   2  45    0.75    7.29   0
  -7   3  35   -3.55    8.15   0
  -5   3   1   -0.31    4.73   0
  -4   3  11   20.59    6.32   0
  -4   3  20  925.98   14.10   0
  -3   2  37   -5.00    6.69   0
  -2   2  14  350.85   10.48   0
  -2   2  17    3.43    4.78   0
  -1   1  31   -1.97    5.23   0
  -9   3  15   -2.30    8.03   0
  -9   3  18  193.21   10.25   0
  -8   3   1   -0.13    7.00   0
  -6   3  -3    3.46    5.64   0
  -6   3  36  325.26   10.71   0
  -4   1  52  209.51   10.55   0
  -4   3  23    9.29    5.78   0
  -2   2  20 3548.13   27.96   0
  -5   3  34  455.14   11.64   0
  -2   2  11   -1.39    4.86   0
;
_shelx_hkl_checksum              64357
loop_
_space_group_symop_operation_xyz
'x, y, z'
'-y, x-y, z'
'-x+y, -x, z'
'y, x, -z+1/2'
'x-y, -y, -z+1/2'
'-x, -x+y, -z+1/2'
'x+2/3, y+1/3, z+1/3'
'-y+2/3, x-y+1/3, z+1/3'
'-x+y+2/3, -x+1/3, z+1/3'
'y+2/3, x+1/3, -z+5/6'
'x-y+2/3, -y+1/3, -z+5/6'
'-x+2/3, -x+y+1/3, -z+5/6'
'x+1/3, y+2/3, z+2/3'
'-y+1/3, x-y+2/3, z+2/3'
'-x+y+1/3, -x+2/3, z+2/3'
'y+1/3, x+2/3, -z+7/6'
'x-y+1/3, -y+2/3, -z+7/6'
'-x+1/3, -x+y+2/3, -z+7/6'
'-x, -y, -z'
'y, -x+y, -z'
'x-y, x, -z'
'-y, -x, z-1/2'
'-x+y, y, z-1/2'
'x, x-y, z-1/2'
'-x+2/3, -y+1/3, -z+1/3'
'y+2/3, -x+y+1/3, -z+1/3'
'x-y+2/3, x+1/3, -z+1/3'
'-y+2/3, -x+1/3, z-1/6'
'-x+y+2/3, y+1/3, z-1/6'
'x+2/3, x-y+1/3, z-1/6'
'-x+1/3, -y+2/3, -z+2/3'
'y+1/3, -x+y+2/3, -z+2/3'
'x-y+1/3, x+2/3, -z+2/3'
'-y+1/3, -x+2/3, z+1/6'
'-x+y+1/3, y+2/3, z+1/6'
'x+1/3, x-y+2/3, z+1/6'
loop_
_atom_site_label
_atom_site_type_symbol
_atom_site_fract_x
_atom_site_fract_y
_atom_site_fract_z
_atom_site_U_iso_or_equiv
_atom_site_adp_type
_atom_site_occupancy
_atom_site_site_symmetry_order
_atom_site_calc_flag
_atom_site_refinement_flags_posn
_atom_site_refinement_flags_adp
_atom_site_refinement_flags_occupancy
Ba1 Ba 0.0000 0.0000 0.2500 0.01119(2) Uani 1 6 d S T P
Mg2 Mg 0.0000 0.0000 0.0000 0.00893(7) Uani 1 6 d S T P
O3 O 0.1219(2) 0.82952(19) 0.12915(2) 0.02110(14) Uani 1 1 d . . .
C4 C 0.0000 0.0000 0.13038(3) 0.00949(11) Uani 1 3 d S T P
loop_
_atom_site_aniso_label
_atom_site_aniso_U_11
_atom_site_aniso_U_22
_atom_site_aniso_U_33
_atom_site_aniso_U_23
_atom_site_aniso_U_13
_atom_site_aniso_U_12
Ba1 0.00978(2) 0.00978(2) 0.01400(3) 0.000 0.000 0.00489(1)
Mg2 0.00767(11) 0.00767(11) 0.01146(17) 0.000 0.000 0.00383(5)
O3 0.0284(4) 0.0241(4) 0.0227(2) -0.0053(3) -0.0088(3) 0.0221(3)
C4 0.00917(17) 0.00917(17) 0.0101(3) 0.000 0.000 0.00459(9)
loop_
_atom_type_symbol
_atom_type_description
_atom_type_scat_dispersion_real
_atom_type_scat_dispersion_imag
_atom_type_scat_source
C C 0.0033 0.0016 'International Tables Vol C Tables 4.2.6.8 and 6.1.1.4'
O O 0.0106 0.0060 'International Tables Vol C Tables 4.2.6.8 and 6.1.1.4'
Mg Mg 0.0486 0.0363 'International Tables Vol C Tables 4.2.6.8 and 6.1.1.4'
Ba Ba -0.3244 2.2819 'International Tables Vol C Tables 4.2.6.8 and 6.1.1.4'
loop_
_geom_angle_atom_site_label_1
_geom_angle_atom_site_label_2
_geom_angle_atom_site_label_3
_geom_angle
_geom_angle_site_symmetry_1
_geom_angle_site_symmetry_3
O3 Ba1 O3 123.42(3) 35_445 26_445
O3 Ba1 O3 137.12(3) 35_445 25_455
O3 Ba1 O3 93.61(2) 26_445 25_455
O3 Ba1 O3 93.61(2) 35_445 34_545
O3 Ba1 O3 137.12(3) 26_445 34_545
O3 Ba1 O3 65.83(3) 25_455 34_545
O3 Ba1 O3 93.61(2) 35_445 36
O3 Ba1 O3 65.83(3) 26_445 36
O3 Ba1 O3 123.42(3) 25_455 36
O3 Ba1 O3 93.61(2) 34_545 36
O3 Ba1 O3 65.83(3) 35_445 27
O3 Ba1 O3 93.61(2) 26_445 27
O3 Ba1 O3 93.61(2) 25_455 27
O3 Ba1 O3 123.42(3) 34_545 27
O3 Ba1 O3 137.12(3) 36 27
O3 Ba1 O3 177.511(19) 35_445 27_545
O3 Ba1 O3 57.15(2) 26_445 27_545
O3 Ba1 O3 43.88(2) 25_455 27_545
O3 Ba1 O3 84.957(16) 34_545 27_545
O3 Ba1 O3 84.459(16) 36 27_545
O3 Ba1 O3 116.66(2) 27 27_545
O3 Ba1 O3 57.15(2) 35_445 36_455
O3 Ba1 O3 177.511(19) 26_445 36_455
O3 Ba1 O3 84.957(16) 25_455 36_455
O3 Ba1 O3 43.88(2) 34_545 36_455
O3 Ba1 O3 116.66(2) 36 36_455
O3 Ba1 O3 84.459(16) 27 36_455
O3 Ba1 O3 122.41(2) 27_545 36_455
O3 Ba1 O3 43.88(3) 35_445 34_655
O3 Ba1 O3 84.458(16) 26_445 34_655
O3 Ba1 O3 177.51(2) 25_455 34_655
O3 Ba1 O3 116.66(2) 34_545 34_655
O3 Ba1 O3 57.15(2) 36 34_655
O3 Ba1 O3 84.958(16) 27 34_655
O3 Ba1 O3 135.26(2) 27_545 34_655
O3 Ba1 O3 96.917(18) 36_455 34_655
O3 Ba1 O3 84.458(16) 35_445 25_565
O3 Ba1 O3 43.88(3) 26_445 25_565
O3 Ba1 O3 116.66(2) 25_455 25_565
O3 Ba1 O3 177.51(2) 34_545 25_565
O3 Ba1 O3 84.958(16) 36 25_565
O3 Ba1 O3 57.15(2) 27 25_565
O3 Ba1 O3 96.917(18) 27_545 25_565
O3 Ba1 O3 135.26(2) 36_455 25_565
O3 Ba1 O3 60.85(3) 34_655 25_565
O3 Ba1 O3 84.957(16) 35_445 26_345
O3 Ba1 O3 116.66(2) 26_445 26_345
O3 Ba1 O3 57.15(2) 25_455 26_345
O3 Ba1 O3 84.459(16) 34_545 26_345
O3 Ba1 O3 177.511(19) 36 26_345
O3 Ba1 O3 43.88(3) 27 26_345
O3 Ba1 O3 96.916(18) 27_545 26_345
O3 Ba1 O3 60.85(3) 36_455 26_345
O3 Ba1 O3 122.41(2) 34_655 26_345
O3 Ba1 O3 96.916(18) 25_565 26_345
O3 Ba1 O3 116.66(2) 35_445 35_435
O3 Ba1 O3 84.957(16) 26_445 35_435
O3 Ba1 O3 84.459(16) 25_455 35_435
O3 Ba1 O3 57.15(2) 34_545 35_435
O3 Ba1 O3 43.88(3) 36 35_435
O3 Ba1 O3 177.511(19) 27 35_435
O3 Ba1 O3 60.85(3) 27_545 35_435
O3 Ba1 O3 96.916(18) 36_455 35_435
O3 Ba1 O3 96.916(18) 34_655 35_435
O3 Ba1 O3 122.41(2) 25_565 35_435
O3 Ba1 O3 135.26(3) 26_345 35_435
O3 Mg2 O3 180.00(6) 30_455 18_544
O3 Mg2 O3 86.63(3) 30_455 29_445
O3 Mg2 O3 93.37(3) 18_544 29_445
O3 Mg2 O3 93.37(3) 30_455 17_554
O3 Mg2 O3 86.63(3) 18_544 17_554
O3 Mg2 O3 180.00(7) 29_445 17_554
O3 Mg2 O3 86.63(3) 30_455 28
O3 Mg2 O3 93.37(3) 18_544 28
O3 Mg2 O3 86.63(3) 29_445 28
O3 Mg2 O3 93.37(3) 17_554 28
O3 Mg2 O3 93.37(3) 30_455 16_444
O3 Mg2 O3 86.63(3) 18_544 16_444
O3 Mg2 O3 93.37(3) 29_445 16_444
O3 Mg2 O3 86.63(3) 17_554 16_444
O3 Mg2 O3 180.00(5) 28 16_444
O3 Mg2 Ba1 41.85(2) 30_455 13_444
O3 Mg2 Ba1 138.15(2) 18_544 13_444
O3 Mg2 Ba1 98.35(2) 29_445 13_444
O3 Mg2 Ba1 81.65(2) 17_554 13_444
O3 Mg2 Ba1 47.86(3) 28 13_444
O3 Mg2 Ba1 132.14(3) 16_444 13_444
O3 Mg2 Ba1 138.15(2) 30_455 25
O3 Mg2 Ba1 41.85(2) 18_544 25
O3 Mg2 Ba1 81.65(2) 29_445 25
O3 Mg2 Ba1 98.35(2) 17_554 25
O3 Mg2 Ba1 132.14(3) 28 25
O3 Mg2 Ba1 47.86(3) 16_444 25
Ba1 Mg2 Ba1 180.0 13_444 25
O3 Mg2 Ba1 98.35(2) 30_455 13_554
O3 Mg2 Ba1 81.65(2) 18_544 13_554
O3 Mg2 Ba1 47.86(2) 29_445 13_554
O3 Mg2 Ba1 132.14(2) 17_554 13_554
O3 Mg2 Ba1 41.86(2) 28 13_554
O3 Mg2 Ba1 138.14(2) 16_444 13_554
Ba1 Mg2 Ba1 77.159(1) 13_444 13_554
Ba1 Mg2 Ba1 102.841(1) 25 13_554
O3 Mg2 Ba1 81.65(2) 30_455 25_445
O3 Mg2 Ba1 98.35(2) 18_544 25_445
O3 Mg2 Ba1 132.14(2) 29_445 25_445
O3 Mg2 Ba1 47.86(2) 17_554 25_445
O3 Mg2 Ba1 138.14(2) 28 25_445
O3 Mg2 Ba1 41.86(2) 16_444 25_445
Ba1 Mg2 Ba1 102.841(1) 13_444 25_445
Ba1 Mg2 Ba1 77.159(1) 25 25_445
Ba1 Mg2 Ba1 180.0 13_554 25_445
O3 Mg2 Ba1 132.14(2) 30_455 25_455
O3 Mg2 Ba1 47.86(2) 18_544 25_455
O3 Mg2 Ba1 138.14(2) 29_445 25_455
O3 Mg2 Ba1 41.86(2) 17_554 25_455
O3 Mg2 Ba1 81.64(2) 28 25_455
O3 Mg2 Ba1 98.36(2) 16_444 25_455
Ba1 Mg2 Ba1 102.841(1) 13_444 25_455
Ba1 Mg2 Ba1 77.159(1) 25 25_455
Ba1 Mg2 Ba1 102.841(1) 13_554 25_455
Ba1 Mg2 Ba1 77.159(1) 25_445 25_455
O3 Mg2 Ba1 47.86(2) 30_455 13_544
O3 Mg2 Ba1 132.14(2) 18_544 13_544
O3 Mg2 Ba1 41.86(2) 29_445 13_544
O3 Mg2 Ba1 138.14(2) 17_554 13_544
O3 Mg2 Ba1 98.36(2) 28 13_544
O3 Mg2 Ba1 81.64(2) 16_444 13_544
Ba1 Mg2 Ba1 77.159(1) 13_444 13_544
Ba1 Mg2 Ba1 102.841(1) 25 13_544
Ba1 Mg2 Ba1 77.159(1) 13_554 13_544
Ba1 Mg2 Ba1 102.841(1) 25_445 13_544
Ba1 Mg2 Ba1 180.0 25_455 13_544
C4 O3 Mg2 139.51(6) 1_565 16_554
C4 O3 Ba1 99.20(5) 1_565 25_455
Mg2 O3 Ba1 109.25(3) 16_554 25_455
C4 O3 Ba1 89.54(5) 1_565 25_565
Mg2 O3 Ba1 102.12(3) 16_554 25_565
Ba1 O3 Ba1 116.66(2) 25_455 25_565
O3 C4 O3 119.897(6) 2_665 3_455
O3 C4 O3 119.897(6) 2_665 1_545
O3 C4 O3 119.897(6) 3_455 1_545
O3 C4 Ba1 149.16(6) 2_665 25_445
O3 C4 Ba1 67.68(4) 3_455 25_445
O3 C4 Ba1 58.33(4) 1_545 25_445
O3 C4 Ba1 58.33(4) 2_665 25
O3 C4 Ba1 149.16(6) 3_455 25
O3 C4 Ba1 67.68(4) 1_545 25
Ba1 C4 Ba1 99.062(17) 25_445 25
O3 C4 Ba1 67.68(4) 2_665 25_455
O3 C4 Ba1 58.33(4) 3_455 25_455
O3 C4 Ba1 149.16(6) 1_545 25_455
Ba1 C4 Ba1 99.062(17) 25_445 25_455
Ba1 C4 Ba1 99.062(17) 25 25_455
loop_
_geom_bond_atom_site_label_1
_geom_bond_atom_site_label_2
_geom_bond_distance
_geom_bond_site_symmetry_2
Ba1 O3 2.8435(8) 35_445
Ba1 O3 2.8435(8) 26_445
Ba1 O3 2.8435(9) 25_455
Ba1 O3 2.8435(9) 34_545
Ba1 O3 2.8435(8) 36
Ba1 O3 2.8435(8) 27
Ba1 O3 3.0511(9) 27_545
Ba1 O3 3.0511(9) 36_455
Ba1 O3 3.0511(9) 34_655
Ba1 O3 3.0511(9) 25_565
Ba1 O3 3.0511(9) 26_345
Ba1 O3 3.0511(9) 35_435
Mg2 O3 2.0591(6) 30_455
Mg2 O3 2.0591(6) 18_544
Mg2 O3 2.0591(6) 29_445
Mg2 O3 2.0591(6) 17_554
Mg2 O3 2.0591(6) 28
Mg2 O3 2.0591(6) 16_444
Mg2 Ba1 4.02341(6) 13_444
Mg2 Ba1 4.02341(6) 25
Mg2 Ba1 4.02341(6) 13_554
Mg2 Ba1 4.02341(6) 25_445
Mg2 Ba1 4.02343(6) 25_455
Mg2 Ba1 4.02343(6) 13_544
O3 C4 1.2771(6) 1_565
O3 Mg2 2.0592(6) 16_554
O3 Ba1 2.8435(8) 25_455
O3 Ba1 3.0511(9) 25_565
C4 O3 1.2771(6) 2_665
C4 O3 1.2771(6) 3_455
C4 O3 1.2771(6) 1_545
C4 Ba1 3.2980(4) 25_445
C4 Ba1 3.2980(4) 25
C4 Ba1 3.2981(4) 25_455
