#------------------------------------------------------------------------------
#$Date: 2019-12-26 22:11:56 +0200 (Thu, 26 Dec 2019) $
#$Revision: 246154 $
#$URL: file:///home/coder/svn-repositories/cod/cif/2/31/18/2311887.cif $
#------------------------------------------------------------------------------
#
# This file is available in the Crystallography Open Database (COD),
# http://www.crystallography.net/. The original data for this entry
# were provided by IUCr Journals, http://journals.iucr.org/.
#
# The file may be used within the scientific community so long as
# proper attribution is given to the journal article from which the
# data were obtained.
#
data_2311887
loop_
_publ_author_name
'Schwendtner, Karolina'
'Kolitsch, Uwe'
_publ_section_title
;
 M<sup>3+</sup>(H<sub>2</sub>AsO<sub>4</sub>)(H<sub>2</sub>As<sub>2</sub>O<sub>7</sub>)
 (M<sup>3+</sup> = Al, Ga) and
 In<sub>2</sub>(H<sub>2</sub>AsO<sub>4</sub>)<sub>2</sub>(H<sub>2</sub>As<sub>2</sub>O<sub>7</sub>)<sub>2</sub>:
 a new layer structure type and a new framework structure type containing
 the rare H<sub>2</sub>As<sub>2</sub>O<sub>7</sub><sup>2-</sup> group.
;
_journal_coeditor_code           LY3048
_journal_issue                   'Pt 8'
_journal_name_full
'Acta crystallographica. Section C, Structural chemistry'
_journal_page_first              600
_journal_page_last               608
_journal_paper_doi               10.1107/S2053229617009676
_journal_volume                  73
_journal_year                    2017
_chemical_formula_iupac          'Ga (H2 As O4) (H2 As2 O7)'
_chemical_formula_structural     'Ga1 (H2 As1 O4) (H2 As2 O7)'
_chemical_formula_sum            'As3 Ga H4 O11'
_chemical_formula_weight         474.51
_chemical_name_common
'gallium dihydrogen arsenate dihydrogen diarsenate'
_chemical_name_systematic
'Gallium dihydrogen arsenate(V) dihydrogen diarsenate(V)'
_space_group_crystal_system      orthorhombic
_space_group_IT_number           62
_space_group_name_Hall           '-P 2ac 2n'
_space_group_name_H-M_alt        'P n m a'
_atom_sites_solution_hydrogens   difmap
_atom_sites_solution_primary     direct
_atom_sites_solution_secondary   difmap
_audit_creation_method           SHELXL-2016/6
_cell_angle_alpha                90
_cell_angle_beta                 90
_cell_angle_gamma                90
_cell_formula_units_Z            4
_cell_length_a                   4.9160(10)
_cell_length_b                   11.213(2)
_cell_length_c                   15.853(3)
_cell_measurement_reflns_used    1874
_cell_measurement_temperature    293(2)
_cell_measurement_theta_max      32.577
_cell_measurement_theta_min      2.037
_cell_volume                     873.9(3)
_computing_cell_refinement
;
SCALEPACK (Otwinowski <i>et al.</i>,  2003)
;
_computing_data_collection
;
COLLECT (Nonius, 2003)
;
_computing_data_reduction
;
DENZO and SCALEPACK (Otwinowski <i>et al.</i>,  2003)
;
_computing_molecular_graphics
;
DIAMOND (Brandenburg, 2005)
;
_computing_structure_refinement
;
SHELXL2016 (Sheldrick, 2015)
;
_computing_structure_solution
;
SHELXS97 (Sheldrick, 2008)
;
_diffrn_ambient_temperature      293(2)
_diffrn_measured_fraction_theta_full 0.996
_diffrn_measured_fraction_theta_max 0.996
_diffrn_measurement_device_type  'Nonius KappaCCD single-crystal four-circle'
_diffrn_measurement_method       '\f and \w scans'
_diffrn_radiation_type           MoK\a
_diffrn_radiation_wavelength     0.71073
_diffrn_reflns_av_R_equivalents  0.0150
_diffrn_reflns_limit_h_max       7
_diffrn_reflns_limit_h_min       -7
_diffrn_reflns_limit_k_max       16
_diffrn_reflns_limit_k_min       -16
_diffrn_reflns_limit_l_max       23
_diffrn_reflns_limit_l_min       -23
_diffrn_reflns_number            2970
_diffrn_reflns_theta_full        25.242
_diffrn_reflns_theta_max         32.533
_diffrn_reflns_theta_min         3.634
_exptl_absorpt_coefficient_mu    14.474
_exptl_absorpt_correction_T_max  0.6706
_exptl_absorpt_correction_T_min  0.2201
_exptl_absorpt_correction_type   multi-scan
_exptl_absorpt_process_details
;
(SCALEPACK; Otwinowski <i>et al.</i>,  2003)
;
_exptl_crystal_colour            colourless
_exptl_crystal_density_diffrn    3.607
_exptl_crystal_density_method    'not measured'
_exptl_crystal_description       acicular
_exptl_crystal_F_000             888
_exptl_crystal_size_max          0.150
_exptl_crystal_size_mid          0.070
_exptl_crystal_size_min          0.030
_refine_diff_density_max         1.891
_refine_diff_density_min         -1.522
_refine_ls_extinction_coef       0.0010(3)
_refine_ls_extinction_expression Fc^*^=kFc[1+0.001xFc^2^\l^3^/sin(2\q)]^-1/4^
_refine_ls_extinction_method
;
SHELXL2016 (Sheldrick, 2015)
;
_refine_ls_goodness_of_fit_ref   1.140
_refine_ls_hydrogen_treatment    refall
_refine_ls_matrix_type           full
_refine_ls_number_parameters     84
_refine_ls_number_reflns         1652
_refine_ls_number_restraints     0
_refine_ls_restrained_S_all      1.140
_refine_ls_R_factor_all          0.0364
_refine_ls_R_factor_gt           0.0309
_refine_ls_shift/su_max          0.001
_refine_ls_shift/su_mean         0.000
_refine_ls_structure_factor_coef Fsqd
_refine_ls_weighting_details
'w=1/[\s^2^(Fo^2^)+(0.0405P)^2^+3.2043P] where P=(Fo^2^+2Fc^2^)/3'
_refine_ls_weighting_scheme      calc
_refine_ls_wR_factor_gt          0.0794
_refine_ls_wR_factor_ref         0.0818
_reflns_number_gt                1470
_reflns_number_total             1652
_reflns_threshold_expression     'I > 2\s(I)'
_cod_data_source_file            ly3048sup1.cif
_cod_data_source_block           GaH2AsO4H2As2O7
_cod_database_code               2311887
_shelx_space_group_comment
;
The symmetry employed for this shelxl refinement is uniquely defined
by the following loop, which should always be used as a source of
symmetry information in preference to the above space-group names.
They are only intended as comments.
;
_shelx_estimated_absorpt_t_min   0.220
_shelx_estimated_absorpt_t_max   0.671
_shelx_hkl_file
;
   0   0   2   -0.20    0.10   1
   0   0   3    0.80    0.20   1
   0   0   4 2399.20   25.80   1
   0   0   5    1.60    0.30   1
   0   0   6  901.10   10.10   1
   0   0   7   -0.60    0.40   1
   0   0   8 3062.40   31.60   1
   0   0   9    2.10    0.70   1
   0   0  10 4002.00   57.90   1
   0   0  11    3.00    0.90   1
   0   0  12  423.50    7.10   1
   0   0  13    1.90    0.90   1
   0   0  14  630.40   10.80   1
   0   0  15    1.90    1.30   1
   0   0  16  134.20    3.70   1
   0   0  17    1.10    1.50   1
   0   0  18 1628.90   29.90   1
   0   0  19    1.60    2.40   1
   0   0  20  361.70   10.40   1
   0   0  21   -3.60    2.70   1
   0   0  22   81.10    4.60   1
   0   0  23   -3.30    3.00   1
   0   1   1   -0.10    0.00   1
   0   1   2    0.50    0.10   1
   0   1   3    2.00    0.20   1
   0   1   4    1.00    0.20   1
   0   1   5  246.00    2.10   1
   0   1   6    0.40    0.30   1
   0   1   7    8.90    0.30   1
   0   1   8    1.50    0.30   1
   0   1   9  448.20    5.20   1
   0   1  10    2.50    0.50   1
   0   1  11  131.10    2.00   1
   0   1  12   -0.30    0.60   1
   0   1  13  137.80    2.30   1
   0   1  14   -0.20    0.80   1
   0   1  15  180.90    3.00   1
   0   1  16    0.50    0.80   1
   0   1  17   40.50    1.60   1
   0   1  18    3.00    1.40   1
   0   1  19  165.20    4.30   1
   0   1  20    3.60    1.80   1
   0   1  21    8.00    2.00   1
   0   1  22   -1.00    2.10   1
   0   1  23  167.30    5.50   1
   0   2   0  158.70    2.20   1
   0   2   1    0.30    0.10   1
   0   2   2  416.00    3.80   1
   0   2   3    1.50    0.20   1
   0   2   4 1373.80   11.00   1
   0   2   5    0.80    0.20   1
   0   2   6  866.80    6.80   1
   0   2   7    0.20    0.30   1
   0   2   8  269.20    2.60   1
   0   2   9    0.10    0.40   1
   0   2  10   62.20    1.00   1
   0   2  11    0.60    0.50   1
   0   2  12   80.10    1.20   1
   0   2  13    0.30    0.50   1
   0   2  14  317.80    3.80   1
   0   2  15    0.70    0.90   1
   0   2  16  371.60    6.20   1
   0   2  17   -0.40    1.10   1
   0   2  18   87.50    2.40   1
   0   2  19   -0.50    1.30   1
   0   2  20    0.20    1.60   1
   0   2  21    5.90    2.30   1
   0   2  22   14.90    2.80   1
   0   2  23   -2.90    2.80   1
   0   3   0    2.90    0.20   1
   0   3   1 4134.30   32.80   1
   0   3   2    2.60    0.20   1
   0   3   3 2805.70   24.10   1
   0   3   4    0.70    0.20   1
   0   3   5  116.10    1.20   1
   0   3   6    0.10    0.20   1
   0   3   7 2983.10   23.30   1
   0   3   8    1.20    0.40   1
   0   3   9  104.70    1.40   1
   0   3  10    0.70    0.40   1
   0   3  11 2836.10   28.00   1
   0   3  12    1.10    0.50   1
   0   3  13  228.10    2.80   1
   0   3  14    1.30    0.60   1
   0   3  15  518.30    7.40   1
   0   3  16    1.00    1.00   1
   0   3  17  582.00    8.30   1
   0   3  18   -0.50    1.20   1
   0   3  19   57.10    2.10   1
   0   3  20    0.00    1.70   1
   0   3  21  295.00    7.70   1
   0   3  22    2.30    2.80   1
   0   3  23   26.00    3.30   1
   0   4   0   30.30    0.60   1
   0   4   1    0.80    0.20   1
   0   4   2   48.90    0.70   1
   0   4   3    0.30    0.20   1
   0   4   4  468.80    4.10   1
   0   4   5    1.20    0.20   1
   0   4   6  289.40    2.70   1
   0   4   7    0.20    0.30   1
   0   4   8  128.80    1.60   1
   0   4   9    0.50    0.40   1
   0   4  10  851.20    8.70   1
   0   4  11    1.10    0.50   1
   0   4  12 1408.30   14.60   1
   0   4  13    0.50    0.70   1
   0   4  14  350.90    4.40   1
   0   4  15    1.00    0.90   1
   0   4  16   80.00    2.10   1
   0   4  17    0.10    1.20   1
   0   4  18   13.80    1.60   1
   0   4  19    0.70    1.80   1
   0   4  20  369.90    7.50   1
   0   4  21   -1.10    2.30   1
   0   4  22  304.70    8.80   1
   0   4  23    5.70    3.10   1
   0   5   0    0.30    0.30   1
   0   5   1  123.70    1.30   1
   0   5   2    0.90    0.30   1
   0   5   3  527.10    4.40   1
   0   5   4    0.80    0.20   1
   0   5   5   32.70    0.70   1
   0   5   6    2.10    0.30   1
   0   5   7  539.90    7.00   1
   0   5   8    1.20    0.40   1
   0   5   9   32.40    0.70   1
   0   5  10    0.00    0.40   1
   0   5  11  321.50    3.90   1
   0   5  12   -0.10    0.60   1
   0   5  13  244.80    3.70   1
   0   5  14   -0.70    0.90   1
   0   5  15   49.00    1.60   1
   0   5  16   -0.40    1.30   1
   0   5  17  148.20    3.50   1
   0   5  18    1.20    1.40   1
   0   5  19    0.90    1.60   1
   0   5  20   -0.20    2.00   1
   0   5  21   43.80    3.00   1
   0   5  22   -4.80    2.60   1
   0   6   0 1556.70   17.40   1
   0   6   1    2.50    0.30   1
   0   6   2  313.70    3.20   1
   0   6   3    3.80    0.30   1
   0   6   4 2853.40   26.90   1
   0   6   5    4.00    0.40   1
   0   6   6 1358.20   14.60   1
   0   6   7    0.80    0.60   1
   0   6   8   54.60    1.30   1
   0   6   9    0.20    0.70   1
   0   6  10  205.30    2.80   1
   0   6  11   -0.40    0.50   1
   0   6  12  817.20   10.00   1
   0   6  13    1.50    0.80   1
   0   6  14  900.90   11.70   1
   0   6  15    2.60    1.20   1
   0   6  16  125.10    2.90   1
   0   6  17    0.90    1.40   1
   0   6  18   39.30    2.20   1
   0   6  19    4.50    2.30   1
   0   6  20   -0.10    2.10   1
   0   6  21    2.60    2.50   1
   0   6  22  225.10    7.70   1
   0   7   0   -0.10    0.50   1
   0   7   1   65.30    1.10   1
   0   7   2    0.50    0.50   1
   0   7   3  130.40    1.90   1
   0   7   4    0.60    0.30   1
   0   7   5  181.50    2.60   1
   0   7   6    2.00    0.70   1
   0   7   7   69.20    1.40   1
   0   7   8    1.10    0.80   1
   0   7   9  413.60    6.10   1
   0   7  10    0.20    0.80   1
   0   7  11  233.40    4.00   1
   0   7  12   -1.50    1.00   1
   0   7  13  103.70    2.50   1
   0   7  14    1.40    1.20   1
   0   7  15  364.10    5.80   1
   0   7  16   -1.40    1.40   1
   0   7  17   14.70    1.70   1
   0   7  18    0.80    1.80   1
   0   7  19  268.30    6.60   1
   0   7  20   -2.70    2.10   1
   0   7  21    4.70    2.80   1
   0   8   0 4731.10   68.10   1
   0   8   1   38.80    1.50   1
   0   8   2 1122.40   13.10   1
   0   8   3    0.60    0.50   1
   0   8   4  476.70    5.30   1
   0   8   5    2.20    0.50   1
   0   8   6   81.40    1.70   1
   0   8   7    1.10    0.60   1
   0   8   8 1031.10   14.00   1
   0   8   9    7.00    1.20   1
   0   8  10  939.00   13.20   1
   0   8  11    3.40    1.40   1
   0   8  12    3.70    1.10   1
   0   8  13    0.30    1.10   1
   0   8  14  197.80    3.90   1
   0   8  15    0.10    1.40   1
   0   8  16   63.70    2.30   1
   0   8  17    2.10    1.80   1
   0   8  18  567.60   11.20   1
   0   8  19    3.20    2.40   1
   0   8  20  172.70    5.70   1
   0   8  21   -2.10    4.20   1
   0   9   0    0.40    1.00   1
   0   9   1  230.10    3.20   1
   0   9   2    3.50    0.60   1
   0   9   3  227.20    2.90   1
   0   9   4    1.50    0.40   1
   0   9   5    1.80    0.60   1
   0   9   6    1.30    0.40   1
   0   9   7  181.80    2.70   1
   0   9   8    1.40    0.50   1
   0   9   9   61.70    2.20   1
   0   9  10    0.10    1.20   1
   0   9  11  140.70    3.20   1
   0   9  12   -0.60    1.10   1
   0   9  13   25.30    1.60   1
   0   9  14    1.00    1.50   1
   0   9  15   11.00    1.70   1
   0   9  16    1.70    1.70   1
   0   9  17   76.40    3.00   1
   0   9  18    0.30    2.10   1
   0   9  19   -3.10    2.30   1
   0   9  20    9.00    2.80   1
   0  10   0  402.40    8.30   1
   0  10   1    4.30    0.90   1
   0  10   2  225.80    3.40   1
   0  10   3    0.60    0.60   1
   0  10   4    5.50    0.50   1
   0  10   5    1.00    0.60   1
   0  10   6  159.60    3.00   1
   0  10   7    2.30    0.80   1
   0  10   8  532.60    7.50   1
   0  10   9    2.10    0.90   1
   0  10  10   82.50    2.50   1
   0  10  11   -2.10    1.30   1
   0  10  12   14.10    1.80   1
   0  10  13   -1.00    1.30   1
   0  10  14    2.30    1.50   1
   0  10  15   -0.80    1.80   1
   0  10  16  340.40    8.00   1
   0  10  17    3.60    2.30   1
   0  10  18  198.20    5.80   1
   0  10  19    1.30    2.50   1
   0  11   0    4.50    1.40   1
   0  11   1  526.20    7.70   1
   0  11   2   21.70    1.60   1
   0  11   3 1159.80   15.90   1
   0  11   4    1.90    0.90   1
   0  11   5   73.00    2.20   1
   0  11   6    6.50    1.10   1
   0  11   7 1022.20   13.10   1
   0  11   8    3.30    1.10   1
   0  11   9    2.50    1.20   1
   0  11  10    1.60    1.40   1
   0  11  11  712.40   13.40   1
   0  11  12    5.50    2.00   1
   0  11  13  158.50    4.30   1
   0  11  14    1.10    1.90   1
   0  11  15  290.40    7.60   1
   0  11  16    1.80    2.60   1
   0  11  17  224.50    6.30   1
   0  11  18   -1.30    2.60   1
   0  12   0  211.80    5.50   1
   0  12   1   10.50    1.40   1
   0  12   2   50.40    1.70   1
   0  12   3    1.80    1.00   1
   0  12   4   16.00    1.40   1
   0  12   5    0.00    1.20   1
   0  12   6   26.60    1.80   1
   0  12   7    0.50    1.30   1
   0  12   8  151.20    3.50   1
   0  12   9    2.40    1.60   1
   0  12  10  331.20    6.80   1
   0  12  11    4.60    1.70   1
   0  12  12  127.90    3.90   1
   0  12  13    4.10    2.10   1
   0  12  14   19.30    2.50   1
   0  12  15   -4.00    2.30   1
   0  12  16   -2.60    2.70   1
   0  13   0    1.10    2.00   1
   0  13   1    9.30    1.40   1
   0  13   2    0.70    1.50   1
   0  13   3   27.80    2.10   1
   0  13   4    2.30    1.50   1
   0  13   5   14.50    1.60   1
   0  13   6    2.80    1.50   1
   0  13   7    4.80    2.00   1
   0  13   8   -0.10    1.50   1
   0  13   9   51.70    2.60   1
   0  13  10    1.40    2.10   1
   0  13  11   11.70    2.20   1
   0  13  12    3.30    2.30   1
   0  13  13   30.90    2.80   1
   0  13  14    0.20    2.20   1
   0  13  15   64.90    3.70   1
   0  14   0  458.00   12.70   1
   0  14   1   11.50    2.40   1
   0  14   2    1.10    1.80   1
   0  14   3   10.80    2.50   1
   0  14   4 1174.80   19.40   1
   0  14   5   40.30    3.50   1
   0  14   6  436.00    8.10   1
   0  14   7   -1.10    1.80   1
   0  14   8  112.90    4.00   1
   0  14   9    2.60    1.90   1
   0  14  10   86.80    3.80   1
   0  14  11    0.30    2.30   1
   0  14  12  225.10    6.80   1
   0  14  13    5.40    2.50   1
   0  15   0   -0.70    2.70   1
   0  15   1    3.60    2.20   1
   0  15   2    3.00    2.10   1
   0  15   3    1.60    2.10   1
   0  15   4   -2.10    2.00   1
   0  15   5   11.40    2.20   1
   0  15   6   -1.20    2.00   1
   0  15   7   -0.30    2.30   1
   0  15   8    1.80    2.40   1
   0  15   9   53.30    3.10   1
   0  15  10    1.10    2.40   1
   0  15  11    4.50    4.40   1
   0  16   0  187.70    8.60   1
   0  16   1   29.70    2.80   1
   0  16   2   74.80    3.90   1
   0  16   3    3.90    2.20   1
   0  16   4   11.70    2.60   1
   0  16   5    1.30    2.40   1
   0  16   6    3.20    2.40   1
   0  16   7   -0.60    2.80   1
   1   0   0    1.00    0.10   1
   1   0   1   27.30    0.30   1
   1   0   2   32.90    0.30   1
   1   0   3 2762.90   19.30   1
   1   0   4   36.20    0.50   1
   1   0   5 1556.30   11.40   1
   1   0   6 1531.10   11.30   1
   1   0   7    0.90    0.30   1
   1   0   8   10.70    0.40   1
   1   0   9   66.50    1.00   1
   1   0  10    4.00    0.50   1
   1   0  11  945.00    9.20   1
   1   0  12   24.10    0.90   1
   1   0  13 1457.00   15.90   1
   1   0  14   11.10    0.80   1
   1   0  15   23.00    1.10   1
   1   0  16    1.30    0.80   1
   1   0  17  125.30    2.70   1
   1   0  18   63.60    2.10   1
   1   0  19   65.70    2.20   1
   1   0  20    3.80    2.10   1
   1   0  21  759.70   14.10   1
   1   0  22    0.80    2.40   1
   1   0  23  132.70    4.90   1
   1   1   0    0.80    0.10   1
   1   1   1  101.90    0.80   1
  -1  -1  -1  103.10    0.80   1
   1   1   2 4078.20   25.50   1
  -1  -1  -2 3954.30   27.60   1
   1   1   3   70.20    0.60   1
  -1  -1  -3   70.80    0.70   1
   1   1   4  301.60    2.40   1
  -1  -1  -4  301.70    2.50   1
   1   1   5  138.90    1.30   1
  -1  -1  -5  141.10    1.40   1
   1   1   6 1037.00    7.90   1
  -1  -1  -6 1021.80    7.90   1
   1   1   7    9.60    0.40   1
  -1  -1  -7    9.10    0.30   1
   1   1   8  960.10    8.60   1
  -1  -1  -8  971.90    7.80   1
   1   1   9   33.70    0.70   1
  -1  -1  -9   32.00    0.60   1
   1   1  10  459.50    5.10   1
  -1  -1 -10  455.30    4.60   1
   1   1  11   19.10    0.80   1
  -1  -1 -11   18.70    0.60   1
   1   1  12  704.10    8.50   1
  -1  -1 -12  704.90    7.80   1
   1   1  13    2.00    0.90   1
  -1  -1 -13    1.70    0.60   1
   1   1  14   41.00    1.20   1
  -1  -1 -14   39.30    1.10   1
   1   1  15    0.10    0.90   1
  -1  -1 -15    4.30    0.90   1
   1   1  16  382.90    5.40   1
  -1  -1 -16  372.80    5.50   1
   1   1  17   -1.00    1.20   1
  -1  -1 -17   -1.70    1.10   1
   1   1  18   30.00    1.70   1
  -1  -1 -18   27.40    1.60   1
   1   1  19   11.10    1.70   1
  -1  -1 -19   12.50    1.60   1
   1   1  20  181.20    4.30   1
  -1  -1 -20  181.90    4.50   1
   1   1  21    5.10    1.90   1
  -1  -1 -21    4.70    2.20   1
   1   1  22   34.10    2.90   1
  -1  -1 -22   34.00    2.90   1
   1   1  23   10.20    2.60   1
  -1  -1 -23    6.20    2.90   1
   1   2   0    0.30    0.10   1
   1   2   1    1.40    0.10   1
  -1  -2  -1    0.90    0.10   1
   1   2   2  100.00    0.80   1
  -1  -2  -2  100.90    0.90   1
   1   2   3 1460.40   10.60   1
  -1  -2  -3 1474.30   11.00   1
   1   2   4   88.50    0.80   1
  -1  -2  -4   86.00    0.80   1
   1   2   5 1636.10   12.40   1
  -1  -2  -5 1626.00   12.20   1
   1   2   6   40.10    0.60   1
  -1  -2  -6   41.30    0.60   1
   1   2   7  876.00    7.00   1
  -1  -2  -7  878.30    7.30   1
   1   2   8  136.70    1.60   1
  -1  -2  -8  140.10    1.50   1
   1   2   9   34.40    0.80   1
  -1  -2  -9   37.20    0.70   1
   1   2  10    4.40    0.50   1
  -1  -2 -10    3.80    0.50   1
   1   2  11   20.40    0.70   1
  -1  -2 -11   20.40    0.70   1
   1   2  12   77.80    1.40   1
  -1  -2 -12   79.30    1.50   1
   1   2  13  640.50    6.80   1
  -1  -2 -13  637.30    7.00   1
   1   2  14   24.30    0.90   1
  -1  -2 -14   26.10    1.20   1
   1   2  15  532.90    7.50   1
  -1  -2 -15  535.50    7.30   1
   1   2  16   21.30    1.20   1
  -1  -2 -16   21.50    1.30   1
   1   2  17   79.80    2.10   1
  -1  -2 -17   82.10    2.30   1
   1   2  18   22.30    1.70   1
  -1  -2 -18   27.30    1.70   1
   1   2  19    7.80    1.70   1
  -1  -2 -19    6.10    1.70   1
   1   2  20   -2.10    1.70   1
  -1  -2 -20    2.30    1.80   1
   1   2  21   31.30    2.40   1
  -1  -2 -21   34.50    2.60   1
   1   2  22   20.60    2.40   1
  -1  -2 -22   30.10    3.00   1
   1   2  23  112.90    4.60   1
  -1  -2 -23  116.50    5.10   1
   1   3   0    0.80    0.20   1
   1   3   1   42.80    0.50   1
  -1  -3  -1   41.10    0.50   1
   1   3   2  486.90    3.70   1
  -1  -3  -2  487.50    4.10   1
   1   3   3   41.60    0.50   1
  -1  -3  -3   40.90    0.50   1
   1   3   4    0.90    0.20   1
  -1  -3  -4    0.70    0.20   1
   1   3   5  159.40    1.40   1
  -1  -3  -5  155.10    1.30   1
   1   3   6  223.40    2.00   1
  -1  -3  -6  226.70    1.90   1
   1   3   7   42.90    0.70   1
  -1  -3  -7   41.90    0.60   1
   1   3   8    7.80    0.40   1
  -1  -3  -8    7.10    0.40   1
   1   3   9   23.00    0.70   1
  -1  -3  -9   23.60    0.70   1
   1   3  10  490.30    6.00   1
  -1  -3 -10  488.80    5.30   1
   1   3  11    4.10    0.50   1
  -1  -3 -11    3.70    0.60   1
   1   3  12   27.10    0.90   1
  -1  -3 -12   27.90    0.90   1
   1   3  13    5.50    0.60   1
  -1  -3 -13    7.50    0.70   1
   1   3  14  406.30    5.10   1
  -1  -3 -14  412.70    5.70   1
   1   3  15    2.30    0.90   1
  -1  -3 -15    3.10    1.00   1
   1   3  16  122.10    2.60   1
  -1  -3 -16  115.80    2.50   1
   1   3  17   45.70    1.80   1
  -1  -3 -17   45.70    1.80   1
   1   3  18  187.40    4.40   1
  -1  -3 -18  180.00    4.20   1
   1   3  19    4.10    1.70   1
  -1  -3 -19    6.30    1.60   1
   1   3  20  208.30    4.80   1
  -1  -3 -20  211.00    4.90   1
   1   3  21    4.40    2.10   1
  -1  -3 -21    1.90    2.40   1
   1   3  22   65.10    3.00   1
  -1  -3 -22   68.90    4.00   1
   1   3  23    2.10    2.60   1
  -1  -3 -23    4.50    3.00   1
   1   4   0   14.10    0.40   1
   1   4   1 4353.40   33.80   1
  -1  -4  -1 4330.00   32.60   1
   1   4   2  223.60    2.00   1
  -1  -4  -2  222.40    1.90   1
   1   4   3   80.20    0.90   1
  -1  -4  -3   80.20    0.90   1
   1   4   4  294.80    2.50   1
  -1  -4  -4  295.70    2.60   1
   1   4   5  784.70    6.10   1
  -1  -4  -5  785.30    6.10   1
   1   4   6   70.00    0.80   1
  -1  -4  -6   70.40    0.90   1
   1   4   7  449.20    4.20   1
  -1  -4  -7  451.50    4.60   1
   1   4   8   91.00    1.50   1
  -1  -4  -8   91.90    1.30   1
   1   4   9 4043.00   43.20   1
  -1  -4  -9 4057.30   34.80   1
   1   4  10    4.00    0.70   1
  -1  -4 -10    5.00    0.50   1
   1   4  11  646.80    7.50   1
  -1  -4 -11  658.50    6.80   1
   1   4  12   32.70    1.10   1
  -1  -4 -12   33.40    0.90   1
   1   4  13  320.70    4.90   1
  -1  -4 -13  331.20    4.00   1
   1   4  14   31.60    1.50   1
  -1  -4 -14   31.10    1.20   1
   1   4  15   37.40    1.30   1
  -1  -4 -15   36.30    1.40   1
   1   4  16    6.20    1.30   1
  -1  -4 -16    8.30    1.30   1
   1   4  17  547.50    8.60   1
  -1  -4 -17  568.30    8.80   1
   1   4  18    4.50    1.60   1
  -1  -4 -18    0.90    1.50   1
   1   4  19  594.00   10.40   1
  -1  -4 -19  601.20   11.20   1
   1   4  20    1.10    1.80   1
  -1  -4 -20    1.20    2.00   1
   1   4  21    2.40    2.00   1
  -1  -4 -21    0.10    2.20   1
   1   4  22    5.40    2.40   1
  -1  -4 -22    2.00    2.80   1
   1   4  23   29.90    3.60   1
  -1  -4 -23   29.00    4.50   1
   1   5   0    0.80    0.20   1
   1   5   1   53.10    0.70   1
  -1  -5  -1   53.90    0.70   1
   1   5   2  124.30    1.20   1
  -1  -5  -2  122.10    1.20   1
   1   5   3   17.50    0.40   1
  -1  -5  -3   17.70    0.40   1
   1   5   4    1.80    0.30   1
  -1  -5  -4    2.10    0.30   1
   1   5   5   99.60    1.20   1
  -1  -5  -5   97.30    1.20   1
   1   5   6    1.20    0.40   1
  -1  -5  -6    0.80    0.30   1
   1   5   7    7.60    0.50   1
  -1  -5  -7    6.70    0.50   1
   1   5   8  173.40    2.10   1
  -1  -5  -8  178.00    2.70   1
   1   5   9   55.40    1.00   1
  -1  -5  -9   54.30    1.20   1
   1   5  10    4.40    0.70   1
  -1  -5 -10    3.20    0.60   1
   1   5  11   23.60    1.00   1
  -1  -5 -11   25.60    0.90   1
   1   5  12   53.20    1.50   1
  -1  -5 -12   55.70    1.20   1
   1   5  13   10.00    1.00   1
  -1  -5 -13    8.00    1.00   1
   1   5  14   62.60    1.80   1
  -1  -5 -14   58.20    1.60   1
   1   5  15   46.00    1.80   1
  -1  -5 -15   43.50    1.60   1
   1   5  16    1.90    1.30   1
  -1  -5 -16   -0.50    1.20   1
   1   5  17    6.20    1.40   1
  -1  -5 -17    5.60    1.70   1
   1   5  18  100.90    3.10   1
  -1  -5 -18  103.00    3.20   1
   1   5  19    4.40    1.80   1
  -1  -5 -19    5.90    2.00   1
   1   5  20    4.30    2.10   1
  -1  -5 -20    3.40    2.10   1
   1   5  21   12.90    2.20   1
  -1  -5 -21   13.00    2.70   1
   1   5  22   26.20    3.10   1
  -1  -5 -22   30.50    3.40   1
   1   6   0    3.10    0.30   1
   1   6   1  674.30    6.90   1
  -1  -6  -1  670.90    6.10   1
   1   6   2   69.10    1.00   1
  -1  -6  -2   67.60    0.90   1
   1   6   3   66.30    1.10   1
  -1  -6  -3   66.70    1.00   1
   1   6   4    1.70    0.30   1
  -1  -6  -4    1.80    0.40   1
   1   6   5  167.10    2.20   1
  -1  -6  -5  163.30    2.20   1
   1   6   6   29.00    0.80   1
  -1  -6  -6   29.70    0.80   1
   1   6   7  675.60    7.00   1
  -1  -6  -7  666.30    8.40   1
   1   6   8   96.40    1.60   1
  -1  -6  -8   92.80    1.60   1
   1   6   9  517.90    6.60   1
  -1  -6  -9  502.80    6.00   1
   1   6  10    0.20    0.50   1
  -1  -6 -10    0.10    0.60   1
   1   6  11    1.70    0.70   1
  -1  -6 -11    2.00    0.70   1
   1   6  12   31.90    1.40   1
  -1  -6 -12   31.80    1.20   1
   1   6  13    1.10    1.20   1
  -1  -6 -13    1.30    0.90   1
   1   6  14    8.30    1.30   1
  -1  -6 -14    8.30    1.00   1
   1   6  15  292.70    5.10   1
  -1  -6 -15  303.60    5.30   1
   1   6  16   -1.60    1.40   1
  -1  -6 -16    2.50    1.50   1
   1   6  17  435.10    7.70   1
  -1  -6 -17  438.10    8.40   1
   1   6  18   58.60    2.60   1
  -1  -6 -18   49.80    2.60   1
   1   6  19   27.50    2.20   1
  -1  -6 -19   27.90    2.40   1
   1   6  20    0.80    2.20   1
  -1  -6 -20    4.00    2.30   1
   1   6  21   32.20    2.70   1
  -1  -6 -21   26.90    2.90   1
   1   6  22    0.70    3.40   1
  -1  -6 -22    5.70    4.10   1
   1   7   0    3.30    0.60   1
   1   7   1    9.10    0.60   1
  -1  -7  -1    9.20    0.60   1
   1   7   2 3019.30   29.70   1
  -1  -7  -2 3021.30   30.00   1
   1   7   3   41.80    1.00   1
  -1  -7  -3   40.00    0.80   1
   1   7   4  346.50    3.70   1
  -1  -7  -4  342.10    4.10   1
   1   7   5    9.40    0.50   1
  -1  -7  -5    8.60    0.60   1
   1   7   6 1433.50   15.30   1
  -1  -7  -6 1456.10   15.70   1
   1   7   7    7.00    0.60   1
  -1  -7  -7    4.90    0.50   1
   1   7   8  801.40    9.50   1
  -1  -7  -8  808.00   10.50   1
   1   7   9   16.00    0.80   1
  -1  -7  -9   14.90    1.00   1
   1   7  10  559.70    7.40   1
  -1  -7 -10  560.90    7.20   1
   1   7  11    9.90    1.10   1
  -1  -7 -11   10.00    1.00   1
   1   7  12  797.30   12.60   1
  -1  -7 -12  808.80   10.70   1
   1   7  13    2.40    1.10   1
  -1  -7 -13    0.50    1.10   1
   1   7  14   82.30    2.30   1
  -1  -7 -14   84.00    2.40   1
   1   7  15    4.90    1.40   1
  -1  -7 -15    4.60    1.50   1
   1   7  16  561.00    8.80   1
  -1  -7 -16  566.60    9.50   1
   1   7  17    0.30    1.80   1
  -1  -7 -17    0.20    2.00   1
   1   7  18    1.60    1.80   1
  -1  -7 -18    4.70    1.90   1
   1   7  19   -0.30    1.90   1
  -1  -7 -19    4.70    2.40   1
   1   7  20  236.00    6.40   1
  -1  -7 -20  239.40    6.90   1
   1   7  21    1.30    2.60   1
  -1  -7 -21   -2.90    2.70   1
   1   8   0    1.80    0.60   1
   1   8   1  155.70    2.30   1
  -1  -8  -1  156.30    2.20   1
   1   8   2   15.50    0.70   1
  -1  -8  -2   14.70    0.70   1
   1   8   3  422.70    5.10   1
  -1  -8  -3  419.30    4.60   1
   1   8   4  110.10    1.50   1
  -1  -8  -4  109.30    1.80   1
   1   8   5  468.40    5.00   1
  -1  -8  -5  462.70    5.50   1
   1   8   6   53.40    1.10   1
  -1  -8  -6   51.10    1.10   1
   1   8   7    0.30    0.50   1
  -1  -8  -7    0.20    0.60   1
   1   8   8    5.60    0.80   1
  -1  -8  -8    3.60    1.00   1
   1   8   9   36.80    1.20   1
  -1  -8  -9   37.40    1.70   1
   1   8  10    7.80    1.10   1
  -1  -8 -10    9.30    1.10   1
   1   8  11  374.20    6.70   1
  -1  -8 -11  385.90    6.10   1
   1   8  12    2.40    1.10   1
  -1  -8 -12    3.10    1.10   1
   1   8  13  367.10    6.00   1
  -1  -8 -13  375.70    6.10   1
   1   8  14    1.20    1.30   1
  -1  -8 -14    0.90    1.40   1
   1   8  15   13.80    1.50   1
  -1  -8 -15   16.20    1.70   1
   1   8  16   11.30    1.70   1
  -1  -8 -16   17.80    2.10   1
   1   8  17   18.00    1.90   1
  -1  -8 -17   18.40    2.00   1
   1   8  18   10.80    2.00   1
  -1  -8 -18   11.70    2.20   1
   1   8  19   92.60    3.50   1
  -1  -8 -19   97.70    4.10   1
   1   8  20    1.10    2.70   1
  -1  -8 -20    5.60    2.70   1
   1   9   0    3.80    0.80   1
   1   9   1   98.80    2.00   1
  -1  -9  -1  104.10    1.80   1
   1   9   2   57.70    1.30   1
  -1  -9  -2   58.20    1.20   1
   1   9   3   19.10    0.80   1
  -1  -9  -3   21.50    0.70   1
   1   9   4   42.80    1.00   1
  -1  -9  -4   45.40    1.20   1
   1   9   5   38.30    0.90   1
  -1  -9  -5   35.40    1.10   1
   1   9   6    6.30    0.60   1
  -1  -9  -6    5.30    0.70   1
   1   9   7   24.80    0.90   1
  -1  -9  -7   27.00    1.00   1
   1   9   8   37.40    1.00   1
  -1  -9  -8   36.60    1.60   1
   1   9   9   29.60    1.10   1
  -1  -9  -9   30.70    1.60   1
   1   9  10    9.30    1.20   1
  -1  -9 -10    6.90    1.20   1
   1   9  11    3.00    1.40   1
  -1  -9 -11    7.30    1.10   1
   1   9  12   24.30    1.70   1
  -1  -9 -12   25.40    1.50   1
   1   9  13    4.20    1.30   1
  -1  -9 -13    8.00    1.50   1
   1   9  14   28.10    1.80   1
  -1  -9 -14   30.80    2.00   1
   1   9  15    4.70    1.50   1
  -1  -9 -15    3.40    1.70   1
   1   9  16    2.70    1.70   1
  -1  -9 -16    2.40    1.80   1
   1   9  17    1.20    1.90   1
  -1  -9 -17   -1.00    2.00   1
   1   9  18   38.40    2.70   1
  -1  -9 -18   40.80    3.00   1
   1   9  19   16.90    2.70   1
  -1  -9 -19   15.80    2.80   1
   1   9  20   -1.30    3.70   1
  -1  -9 -20   -0.30    3.30   1
   1  10   0    7.50    1.00   1
   1  10   1  232.70    4.10   1
  -1 -10  -1  241.30    3.40   1
   1  10   2   21.40    1.50   1
  -1 -10  -2   22.30    1.10   1
   1  10   3  760.90   10.60   1
  -1 -10  -3  786.90    8.70   1
   1  10   4   19.00    1.70   1
  -1 -10  -4   17.00    1.60   1
   1  10   5 1848.10   21.70   1
  -1 -10  -5 1883.10   21.70   1
   1  10   6   11.20    1.20   1
  -1 -10  -6   12.30    1.20   1
   1  10   7   69.00    1.80   1
  -1 -10  -7   70.90    1.80   1
   1  10   8   42.00    1.30   1
  -1 -10  -8   37.80    1.50   1
   1  10   9  302.90    5.00   1
  -1 -10  -9  303.80    5.00   1
   1  10  10    0.60    1.30   1
  -1 -10 -10    2.30    1.20   1
   1  10  11    8.30    1.50   1
  -1 -10 -11   10.30    1.50   1
   1  10  12   17.20    1.80   1
  -1 -10 -12   14.90    1.80   1
   1  10  13  825.10   13.10   1
  -1 -10 -13  829.60   13.40   1
   1  10  14    9.00    1.70   1
  -1 -10 -14    3.30    1.80   1
   1  10  15  346.10    6.90   1
  -1 -10 -15  346.50    6.80   1
   1  10  16   -0.40    1.90   1
  -1 -10 -16   -2.10    2.00   1
   1  10  17   19.80    2.70   1
  -1 -10 -17   18.90    2.30   1
   1  10  18   13.00    2.80   1
  -1 -10 -18    4.00    2.50   1
   1  10  19   24.40    3.70   1
  -1 -10 -19   14.50    4.80   1
   1  11   0    0.00    0.90   1
   1  11   1    3.30    1.10   1
  -1 -11  -1    2.70    0.80   1
   1  11   2   90.30    2.50   1
  -1 -11  -2   93.10    1.80   1
   1  11   3    4.50    1.20   1
  -1 -11  -3    2.50    0.90   1
   1  11   4    6.50    1.20   1
  -1 -11  -4    4.70    0.90   1
   1  11   5   -0.30    0.90   1
  -1 -11  -5    0.10    0.80   1
   1  11   6  147.70    2.80   1
  -1 -11  -6  151.70    3.20   1
   1  11   7    1.70    1.00   1
  -1 -11  -7    1.50    1.10   1
   1  11   8   -0.10    1.20   1
  -1 -11  -8    1.20    1.10   1
   1  11   9    3.30    1.40   1
  -1 -11  -9    0.50    1.40   1
   1  11  10  139.10    3.20   1
  -1 -11 -10  139.10    3.10   1
   1  11  11    1.00    1.50   1
  -1 -11 -11    1.30    1.40   1
   1  11  12   13.80    2.00   1
  -1 -11 -12   13.90    1.80   1
   1  11  13    0.40    1.60   1
  -1 -11 -13    1.50    1.50   1
   1  11  14  121.50    3.40   1
  -1 -11 -14  131.80    3.90   1
   1  11  15    1.60    1.90   1
  -1 -11 -15    2.60    2.00   1
   1  11  16   58.40    3.30   1
  -1 -11 -16   61.50    3.10   1
   1  11  17    7.50    2.60   1
  -1 -11 -17    1.70    2.50   1
   1  12   0   17.10    2.30   1
   1  12   1  434.90    6.50   1
  -1 -12  -1  419.90    6.70   1
   1  12   2    5.70    1.70   1
  -1 -12  -2    9.90    1.40   1
   1  12   3   20.90    1.50   1
  -1 -12  -3   18.90    1.20   1
   1  12   4    6.90    1.30   1
  -1 -12  -4    8.00    1.00   1
   1  12   5   10.60    1.40   1
  -1 -12  -5   10.70    1.40   1
   1  12   6   14.60    1.50   1
  -1 -12  -6   12.20    1.30   1
   1  12   7   64.90    2.20   1
  -1 -12  -7   65.00    2.10   1
   1  12   8   39.10    2.00   1
  -1 -12  -8   38.50    1.90   1
   1  12   9  395.50    7.30   1
  -1 -12  -9  395.60    6.80   1
   1  12  10    4.50    1.80   1
  -1 -12 -10    4.50    1.60   1
   1  12  11  197.90    5.00   1
  -1 -12 -11  194.50    4.90   1
   1  12  12   21.00    2.20   1
  -1 -12 -12   15.90    2.30   1
   1  12  13   -0.20    2.00   1
  -1 -12 -13    0.10    1.90   1
   1  12  14   10.00    2.00   1
  -1 -12 -14   10.60    2.20   1
   1  12  15    2.30    2.30   1
  -1 -12 -15    0.80    2.20   1
   1  12  16    2.70    2.60   1
  -1 -12 -16    4.00    2.50   1
   1  13   0    2.70    1.30   1
   1  13   1   20.40    2.10   1
  -1 -13  -1   21.60    1.90   1
   1  13   2  403.40    6.40   1
  -1 -13  -2  415.10    6.50   1
   1  13   3   32.20    2.30   1
  -1 -13  -3   32.30    2.00   1
   1  13   4   41.40    2.30   1
  -1 -13  -4   44.70    1.90   1
   1  13   5   20.50    2.20   1
  -1 -13  -5   23.60    2.20   1
   1  13   6  259.10    5.50   1
  -1 -13  -6  258.70    5.80   1
   1  13   7    7.30    1.80   1
  -1 -13  -7    5.90    1.80   1
   1  13   8  129.80    3.60   1
  -1 -13  -8  132.60    3.90   1
   1  13   9   35.20    2.20   1
  -1 -13  -9   38.10    2.50   1
   1  13  10   68.80    2.80   1
  -1 -13 -10   73.50    3.00   1
   1  13  11    9.90    2.20   1
  -1 -13 -11   13.40    2.30   1
   1  13  12  152.00    5.30   1
  -1 -13 -12  151.60    5.20   1
   1  13  13    1.80    2.30   1
  -1 -13 -13    1.30    2.30   1
   1  13  14   -0.70    2.50   1
  -1 -13 -14    0.60    2.50   1
   1  13  15    2.60    3.00   1
  -1 -13 -15   24.20    4.30   1
   1  14   0   33.30    2.20   1
   1  14   1  253.80    5.40   1
  -1 -14  -1  247.50    5.90   1
   1  14   2   10.50    2.00   1
  -1 -14  -2    8.10    2.10   1
   1  14   3    1.90    1.70   1
  -1 -14  -3    5.50    1.90   1
   1  14   4    2.20    1.80   1
  -1 -14  -4    5.00    1.80   1
   1  14   5    0.40    1.80   1
  -1 -14  -5   -1.10    1.90   1
   1  14   6    3.40    2.20   1
  -1 -14  -6    3.60    2.50   1
   1  14   7  224.80    5.80   1
  -1 -14  -7  236.40    6.40   1
   1  14   8    7.50    2.30   1
  -1 -14  -8    4.00    2.40   1
   1  14   9  219.10    5.60   1
  -1 -14  -9  216.60    6.20   1
   1  14  10    8.00    2.40   1
  -1 -14 -10    2.40    2.00   1
   1  14  11    1.10    2.40   1
  -1 -14 -11   -3.00    2.50   1
   1  14  12   -1.20    2.40   1
  -1 -14 -12    5.60    2.60   1
   1  14  13   16.70    3.50   1
  -1 -14 -13   27.30    3.70   1
   1  15   0    4.00    2.10   1
   1  15   1    8.80    2.80   1
  -1 -15  -1   10.70    2.90   1
   1  15   2  318.50    8.30   1
  -1 -15  -2  310.30    8.10   1
   1  15   3   22.70    2.60   1
  -1 -15  -3   18.00    2.50   1
   1  15   4   41.10    2.60   1
  -1 -15  -4   38.60    2.80   1
   1  15   5    8.30    2.20   1
  -1 -15  -5    5.60    2.30   1
   1  15   6  160.70    5.20   1
  -1 -15  -6  166.30    5.30   1
   1  15   7    7.00    2.40   1
  -1 -15  -7    8.60    2.50   1
   1  15   8   92.10    3.60   1
  -1 -15  -8   97.30    4.10   1
   1  15   9    3.30    2.60   1
  -1 -15  -9    3.40    2.50   1
   1  15  10   37.10    3.60   1
  -1 -15 -10   43.20    3.50   1
   1  16   0   37.50    2.90   1
   1  16   1  168.10    5.70   1
  -1 -16  -1  181.20    5.80   1
   1  16   2   27.10    2.80   1
  -1 -16  -2   26.40    2.80   1
   1  16   3   16.80    2.70   1
  -1 -16  -3    9.40    2.80   1
   1  16   4    6.90    2.50   1
  -1 -16  -4    9.40    2.80   1
   1  16   5    4.80    2.30   1
  -1 -16  -5    2.80    2.60   1
   1  16   6   -1.80    2.80   1
  -1 -16  -6    2.70    2.80   1
   1  16   7   17.10    3.30   1
  -1 -16  -7   16.40    3.50   1
   2   0   0 2892.80   26.60   1
   2   0   1  193.90    1.60   1
   2   0   2  339.90    2.60   1
   2   0   3  916.40    6.20   1
   2   0   4  805.10    5.90   1
   2   0   5   15.90    0.30   1
   2   0   6    8.90    0.30   1
   2   0   7  327.40    2.80   1
   2   0   8 3354.10   27.20   1
   2   0   9    7.30    0.50   1
   2   0  10 2207.70   19.10   1
   2   0  11   46.50    1.10   1
   2   0  12   10.20    0.70   1
   2   0  13   45.30    1.10   1
   2   0  14  133.00    2.30   1
   2   0  15   40.40    1.40   1
   2   0  16  259.70    4.10   1
   2   0  17   39.70    1.70   1
   2   0  18  751.30   10.70   1
   2   0  19    3.70    1.70   1
   2   0  20   28.10    2.10   1
   2   0  21   29.00    2.60   1
   2   0  22   57.30    3.30   1
   2   0  23   15.80    3.60   1
   2   1   0  818.10    5.30   1
   2   1   1  162.30    1.30   1
  -2  -1  -1  161.30    1.20   1
   2   1   2   10.70    0.20   1
  -2  -1  -2   10.60    0.20   1
   2   1   3  119.60    1.00   1
  -2  -1  -3  121.70    1.00   1
   2   1   4    7.80    0.30   1
  -2  -1  -4    8.10    0.30   1
   2   1   5  154.20    1.30   1
  -2  -1  -5  156.40    1.40   1
   2   1   6  192.10    1.70   1
  -2  -1  -6  190.10    1.70   1
   2   1   7  189.60    1.80   1
  -2  -1  -7  187.60    1.70   1
   2   1   8   31.10    0.60   1
  -2  -1  -8   30.60    0.60   1
   2   1   9   61.00    1.00   1
  -2  -1  -9   61.50    1.10   1
   2   1  10  175.60    2.30   1
  -2  -1 -10  176.20    2.20   1
   2   1  11  123.50    1.80   1
  -2  -1 -11  121.00    1.80   1
   2   1  12    0.40    0.60   1
  -2  -1 -12    0.90    0.70   1
   2   1  13   56.90    1.30   1
  -2  -1 -13   55.70    1.40   1
   2   1  14   28.50    1.00   1
  -2  -1 -14   29.10    1.10   1
   2   1  15  185.90    3.00   1
  -2  -1 -15  188.20    3.10   1
   2   1  16   59.40    1.60   1
  -2  -1 -16   60.00    1.80   1
   2   1  17    9.20    1.50   1
  -2  -1 -17    7.50    1.20   1
   2   1  18   13.00    1.50   1
  -2  -1 -18   12.60    1.40   1
   2   1  19  221.90    4.70   1
  -2  -1 -19  217.20    4.60   1
   2   1  20   72.40    2.80   1
  -2  -1 -20   67.00    2.80   1
   2   1  21   11.90    2.40   1
  -2  -1 -21   13.30    2.10   1
   2   1  22    0.50    2.50   1
  -2  -1 -22    1.20    2.50   1
   2   1  23   83.70    4.60   1
  -2  -1 -23   87.10    5.90   1
   2   2   0  162.20    1.20   1
   2   2   1  733.10    5.40   1
  -2  -2  -1  720.10    4.70   1
   2   2   2  274.80    2.10   1
  -2  -2  -2  272.40    2.00   1
   2   2   3  235.90    1.80   1
  -2  -2  -3  232.70    1.80   1
   2   2   4  690.40    5.00   1
  -2  -2  -4  691.90    5.10   1
   2   2   5    2.60    0.30   1
  -2  -2  -5    1.90    0.30   1
   2   2   6  848.80    6.50   1
  -2  -2  -6  837.80    7.00   1
   2   2   7  220.40    2.10   1
  -2  -2  -7  219.20    2.30   1
   2   2   8  388.20    4.10   1
  -2  -2  -8  394.60    3.80   1
   2   2   9   85.10    1.30   1
  -2  -2  -9   88.00    1.20   1
   2   2  10   34.40    1.00   1
  -2  -2 -10   34.60    0.90   1
   2   2  11  189.20    2.70   1
  -2  -2 -11  183.40    2.50   1
   2   2  12   36.00    1.00   1
  -2  -2 -12   33.30    0.90   1
   2   2  13   26.30    1.00   1
  -2  -2 -13   22.70    1.00   1
   2   2  14  257.80    3.70   1
  -2  -2 -14  261.00    3.80   1
   2   2  15    0.10    0.80   1
  -2  -2 -15   -0.80    1.00   1
   2   2  16  418.80    6.20   1
  -2  -2 -16  397.60    6.50   1
   2   2  17   65.80    2.10   1
  -2  -2 -17   66.60    1.90   1
   2   2  18   76.70    2.60   1
  -2  -2 -18   77.90    2.40   1
   2   2  19   15.70    2.00   1
  -2  -2 -19   17.00    1.90   1
   2   2  20    0.90    2.10   1
  -2  -2 -20    0.80    1.90   1
   2   2  21   34.60    2.90   1
  -2  -2 -21   31.50    2.50   1
   2   2  22    0.50    2.50   1
  -2  -2 -22    1.20    2.90   1
   2   3   0   40.10    0.50   1
   2   3   1  818.70    5.90   1
  -2  -3  -1  813.50    5.70   1
   2   3   2   24.80    0.40   1
  -2  -3  -2   24.10    0.40   1
   2   3   3 1554.50   10.50   1
  -2  -3  -3 1589.20   10.60   1
   2   3   4  270.00    2.20   1
  -2  -3  -4  271.60    2.40   1
   2   3   5  314.90    2.60   1
  -2  -3  -5  310.90    2.60   1
   2   3   6  128.10    1.40   1
  -2  -3  -6  125.30    1.30   1
   2   3   7 1880.70   15.90   1
  -2  -3  -7 1845.20   16.00   1
   2   3   8   89.60    1.20   1
  -2  -3  -8   91.00    1.40   1
   2   3   9    2.40    0.50   1
  -2  -3  -9    2.60    0.60   1
   2   3  10  220.90    3.20   1
  -2  -3 -10  231.40    2.80   1
   2   3  11  751.10    9.60   1
  -2  -3 -11  759.30    7.60   1
   2   3  12   17.00    0.90   1
  -2  -3 -12   16.40    0.80   1
   2   3  13   73.70    1.70   1
  -2  -3 -13   76.50    1.60   1
   2   3  14  131.10    2.40   1
  -2  -3 -14  130.40    2.50   1
   2   3  15  405.70    6.00   1
  -2  -3 -15  410.50    6.30   1
   2   3  16   21.50    1.50   1
  -2  -3 -16   20.70    1.40   1
   2   3  17   98.50    2.60   1
  -2  -3 -17   99.10    2.60   1
   2   3  18   18.30    1.70   1
  -2  -3 -18   17.00    1.70   1
   2   3  19  169.60    4.40   1
  -2  -3 -19  164.00    4.20   1
   2   3  20   22.60    2.20   1
  -2  -3 -20   24.40    2.50   1
   2   3  21  132.00    4.80   1
  -2  -3 -21  130.80    4.70   1
   2   3  22    1.70    2.50   1
  -2  -3 -22   -5.20    2.60   1
   2   4   0    1.10    0.20   1
   2   4   1  137.80    1.30   1
  -2  -4  -1  135.80    1.20   1
   2   4   2  756.70    5.80   1
  -2  -4  -2  738.90    5.60   1
   2   4   3   30.30    0.50   1
  -2  -4  -3   29.50    0.50   1
   2   4   4 2886.80   21.00   1
  -2  -4  -4 2792.30   24.20   1
   2   4   5   14.40    0.40   1
  -2  -4  -5   13.20    0.40   1
   2   4   6  538.00    4.70   1
  -2  -4  -6  529.80    4.50   1
   2   4   7   87.50    1.10   1
  -2  -4  -7   85.70    1.20   1
   2   4   8  241.70    2.70   1
  -2  -4  -8  244.50    2.80   1
   2   4   9   24.30    0.70   1
  -2  -4  -9   26.70    0.80   1
   2   4  10   16.70    0.70   1
  -2  -4 -10   16.80    0.70   1
   2   4  11   67.60    1.50   1
  -2  -4 -11   71.00    1.20   1
   2   4  12  762.60   10.00   1
  -2  -4 -12  774.70    9.30   1
   2   4  13   35.50    1.20   1
  -2  -4 -13   34.20    1.10   1
   2   4  14  498.80    7.30   1
  -2  -4 -14  511.40    7.70   1
   2   4  15    8.10    1.20   1
  -2  -4 -15    7.70    1.30   1
   2   4  16   13.30    1.40   1
  -2  -4 -16   13.40    1.50   1
   2   4  17   28.00    1.60   1
  -2  -4 -17   33.40    1.80   1
   2   4  18   23.30    1.80   1
  -2  -4 -18   19.80    1.80   1
   2   4  19   21.20    2.10   1
  -2  -4 -19   23.20    2.10   1
   2   4  20  240.40    5.80   1
  -2  -4 -20  244.80    6.70   1
   2   4  21    0.80    2.30   1
  -2  -4 -21    2.80    2.40   1
   2   4  22  460.00   11.60   1
  -2  -4 -22  449.70   11.40   1
   2   5   0  326.20    2.80   1
   2   5   1  236.70    2.10   1
  -2  -5  -1  234.80    2.20   1
   2   5   2   27.00    0.50   1
  -2  -5  -2   26.40    0.50   1
   2   5   3  508.40    4.30   1
  -2  -5  -3  488.80    4.40   1
   2   5   4   85.90    1.00   1
  -2  -5  -4   83.90    1.10   1
   2   5   5   12.40    0.40   1
  -2  -5  -5   10.90    0.50   1
   2   5   6  119.10    1.50   1
  -2  -5  -6  114.30    1.60   1
   2   5   7  388.60    4.00   1
  -2  -5  -7  379.50    4.00   1
   2   5   8   14.20    0.60   1
  -2  -5  -8   15.10    0.80   1
   2   5   9   45.40    1.00   1
  -2  -5  -9   44.80    1.00   1
   2   5  10  365.70    4.50   1
  -2  -5 -10  373.40    4.90   1
   2   5  11  145.40    2.50   1
  -2  -5 -11  147.70    2.40   1
   2   5  12    1.40    1.00   1
  -2  -5 -12    0.50    0.70   1
   2   5  13   63.30    1.90   1
  -2  -5 -13   63.30    1.90   1
   2   5  14   41.00    1.70   1
  -2  -5 -14   45.70    1.70   1
   2   5  15   32.50    1.70   1
  -2  -5 -15   30.70    1.60   1
   2   5  16   60.10    2.00   1
  -2  -5 -16   64.00    2.20   1
   2   5  17   60.90    2.30   1
  -2  -5 -17   62.50    2.20   1
   2   5  18   12.60    1.90   1
  -2  -5 -18   11.30    2.10   1
   2   5  19    1.60    1.80   1
  -2  -5 -19    3.90    2.20   1
   2   5  20   45.90    2.80   1
  -2  -5 -20   49.70    3.20   1
   2   5  21   45.40    2.80   1
  -2  -5 -21   47.50    3.20   1
   2   6   0  235.10    2.50   1
   2   6   1  109.00    1.30   1
  -2  -6  -1  106.90    1.40   1
   2   6   2  106.20    1.20   1
  -2  -6  -2  105.10    1.30   1
   2   6   3  329.20    3.50   1
  -2  -6  -3  321.60    3.50   1
   2   6   4 2287.00   20.60   1
  -2  -6  -4 2223.80   21.40   1
   2   6   5   34.80    0.70   1
  -2  -6  -5   34.20    0.80   1
   2   6   6 1093.10    9.90   1
  -2  -6  -6 1071.60   11.90   1
   2   6   7  281.60    3.10   1
  -2  -6  -7  275.40    3.60   1
   2   6   8   36.80    0.80   1
  -2  -6  -8   37.00    1.00   1
   2   6   9   11.80    0.60   1
  -2  -6  -9   13.40    0.90   1
   2   6  10   60.10    1.40   1
  -2  -6 -10   57.00    1.60   1
   2   6  11   73.50    1.60   1
  -2  -6 -11   69.90    1.80   1
   2   6  12  300.70    4.60   1
  -2  -6 -12  302.30    4.90   1
   2   6  13   77.20    2.00   1
  -2  -6 -13   76.40    2.10   1
   2   6  14  760.30   11.10   1
  -2  -6 -14  787.30   11.30   1
   2   6  15   12.50    1.50   1
  -2  -6 -15   12.10    1.50   1
   2   6  16   62.20    2.40   1
  -2  -6 -16   65.00    2.60   1
   2   6  17   33.10    2.10   1
  -2  -6 -17   36.20    2.30   1
   2   6  18   21.20    2.00   1
  -2  -6 -18   27.90    2.40   1
   2   6  19    1.50    2.10   1
  -2  -6 -19    0.20    2.30   1
   2   6  20    5.50    2.30   1
  -2  -6 -20    7.30    2.50   1
   2   6  21   16.70    2.60   1
  -2  -6 -21   17.10    2.90   1
   2   7   0   96.70    1.60   1
   2   7   1  344.00    3.90   1
  -2  -7  -1  332.40    4.00   1
   2   7   2   16.90    0.60   1
  -2  -7  -2   19.00    0.70   1
   2   7   3  396.00    4.20   1
  -2  -7  -3  382.90    4.20   1
   2   7   4    2.40    0.50   1
  -2  -7  -4    1.90    0.40   1
   2   7   5  239.60    3.00   1
  -2  -7  -5  242.10    3.30   1
   2   7   6   56.90    1.20   1
  -2  -7  -6   54.70    1.20   1
   2   7   7  587.00    6.10   1
  -2  -7  -7  587.00    7.20   1
   2   7   8    8.10    0.60   1
  -2  -7  -8    7.40    0.50   1
   2   7   9   31.60    1.00   1
  -2  -7  -9   33.70    1.10   1
   2   7  10   40.10    1.20   1
  -2  -7 -10   38.10    1.70   1
   2   7  11  403.80    6.00   1
  -2  -7 -11  422.20    6.80   1
   2   7  12    5.40    1.10   1
  -2  -7 -12    4.90    1.10   1
   2   7  13   10.00    1.20   1
  -2  -7 -13   10.30    1.30   1
   2   7  14   12.60    1.40   1
  -2  -7 -14   14.30    1.70   1
   2   7  15  315.20    6.10   1
  -2  -7 -15  330.60    6.40   1
   2   7  16   29.20    2.00   1
  -2  -7 -16   32.50    2.20   1
   2   7  17    2.00    1.70   1
  -2  -7 -17    1.40    2.00   1
   2   7  18    1.80    1.80   1
  -2  -7 -18   -0.50    2.00   1
   2   7  19  281.00    6.70   1
  -2  -7 -19  296.80    7.30   1
   2   7  20   30.20    2.80   1
  -2  -7 -20   28.40    2.90   1
   2   8   0 1130.80   13.30   1
   2   8   1  234.40    3.00   1
  -2  -8  -1  228.30    3.40   1
   2   8   2  181.40    2.20   1
  -2  -8  -2  180.00    2.50   1
   2   8   3  145.70    2.00   1
  -2  -8  -3  138.70    2.10   1
   2   8   4  134.20    1.90   1
  -2  -8  -4  128.80    2.00   1
   2   8   5    1.00    0.50   1
  -2  -8  -5    0.70    0.60   1
   2   8   6    5.80    0.70   1
  -2  -8  -6    6.10    0.70   1
   2   8   7  113.20    1.90   1
  -2  -8  -7  110.00    2.10   1
   2   8   8 1009.80   12.20   1
  -2  -8  -8  990.00   12.70   1
   2   8   9   42.70    1.30   1
  -2  -8  -9   45.40    1.80   1
   2   8  10  949.90   11.60   1
  -2  -8 -10  976.40   14.00   1
   2   8  11   80.50    2.00   1
  -2  -8 -11   84.80    2.50   1
   2   8  12   25.80    1.40   1
  -2  -8 -12   27.40    1.80   1
   2   8  13    3.70    1.30   1
  -2  -8 -13    3.80    1.40   1
   2   8  14   13.00    1.50   1
  -2  -8 -14   16.70    1.80   1
   2   8  15    3.20    1.50   1
  -2  -8 -15    5.60    1.70   1
   2   8  16   59.30    2.40   1
  -2  -8 -16   59.80    2.70   1
   2   8  17   28.10    2.30   1
  -2  -8 -17   35.70    2.50   1
   2   8  18  235.10    5.90   1
  -2  -8 -18  246.00    6.70   1
   2   8  19    0.10    2.40   1
  -2  -8 -19   -0.60    2.50   1
   2   8  20   37.90    3.60   1
  -2  -8 -20   37.70    4.30   1
   2   9   0  136.20    2.40   1
   2   9   1   92.50    1.60   1
  -2  -9  -1   90.70    1.70   1
   2   9   2   32.90    0.80   1
  -2  -9  -2   33.40    1.00   1
   2   9   3  209.70    2.90   1
  -2  -9  -3  208.80    3.00   1
   2   9   4   72.50    1.60   1
  -2  -9  -4   76.40    1.80   1
   2   9   5   19.00    1.10   1
  -2  -9  -5   19.80    1.10   1
   2   9   6   92.90    1.90   1
  -2  -9  -6   93.00    1.90   1
   2   9   7  227.80    3.50   1
  -2  -9  -7  228.80    4.00   1
   2   9   8    3.30    0.90   1
  -2  -9  -8    3.10    1.00   1
   2   9   9    9.40    1.00   1
  -2  -9  -9    7.70    1.10   1
   2   9  10   58.60    1.80   1
  -2  -9 -10   65.10    2.30   1
   2   9  11  113.60    2.90   1
  -2  -9 -11  112.80    3.00   1
   2   9  12    1.10    1.50   1
  -2  -9 -12    6.30    1.70   1
   2   9  13   74.00    2.40   1
  -2  -9 -13   75.50    2.80   1
   2   9  14   59.20    2.30   1
  -2  -9 -14   59.90    2.70   1
   2   9  15   13.70    1.90   1
  -2  -9 -15    9.10    2.20   1
   2   9  16   12.00    2.00   1
  -2  -9 -16   15.90    2.30   1
   2   9  17   45.70    2.90   1
  -2  -9 -17   43.20    2.90   1
   2   9  18   14.50    2.50   1
  -2  -9 -18   14.70    2.50   1
   2   9  19    3.50    2.70   1
  -2  -9 -19   -0.50    3.00   1
   2  10   0  682.20    9.10   1
   2  10   1   39.00    1.30   1
  -2 -10  -1   42.40    1.40   1
   2  10   2  126.10    2.30   1
  -2 -10  -2  125.20    2.30   1
   2  10   3   64.50    1.60   1
  -2 -10  -3   61.30    1.40   1
   2  10   4   15.90    1.10   1
  -2 -10  -4   17.20    1.10   1
   2  10   5   -1.10    0.90   1
  -2 -10  -5   -0.40    0.90   1
   2  10   6   69.70    1.80   1
  -2 -10  -6   71.00    1.90   1
   2  10   7   30.90    1.40   1
  -2 -10  -7   33.00    1.40   1
   2  10   8  613.50    8.50   1
  -2 -10  -8  607.80    8.80   1
   2  10   9    8.50    1.30   1
  -2 -10  -9    9.80    1.30   1
   2  10  10  219.00    4.00   1
  -2 -10 -10  224.60    4.30   1
   2  10  11   10.90    1.60   1
  -2 -10 -11   14.10    1.60   1
   2  10  12   18.00    1.70   1
  -2 -10 -12   21.00    1.90   1
   2  10  13   12.60    1.80   1
  -2 -10 -13   21.40    2.20   1
   2  10  14   -0.20    1.60   1
  -2 -10 -14    2.10    1.90   1
   2  10  15   -1.30    1.70   1
  -2 -10 -15    2.90    2.00   1
   2  10  16  292.20    7.30   1
  -2 -10 -16  302.40    7.50   1
   2  10  17   19.40    2.30   1
  -2 -10 -17   18.90    2.70   1
   2  10  18  207.60    6.70   1
  -2 -10 -18  220.20    6.50   1
   2  11   0  105.80    2.40   1
   2  11   1  273.40    4.10   1
  -2 -11  -1  272.60    4.20   1
   2  11   2   11.30    1.40   1
  -2 -11  -2   14.60    1.80   1
   2  11   3  429.60    6.30   1
  -2 -11  -3  426.90    6.50   1
   2  11   4   36.60    1.60   1
  -2 -11  -4   34.50    1.70   1
   2  11   5   97.70    2.40   1
  -2 -11  -5   99.20    2.30   1
   2  11   6   37.10    1.70   1
  -2 -11  -6   39.00    1.70   1
   2  11   7  557.80    7.70   1
  -2 -11  -7  560.50    9.20   1
   2  11   8   11.30    1.50   1
  -2 -11  -8   11.00    1.40   1
   2  11   9    3.10    1.40   1
  -2 -11  -9    1.40    1.30   1
   2  11  10  105.70    2.80   1
  -2 -11 -10  112.80    3.00   1
   2  11  11  285.60    5.70   1
  -2 -11 -11  295.60    5.70   1
   2  11  12    4.00    1.80   1
  -2 -11 -12    1.90    1.50   1
   2  11  13   14.90    1.90   1
  -2 -11 -13   15.60    2.00   1
   2  11  14   17.10    2.20   1
  -2 -11 -14   19.60    2.30   1
   2  11  15  139.40    4.30   1
  -2 -11 -15  136.30    4.20   1
   2  11  16   15.30    2.40   1
  -2 -11 -16   18.60    2.70   1
   2  11  17   28.80    3.80   1
  -2 -11 -17   23.20    3.50   1
   2  12   0  201.50    3.90   1
   2  12   1   33.00    1.70   1
  -2 -12  -1   33.80    1.80   1
   2  12   2  191.70    3.40   1
  -2 -12  -2  191.70    4.00   1
   2  12   3   46.20    1.80   1
  -2 -12  -3   47.20    1.90   1
   2  12   4   99.70    2.40   1
  -2 -12  -4   94.00    2.40   1
   2  12   5    7.90    1.30   1
  -2 -12  -5    6.90    1.30   1
   2  12   6   23.40    1.50   1
  -2 -12  -6   23.70    1.70   1
   2  12   7   48.70    2.00   1
  -2 -12  -7   51.10    2.20   1
   2  12   8   11.30    1.60   1
  -2 -12  -8   13.80    1.60   1
   2  12   9    3.80    1.70   1
  -2 -12  -9    4.30    1.60   1
   2  12  10   50.40    2.50   1
  -2 -12 -10   52.50    2.30   1
   2  12  11   18.60    2.00   1
  -2 -12 -11   21.50    2.10   1
   2  12  12   73.90    3.10   1
  -2 -12 -12   81.00    3.10   1
   2  12  13   24.50    2.60   1
  -2 -12 -13   26.80    2.30   1
   2  12  14   16.30    2.30   1
  -2 -12 -14   23.60    2.90   1
   2  12  15   -2.30    2.00   1
  -2 -12 -15    3.70    2.70   1
   2  13   0   11.70    1.60   1
   2  13   1    6.80    1.50   1
  -2 -13  -1    7.40    1.50   1
   2  13   2    1.80    1.40   1
  -2 -13  -2   -0.60    1.40   1
   2  13   3   -0.20    1.30   1
  -2 -13  -3    0.40    1.30   1
   2  13   4   16.20    1.50   1
  -2 -13  -4   16.20    1.70   1
   2  13   5   32.00    1.90   1
  -2 -13  -5   33.60    2.00   1
   2  13   6   23.30    1.80   1
  -2 -13  -6   19.00    1.90   1
   2  13   7   14.20    1.60   1
  -2 -13  -7   11.20    1.80   1
   2  13   8    1.80    1.70   1
  -2 -13  -8    4.00    1.70   1
   2  13   9   17.50    2.40   1
  -2 -13  -9   20.80    2.00   1
   2  13  10   31.80    2.60   1
  -2 -13 -10   31.70    2.70   1
   2  13  11   25.40    2.50   1
  -2 -13 -11   26.70    2.60   1
   2  13  12    6.70    2.50   1
  -2 -13 -12    6.10    2.40   1
   2  13  13   12.00    2.40   1
  -2 -13 -13   12.30    2.60   1
   2  14   0  155.80    4.00   1
   2  14   1   46.50    2.30   1
  -2 -14  -1   51.30    2.70   1
   2  14   2   28.40    2.20   1
  -2 -14  -2   31.40    2.20   1
   2  14   3   50.70    2.80   1
  -2 -14  -3   49.30    3.30   1
   2  14   4  734.40   12.10   1
  -2 -14  -4  759.20   13.10   1
   2  14   5   29.40    2.80   1
  -2 -14  -5   21.10    2.90   1
   2  14   6  270.80    6.80   1
  -2 -14  -6  276.30    8.10   1
   2  14   7   50.20    2.50   1
  -2 -14  -7   53.40    3.20   1
   2  14   8   43.00    2.60   1
  -2 -14  -8   46.20    3.00   1
   2  14   9   10.20    2.30   1
  -2 -14  -9    6.10    2.20   1
   2  14  10   34.50    2.60   1
  -2 -14 -10   33.30    2.80   1
   2  14  11   25.10    2.60   1
  -2 -14 -11   27.30    2.80   1
   2  15   0   14.40    2.50   1
   2  15   1   15.80    2.30   1
  -2 -15  -1   14.80    2.40   1
   2  15   2    9.20    2.40   1
  -2 -15  -2   10.70    2.50   1
   2  15   3   14.10    2.20   1
  -2 -15  -3   11.00    2.20   1
   2  15   4    0.70    2.00   1
  -2 -15  -4    1.20    2.10   1
   2  15   5   19.20    2.40   1
  -2 -15  -5   22.10    2.70   1
   2  15   6   11.00    2.50   1
  -2 -15  -6   11.20    2.90   1
   2  15   7   37.60    2.60   1
  -2 -15  -7   28.50    3.20   1
   2  15   8   -3.20    2.60   1
  -2 -15  -8    2.90    2.40   1
   2  15   9    0.90    2.80   1
  -2 -15  -9   -3.40    3.20   1
   2  16   0   33.90    3.20   1
   2  16   1   19.90    3.00   1
  -2 -16  -1   18.10    2.90   1
   2  16   2   32.80    3.10   1
  -2 -16  -2   29.60    3.10   1
   2  16   3   42.90    3.40   1
  -2 -16  -3   30.30    3.20   1
   2  16   4   16.20    3.50   1
  -2 -16  -4   20.20    3.90   1
   3   0   0    1.50    0.60   1
   3   0   1   58.90    0.80   1
   3   0   2  238.50    2.40   1
   3   0   3 1174.10   10.80   1
   3   0   4    1.90    0.40   1
   3   0   5 2450.70   19.30   1
   3   0   6  144.60    1.50   1
   3   0   7   50.70    0.80   1
   3   0   8  558.20    5.70   1
   3   0   9   45.80    0.80   1
   3   0  10    2.50    0.50   1
   3   0  11  256.70    3.20   1
   3   0  12  203.00    3.10   1
   3   0  13 1051.60   11.80   1
   3   0  14   88.90    1.90   1
   3   0  15  122.80    2.50   1
   3   0  16    6.20    1.30   1
   3   0  17  147.90    3.20   1
   3   0  18   88.40    2.50   1
   3   0  19   -2.50    1.90   1
   3   0  20    4.40    1.90   1
   3   0  21  327.10    9.20   1
   3   1   0    0.30    0.20   1
   3   1   1  570.60    4.80   1
  -3  -1  -1  564.70    4.80   1
   3   1   2  640.80    6.00   1
  -3  -1  -2  640.20    5.80   1
   3   1   3   91.10    1.00   1
  -3  -1  -3   91.70    1.10   1
   3   1   4  105.50    1.20   1
  -3  -1  -4  102.70    1.20   1
   3   1   5  494.40    4.20   1
  -3  -1  -5  484.30    4.20   1
   3   1   6 1032.10    8.60   1
  -3  -1  -6 1047.30    8.80   1
   3   1   7    1.10    0.40   1
  -3  -1  -7    1.20    0.40   1
   3   1   8  258.00    2.70   1
  -3  -1  -8  260.80    2.70   1
   3   1   9  277.40    2.90   1
  -3  -1  -9  275.90    2.90   1
   3   1  10  166.00    1.90   1
  -3  -1 -10  166.10    2.00   1
   3   1  11   57.80    1.30   1
  -3  -1 -11   58.10    1.40   1
   3   1  12  361.50    4.70   1
  -3  -1 -12  357.60    4.80   1
   3   1  13   99.90    2.00   1
  -3  -1 -13  101.50    2.10   1
   3   1  14    6.60    0.90   1
  -3  -1 -14    6.30    1.10   1
   3   1  15  132.70    2.60   1
  -3  -1 -15  135.10    2.80   1
   3   1  16  230.90    4.40   1
  -3  -1 -16  229.30    3.80   1
   3   1  17   -0.70    1.40   1
  -3  -1 -17   -1.10    1.40   1
   3   1  18    2.60    1.50   1
  -3  -1 -18    4.90    1.60   1
   3   1  19   69.40    2.60   1
  -3  -1 -19   64.60    2.70   1
   3   1  20   72.90    3.20   1
  -3  -1 -20   76.10    3.20   1
   3   1  21   13.00    3.50   1
  -3  -1 -21   13.30    3.20   1
   3   2   0    0.50    0.20   1
   3   2   1    9.40    0.40   1
  -3  -2  -1   10.00    0.30   1
   3   2   2  233.80    2.30   1
  -3  -2  -2  225.00    2.10   1
   3   2   3  639.50    5.80   1
  -3  -2  -3  648.60    5.60   1
   3   2   4   91.00    1.00   1
  -3  -2  -4   90.30    1.20   1
   3   2   5 1761.40   13.50   1
  -3  -2  -5 1767.50   13.90   1
   3   2   6   81.70    1.10   1
  -3  -2  -6   81.40    1.00   1
   3   2   7   82.40    1.20   1
  -3  -2  -7   82.60    1.20   1
   3   2   8  146.00    1.80   1
  -3  -2  -8  149.70    1.80   1
   3   2   9    2.30    0.50   1
  -3  -2  -9    3.10    0.60   1
   3   2  10    2.20    0.60   1
  -3  -2 -10    3.70    0.70   1
   3   2  11   62.30    1.40   1
  -3  -2 -11   63.10    1.50   1
   3   2  12  142.30    2.30   1
  -3  -2 -12  138.80    2.40   1
   3   2  13  350.60    4.60   1
  -3  -2 -13  359.10    5.10   1
   3   2  14   14.30    1.00   1
  -3  -2 -14   12.30    1.10   1
   3   2  15  280.30    4.10   1
  -3  -2 -15  290.50    4.90   1
   3   2  16   47.00    1.70   1
  -3  -2 -16   49.00    1.80   1
   3   2  17    3.30    1.60   1
  -3  -2 -17    0.70    1.40   1
   3   2  18   34.20    2.10   1
  -3  -2 -18   33.20    1.80   1
   3   2  19    9.70    2.00   1
  -3  -2 -19   15.30    2.00   1
   3   2  20    6.30    2.50   1
  -3  -2 -20    2.90    2.20   1
   3   2  21   25.80    3.20   1
  -3  -2 -21   24.80    2.90   1
   3   3   0    1.00    0.30   1
   3   3   1  166.90    1.60   1
  -3  -3  -1  166.40    1.60   1
   3   3   2  626.80    5.20   1
  -3  -3  -2  615.10    5.10   1
   3   3   3  123.10    1.30   1
  -3  -3  -3  119.10    1.30   1
   3   3   4    6.30    0.30   1
  -3  -3  -4    6.40    0.40   1
   3   3   5  175.90    1.80   1
  -3  -3  -5  177.60    1.90   1
   3   3   6 1022.30    9.20   1
  -3  -3  -6 1013.80    9.60   1
   3   3   7   49.20    0.90   1
  -3  -3  -7   48.40    1.00   1
   3   3   8   81.70    1.30   1
  -3  -3  -8   80.10    1.40   1
   3   3   9  175.50    2.40   1
  -3  -3  -9  179.70    2.40   1
   3   3  10  375.80    5.40   1
  -3  -3 -10  372.60    4.90   1
   3   3  11  111.60    2.10   1
  -3  -3 -11  113.70    2.10   1
   3   3  12  168.70    2.70   1
  -3  -3 -12  170.50    2.80   1
   3   3  13    0.50    0.90   1
  -3  -3 -13    0.70    0.90   1
   3   3  14  134.00    2.80   1
  -3  -3 -14  142.90    2.80   1
   3   3  15   46.70    1.80   1
  -3  -3 -15   45.50    1.70   1
   3   3  16  129.70    3.00   1
  -3  -3 -16  143.60    3.20   1
   3   3  17   15.80    1.70   1
  -3  -3 -17   15.30    1.60   1
   3   3  18   87.20    2.80   1
  -3  -3 -18   92.30    2.80   1
   3   3  19   50.90    2.70   1
  -3  -3 -19   56.20    2.60   1
   3   3  20  107.10    4.50   1
  -3  -3 -20  121.50    4.20   1
   3   3  21   17.80    3.10   1
  -3  -3 -21   27.50    3.80   1
   3   4   0    8.70    0.40   1
   3   4   1 2600.00   21.40   1
  -3  -4  -1 2540.60   21.00   1
   3   4   2  954.70    8.10   1
  -3  -4  -2  937.30    8.20   1
   3   4   3    2.00    0.30   1
  -3  -4  -3    3.50    0.40   1
   3   4   4  367.50    3.60   1
  -3  -4  -4  368.40    3.70   1
   3   4   5  464.80    4.60   1
  -3  -4  -5  462.70    4.70   1
   3   4   6  110.80    1.40   1
  -3  -4  -6  109.60    1.50   1
   3   4   7  525.60    5.60   1
  -3  -4  -7  532.70    5.40   1
   3   4   8  273.40    3.10   1
  -3  -4  -8  277.80    3.50   1
   3   4   9 1531.80   15.40   1
  -3  -4  -9 1543.70   15.70   1
   3   4  10   34.20    1.20   1
  -3  -4 -10   33.80    1.10   1
   3   4  11  138.40    2.50   1
  -3  -4 -11  136.90    2.50   1
   3   4  12  260.20    4.40   1
  -3  -4 -12  270.20    4.30   1
   3   4  13  115.70    2.50   1
  -3  -4 -13  120.50    2.40   1
   3   4  14    0.70    1.20   1
  -3  -4 -14    1.50    1.10   1
   3   4  15   10.10    1.40   1
  -3  -4 -15   10.30    1.40   1
   3   4  16  178.20    3.60   1
  -3  -4 -16  192.20    3.80   1
   3   4  17  696.90   10.60   1
  -3  -4 -17  710.20   10.00   1
   3   4  18   87.60    3.00   1
  -3  -4 -18   93.20    2.70   1
   3   4  19  224.10    6.50   1
  -3  -4 -19  233.60    5.80   1
   3   4  20   16.70    2.80   1
  -3  -4 -20   16.10    3.00   1
   3   4  21    4.60    3.00   1
  -3  -4 -21   10.00    3.30   1
   3   5   0    1.30    0.40   1
   3   5   1  120.50    1.30   1
  -3  -5  -1  122.30    1.40   1
   3   5   2    1.70    0.40   1
  -3  -5  -2    0.90    0.40   1
   3   5   3   32.20    0.70   1
  -3  -5  -3   32.70    0.70   1
   3   5   4  114.50    1.40   1
  -3  -5  -4  115.10    1.60   1
   3   5   5  210.80    2.50   1
  -3  -5  -5  208.70    2.70   1
   3   5   6    3.50    0.50   1
  -3  -5  -6    3.90    0.60   1
   3   5   7    5.80    0.50   1
  -3  -5  -7    6.40    0.60   1
   3   5   8    2.90    0.60   1
  -3  -5  -8    4.40    0.70   1
   3   5   9   78.40    1.60   1
  -3  -5  -9   78.30    1.60   1
   3   5  10   39.90    1.30   1
  -3  -5 -10   37.80    1.30   1
   3   5  11   53.50    1.60   1
  -3  -5 -11   53.80    1.50   1
   3   5  12    1.60    1.10   1
  -3  -5 -12   -0.30    1.10   1
   3   5  13    8.90    1.30   1
  -3  -5 -13   11.50    1.20   1
   3   5  14   25.80    1.60   1
  -3  -5 -14   25.30    1.50   1
   3   5  15   41.90    1.90   1
  -3  -5 -15   46.00    1.90   1
   3   5  16    7.80    1.50   1
  -3  -5 -16    9.80    1.60   1
   3   5  17    3.30    1.60   1
  -3  -5 -17    2.10    1.60   1
   3   5  18    6.20    1.80   1
  -3  -5 -18   11.30    2.20   1
   3   5  19   18.90    2.70   1
  -3  -5 -19   28.30    2.70   1
   3   5  20    5.00    2.60   1
  -3  -5 -20    5.70    2.60   1
   3   6   0    2.70    0.40   1
   3   6   1  405.70    4.10   1
  -3  -6  -1  411.20    4.40   1
   3   6   2   99.60    1.40   1
  -3  -6  -2   97.40    1.40   1
   3   6   3   72.70    1.10   1
  -3  -6  -3   73.00    1.30   1
   3   6   4   12.20    0.60   1
  -3  -6  -4   13.60    0.80   1
   3   6   5   21.40    0.70   1
  -3  -6  -5   22.00    0.90   1
   3   6   6   10.50    0.70   1
  -3  -6  -6   10.50    0.80   1
   3   6   7  400.50    5.00   1
  -3  -6  -7  391.80    5.10   1
   3   6   8  141.30    2.20   1
  -3  -6  -8  141.10    2.50   1
   3   6   9  427.60    5.90   1
  -3  -6  -9  440.00    6.80   1
   3   6  10    1.20    0.80   1
  -3  -6 -10    0.00    1.00   1
   3   6  11   60.70    1.70   1
  -3  -6 -11   63.90    1.90   1
   3   6  12   62.00    1.90   1
  -3  -6 -12   62.60    2.00   1
   3   6  13   -0.30    1.30   1
  -3  -6 -13   -0.70    1.30   1
   3   6  14   20.70    1.70   1
  -3  -6 -14   19.70    1.60   1
   3   6  15   75.80    2.50   1
  -3  -6 -15   84.80    2.60   1
   3   6  16    5.70    1.70   1
  -3  -6 -16    6.60    1.70   1
   3   6  17  277.80    6.40   1
  -3  -6 -17  286.60    7.20   1
   3   6  18   40.80    2.70   1
  -3  -6 -18   44.40    2.90   1
   3   6  19   37.10    3.00   1
  -3  -6 -19   45.00    3.30   1
   3   6  20    4.50    3.00   1
  -3  -6 -20    4.80    2.80   1
   3   7   0    6.60    0.70   1
   3   7   1  456.80    5.10   1
  -3  -7  -1  456.50    5.20   1
   3   7   2  809.00    8.50   1
  -3  -7  -2  802.00    8.50   1
   3   7   3   69.80    1.20   1
  -3  -7  -3   68.00    1.30   1
   3   7   4   56.90    1.20   1
  -3  -7  -4   55.70    1.20   1
   3   7   5  380.60    4.70   1
  -3  -7  -5  366.10    4.80   1
   3   7   6  887.50   10.40   1
  -3  -7  -6  866.50   10.10   1
   3   7   7    5.60    0.80   1
  -3  -7  -7    2.40    0.80   1
   3   7   8  291.90    4.30   1
  -3  -7  -8  282.50    4.90   1
   3   7   9  254.00    4.00   1
  -3  -7  -9  267.20    4.80   1
   3   7  10  264.80    4.30   1
  -3  -7 -10  290.40    5.40   1
   3   7  11   46.30    1.60   1
  -3  -7 -11   46.30    1.80   1
   3   7  12  358.50    5.90   1
  -3  -7 -12  371.90    6.40   1
   3   7  13  104.60    2.70   1
  -3  -7 -13  112.80    2.90   1
   3   7  14   49.10    2.10   1
  -3  -7 -14   50.80    2.20   1
   3   7  15  106.80    3.00   1
  -3  -7 -15  131.00    4.00   1
   3   7  16  244.90    5.30   1
  -3  -7 -16  263.70    6.10   1
   3   7  17    5.50    2.10   1
  -3  -7 -17   -1.20    2.00   1
   3   7  18   10.40    2.50   1
  -3  -7 -18   11.90    2.70   1
   3   7  19   72.90    3.70   1
  -3  -7 -19   79.60    4.10   1
   3   8   0    0.40    0.70   1
   3   8   1    3.50    0.70   1
  -3  -8  -1    3.30    0.70   1
   3   8   2   54.70    1.10   1
  -3  -8  -2   56.00    1.30   1
   3   8   3  426.40    5.60   1
  -3  -8  -3  414.30    5.10   1
   3   8   4   13.30    0.90   1
  -3  -8  -4   14.30    0.90   1
   3   8   5  368.20    5.10   1
  -3  -8  -5  354.10    4.80   1
   3   8   6  100.40    1.90   1
  -3  -8  -6   99.90    2.10   1
   3   8   7  127.90    2.30   1
  -3  -8  -7  125.50    2.60   1
   3   8   8  151.60    3.20   1
  -3  -8  -8  154.90    2.90   1
   3   8   9    1.80    1.00   1
  -3  -8  -9    0.50    1.10   1
   3   8  10    1.10    1.10   1
  -3  -8 -10    3.20    1.40   1
   3   8  11  151.70    3.60   1
  -3  -8 -11  160.90    3.80   1
   3   8  12   96.90    2.70   1
  -3  -8 -12  109.10    3.20   1
   3   8  13  315.10    5.90   1
  -3  -8 -13  331.10    6.50   1
   3   8  14   39.50    2.10   1
  -3  -8 -14   45.90    2.40   1
   3   8  15   20.20    2.00   1
  -3  -8 -15   19.10    2.30   1
   3   8  16    7.90    1.90   1
  -3  -8 -16   11.70    2.20   1
   3   8  17    4.00    2.30   1
  -3  -8 -17    2.70    2.50   1
   3   8  18   17.00    2.70   1
  -3  -8 -18   26.40    3.10   1
   3   9   0    1.80    0.80   1
   3   9   1   62.80    1.50   1
  -3  -9  -1   59.40    1.40   1
   3   9   2    1.80    0.80   1
  -3  -9  -2    1.80    0.70   1
   3   9   3   24.30    1.20   1
  -3  -9  -3   23.20    1.00   1
   3   9   4    0.80    0.80   1
  -3  -9  -4    0.80    0.90   1
   3   9   5   62.60    1.60   1
  -3  -9  -5   60.70    1.70   1
   3   9   6    0.80    0.90   1
  -3  -9  -6    0.10    1.00   1
   3   9   7    5.00    1.10   1
  -3  -9  -7    6.80    1.10   1
   3   9   8   18.00    1.30   1
  -3  -9  -8   17.90    1.30   1
   3   9   9   54.30    1.70   1
  -3  -9  -9   56.10    2.00   1
   3   9  10    4.60    1.50   1
  -3  -9 -10    4.20    1.30   1
   3   9  11   18.00    1.80   1
  -3  -9 -11   18.60    1.70   1
   3   9  12   14.90    1.70   1
  -3  -9 -12   12.60    1.70   1
   3   9  13   11.70    1.90   1
  -3  -9 -13    9.60    2.00   1
   3   9  14   27.30    2.00   1
  -3  -9 -14   33.10    2.40   1
   3   9  15   28.70    2.30   1
  -3  -9 -15   27.10    2.60   1
   3   9  16   -1.60    2.20   1
  -3  -9 -16    2.20    2.70   1
   3   9  17    4.40    2.60   1
  -3  -9 -17    3.60    2.90   1
   3  10   0    3.50    0.80   1
   3  10   1   60.60    1.60   1
  -3 -10  -1   64.00    1.70   1
   3  10   2  188.60    3.20   1
  -3 -10  -2  191.40    3.20   1
   3  10   3  618.80    8.50   1
  -3 -10  -3  626.90    8.60   1
   3  10   4   65.60    2.40   1
  -3 -10  -4   60.40    2.10   1
   3  10   5 1088.90   14.20   1
  -3 -10  -5 1068.90   15.50   1
   3  10   6   51.30    1.80   1
  -3 -10  -6   54.30    1.90   1
   3  10   7   11.30    1.30   1
  -3 -10  -7   10.30    1.30   1
   3  10   8   96.50    2.40   1
  -3 -10  -8   96.70    2.40   1
   3  10   9  147.30    3.40   1
  -3 -10  -9  154.20    3.30   1
   3  10  10   10.50    1.70   1
  -3 -10 -10   11.70    1.60   1
   3  10  11   34.70    2.20   1
  -3 -10 -11   35.80    2.10   1
   3  10  12   97.50    3.30   1
  -3 -10 -12  101.10    3.20   1
   3  10  13  484.70   10.40   1
  -3 -10 -13  517.40   10.40   1
   3  10  14    3.00    2.20   1
  -3 -10 -14    1.30    2.00   1
   3  10  15  106.40    4.10   1
  -3 -10 -15  121.20    4.90   1
   3  10  16   41.30    3.30   1
  -3 -10 -16   41.60    3.40   1
   3  11   0    1.90    1.00   1
   3  11   1   38.70    1.50   1
  -3 -11  -1   41.80    1.60   1
   3  11   2  290.00    5.00   1
  -3 -11  -2  280.90    4.60   1
   3  11   3   11.10    1.30   1
  -3 -11  -3   14.60    1.50   1
   3  11   4    2.40    1.20   1
  -3 -11  -4    3.10    1.20   1
   3  11   5   90.20    2.30   1
  -3 -11  -5   91.60    2.50   1
   3  11   6  225.40    4.20   1
  -3 -11  -6  223.00    4.30   1
   3  11   7    3.90    1.30   1
  -3 -11  -7    5.20    1.30   1
   3  11   8   64.30    2.50   1
  -3 -11  -8   63.10    2.30   1
   3  11   9   44.90    2.30   1
  -3 -11  -9   45.20    2.10   1
   3  11  10  164.50    4.30   1
  -3 -11 -10  173.80    4.20   1
   3  11  11   55.90    2.90   1
  -3 -11 -11   56.10    2.60   1
   3  11  12   66.30    3.10   1
  -3 -11 -12   70.40    3.00   1
   3  11  13   -2.60    2.20   1
  -3 -11 -13   -1.40    2.00   1
   3  11  14   61.90    3.40   1
  -3 -11 -14   74.40    3.70   1
   3  11  15   27.00    3.00   1
  -3 -11 -15   25.10    3.00   1
   3  12   0   22.30    1.80   1
   3  12   1  313.40    5.50   1
  -3 -12  -1  318.80    5.30   1
   3  12   2  126.20    3.20   1
  -3 -12  -2  127.60    3.30   1
   3  12   3   23.00    1.50   1
  -3 -12  -3   20.40    1.50   1
   3  12   4   46.40    1.80   1
  -3 -12  -4   50.60    1.90   1
   3  12   5    1.60    1.30   1
  -3 -12  -5    1.70    1.40   1
   3  12   6   11.30    1.50   1
  -3 -12  -6    9.80    1.70   1
   3  12   7   47.80    2.20   1
  -3 -12  -7   50.70    2.30   1
   3  12   8   44.40    2.40   1
  -3 -12  -8   46.60    2.40   1
   3  12   9  165.60    4.70   1
  -3 -12  -9  169.30    4.30   1
   3  12  10    1.10    2.00   1
  -3 -12 -10    2.50    1.90   1
   3  12  11   47.20    2.90   1
  -3 -12 -11   52.60    2.80   1
   3  12  12   43.10    3.30   1
  -3 -12 -12   34.70    3.00   1
   3  12  13    2.60    2.70   1
  -3 -12 -13    0.00    2.50   1
   3  13   0    6.40    1.60   1
   3  13   1   63.90    2.40   1
  -3 -13  -1   62.30    2.40   1
   3  13   2  208.60    4.50   1
  -3 -13  -2  203.60    4.10   1
   3  13   3   20.10    1.80   1
  -3 -13  -3   20.80    1.90   1
   3  13   4   39.80    2.20   1
  -3 -13  -4   36.60    2.10   1
   3  13   5   58.70    2.70   1
  -3 -13  -5   57.20    2.50   1
   3  13   6   78.30    2.90   1
  -3 -13  -6   78.10    2.90   1
   3  13   7    2.50    1.90   1
  -3 -13  -7    3.80    1.90   1
   3  13   8   50.40    2.60   1
  -3 -13  -8   45.40    2.60   1
   3  13   9   28.00    2.40   1
  -3 -13  -9   30.10    2.30   1
   3  13  10   32.10    3.10   1
  -3 -13 -10   33.40    2.50   1
   3  13  11    7.60    2.90   1
  -3 -13 -11    5.30    2.60   1
   3  14   0   29.40    2.40   1
   3  14   1  230.40    5.60   1
  -3 -14  -1  232.90    5.40   1
   3  14   2   23.40    2.20   1
  -3 -14  -2   20.00    2.30   1
   3  14   3    2.40    2.00   1
  -3 -14  -3   -0.20    1.90   1
   3  14   4    4.00    2.10   1
  -3 -14  -4    7.80    1.90   1
   3  14   5    7.80    2.00   1
  -3 -14  -5   10.20    2.00   1
   3  14   6   10.50    2.20   1
  -3 -14  -6    7.10    1.90   1
   3  14   7   86.10    3.90   1
  -3 -14  -7   94.30    3.80   1
   3  14   8   27.20    2.80   1
  -3 -14  -8   31.40    2.60   1
   3  14   9  322.20    9.70   1
  -3 -14  -9  322.50    8.70   1
   3  15   0   16.30    2.40   1
   3  15   1   84.80    3.60   1
  -3 -15  -1   81.10    3.50   1
   3  15   2   73.80    3.30   1
  -3 -15  -2   76.80    3.50   1
   3  15   3   11.00    2.90   1
  -3 -15  -3    9.90    2.90   1
   3  15   4    1.70    2.30   1
  -3 -15  -4    5.70    2.50   1
   3  15   5   52.00    3.20   1
  -3 -15  -5   58.20    3.50   1
   4   0   0 2559.10   37.90   1
   4   0   1  241.50    3.30   1
   4   0   2  978.00    9.10   1
   4   0   3  397.60    4.00   1
   4   0   4  336.00    3.70   1
   4   0   5   28.80    0.80   1
   4   0   6    1.30    0.60   1
   4   0   7  463.00    5.90   1
   4   0   8 1410.20   14.80   1
   4   0   9   38.30    1.10   1
   4   0  10  540.60    7.00   1
   4   0  11  280.20    4.80   1
   4   0  12    7.70    1.30   1
   4   0  13  171.50    3.70   1
   4   0  14  196.00    4.30   1
   4   0  15   14.70    1.60   1
   4   0  16  254.30    5.00   1
   4   0  17  134.20    3.90   1
   4   0  18  546.10   12.90   1
   4   0  19    7.00    2.60   1
   4   0  20   16.10    3.40   1
   4   1   0   14.20    0.80   1
   4   1   1  166.20    2.10   1
  -4  -1  -1  163.90    2.00   1
   4   1   2    1.10    0.40   1
  -4  -1  -2    0.70    0.40   1
   4   1   3  296.80    3.20   1
  -4  -1  -3  294.60    3.10   1
   4   1   4   82.90    1.20   1
  -4  -1  -4   82.10    1.30   1
   4   1   5   18.70    0.70   1
  -4  -1  -5   17.20    0.70   1
   4   1   6   54.90    1.10   1
  -4  -1  -6   52.90    1.30   1
   4   1   7  186.60    2.20   1
  -4  -1  -7  186.90    3.10   1
   4   1   8   21.50    0.80   1
  -4  -1  -8   19.50    0.90   1
   4   1   9    5.00    0.80   1
  -4  -1  -9    4.10    0.90   1
   4   1  10  113.70    2.30   1
  -4  -1 -10  109.60    2.10   1
   4   1  11  197.80    3.50   1
  -4  -1 -11  198.50    3.50   1
   4   1  12   41.50    1.60   1
  -4  -1 -12   42.80    1.90   1
   4   1  13    5.40    1.30   1
  -4  -1 -13    3.80    1.40   1
   4   1  14   26.20    1.70   1
  -4  -1 -14   29.10    1.70   1
   4   1  15  123.60    3.00   1
  -4  -1 -15  121.00    3.00   1
   4   1  16   49.60    2.60   1
  -4  -1 -16   49.90    2.30   1
   4   1  17   23.50    2.40   1
  -4  -1 -17   26.50    2.50   1
   4   1  18   -1.00    2.30   1
  -4  -1 -18    0.80    2.20   1
   4   1  19   32.70    3.40   1
  -4  -1 -19   30.80    3.10   1
   4   1  20   26.20    3.50   1
  -4  -1 -20   25.10    3.10   1
   4   2   0  735.60    7.00   1
   4   2   1   14.20    0.50   1
  -4  -2  -1   14.50    0.50   1
   4   2   2  323.10    3.50   1
  -4  -2  -2  324.30    3.50   1
   4   2   3   90.50    1.40   1
  -4  -2  -3   92.00    1.30   1
   4   2   4   21.70    0.70   1
  -4  -2  -4   21.20    0.70   1
   4   2   5    0.10    0.40   1
  -4  -2  -5   -0.20    0.50   1
   4   2   6   96.00    1.30   1
  -4  -2  -6   94.30    1.60   1
   4   2   7   75.90    1.50   1
  -4  -2  -7   75.20    1.60   1
   4   2   8  355.60    5.30   1
  -4  -2  -8  360.80    5.00   1
   4   2   9   22.70    1.20   1
  -4  -2  -9   22.30    1.20   1
   4   2  10  226.40    4.00   1
  -4  -2 -10  229.00    3.80   1
   4   2  11    5.80    1.10   1
  -4  -2 -11    7.90    1.10   1
   4   2  12   40.20    1.80   1
  -4  -2 -12   43.10    1.80   1
   4   2  13   73.90    2.40   1
  -4  -2 -13   74.00    2.30   1
   4   2  14   12.40    1.60   1
  -4  -2 -14   14.60    1.60   1
   4   2  15    0.60    1.90   1
  -4  -2 -15   -1.10    1.50   1
   4   2  16   71.80    3.30   1
  -4  -2 -16   73.80    3.00   1
   4   2  17   29.90    2.70   1
  -4  -2 -17   31.60    2.60   1
   4   2  18   81.40    3.60   1
  -4  -2 -18   86.80    3.80   1
   4   2  19    4.20    3.00   1
  -4  -2 -19   12.30    2.80   1
   4   2  20   31.00    3.90   1
  -4  -2 -20   31.70    3.50   1
   4   3   0  837.40    8.50   1
   4   3   1  287.90    3.00   1
  -4  -3  -1  286.30    2.90   1
   4   3   2   76.70    1.10   1
  -4  -3  -2   75.10    1.10   1
   4   3   3 1020.00    9.40   1
  -4  -3  -3 1021.40    9.50   1
   4   3   4  296.90    3.10   1
  -4  -3  -4  289.80    3.20   1
   4   3   5  149.40    2.20   1
  -4  -3  -5  144.90    1.90   1
   4   3   6  219.60    3.10   1
  -4  -3  -6  220.70    3.10   1
   4   3   7  599.10    7.90   1
  -4  -3  -7  602.60    7.50   1
   4   3   8   47.10    1.40   1
  -4  -3  -8   47.60    1.40   1
   4   3   9   87.40    1.90   1
  -4  -3  -9   88.80    2.20   1
   4   3  10  182.80    3.20   1
  -4  -3 -10  182.30    3.30   1
   4   3  11  337.40    5.40   1
  -4  -3 -11  345.10    5.40   1
   4   3  12    9.00    1.30   1
  -4  -3 -12    6.90    1.30   1
   4   3  13   10.60    1.50   1
  -4  -3 -13   11.70    1.40   1
   4   3  14  133.40    4.00   1
  -4  -3 -14  142.80    3.80   1
   4   3  15  374.10    7.50   1
  -4  -3 -15  403.50    7.90   1
   4   3  16   19.30    2.30   1
  -4  -3 -16   17.00    2.10   1
   4   3  17   25.10    2.50   1
  -4  -3 -17   25.00    2.50   1
   4   3  18   43.40    2.90   1
  -4  -3 -18   47.10    2.80   1
   4   3  19   95.10    5.00   1
  -4  -3 -19  100.50    4.50   1
   4   4   0  268.90    2.70   1
   4   4   1   25.70    0.60   1
  -4  -4  -1   25.70    0.60   1
   4   4   2   80.80    1.20   1
  -4  -4  -2   75.30    1.20   1
   4   4   3  135.00    1.80   1
  -4  -4  -3  128.10    1.90   1
   4   4   4 1292.20   12.50   1
  -4  -4  -4 1279.50   13.30   1
   4   4   5   15.70    0.80   1
  -4  -4  -5   16.30    0.80   1
   4   4   6  426.00    6.30   1
  -4  -4  -6  407.60    4.80   1
   4   4   7   56.50    1.50   1
  -4  -4  -7   53.40    1.50   1
   4   4   8   26.80    1.20   1
  -4  -4  -8   25.00    1.30   1
   4   4   9   74.20    1.70   1
  -4  -4  -9   71.70    1.70   1
   4   4  10    4.70    1.10   1
  -4  -4 -10    4.50    1.10   1
   4   4  11    0.10    1.20   1
  -4  -4 -11    0.10    1.00   1
   4   4  12  676.90   10.00   1
  -4  -4 -12  681.30    9.60   1
   4   4  13   41.60    2.40   1
  -4  -4 -13   48.40    2.30   1
   4   4  14  430.90    8.70   1
  -4  -4 -14  441.00    8.90   1
   4   4  15    3.10    2.20   1
  -4  -4 -15    2.80    1.90   1
   4   4  16   -3.50    2.00   1
  -4  -4 -16   -0.70    2.00   1
   4   4  17   40.40    2.90   1
  -4  -4 -17   40.30    2.70   1
   4   4  18   11.80    2.60   1
  -4  -4 -18   21.00    2.50   1
   4   4  19   15.80    3.00   1
  -4  -4 -19   17.50    2.70   1
   4   5   0  235.60    3.00   1
   4   5   1   38.90    0.90   1
  -4  -5  -1   39.70    1.00   1
   4   5   2   54.90    1.10   1
  -4  -5  -2   55.60    1.10   1
   4   5   3   31.90    0.80   1
  -4  -5  -3   31.40    0.90   1
   4   5   4  107.10    2.00   1
  -4  -5  -4  111.80    1.90   1
   4   5   5    7.30    0.70   1
  -4  -5  -5    7.00    0.70   1
   4   5   6  110.30    1.90   1
  -4  -5  -6  114.20    2.10   1
   4   5   7   14.70    1.00   1
  -4  -5  -7   14.70    0.90   1
   4   5   8    8.70    1.00   1
  -4  -5  -8    7.80    1.00   1
   4   5   9    9.30    1.00   1
  -4  -5  -9    7.30    1.10   1
   4   5  10   37.70    1.60   1
  -4  -5 -10   45.00    1.60   1
   4   5  11   32.90    1.60   1
  -4  -5 -11   31.10    1.80   1
   4   5  12   -1.20    1.50   1
  -4  -5 -12   -0.50    1.30   1
   4   5  13    3.50    2.10   1
  -4  -5 -13    5.50    1.60   1
   4   5  14   62.00    3.30   1
  -4  -5 -14   65.10    2.70   1
   4   5  15   14.00    2.10   1
  -4  -5 -15   17.60    2.20   1
   4   5  16   11.40    2.40   1
  -4  -5 -16   10.30    2.20   1
   4   5  17    2.60    2.60   1
  -4  -5 -17    0.60    2.20   1
   4   5  18   16.20    3.20   1
  -4  -5 -18   21.60    3.10   1
   4   6   0    4.60    0.60   1
   4   6   1   82.30    1.40   1
  -4  -6  -1   82.70    1.50   1
   4   6   2   43.20    1.00   1
  -4  -6  -2   44.70    1.10   1
   4   6   3  169.90    2.60   1
  -4  -6  -3  173.10    2.80   1
   4   6   4  708.20    8.70   1
  -4  -6  -4  696.50    8.70   1
   4   6   5    0.20    0.80   1
  -4  -6  -5    1.30    0.80   1
   4   6   6  275.40    4.40   1
  -4  -6  -6  272.30    4.10   1
   4   6   7  113.60    2.50   1
  -4  -6  -7  118.60    2.60   1
   4   6   8    1.10    1.10   1
  -4  -6  -8    2.50    1.10   1
   4   6   9   18.20    1.30   1
  -4  -6  -9   19.40    1.40   1
   4   6  10   25.70    1.50   1
  -4  -6 -10   25.00    1.60   1
   4   6  11   63.10    2.20   1
  -4  -6 -11   62.50    2.40   1
   4   6  12  203.30    4.60   1
  -4  -6 -12  205.80    4.70   1
   4   6  13   46.30    2.70   1
  -4  -6 -13   49.30    2.50   1
   4   6  14  309.60    7.20   1
  -4  -6 -14  333.60    7.00   1
   4   6  15    1.00    2.50   1
  -4  -6 -15    4.10    2.10   1
   4   6  16   -1.70    2.40   1
  -4  -6 -16    1.50    2.10   1
   4   6  17   46.40    3.20   1
  -4  -6 -17   42.90    3.60   1
   4   6  18    1.30    3.10   1
  -4  -6 -18   -0.60    2.70   1
   4   7   0   21.30    1.00   1
   4   7   1  252.50    3.60   1
  -4  -7  -1  248.80    3.70   1
   4   7   2    1.30    0.60   1
  -4  -7  -2    2.00    0.80   1
   4   7   3  339.10    4.50   1
  -4  -7  -3  343.60    4.60   1
   4   7   4   39.60    1.30   1
  -4  -7  -4   41.90    1.30   1
   4   7   5   39.70    1.30   1
  -4  -7  -5   39.30    1.40   1
   4   7   6   38.20    1.40   1
  -4  -7  -6   38.00    1.50   1
   4   7   7  254.90    4.40   1
  -4  -7  -7  262.40    4.60   1
   4   7   8    7.40    1.30   1
  -4  -7  -8    8.20    1.20   1
   4   7   9   14.70    1.50   1
  -4  -7  -9   12.60    1.50   1
   4   7  10   92.30    2.50   1
  -4  -7 -10   94.70    2.90   1
   4   7  11  333.40    6.00   1
  -4  -7 -11  334.50    6.70   1
   4   7  12   32.50    2.20   1
  -4  -7 -12   31.80    2.20   1
   4   7  13    1.90    2.00   1
  -4  -7 -13    1.60    1.90   1
   4   7  14   15.90    2.50   1
  -4  -7 -14   11.90    2.20   1
   4   7  15  189.60    6.10   1
  -4  -7 -15  209.90    6.50   1
   4   7  16   37.10    3.30   1
  -4  -7 -16   41.10    3.50   1
   4   7  17   28.60    3.40   1
  -4  -7 -17   28.10    3.40   1
   4   8   0  884.00   10.00   1
   4   8   1   50.60    1.50   1
  -4  -8  -1   51.40    1.40   1
   4   8   2  213.30    3.60   1
  -4  -8  -2  212.30    3.20   1
   4   8   3  143.10    2.80   1
  -4  -8  -3  136.30    2.40   1
   4   8   4    3.60    1.00   1
  -4  -8  -4    4.30    1.00   1
   4   8   5   13.90    1.20   1
  -4  -8  -5    8.80    1.20   1
   4   8   6    8.60    1.30   1
  -4  -8  -6    9.90    1.40   1
   4   8   7  170.40    3.60   1
  -4  -8  -7  174.10    3.20   1
   4   8   8  329.30    6.10   1
  -4  -8  -8  328.30    5.50   1
   4   8   9   13.50    1.50   1
  -4  -8  -9    7.90    1.50   1
   4   8  10  250.50    5.30   1
  -4  -8 -10  256.60    5.80   1
   4   8  11   73.30    2.70   1
  -4  -8 -11   73.80    2.70   1
   4   8  12    4.70    1.90   1
  -4  -8 -12    1.50    1.80   1
   4   8  13   85.20    3.90   1
  -4  -8 -13   93.00    4.00   1
   4   8  14    7.90    2.30   1
  -4  -8 -14   10.00    2.50   1
   4   8  15    0.70    2.80   1
  -4  -8 -15    6.40    2.70   1
   4   8  16   62.70    4.00   1
  -4  -8 -16   70.30    4.40   1
   4   9   0   41.40    1.50   1
   4   9   1    0.70    1.00   1
  -4  -9  -1   -0.30    0.90   1
   4   9   2    0.40    1.00   1
  -4  -9  -2    0.50    0.90   1
   4   9   3   15.10    1.20   1
  -4  -9  -3   15.80    1.10   1
   4   9   4   61.90    2.00   1
  -4  -9  -4   57.50    1.90   1
   4   9   5   14.90    1.40   1
  -4  -9  -5   15.30    1.50   1
   4   9   6   31.20    1.70   1
  -4  -9  -6   30.10    1.60   1
   4   9   7   10.90    1.50   1
  -4  -9  -7   12.30    1.30   1
   4   9   8   18.40    1.60   1
  -4  -9  -8   23.50    1.60   1
   4   9   9    9.10    1.60   1
  -4  -9  -9   11.60    1.70   1
   4   9  10   78.80    3.20   1
  -4  -9 -10   70.70    2.70   1
   4   9  11    3.30    1.80   1
  -4  -9 -11    5.50    1.70   1
   4   9  12    2.40    2.00   1
  -4  -9 -12    0.90    2.10   1
   4   9  13   -1.90    2.60   1
  -4  -9 -13   -0.20    2.20   1
   4   9  14   24.80    3.30   1
  -4  -9 -14   21.80    2.70   1
   4   9  15   13.20    3.10   1
  -4  -9 -15    6.40    2.70   1
   4  10   0  928.70   12.00   1
   4  10   1   14.30    1.30   1
  -4 -10  -1   14.80    1.50   1
   4  10   2  124.50    2.70   1
  -4 -10  -2  130.60    2.80   1
   4  10   3   14.90    1.50   1
  -4 -10  -3   13.20    1.40   1
   4  10   4   53.30    2.00   1
  -4 -10  -4   57.60    2.20   1
   4  10   5    0.50    1.30   1
  -4 -10  -5    0.60    1.40   1
   4  10   6    7.70    1.40   1
  -4 -10  -6    3.70    1.40   1
   4  10   7   23.10    1.80   1
  -4 -10  -7   20.30    1.60   1
   4  10   8  436.90    8.10   1
  -4 -10  -8  426.30    7.10   1
   4  10   9   30.10    2.50   1
  -4 -10  -9   24.60    2.10   1
   4  10  10  257.10    6.90   1
  -4 -10 -10  251.50    6.10   1
   4  10  11   -0.40    2.00   1
  -4 -10 -11    2.10    1.80   1
   4  10  12   17.80    2.70   1
  -4 -10 -12   14.50    2.60   1
   4  10  13   35.50    3.50   1
  -4 -10 -13   34.20    3.00   1
   4  10  14   10.40    3.10   1
  -4 -10 -14    6.90    2.70   1
   4  11   0  259.90    5.20   1
   4  11   1  195.60    4.30   1
  -4 -11  -1  208.30    5.10   1
   4  11   2   42.60    2.20   1
  -4 -11  -2   37.30    2.50   1
   4  11   3  256.00    4.70   1
  -4 -11  -3  256.50    5.60   1
   4  11   4  122.90    3.10   1
  -4 -11  -4  113.70    3.20   1
   4  11   5   36.10    2.00   1
  -4 -11  -5   31.80    2.00   1
   4  11   6   75.20    2.80   1
  -4 -11  -6   73.90    2.50   1
   4  11   7  190.20    5.10   1
  -4 -11  -7  199.10    4.70   1
   4  11   8   33.00    2.80   1
  -4 -11  -8   24.80    1.90   1
   4  11   9   10.50    2.30   1
  -4 -11  -9   11.40    2.00   1
   4  11  10   61.60    3.30   1
  -4 -11 -10   57.70    3.00   1
   4  11  11  197.80    7.00   1
  -4 -11 -11  202.60    6.00   1
   4  11  12    0.10    2.70   1
  -4 -11 -12    3.20    2.50   1
   4  12   0    1.20    1.80   1
   4  12   1    9.50    2.00   1
  -4 -12  -1   10.40    2.00   1
   4  12   2   38.50    2.30   1
  -4 -12  -2   43.00    2.30   1
   4  12   3   46.50    2.60   1
  -4 -12  -3   43.80    2.40   1
   4  12   4  106.60    3.70   1
  -4 -12  -4  103.50    3.40   1
   4  12   5    2.30    1.80   1
  -4 -12  -5    3.80    1.90   1
   4  12   6   59.40    3.20   1
  -4 -12  -6   71.20    3.00   1
   4  12   7   15.90    2.30   1
  -4 -12  -7   15.90    2.20   1
   4  12   8   24.80    2.70   1
  -4 -12  -8   19.10    2.20   1
   4  12   9   10.80    2.60   1
  -4 -12  -9   11.10    2.20   1
   4  12  10   16.90    2.90   1
  -4 -12 -10   18.20    2.60   1
   4  13   0   24.90    2.60   1
   4  13   1   40.20    2.70   1
  -4 -13  -1   43.10    2.90   1
   4  13   2    9.50    2.50   1
  -4 -13  -2    7.10    2.30   1
   4  13   3   49.30    3.10   1
  -4 -13  -3   49.00    3.00   1
   4  13   4    9.00    2.40   1
  -4 -13  -4    4.70    2.60   1
   4  13   5   10.00    2.90   1
  -4 -13  -5   15.30    2.80   1
   4  13   6   20.60    2.90   1
  -4 -13  -6   12.30    2.30   1
   4  13   7   62.50    3.90   1
  -4 -13  -7   53.80    3.40   1
   4  13   8    4.10    2.90   1
  -4 -13  -8   -1.60    2.10   1
   4  14   0   58.70    3.50   1
   4  14   1   34.80    3.10   1
  -4 -14  -1   36.40    2.90   1
   4  14   2   26.80    2.90   1
  -4 -14  -2   24.70    3.00   1
   4  14   3  106.40    5.00   1
  -4 -14  -3   92.90    4.60   1
   4  14   4  292.30    9.10   1
  -4 -14  -4  292.20    9.30   1
   5   0   0    0.80    1.30   1
   5   0   1   88.40    1.80   1
   5   0   2    0.30    0.80   1
   5   0   3  806.70    9.40   1
   5   0   4   61.50    1.70   1
   5   0   5 1473.90   18.20   1
   5   0   6    4.40    0.90   1
   5   0   7    4.50    1.20   1
   5   0   8    1.10    1.00   1
   5   0   9  239.10    4.10   1
   5   0  10   15.20    1.50   1
   5   0  11   40.80    2.00   1
   5   0  12    4.10    1.50   1
   5   0  13  800.90   11.90   1
   5   0  14   30.80    2.20   1
   5   0  15  228.50    5.70   1
   5   0  16   12.50    2.70   1
   5   0  17   25.10    2.90   1
   5   1   0    2.10    1.10   1
   5   1   1   93.30    2.00   1
  -5  -1  -1   89.00    2.10   1
   5   1   2   98.70    2.10   1
  -5  -1  -2   98.80    2.00   1
   5   1   3   43.30    1.50   1
  -5  -1  -3   46.20    1.60   1
   5   1   4   21.60    1.30   1
  -5  -1  -4   22.70    1.20   1
   5   1   5  213.90    4.50   1
  -5  -1  -5  212.40    3.70   1
   5   1   6   44.20    1.70   1
  -5  -1  -6   42.80    1.60   1
   5   1   7    1.80    1.00   1
  -5  -1  -7    3.00    1.00   1
   5   1   8   -0.20    1.00   1
  -5  -1  -8   -0.20    1.00   1
   5   1   9  158.00    3.30   1
  -5  -1  -9  160.80    3.40   1
   5   1  10   54.40    2.10   1
  -5  -1 -10   60.50    2.20   1
   5   1  11   71.50    2.50   1
  -5  -1 -11   75.40    2.50   1
   5   1  12    6.70    1.70   1
  -5  -1 -12    3.90    1.60   1
   5   1  13   17.70    2.10   1
  -5  -1 -13   21.50    1.90   1
   5   1  14   73.50    3.00   1
  -5  -1 -14   72.00    2.90   1
   5   1  15   57.20    3.10   1
  -5  -1 -15   69.30    3.10   1
   5   1  16   40.30    3.00   1
  -5  -1 -16   37.80    3.10   1
   5   1  17    0.20    2.60   1
  -5  -1 -17   -1.60    2.60   1
   5   2   0    1.50    0.90   1
   5   2   1  247.60    4.40   1
  -5  -2  -1  244.90    4.30   1
   5   2   2  232.40    4.20   1
  -5  -2  -2  235.00    3.80   1
   5   2   3  126.00    2.80   1
  -5  -2  -3  125.70    2.40   1
   5   2   4   45.80    1.70   1
  -5  -2  -4   45.80    1.60   1
   5   2   5   72.70    2.00   1
  -5  -2  -5   66.60    1.70   1
   5   2   6   88.50    2.30   1
  -5  -2  -6   85.20    2.20   1
   5   2   7   40.10    1.70   1
  -5  -2  -7   37.50    1.70   1
   5   2   8  117.10    2.60   1
  -5  -2  -8  118.00    2.70   1
   5   2   9  170.30    3.60   1
  -5  -2  -9  163.90    3.60   1
   5   2  10    4.70    1.40   1
  -5  -2 -10    4.40    1.50   1
   5   2  11  185.70    4.00   1
  -5  -2 -11  185.00    3.70   1
   5   2  12   83.10    2.70   1
  -5  -2 -12   89.80    2.90   1
   5   2  13   62.90    2.50   1
  -5  -2 -13   65.20    2.50   1
   5   2  14   10.40    2.20   1
  -5  -2 -14    6.70    2.00   1
   5   2  15    4.70    2.30   1
  -5  -2 -15    7.30    2.50   1
   5   2  16   22.30    2.70   1
  -5  -2 -16   21.50    2.50   1
   5   2  17    8.10    2.70   1
  -5  -2 -17   10.00    3.00   1
   5   3   0    0.20    0.90   1
   5   3   1   14.70    1.20   1
  -5  -3  -1   15.70    1.10   1
   5   3   2  962.90   13.10   1
  -5  -3  -2  937.90   13.30   1
   5   3   3   33.10    1.50   1
  -5  -3  -3   31.50    1.50   1
   5   3   4  138.30    2.80   1
  -5  -3  -4  141.90    2.80   1
   5   3   5   35.50    1.40   1
  -5  -3  -5   37.90    1.40   1
   5   3   6  409.60    6.60   1
  -5  -3  -6  416.50    6.30   1
   5   3   7    5.30    1.20   1
  -5  -3  -7    6.80    1.20   1
   5   3   8  139.40    3.00   1
  -5  -3  -8  132.60    3.00   1
   5   3   9    8.60    1.40   1
  -5  -3  -9    5.30    1.30   1
   5   3  10  205.10    4.70   1
  -5  -3 -10  202.50    4.30   1
   5   3  11   29.20    1.90   1
  -5  -3 -11   28.30    1.90   1
   5   3  12  182.60    4.30   1
  -5  -3 -12  184.00    4.30   1
   5   3  13    3.20    2.10   1
  -5  -3 -13    3.20    1.80   1
   5   3  14   66.80    3.30   1
  -5  -3 -14   64.30    3.00   1
   5   3  15   48.50    3.10   1
  -5  -3 -15   54.00    3.10   1
   5   3  16  186.30    5.90   1
  -5  -3 -16  187.30    5.90   1
   5   3  17    7.90    2.90   1
  -5  -3 -17    0.10    2.50   1
   5   4   0    2.70    1.00   1
   5   4   1  560.90    8.30   1
  -5  -4  -1  568.40    8.80   1
   5   4   2  228.90    4.30   1
  -5  -4  -2  229.10    4.60   1
   5   4   3    2.70    1.20   1
  -5  -4  -3    1.00    1.00   1
   5   4   4   31.30    1.40   1
  -5  -4  -4   31.40    1.50   1
   5   4   5   10.10    1.20   1
  -5  -4  -5    8.00    1.20   1
   5   4   6  186.60    3.70   1
  -5  -4  -6  188.90    4.00   1
   5   4   7  392.70    6.60   1
  -5  -4  -7  385.10    6.60   1
   5   4   8  122.60    3.20   1
  -5  -4  -8  122.50    3.00   1
   5   4   9  609.90   10.20   1
  -5  -4  -9  613.10    9.90   1
   5   4  10   14.50    1.90   1
  -5  -4 -10    9.80    1.80   1
   5   4  11   29.00    2.10   1
  -5  -4 -11   29.60    2.20   1
   5   4  12   74.50    3.40   1
  -5  -4 -12   81.80    3.30   1
   5   4  13   33.90    2.60   1
  -5  -4 -13   28.70    2.30   1
   5   4  14    2.00    2.50   1
  -5  -4 -14    6.60    2.40   1
   5   4  15   18.40    2.70   1
  -5  -4 -15   17.50    2.80   1
   5   4  16   36.60    4.00   1
  -5  -4 -16   28.60    3.10   1
   5   5   0    0.50    1.00   1
   5   5   1   61.10    1.90   1
  -5  -5  -1   68.70    2.00   1
   5   5   2  239.00    4.80   1
  -5  -5  -2  241.80    5.40   1
   5   5   3    2.60    1.10   1
  -5  -5  -3    0.20    1.20   1
   5   5   4   44.80    1.70   1
  -5  -5  -4   45.30    1.90   1
   5   5   5   45.20    1.90   1
  -5  -5  -5   46.70    2.00   1
   5   5   6   36.60    1.80   1
  -5  -5  -6   33.90    1.90   1
   5   5   7   29.80    1.70   1
  -5  -5  -7   25.90    1.90   1
   5   5   8   55.10    2.30   1
  -5  -5  -8   55.40    2.60   1
   5   5   9   22.60    2.00   1
  -5  -5  -9   21.40    2.00   1
   5   5  10   22.60    1.90   1
  -5  -5 -10   22.80    2.00   1
   5   5  11   23.20    3.00   1
  -5  -5 -11   25.20    2.20   1
   5   5  12   35.60    3.00   1
  -5  -5 -12   34.00    2.60   1
   5   5  13    4.80    2.70   1
  -5  -5 -13    3.60    2.30   1
   5   5  14    9.20    2.70   1
  -5  -5 -14    1.50    2.50   1
   5   5  15   43.40    3.30   1
  -5  -5 -15   46.40    3.50   1
   5   5  16   26.80    3.80   1
  -5  -5 -16   30.60    3.20   1
   5   6   0    5.70    1.50   1
   5   6   1  753.70   13.10   1
  -5  -6  -1  735.20   11.80   1
   5   6   2   36.20    2.00   1
  -5  -6  -2   36.10    1.60   1
   5   6   3    3.00    1.30   1
  -5  -6  -3    2.40    1.30   1
   5   6   4   57.10    2.10   1
  -5  -6  -4   52.20    2.10   1
   5   6   5   61.40    2.20   1
  -5  -6  -5   63.40    2.60   1
   5   6   6   26.10    1.80   1
  -5  -6  -6   26.60    1.80   1
   5   6   7  126.00    3.60   1
  -5  -6  -7  127.60    3.40   1
   5   6   8   14.10    1.90   1
  -5  -6  -8   12.70    2.00   1
   5   6   9  582.80   11.00   1
  -5  -6  -9  569.20   11.20   1
   5   6  10    2.10    1.90   1
  -5  -6 -10    6.60    2.10   1
   5   6  11  100.90    3.60   1
  -5  -6 -11  108.30    4.00   1
   5   6  12   26.40    3.30   1
  -5  -6 -12   24.40    2.40   1
   5   6  13   30.20    3.50   1
  -5  -6 -13   25.20    2.60   1
   5   6  14   23.70    3.60   1
  -5  -6 -14   19.10    2.90   1
   5   6  15    3.00    3.30   1
  -5  -6 -15   -5.40    3.00   1
   5   7   0   -2.30    1.50   1
   5   7   1   64.10    2.60   1
  -5  -7  -1   59.00    2.50   1
   5   7   2  320.70    6.60   1
  -5  -7  -2  323.80    6.80   1
   5   7   3   28.00    1.80   1
  -5  -7  -3   25.60    1.80   1
   5   7   4   35.20    2.00   1
  -5  -7  -4   39.40    2.00   1
   5   7   5  163.10    4.50   1
  -5  -7  -5  159.20    4.30   1
   5   7   6  165.50    4.20   1
  -5  -7  -6  162.80    4.20   1
   5   7   7   -0.30    1.90   1
  -5  -7  -7    2.10    1.70   1
   5   7   8   22.40    2.10   1
  -5  -7  -8   21.20    2.00   1
   5   7   9  122.10    3.90   1
  -5  -7  -9  118.30    4.30   1
   5   7  10  138.10    5.10   1
  -5  -7 -10  140.90    4.80   1
   5   7  11   36.60    2.70   1
  -5  -7 -11   41.60    2.90   1
   5   7  12   58.70    4.50   1
  -5  -7 -12   53.10    3.50   1
   5   7  13   18.20    3.40   1
  -5  -7 -13   12.80    3.00   1
   5   7  14   80.80    4.60   1
  -5  -7 -14   86.00    4.40   1
   5   8   0   -2.40    1.70   1
   5   8   1    6.10    1.70   1
  -5  -8  -1    3.40    1.60   1
   5   8   2   21.00    1.70   1
  -5  -8  -2   22.40    1.70   1
   5   8   3  300.90    6.10   1
  -5  -8  -3  315.50    6.70   1
   5   8   4   11.00    1.80   1
  -5  -8  -4   11.00    2.00   1
   5   8   5  458.80    9.00   1
  -5  -8  -5  464.20    8.60   1
   5   8   6    0.50    1.80   1
  -5  -8  -6    1.10    1.80   1
   5   8   7   21.80    2.40   1
  -5  -8  -7   19.70    2.00   1
   5   8   8    9.30    2.20   1
  -5  -8  -8   11.40    2.10   1
   5   8   9   55.70    3.00   1
  -5  -8  -9   53.40    3.20   1
   5   8  10   -0.30    2.30   1
  -5  -8 -10    4.90    2.40   1
   5   8  11   22.60    3.00   1
  -5  -8 -11   14.20    2.70   1
   5   8  12    8.00    3.00   1
  -5  -8 -12    5.30    2.90   1
   5   8  13  267.80    8.80   1
  -5  -8 -13  275.00    8.20   1
   5   9   0    0.10    1.80   1
   5   9   1   13.20    2.20   1
  -5  -9  -1   13.60    2.10   1
   5   9   2   71.00    3.00   1
  -5  -9  -2   71.80    3.50   1
   5   9   3    4.20    1.90   1
  -5  -9  -3    2.70    2.10   1
   5   9   4    4.80    1.80   1
  -5  -9  -4    1.40    2.10   1
   5   9   5   74.10    3.10   1
  -5  -9  -5   70.30    3.20   1
   5   9   6   78.00    3.60   1
  -5  -9  -6   80.10    3.30   1
   5   9   7    3.70    2.10   1
  -5  -9  -7   -0.80    1.80   1
   5   9   8   42.00    3.40   1
  -5  -9  -8   41.90    2.80   1
   5   9   9   20.90    2.60   1
  -5  -9  -9   14.00    2.60   1
   5   9  10   12.90    3.20   1
  -5  -9 -10   11.90    2.60   1
   5   9  11   38.90    3.70   1
  -5  -9 -11   37.20    3.60   1
   5   9  12   42.80    4.50   1
  -5  -9 -12   38.40    3.50   1
   5  10   0   -1.90    2.30   1
   5  10   1    4.80    2.70   1
  -5 -10  -1   -1.90    2.50   1
   5  10   2  114.80    4.50   1
  -5 -10  -2  117.50    5.20   1
   5  10   3  176.90    5.90   1
  -5 -10  -3  173.40    5.90   1
   5  10   4   28.80    2.40   1
  -5 -10  -4   24.30    2.60   1
   5  10   5  242.70    6.60   1
  -5 -10  -5  245.70    7.70   1
   5  10   6   98.80    4.10   1
  -5 -10  -6   95.20    4.20   1
   5  10   7    2.80    2.40   1
  -5 -10  -7    4.40    2.40   1
   5  10   8   57.80    3.50   1
  -5 -10  -8   53.90    3.30   1
   5  10   9    5.90    3.10   1
  -5 -10  -9    1.40    2.50   1
   5  10  10    9.30    3.30   1
  -5 -10 -10   11.00    3.00   1
   5  11   0    4.50    3.10   1
   5  11   1   15.40    3.50   1
  -5 -11  -1    8.70    3.30   1
   5  11   2  310.30   10.60   1
  -5 -11  -2  291.60    9.10   1
   5  11   3   16.60    3.70   1
  -5 -11  -3    5.50    2.90   1
   5  11   4   33.40    3.70   1
  -5 -11  -4   36.40    3.80   1
   5  11   5    2.10    2.50   1
  -5 -11  -5    0.30    2.90   1
   5  11   6  118.10    4.90   1
  -5 -11  -6  109.50    4.90   1
   5  11   7   14.70    3.30   1
  -5 -11  -7   16.90    2.80   1
   5  11   8   46.40    5.90   1
  -5 -11  -8   46.50    4.50   1
   5  12   0    3.60    3.50   1
   5  12   1   29.10    3.90   1
  -5 -12  -1   15.50    3.40   1
   5  12   2   45.30    4.10   1
  -5 -12  -2   40.10    3.90   1
   5  12   3   30.80    4.10   1
  -5 -12  -3   26.40    3.90   1
   5  12   4   17.50    3.70   1
  -5 -12  -4   10.60    3.20   1
   5  12   5   45.90    4.40   1
  -5 -12  -5   47.70    4.20   1
   6   0   0  597.50   11.90   1
   6   0   1   91.40    2.50   1
   6   0   2   68.50    2.30   1
   6   0   3  125.00    3.00   1
   6   0   4    3.80    1.40   1
   6   0   5    4.10    1.40   1
   6   0   6   58.20    2.40   1
   6   0   7  129.90    3.50   1
   6   0   8  421.60    9.00   1
   6   0   9   10.70    2.10   1
   6   0  10  146.50    4.60   1
   6   0  11   54.70    3.30   1
   6   0  12   24.80    3.20   1
   6   0  13    5.70    2.70   1
   6   0  14   11.50    6.00   1
   6   1   0   31.20    1.80   1
   6   1   1  182.20    4.00   1
  -6  -1  -1  183.70    3.60   1
   6   1   2   25.20    1.70   1
  -6  -1  -2   26.50    1.70   1
   6   1   3  293.60    5.30   1
  -6  -1  -3  291.50    5.20   1
   6   1   4   12.40    1.50   1
  -6  -1  -4   15.20    1.60   1
   6   1   5   67.30    2.20   1
  -6  -1  -5   68.90    2.50   1
   6   1   6   17.90    1.70   1
  -6  -1  -6   17.60    1.80   1
   6   1   7  421.40    7.70   1
  -6  -1  -7  419.90    8.40   1
   6   1   8   -1.90    1.80   1
  -6  -1  -8    0.40    1.60   1
   6   1   9   -0.30    1.90   1
  -6  -1  -9    3.70    1.90   1
   6   1  10    5.30    2.10   1
  -6  -1 -10   -1.50    1.90   1
   6   1  11  217.40    6.80   1
  -6  -1 -11  230.80    6.10   1
   6   1  12    5.60    2.60   1
  -6  -1 -12    4.90    2.60   1
   6   1  13   39.30    3.70   1
  -6  -1 -13   46.50    4.20   1
   6   1  14    8.90    4.00   1
  -6  -1 -14    5.30    3.70   1
   6   2   0  493.90    8.60   1
   6   2   1    7.50    1.50   1
  -6  -2  -1    7.60    1.60   1
   6   2   2  143.70    3.40   1
  -6  -2  -2  146.80    3.80   1
   6   2   3   94.40    2.60   1
  -6  -2  -3   86.70    2.70   1
   6   2   4    2.50    1.40   1
  -6  -2  -4    1.40    1.50   1
   6   2   5   -0.50    1.40   1
  -6  -2  -5    2.00    1.70   1
   6   2   6    8.20    1.60   1
  -6  -2  -6    1.10    1.60   1
   6   2   7   52.70    2.30   1
  -6  -2  -7   50.90    2.40   1
   6   2   8  180.10    4.60   1
  -6  -2  -8  190.30    4.60   1
   6   2   9    6.70    2.20   1
  -6  -2  -9    9.60    2.00   1
   6   2  10  255.60    7.90   1
  -6  -2 -10  256.10    6.60   1
   6   2  11   10.20    2.50   1
  -6  -2 -11    7.70    2.60   1
   6   2  12   29.20    2.90   1
  -6  -2 -12   28.10    3.20   1
   6   2  13   57.20    4.30   1
  -6  -2 -13   56.20    4.10   1
   6   3   0  157.10    4.90   1
   6   3   1   50.70    2.30   1
  -6  -3  -1   51.50    2.70   1
   6   3   2    1.40    1.40   1
  -6  -3  -2   -0.10    1.50   1
   6   3   3   12.30    1.60   1
  -6  -3  -3   12.80    2.30   1
   6   3   4  160.20    3.80   1
  -6  -3  -4  163.60    4.20   1
   6   3   5   73.50    2.60   1
  -6  -3  -5   61.40    3.20   1
   6   3   6   43.30    2.20   1
  -6  -3  -6   40.30    2.60   1
   6   3   7   72.60    2.70   1
  -6  -3  -7   67.20    3.20   1
   6   3   8   84.20    3.10   1
  -6  -3  -8   77.40    3.20   1
   6   3   9   18.10    2.30   1
  -6  -3  -9   14.90    2.20   1
   6   3  10  106.10    4.70   1
  -6  -3 -10  116.80    4.30   1
   6   3  11  105.20    4.30   1
  -6  -3 -11  104.20    4.60   1
   6   3  12    1.20    3.00   1
  -6  -3 -12    0.20    2.70   1
   6   3  13   17.00    3.90   1
  -6  -3 -13    9.80    2.90   1
   6   4   0  261.10    6.60   1
   6   4   1    6.30    1.90   1
  -6  -4  -1    9.30    2.10   1
   6   4   2   15.10    2.00   1
  -6  -4  -2   18.70    2.30   1
   6   4   3   -0.70    1.80   1
  -6  -4  -3   -1.30    2.20   1
   6   4   4 1102.00   16.60   1
  -6  -4  -4 1106.40   20.30   1
   6   4   5    2.70    1.60   1
  -6  -4  -5   -0.20    2.00   1
   6   4   6  462.60    8.80   1
  -6  -4  -6  441.70   10.60   1
   6   4   7   -0.90    1.80   1
  -6  -4  -7   -2.00    2.40   1
   6   4   8   49.00    2.60   1
  -6  -4  -8   52.10    3.30   1
   6   4   9    3.10    2.20   1
  -6  -4  -9   -2.10    2.90   1
   6   4  10   53.90    3.40   1
  -6  -4 -10   62.80    3.40   1
   6   4  11    6.50    3.00   1
  -6  -4 -11    4.80    2.70   1
   6   4  12  144.30    6.10   1
  -6  -4 -12  147.50    5.60   1
   6   4  13   32.10    4.30   1
  -6  -4 -13   16.70    3.40   1
   6   5   0   43.10    2.40   1
   6   5   1    5.30    1.80   1
  -6  -5  -1    6.70    2.20   1
   6   5   2    2.90    2.10   1
  -6  -5  -2    5.00    2.30   1
   6   5   3   21.40    2.20   1
  -6  -5  -3   18.70    2.60   1
   6   5   4  126.20    4.00   1
  -6  -5  -4  131.30    4.70   1
   6   5   5    7.00    2.10   1
  -6  -5  -5    9.10    2.20   1
   6   5   6   31.80    2.60   1
  -6  -5  -6   31.60    2.80   1
   6   5   7    7.20    2.40   1
  -6  -5  -7    3.90    2.50   1
   6   5   8   53.90    3.50   1
  -6  -5  -8   44.40    3.70   1
   6   5   9    9.00    3.00   1
  -6  -5  -9    8.70    2.90   1
   6   5  10   42.00    3.40   1
  -6  -5 -10   42.10    3.70   1
   6   5  11    1.40    3.80   1
  -6  -5 -11    0.70    3.20   1
   6   5  12   -1.10    3.60   1
  -6  -5 -12    1.90    3.10   1
   6   6   0    9.00    2.10   1
   6   6   1   45.00    2.60   1
  -6  -6  -1   52.10    3.40   1
   6   6   2   95.20    3.50   1
  -6  -6  -2  103.00    4.10   1
   6   6   3   81.30    3.90   1
  -6  -6  -3   78.70    4.40   1
   6   6   4  174.90    5.70   1
  -6  -6  -4  169.50    6.40   1
   6   6   5    5.10    2.20   1
  -6  -6  -5    3.70    2.40   1
   6   6   6   52.90    3.30   1
  -6  -6  -6   48.30    3.50   1
   6   6   7  108.90    4.70   1
  -6  -6  -7  100.20    4.60   1
   6   6   8   -3.00    2.50   1
  -6  -6  -8    2.20    2.80   1
   6   6   9   13.10    2.80   1
  -6  -6  -9   11.40    3.20   1
   6   6  10   21.30    3.40   1
  -6  -6 -10   19.80    3.40   1
   6   6  11   36.00    7.80   1
  -6  -6 -11   42.60    4.10   1
   6   7   0    3.80    2.10   1
   6   7   1  201.00    5.90   1
  -6  -7  -1  197.60    6.40   1
   6   7   2   11.10    2.40   1
  -6  -7  -2   11.20    2.90   1
   6   7   3  362.10   10.10   1
  -6  -7  -3  358.00   10.10   1
   6   7   4    0.30    2.20   1
  -6  -7  -4    5.40    2.80   1
   6   7   5   80.70    4.40   1
  -6  -7  -5   86.30    4.20   1
   6   7   6   -0.30    2.40   1
  -6  -7  -6    0.90    2.90   1
   6   7   7  500.00   13.10   1
  -6  -7  -7  474.60   13.00   1
   6   7   8    9.90    2.90   1
  -6  -7  -8    7.30    3.70   1
   6   7   9   -1.10    3.00   1
  -6  -7  -9    2.30    3.00   1
   6   7  10    4.50    3.40   1
  -6  -7 -10    3.00    3.30   1
   6   8   0   91.60    3.90   1
   6   8   1    9.80    2.40   1
  -6  -8  -1    9.20    2.90   1
   6   8   2   47.30    3.20   1
  -6  -8  -2   43.00    3.50   1
   6   8   3   81.10    4.30   1
  -6  -8  -3   84.20    4.90   1
   6   8   4    2.80    2.40   1
  -6  -8  -4    4.90    3.00   1
   6   8   5    1.40    2.60   1
  -6  -8  -5    4.70    2.80   1
   6   8   6   53.50    3.90   1
  -6  -8  -6   45.80    3.80   1
   6   8   7   63.20    4.00   1
  -6  -8  -7   62.40    4.70   1
   6   8   8  130.30    6.30   1
  -6  -8  -8  117.20    6.40   1
   6   9   0  109.00    6.20   1
   6   9   1    2.00    3.10   1
  -6  -9  -1    2.60    3.10   1
   6   9   2    3.50    2.50   1
  -6  -9  -2    7.20    3.10   1
   6   9   3   -2.30    2.60   1
  -6  -9  -3    7.60    3.10   1
   6   9   4   45.60    3.80   1
  -6  -9  -4   41.70    4.20   1
   6   9   5    3.70    3.20   1
  -6  -9  -5    0.50    3.20   1
   6   9   6   31.80    4.00   1
  -6  -9  -6   26.20    3.50   1
   6  10   0  455.50   14.60   1
   6  10   1   11.60    4.30   1
  -6 -10  -1   11.60    3.80   1
   7   0   0    1.10    3.30   1
   7   0   1  146.20    4.70   1
   7   0   2   12.50    2.30   1
   7   0   3  490.70   11.20   1
   7   0   4    2.10    2.30   1
   7   0   5  958.60   21.70   1
   7   0   6   12.20    3.10   1
   7   0   7   28.50    3.50   1
   7   0   8    3.40    3.30   1
   7   1   0   -1.80    2.10   1
   7   1   1   53.80    3.00   1
  -7  -1  -1   55.10    3.00   1
   7   1   2   16.20    2.60   1
  -7  -1  -2   22.10    3.20   1
   7   1   3    6.10    2.30   1
  -7  -1  -3    7.10    2.80   1
   7   1   4   16.00    2.30   1
  -7  -1  -4   14.40    2.80   1
   7   1   5   48.20    2.80   1
  -7  -1  -5   44.90    3.70   1
   7   1   6   31.10    2.90   1
  -7  -1  -6   30.40    3.80   1
   7   1   7    1.60    2.70   1
  -7  -1  -7   -5.90    3.10   1
   7   1   8    1.20    2.80   1
  -7  -1  -8    1.70    3.40   1
   7   2   0   -2.50    2.70   1
   7   2   1   88.40    4.20   1
  -7  -2  -1   84.60    4.50   1
   7   2   2   14.10    2.60   1
  -7  -2  -2    8.80    3.10   1
   7   2   3   82.30    3.80   1
  -7  -2  -3   83.30    5.10   1
   7   2   4    0.30    2.50   1
  -7  -2  -4    7.80    3.30   1
   7   2   5   13.30    2.30   1
  -7  -2  -5    6.70    2.70   1
   7   2   6    5.70    2.30   1
  -7  -2  -6    3.70    3.50   1
   7   2   7   34.60    3.40   1
  -7  -2  -7   32.50    4.20   1
   7   3   0   -1.20    2.70   1
   7   3   1   19.30    3.20   1
  -7  -3  -1   14.00    3.10   1
   7   3   2  390.80   11.50   1
  -7  -3  -2  387.50   11.30   1
   7   3   3    5.00    2.70   1
  -7  -3  -3    1.20    2.90   1
   7   3   4   27.50    2.70   1
  -7  -3  -4   25.60    4.00   1
   7   3   5    3.50    2.40   1
  -7  -3  -5    3.50    3.10   1
   7   3   6  263.60    7.30   1
  -7  -3  -6  259.70    9.50   1
   7   4   0    2.60    3.30   1
   7   4   1  111.00    5.30   1
  -7  -4  -1  117.00    6.00   1
   7   4   2   64.70    4.20   1
  -7  -4  -2   57.60    4.50   1
   7   4   3    0.90    2.40   1
  -7  -4  -3    8.30    3.40   1
   7   4   4    5.80    2.50   1
  -7  -4  -4   12.10    3.90   1
   7   4   5    8.30    3.20   1
  -7  -4  -5    5.60    4.20   1
   7   5   0   -4.60    3.20   1
   7   5   1    6.20    3.70   1
  -7  -5  -1    2.20    3.70   1
   7   5   2   19.20    3.70   1
  -7  -5  -2   28.10    4.60   1
   7   5   3    4.70    3.00   1
  -7  -5  -3    0.60    3.30   1
   7   5   4   15.70    3.40   1
  -7  -5  -4   21.40    3.90   1
   0   0   0
;
_shelx_hkl_checksum              95269
_shelx_res_file
;
TITL gahas in Pnma
    shelx.res
    created by SHELXL-2016/6 at 12:43:40 on 19-May-2017
REM = new Ga(H2As2O7)(H2AsO4) from Tl-Ga-As mix (no H2O)
REM isotypic to Al compound - res from there
REM 1 H of H2AsO4 not detectable
REM colourless acicular xls
CELL 0.71073   4.916  11.213  15.853  90.000  90.000  90.000
ZERR    4.00   0.0010   0.0022   0.0032   0.000   0.000   0.000
LATT  1
SYMM 0.5-X, -Y, 0.5+Z
SYMM -X, 0.5+Y, -Z
SYMM 0.5+X, 0.5-Y, 0.5-Z
SFAC O H Ga AS
UNIT 44 16 4 12
temp 20
eqiv $1 x-1, y, z
eqiv $2 x-1, -y+1/2, z
eqiv $3 x+1/2, y, -z+3/2
eqiv $4 x-1/2, y, -z+1/2
HTAB O3 O3_$3
EQIV $9 x+1/2, y, -z+1/2
HTAB O6 O5_$9
HTAB O6 O6_$4
size 0.03 0.07 0.15
omit 0 0 2
omit 0 1 1
omit 1 10 4
acta
bond $H
htab
rem      eqiv
L.S. 10
BOND
FMAP 2
PLAN 50
WGHT    0.040500    3.204300
EXTI    0.001026
FVAR       0.23275
MOLE   1
rem belongs to H2AsO4 group
AS1   4    0.064282    0.250000    0.601501    10.50000    0.00934    0.01438 =
         0.01230    0.00000    0.00000    0.00000
rem belongs to H2As2O7 group (As2-As2')
AS2   4    0.490789    0.107486    0.385766    11.00000    0.00747    0.01327 =
         0.01268    0.00038   -0.00065   -0.00040
GA1    3    0.000000    0.000000    0.500000    10.50000    0.00764    0.01285 =
         0.01374    0.00067   -0.00056   -0.00118
O1    1    0.191143    0.128164    0.556407    11.00000    0.00892    0.01463 =
         0.02653   -0.00489   -0.00143    0.00035
O2    1   -0.280461    0.250000    0.610027    10.50000    0.00922    0.03453 =
         0.01755    0.00000    0.00139    0.00000
O3    1    0.136490    0.250000    0.706626    10.50000    0.01806    0.04159 =
         0.01224    0.00000   -0.00113    0.00000
H3    2    0.287345    0.250000    0.721774    10.50000    0.05617
rem
O4    1    0.730310    0.115739    0.457758    11.00000    0.01325    0.01719 =
         0.01790   -0.00249   -0.00543    0.00258
O5    1    0.219593    0.022908    0.396710    11.00000    0.01231    0.02057 =
         0.01605   -0.00061    0.00234   -0.00536
O6    1    0.640020    0.069883    0.291322    11.00000    0.01407    0.03868 =
         0.01589   -0.00524    0.00200   -0.00260
H6    2    0.519290    0.057336    0.252514    11.00000    0.05698
O7    1    0.362673    0.250000    0.369161    10.50000    0.01985    0.01199 =
         0.03732    0.00000   -0.01721    0.00000
HKLF 4
REM  gahas in Pnma
REM R1 =  0.0309 for    1470 Fo > 4sig(Fo)  and  0.0364 for all    1652 data
REM     84 parameters refined using      0 restraints
END
WGHT      0.0405      3.1914
REM Instructions for potential hydrogen bonds
HTAB O3 O3_$3
HTAB O6 O5_$9
HTAB O6 O6_$4
REM Highest difference peak  1.891,  deepest hole -1.522,  1-sigma level  0.202
Q1    1   0.0725  0.2500  0.6495  10.50000  0.05    1.89
Q2    1   0.0651  0.2500  0.5544  10.50000  0.05    1.62
Q3    1   0.4935  0.1066  0.3378  11.00000  0.05    1.41
Q4    1   0.0753  0.1819  0.5981  11.00000  0.05    1.22
Q5    1   0.0013  0.2108  0.4990  11.00000  0.05    1.17
Q6    1   0.4946  0.1105  0.4319  11.00000  0.05    1.15
Q7    1  -0.0016 -0.0006  0.5482  11.00000  0.05    1.09
Q8    1  -0.0534  0.2500  0.6011  10.50000  0.05    1.03
Q9    1   0.0766  0.1438  0.7907  11.00000  0.05    0.85
Q10   1   0.4640  0.2500  0.3326  10.50000  0.05    0.85
Q11   1   0.4957  0.1039  0.6159  11.00000  0.05    0.82
Q12   1   0.4748  0.1813  0.3783  11.00000  0.05    0.81
Q13   1  -0.0003  0.0681  0.4964  11.00000  0.05    0.80
Q14   1   0.3792  0.2500  0.3198  10.50000  0.05    0.79
Q15   1   0.4875  0.1750  0.3515  11.00000  0.05    0.78
Q16   1   0.4940  0.0321  0.3748  11.00000  0.05    0.72
Q17   1   0.6303  0.0587  0.3396  11.00000  0.05    0.64
Q18   1  -0.0598  0.0364  0.3999  11.00000  0.05    0.63
Q19   1   0.5021  0.0043  0.2254  11.00000  0.05    0.61
Q20   1   0.3757  0.2500  0.4359  10.50000  0.05    0.58
Q21   1  -0.4944  0.1768  0.6169  11.00000  0.05    0.57
Q22   1  -0.3418  0.1644  0.5919  11.00000  0.05    0.56
Q23   1   0.5265  0.2500  0.2282  10.50000  0.05    0.54
Q24   1   0.4231  0.1427  0.2871  11.00000  0.05    0.53
Q25   1  -0.2967  0.2167  0.6434  11.00000  0.05    0.53
Q26   1  -0.3173  0.2500  0.5512  10.50000  0.05    0.52
Q27   1   0.2008  0.1049  0.3980  11.00000  0.05    0.51
Q28   1   0.5552  0.1385  0.4908  11.00000  0.05    0.50
Q29   1   0.0974  0.2500  0.4613  10.50000  0.05    0.49
Q30   1  -0.0788  0.2500  0.3284  10.50000  0.05    0.49
Q31   1  -0.4806  0.2500  0.6395  10.50000  0.05    0.48
Q32   1   0.7264  0.1231  0.5002  11.00000  0.05    0.47
Q33   1   0.2977  0.2500  0.7018  10.50000  0.05    0.47
Q34   1  -0.4875  0.1467  0.6637  11.00000  0.05    0.46
Q35   1  -0.1721  0.2500  0.5181  10.50000  0.05    0.46
Q36   1   0.0073  0.1075  0.6588  11.00000  0.05    0.45
Q37   1   0.1476  0.1951  0.5313  11.00000  0.05    0.45
Q38   1   0.1950  0.1762  0.5688  11.00000  0.05    0.45
Q39   1   0.8949  0.2500  0.3827  10.50000  0.05    0.44
Q40   1   0.6864  0.1370  0.3386  11.00000  0.05    0.44
Q41   1   0.3373  0.1851  0.3558  11.00000  0.05    0.43
Q42   1  -0.3649  0.2500  0.6108  10.50000  0.05    0.43
Q43   1   0.4362  0.2500  0.3903  10.50000  0.05    0.42
Q44   1   0.1899  0.0340  0.4502  11.00000  0.05    0.42
Q45   1   0.2314  0.0942  0.3586  11.00000  0.05    0.41
Q46   1   0.1985 -0.0304  0.4138  11.00000  0.05    0.41
Q47   1   0.5817  0.1282  0.2874  11.00000  0.05    0.41
Q48   1   0.4159  0.1056  0.7075  11.00000  0.05    0.41
Q49   1  -0.1171  0.2179  0.6553  11.00000  0.05    0.41
Q50   1   0.8794  0.1757  0.4198  11.00000  0.05    0.41
;
_shelx_res_checksum              82769
loop_
_space_group_symop_operation_xyz
'x, y, z'
'-x+1/2, -y, z+1/2'
'-x, y+1/2, -z'
'x+1/2, -y+1/2, -z+1/2'
'-x, -y, -z'
'x-1/2, y, -z-1/2'
'x, -y-1/2, z'
'-x-1/2, y-1/2, z-1/2'
loop_
_atom_site_type_symbol
_atom_site_label
_atom_site_fract_x
_atom_site_fract_y
_atom_site_fract_z
_atom_site_U_iso_or_equiv
_atom_site_adp_type
_atom_site_calc_flag
_atom_site_occupancy
As As1 0.06428(10) 0.250000 0.60150(3) 0.01201(12) Uani d 1
As As2 0.49079(6) 0.10749(3) 0.38577(2) 0.01114(10) Uani d 1
Ga Ga1 0.000000 0.000000 0.500000 0.01141(12) Uani d 1
O O1 0.1911(5) 0.1282(2) 0.55641(16) 0.0167(4) Uani d 1
O O2 -0.2805(7) 0.250000 0.6100(2) 0.0204(7) Uani d 1
O O3 0.1365(8) 0.250000 0.7066(2) 0.0240(8) Uani d 1
H H3 0.29(2) 0.250000 0.722(6) 0.06(3) Uiso d 1
O O4 0.7303(5) 0.1157(2) 0.45776(15) 0.0161(5) Uani d 1
O O5 0.2196(5) 0.0229(2) 0.39671(14) 0.0163(4) Uani d 1
O O6 0.6400(5) 0.0699(3) 0.29132(16) 0.0229(6) Uani d 1
H H6 0.519(13) 0.057(6) 0.253(5) 0.06(2) Uiso d 1
O O7 0.3627(8) 0.250000 0.3692(3) 0.0231(8) Uani d 1
loop_
_atom_site_aniso_label
_atom_site_aniso_U_11
_atom_site_aniso_U_22
_atom_site_aniso_U_33
_atom_site_aniso_U_12
_atom_site_aniso_U_13
_atom_site_aniso_U_23
As1 0.0093(2) 0.0144(2) 0.0123(2) 0.000 0.00000(15) 0.000
As2 0.00747(16) 0.01327(17) 0.01268(16) -0.00040(9) -0.00065(9) 0.00038(10)
Ga1 0.0076(2) 0.0128(2) 0.0137(2) -0.00118(15) -0.00056(15) 0.00067(16)
O1 0.0089(9) 0.0146(10) 0.0265(12) 0.0003(8) -0.0014(9) -0.0049(9)
O2 0.0092(14) 0.035(2) 0.0175(16) 0.000 0.0014(11) 0.000
O3 0.0181(17) 0.042(2) 0.0122(15) 0.000 -0.0011(13) 0.000
O4 0.0132(10) 0.0172(11) 0.0179(11) 0.0026(9) -0.0054(8) -0.0025(8)
O5 0.0123(10) 0.0206(11) 0.0160(10) -0.0054(9) 0.0023(8) -0.0006(9)
O6 0.0141(11) 0.0387(16) 0.0159(11) -0.0026(11) 0.0020(9) -0.0052(10)
O7 0.0199(17) 0.0120(15) 0.037(2) 0.000 -0.0172(16) 0.000
loop_
_atom_type_symbol
_atom_type_description
_atom_type_scat_dispersion_real
_atom_type_scat_dispersion_imag
_atom_type_scat_source
O O 0.0106 0.0060 'International Tables Vol C Tables 4.2.6.8 and 6.1.1.4'
H H 0.0000 0.0000 'International Tables Vol C Tables 4.2.6.8 and 6.1.1.4'
Ga Ga 0.2307 1.6083 'International Tables Vol C Tables 4.2.6.8 and 6.1.1.4'
As As 0.0499 2.0058 'International Tables Vol C Tables 4.2.6.8 and 6.1.1.4'
loop_
_geom_angle_atom_site_label_1
_geom_angle_atom_site_label_2
_geom_angle_atom_site_label_3
_geom_angle_site_symmetry_1
_geom_angle_site_symmetry_3
_geom_angle
O1 As1 O1 . 7_565 110.44(18)
O1 As1 O2 . . 114.08(10)
O1 As1 O2 7_565 . 114.08(10)
O1 As1 O3 . . 110.02(11)
O1 As1 O3 7_565 . 110.02(11)
O2 As1 O3 . . 97.46(18)
O4 As2 O5 . . 122.69(12)
O4 As2 O6 . . 108.24(12)
O5 As2 O6 . . 107.23(13)
O4 As2 O7 . . 108.26(14)
O5 As2 O7 . . 104.62(15)
O6 As2 O7 . . 104.37(18)
O1 Ga1 O1 . 5_556 180.0
O1 Ga1 O4 . 5_656 90.31(10)
O1 Ga1 O4 5_556 5_656 89.69(10)
O1 Ga1 O4 . 1_455 89.69(10)
O1 Ga1 O4 5_556 1_455 90.31(10)
O4 Ga1 O4 5_656 1_455 180.00(13)
O1 Ga1 O5 . 5_556 88.79(10)
O1 Ga1 O5 5_556 5_556 91.21(10)
O4 Ga1 O5 5_656 5_556 90.02(10)
O4 Ga1 O5 1_455 5_556 89.98(10)
O1 Ga1 O5 . . 91.21(10)
O1 Ga1 O5 5_556 . 88.79(10)
O4 Ga1 O5 5_656 . 89.98(10)
O4 Ga1 O5 1_455 . 90.02(10)
O5 Ga1 O5 5_556 . 180.0
As1 O1 Ga1 . . 128.78(13)
As1 O3 H3 . . 120(7)
As2 O4 Ga1 . 1_655 132.90(13)
As2 O5 Ga1 . . 127.18(13)
As2 O6 H6 . . 111(5)
As2 O7 As2 . 7_565 133.7(2)
loop_
_geom_bond_atom_site_label_1
_geom_bond_atom_site_label_2
_geom_bond_site_symmetry_2
_geom_bond_distance
_geom_bond_publ_flag
As1 O1 7_565 1.663(2) y
As1 O1 . 1.663(2) y
As1 O2 . 1.700(4) y
As1 O3 . 1.704(4) y
As2 O4 . 1.642(2) y
As2 O5 . 1.645(2) y
As2 O6 . 1.720(3) y
As2 O7 . 1.7377(15) y
Ga1 O1 . 1.936(2) y
Ga1 O1 5_556 1.936(2) y
Ga1 O4 5_656 1.972(2) y
Ga1 O4 1_455 1.972(2) y
Ga1 O5 5_556 1.978(2) y
Ga1 O5 . 1.978(2) y
O3 H3 . 0.78(10) ?
O6 H6 . 0.87(7) ?
loop_
_geom_hbond_atom_site_label_D
_geom_hbond_atom_site_label_H
_geom_hbond_atom_site_label_A
_geom_hbond_site_symmetry_A
_geom_hbond_distance_DH
_geom_hbond_distance_HA
_geom_hbond_distance_DA
_geom_hbond_angle_DHA
O3 H3 O3 6_657 0.78(10) 2.06(10) 2.817(4) 164(10)
O6 H6 O5 6_656 0.87(7) 2.59(7) 3.052(3) 114(5)
O6 H6 O6 6_556 0.87(7) 1.99(7) 2.785(2) 151(6)
