#------------------------------------------------------------------------------
#$Date: 2019-12-26 21:22:11 +0200 (Thu, 26 Dec 2019) $
#$Revision: 246100 $
#$URL: file:///home/coder/svn-repositories/cod/cif/2/31/17/2311746.cif $
#------------------------------------------------------------------------------
#
# This file is available in the Crystallography Open Database (COD),
# http://www.crystallography.net/. The original data for this entry
# were provided by IUCr Journals, http://journals.iucr.org/.
#
# The file may be used within the scientific community so long as
# proper attribution is given to the journal article from which the
# data were obtained.
#
data_2311746
loop_
_publ_author_name
'Ende, Martin'
'Effenberger, Herta'
'Miletich, Ronald'
_publ_section_title
;
 Evolution of the \a-BaMg(CO<sub>3</sub>)<sub>2</sub> low-temperature
 superstructure and the tricritical nature of its \a-\b phase transition.
;
_journal_issue                   'Pt 5'
_journal_name_full
'Acta crystallographica Section B, Structural science, crystal engineering and materials'
_journal_page_first              827
_journal_page_last               835
_journal_paper_doi               10.1107/S2052520617009295
_journal_volume                  73
_journal_year                    2017
_chemical_formula_sum            'C6 Ba3 Mg3 O18'
_chemical_formula_weight         845.01
_space_group_crystal_system      trigonal
_space_group_IT_number           167
_space_group_name_Hall           '-R 3 2"c'
_space_group_name_H-M_alt        'R -3 c :H'
_audit_creation_method           SHELXL-2014/7
_cell_angle_alpha                90
_cell_angle_beta                 90
_cell_angle_gamma                120
_cell_formula_units_Z            2
_cell_length_a                   5.01610(10)
_cell_length_b                   5.01610(10)
_cell_length_c                   33.4952(8)
_cell_measurement_reflns_used    9450
_cell_measurement_temperature    280(2)
_cell_measurement_theta_max      40
_cell_measurement_theta_min      1.5
_cell_volume                     729.87(3)
_computing_structure_refinement  'SHELXL-2014/7 (Sheldrick, 2014)'
_diffrn_ambient_temperature      280(2)
_diffrn_measured_fraction_theta_full 0.993
_diffrn_measured_fraction_theta_max 0.996
_diffrn_measurement_device_type  StoeStadiVari
_diffrn_radiation_type           MoK\a
_diffrn_radiation_wavelength     0.71073
_diffrn_reflns_av_R_equivalents  0.0286
_diffrn_reflns_av_unetI/netI     0.0118
_diffrn_reflns_Laue_measured_fraction_full 0.993
_diffrn_reflns_Laue_measured_fraction_max 0.996
_diffrn_reflns_limit_h_max       9
_diffrn_reflns_limit_h_min       -10
_diffrn_reflns_limit_k_max       10
_diffrn_reflns_limit_k_min       -9
_diffrn_reflns_limit_l_max       66
_diffrn_reflns_limit_l_min       -36
_diffrn_reflns_number            9450
_diffrn_reflns_point_group_measured_fraction_full 0.993
_diffrn_reflns_point_group_measured_fraction_max 0.996
_diffrn_reflns_theta_full        25.242
_diffrn_reflns_theta_max         45.603
_diffrn_reflns_theta_min         3.650
_exptl_absorpt_coefficient_mu    8.248
_exptl_absorpt_correction_T_max  0.8
_exptl_absorpt_correction_T_min  0.7
_exptl_absorpt_correction_type   numerical
_exptl_absorpt_process_details   '(Stoe & Cie GmbH 2016)'
_exptl_crystal_density_diffrn    3.845
_exptl_crystal_description       prismatic
_exptl_crystal_F_000             768
_exptl_crystal_size_max          0.060
_exptl_crystal_size_mid          0.030
_exptl_crystal_size_min          0.030
_refine_diff_density_max         0.527
_refine_diff_density_min         -0.400
_refine_diff_density_rms         0.114
_refine_ls_extinction_method     none
_refine_ls_goodness_of_fit_ref   1.026
_refine_ls_hydrogen_treatment    undef
_refine_ls_matrix_type           full
_refine_ls_number_parameters     17
_refine_ls_number_reflns         699
_refine_ls_number_restraints     0
_refine_ls_restrained_S_all      1.026
_refine_ls_R_factor_all          0.0199
_refine_ls_R_factor_gt           0.0100
_refine_ls_shift/su_max          0.000
_refine_ls_shift/su_mean         0.000
_refine_ls_structure_factor_coef Fsqd
_refine_ls_weighting_details
'w=1/[\s^2^(Fo^2^)+(0.0127P)^2^] where P=(Fo^2^+2Fc^2^)/3'
_refine_ls_weighting_scheme      calc
_refine_ls_wR_factor_gt          0.0210
_refine_ls_wR_factor_ref         0.0225
_reflns_Friedel_coverage         0.000
_reflns_number_gt                507
_reflns_number_total             699
_reflns_threshold_expression     'I > 2\s(I)'
_cod_data_source_file            xk5041sup1.cif
_cod_data_source_block           norse_280
_cod_original_sg_symbol_H-M      'R -3 c'
_cod_database_code               2311746
_shelx_shelxl_version_number     2014/7
_shelx_space_group_comment
;
The symmetry employed for this shelxl refinement is uniquely defined
by the following loop, which should always be used as a source of
symmetry information in preference to the above space-group names.
They are only intended as comments.
;
_shelx_estimated_absorpt_t_min   0.637
_shelx_estimated_absorpt_t_max   0.790
_shelx_res_file
;

    norse_280.res created by SHELXL-2014/7


TITL norse_100K_woo_a.res in R-3c
REM Old TITL norse_100k_woo in R-3c

REM SHELXT solution in R-3c
REM R1 0.027,  Rweak 0.000,  Alpha 0.038,  Orientation as input
REM Formula found by SHELXT:  C2 O6 Mg Ba

CELL  0.71073   5.0161   5.0161  33.4952   90.000   90.000  120.000
ZERR    2.000   0.0001   0.0001   0.0008    0.000    0.000    0.000
LATT  3
SYMM -Y, X-Y, Z
SYMM -X+Y, -X, Z
SYMM Y, X, 1/2-Z
SYMM X-Y, -Y, 1/2-Z
SYMM -X, -X+Y, 1/2-Z
SFAC C O MG BA
UNIT 12 36 6 6
L.S. 20
TEMP 6.85
SIZE 0.06 0.03 0.03
BOND $H
ACTA
LIST 4
FMAP 2
PLAN 20
REM EXTI    0.000000
WGHT    0.012700
FVAR       0.21876
BA1   4    0.000000    0.000000    0.250000    10.16667    0.00867    0.00867 =
         0.01241    0.00000    0.00000    0.00434
MG2   3    0.000000    0.000000    0.000000    10.16667    0.00690    0.00690 =
         0.01031    0.00000    0.00000    0.00345
O3    2    0.117698    0.825313    0.129214    11.00000    0.02364    0.01982 =
         0.02023   -0.00435   -0.00750    0.01794
C4    1    0.000000    0.000000    0.130388    10.33333    0.00849    0.00849 =
         0.00912    0.00000    0.00000    0.00424
HKLF 4

REM  norse_100K_woo_a.res in R-3c
REM R1 =  0.0100 for     507 Fo > 4sig(Fo)  and  0.0199 for all     699 data
REM     17 parameters refined using      0 restraints

END

WGHT      0.0128      0.0000

REM Highest difference peak  0.527,  deepest hole -0.400,  1-sigma level  0.114
Q1    1   0.0560 -0.0773  0.1308  11.00000  0.05    0.53
Q2    1  -0.0186  0.7372  0.1357  11.00000  0.05    0.33
Q3    1   0.0191  0.6687  0.1070  11.00000  0.05    0.30
Q4    1   0.1331  0.8819  0.1538  11.00000  0.05    0.29
Q5    1   0.1333  0.2755  0.2748  11.00000  0.05    0.28
Q6    1  -0.1667  0.5304  0.1196  11.00000  0.05    0.28
Q7    1   0.4053  1.0800  0.1367  11.00000  0.05    0.27
Q8    1  -0.0875  0.4547  0.1283  11.00000  0.05    0.27
Q9    1   0.0367  0.6805  0.1298  11.00000  0.05    0.27
Q10   1   0.2822  1.0644  0.1042  11.00000  0.05    0.26
Q11   1   0.3655  1.0054  0.1173  11.00000  0.05    0.24
Q12   1   0.0142  0.5522  0.1105  11.00000  0.05    0.24
Q13   1   0.2269  0.0100  0.2659  11.00000  0.05    0.23
Q14   1  -0.1897  0.4691  0.1366  11.00000  0.05    0.22
Q15   1   0.0003  0.4977  0.1417  11.00000  0.05    0.22
Q16   1   0.2588  0.9199  0.1066  11.00000  0.05    0.21
Q17   1  -0.1180  0.0259  0.3032  11.00000  0.05    0.20
Q18   1   0.1662  0.3044  0.2587  11.00000  0.05    0.20
Q19   1  -0.1257 -0.2919  0.2605  11.00000  0.05    0.20
Q20   1   0.1351  0.6822  0.1388  11.00000  0.05    0.20
;
_shelx_res_checksum              44217
_shelx_hkl_file
;
   0   0  -6 1468.70   51.10   0
   0   5   7   -1.38    5.65   0
   2   0  32  657.41   15.97   0
   0   5 -11    2.23    5.39   0
   0   2  16 3073.77   27.20   0
   0   5  -8 1046.90   15.16   0
   0   4 -19    0.93    5.28   0
   0   5  -5    1.27    5.35   0
   0   5  -2  364.47    9.78   0
   2   2  33   -1.55    4.69   0
   0   3  15   -1.01    4.96   0
   0   4  11    0.16    5.54   0
   1   2  26  533.31   11.79   0
   1   4  21   10.58    5.50   0
   0   1  11    0.00    5.48   0
   0   4   8 1644.69   17.76   0
   0   0  -9   -0.52    7.09   0
   0   4 -16 1613.07   20.94   0
   1  -2   0 3690.34   35.33   0
   0   2  13    2.12    4.63   0
   0   3 -21   -1.67    5.82   0
   0   3  12 2083.55   20.56   0
   1   1  24 1905.94   22.84   0
   2  -1  27   -0.05    6.41   0
   0   4   5    3.41    5.26   0
   1   4  18  755.66   12.01   0
   2   1  31    5.60    5.46   0
   2   2  30  208.88    8.35   0
   0   4 -13   -2.96    5.27   0
   0   4   2 1430.43   17.21   0
   1  -2   3   34.83    6.29   0
   3   1  35    0.93    5.55   0
   0   3   9   -1.94    4.73   0
   0   4 -10  453.53   11.42   0
   1   4  15    3.67    5.56   0
   1   5 -13    9.56    5.47   0
   0   4  -7    1.90    4.66   0
   0   4  -4 1641.80   18.65   0
   2   0  29   -0.04    5.67   0
   0   0 -12  245.19   15.82   0
   0   2  10  200.68    8.66   0
   1   5 -10  504.35   10.96   0
   1   5  -7    1.75    5.42   0
   1   5  -4  790.05   12.95   0
   1   5  -1   11.51    5.02   0
   0   1   8 9999.99   64.66   0
   0   3 -18 1413.56   23.58   0
   1   3  19   26.71    5.21   0
   0   3   6 2051.61   21.22   0
   1   4  12 1230.61   14.86   0
   1   1  21   22.62    5.58   0
   2   2  27   -0.68    5.58   0
   0   3   3   -3.43    5.84   0
   0   2   7   -2.51    5.05   0
   1   4   9   24.24    5.61   0
   2   1  28 1427.40   18.83   0
   3   0  33    0.13    5.58   0
   0   3 -15   -0.62    5.47   0
   1   0  19   -1.57    5.65   0
   1   3  16 2168.12   19.99   0
   0   3   0 2731.16   25.09   0
   1   4   6  389.06    9.48   0
  -3  -2  20  635.31   11.90   0
  -2   3  31    7.90    5.58   0
  -2  -2  15    0.20    5.33   0
  -3  -1  28  765.62   12.28   0
  -3   0  33   -1.86    5.46   0
  -3   4  35    2.92    5.50   0
  -2   4  27    2.23    6.12   0
   0   1  -7    0.91    4.94   0
  -3   2  37   -0.14    5.41   0
  -4  -2  19   -4.05    5.19   0
  -2  -1  23   -3.59    5.64   0
  -2   0  28 1198.55   15.27   0
  -3   1  35    0.75    4.57   0
  -3   3  36  865.02   13.76   0
  -1  -1  15    5.76    4.69   0
  -3  -2  17    3.32    4.70   0
  -2   1  30  639.59   11.62   0
  -1   0  20 1545.25   19.02   0
  -1   1  22  510.50   12.09   0
   0   0  -6 1692.59   36.16   0
   0   1 -10 3610.30   34.67   0
  -2  -2  12  798.87   14.22   0
  -1   2  21   21.24    5.67   0
  -4  -2  16  749.92   13.00   0
  -3   0  30  627.76   11.04   0
  -2   2  29   -0.11    5.52   0
   0   0  -9    1.78    6.64   0
  -3  -2  14  419.60   10.56   0
  -2  -1  20 1535.34   17.95   0
  -2  -2   9    0.11    5.02   0
  -2   0  25    2.87    4.93   0
  -1  -1  12 4217.88   34.37   0
  -3   1  32 1276.78   15.15   0
  -1   4   7   18.37    6.10   0
  -1   5   3    3.79    5.39   0
   1  -1 -16 5351.42   48.87   0
   1   3 -11   33.03    6.12   0
   1   4 -24  908.66   15.16   0
   1   4 -21    2.58    5.73   0
  -3   6  12  805.95   12.99   0
   0   4  -1    1.49    5.72   0
   0   5  -8 1006.14   13.69   0
  -4   5  18  410.68   11.17   0
  -2   5  11    4.06    5.46   0
  -4   4  19    2.82    5.39   0
  -3   4  17   -2.78    5.88   0
  -2   6   7   -3.79    4.79   0
   0   3   3    0.99    5.74   0
   1   1  -6 1924.10   30.61   0
   1   4 -18  408.42   10.52   0
   0   2   4 4617.06   36.35   0
  -3   5  16 1819.67   19.34   0
   1   3  -8 2857.68   25.31   0
  -4   6  17    0.40    5.58   0
  -2   2  14  340.89   12.61   0
   1   4 -15   15.93    5.48   0
   1  -1 -19    1.16    4.66   0
  -1   3  11   23.58    5.14   0
   0   4   2 1476.96   17.04   0
  -2   0   7    0.63    5.25   0
  -1   4  10 1191.57   15.46   0
   1   4 -12  992.25   14.73   0
  -3   6  15    2.19    4.89   0
  -2   6  10  368.77    8.99   0
   1   2  -4 3100.63   29.28   0
  -2   3  16 2102.05   23.95   0
   0  -1  -8 9806.47   59.79   0
   0   3   6 2054.78   21.27   0
  -1   5   9   25.51    5.14   0
   1   4  -9   -0.25    4.75   0
  -4   5  21    5.65    5.98   0
  -3   5  19    5.77    5.70   0
   0   4   5    5.27    4.78   0
   0   5   1   -0.94    4.63   0
   1   5 -19   -2.89    5.20   0
  -2   6  13   -3.30    5.65   0
  -3   4  20  943.14   15.75   0
   0   2   7   -2.23    4.88   0
   1   4  -6  916.57   13.75   0
   1   5 -16  639.48   11.99   0
  -3   6  18  443.64    9.96   0
  -1   4  13    7.33    5.00   0
   1   3  -2  873.21   13.95   0
   0   1   5    0.67    6.30   0
   1   1  -3   37.99    7.46   0
   1   2  -1   47.59    5.60   0
   1   5 -13   11.40    5.54   0
  -2   4  18 1095.08   15.82   0
  -2   5  17    5.49    4.73   0
  -1   3  14 1694.39   20.05   0
  -1   5  12 1189.92   14.93   0
   0   5   4 1226.42   14.56   0
   0  -1 -11    1.64    4.06   0
   0   3   9   -1.59    5.55   0
   1   5 -10  496.60   10.65   0
   0   4   8 1639.55   17.31   0
  -1   1  10 3829.79   50.54   0
   1   3   1   28.14    5.43   0
  -4   6  23    1.48    5.57   0
  -3   5  22  330.14    9.63   0
   1   5  -7    0.20    4.59   0
  -3   6  21    8.47    5.78   0
   0   5   7   -6.26    4.70   0
   2   3 -19    9.75    5.98   0
  -2   3  19    0.94    5.27   0
  -1   4  16 2078.81   19.92   0
  -1   5  15    0.47    5.44   0
   2   2 -15    0.59    5.47   0
   1   2   2  702.42   13.74   0
   1   5  -4  770.24   12.39   0
   2   3 -16 1932.75   22.38   0
  -3   3  21   -0.11    5.14   0
  -2   5  20  627.06   11.43   0
   0   4  11   -2.03    5.48   0
  -2   2  17    0.06    5.17   0
   0   2  10  194.70    8.39   0
  -3   4  23   20.68    5.87   0
  -2   4  21   -1.13    5.77   0
   0   3  12 2088.86   20.91   0
   1   3   4 1363.22   16.95   0
   2   1 -23    4.67    8.60   0
   2   3 -13    0.90    5.10   0
   0   5  10  738.30   11.97   0
   1   4   3   -0.88    4.97   0
   1   5  -1    4.54    5.64   0
   2   1 -20 1481.40   34.60   0
   1   1   0 3973.68   39.04   0
   2   3 -10  773.95   13.81   0
  -4   1  10 1105.48   22.55   0
   2   1 -17   12.42    7.61   0
  -1   5  18  748.33   11.84   0
   2   2  -9    1.14    4.91   0
   2   4 -14  304.94    9.56   0
  -3   5  25   -0.73    5.64   0
   1   2   5   13.92    5.69   0
  -2   5  23    6.86    5.62   0
   1   4   6  392.62    9.56   0
   2   3  -7   16.25    5.57   0
   0   5  13   -3.45    4.56   0
   1   3   7   20.36    5.14   0
   2   4 -11    2.10    5.09   0
   0   1   8 9497.37   62.70   0
   2   1 -14 1716.52   30.35   0
   0   3  15    0.46    5.64   0
   2   2  -6  842.97   15.18   0
   2   4  -8  922.37   13.91   0
  -2   3  22  487.80   12.35   0
  -2   4  24 1953.95   20.63   0
   0   2  13    3.61    4.50   0
   2   3  -4  768.99   12.91   0
   1   4   9   28.25    5.40   0
   2   4  -5    2.26    5.21   0
   0   4  17    5.35    5.38   0
   0   5  16  730.20   11.83   0
  -3   4  26  703.44   14.17   0
   1   1   3   40.92    7.49   0
   1   3  10 1211.80   15.64   0
   2   1 -11   23.23    6.46   0
  -3   2  19    2.85    7.04   0
   1   2   8 3342.62   27.23   0
   2   2  -3    1.49    5.12   0
   2   3  -1   -1.92    5.36   0
  -2   5  26  651.81   12.07   0
   2   4  -2  620.18   11.46   0
   1   4  12 1222.64   14.77   0
  -3   3  24 1111.46   20.19   0
  -1   5  24  668.82   11.64   0
   1   0 -26 1239.51   22.94   0
   2   1  -8 3416.08   36.29   0
   2   4   1   -1.54    5.15   0
   0   4  20 1333.73   15.36   0
   1   3  13   13.24    4.96   0
  -2   2  20 3493.63   37.19   0
  -2   4  27   -1.53    5.25   0
   0   2  16 3058.87   26.71   0
  -1   0   2 1935.22   41.84   0
  -1   3  23    3.22    5.50   0
  -1   4  25    3.83    5.28   0
   1   2  11   18.99    5.17   0
   2   4   4  882.22   12.87   0
  -3   1  11   21.08    7.52   0
   1   4  15    4.76    4.61   0
  -2   3  25    8.62    5.77   0
  -2   5  29    1.85    5.26   0
   0   1  11    4.11    6.45   0
   1   1   6 1952.91   24.71   0
   2   1  -5   10.99    5.21   0
   1   0 -23   -0.01    5.17   0
   2   2   3    1.05    4.70   0
  -3   4  29    2.23    5.28   0
   0   3  21    2.48    4.60   0
   1   3  16 2192.76   19.95   0
   0   4  23   -0.51    4.50   0
   2   3   8 2291.33   20.15   0
   1   4  18  770.81   12.05   0
   1   2  14 1683.37   18.92   0
   2   2   6  835.47   13.81   0
  -1   2  21   24.30    5.39   0
   1   0 -20 1590.04   30.35   0
   2   4  10  370.42    8.99   0
  -1   4  28  754.77   12.72   0
   0   2  19   -1.09    5.33   0
   3   3 -12  769.82   14.09   0
  -2   4  30  216.13    8.75   0
   3   3  -9    6.74    5.31   0
  -1   3  26  549.09   11.76   0
   2   3  11    4.56    4.64   0
   1   1   9   46.91    6.15   0
   1   3  19   21.81    4.94   0
   3   3  -6  487.12   10.90   0
   1   4  21   10.01    4.55   0
   2   1   1   47.17    6.39   0
   2   2   9    1.10    4.58   0
   3   2 -14  397.97   11.92   0
   3   2 -11    7.76    5.46   0
   3   3  -3    5.79    5.11   0
  -3   3  27    1.05    4.85   0
   1   0 -17    0.53    5.89   0
   3   2  -8 2299.02   23.89   0
  -2   3  28 1392.62   19.37   0
   0   1  14 1649.55   23.55   0
   1   2  17    9.99    5.01   0
   3   3   0 1095.74   14.68   0
   2   3  14  403.75    8.97   0
   3   2  -5    9.26    5.31   0
  -2   2  23    0.02    5.00   0
  -1   0  -1    0.88    5.59   0
  -1   4  31    9.11    5.31   0
   1   3  22  381.00    9.32   0
   2   1   4 3063.47   27.64   0
   2   2  12  811.45   12.60   0
   3   2  -2  868.93   14.11   0
   3   3   3    5.25    4.51   0
   0   4  29    1.93    5.07   0
   1   1  12 4021.56   31.74   0
  -2   4  33   -0.87    5.45   0
   0   3  27    3.59    5.04   0
   1   0 -14 1613.45   41.36   0
   2   3  17    0.11    4.86   0
  -1   2  24 1805.52   21.73   0
  -1   3  29    3.40    4.64   0
   3   2   1    4.43    5.01   0
   1   2  20 1508.30   16.76   0
   2   1   7    0.25    5.06   0
   2   2  15   -0.90    4.39   0
   3   2   4  726.91   12.34   0
  -1   0  -4 2465.14   33.15   0
   1   3  25    0.59    4.23   0
   3   3   9    8.02    4.39   0
  -2   1   6 1897.35   25.86   0
  -5   1  21   10.82    5.46   0
  -2  -1  38  362.74   10.25   0
  -2   0 -23    0.23    6.16   0
   0   0   6 1617.80   42.53   0
  -4   1  22  394.84    9.54   0
  -3   1 -13   29.73   10.06   0
  -2   1   9   54.47    6.69   0
   0  -2  38  281.18    9.94   0
  -3   1  20 1520.87   18.27   0
  -2   1  -3   35.66    7.94   0
  -2   1  12 3972.17   33.12   0
  -1  -1  36  989.16   15.71   0
   1  -1 -10 3646.78   34.43   0
  -4   1  25   -5.41    5.56   0
   0   0   9    0.96    6.62   0
  -3   1  23    0.09    5.18   0
  -1   0 -16 4970.51   53.67   0
   0  -1  31    1.42    6.00   0
   1  -2  33    8.38    5.66   0
  -2   1  15    6.25    4.94   0
  -4   1 -17   -0.02    7.84   0
  -4   1  28  758.60   12.30   0
  -2   0  34  294.36    9.41   0
   0   0  12  247.37   13.65   0
   1  -1  20 1469.27   29.86   0
  -3   1  26  562.27   11.26   0
  -2   1  18 1200.17   17.28   0
  -5   2   5   10.91    6.09   0
  -5   2   8 2320.69   22.08   0
  -1  -1  39    4.25    4.98   0
   1  -1  -7   -1.20    6.08   0
  -5   2   2  884.74   15.30   0
  -5   2  11    8.11    4.98   0
  -4   1  31    7.70    5.74   0
  -1   0  29    0.43    5.99   0
  -6   2   4  910.69   14.52   0
  -6   2   7    1.70    4.80   0
  -6   2  10  357.92    9.78   0
  -6   2   1   -1.62    5.56   0
  -6   2  13   -1.23    5.68   0
  -5   2  -1    0.00    5.90   0
  -3   1  29   12.37    5.86   0
  -2   1  21   21.82    5.45   0
   0   0  15    1.53    6.36   0
  -5   2  17    7.60    5.55   0
  -4   2   9    3.82    5.81   0
   0  -1  34 1009.55   17.24   0
  -6   2  -2  614.35   13.34   0
  -4   2  12  824.45   14.11   0
  -2   0  37    1.53    5.91   0
  -5   2  20  638.83   11.77   0
  -4   2   3   -0.98    4.66   0
   2  -2  22 1881.71   54.85   0
   3  -3  15   -0.14    5.75   0
  -5   2  -4  749.90   15.33   0
  -4   2  15    1.73    5.01   0
  -2   1  24 1901.95   20.78   0
  -4   2   0 4298.10   34.57   0
  -3   1  32 1243.56   15.77   0
  -1  -1  42  350.48   10.55   0
  -1   0  32 1858.55   21.12   0
  -5   2  23    7.55    5.74   0
  -4   2  18 1144.88   15.22   0
   1  -1  23   -0.11    5.81   0
  -4   2  21   -3.15    5.85   0
   1  -1  -4 2423.62   33.93   0
  -2   0  40  919.34   14.12   0
  -2   1  27   -3.48    4.99   0
  -5   2  -7    9.11    6.09   0
  -4   2  -3   -3.42    5.24   0
   0  -1  37    0.06    5.27   0
  -4   2  24 2003.35   19.07   0
  -2   0 -20 3452.17   44.71   0
  -1   0  35   -4.38    6.12   0
  -4   2  27   -2.29    5.90   0
  -3   2  10 2068.31   22.29   0
  -3   2  13   29.55    5.64   0
  -3   2   7    0.93    4.53   0
  -3   2  16 2164.53   21.57   0
  -2   0  43   -0.91    4.93   0
  -3   2   4 3010.77   29.35   0
  -3   2  19    5.15    5.06   0
   0   0  24 4785.48   39.00   0
   1  -1  26 1186.45   23.55   0
  -4   2  -6  830.07   18.07   0
  -4   2  30  221.03    7.74   0
  -3   2  22  509.36   10.99   0
  -2   1  33    4.30    5.06   0
  -1   0  38  288.21    9.61   0
  -1   1  13   -2.43    6.66   0
  -1   1  10 3752.09   37.44   0
  -1   1  16 5333.78   39.78   0
  -4   2  33    4.05    5.54   0
   1  -1  -1    1.83    7.30   0
  -6   3  12  790.51   12.89   0
  -6   3  15   -0.93    5.21   0
  -3   2  25    8.67    5.10   0
  -1   1  19    4.60    4.66   0
  -6   3   9    5.36    5.58   0
  -1   1   7   -1.21    6.38   0
   0   0  27    0.52    5.16   0
  -6   3   6  486.33   11.10   0
  -2   1  36  948.98   14.23   0
  -3   2  28 1409.18   16.49   0
  -1   1  22  489.87   11.85   0
  -5   3  10  748.45   13.09   0
  -5   3  19    7.07    5.38   0
  -1   0  41    0.85    5.80   0
   1  -1  29    1.03    5.28   0
  -6   3   3    6.44    5.39   0
  -5   3   7   10.90    5.12   0
  -5   3  22  326.65    8.69   0
  -3   2  31    2.07    4.85   0
  -5   3  25   -0.99    5.56   0
  -2   1  39   -3.93    5.72   0
   0   0  30  163.92    8.51   0
  -5   3   4  768.22   13.88   0
  -4   2  -9   -0.44    6.28   0
  -2   1  -9   51.62   13.43   0
  -1   1   4 2312.31   35.00   0
  -6   3   0 1105.91   16.69   0
  -1   1  28 1382.75   18.13   0
   2  -2   7   -0.57    4.70   0
  -1   0  44  471.69   11.37   0
  -4   3  14  724.49   12.90   0
  -4   3  17   -4.08    5.58   0
  -5   3   1    4.47    5.41   0
  -4   3  11   29.96    6.19   0
  -4   3  20  944.64   13.64   0
  -2   1  42  342.43    9.29   0
  -2   2  17   -2.38    5.85   0
   0   0  33    0.71    5.19   0
   1  -1  32 1776.97   26.49   0
  -6   3  -3    3.71    5.81   0
  -4   3  23   21.76    5.18   0
  -2   2  14  347.15   10.11   0
  -2   2  20 3646.35   27.90   0
  -1   1  31    2.17    5.03   0
  -4   3  26  719.02   12.21   0
  -2   2  11    1.18    5.92   0
  -2   2  23   -0.78    5.91   0
  -4   3  29    3.68    5.54   0
  -2   2  26 1337.01   17.00   0
  -1   1  34 1010.91   15.66   0
   1  -1   2 1813.69   38.65   0
  -5   3  -2  873.19   15.77   0
  -2   2   8 2138.32   24.59   0
   0  -1 -11   -1.91    4.13   0
   0   0  36  639.88   13.87   0
  -4   3  32  917.21   12.88   0
  -3   2  -5    8.40    5.42   0
   1  -1  35   -0.33    5.47   0
  -1   1   1    0.04    6.93   0
  -1   1  37    3.28    5.54   0
  -6   4  14  317.00    9.23   0
  -4   3   2  881.49   15.39   0
  -2   0 -17   -2.24    5.99   0
  -2   2   5    2.66    6.30   0
  -6   4  11   -3.32    5.47   0
   0   0  39    1.04    5.57   0
  -7   4   7    5.17    5.40   0
  -2   2  35   -2.75    5.47   0
  -5   3  -5    7.49    6.23   0
  -3   3  18 1404.14   16.75   0
  -3   3  21    4.04    4.90   0
  -3   3  24 1163.17   15.35   0
   2  -2  13    0.41    6.50   0
  -6   4   8  895.78   13.98   0
  -3   3  15    0.74    5.00   0
  -1   1  40  808.51   13.98   0
  -5   4  18  397.32    9.83   0
  -5   4  21   10.54    5.54   0
  -3   3  27    3.84    4.71   0
  -3   3  12 2593.66   23.30   0
  -3   3  30  336.89    9.37   0
  -2   2  38  268.97    8.90   0
  -6   4   5    1.35    5.25   0
  -4   3  -1   30.98    5.82   0
  -5   4  12  934.51   13.66   0
  -4   2 -12  775.02   24.39   0
  -3   3   9    0.17    4.67   0
  -3   3  33    1.07    4.58   0
  -2   2   2 5033.45   41.59   0
  -1   1  43    0.20    5.54   0
  -5   4   9   -0.45    5.51   0
  -2   2  41    0.10    5.73   0
  -6   4   2  618.96   12.76   0
   2  -2  16 2986.40   56.81   0
  -5   4   6  940.27   14.58   0
  -3   3   6  530.92   11.92   0
  -5   3  -8 2186.92   28.32   0
  -4   4  19   -0.37    4.82   0
  -4   4  22  761.42   12.15   0
  -4   4  25   -0.63    4.77   0
   0  -1  -8 9524.05   62.06   0
  -4   4  16 1576.07   17.44   0
  -4   4  28  645.73   11.13   0
  -3   2  -8 3252.19   43.30   0
  -4   3  -4 1331.48   20.74   0
  -1   2  21   28.54    5.92   0
   0   1  23    1.90    5.07   0
  -6   4  -1   -0.83    5.10   0
  -5   4   3   27.41    6.29   0
  -4   4  13   -5.43    5.14   0
   0   1  26 1216.72   18.66   0
  -1   2  18 1222.85   17.48   0
  -1   2  30  658.24   12.90   0
  -3   4  17    1.06    5.39   0
  -3   4  20  971.96   13.79   0
  -2   3  10 2030.40   21.04   0
  -1   2  12 4058.75   33.33   0
  -6   5  -5    1.07    4.91   0
  -3   4  14  733.76   12.46   0
  -3   4  23   22.97    5.62   0
  -2   3  28 1384.52   16.57   0
  -5   5   2  365.76    9.55   0
  -3   4  26  642.87   11.62   0
  -1   2  27   -0.18    5.16   0
  -4   4  -5   -0.95    5.30   0
  -3   4  11   36.65    5.34   0
  -2   3   7    0.56    5.81   0
  -2   3  31    4.96    5.36   0
  -5   4 -12 1149.32   18.24   0
  -1   2   9   54.79    6.44   0
   1  -2   3   38.66    6.07   0
  -3   4   8 2816.05   23.37   0
  -1   2  30  660.39   13.52   0
  -5   5  -1   -2.03    5.17   0
  -4   5  18  418.29    9.59   0
  -4   5  21   12.24    5.40   0
  -3   4  32  931.95   13.24   0
  -2   3  34  642.25   12.25   0
  -4   5  15   16.10    4.77   0
  -2   3   4 3041.93   26.04   0
  -2   4  42  449.49   11.22   0
  -1   6  26  256.15    9.61   0
  -1   6  35    3.10    6.92   0
   0   6  48  173.97    8.68   0
   2   5   0  676.62   13.16   0
  -1   5  12 1224.43   15.13   0
  -1   6  29    7.16    6.30   0
  -1   6  32  430.56   10.82   0
   0   6  15    6.94    5.82   0
   2   6  11    3.00    7.00   0
  -2   4  39   -4.03    5.68   0
  -1   4   7   24.61    5.10   0
   1   5   2  346.09    9.41   0
   3   6  15   -0.66    7.07   0
  -2   2  23   -1.56    4.36   0
  -1   3   5    7.73    5.28   0
   0   6  18  288.66    9.97   0
   1   6  13    0.87    5.78   0
   2   4  -5   -1.05    5.78   0
  -2   4  27    0.18    5.58   0
   0   6  42  152.51    8.78   0
   1   4  -3   27.23    5.64   0
   2   6  14  138.61    8.40   0
   3   6  18  226.26    9.55   0
  -2   3  22  492.53   10.97   0
  -2   4  30  199.42    7.76   0
  -2   4  33   -7.18    4.90   0
  -1   5  15    2.30    5.31   0
  -1   5  45    4.55    7.28   0
   0   6  21    0.68    7.05   0
  -2   2  26 1269.94   18.06   0
  -2   3  37    4.34    5.22   0
  -1   4  52  224.49    9.48   0
   0   6  39   -2.99    7.53   0
   2   5   3    1.52    6.22   0
   3   6  21    6.68    7.31   0
  -2   2  29    1.60    4.59   0
  -2   3  25    9.40    5.36   0
  -1   5  18  803.98   13.15   0
   0   6  24  663.94   12.27   0
   0   6  36  173.77    9.53   0
   1   6  43   -3.97    7.07   0
   2   6  17    1.92    7.23   0
   3   5   4  274.06    9.67   0
  -2   3  28 1382.89   17.21   0
  -2   3  31    4.39    5.16   0
  -2   3  34  635.74   12.46   0
  -1   4  10 1194.03   15.03   0
  -1   5  42  258.24    9.97   0
   0   6  27    8.90    6.16   0
   0   6  30  168.30    8.20   0
   0   6  33   -2.94    6.28   0
   1   5   5   -2.79    5.09   0
   1   6  19    8.53    7.54   0
   3   6  24  205.10    9.50   0
   3   6  27   10.09    7.30   0
   0   5  10  740.97   12.55   0
   1   6  40  233.65    9.90   0
   2   6  20  201.99    9.56   0
  -1   4  49    7.62    6.50   0
  -1   5  21    7.40    5.56   0
  -1   5  39    3.81    6.80   0
   1   6  22  176.28    8.14   0
   1   6  37   -0.06    7.21   0
  -1   5  24  754.89   12.98   0
   0   5  49   -1.85    7.55   0
   1   3  -5    5.29    4.61   0
   1   6  25    4.81    6.24   0
   1   6  28  180.80    9.23   0
   1   6  31   -0.36    7.38   0
   2   6  35   -6.24    7.20   0
  -1   3   8 3370.03   25.78   0
  -1   5  27    4.56    6.51   0
  -1   5  30  215.75    8.55   0
   0   3   0 2643.68   23.79   0
   0   4  56   88.95    7.81   0
   2   5   6  476.81   10.96   0
   2   6  29    9.61    6.67   0
   2   6  32  217.55    9.08   0
   3   5   7   -5.03    6.00   0
   4   5  11    4.63    6.05   0
  -1   4  13   11.39    4.95   0
  -1   4  46   88.54    7.55   0
   0   5  13    4.18    6.13   0
   1   4   0 1475.81   17.29   0
   1   5   8  873.34   13.23   0
   2   4  -2  623.52   12.32   0
   0   4   5    3.27    5.26   0
   0   5  46   99.62    8.40   0
   2   3  -7   10.34    4.80   0
   1   5  50   87.60    7.84   0
   4   5  14   96.75    8.55   0
  -1   4  16 2200.64   19.96   0
  -1   4  43    2.43    6.49   0
   0   4  53   -2.38    7.49   0
   0   5  16  752.77   12.73   0
   3   4  -1    7.62    6.08   0
   3   5  10  248.83    9.47   0
   2   5   9    2.81    5.50   0
   0   5  19   -1.56    6.46   0
   4   5  17    7.44    6.92   0
  -1   3  11   18.66    4.70   0
  -1   3  47    5.62    6.33   0
  -1   4  19   22.46    5.70   0
  -1   4  40  506.57   11.45   0
   0   4   8 1601.97   17.26   0
   0   5  22  278.54    9.31   0
   0   5  37   -7.30    7.26   0
   1   4   3   -4.95    5.21   0
   1   5  14  453.81   10.66   0
   2   5  12  439.01   11.01   0
   3   5  13    3.29    6.82   0
   4   5  20  139.01    8.36   0
  -1   4  22  395.07    9.73   0
  -1   4  37   -4.61    6.07   0
   0   4  50  182.70    9.14   0
   0   5  25   -1.30    6.30   0
   0   5  34  320.58   10.16   0
   1   5  44  177.13    8.84   0
   2   4   1    1.83    5.28   0
  -1   4  34  564.81   11.39   0
   0   3   3    1.00    4.71   0
   0   5  28  672.18   12.05   0
   0   5  31    7.34    5.82   0
   2   5  45    4.40    7.39   0
   4   5  23   -2.70    7.23   0
   4   5  26  180.38    9.09   0
  -1   4  25   -2.22    4.96   0
   1   4  54   64.51    7.87   0
   1   5  17    9.73    6.56   0
   1   5  41    5.60    7.56   0
   2   5  15   11.10    6.78   0
   3   5  16  466.08   11.02   0
   4   5  29    0.85    7.38   0
  -1   3  14 1613.25   17.61   0
   0   3  54  109.34    7.76   0
   0   4  47   -5.52    6.90   0
   2   5  42  118.43    8.33   0
   3   4   2  256.95    8.95   0
   0   4  11    1.32    4.57   0
   1   5  20  516.27   10.89   0
   1   5  38  142.38    8.06   0
   3   5  19   -5.19    7.15   0
   3   5  37    0.28    7.60   0
   1   5  23   -3.45    6.52   0
   1   5  35    0.58    7.66   0
   2   5  39    1.95    7.46   0
   3   5  22  141.39    8.48   0
  -1   3  41    5.69    5.81   0
   0   4  44  458.12   11.43   0
   1   3  58  115.86    7.73   0
   1   4  51    0.79    7.48   0
   1   5  26  256.68    8.89   0
   1   5  29   -0.83    6.70   0
   1   5  32  448.24   10.72   0
   2   3  -4  739.29   13.39   0
   2   5  21    1.35    6.72   0
   2   5  36  193.20    9.42   0
   3   5  31    1.76    6.89   0
   3   5  34  147.01    8.46   0
   4   4   6  233.60    9.22   0
  -1   3  17   11.22    4.58   0
   2   4   4  946.37   14.08   0
   2   5  24  499.43   11.40   0
   2   5  33   -3.33    7.34   0
  -1   3  38  356.17    9.80   0
   0   3  51    0.83    6.24   0
   0   4  14  335.63    8.75   0
   2   4  52  127.29    8.33   0
   2   5  27    3.35    6.04   0
   2   5  30  189.58    8.42   0
   0   4  41    2.46    6.78   0
   1   4  48  152.99    8.91   0
   3   4   5    8.15    5.88   0
  -1   3  20 1458.82   16.59   0
  -1   3  35   -1.34    5.53   0
   0   3   6 1995.42   19.68   0
   5   4  16  338.59   10.05   0
   0   4  17   -0.89    4.83   0
   1   3  55   -4.95    6.84   0
   4   4   9   -1.30    6.34   0
  -1   3  29    7.28    5.29   0
   2   4   7    1.87    5.35   0
   5   4  19    6.31    6.33   0
   0   3  48  378.44   10.55   0
   0   4  20 1362.82   15.59   0
   1   3   1   29.09    4.62   0
   3   3  -3    4.90    4.96   0
   5   4  22  107.42    8.14   0
   0   4  23    0.56    5.17   0
   0   4  32  528.16   11.34   0
   3   4   8  584.73   11.43   0
   3   4  47    5.86    7.41   0
   4   4  12  296.72    9.83   0
   5   4  25   -1.52    6.79   0
   5   4  28  107.27    7.80   0
  -1   2  39    3.71    5.13   0
   0   4  26  794.90   12.53   0
   0   4  29    3.80    5.39   0
   1   4  12 1163.36   14.54   0
   2   3  56  126.35    8.16   0
   2   4  46  123.40    9.03   0
   0   3   9    1.25    4.31   0
   0   3  45    2.29    6.32   0
   2   3  -1    1.06    4.99   0
   2   4  10  365.06    9.82   0
   3   4  11   -3.03    6.30   0
   3   4  44  174.34    8.76   0
   4   4  15    1.13    6.75   0
   4   4  39    4.38    7.25   0
  -1   2  36  967.95   14.88   0
   1   4  15    6.13    5.07   0
   1   4  39    1.59    6.04   0
   2   4  43    4.93    6.91   0
   2   2  60  110.02    8.16   0
   3   4  41   -0.74    7.23   0
   4   4  18  231.64    9.65   0
   4   4  36  156.94    9.00   0
  -1   2  33    5.08    5.16   0
   0   2  49    2.58    5.83   0
   0   3  42  261.35    9.39   0
   1   2  56  212.62    9.19   0
   1   4  18  783.58   12.35   0
   2   3  53    2.61    6.96   0
   2   4  40  305.08   10.34   0
   3   4  14  403.45   10.47   0
   4   3   1    8.26    6.11   0
   4   4  21   -2.69    6.91   0
   4   4  33    3.36    7.10   0
  -1   2  21   19.91    4.41   0
   0   3  12 2103.08   19.69   0
   1   3  49    4.86    7.05   0
   1   4  21    9.41    6.03   0
   1   4  33    1.41    5.89   0
   3   3   0 1131.29   15.85   0
   3   4  38  166.22    9.15   0
   4   4  24  390.32   11.22   0
  -1   2  24 1823.80   19.90   0
  -1   2  27   -1.76    4.56   0
  -1   2  30  654.16   12.45   0
   1   4  24  749.07   12.25   0
   1   4  27   -1.71    6.28   0
   1   4  30  205.92    8.18   0
   2   4  16  783.44   13.20   0
   2   4  37   -4.12    7.30   0
   3   4  17   15.67    6.75   0
   0   3  39   -5.03    6.01   0
   3   4  35  -13.08    6.48   0
   6   3  18  106.84    8.10   0
   2   3   2  853.62   13.72   0
   2   3  50  200.68    9.28   0
   2   4  19    2.81    5.42   0
   3   4  32  320.37   10.82   0
   6   3  21    3.68    7.45   0
   0   2  46  281.04    9.42   0
   0   3  15   -1.80    4.46   0
   0   3  36  580.42   11.74   0
   1   3  46   82.08    6.92   0
   2   2  57   -0.94    7.04   0
   2   4  22  402.51   10.09   0
   2   4  25    5.89    6.49   0
   2   4  28  480.02   11.28   0
   2   4  31   -3.61    6.21   0
   3   4  23    2.37    6.04   0
   3   4  26  160.23    8.05   0
   3   4  29   10.11    6.47   0
   5   3   8  491.83   11.50   0
   6   3  24  239.75    9.32   0
   6   3  27    5.02    6.51   0
   1   2  53   -5.64    6.58   0
   4   3   4  706.28   13.40   0
   1   3   7   26.07    4.77   0
   1   3  43   -4.39    6.76   0
   3   3   3    5.02    5.46   0
   3   3  48  182.44    9.33   0
   4   3  46   82.01    8.22   0
   5   3  11   -2.98    7.05   0
  -1   1  31    0.67    4.41   0
   0   3  21   -0.20    4.73   0
   0   3  27   -2.48    5.36   0
   0   2  43    3.35    5.62   0
   2   3   5   12.03    5.40   0
   5   3  38   69.26    8.29   0
  -1   1  28 1336.47   18.90   0
   1   2  50  194.54    8.76   0
   1   3  10 1190.40   15.35   0
   2   2  54   43.12    7.66   0
   3   3  45    6.87    7.90   0
   4   3   7    1.35    5.85   0
   4   3  43    6.90    7.31   0
   5   3  14  163.74    8.38   0
   3   2  55    3.69    7.06   0
   5   3  35    6.60    6.73   0
   3   3   6  499.31   11.10   0
   5   3  17    2.93    6.83   0
   1   3  37   -1.26    5.60   0
   4   3  40  157.47    8.65   0
  -9   4   5    9.23    7.09   0
  -8   3  22  125.32    9.03   0
  -8   4   9    7.71    7.16   0
  -7   2  30  208.98    8.86   0
  -7   3  23   -5.31    7.60   0
  -6   4   2  643.32   12.41   0
  -5  -1  41    1.33    7.24   0
  -4   2  24 1986.23   19.78   0
  -8   2  29    7.02    7.71   0
  -7   0  38   56.00    8.11   0
  -6   0  39    0.35    7.72   0
  -9   4   8  425.70   11.32   0
  -6   2  31    5.37    7.18   0
  -6   4   5   -3.41    6.03   0
  -5   2  29   -1.80    6.87   0
  -5   3  19    8.83    6.52   0
  -2  -1  35    0.99    5.80   0
  -9   3  21   11.22    7.41   0
  -4   0  38  130.07    8.47   0
  -4   3  11   34.20    5.35   0
  -7   4  13   10.06    6.61   0
  -6   3  24  679.82   13.00   0
  -5   1  36  534.59   12.66   0
  -3   1  29    4.61    5.75   0
  -9   4  11    2.81    6.82   0
  -8   3  25    1.47    6.86   0
  -7   1  37   -2.56    7.35   0
  -7   3  26  171.37    9.49   0
  -4   1  34  566.54   12.22   0
  -3   2  19   -0.57    5.47   0
  -8   2  32  207.46    9.41   0
  -8   4  15   -2.51    6.23   0
  -7   2  33   -3.60    6.54   0
  -6   1  38  163.60    9.72   0
  -9   3  24  194.31    9.38   0
  -7   4  16  483.00   11.58   0
  -5   3  22  340.31    9.75   0
  -4   2  27    0.77    5.37   0
  -4   3  14  704.71   12.08   0
  -3   0  36  555.56   12.40   0
  -1  -1  30  604.64   13.60   0
  -2   0  31   -0.23    4.24   0
  -8   3  28  205.25    9.63   0
  -8   4  18  209.84    9.19   0
  -6   0  42  166.74    9.45   0
  -6   3  27  -13.20    7.05   0
  -7   3  29    9.07    7.87   0
  -6   4  14  318.45    9.18   0
  -5   4  -3   -2.00    5.04   0
  -5   4   0 1484.22   17.75   0
  -9   3  27    1.11    7.84   0
  -7   4  19   10.48    6.27   0
  -5   4  -6  377.51   10.38   0
  -5   4   3   28.37    5.80   0
  -4   3  17    2.80    5.76   0
  -3   2  22  492.67   11.04   0
  -8   4  21   -2.98    7.55   0
  -7   1  40  223.41    9.75   0
  -5   1  39    7.22    6.26   0
  -5   3  25   -6.61    6.76   0
  -4   0  41    5.07    6.36   0
  -9   4  20  136.78    9.19   0
  -6   4  17   -1.77    6.36   0
  -5   0  43    1.46    7.42   0
  -5   4  -9   20.95    5.30   0
  -5   4   6  875.15   13.81   0
  -4   1  37    4.37    6.54   0
  -4   2  30  208.48    8.57   0
  -3   1  32 1229.63   16.11   0
  -8   3  31   -2.46    7.45   0
  -6   1  41   -2.29    8.00   0
  -8   5  -1   -4.74    6.31   0
  -7   3  32  327.57   10.98   0
  -7   4  22  195.37    8.53   0
  -6   3  30  213.10    8.87   0
  -9   5   1    3.13    6.29   0
  -8   5   2  269.09    9.76   0
  -4   3  20  929.54   13.52   0
  -3   0  39    5.02    5.98   0
  -9   4  23   -0.65    7.46   0
  -9   5   4  153.58    8.95   0
  -8   5   5    2.68    5.93   0
  -6   0  45    0.05    7.44   0
  -6   4  20  709.70   12.58   0
  -9   5   7   11.07    7.30   0
  -8   5   8  528.39   12.23   0
  -7   2  39    0.22    7.87   0
  -5   3  28  430.63   10.44   0
  -5   4  12  956.95   13.75   0
  -3   2  25    6.59    4.95   0
  -3   3   0 2440.90   24.12   0
  -2   0  34  276.76    9.45   0
  -9   5  10  160.77    9.08   0
  -8   3  34  161.32    9.14   0
  -7   1  43    2.52    6.99   0
  -7   4  25   15.89    6.65   0
  -7   5   0  671.80   13.04   0
  -5   1  42  258.15   10.46   0
  -2   2  11   -2.46    4.23   0
  -8   4  27    5.97    7.63   0
  -8   5  11    3.93    5.94   0
  -7   5  -3    6.04    5.84   0
  -7   5   3    5.86    5.59   0
  -7   5   6  179.07    8.74   0
  -6   3  33    8.08    7.62   0
  -3   3   6  552.78   11.71   0
  -2   1  27    2.92    4.28   0
 -10   5   3    2.11    6.55   0
 -10   5   6   88.28    7.79   0
  -9   4  26  156.93    8.65   0
  -9   5  13    2.94    6.99   0
  -7   3  35    2.74    6.95   0
  -6   1  44  187.63    9.92   0
  -6   2  40  289.21   11.03   0
  -6   4  23   -2.17    6.19   0
  -5   4  15   14.10    5.55   0
  -4   0  44  435.26   12.46   0
  -4   1  40  489.44   12.16   0
  -4   3  23   11.98    5.44   0
  -3   1  35   -5.17    5.98   0
  -1  -1  33    3.86    5.12   0
  -1   0  26 1155.25   17.29   0
  -8   5  14  153.45    8.16   0
  -7   5   9    7.18    6.73   0
  -5   0  46   91.00    8.50   0
  -5   2  38  104.74    8.67   0
  -9   5  16  385.11   11.21   0
  -7   4  28  441.07   12.00   0
  -5   3  31   11.01    6.74   0
  -3   3   9   -0.06    4.38   0
  -2   2  14  340.81    9.42   0
  -7   2  42  110.68    9.45   0
  -7   5  12  522.95   11.15   0
  -5   4  18  395.06    9.84   0
  -9   4  29   -1.44    7.83   0
  -8   3  37   -8.55    6.86   0
  -3   3  12 2601.62   22.69   0
  -7   3  38  156.73    9.73   0
  -4   3  26  719.93   12.38   0
  -3   0  42  272.33   10.00   0
  -8   5  20  246.91   10.19   0
  -7   4  31    6.89    8.16   0
  -5   1  45    8.31    7.58   0
  -5   4  21    8.94    6.47   0
  -4   2  36  428.27   10.49   0
  -7   5  18  436.17   11.30   0
  -6   2  43   -2.92    7.84   0
  -6   5   1    7.52    5.89   0
  -6   5   4  793.62   13.49   0
  -2   0  37   -3.50    5.53   0
  -2   1  30  619.75   11.88   0
  -2   2  17    1.96    4.35   0
  -8   4  33    6.86    7.47   0
  -6   1  47    1.12    7.91   0
  -6   4  29   -2.49    6.89   0
  -6   5  -2  346.73   10.01   0
  -6   5   7    0.95    6.03   0
  -5   2  41   -3.13    7.71   0
  -5   3  34  500.23   11.36   0
  -3   1  38  364.00   10.51   0
  -3   3  15    3.12    4.56   0
  -8   5  23    5.52    7.39   0
  -6   5  10  507.94   11.40   0
  -4   1  43    7.79    6.78   0
  -4   4   4 1562.84   18.01   0
  -7   2  45   -1.37    7.96   0
  -7   5  21    3.08    6.89   0
  -6   5  -5   -2.67    5.25   0
  -5   4  24 1012.90   14.62   0
  -4   3  29   -8.07    6.47   0
  -4   4   1   -3.06    4.16   0
  -1   0  29    0.01    4.64   0
  -9   5  25    6.98    7.38   0
  -7   4  34  221.67   10.02   0
  -4   4  -2 1395.55   17.92   0
  -4   4  10  434.11   10.35   0
  -3   3  18 1374.79   16.51   0
  -8   5  26  225.13   10.20   0
  -2   2  20 3594.57   26.56   0
  -8   4  36  150.80    9.37   0
  -7   5  24  362.52   10.97   0
  -6   4  32  402.76   11.39   0
  -6   5  16  680.36   12.81   0
  -4   2  39    2.05    5.53   0
  -4   4  -5   -0.28    4.43   0
  -4   4  13   -6.43    5.65   0
  -6   2  46  135.60    9.64   0
  -5   4  27   14.16    6.62   0
  -9   5  28  101.89    9.04   0
  -9   6   3    3.40    6.93   0
  -9   6   6  207.14    9.51   0
  -6   5  19    0.76    6.79   0
  -5   1  48  145.42    9.08   0
  -5   2  44  279.14   10.49   0
  -4   3  32  999.17   14.86   0
  -3   3  21    2.56    5.34   0
  -2   1  33    7.44    5.36   0
  -9   6   9    0.01    6.79   0
  -8   5  29  -10.34    7.57   0
  -7   4  37    7.36    7.76   0
  -4   4  16 1572.38   17.13   0
  -3   1  41   10.75    6.06   0
  -3   2  34  634.65   12.44   0
  -9   6  12  166.90    8.80   0
  -8   6   4  260.27    9.71   0
  -8   6   7    5.84    6.98   0
  -7   5  27    8.53    8.03   0
  -6   3  42  195.52   10.24   0
  -4   1  46  117.63    8.48   0
  -2   0  40  885.05   15.28   0
  -2   2  23   -4.09    4.36   0
  -9   6  15    3.60    7.24   0
  -8   4  39    8.51    7.47   0
  -8   6   1    6.26    6.50   0
  -8   6  10  212.74    9.26   0
  -7   3  44  157.86    9.04   0
  -6   4  35    3.27    6.56   0
  -6   5  22  232.09    9.25   0
  -4   4  -8 1463.46   19.80   0
  -8   6  13    8.98    7.06   0
  -5   4  30  353.68    9.84   0
  -4   4  19   -6.48    5.20   0
  -9   6  18  110.46    8.34   0
  -8   5  32  246.28   10.23   0
  -4   2  42  462.88   11.72   0
  -3   3  24 1156.28   14.96   0
  -1   0  32 1798.99   21.34   0
  -8   6  16  432.23   11.75   0
  -7   4  40  162.39    9.73   0
  -7   5  30  104.23    7.91   0
  -6   5  25    7.32    7.28   0
  -5   5   5   -3.59    5.43   0
  -9   6  21    6.78    7.72   0
  -6   2  49   -5.05    7.46   0
  -5   2  47   10.76    7.53   0
  -5   5   2  378.17   10.13   0
  -5   5   8 1007.08   14.29   0
  -4   4  22  755.78   12.48   0
  -8   6  19    7.80    7.61   0
  -6   3  45    1.40    7.67   0
  -6   4  38  126.29    9.36   0
  -5   4  33    1.78    6.96   0
  -3   2  37   -2.67    6.08   0
  -2   1  36  951.08   14.87   0
  -8   5  35   -0.82    7.86   0
  -7   3  47    9.81    7.30   0
  -7   6   5    8.94    5.71   0
  -7   6   8  711.69   12.94   0
  -7   6  11    2.28    6.60   0
  -5   5  -1   -1.81    5.18   0
  -5   5  14  668.74   11.92   0
  -3   3  27    0.40    5.17   0
  -7   5  33    3.40    6.74   0
  -7   6  14  150.24    8.53   0
  -6   5  28  476.01   11.18   0
  -5   5  17   -6.29    6.44   0
  -4   4  25   -7.23    6.06   0
  -3   1  44  362.28   10.87   0
  -7   6  -1    4.08    5.93   0
  -5   3  43    2.12    7.73   0
  -4   1  49    1.67    7.04   0
  -7   6  17    8.96    6.01   0
  -4   2  45    3.21    6.50   0
  -1   1  25   -0.48    4.60   0
  -8   6  25   -6.03    6.98   0
  -6   4  41   -8.41    7.57   0
  -5   4  36  356.98   10.86   0
  -5   5  20  743.12   12.56   0
  -8   5  38   66.67    8.64   0
  -7   5  36  310.90   10.94   0
  -6   5  31    0.37    6.52   0
  -4   4  28  702.40   12.84   0
  -3   3  30  339.34    9.20   0
  -1   0  35    3.57    5.11   0
  -6   2  52  122.35    8.74   0
  -6   3  48  166.10    9.82   0
  -5   2  50  215.83   10.14   0
  -5   5  23    0.36    6.35   0
  -3   2  40  506.99   11.23   0
  -8   6  28  191.61    9.10   0
  -7   6  23    4.61    7.64   0
  -5   5  -7    0.21    4.68   0
  -2   1  39   -3.78    5.63   0
  -5   3  46   83.38    8.52   0
  -7   4  46   73.52    8.36   0
  -7   5  39    1.87    8.07   0
  -6   5  34  269.30    9.55   0
  -5   4  39  -11.07    7.38   0
  -5   5  26  263.83    9.44   0
  -4   3  41   -1.70    5.82   0
  -4   4  31    3.70    6.29   0
  -1   1  28 1421.72   18.02   0
  -8   6  31  -13.08    7.27   0
  -7   6  26  301.95   10.06   0
  -6   6   6  258.51    9.03   0
  -6   6   9   -6.41    6.39   0
  -6   6  12  463.04   11.12   0
  -3   1  47    1.48    6.24   0
  -2   2  32  652.06   11.96   0
  -6   6   3   -3.27    5.84   0
  -6   6  15    2.94    6.64   0
  -4   2  48  319.86   10.97   0
  -2   3   7    1.17    4.86   0
  -2   3  10 2005.60   20.39   0
  -9   7   8  236.28    9.18   0
  -9   7  11   -5.51    6.44   0
  -7   6  29   -3.41    7.87   0
  -5   5  29    2.66    6.76   0
  -3   4   8 2720.42   22.90   0
  -3   4  11   33.13    5.19   0
  -3   4  14  740.18   12.60   0
  -2   3  13   29.67    4.98   0
  -9   7  14  134.69    8.71   0
  -8   6  34  146.40    9.55   0
  -6   3  51   -5.51    7.32   0
  -6   5  37    4.65    6.81   0
  -4   4  34  304.75   10.13   0
  -3   2  43   -3.94    6.50   0
  -2   3  16 2142.59   20.61   0
  -9   7  17   -2.36    7.39   0
  -7   5  42  166.15    9.35   0
  -6   6  21    6.29    7.05   0
  -5   2  53   -0.55    8.08   0
  -3   4   2  870.18   14.19   0
  -3   4  17   -4.64    4.96   0
  -9   7  20  158.56    8.62   0
  -5   3  49    2.72    7.04   0
  -4   3  44  344.24   10.87   0
  -2   1  42  356.16   10.44   0
  -2   2  35   -2.48    5.59   0
  -2   3  19   -4.17    5.37   0
  -1   0  38  267.76    9.56   0
  -8   7   6  200.08    9.17   0
  -8   7   9    0.89    6.69   0
  -8   7  15    5.99    7.17   0
  -7   6  32  317.94   10.55   0
  -6   4  47   -0.09    8.28   0
  -6   6  -3   -0.43    5.32   0
  -6   6  24  528.81   12.12   0
  -5   5  32  525.99   11.46   0
  -3   4  20  957.91   13.68   0
  -1   1  31   -0.69    4.75   0
  -9   7  23    3.38    6.75   0
  -8   6  37    0.34    7.51   0
  -8   7  18  150.23    9.10   0
  -6   5  40  255.48   10.38   0
  -4   5   6  896.95   13.89   0
  -4   5  15   19.39    6.29   0
  -4   4  37   -8.45    6.92   0
  -4   5  18  421.19   10.32   0
  -3   4  -1   28.07    5.11   0
  -3   4  23   22.36    5.39   0
  -2   3  22  488.68   10.31   0
  -8   7  21   -4.78    7.39   0
  -7   5  45   -1.66    7.86   0
  -7   6  35    4.58    7.70   0
  -6   6  27   -5.44    6.41   0
  -4   2  51    5.61    7.27   0
  -4   5   3   25.35    5.73   0
  -5   4  45   12.98    7.58   0
  -5   5  35   -2.14    6.30   0
  -4   5  21    9.19    5.57   0
  -3   2  46  151.21    8.36   0
  -3   3  39    6.59    6.41   0
  -1   2  15    4.92    4.29   0
  -8   7  24  300.66    9.97   0
  -4   3  47   -0.41    7.36   0
  -3   4  26  691.45   11.99   0
  -2   3  25    7.10    5.04   0
  -6   4  50  130.28    9.08   0
  -6   5  43   11.46    7.58   0
  -5   3  52  173.22    9.56   0
  -4   5   0 1447.01   17.89   0
  -4   5  24 1016.11   14.22   0
  -2   2  38  278.75    8.79   0
  -1   1  34 1031.30   15.76   0
  -1   2  18 1199.56   16.12   0
  -7   6  38   65.51    8.52   0
  -7   7  10  249.90    9.58   0
  -7   7  13    2.57    6.74   0
  -7   7  16  572.02   12.70   0
  -2   1  45    0.49    5.78   0
  -7   7   7   -0.26    6.49   0
  -7   7  19    2.62    7.58   0
  -6   6  33    9.37    7.77   0
  -5   6  10  497.73   11.40   0
  -5   6  13   12.51    6.48   0
  -4   5  27   13.14    6.88   0
  -3   4  29    0.70    6.25   0
  -2   3  28 1471.24   17.20   0
  -1   2  21   23.54    5.48   0
  -8   7  30   96.86    8.72   0
  -5   6   7    1.04    5.97   0
  -5   6  19   -1.24    6.27   0
  -7   7  22  120.18    8.21   0
  -5   4  48  263.68   10.65   0
  -4   5  -3   -2.80    4.96   0
  -3   3  42  346.67   10.60   0
  -7   6  41   -2.40    7.75   0
  -5   6   4  799.30   13.68   0
  -5   6  22  235.67    8.81   0
  -4   5  30  353.16   10.56   0
  -3   2  49   -1.85    7.34   0
  -8   7  33    7.58    7.21   0
  -6   4  53    5.13    8.35   0
  -6   6  36  254.25   10.66   0
  -5   5  41    0.40    7.54   0
  -4   3  50  213.92    9.60   0
  -4   4  43    1.94    7.26   0
  -3   4  32  989.33   14.16   0
  -2   2  41    7.23    5.90   0
  -5   6   1    8.87    5.57   0
  -5   6  25    7.68    6.16   0
  -1   1  37    0.05    5.14   0
  -7   7  28  159.00    8.66   0
  -5   3  55   -7.84    6.88   0
  -5   6  28  463.74   10.95   0
  -4   5  33    4.39    6.22   0
  -3   4  35    1.74    6.70   0
  -7   6  44  126.38    9.40   0
  -7   7  31   -6.14    7.27   0
  -6   6  39    1.18    7.43   0
  -5   4  51   -2.61    7.25   0
  -3   3  45    1.33    6.72   0
  -6   5  49    3.21    8.09   0
  -5   6  -2  347.82    9.96   0
  -5   6  31   12.89    7.44   0
  -4   4  46  170.96    9.53   0
  -6   7  11    2.54    6.77   0
  -6   7  14  146.93    7.96   0
  -6   7  17   11.97    5.97   0
  -4   5  36  370.97   10.65   0
  -2   2  44  804.46   14.31   0
  -7   7  34  175.11    9.57   0
  -6   7   8  713.17   13.36   0
  -4   3  53    1.46    7.18   0
  -3   2  52  317.46   11.12   0
  -1   2  30  610.80   11.64   0
  -6   6  42  159.90   10.00   0
  -5   6  34  235.74   10.16   0
  -1   1  40  814.68   14.51   0
  -8   8  14  147.96    9.38   0
  -8   8  17   -1.23    7.91   0
  -6   7   5   13.16    6.32   0
  -6   7  26  298.80   10.49   0
  -2   3  37    8.59    6.08   0
  -8   8  11   -2.19    6.45   0
  -8   8  20  157.03    8.70   0
  -7   7  37    2.73    7.54   0
  -4   5  39    0.90    7.36   0
  -3   3  48  224.13    9.52   0
  -3   5  13   -1.76    5.78   0
  -3   5  16 1853.17   18.86   0
  -8   8  23   -2.46    6.98   0
  -6   7   2  366.84   10.92   0
  -6   7  29    3.90    7.42   0
  -5   4  54   65.00    8.59   0
  -5   6  37    8.20    8.07   0
  -4   4  49    4.69    7.30   0
  -3   5  19    4.80    5.38   0
  -1   2  33    2.30    5.35   0
  -8   8  26  105.16    8.42   0
  -6   6  45   -2.17    7.65   0
  -3   5  22  321.87    8.99   0
  -2   4  12  832.72   13.33   0
  -2   4  15    2.15    4.74   0
  -2   4  18 1117.54   14.64   0
  -7   7  40  203.92   10.11   0
  -4   6  17    0.67    6.36   0
  -4   6  20  710.93   13.09   0
  -3   5   7   12.31    5.50   0
  -3   5  25    0.57    6.57   0
  -2   2  47   -2.86    6.18   0
  -2   4  21    2.72    4.99   0
  -4   5  42  202.10    9.60   0
  -4   6  11    2.73    5.95   0
  -4   6  23    1.39    6.97   0
  -2   3  40  504.02   11.06   0
  -2   4   9    1.16    4.45   0
  -2   4  24 1961.37   18.97   0
   0   0  33   -0.63    4.45   0
  -5   5  50  104.31    8.55   0
  -5   6  40  258.16   10.22   0
  -4   3  56  151.70    9.52   0
  -4   6   8  892.08   14.01   0
  -6   7  35    5.57    7.62   0
  -4   6  26  412.21   10.30   0
  -3   5   4  751.16   13.07   0
  -2   4  27    5.66    5.16   0
  -1   1  43   -1.70    5.28   0
  -1   2  36  966.43   14.41   0
  -7   8  15    5.51    6.71   0
  -7   8  18  149.82    8.70   0
  -7   8  21   -3.19    7.73   0
  -4   4  52  161.01    9.02   0
  -3   3  51    4.50    7.15   0
  -3   4  44  336.14   10.71   0
  -3   5  31   -2.70    6.44   0
   0   1  23   -0.69    3.87   0
  -7   8  12  188.83    9.14   0
  -7   8  24  305.62   10.65   0
  -4   6   5    1.31    5.67   0
  -4   6  29   -3.51    6.16   0
  -2   4  30  214.85    8.59   0
  -7   8   9    0.11    6.66   0
  -6   7  38   54.74    8.63   0
  -5   6  43   -2.02    7.94   0
  -5   7  15    5.33    6.53   0
  -5   7  18  397.37   10.91   0
  -2   3  43    3.11    6.62   0
  -1   3  17   11.20    4.86   0
  -1   3  20 1531.20   17.53   0
   0   1  26 1218.78   17.25   0
  -7   8  27    9.01    7.50   0
  -5   7  12  551.32   12.03   0
  -5   7  24  347.23   10.49   0
  -4   6  32  410.08   10.63   0
  -3   5   1    2.46    4.98   0
  -1   3  14 1701.88   18.32   0
  -1   3  23    0.89    5.68   0
  -5   5  53   -2.10    7.25   0
  -5   7   9   -2.44    6.41   0
  -5   7  27    3.66    7.69   0
  -4   6   2  621.26   12.27   0
  -2   2  50  217.16    9.27   0
  -2   4  33    2.62    6.42   0
  -1   2  39    3.05    5.69   0
  -1   3  11   20.73    4.82   0
  -6   7  41    1.13    8.08   0
  -4   6  35   -5.79    7.76   0
  -3   4  47   -2.66    7.49   0
  -5   6  46   69.28    8.63   0
  -5   7   6  180.88    8.52   0
  -5   7  30   81.57    8.40   0
  -4   5  48  271.23   10.61   0
  -3   5  37   -0.17    6.77   0
   0   1  29   -0.56    4.85   0
  -7   8  33    5.87    6.60   0
  -4   4  55    1.78    7.55   0
  -3   3  54   98.48    8.44   0
  -2   3  46  142.41    8.51   0
  -1   3   8 3375.24   26.42   0
  -5   7  33   -9.21    7.62   0
  -4   6  38  108.65    9.15   0
  -4   6  -1   -4.64    5.44   0
  -3   5  -2  822.51   14.17   0
  -2   4   0 4041.68   29.95   0
  -1   2  42  372.17   10.51   0
  -6   8  19   -6.59    7.42   0
  -5   7   3   -1.40    5.95   0
  -3   4  50  203.09    9.76   0
  -3   5  40  508.59   11.42   0
   0   1  32 1837.35   20.79   0
  -6   8  13   -4.08    7.21   0
  -6   8  16  437.93   11.74   0
  -6   8  22  113.83    8.50   0
  -6   8  25    4.41    7.50   0
  -5   7  36  298.61   10.01   0
  -4   5  51   -2.34    8.01   0
  -4   6  41    9.18    6.84   0
  -1   3   5    3.99    4.28   0
  -6   8  10  200.54    8.96   0
  -2   3  49   -5.12    6.51   0
  -1   3  35   -2.65    5.85   0
  -6   8  31    7.71    7.61   0
  -5   7   0  669.47   13.12   0
  -5   7  39    3.70    7.21   0
  -4   4  58   76.96    8.34   0
  -6   8   7   -1.18    6.37   0
  -4   6  44  261.05   10.56   0
  -3   6  18  440.05   10.92   0
  -3   6  21    0.69    5.90   0
  -3   6  24  680.47   12.95   0
  -2   4  42  461.54   11.47   0
  -1   2  45   -1.21    5.80   0
   0   1  35    0.98    4.79   0
  -6   8  34  141.17    9.01   0
  -3   4  53   -1.30    7.17   0
  -3   6  15    3.76    5.41   0
  -3   6  27   -1.09    7.07   0
  -2   5  17   -4.96    6.16   0
  -2   5  20  662.75   12.28   0
  -2   5  23    0.04    6.42   0
  -5   7  42  165.90    9.79   0
  -4   5  54   70.44    7.97   0
  -4   7  22  193.59    9.19   0
  -3   5  -5   10.79    5.02   0
  -2   4  -3    2.21    4.68   0
  -2   5  26  682.44   12.63   0
  -1   3  38  368.43    9.75   0
  -6   8  37   -1.39    7.88   0
  -4   7  16  460.32   11.34   0
  -4   7  25    8.49    7.37   0
  -3   5  46   70.52    7.15   0
  -3   6  30  210.42    8.55   0
   0   2  19    1.04    4.28   0
   0   2  22 1952.68   20.25   0
  -4   7  13   -0.31    6.43   0
  -4   7  28  429.82   11.50   0
  -3   6   9    8.89    5.60   0
  -2   3  52  327.39   10.85   0
  -2   4  45   -4.15    6.63   0
  -2   5  11   -0.19    5.77   0
  -2   5  29    3.67    5.76   0
   0   2  16 3116.46   25.51   0
  -5   7  45   -5.77    7.50   0
  -4   7  31   -1.76    7.85   0
  -3   6  33    3.62    6.34   0
  -2   5  32  751.71   13.33   0
   0   1  38  270.64    9.17   0
  -7   9  20  154.66    8.83   0
  -7   9  23   -5.34    7.20   0
  -4   7  10  428.97   10.97   0
  -1   2  48  355.18   10.69   0
  -1   3  41   10.37    6.22   0
   0   2  13    0.75    4.91   0
   0   2  28 1090.49   15.14   0
  -7   9  17    5.58    6.41   0
  -4   7  34  216.66    9.76   0
  -3   4  56  158.65    9.95   0
  -3   5  49  -10.68    7.32   0
  -3   6   6  467.05   10.79   0
  -3   6  36  371.14   11.25   0
  -1   4  19   17.53    6.12   0
  -1   4  22  391.99    9.55   0
  -1   4  25    2.34    6.14   0
  -5   8  17   -0.32    7.23   0
  -5   8  20  259.64   10.16   0
  -5   8  23   11.72    7.65   0
  -4   5  57    8.17    6.90   0
  -2   5  35    2.74    6.08   0
  -1   4  16 2138.50   19.74   0
   0   2  31    0.85    5.10   0
  -5   8  14  166.04    9.11   0
  -5   8  29    3.94    7.76   0
  -4   6  50  116.05    8.64   0
  -4   7   7    6.67    5.66   0
  -4   7  37    1.14    7.99   0
  -2   4  48  333.25   10.93   0
  -1   4  28  753.69   12.53   0
  -2   5  38   96.69    7.91   0
  -1   3  44  363.64   10.73   0
  -1   4  13    7.78    4.88   0
  -1   4  31    5.47    6.16   0
   0   1  41   -0.88    5.44   0
  -5   8  11    1.83    6.81   0
  -5   8  32  253.09   10.30   0
  -3   6   3   -2.89    5.56   0
  -2   5   5   14.62    5.46   0
   0   2  34  287.47    8.67   0
  -4   7   4  690.44   12.98   0
  -3   5  52  176.44    9.07   0
  -5   8  35  -12.22    6.95   0
  -3   6  42  174.86    8.58   0
  -1   4  10 1121.09   14.78   0
  -5   8   8  500.65   11.93   0
  -4   6  53   -1.51    7.66   0
  -2   4  51    0.11    6.72   0
   0   2  37    0.36    5.47   0
  -5   8  38   77.08    8.44   0
  -4   7  43    5.18    7.35   0
  -1   3  47    6.16    6.31   0
  -6   9  21   -1.58    6.85   0
  -6   9  24  252.96    9.64   0
  -2   5   2  829.13   13.64   0
  -1   4   7   12.96    5.54   0
  -6   9  27    5.86    7.50   0
  -5   8   5    5.05    6.34   0
  -4   7   1    8.89    5.69   0
  -3   5  55    6.50    8.19   0
  -3   6   0 1078.13   15.52   0
  -2   5  44  275.28    9.50   0
  -6   9  15    7.43    6.72   0
  -4   7  46   58.49    8.45   0
  -1   4  40  499.63   11.61   0
   0   2  40  912.55   14.65   0
  -3   7  20  463.66   11.49   0
  -3   7  23    8.66    6.86   0
  -3   7  26  169.35    9.11   0
   0   3  21    3.13    4.82   0
   0   3  24 1720.60   18.06   0
   0   3  27   -4.54    5.72   0
  -6   9  12  144.06    8.33   0
  -3   6  48  168.07    9.44   0
  -3   7  29    5.66    7.36   0
  -2   4  54   41.59    8.00   0
  -2   6  19    6.92    6.47   0
  -2   6  22  413.81   10.20   0
  -2   6  25   -8.20    6.00   0
  -2   6  28  476.64   11.54   0
  -1   3  50  194.57    9.51   0
  -3   7  32  312.66   10.65   0
  -2   5  47   -9.09    6.58   0
  -2   6  16  787.62   13.22   0
  -2   6  31    3.55    6.84   0
  -1   4  43   -1.92    6.88   0
  -4   8  21    6.23    7.13   0
  -4   8  27   -0.58    7.35   0
   0   3  15   -0.08    4.54   0
   0   3  33   -1.55    5.90   0
  -4   7  -2  244.66    9.03   0
  -4   8  18  235.96    9.78   0
  -4   8  30  111.80    8.48   0
  -3   6  -3    9.09    5.85   0
  -3   7  35    3.06    7.84   0
  -2   5  -1    4.09    4.16   0
  -2   6  34  199.11    8.76   0
   0   2  43   -0.17    5.68   0
  -4   8  15   -1.98    6.75   0
  -4   8  33   -3.50    7.47   0
  -3   6  51    7.34    7.20   0
  -3   7  11   -0.09    6.50   0
  -1   5  21   12.40    6.20   0
  -1   5  24  734.91   12.44   0
  -1   5  27    4.13    6.44   0
  -3   7  38  176.18    9.46   0
  -2   5  50  210.79    9.75   0
  -2   6  37    2.75    6.20   0
  -1   4  46  102.76    8.08   0
  -1   5  18  767.67   12.96   0
  -1   5  30  190.70    8.98   0
   0   3  12 2067.90   19.94   0
   0   3  36  581.96   11.60   0
  -4   8  12  298.09    9.93   0
  -4   8  36  154.67    9.08   0
  -2   4  57   -0.55    6.56   0
  -1   5  33    1.38    7.15   0
  -3   7   8  597.86   12.15   0
  -3   7  41    2.59    7.35   0
  -2   6  40  311.93   10.39   0
  -1   5  15    6.57    5.30   0
   0   3  39   -4.27    6.21   0
  -5   9  22  108.48    8.08   0
  -5   9  25    0.34    6.91   0
  -5   9  28  101.10    8.12   0
  -4   8  39   -4.23    7.43   0
  -1   5  36  550.98   11.89   0
   0   2  46  291.05    9.72   0
   1   0  31    1.51    4.48   0
  -5   9  19    5.74    7.30   0
  -4   8   9   -2.75    6.61   0
  -2   6   7    6.80    5.50   0
  -1   5  12 1148.17   15.27   0
   0   3   9    1.45    4.48   0
  -5   9  16  365.09   10.61   0
  -3   7  44  155.04    8.91   0
  -2   5  53    8.42    7.47   0
  -1   4  49    6.61    6.11   0
   1   1  24 1817.60   20.45   0
   1   1  27   -0.17    4.53   0
  -3   7   5    9.18    6.23   0
  -2   5  -4  731.74   13.33   0
   0   3  42  286.47    9.67   0
   1   1  21   20.72    5.00   0
   1   1  30  639.92   12.80   0
  -5   9  13   -5.56    6.53   0
  -4   8   6  205.51    8.97   0
  -1   5   9   19.46    6.09   0
  -3   7  47   -3.24    7.10   0
  -2   6   4  918.05   14.23   0
  -1   5  42  251.11    9.85   0
   0   4  23   -2.23    5.17   0
   0   4  26  774.44   12.71   0
   0   4  29    1.72    6.05   0
  -5   9  10  150.19    9.16   0
  -1   4  52  239.80    9.95   0
   0   3   6 2069.90   20.59   0
   0   4  20 1369.73   15.96   0
   0   4  32  518.35   11.42   0
   1   1  33    4.16    4.95   0
  -3   7   2  265.98    9.21   0
  -2   5  56  127.59    8.32   0
   0   3  45    0.88    6.19   0
   0   4  17   -2.87    5.64   0
  -1   5  45    2.69    7.08   0
   1   1  36  982.35   15.74   0
  -4   8   3   -1.53    6.26   0
  -3   8  25    6.43    7.47   0
  -3   8  28  179.39    9.54   0
  -2   6  49    9.95    7.74   0
  -2   7  21   -3.56    7.20   0
  -2   7  24  480.67   11.99   0
  -2   7  27   -3.36    6.26   0
  -2   7  30  198.76    9.48   0
  -1   4  -2  847.82   13.83   0
  -3   8  31   -3.00    7.33   0
  -2   7  18  199.30    9.04   0
  -2   7  33   13.53    7.52   0
   0   4  14  321.98    8.86   0
   0   4  38  160.48    8.63   0
   1   2  26  537.45   11.02   0
   1   2  29    6.63    5.31   0
  -3   8  19    1.56    6.04   0
  -3   8  34  148.81    9.05   0
  -2   6   1   -0.43    5.56   0
   0   3  48  385.60   10.87   0
   1   2  32 1288.81   16.70   0
  -3   8  16  470.38   11.56   0
  -2   7  36  178.81    8.78   0
  -1   4  55   -3.15    6.51   0
  -1   5  48  168.30    9.18   0
  -1   6  23   -6.25    6.08   0
  -1   6  26  256.30    9.08   0
  -1   6  29    6.94    6.30   0
   0   4  41   -0.46    6.80   0
   1   1  39   -1.32    5.16   0
   1   2  20 1484.84   17.17   0
  -4   9  23    9.42    7.50   0
  -4   9  26  160.10    8.63   0
  -3   7  -1   12.38    6.48   0
  -3   8  37    0.19    6.86   0
  -2   5  -7   11.66    5.39   0
  -2   6  52  148.25    9.20   0
  -2   7  39    0.79    7.63   0
  -1   6  20  518.94   11.10   0
  -1   6  32  435.78   10.60   0
   0   4  11    6.16    4.86   0
   1   2  35   -0.36    5.51   0
  -4   9  20  143.62    8.41   0
  -3   8  13   -3.99    6.74   0
  -3   8  40  163.88    9.39   0
  -2   7  12  427.35   10.73   0
  -1   5   3    0.26    4.56   0
  -1   6  17    0.67    6.74   0
  -1   6  35   -3.37    6.32   0
   0   3   3   -2.66    4.13   0
   1   2  17   12.83    4.69   0
  -4   9  17    1.51    7.25   0
  -1   6  38  164.81    9.38   0
  -2   7  42  100.21    7.94   0
  -1   5  51    3.32    6.80   0
   0   3  51    0.82    6.46   0
   1   2  38  364.26   10.19   0
  -4   9  14   99.89    8.28   0
  -3   8  10  251.10    9.52   0
  -2   7   9   -0.33    6.54   0
   0   4   8 1563.26   17.09   0
  -2   6  -2  594.47   12.03   0
  -2   7  45    5.34    7.14   0
  -1   6  41   -5.66    7.04   0
   0   5  25   -4.60    6.52   0
   0   5  28  682.81   12.67   0
  -1   4  -5    9.58    4.84   0
   0   4  47   -6.98    6.55   0
   0   5  22  263.76    8.93   0
   0   5  31   -8.97    6.04   0
   1   2  41    1.79    5.61   0
   1   3  25    1.23    5.93   0
  -4   9  11   -4.94    6.35   0
  -3   8   7    8.43    6.55   0
  -1   5   0 1445.96   17.51   0
  -1   5  54   65.95    8.72   0
   0   5  19    2.21    5.43   0
   0   5  34  326.97    9.71   0
   1   3  22  385.80    9.57   0
   1   3  31   12.49    5.39   0
  -2   7   6  464.57   11.13   0
   1   3  19   26.79    5.81   0
   1   3  34  553.23   11.34   0
   0   3   0 2647.31   23.99   0
   0   4   5   -2.02    4.66   0
   0   5  16  748.07   12.34   0
   1   2  11   19.44    4.81   0
   1   3  37    4.71    6.23   0
  -4   9   8  382.08   11.25   0
  -1   6  47   -1.10    6.89   0
   0   4  50  195.95    9.22   0
   1   2  44  358.19   10.33   0
   0   5  13    0.82    5.97   0
   1   3  16 2170.34   19.75   0
  -3   8   4  272.62    9.69   0
   0   5  43   -0.21    7.32   0
   1   3  40  495.50   11.50   0
  -2   6  -5    3.24    5.28   0
  -2   7   3    5.28    5.84   0
  -2   8  23    8.23    7.11   0
  -2   8  26  228.72    9.35   0
  -2   8  29    3.17    6.88   0
  -1   5  57    1.73    6.19   0
  -2   8  35    3.12    7.26   0
  -1   6   5    9.37    5.13   0
  -1   6  50   86.39    8.53   0
  -1   7  25    1.29    7.59   0
  -1   7  28  170.41    8.47   0
  -1   7  31    6.03    7.33   0
   1   3  13    7.63    5.01   0
  -3   9  21    0.18    7.38   0
  -3   9  24  193.10    9.34   0
  -2   8  17   -1.11    7.40   0
  -2   8  38   44.55    7.46   0
  -1   5  -3   28.43    5.74   0
  -1   7  22  172.33    8.33   0
  -1   7  34  200.23    9.62   0
   0   4  53    1.17    6.37   0
   0   5  10  700.41   12.00   0
   0   5  46   98.97    8.60   0
   1   2   8 3422.21   26.22   0
   1   3  43    3.90    6.35   0
  -1   7  19   10.85    6.19   0
  -1   7  37    0.28    7.22   0
   1   4  24  712.04   12.53   0
   1   4  27    1.02    5.60   0
   1   4  30  212.52    8.79   0
  -3   8   1   -6.39    6.27   0
  -3   9  18  209.65    8.95   0
   1   4  21   11.37    6.16   0
  -2   8  14  120.59    7.73   0
  -1   7  16  637.37   12.03   0
   1   3  10 1182.64   14.96   0
  -7   7  16  563.56   12.89   0
  -7   8 -27   -0.03    6.94   0
  -5   7  -3    9.26    6.67   0
  -4   6   2  616.24   11.48   0
  -2   4   0 4262.57   28.16   0
  -5   7 -24  493.00   11.57   0
  -3   5   4  771.41   12.80   0
  -2   4 -27    1.45    5.03   0
  -7   8 -30   44.80    7.42   0
  -7   8   3    0.16    6.73   0
  -6   6  21   10.85    6.75   0
  -5   5  23    4.08    5.93   0
  -5   7   0  689.30   12.79   0
  -8   8  11   -2.05    7.55   0
  -5   7 -27    7.18    6.20   0
  -4   6 -31    2.04    5.66   0
  -4   6   5    3.99    5.51   0
  -1   3 -13   30.29    5.18   0
  -8   7  21    3.41    7.48   0
  -7   8   6  209.02    9.67   0
  -5   6  16  670.72   12.87   0
  -2   4   3    2.39    5.35   0
  -1   3 -16 1935.02   22.01   0
  -6   8 -17    3.59    7.09   0
  -6   8 -11    2.37    6.19   0
  -6   8  -8  501.58   11.99   0
  -5   7   3    1.58    5.99   0
  -3   5   7   14.97    6.02   0
  -1   3  -7    3.45    4.77   0
  -8   9 -11   -6.57    7.12   0
  -7   7  19   -6.54    7.47   0
  -6   8 -20  226.82    9.33   0
  -6   8  -5   -9.51    7.38   0
  -5   7 -30  199.60    8.87   0
  -4   5  18  423.48   10.58   0
  -3   4  17   -1.26    5.17   0
  -1   3 -19    2.03    4.43   0
  -8   9  -8  152.81    8.71   0
  -8   9  -5   -1.24    7.73   0
  -6   8 -23    1.13    7.20   0
  -4   6   8  897.76   13.42   0
  -7   8   9   -7.62    6.62   0
  -6   8  -2  238.41    9.05   0
  -5   7   6  192.67    8.27   0
  -1   3  -4 3052.39   25.93   0
  -8   9  -2  117.02    8.66   0
  -6   6  24  506.49   12.21   0
  -4   4  25   -1.15    5.35   0
  -2   4   6  847.96   13.51   0
  -6   8 -26  202.31    9.59   0
  -6   8   1   -2.96    6.33   0
  -5   6  19    5.33    6.58   0
  -3   5  10  777.35   12.88   0
  -8   9   1    5.56    7.61   0
  -6   7  17    3.79    6.90   0
  -5   5  26  244.97    9.46   0
  -5   7   9   -2.35    6.68   0
  -4   6  11   -1.80    6.49   0
  -8   8  17  -10.74    7.86   0
  -7   7  22  117.66    8.55   0
  -6   8 -29    3.73    7.38   0
  -6   8   4  265.86   10.12   0
  -3   3  24 1128.16   17.49   0
  -1   3  -1   48.69    5.30   0
  -8   9   4  200.82    9.30   0
  -4   5  21    8.98    6.02   0
  -3   6 -15    0.96    5.87   0
  -3   6  -9    5.61    6.15   0
  -2   3  16 2019.82   21.50   0
  -7   9 -16  192.83    9.02   0
  -7   9 -10  169.37    9.44   0
  -7   9  -7    6.25    7.66   0
  -4   7 -17    7.41    6.75   0
  -4   7 -14  382.35    9.78   0
  -4   7  -8  599.98   12.08   0
  -3   6 -18  451.64   10.87   0
  -3   6  -6  473.79   10.90   0
  -7   9 -19   -3.93    6.87   0
  -5   7  12  521.42   11.96   0
  -4   7  -5   10.30    6.59   0
  -3   4  20  907.62   14.21   0
  -2   4   9    1.27    4.52   0
  -8   9   7   -0.29    7.75   0
  -7   8  15    4.41    7.06   0
  -7   9 -22   51.57    7.73   0
  -4   7 -20  468.03   10.70   0
  -3   5  13   -0.49    5.12   0
  -3   6 -21    1.01    5.24   0
  -3   6  -3   10.69    5.39   0
  -2   5 -13   -1.75    5.53   0
  -7   9  -1   -7.90    7.69   0
  -6   6  27   -0.33    7.33   0
  -6   7  20  290.55   10.43   0
  -5   6  22  222.24    8.46   0
  -4   7  -2  279.54    8.96   0
  -2   5 -16 1847.42   19.47   0
  -2   5  -7    6.13    5.65   0
  -1   3   2  691.86   12.69   0
  -8   8  20  155.80    9.35   0
  -6   8  10  216.00    9.70   0
  -5   8 -16  446.23   11.49   0
  -5   8 -10  223.16    8.77   0
  -5   8  -7    6.27    7.50   0
  -4   7 -23   -1.09    5.64   0
  -3   6 -24  648.49   12.63   0
  -3   6   0 1101.96   14.58   0
  -7   7  25   -2.69    7.21   0
  -7   9   2   90.84    8.81   0
  -5   8 -19   -6.66    6.86   0
  -5   8  -4  297.36   10.49   0
  -4   7   1   10.45    6.08   0
  -2   5 -19    3.84    5.46   0
  -2   5  -4  737.94   12.25   0
  -7   8  18  156.67    9.34   0
  -4   4  28  665.17   13.93   0
  -4   7 -26  173.43    8.53   0
  -3   6   3    9.17    6.43   0
  -7   9   5    6.08    7.67   0
  -5   5  29    0.71    5.97   0
  -5   8 -22  132.59    8.59   0
  -5   8  -1    8.16    6.85   0
  -4   7   4  704.41   12.96   0
  -3   6 -27    2.77    6.38   0
  -2   4  12  813.58   13.08   0
  -2   5 -22  309.00    9.56   0
  -2   5  -1    3.30    5.75   0
  -4   5  24  949.61   14.81   0
  -1   3   5   11.92    4.49   0
  -6   7  23   15.02    7.37   0
  -5   8 -25   -4.17    6.41   0
  -5   8   2  262.81    9.19   0
  -8   8  23   -3.14    7.34   0
  -7   9   8  236.95   10.04   0
  -6   9  -9    8.28    7.38   0
  -5   6  25    4.82    6.54   0
  -4   7 -29    2.64    6.24   0
  -4   7   7   14.06    6.80   0
  -3   4  23   14.78    5.92   0
  -3   6   6  470.50   10.38   0
  -2   3  19    2.79    4.63   0
  -2   5 -25   -2.26    5.77   0
  -2   5   2  826.21   12.86   0
  -6   9 -18  182.00    9.63   0
  -6   9 -15    7.89    7.00   0
  -6   9  -6   97.33    8.28   0
  -5   7  18  409.22   11.38   0
  -5   8   5   -2.62    7.52   0
  -7   8  21    1.55    7.59   0
  -6   8  16  443.83   12.18   0
  -6   9  -3    6.08    7.41   0
  -5   8 -28  164.78    8.65   0
  -6   9 -21    0.62    6.73   0
  -6   9   0  345.12   11.20   0
  -4   6  20  693.71   13.06   0
  -3   3  27   -0.53    4.57   0
  -3   6   9    8.40    6.21   0
  -2   5   5    2.88    6.09   0
  -5   8   8  529.93   12.29   0
  -4   7  10  425.91   10.48   0
  -3   5  19    6.21    6.11   0
  -1   3   8 3410.36   26.96   0
  -1   4 -14  730.74   13.24   0
  -1   4 -11   32.83    4.96   0
  -6   9 -24  188.29    8.76   0
  -6   9   3   17.41    7.60   0
  -1   4  -5   12.40    5.32   0
  -5   7  21   -4.19    7.10   0
  -4   5  27    0.02    6.91   0
  -1   4 -17    1.41    4.05   0
  -7   9  14  148.86    9.11   0
  -6   8  19    6.21    7.33   0
  -3   6  12  815.43   13.52   0
  -2   5   8 2314.69   20.89   0
  -1   4  -2  898.52   13.93   0
  -7   8  24  289.69   10.87   0
  -6   9 -27    9.72    6.61   0
  -6   9   6  193.56    9.16   0
  -5   6  28  457.45   11.81   0
  -4   7  13    9.85    6.20   0
  -1   4 -20  906.65   15.01   0
  -3   7 -13   11.33    6.57   0
  -3   7  -7    5.91    6.85   0
  -6   9   9    8.34    7.80   0
  -4   6  23   -6.24    6.30   0
  -4   8 -15   -0.35    6.97   0
  -4   8 -12  276.77    9.28   0
  -4   8  -6  216.03    9.53   0
  -3   4  26  702.72   13.46   0
  -3   7 -16  456.82   11.22   0
  -3   7  -4  686.86   12.76   0
  -1   4   1   31.55    5.19   0
  -7   9  17    2.73    7.25   0
  -5   8  14  166.65    9.33   0
  -4   8 -18  216.22    9.49   0
  -4   8  -3    6.37    7.23   0
  -3   7 -19    2.89    6.39   0
  -2   3  22  473.12   11.54   0
  -2   4  18 1092.31   15.49   0
  -1   3  11   21.56    5.41   0
  -6   8  22  114.72    9.07   0
  -4   8   0  567.11   12.68   0
  -3   5  22  325.78    9.37   0
  -3   6  15   -1.20    6.28   0
  -3   7  -1   11.18    6.07   0
  -2   5  11   -1.94    5.26   0
  -1   4 -23   17.52    5.37   0
  -6   7  29    8.01    7.93   0
  -5   7  24  343.85   11.03   0
  -4   8 -21   -5.13    6.66   0
  -2   6 -14  314.42    9.60   0
  -2   6 -11    0.29    5.16   0
  -2   6  -5   -1.04    6.30   0
  -7   8  27    7.43    8.19   0
  -6   9  12  153.10    9.32   0
  -5   9 -14  103.90    8.06   0
  -5   9  -5    8.30    7.81   0
  -4   8   3   -1.12    7.43   0
  -3   7 -22  195.19    8.90   0
  -3   7   2  252.09    8.88   0
  -2   6 -17   -2.35    5.92   0
  -1   4   4 1341.42   16.14   0
  -5   9 -17   15.15    6.71   0
  -5   9  -2  178.17    9.78   0
  -4   8 -24  345.34   11.25   0
  -2   6  -2  605.39   11.56   0
  -7   9  20  158.49    8.90   0
  -5   9 -20  143.45    8.50   0
  -5   9   1    4.70    7.51   0
  -4   5  30  327.56   10.83   0
  -3   7   5   18.48    7.05   0
  -2   6 -20  693.89   12.94   0
  -5   6  31    0.94    6.73   0
  -4   6  26  413.99   11.18   0
  -4   8   6  221.99    8.96   0
  -3   7 -25   13.84    6.21   0
  -2   5  14  409.86    9.80   0
  -2   6   1   -0.61    5.50   0
  -6   8  25   -2.51    7.70   0
  -5   9 -23   -0.04    7.02   0
  -5   9   4  158.28    9.28   0
  -1   4   7   17.41    5.04   0
  -5   7  27    4.26    7.30   0
  -3   5  25    3.94    5.95   0
  -3   7   8  599.80   11.78   0
  -2   4  21   -0.48    5.46   0
  -2   6 -23   -2.36    5.73   0
  -2   6   4  923.98   14.17   0
  -5   8  20  252.20   10.10   0
  -5   9   7   15.66    7.94   0
  -4   8   9   -5.73    6.98   0
  -7   9  23    6.88    6.79   0
  -6  10  -1    2.51    7.31   0
  -6   9  18  118.55    9.31   0
  -3   4  29    1.69    5.17   0
  -3   7  11    0.62    6.75   0
  -2   6   7   -1.50    5.56   0
  -1   4  10 1192.19   15.73   0
  -1   5 -12  960.28   14.60   0
  -5   9  10  165.75    9.18   0
  -4   7  22  200.62    8.45   0
  -4   8  12  307.20    9.82   0
  -3   6  21    9.73    6.23   0
  -2   3  25   10.58    4.76   0
  -2   6 -26  381.16   10.48   0
  -1   5 -15   15.22    5.75   0
  -1   5  -3   27.67    5.87   0
  -6   8  28  184.67    9.36   0
  -5   8  23    0.05    7.59   0
  -4   6  29   -3.07    6.62   0
  -2   6  10  404.69   10.39   0
  -1   5 -18  392.28   10.34   0
  -1   5   0 1446.57   16.54   0
  -6   9  21    2.67    7.65   0
  -5   9  13   -1.37    7.78   0
  -4   8  15    1.11    7.82   0
  -3   7  14  395.88   10.31   0
  -5   7  30   77.89    8.09   0
  -1   5   3    1.05    5.66   0
   0   3  -9    2.41    4.62   0
  -4   7  25   15.09    7.26   0
  -4   9 -10  148.24    9.10   0
  -3   5  28  436.25   11.19   0
  -3   8 -14  150.49    8.94   0
  -3   8 -11    4.43    5.83   0
  -3   8  -5   -3.29    6.13   0
  -2   4  24 1937.49   20.45   0
  -1   4  13    8.51    4.95   0
  -1   5 -21    7.49    5.47   0
   0   3 -12 2539.81   24.35   0
  -4   9 -13    6.70    7.33   0
  -4   9  -4  154.66    9.40   0
  -3   6  24  671.28   13.08   0
  -3   8  -2  244.21    9.10   0
  -2   6  13    6.52    6.31   0
   0   3  -3   -0.68    4.26   0
  -4   9 -16  360.25   10.64   0
  -4   9  -1   -0.81    7.05   0
  -3   7  17   11.68    6.76   0
  -3   8 -17   -2.70    7.05   0
  -3   8   1    2.72    7.74   0
  -2   7  -9    3.23    6.44   0
  -1   5   6  402.43   10.27   0
   0   3 -15    0.86    4.46   0
  -5   8  26  198.77    9.72   0
  -2   7 -12  517.64   11.24   0
  -2   7  -3    2.35    6.86   0
   0   3   0 2672.19   23.45   0
  -6   9  24  228.17   10.16   0
  -4   9 -19   -3.25    7.14   0
  -3   8 -20  223.83    9.52   0
  -3   8   4  292.20    9.45   0
  -2   7 -15    2.34    6.52   0
  -2   7   0  657.50   12.75   0
  -1   5 -24  918.67   15.42   0
  -5  10  -3   -2.05    7.65   0
  -4   9   5    3.71    8.01   0
  -2   7 -18  408.39   11.01   0
  -1   4  16 2188.13   20.64   0
  -1   5   9   18.30    6.52   0
   0   3 -18 1267.37   18.75   0
  -5   9  19   11.14    7.32   0
  -5  10   0  246.13   10.10   0
  -4   6  32  385.26   11.38   0
  -4   9 -22   85.91    7.43   0
  -3   8 -23    0.02    6.47   0
  -3   8   7   -8.32    6.40   0
  -2   6  16  757.94   12.80   0
  -2   7   3    5.14    6.19   0
   0   3   3   -0.15    4.46   0
  -5  10   3    0.74    7.23   0
  -4   7  28  408.86   11.44   0
  -4   8  21   -9.04    7.52   0
  -4   9   8  439.24   11.65   0
  -2   5  23    7.39    5.99   0
  -3   6  27    5.38    6.59   0
  -3   8  10  241.48   10.23   0
  -2   3  28 1368.16   19.03   0
  -2   7 -21    1.36    6.07   0
  -2   7   6  479.03   11.63   0
  -6   9  27    0.26    7.48   0
  -5  10   6   94.29    8.33   0
  -3   5  31    5.69    5.96   0
  -2   4  27    1.33    5.36   0
  -1   5  12 1233.96   15.78   0
  -5   8  29   -2.18    7.61   0
  -4   9  11    0.54    7.22   0
  -1   6 -10  491.74   10.84   0
  -1   6  -4  788.79   12.85   0
   0   3   6 2073.48   20.38   0
  -5   9  22   86.24    8.48   0
  -2   7 -24  334.92   10.75   0
  -2   7   9    2.67    6.29   0
  -1   6 -13   13.54    5.42   0
  -1   6  -1    6.27    5.77   0
   0   4 -10  450.73   10.73   0
   0   4  -4 1601.47   17.92   0
  -4   8  24  357.42   11.12   0
  -3   7  23   -2.03    7.22   0
  -3   8  13   13.35    6.20   0
  -1   6 -16  678.72   12.86   0
  -1   6   2  361.75   10.02   0
   0   4 -13    1.24    5.05   0
   0   4  -1    2.48    5.46   0
  -4   9  14   98.86    8.81   0
  -4   7  31    3.45    7.13   0
  -2   5  26  708.37   13.16   0
  -2   7  12  453.96   10.65   0
  -1   5  15   -4.28    5.35   0
  -1   6   5   -5.50    6.45   0
   0   3   9   -0.83    5.27   0
   0   4   2 1514.14   17.22   0
  -3   8  16  469.73   11.75   0
  -1   6 -19   -0.36    5.90   0
   0   4 -16 1585.15   19.15   0
  -5   9  25    2.88    7.09   0
  -4   9  17    5.32    7.51   0
  -3   6  30  220.70    9.47   0
  -5   8  32  219.60    9.71   0
  -3   9  -9   -2.73    7.11   0
  -3   9  -6  179.67    9.11   0
  -2   7  15    0.11    6.97   0
  -1   3  23    0.17    5.06   0
  -1   6   8  853.67   13.21   0
   0   4   5    0.37    4.80   0
  -4   8  27   -9.13    7.49   0
  -3   7  26  155.02    8.27   0
  -3   9 -12  163.46    8.89   0
  -3   9   0  371.09   10.76   0
  -1   6 -22  229.46    9.02   0
   0   4 -19   -0.29    4.85   0
  -4  10  -2   87.68    7.91   0
  -3   5  34  448.65   11.94   0
  -3   8  19    7.97    7.75   0
  -3   9 -15    9.38    6.68   0
  -3   9   3   -8.25    7.37   0
  -2   4  30  209.81    8.49   0
  -2   8 -10  214.19    9.25   0
  -2   8  -7   -9.35    6.01   0
  -2   8  -1    1.25    7.49   0
  -1   4  22  359.75    9.32   0
  -1   5  18  766.45   12.61   0
  -4  10   1   -0.57    7.20   0
  -2   8 -13    1.47    6.75   0
  -2   8   2  244.95   10.04   0
  -1   6  11    5.63    5.91   0
   0   3  12 1976.20   19.66   0
   0   4   8 1618.49   17.26   0
  -5   9  28  102.23    9.24   0
  -3   9 -18  107.04    7.80   0
  -3   9   6   93.35    8.66   0
  -2   6  25    9.44    6.73   0
  -2   7  18  195.24    9.35   0
  -4   7  34  209.89    9.78   0
  -2   5  29   -0.23    5.87   0
  -2   8 -16  424.34   11.49   0
  -2   8   5   -3.83    7.81   0
   0   5  -8 1028.29   14.89   0
  -3   9   9    0.44    7.61   0
  -1   6  14  454.53   11.20   0
   0   4 -22  666.35   13.73   0
   0   5 -11    0.72    5.71   0
   0   5  -2  365.41    9.40   0
  -4   8  30   99.94    8.24   0
  -3   6  33    3.32    6.60   0
  -3   7  29    7.55    7.42   0
  -2   8 -19   -3.82    6.42   0
  -2   8   8  519.74   12.48   0
  -1   7  -8  693.22   12.87   0
  -1   7  -2  368.33   10.61   0
   0   4  11    3.78    4.86   0
   0   5   1    6.29    5.24   0
  -4   9  23   -6.32    7.82   0
  -3   9  12  198.76    9.79   0
  -1   7 -11    3.45    6.96   0
  -1   7   1   -1.62    6.73   0
   0   3  15    0.65    5.17   0
   0   5 -14  660.75   12.70   0
   0   5   4 1223.49   15.79   0
  -2   8  11   11.42    7.43   0
  -1   4  25    2.08    5.38   0
  -1   7 -14  149.55    8.68   0
  -1   3  26  534.66   11.88   0
  -1   6  17    0.44    6.02   0
  -1   7   4  301.33    9.42   0
   0   5 -17    0.91    5.44   0
  -3   8  25    0.17    7.23   0
  -3   9  15   -2.13    7.73   0
  -2   6  28  465.49   11.69   0
  -1   7 -17    4.99    6.37   0
  -1   7   7   15.09    7.40   0
   0   4  14  340.38    9.00   0
   0   5   7    2.93    5.38   0
  -2   8  14  138.29    8.92   0
  -4   9  26  171.49    9.49   0
  -2   5  32  749.58   13.63   0
  -2   7  24  479.77   11.64   0
  -1   5  24  707.56   12.44   0
   0   5  10  744.21   13.02   0
  -4   8  33   -4.38    7.51   0
  -3   7  32  299.72   10.75   0
  -1   7 -20  266.26    9.71   0
  -1   7  10  255.44    9.09   0
   0   5 -20  696.77   13.33   0
  -3   6  36  335.39   11.31   0
  -3   9  18  212.27    9.10   0
  -2   8  17   12.28    7.81   0
  -3   8  28  200.47   10.00   0
  -1   7  13   -5.80    7.34   0
   0   4  17    5.65    5.02   0
  -2   6  31    6.76    6.80   0
  -1   4  28  741.45   13.28   0
   0   5  13   -1.12    5.38   0
   0   6  -9    0.26    6.42   0
   0   6  -6  258.46    8.70   0
   0   6   0  945.15   14.33   0
  -4   9  29   -1.74    6.86   0
  -2   7  27    7.28    7.66   0
  -2   9  -8  232.56    9.53   0
  -2   9  -5   -6.64    7.70   0
  -2   9   1   -6.86    7.39   0
   0   6   3    1.57    6.58   0
  -2   8  20  231.61    9.86   0
  -2   9 -11   -6.28    6.70   0
  -2   9   4  201.85    9.62   0
  -1   5  27    6.60    5.97   0
   0   6 -12  454.86   10.53   0
  -2   9 -14  152.19    9.20   0
  -1   3  29    6.00    5.36   0
  -1   7  16  657.08   12.51   0
   0   2  19    0.48    4.64   0
   0   5  16  749.82   12.81   0
   0   6   6  429.67   10.16   0
   1   3  -2  879.71   13.85   0
  -3   7  35   -5.62    6.73   0
  -2   9   7    2.94    7.48   0
  -1   8  -6  199.13    9.57   0
   0   3  21   -1.66    5.04   0
   0   6 -15   -0.15    6.18   0
   1   2  -1   50.65    5.70   0
   1   3  -8 2707.15   23.47   0
   1   3   1   27.67    5.71   0
  -3   8  31    6.82    7.50   0
  -2   5  35    4.87    5.91   0
  -1   8  -9    0.36    6.74   0
   0   6   9   -5.53    5.90   0
  -3   9  24  197.84    9.58   0
  -2   9 -17    2.10    6.77   0
  -1   7  19    6.27    7.51   0
  -1   8 -12  201.37    9.29   0
  -1   8   3    5.80    6.56   0
   0   6 -18  408.23   11.24   0
   1   2   2  687.09   12.69   0
   1   3 -11   34.58    4.86   0
   1   3   4 1339.83   16.05   0
  -2   7  30  217.40    9.53   0
  -1   6  26  261.16    9.37   0
  -1   8   6  125.66    8.98   0
   0   5  19    3.36    6.34   0
   0   6  12  389.26   10.53   0
   1   4  -6  911.55   13.99   0
  -2   6  34  188.73    9.08   0
  -2   9  13    5.99    7.54   0
  -1   8 -15    1.26    6.65   0
   1   3   7   19.04    5.71   0
   1   4  -9    4.55    5.46   0
   1   4   0 1473.97   16.58   0
  -1   4  31    7.00    5.65   0
  -1   5  30  193.41    8.65   0
  -1   8   9   14.00    6.79   0
   1   2   5    6.74    4.45   0
   1   3 -14  702.02   13.28   0
   1   4   3    6.03    5.11   0
  -3   9  27    7.43    7.66   0
  -1   7  22  173.59    9.18   0
   0   6 -21   -1.49    6.31   0
   0   6  15   -8.05    6.70   0
   1   4 -12  996.48   14.89   0
   1   4   6  401.90    9.87   0
  -2   8  26  220.62   10.25   0
  -1   8  12  233.81    9.39   0
   0   3  24 1623.61   18.31   0
   0   7  -4  197.99    9.16   0
   1   3  10 1202.61   15.44   0
  -3   8  34  156.71    9.37   0
   0   2  22 1890.01   20.98   0
   0   7  -7   -1.05    6.83   0
   0   7   2  258.05    9.80   0
   1   2   8 3400.63   26.12   0
  -2   7  33   15.59    7.33   0
  -1   6  29    2.82    6.86   0
  -1   8  15    3.08    7.40   0
   0   7 -10  251.19    9.55   0
   0   7   5   -8.19    6.95   0
   1   3 -17   -0.30    5.02   0
   1   4 -15   11.70    5.47   0
   1   4   9   26.49    5.50   0
  -2   9  19    1.97    7.24   0
   0   6  18  296.17    9.29   0
   1   5  -1   10.29    5.55   0
   0   7 -13   -1.27    6.62   0
   0   7   8  635.11   12.28   0
   1   3  13   17.50    4.83   0
   1   4  12 1191.38   15.20   0
   1   5  -7   -1.87    5.18   0
  -2   6  37    7.51    6.26   0
  -2   8  29   -7.83    7.71   0
  -1   5  33   -2.31    6.13   0
  -1   8  18  215.59    9.70   0
   0   4  26  759.88   12.65   0
   1   2  11   19.50    4.72   0
   1   5 -10  503.33   11.40   0
   1   5   5   -0.49    5.62   0
  -2   9  22   62.63    8.30   0
   0   6  21  -11.72    7.12   0
   0   7 -16  549.36   12.09   0
   0   7  11   -1.87    6.26   0
   1   4 -18  388.69   10.44   0
   1   5   8  869.44   13.61   0
  -1   4  34  544.97   11.89   0
   1   5 -13    2.20    6.00   0
  -3   8  37    3.27    6.38   0
  -1   6  32  415.58   11.24   0
  -1   7  28  177.43    9.21   0
  -1   9  -4  190.24    8.96   0
  -1   9  -1   -0.02    6.80   0
   0   3  27   -0.01    5.19   0
   0   7  14  151.08    9.24   0
   1   3  16 2170.19   19.80   0
   1   4  15    4.64    5.27   0
   1   5  11    9.24    6.61   0
  -2   7  36  176.27    9.52   0
  -1   8  21    2.97    6.87   0
  -1   9  -7    6.10    6.59   0
  -1   9   5   -2.50    7.08   0
   1   2  14 1657.03   18.45   0
   1   3 -20  855.83   15.48   0
  -2   8  32  212.31    9.46   0
  -1   9   8  166.95    9.16   0
   1   5 -16  667.70   12.90   0
   0   2  25   -2.51    4.41   0
   0   4  29    2.44    5.81   0
   0   7  17    8.61    6.52   0
   1   4  18  800.20   12.95   0
   1   5  14  438.93   10.82   0
   1   6   1    2.36    6.90   0
  -1   9  11   -1.52    7.12   0
   1   4 -21    6.25    5.27   0
   1   6  -5    7.39    5.88   0
   1   6   4  292.56    9.75   0
  -1   5  36  494.31   11.67   0
   0   8  -5   -0.32    7.50   0
   0   8  -2  114.67    8.38   0
   1   3  19   17.75    5.07   0
   1   6  -8  700.33   12.61   0
   1   6   7   10.08    6.92   0
  -1   7  31    4.68    7.03   0
   0   7  20  178.88    9.63   0
   0   8  -8  272.09   10.08   0
   0   8   4  238.79    9.98   0
   1   5 -19    1.45    5.86   0
   1   5  17    2.73    6.74   0
   1   6 -11   11.11    6.73   0
  -1   6  35    6.08    6.92   0
   0   8   7   -1.50    7.51   0
   1   2  17   12.92    4.46   0
   1   6  10  236.30    8.90   0
  -2   8  35    3.03    7.49   0
  -1   4  37    6.08    5.94   0
   0   3  30  588.81   11.90   0
   0   8 -11    6.70    6.51   0
   0   8  10  188.84    9.23   0
   1   4  21   11.77    5.34   0
  -2   7  39    3.31    6.45   0
  -1   8  27    3.29    6.57   0
   0   7  23   -3.88    7.64   0
   1   6 -14  140.61    8.12   0
   1   6  13   -7.40    7.23   0
   0   4  32  512.55   11.53   0
   0   5  31   -0.50    5.53   0
   0   8 -14  131.27    8.26   0
   0   8  13   -9.05    7.62   0
   1   5  20  528.56   11.10   0
  -1   7  34  178.76    9.62   0
   1   6  16  695.79   13.38   0
   0   6  30  169.19    9.11   0
   0   8  16  206.61    9.67   0
   1   6 -17   -0.40    5.90   0
  -1   8  30   53.26    8.17   0
   0   2  28 1115.71   16.56   0
   1   5  23    3.01    6.88   0
   1   7  -3   -3.12    7.43   0
   2   3  -1    4.85    4.81   0
   2   3   2  825.31   12.74   0
   2   4   1   -3.01    6.13   0
  -1   5  39    3.35    6.32   0
  -1   6  38  142.76    8.34   0
   1   6  19   10.22    7.43   0
   1   7  -6  213.75    9.21   0
   1   7   6  126.98    8.53   0
   2   3   5   10.65    5.06   0
   2   4  -5    4.55    5.69   0
   2   4   4  906.05   13.31   0
   0   8  19    3.81    7.35   0
   1   7   9    6.21    7.65   0
   2   3  -7   11.96    4.75   0
   2   3   8 2281.09   19.96   0
   2   4   7   -3.01    6.31   0
   0   5  34  303.82    9.62   0
   1   3  25    1.45    4.68   0
   1   7  -9    1.10    7.21   0
   2   4  -8  890.46   13.55   0
   0   3  33    1.02    5.18   0
   1   4  27    3.57    6.17   0
   1   7  12  236.02    9.77   0
   2   2   0 4247.46   28.52   0
   2   2   3    4.49    5.19   0
   2   3 -10  762.20   13.17   0
   2   3  11    8.25    5.06   0
   2   4  10  362.44    9.50   0
  -1   7  37    4.58    7.26   0
  -1   8  33   -5.38    7.32   0
   0   4  35    0.61    5.68   0
   0   6  33    4.28    7.23   0
   0   7  29   -3.29    7.38   0
   0   8  22   81.51    8.21   0
   1   6  22  168.96    8.31   0
   1   7 -12  194.46    9.00   0
   2   4 -11   -6.73    5.61   0
   2   5  -3    0.66    6.15   0
   2   5   3    7.61    5.85   0
   1   2  23    1.82    4.82   0
   1   7  15    0.57    7.18   0
   2   2  -6  859.07   13.87   0
   2   2   6  830.08   12.91   0
   2   4  13    7.99    5.67   0
   2   5  -6  178.73    8.37   0
   1   7 -15    0.58    7.43   0
   2   2   9    3.13    5.30   0
   2   3 -13    0.08    4.90   0
   2   3  14  400.97    9.48   0
   2   5   9    3.46    6.04   0
   1   6  25    2.16    7.53   0
   1   7  18  257.59   10.06   0
   2   4 -14  314.00    9.58   0
   2   4  16  797.31   13.03   0
   2   5  -9   12.77    6.34   0
   2   5  12  419.24   11.03   0
   0   8  25    1.99    7.69   0
   1   3  28  729.99   12.36   0
   2   2  -9    1.44    4.77   0
   0   5  37   -3.89    6.18   0
   0   7  32  305.95   10.39   0
   1   4  30  204.99    8.70   0
   1   5  29    3.68    5.83   0
   2   2  12  826.25   12.71   0
   2   3  17    3.07    5.15   0
   2   5 -12  495.74   11.47   0
   0   2  31    2.70    4.53   0
   0   6  36  167.60    8.86   0
   1   7  21   -3.33    7.35   0
   2   4  19   -0.45    6.56   0
   2   5  15   -4.47    6.05   0
  -1   7  40  214.92    9.21   0
   1   8  -4  201.58    9.09   0
   1   8  -1    3.12    6.73   0
   1   8   2  109.15    8.59   0
   2   3 -16 1834.05   20.45   0
   2   6  -4  248.86    9.84   0
   2   6  -1    7.87    5.93   0
   2   6   5    3.20    6.47   0
   0   4  38  148.41    8.52   0
   1   2  26  546.27   11.36   0
   1   8   8  158.37    9.25   0
   2   2 -12  796.49   13.98   0
   2   2  15    1.58    4.65   0
   2   3  20  625.40   11.84   0
   2   4 -17    0.25    5.36   0
   2   5 -15   -1.13    6.03   0
   2   5  18  198.51    9.17   0
   2   6   8  501.28   11.25   0
   0   3  36  559.98   12.21   0
   1   8  -7    1.88    7.00   0
   1   8  11    3.17    6.97   0
   2   6  -7   -5.40    5.99   0
   2   6  11   -3.40    7.63   0
   0   7  35   -0.36    6.91   0
   1   3  31   16.19    5.74   0
   1   5  32  423.79   11.29   0
   1   7  24  227.48    9.26   0
   2   4  22  392.42    9.84   0
   1   4  33    7.96    6.01   0
   1   8 -10   99.97    7.85   0
   2   5  21    5.31    7.10   0
   2   6 -10  223.01    9.38   0
   2   6  14  125.42    7.77   0
   1   6  31    7.17    7.15   0
   2   2  18 1124.02   14.62   0
   2   3  23    3.10    6.02   0
   0   5  40  223.73    9.32   0
   0   6  39    4.88    7.19   0
   2   3 -19    6.75    5.37   0
   2   5 -18  393.40   10.87   0
   2   6 -13    6.32    6.59   0
   2   6  17   -3.76    6.42   0
   2   1   1   47.70    5.22   0
   2   1   4 3131.14   25.53   0
   2   2 -15    2.15    4.24   0
   2   4  25    4.28    5.65   0
   2   5  24  484.37   11.96   0
   1   1  21   21.67    4.80   0
   1   2  29    5.87    5.09   0
   2   1   7   -2.68    4.37   0
   2   6  20  221.70    9.62   0
   2   7   1    6.81    7.20   0
   0   7  38   50.67    7.34   0
   1   5  35   -5.35    6.29   0
   2   7  -2   85.52    7.94   0
   2   7   7    2.01    7.44   0
   0   2  34  273.93    9.54   0
   1   3  34  590.99   12.08   0
   1   6  34  186.54    9.44   0
   1   7  30   48.27    7.99   0
   2   1  10 2065.55   20.42   0
   2   7  -5   -4.36    6.72   0
   2   7  10  184.49    9.42   0
   3   3   3    7.21    5.82   0
   3   4   5   10.81    6.47   0
   1   4  36  525.38   11.79   0
   2   6  23    0.53    7.28   0
   2   7  13    1.47    7.01   0
   3   3   6  492.92   10.36   0
   3   3   9    9.94    6.43   0
   3   4   8  588.24   12.07   0
   2   1  13   35.76    5.56   0
   2   7  -8  244.94    9.67   0
   3   4  -4  699.80   12.40   0
   3   4  11    0.92    6.61   0
   0   6  42  145.49    8.32   0
   2   7  16  177.79    9.52   0
   3   3  -6  489.65   10.81   0
   3   3  12  822.44   12.74   0
   3   4  -7    0.79    6.33   0
   2   7 -11   -3.11    6.20   0
   3   5  -2  260.23    9.95   0
   3   5   7   -3.50    7.41   0
   1   1  24 1817.86   20.72   0
   1   5  38  160.10    8.40   0
   1   7  33    2.46    6.85   0
   2   2 -18 1055.49   17.52   0
   2   3  29    4.65    6.04   0
   2   6  26  218.28    9.26   0
   2   7  19    0.17    7.29   0
   3   2   1   -4.13    5.58   0
   3   2   4  761.03   12.26   0
   3   2   7    7.89    5.85   0
   3   3  15    3.40    5.51   0
   3   5  10  239.41    9.09   0
   1   2  32 1276.75   16.91   0
   1   6  37    7.05    6.84   0
   2   1  16 2084.70   20.27   0
   2   4  31   -1.09    6.65   0
   3   3  -9    1.91    4.96   0
   3   4 -10  408.02   10.75   0
   3   4  17   10.72    6.16   0
   3   5  -5   -4.86    6.00   0
   3   5  13    8.53    7.36   0
   3   2  10  747.21   12.14   0
   3   3  18  452.06   10.63   0
   3   5  -8  530.00   12.00   0
   1   3  37    0.23    5.54   0
   1   4  39    4.73    6.35   0
   2   7  22   61.04    7.37   0
   3   2  -5   11.27    5.49   0
   3   2  13   -3.59    5.56   0
   3   4  20  475.60   11.15   0
   3   5  16  462.46   10.91   0
   2   2  27   -0.36    5.42   0
   3   3 -12  789.64   13.53   0
   3   4 -13   16.01    6.01   0
   2   5  33   10.59    7.44   0
   3   3  21   12.39    6.24   0
   3   5 -11    5.87    6.50   0
   3   5  19   -5.72    7.52   0
   3   6   0  344.53   10.62   0
   3   6   3    0.95    6.61   0
   3   6   9    7.68    7.24   0
   2   3  32  710.30   12.43   0
   2   4  34  189.32    9.20   0
   3   2  -8 2302.88   21.48   0
   3   2  16 1822.11   18.02   0
   3   4  23    3.80    7.06   0
   3   6  -3    0.79    6.76   0
   1   5  41   -0.17    6.68   0
   1   6  40  232.98    9.23   0
   2   6  32  217.69    9.79   0
   3   2  19    6.72    5.90   0
   3   5  22  150.46    8.25   0
   3   6  15   -9.77    6.98   0
   1   1  27   -1.07    4.33   0
   3   3 -15    1.73    5.40   0
   3   3  24  650.22   11.98   0
   3   4 -16  460.93   11.31   0
   3   5 -14  171.37    8.66   0
   3   6  18  218.44    9.74   0
   1   2  35   -0.80    4.91   0
   2   2  30  206.63    7.75   0
   2   5  36  188.64    9.53   0
   3   2 -11    0.70    5.20   0
   3   4  26  168.73    8.12   0
   3   6  -9    2.56    7.02   0
   1   4  42  229.20    9.38   0
   3   5  25   -2.03    6.57   0
   2   3  35    9.09    5.57   0
   2   4  37    1.19    6.57   0
   2   6  35    1.09    7.45   0
   3   1   2  895.67   13.47   0
   3   1   5   11.35    4.72   0
   3   1   8 2819.81   22.68   0
   3   6  21   -2.64    7.81   0
   3   1  -1   32.15    5.63   0
   3   1  11   37.64    5.31   0
   1   6  43   -2.86    6.19   0
   3   5  28  189.70    9.17   0
   3   6  24  212.20    9.63   0
   2   1  25    5.04    5.08   0
   3   1  14  725.92   12.11   0
   3   2 -14  406.52   10.59   0
   3   3 -18  432.12   11.09   0
   4   3   4  695.71   12.20   0
   4   3   7    4.38    5.88   0
   4   3  10  449.60   10.89   0
   4   4   6  233.28    8.79   0
   4   4   9    0.78    7.15   0
   2   2  33    3.71    5.61   0
   2   5  39    0.32    6.54   0
   4   3  -2  260.07    9.32   0
   4   3  13   17.27    7.15   0
   4   4   0  562.77   11.53   0
   4   4  12  306.47   10.58   0
   3   1  17    1.54    5.48   0
   3   3  30  217.33    8.26   0
   3   6  27    9.39    7.64   0
   4   4  -3   -0.58    7.15   0
   4   4  15    0.53    6.95   0
   2   3  38  109.74    7.60   0
   2   4  40  274.11   10.09   0
   3   4  32  303.62   10.47   0
   4   3  -5    5.58    6.50   0
   4   3  16  461.21   10.55   0
   4   5   2  200.76    9.56   0
   4   5   8  393.71   11.19   0
   4   2   5   -5.27    5.39   0
   4   2   8  913.91   13.39   0
   4   5  11    5.82    6.85   0
  -4   9 -28  100.41    7.85   0
  -4   9 -25   -0.20    7.37   0
  -4   9 -19   -3.65    7.07   0
  -3   8 -11   -8.49    7.54   0
  -2   7 -33   -1.04    6.68   0
  -2   7 -12  495.86   11.44   0
  -4   6  17   -0.37    6.02   0
  -4   8   3   -1.70    6.54   0
  -4   9 -16  373.11   11.13   0
  -3   8 -35   -3.57    6.99   0
  -1   6 -28  439.77   11.07   0
  -1   6 -25    8.06    6.27   0
  -1   6 -22  231.13    8.38   0
  -1   6 -19    0.39    6.16   0
  -7   9  11    6.72    7.90   0
  -4   9 -13    2.72    7.35   0
  -3   6  12  793.12   13.55   0
  -3   7   5    3.94    7.07   0
  -2   7 -36  279.57    9.49   0
  -2   7  -9    8.38    6.56   0
  -5   8  11   -0.98    6.28   0
  -3   8  -8  513.78   11.23   0
  -2   6   4  939.23   14.17   0
  -1   5   0 1511.70   17.07   0
  -1   6 -31    6.59    5.88   0
  -4   5  21    3.22    5.59   0
  -4   7  13   16.61    6.91   0
  -4   9 -10  156.30    9.23   0
  -6   8  16  404.50   11.60   0
  -6   9   9   -1.22    6.85   0
  -5   7  18  407.24   11.36   0
  -3   8  -5    8.26    7.31   0
  -2   7  -6  172.05    8.78   0
  -1   4   7   23.18    5.42   0
  -1   6 -34  230.06    9.13   0
   0   4  -7    7.21    5.33   0
  -5   9   4  152.29    9.03   0
  -4   9  -7    3.18    7.56   0
  -1   6 -10  503.90   10.69   0
   0   3   0 2764.70   23.52   0
  -6  10  -1   -5.16    6.86   0
  -3   4  20  906.25   15.38   0
  -2   4  15   -0.40    4.19   0
  -3   8  -2  256.23   10.06   0
  -2   7  -3    4.96    7.01   0
  -1   5   3   -4.87    6.04   0
  -1   6  -7   -3.11    6.38   0
  -5   8  14  143.29    8.68   0
  -4   9  -4  156.90    8.39   0
  -2   6   7   -0.46    5.43   0
  -4   8   9    6.19    7.28   0
  -3   6  15    2.83    6.19   0
   0   4  -4 1608.49   17.32   0
   0   5 -23    0.53    5.69   0
   0   5 -20  723.59   13.04   0
  -6   9  12  159.89    8.92   0
  -5   9   7    2.28    7.66   0
  -4   7  16  486.17   11.78   0
  -3   5  19    7.20    5.59   0
   0   5 -26  234.25    8.95   0
   0   5 -17    3.67    5.69   0
  -5  10  -6  106.74    8.10   0
  -4   9  -1   -4.94    6.94   0
  -3   8   1   -4.40    6.48   0
  -2   7   0  663.67   12.18   0
  -1   6  -4  807.69   12.76   0
   0   5 -29   -2.44    5.60   0
   0   5 -14  662.14   12.26   0
  -2   5  14  391.11   10.12   0
  -2   8 -25   -1.17    7.33   0
  -2   8 -22  122.55    8.29   0
  -2   8 -19    1.87    7.33   0
  -1   4  10 1134.89   14.91   0
  -1   5   6  391.99    9.99   0
   0   3   3   -1.33    4.34   0
  -5   7  21    0.20    6.57   0
  -5  10  -3    4.31    7.56   0
  -4   9   2  204.35    9.43   0
  -3   9 -27    1.06    7.00   0
  -3   9 -24  224.26    9.71   0
  -3   9 -21   -0.20    6.72   0
  -2   6  10  383.64    9.79   0
  -2   8 -28  165.59    8.95   0
  -1   6  -1    3.04    6.28   0
   0   4  -1   -3.77    4.80   0
  -5   8  17    0.06    6.89   0
  -5   9  10  150.57    8.94   0
  -4   8  12  309.73   10.45   0
  -3   8   4  296.35    9.48   0
  -3   9 -15    5.95    6.67   0
  -2   7   3    2.67    6.04   0
  -2   8 -13   11.54    7.10   0
  -3   9 -12  152.69    8.82   0
  -2   8 -31    0.28    6.31   0
  -1   7 -23    4.82    6.91   0
  -1   7 -20  295.78   10.17   0
   0   5  -8  996.56   14.40   0
   1   3 -23   16.50    5.23   0
  -6   9  15    6.08    7.41   0
  -3   6  18  463.02   11.31   0
  -2   4  18 1126.55   15.97   0
  -2   8 -10  206.38    8.59   0
  -1   7 -26  285.99    9.68   0
  -1   7 -17    5.50    6.94   0
   1   3 -26  631.69   13.51   0
   1   3 -17   -2.11    4.79   0
  -4   7  19   -0.39    6.59   0
  -3   9  -9    3.65    6.72   0
  -1   6   2  351.83    9.98   0
  -1   7 -29    0.90    6.40   0
  -3   7  14  394.46   10.80   0
  -3   8   7    7.47    7.16   0
  -2   7   6  473.13   11.15   0
  -2   8  -7    8.12    6.26   0
  -1   7 -11    1.60    6.91   0
   0   4   2 1448.52   16.26   0
   0   5  -5   -3.15    5.97   0
   1   3 -14  718.03   12.58   0
  -4   6  23    2.53    6.44   0
  -1   5   9   28.44    5.43   0
  -1   7 -32  258.68    9.46   0
  -5   9  13   -9.18    7.59   0
  -4   8  15    1.12    6.80   0
  -2   5  17   -4.56    5.66   0
  -2   8  -4  248.89    9.66   0
  -1   7  -8  700.01   12.78   0
   0   3   6 2072.29   20.32   0
   1   3 -11   32.17    5.60   0
  -3   4  23   21.09    5.17   0
  -3   9  -3   12.84    7.49   0
  -5   8  20  243.80   10.12   0
  -1   6   5    6.86    6.72   0
   0   5  -2  367.75    9.23   0
  -5  10   6   83.43    8.50   0
  -2   7   9    0.65    6.68   0
  -2   8  -1   -0.96    7.27   0
  -1   7  -5    3.85    6.13   0
   0   6 -24  500.59   11.74   0
   0   6 -21    7.91    6.21   0
   0   6 -18  402.65   10.62   0
   0   4   5    1.50    4.71   0
   0   6 -27    6.95    6.17   0
   0   6 -15   -4.60    5.31   0
  -4  10  -2   98.01    7.88   0
  -3   6  21    6.12    6.14   0
  -3   7  17   10.59    5.84   0
  -1   5  12 1194.89   15.50   0
   0   6 -12  471.51   11.13   0
   1   4 -21    7.39    5.53   0
   1   4 -18  411.41   10.30   0
  -5   9  16  338.85   10.82   0
  -4   7  22  195.94    8.89   0
  -4   9  11   -3.84    7.54   0
  -2   6  16  787.26   13.46   0
  -2   8   2  257.44   10.15   0
  -1   7  -2  360.70    9.82   0
   0   5   1   -1.54    5.23   0
   1   4 -15   17.25    5.78   0
  -4   8  18  231.06    9.84   0
  -3   9   3   -4.75    7.67   0
  -4  10   1    3.94    6.89   0
   1   3  -5    7.36    4.32   0
   1   4 -12  986.47   13.96   0
  -3   8  13   -0.91    6.04   0
  -2   4  21   -0.21    4.75   0
  -2   5  20  646.73   12.37   0
  -2   7  12  417.65   10.45   0
  -2   9 -20  160.03    8.88   0
  -2   9 -17    0.32    7.38   0
  -1   7   1    2.25    6.08   0
   0   3   9   -0.46    4.35   0
   0   6  -6  264.67    9.33   0
  -2   8   5   -4.28    7.31   0
   0   4   8 1632.47   17.43   0
   0   5   4 1223.27   15.44   0
   1   4  -9    6.69    5.41   0
  -3   9   6   87.03    8.24   0
  -2   9 -11    2.70    6.91   0
  -1   8 -21   -7.02    6.83   0
  -1   8 -18  151.94    8.77   0
  -3   7  20  486.24   11.62   0
  -1   3  17   13.03    4.81   0
  -1   7   4  304.77   10.17   0
  -1   8 -24  289.06    9.78   0
  -1   8 -15    0.46    7.23   0
   0   6  -3    1.92    5.65   0
   1   3  -2  874.75   13.45   0
  -5   9  19   -1.08    7.14   0
  -2   9  -8  260.52   10.08   0
  -1   6  11    1.50    5.71   0
  -1   8 -27    1.42    6.21   0
  -4   8  21    2.96    6.94   0
  -3   8  16  450.80   11.92   0
  -2   6  19    1.97    6.31   0
  -1   8  -9   -5.82    6.90   0
   1   2  -1   49.50    5.09   0
  -4   7  25    7.53    7.12   0
  -3   6  24  658.12   12.88   0
  -2   9  -5    2.99    6.67   0
   0   5   7   -5.54    6.20   0
   0   6   0  932.90   13.67   0
  -1   8  -6  217.78    9.66   0
   1   4  -3   34.01    6.04   0
   1   5 -22  231.41    8.74   0
   1   5 -19   -1.26    6.03   0
   1   5 -16  690.28   12.81   0
  -1   7   7   13.78    6.20   0
   0   4  11   -1.11    5.44   0
   0   7 -22  118.09    8.12   0
   0   7 -19    5.57    6.53   0
   0   7 -16  551.14   12.00   0
   1   3   1   29.47    5.53   0
   1   5 -25    2.94    5.74   0
   1   5 -13    8.52    5.48   0
  -4   9  17    0.59    7.59   0
  -1   8  -3    5.89    7.28   0
   0   3  12 2024.94   19.65   0
   0   7 -25   -3.83    6.66   0
   0   7 -13   -6.11    7.17   0
   1   5 -10  522.69   11.09   0
  -2   5  23    7.49    5.50   0
  -2   8  11    1.39    7.55   0
   0   6   3   -6.63    5.91   0
  -3   7  23    1.03    6.21   0
  -2   9   1   -4.49    6.85   0
  -1   4  19   17.66    4.60   0
   1   4   0 1413.32   15.94   0
  -3   8  19   -0.96    7.44   0
  -2   7  18  198.60    8.52   0
  -1   7  10  246.44    9.76   0
  -1   8   0  433.15   10.57   0
   0   5  10  722.86   12.08   0
   1   2   2  669.73   12.29   0
  -4   8  24  362.55   11.18   0
  -2   4  24 1890.75   20.72   0
  -2   6  22  409.84   10.75   0
   0   6   6  430.38   10.18   0
   0   7  -4  216.81    8.54   0
   1   3   4 1298.76   15.55   0
   1   5  -4  784.11   12.47   0
  -4   9  20  140.51    8.58   0
  -1   8   3   -2.70    6.71   0
   0   4  14  333.77    9.30   0
   1   4   3    0.02    5.25   0
  -3   6  27   -2.70    6.60   0
  -3   9  15   -1.77    7.11   0
  -1   3  20 1420.42   17.90   0
   0   7  -1   -2.91    6.70   0
  -2   9   7    0.80    7.52   0
  -1   7  13    0.06    7.10   0
   1   5  -1    4.69    5.47   0
  -3   8  22  132.71    9.07   0
  -1   8   6  119.91    8.53   0
   0   3  15   -0.68    4.95   0
   0   5  13    2.48    5.29   0
   1   6 -20  281.32    9.63   0
   1   6 -17    1.81    6.50   0
   1   6 -14  153.54    8.12   0
  -2   7  21   -5.08    5.91   0
  -1   9 -13    2.07    6.46   0
   0   7   2  247.58    9.72   0
   1   2   5   12.59    4.97   0
   1   6 -23    3.87    6.34   0
   1   6 -11   -0.26    6.69   0
  -3   7  26  161.69    9.05   0
  -2   8  17   -0.98    7.57   0
  -1   5  21   10.71    5.04   0
   1   3   7   15.74    5.50   0
   1   4   6  384.89    9.25   0
   1   5   2  352.06    9.82   0
   1   6  -8  707.12   13.03   0
  -2   5  26  658.59   12.69   0
  -2   9  10  186.79    8.88   0
  -1   4  22  363.65    9.63   0
  -1   9  -7   -3.85    6.88   0
  -4   9  23    4.65    7.15   0
  -3   9  18  220.55   10.02   0
  -2   6  25    1.11    5.50   0
  -1   6  20  506.91   11.47   0
  -1   7  16  706.51   13.21   0
  -1   8   9    8.73    7.17   0
   0   7   5   -9.54    7.26   0
   0   8 -17    7.80    7.07   0
   0   8 -14  143.50    8.99   0
   2   3 -16 1900.75   20.23   0
  -1   9  -4  194.99    8.51   0
   0   4  17    0.18    5.41   0
   0   6  12  385.88    9.81   0
   0   8 -20  150.37    8.60   0
   0   8 -11   -3.49    6.95   0
   2   3 -19    5.81    4.99   0
   2   3 -13    1.58    4.97   0
   0   5  16  761.09   12.28   0
   0   8 -23    0.96    5.99   0
   1   5   5    3.47    5.40   0
   1   6  -2  352.01   10.08   0
   2   2 -18 1053.53   16.94   0
   2   2 -15    0.33    4.48   0
   2   3 -22  282.33    9.37   0
   2   3 -10  767.45   13.04   0
  -1   9  -1    0.76    7.45   0
   1   4   9   21.21    5.88   0
   2   2 -12  810.98   14.08   0
  -3   8  25    1.99    6.79   0
  -2   7  24  480.36   11.76   0
  -2   8  20  205.46    9.56   0
  -1   8  12  223.30    9.70   0
   0   7   8  659.78   13.06   0
   2   2 -21    1.19    4.34   0
   2   3  -7    7.36    5.31   0
   2   4 -17   -2.99    5.36   0
   2   4 -14  312.27    9.46   0
  -2   4  27   -0.24    4.82   0
  -1   9   2  121.66    8.43   0
   1   2   8 3348.43   25.62   0
   1   3  10 1125.79   14.52   0
   1   6   1    2.41    6.98   0
   2   2  -9   -3.46    4.46   0
   2   4 -20  660.20   12.81   0
   2   4 -11    3.78    5.66   0
  -3   9  21    6.57    7.45   0
  -1   5  24  716.03   12.88   0
   0   6  15    9.24    6.87   0
   0   8  -2  125.22    7.98   0
   1   5   8  866.39   13.00   0
   2   4  -8  908.60   13.87   0
  -3   7  29    7.23    6.21   0
  -1   3  23    4.36    4.62   0
  -1   6  23    2.23    5.61   0
  -1   9   5    6.64    7.10   0
   0   5  19   -5.11    6.13   0
   0   7  11   -5.41    7.23   0
   0   8   1   -4.16    7.34   0
   1   6   4  283.28    9.83   0
   1   7 -18  151.49    8.29   0
   1   7 -15    3.47    6.74   0
   1   7 -12  201.81    8.76   0
   2   4  -5    5.08    5.81   0
  -2   6  28  477.05   11.51   0
  -1   4  25    3.37    5.14   0
  -1   8  15   -4.53    7.63   0
   1   4  12 1176.07   14.63   0
   1   7 -21   -2.65    6.13   0
   1   7  -9   -0.28    7.25   0
  -2   5  29   -2.38    5.30   0
  -2   8  23   -4.36    7.65   0
   1   7  -6  192.90    9.24   0
   2   3  -1    5.11    4.53   0
  -2   7  27   10.47    7.29   0
  -1   9   8  173.74    8.75   0
   0   8   4  249.79    9.46   0
   1   3  13   15.44    5.65   0
   1   5  11    6.02    5.76   0
   1   6   7    9.20    7.11   0
   2   5 -18  417.16   10.69   0
   2   5 -15    2.72    6.19   0
  -3   8  28  193.63    9.57   0
  -3   9  24  197.29    9.64   0
  -1   7  22  177.84    9.19   0
   0   6  18  276.60    8.92   0
   0   7  14  154.43    9.28   0
   2   5 -21    1.73    5.80   0
   2   5  -9    2.76    5.33   0
   1   2  11   15.44    5.26   0
   2   3   2  840.90   13.02   0
   2   4   1    2.19    5.64   0
   2   5  -6  179.93    8.41   0
  -2   9  19   -1.37    6.64   0
   0   8   7   -0.44    6.88   0
   1   7   0  393.89   11.13   0
  -1   5  27    2.56    5.95   0
  -1   6  26  239.30    9.16   0
  -1   9  11   -7.90    7.04   0
   1   4  15    6.15    5.23   0
   1   5  14  434.29   10.76   0
   1   6  10  239.97    9.30   0
   2   2   0 4173.27   27.96   0
   0   3  21   -0.36    4.20   0
   1   7   3    3.80    7.09   0
  -2   8  26  224.08    9.50   0
   0   4  23    6.10    5.57   0
   0   7  17    9.72    7.25   0
   0   8  10  190.28    9.23   0
   2   3   5    7.69    5.69   0
   2   4   4  894.50   13.15   0
  -2   6  31    4.30    6.06   0
   1   3  16 2154.52   19.87   0
  -3   9  27    3.31    7.14   0
  -2   9  22   71.37    7.55   0
  -1   7  25   -5.05    6.40   0
  -1   8  21   -0.80    7.46   0
   1   6  13   -1.75    7.16   0
   1   7   6  120.57    8.63   0
   2   2   3   -2.18    4.74   0
   2   6 -16  401.31   11.63   0
   2   6 -13    1.65    6.71   0
   2   6 -10  220.36    9.50   0
  -2   7  30  199.89    9.33   0
  -1   4  28  752.99   13.19   0
   2   4   7   -2.55    5.92   0
   2   5   3    5.03    5.78   0
   2   6  -7    7.81    7.17   0
  -1   3  26  541.98   12.15   0
   0   2  19    0.32    4.45   0
   0   8  13    5.95    7.70   0
   1   4  18  770.96   12.33   0
   1   5  17    5.70    5.80   0
   1   8 -13    3.56    6.27   0
   1   8 -10   96.71    7.54   0
   0   7  20  173.28    8.99   0
   1   2  14 1649.15   17.93   0
   1   7   9    7.13    7.34   0
   1   8  -7   -1.91    7.15   0
   2   3   8 2215.58   19.51   0
   2   6  -4  242.72    8.73   0
  -1   6  29    6.57    6.28   0
   0   5  25    0.34    5.35   0
   2   5   6  467.29   10.45   0
  -2   8  29    0.66    7.40   0
  -1   5  30  189.68    8.33   0
   1   6  16  693.77   13.33   0
   2   2   6  825.92   13.14   0
   2   4  10  377.86    9.95   0
  -1   8  24  233.34    9.92   0
   0   8  16  203.26    9.18   0
   2   6   2  256.36    9.90   0
  -1   7  28  179.41    8.93   0
   0   4  26  751.27   12.96   0
   1   3  19   12.20    5.07   0
   1   5  20  532.19   11.42   0
   1   7  12  223.77    9.90   0
   1   8   2  129.01    8.71   0
   2   5   9   -0.11    6.57   0
   1   4  21   11.64    5.97   0
   2   3  11    3.35    4.96   0
  -2   7  33   -0.36    7.69   0
   2   6   5   -0.80    7.43   0
   1   6  19    8.19    6.41   0
   1   8   5    2.94    7.47   0
   2   2   9   -0.90    5.22   0
   2   4  13   -1.60    5.49   0
   3   3 -12  816.22   13.60   0
   3   3  -9   10.06    5.60   0
   0   5  28  675.04   12.67   0
   0   6  27   -5.28    6.95   0
   0   8  19    1.26    6.77   0
   1   2  17   11.24    4.36   0
   1   7  15    1.12    6.67   0
   2   5  12  453.93   10.31   0
   2   7 -14  127.26    7.94   0
   2   7 -11    6.48    6.88   0
   2   7  -8  249.41    9.44   0
   3   3 -15   -0.13    5.12   0
   3   3  -6  495.37   10.82   0
   3   4 -13    6.02    5.88   0
   3   4 -10  413.49   10.54   0
   3   4  -7    9.58    6.29   0
  -1   6  32  416.62   11.15   0
  -1   8  27   -3.07    7.16   0
   2   1   1   50.05    5.08   0
   2   6   8  482.37   10.93   0
   2   7  -5   -1.69    7.36   0
   3   3 -18  430.72   11.18   0
   3   4 -16  473.49   11.26   0
  -2   8  32  205.58    9.74   0
  -1   4  31    9.82    5.48   0
   1   5  23    5.13    6.26   0
   2   3  14  397.44    9.50   0
   2   7  -2   82.96    8.25   0
   3   3  -3    1.44    4.92   0
   3   4  -4  700.78   12.26   0
  -1   7  31    4.70    6.86   0
   0   2  22 1878.49   20.75   0
   3   4  -1    7.35    6.12   0
  -1   5  33    1.12    5.97   0
   0   7  26  248.19    9.52   0
   1   6  22  174.46    9.04   0
   1   7  18  242.74    9.85   0
   2   4  16  789.57   12.57   0
   2   5  15   13.51    7.06   0
   2   6  11   -8.28    7.61   0
   3   2 -11    7.61    4.98   0
   3   2  -8 2320.74   21.91   0
   3   5 -11   -0.28    6.54   0
  -1   3  29    3.36    4.57   0
   0   4  29   -0.59    4.79   0
   2   2  12  814.07   12.58   0
   2   7   4  219.16    9.53   0
   3   2 -14  393.55   10.37   0
   3   2  -5   13.23    5.61   0
   3   5 -14  159.28    8.32   0
   3   5  -8  512.76   11.34   0
   3   5  -5    2.76    7.00   0
   0   3  27   -4.43    5.03   0
   2   1   4 3052.03   25.21   0
   3   2 -17    5.36    5.12   0
   3   3   3    4.45    5.93   0
   3   5  -2  269.61    9.91   0
   0   6  30  153.10    8.81   0
   2   3  17    4.03    6.11   0
   3   2  -2  859.54   13.14   0
  -1   8  30   53.01    8.20   0
   0   5  31    0.31    6.02   0
   2   5  18  198.97    9.10   0
   2   6  14  142.26    8.33   0
   2   7   7    1.43    7.35   0
   3   4   5    8.37    5.81   0
   1   7  21   -6.29    7.05   0
   2   4  19   10.05    5.52   0
   3   3   6  476.44   10.21   0
  -1   6  35   -0.80    6.58   0
   0   7  29    9.10    7.46   0
   0   8  25   -0.21    7.78   0
  -1   7  34  171.64    9.17   0
   1   4  27    2.70    6.03   0
   2   1   7    4.47    4.24   0
   2   2  15    0.44    4.69   0
   2   6  17  -14.32    7.60   0
   2   7  10  178.07    8.84   0
   3   4   8  591.47   11.41   0
   3   3   9   11.37    5.90   0
   3   5   7   -5.58    7.32   0
   3   6 -12  157.90    8.29   0
   3   6  -9   -2.57    7.11   0
   3   6  -6  179.29    9.05   0
  -1   4  34  551.47   12.52   0
   2   3  20  658.41   12.05   0
   2   5  21    7.94    6.80   0
   3   6  -3    5.22    6.86   0
  -1   5  36  497.83   12.23   0
   0   4  32  516.18   11.57   0
   2   4  22  393.90   10.50   0
   2   7  13    1.54    6.97   0
   3   4  11    0.97    5.75   0
   3   6   0  350.79   11.10   0
  -1   8  33   -0.74    6.64   0
   0   2  25    0.51    4.68   0
   0   6  33   -4.15    6.03   0
   1   5  29    3.63    6.86   0
   3   2   7   12.00    5.44   0
   3   5  10  233.34    9.32   0
   3   6   3    1.24    7.04   0
   0   3  30  596.39   12.02   0
   0   5  34  300.18    9.98   0
   0   7  32  292.60   10.56   0
   2   6  20  249.13    9.47   0
   3   3  12  808.66   12.63   0
   2   1  10 2069.73   20.21   0
   2   2  18 1132.18   14.63   0
   2   7  16  174.84    9.28   0
   3   4  14  393.72   10.35   0
   1   4  30  200.69    8.62   0
   2   5  24  485.30   11.64   0
   3   1  -7   21.05    5.14   0
   3   5  13    1.15    7.30   0
  -1   3  32 1222.29   17.91   0
  -1   7  37    1.62    7.11   0
   1   3  28  738.23   12.78   0
   2   3  23    8.45    6.16   0
   3   1 -10 1150.93   16.86   0
   3   1  -4 1367.95   17.34   0
   3   2  10  738.16   12.09   0
   2   4  25   -3.19    5.78   0
   2   6  23   -3.45    7.36   0
   3   1 -13    8.81    5.00   0
   3   3  15    3.87    5.48   0
   3   6   9    2.19    6.92   0
   1   6  31    1.18    7.47   0
   2   7  19    1.87    7.21   0
   3   4  17   13.07    6.74   0
   0   6  36  169.92    9.13   0
   1   5  32  431.36   11.36   0
   3   5  16  469.94   10.86   0
   3   6  12  181.72    9.19   0
   0   4  35   -4.37    5.90   0
   2   1  13   31.62    4.94   0
   2   2  21    6.36    5.61   0
   3   1   2  883.58   13.45   0
   3   2  13   -2.70    5.05   0
   4   3 -11    0.89    6.60   0
   4   3  -8  594.76   12.15   0
   4   3  -5   12.08    6.21   0
   4   3  -2  275.14    9.37   0
   4   4  -9    1.03    6.20   0
   4   4  -6  229.17    9.34   0
   4   4  -3   -2.60    6.55   0
   0   7  35    0.36    7.33   0
   1   7  30   50.66    8.30   0
   2   5  27   -2.39    6.09   0
   3   3  18  453.00   10.67   0
   4   4 -12  283.68    9.59   0
   4   4   0  579.90   12.26   0
   0   5  37    4.50    6.45   0
   2   3  26  680.67   12.41   0
   2   6  26  228.17    9.56   0
   2   7  22   69.68    7.86   0
   3   1   5   10.31    5.29   0
   3   4  20  489.04   11.63   0
   3   6  15   -0.59    7.56   0
   4   3 -14  372.76   10.43   0
   4   3   1   15.13    5.48   0
   4   4   3    3.43    7.17   0
   1   2  26  516.43   10.71   0
   1   4  33   -0.24    6.03   0
   3   5  19   -7.53    6.33   0
   0   2  28 1177.46   16.83   0
   0   3  33    5.05    5.13   0
   1   3  31    9.72    5.88   0
   3   2  16 1935.82   18.82   0
   4   2  -7   -0.63    5.52   0
   4   2  -4  951.03   14.34   0
   4   5 -10  145.18    8.63   0
   4   5  -7    2.78    7.04   0
   4   5  -4  165.59    9.04   0
   4   5  -1    5.64    6.73   0
   1   6  34  187.68    9.06   0
   4   2 -10  391.87   10.25   0
   4   2  -1    1.48    5.69   0
   4   5   2  189.19    9.05   0
   1   5  35    3.05    7.08   0
   2   1  16 2114.40   20.02   0
   3   1   8 2800.72   22.53   0
   3   3  21   11.38    5.88   0
   3   6  18  221.87    9.58   0
   4   2   2  630.31   11.98   0
   4   4   9  -12.17    7.03   0
   2   2  24 1921.53   18.68   0
   3   4  23   11.67    7.13   0
   3   5  22  134.33    7.90   0
   4   2 -13    2.93    5.50   0
   4   5   5    1.66    6.68   0
   0   6  39    1.16    7.24   0
   0   7  38   38.38    7.77   0
   1   7  33   -7.17    7.50   0
   4   3  10  402.99    9.90   0
   3   1  11   29.68    5.92   0
   3   2  19    6.09    6.21   0
   4   4  12  298.46   10.15   0
   0   4  38  128.35    7.89   0
   3   6  21    1.52    6.84   0
   4   2   8  942.03   14.01   0
   0   5  40  227.86    9.51   0
   1   4  36  513.81   11.55   0
   3   3  24  678.51   12.06   0
   3   5  25    3.64    7.39   0
   4   3  13    4.44    5.96   0
   4   5  11   10.83    7.35   0
   4   6   1    1.18    6.58   0
   1   2  29    7.30    4.46   0
   1   6  37   -1.17    7.05   0
   2   1  19    1.21    5.21   0
   2   5  33   -0.63    7.52   0
   3   4  26  187.24    8.38   0
   4   4  15   -7.19    7.48   0
   1   3  34  541.88   11.75   0
   1   5  38  155.67    9.29   0
   2   6  32  225.53    9.40   0
   4   2  11    2.39    6.32   0
   4   5  14  107.46    8.42   0
   3   1  14  702.65   11.83   0
   3   2  22  331.96    9.60   0
   3   6  24  207.97    8.81   0
   4   3  16  476.70   10.70   0
   2   4  34  197.80    9.39   0
   4   1  -3   -3.80    5.18   0
   4   4  18  198.27    9.63   0
   0   2  31   -2.20    4.77   0
   2   3  32  726.47   12.53   0
   3   3  27   -1.85    6.48   0
   3   5  28  186.33    9.61   0
   4   1   0 1511.78   17.49   0
   4   2  14  308.40    9.59   0
   3   4  29   10.41    7.57   0
   4   1  -9   23.95    5.38   0
   4   3  19    8.63    6.68   0
   3   1  17    0.57    4.80   0
   3   6  27    9.47    7.08   0
   1   4  39    0.32    6.61   0
   1   6  40  235.09    9.82   0
   2   1  22  479.11   10.30   0
   2   5  36  184.54    9.54   0
   2   6  35   -2.19    6.97   0
   3   2  25    7.10    6.18   0
   4   1   6  911.57   13.44   0
   4   4  21    0.46    6.41   0
   4   1 -12 1163.72   17.01   0
   4   2  17   -6.27    5.64   0
   5   3  -4  295.67    9.97   0
   5   3  -1   -4.43    6.71   0
   1   2  32 1221.49   16.00   0
   1   3  37    2.43    6.00   0
   1   5  41    0.12    7.96   0
   2   2  30  217.99    7.95   0
   3   5  31    2.68    7.21   0
   4   1   9   -0.63    5.04   0
   4   3  22  194.95    9.25   0
   5   3  -7    3.65    6.43   0
   5   3   2  261.07   10.03   0
   5   4  -5    8.67    6.91   0
   5   4  -2  193.30    8.85   0
   5   4   1   -1.24    6.75   0
   2   4  37    1.81    7.22   0
   3   3  30  212.41    8.28   0
   5   3   5    5.78    7.31   0
   5   4   4  153.04    9.01   0
   2   3  35    3.85    6.60   0
   3   0  -3   -0.12    4.63   0
   3   1  20  941.78   13.55   0
   4   4  24  357.87   10.43   0
   4   5  23    1.18    7.56   0
   5   3 -10  210.48    9.21   0
   5   4   7   13.39    7.07   0
   3   0   3    2.90    4.86   0
   4   1  12  956.77   13.56   0
   5   2  -3    5.94    6.21   0
   5   2   0  700.24   13.06   0
   5   2   3   -2.33    6.54   0
   2   0  11   -2.06    5.00   0
   2   5  39    0.48    7.65   0
   3   2  28  436.14   10.03   0
   4   3  25    3.18    7.38   0
   5   2  -6  488.87   11.47   0
   5   4  10  145.28    9.28   0
   5   5  -3    0.62    6.10   0
   5   5   0  224.23    9.02   0
   5   5   3   -0.22    7.11   0
   0   3  39   -1.14    5.25   0
   3   0   6  548.38   11.25   0
   5   2  -9    2.46    6.05   0
   5   2   6  168.11    7.80   0
   5   5   6   90.75    7.82   0
   1   6  43   -3.60    7.70   0
   4   1  15   20.10    5.49   0
   4   2  23   -0.15    6.61   0
   4   4  27    3.52    6.73   0
   4   5  26  171.95    9.22   0
   5   3  14  158.55    8.97   0
   0   2  34  272.83    9.25   0
   1   4  42  229.49    9.54   0
   2   2  33    6.12    5.89   0
   3   1  23   13.71    5.32   0
   3   4  35  -10.11    7.36   0
   1   1  27   -0.92    4.09   0
   2   4  40  274.61   10.31   0
   3   0   9    1.58    4.46   0
   5   2  12  538.91   11.65   0
   5   4  16  356.74   10.84   0
   1   2  35    2.92    5.32   0
   1   5  44  171.66    8.79   0
   2   0  14  361.31   10.04   0
   2   3  38  121.15    7.80   0
   4   1  18  429.21   10.54   0
   4   3  28  420.44   10.65   0
   5   3  17    7.27    7.60   0
   1   3  40  492.59   11.70   0
   4   4  30  107.62    8.72   0
   4   5  29    7.56    7.19   0
   5   2  15   -2.94    7.21   0
   2   1  28 1384.28   16.92   0
   3   0  12 2638.52   22.39   0
   3   5  37    3.19    7.09   0
   4   2  26  431.33   10.41   0
   5   1  -2  352.48   10.13   0
   5   1   1   21.01    6.29   0
   5   4  19    7.92    7.68   0
   2   5  42  109.47    8.74   0
   3   1  26  719.61   12.56   0
   3   3  36  331.86   10.83   0
   5   1  -5    3.39    5.70   0
   5   1   4  799.19   12.88   0
   5   3  20  267.69    9.40   0
   3   4  38  160.27    9.03   0
   4   1  21   13.39    5.63   0
   4   3  31   10.58    7.78   0
   5   2  18  435.80   11.00   0
   2   0  17    3.30    4.98   0
   2   2  36  431.87   10.84   0
   3   0  15    0.55    5.45   0
   4   0  -2 1454.05   17.80   0
   4   0   1   -2.92    4.36   0
   5   1  -8  904.48   14.73   0
   5   1  10  506.62   11.22   0
   5   4  22  102.60    8.37   0
   4   0  -5    0.80    4.80   0
   4   0   7   -0.99    5.57   0
   4   2  29   -0.30    6.84   0
   4   4  33    1.37    7.24   0
   5   3  23    7.44    7.49   0
   2   4  43    0.49    6.65   0
   3   2  34  446.20   10.61   0
   5   1  13    4.78    6.73   0
   5   2  21  -10.55    6.96   0
   1   1  30  599.13   12.00   0
   2   3  41   -7.17    6.64   0
   3   5  40  157.59    8.54   0
   4   0  10  451.62   10.11   0
   4   1  24  989.68   13.94   0
   5   1 -11    1.44    6.04   0
   5   4  25    5.21    7.39   0
   1   2  38  362.31   10.33   0
   2   1  31    4.64    5.57   0
   3   0  18 1409.57   16.71   0
   4   0  -8 1587.47   19.63   0
   5   1  16  674.30   12.77   0
   1   3  43   -3.19    6.07   0
   2   5  45    2.32    7.14   0
   3   3  39   -3.09    7.38   0
   4   0  13   -2.65    5.79   0
   4   3  34  183.24    8.78   0
   5   3  26  194.84    9.30   0
   6   3   0  336.04   10.62   0
   6   3   3    5.36    7.49   0
   6   3   6  196.16    9.11   0
   2   0  20 3493.94   26.63   0
   3   4  41    6.72    6.99   0
   4   2  32  396.25   10.88   0
   5   2  24  365.61   10.22   0
   6   3   9    5.83    6.91   0
   4   1  27   -0.33    6.61   0
   5   1  19    2.50    6.60   0
   5   4  28   98.51    8.32   0
   6   2  -2  237.32    9.64   0
   6   2   1    3.12    6.92   0
   6   2   4  249.43    9.82   0
   6   2   7    1.64    7.32   0
   2   2  39    2.48    5.83   0
   3   2  37    5.66    6.90   0
   4   0  16 1604.27   17.16   0
   6   2  10  218.10    9.52   0
   3   0  21    4.23    4.88   0
   4   0 -11    1.82    4.86   0
   5   2  27    4.02    7.53   0
   5   3  29   -0.59    6.77   0
   6   2  -5   -8.88    6.50   0
   2   4  46  111.07    8.15   0
   5   1  22  246.06    9.29   0
   2   3  44  252.03    9.96   0
   3   3  42  183.84    9.51   0
   4   0  19    1.95    5.17   0
   5   0   2  372.98   10.17   0
   6   3  18  115.48    8.50   0
   1   1  33    5.53    5.10   0
   3   4  44  154.28    9.21   0
   4   1  30  348.49   10.35   0
   4   4  39   -3.64    7.63   0
   5   0  -1   -2.02    5.70   0
   3   0  24 1132.44   15.21   0
   5   0  -4 1202.01   16.43   0
   5   0  11    0.81    5.33   0
   5   2  30   95.97    8.44   0
   5   3  32  230.80   10.17   0
   6   1  -1   -5.49    6.51   0
   6   1   2  384.34   10.76   0
   6   1   5   13.59    6.01   0
   6   1   8  699.29   13.12   0
   1   2  41   -2.96    5.67   0
   5   1  25   13.65    6.26   0
   6   2  19   -2.07    6.71   0
   6   3  21   -0.51    6.74   0
   3   2  40  473.16   11.14   0
   4   0  22  746.02   12.38   0
   5   0  14  683.58   11.96   0
   4  -2  27   -4.81    8.15   0
   5  -6  20  516.07   13.04   0
   6  -6  24  642.82   15.44   0
   6  -3  30  225.16   11.66   0
   6   0  24  534.14   14.95   0
   7  -8  15   -1.09    8.68   0
   7  -1  26  306.85   13.24   0
   3  -4  19   18.27    6.22   0
   5  -3  29  -13.65    7.68   0
   6  -7  19   10.22    8.62   0
   8  -3  29   -2.84    9.62   0
   3  -5  14  392.92   11.95   0
   4  -5  21    1.35    7.41   0
   4   1  21    7.08    7.79   0
   6  -1  28  487.99   14.81   0
   8  -7  24  242.94   12.09   0
   8  -4  30  103.41   10.78   0
   4   0  25    7.12    7.77   0
   7  -7  23    8.09    9.26   0
   7  -5  30  199.70   12.47   0
   7  -3  31    6.44   10.24   0
   8  -8  19   -6.09    9.29   0
   9  -6  27   11.43    9.19   0
   9  -3  27   -3.71    9.12   0
   2  -2  19    3.15    5.82   0
   5  -7  15    5.04    8.27   0
   5   0  26  268.19   11.90   0
   6  -5  29   -1.94    8.88   0
   6  -4  31  -12.88    9.55   0
   7  -2  30   87.76   11.49   0
   8  -2  28  201.33   12.13   0
   9  -5  29    9.81    9.31   0
   2  -4  12  783.35   16.19   0
   3  -1  25   11.06    7.56   0
   3   1  20  962.52   17.88   0
   4  -6  16  794.05   15.90   0
   4  -3  28  726.43   15.28   0
   7  -4  32  326.17   13.65   0
   4  -4  26  743.95   14.46   0
   8  -6  29    2.42   10.10   0
   8  -5  31   14.55    9.81   0
   3  -3  24 1683.89   20.37   0
   3   0  24 1122.06   18.27   0
   5  -6  23   -0.93    7.73   0
   5  -4  30  191.18   11.04   0
   5  -2  31   -2.28    7.64   0
   7  -8  18  221.56   11.64   0
   2  -1  21   18.30    7.11   0
   3  -2  26  572.41   13.67   0
   5  -1  30  329.90   11.78   0
   6  -7  22  175.22   10.78   0
   6  -6  27    8.93    7.56   0
   6  -3  33   15.17    9.28   0
   7  -1  29  -12.89   10.15   0
   5  -3  32  740.98   15.68   0
   6   0  27    2.65    8.74   0
   8  -7  27   -1.33    9.18   0
   8  -4  33    7.00   10.17   0
   8  -3  32  226.14   12.42   0
   4  -5  24  672.24   14.66   0
   4  -2  30  221.61   10.01   0
   6  -1  31    5.33    9.48   0
   7  -7  26  250.16   11.74   0
   8  -8  22   85.82   10.03   0
   3  -5  17    3.72    6.62   0
   7  -5  33    2.29   10.17   0
   4  -6  19    5.62    8.09   0
   5  -7  18  207.56   10.32   0
   6  -4  34  183.59   11.68   0
   7  -2  33   -8.22   10.25   0
   8  -2  31    3.55    9.97   0
   4   0  28  680.62   15.32   0
   4   1  24 1000.11   18.45   0
   5   0  29    3.84    8.26   0
   7  -8  21    3.61    8.82   0
   7  -4  35   -1.76   10.09   0
   8  -6  32  215.74   11.50   0
   2  -2  22 2022.16   22.47   0
   4  -4  29   -0.72    7.09   0
   4  -3  31   12.92    8.26   0
   2  -4  15   -1.72    6.14   0
   2   1  19    5.24    5.77   0
   5  -6  26  249.32   10.58   0
   5  -4  33    0.39    9.27   0
   5  -2  34  461.84   14.06   0
   6  -7  25    1.56    8.82   0
   6  -6  30  168.17   10.91   0
   3  -3  27    3.18    6.35   0
   3   1  23   16.97    6.75   0
   5  -1  33    7.25    9.20   0
   6  -3  36  324.43   13.06   0
   6  -2  35    2.93    8.29   0
   8  -8  25    1.51    8.25   0
   8  -7  30   60.09   10.31   0
   8  -3  35   -4.61    9.66   0
   3  -2  29    7.43    7.78   0
   3   0  27    0.56    7.10   0
   5  -3  35    2.72    8.77   0
   7  -7  29   -0.56    8.73   0
   7  -1  32  289.01   13.46   0
   2  -1  24 1978.46   22.65   0
   4  -5  27   10.93    7.92   0
   4  -2  33   11.68    8.08   0
   6   0  30  131.08   10.80   0
   7  -5  36  174.76   11.67   0
   3  -5  20  620.33   14.28   0
   5  -7  21    6.70    7.67   0
   6  -5  35   -7.94    9.59   0
   6  -1  34  265.21   12.79   0
   8  -2  34  142.97   11.40   0
   4  -6  22  372.52   12.13   0
   6  -4  37   -3.01    8.92   0
   7  -8  24  223.59   11.33   0
   7  -4  38  170.20   12.30   0
   7  -2  36  303.88   13.64   0
   8  -6  35    5.71    8.59   0
   8  -5  37    5.86    9.79   0
   4  -3  34  538.59   13.78   0
   4   0  31    6.91    8.01   0
   5  -6  29   -7.02    8.46   0
   5   0  32  515.80   14.44   0
   6  -7  28  164.52   10.64   0
   6  -6  33   -5.31    9.21   0
   8  -7  33   -0.21    9.58   0
   2  -2  25   -7.79    6.07   0
   4   1  27    2.89    7.22   0
   5  -4  36  500.21   13.30   0
   5  -2  37   -1.99    8.79   0
   2  -4  18 1084.39   17.95   0
   2  -3  23    2.20    6.79   0
   3  -3  30  582.62   13.03   0
   3  -1  31    0.18    6.73   0
   6  -2  38  119.44    9.97   0
   7  -7  32  287.43   12.35   0
   8  -4  39   -0.20    9.55   0
   8  -3  38   53.65    9.98   0
   5  -7  24  482.12   14.05   0
   5  -3  38  110.22   10.20   0
   5  -1  36  371.58   13.48   0
   7  -5  39   13.23    9.67   0
   7  -1  35   10.17    9.56   0
   2   1  22  481.95   13.08   0
   3  -5  23    7.83    7.24   0
   3  -2  32 1266.70   18.05   0
   3   1  26  687.63   15.29   0
   4  -5  30  196.77    9.58   0
   4  -2  36  439.14   13.49   0
   6  -5  38  149.10   11.50   0
   7  -8  27    1.60    8.05   0
   7  -6  37   -0.39    9.41   0
   2  -1  27  -11.07    7.23   0
   3   0  30  332.86   10.88   0
   4  -6  25    0.77    7.63   0
   6  -1  37   -2.24    9.53   0
   6   0  33    4.24    8.82   0
   7  -2  39    5.94   10.60   0
   8  -5  40  180.01   11.26   0
   8  -2  37    0.93    8.92   0
   7  -4  41   -6.34   10.34   0
   4  -4  35   -4.78    8.60   0
   5  -6  32  414.55   13.45   0
   6  -7  31    5.07    8.47   0
   6  -6  36  171.17   11.35   0
   4  -3  37    0.53    7.57   0
   5  -4  39    8.75    9.16   0
   7  -7  35    0.34    9.48   0
   1  -2  18 1196.90   18.83   0
   1   0  19   -0.60    5.26   0
   2  -4  21    5.10    6.39   0
   2  -2  28 1171.59   17.70   0
   4   0  34  297.59   10.90   0
   5  -5  37  -11.26    9.01   0
   5  -2  40  490.98   14.50   0
   5   0  35   -0.60    8.77   0
   6  -3  42  175.94   12.10   0
   6  -2  41   -4.56   10.50   0
   1  -1  20 1608.23   20.99   0
   2  -3  26  540.77   13.10   0
   3  -3  33   -0.50    6.86   0
   3  -1  34  665.80   14.84   0
   4   1  30  335.25   12.27   0
   5  -7  27    8.07    8.37   0
   5  -3  41    2.99    8.18   0
   5  -1  39    0.27    9.33   0
   7  -6  40  233.43   12.08   0
   7  -5  42   89.88   10.22   0
   7  -1  38   45.92    9.73   0
   2  -5  13    0.34    5.96   0
   3  -5  26  652.21   13.85   0
   3  -2  35   -8.76    7.04   0
   4  -6  28  460.97   12.87   0
   4  -2  39   10.82    8.54   0
   6  -5  41   -8.12    9.15   0
   3   0  33   -2.07    7.48   0
   3   1  29    5.61    6.99   0
   6  -4  43  -12.21    9.30   0
   6  -1  40  220.54   12.05   0
   7  -4  44  157.97   11.61   0
   7  -2  42  161.63   11.82   0
   2  -1  30  642.51   13.57   0
   2   1  25   14.14    6.29   0
   5  -6  35  -13.52    9.09   0
   6  -7  34  196.61   11.29   0
   6  -6  39   -4.55    9.15   0
   4  -4  38  129.57    9.16   0
   4  -3  40  522.28   14.24   0
   5  -4  42  233.76   12.37   0
   7  -7  38   47.64    9.29   0
   5  -5  40  229.40   11.55   0
   1  -3  16 2000.27   24.30   0
   1  -2  21   21.65    5.83   0
   1   0  22  490.38   12.92   0
   2  -4  24 1912.50   22.19   0
   2  -2  31   -1.52    7.33   0
   3  -3  36  582.25   14.02   0
   4   0  37   -5.65    8.19   0
   5  -7  30  184.55   10.90   0
   5   0  38  230.02   11.61   0
   6  -3  45    5.03    9.60   0
   6  -2  44  269.96   12.98   0
   7  -8  33   -7.31    7.69   0
   1  -1  23    2.44    5.58   0
   2  -3  29   12.96    6.26   0
   3  -5  29    2.24    7.51   0
   3  -1  37    7.72    7.89   0
   4  -5  36  526.51   13.98   0
   4   1  33   13.37    8.67   0
   5  -3  44  243.79   12.40   0
   7  -6  43    9.07    9.16   0
   7  -5  45    2.25    8.85   0
   3  -6  21    8.74    6.67   0
   3  -2  38  363.99   12.57   0
   4  -6  31   -2.80    8.23   0
   5  -1  42  196.42   11.91   0
   6  -5  44  170.61   11.84   0
   7  -1  41   -6.02    8.69   0
   4  -2  42  449.90   12.83   0
   6  -7  37    4.53    8.88   0
   6  -4  46  119.73   11.21   0
   7  -4  47    9.88    9.94   0
   2  -1  33   13.55    7.21   0
   3   0  36  925.81   16.68   0
   3   1  32  968.77   17.43   0
   5  -6  38  151.94    9.82   0
   6  -6  42  152.57   10.65   0
   6  -1  43   -0.29    9.29   0
   7  -2  45    5.93    9.41   0
   2   1  28 1457.39   20.58   0
   2   2  21   -1.00    5.72   0
   4  -4  41   -2.84    7.83   0
   1  -3  19   -2.00    6.19   0
   2  -4  27    1.29    6.50   0
   4  -3  43    3.32    8.10   0
   5  -7  33   -6.18    8.02   0
   5  -5  43    4.03    9.17   0
   5  -4  45   -0.55    8.34   0
   1  -2  24 1861.06   21.63   0
   1   1  21   24.84    6.09   0
   2  -5  19   10.52    6.64   0
   2  -3  32 1266.46   18.28   0
   2  -2  34  301.21   10.93   0
   3  -3  39  -11.51    8.18   0
   6  -3  48  167.98   11.85   0
   1  -1  26 1246.14   17.87   0
   1   0  25    6.33    5.44   0
   3  -6  24  618.05   14.50   0
   3  -5  32  731.13   15.36   0
   4  -6  34  186.10   10.76   0
   4  -5  39    4.20    7.38   0
   4   0  40  502.26   14.25   0
   5  -3  47   -1.25   10.05   0
   5   0  41    3.52    8.64   0
   6  -2  47    9.24   10.01   0
   3  -1  40  501.28   12.86   0
   5  -1  45   -7.85    9.90   0
   6  -5  47   -9.71    9.71   0
   3  -2  41    5.21    7.67   0
   4  -2  45    0.28    9.31   0
   4   1  36  346.95   12.49   0
   5  -6  41    3.24    9.19   0
   6  -7  40  223.15   10.98   0
   6  -4  49   -9.12    9.53   0
   4  -1  44  311.53   11.67   0
   6  -6  45   11.40    9.24   0
   1  -3  22  476.83   12.58   0
   2  -5  22  307.79   11.60   0
   2  -4  30  224.55   10.20   0
   3   0  39    2.54    6.72   0
   3   1  35    8.20    7.39   0
   4  -4  44  428.22   12.74   0
   5  -7  36  188.95   10.91   0
   6  -1  46   72.71   10.80   0
   1  -2  27   -3.66    6.49   0
   2   1  31    4.66    5.72   0
   2   2  24 1870.49   25.03   0
   4  -3  46   97.72    9.48   0
   5  -5  46   91.84   10.25   0
   5  -4  48  160.47   11.07   0
   1   1  24 1821.31   22.65   0
   2  -3  35    3.00    6.62   0
   2  -2  37    3.33    6.74   0
   3  -6  27   -0.05    7.24   0
   3  -5  35    4.28    7.73   0
   3  -3  42  267.90   11.77   0
   4  -6  37    5.09    8.60   0
   1  -1  29    1.03    6.00   0
   1   0  28 1453.15   19.14   0
   3  -4  40  501.28   13.26   0
   4   0  43   -4.01    8.65   0
   6  -3  51    2.91    9.82   0
   6  -2  50  121.49   11.04   0
   3  -1  43    8.17    7.53   0
   5  -3  50  209.76   11.68   0
   6  -7  43   10.98    8.73   0
   6  -5  50   82.77   10.30   0
   3  -2  44  379.24   11.98   0
   4  -2  48  358.97   13.28   0
   4   1  39   -7.27    8.90   0
   5  -6  44  173.47   11.02   0
   5  -1  48  261.00   12.45   0
   6  -4  52  127.45   11.00   0
   1  -3  25    9.07    5.61   0
   2  -5  25    4.94    6.57   0
   2  -4  33    5.47    7.46   0
   2  -1  39   -0.30    7.56   0
   4  -4  47  -11.18    9.78   0
   4  -1  47    1.92    9.36   0
   6  -6  48  173.72   11.46   0
   1  -2  30  657.11   14.04   0
   3  -6  30  197.18   11.05   0
   3   0  42  333.39   12.59   0
   5  -7  39   -5.82    8.76   0
   6  -1  49    2.86   10.53   0
   2  -3  38  346.95   11.62   0
   2  -2  40  916.73   16.61   0
   2   1  34  645.54   14.41   0
   3  -5  38  109.15    9.80   0
   3   1  38  187.18   10.30   0
   4  -3  49   -2.71    8.23   0
   5  -5  49    2.06    9.56   0
   5  -4  51   -0.10    9.15   0
   1  -4  17   -1.23    5.88   0
   1  -1  32 1908.45   21.24   0
   1   0  31    0.85    6.04   0
   1   1  27    2.09    6.11   0
   2   2  27   -1.08    5.72   0
   3  -4  43   10.91    8.86   0
   3  -3  45   -5.34    7.62   0
   4  -6  40  273.45   12.12   0
   2  -5  28  446.39   12.57   0
   3  -2  47    6.81    8.73   0
   3  -1  46  144.58    9.90   0
   4   0  46  159.31   11.26   0
   5  -6  47    5.79    9.46   0
   5  -3  53   -5.53   10.32   0
   5   0  47    5.59   10.24   0
   6  -2  53    8.24    9.16   0
   2  -4  36  413.63   12.27   0
   4  -2  51    5.96    9.48   0
   5  -1  51   -5.21   10.16   0
   1  -2  33    3.82    6.45   0
   2  -1  42  360.22   11.49   0
   3  -6  33    2.04    7.50   0
   4  -4  50  174.71   11.43   0
   4  -1  50  188.70   11.77   0
   4   1  42  202.82   11.19   0
   5  -7  42   96.03    9.48   0
   1  -1  35   -1.14    7.39   0
   2  -3  41    3.05    7.95   0
   2   1  37   -0.70    7.39   0
   3  -5  41   -3.19    8.94   0
   3   0  45   -4.92    8.78   0
   4  -3  52  251.35   12.48   0
   0  -1  19    1.30    6.17   0
   1   0  34 1052.45   16.44   0
   1   1  30  616.13   13.31   0
   2  -2  43   -0.03    7.18   0
   2   2  30  208.29   10.27   0
   3   1  41    3.43    7.73   0
   5  -5  52  191.71   10.69   0
   2  -5  31   12.10    7.19   0
   3  -4  46   92.98    8.88   0
   1  -4  23   11.20    6.66   0
   5  -2  55   10.83    9.61   0
   0   0  21   -1.18    5.40   0
   1  -2  36  984.90   16.34   0
   2  -4  39   -6.12    6.81   0
   3  -6  36  344.86   12.31   0
   3  -2  50  203.72   12.14   0
   4   0  49    3.05    8.62   0
   5  -6  50   94.69    9.60   0
   5  -3  56  110.34   10.72   0
   0  -1  22  491.81   12.28   0
   1   2  23    4.28    5.22   0
   2  -1  45   -1.40    8.68   0
   4  -2  54   37.44   10.06   0
   5  -7  45   -2.98    7.96   0
   5   0  50   99.97    9.91   0
   1  -1  38  271.95   10.93   0
   1   1  33   13.57    6.78   0
   2  -3  44  361.69   12.13   0
   3  -5  44  257.20   11.62   0
   4  -4  53   -1.33    8.49   0
   4  -1  53   11.09    9.31   0
   5  -1  54   66.57   10.26   0
   1  -4  26  660.09   13.90   0
   1   0  37   -2.93    6.29   0
   2  -5  34  457.96   12.92   0
   2  -2  46  314.91   11.25   0
   2   1  40  497.40   13.54   0
   3  -3  51    4.84    9.75   0
   3   0  48  247.49   11.74   0
   4  -6  46  137.36    9.96   0
   4  -3  55    9.76    9.39   0
   5  -5  55    1.43    8.92   0
   2   2  33   -2.00    6.37   0
   3  -4  49   -0.73    9.46   0
   3   1  44  319.04   12.18   0
   5  -4  57  -13.71    8.62   0
   0  -1  25    0.93    5.61   0
   1   2  26  540.06   14.11   0
   2  -4  42  426.16   12.76   0
   1  -2  39    0.61    6.88   0
   3  -6  39    2.68    8.24   0
   3  -2  53    0.62    9.92   0
   5  -2  58   95.62   11.46   0
   1  -4  29   -0.11    5.75   0
   1  -1  41    5.55    8.15   0
   2  -1  48  384.12   12.66   0
   4   0  52  172.25   10.81   0
   0  -1  28 1427.16   19.02   0
   0   0  27    1.50    5.52   0
   1   0  40  834.32   15.58   0
   1   1  36  952.44   16.61   0
   2  -5  37   -2.22    7.90   0
   2  -3  47    1.36    8.73   0
   3  -5  47    4.40    8.96   0
   4  -4  56   95.32   10.47   0
   4  -2  57   -4.83    9.15   0
   2  -2  49    4.64    7.89   0
   2   1  43    5.93    7.64   0
   3   0  51  -12.97    9.26   0
   4  -6  49   -5.25    8.40   0
   4  -1  56  170.10   11.68   0
   5  -1  57    0.88    8.90   0
   1   2  29    4.18    6.47   0
   2   2  36  406.59   12.44   0
   3  -4  52  216.69   11.59   0
   3  -3  54  100.50   10.02   0
   3   1  47    3.82    8.29   0
   4  -3  58  134.35   10.89   0
   1  -2  42  361.55   11.32   0
   2  -4  45   -6.15    7.28   0
   3  -6  42  173.55   10.24   0
   0  -1  31    2.51    7.04   0
   0   0  30  175.78    8.53   0
   1  -1  44  501.84   12.52   0
   1   0  43   -1.24    8.02   0
   1   1  39   -1.47    7.39   0
   2  -5  40  465.20   13.38   0
   2  -1  51   10.36    9.19   0
   3  -2  56  217.23   12.51   0
   0  -2  29   -6.27    5.93   0
   2  -3  50  195.38    9.99   0
   3  -5  50  189.98   11.34   0
   4   0  55   -4.72    9.45   0
   0   0  33    0.77    7.17   0
   1  -4  35   11.05    7.57   0
   1   2  32 1240.41   18.97   0
   2  -2  52  200.58   10.45   0
   2   0  50  237.83   11.53   0
   2   1  46  154.71    9.79   0
   2   2  39    3.73    7.91   0
   4  -6  52  124.60    9.94   0
   4  -4  59   -9.15    9.11   0
   0  -1  34 1024.76   15.96   0
   1  -2  45    9.29    7.24   0
   3  -6  45    5.42    8.71   0
   3  -4  55   -9.47    9.15   0
   3  -3  57   -7.72    9.26   0
   3   0  54  105.40   10.24   0
   4  -1  59  -12.76    9.87   0
   0  -3  18 1322.77   20.50   0
   0  -2  32  665.88   14.07   0
   3   1  50  213.59   11.11   0
   4  -3  61    5.50    9.87   0
   0  -3  21    0.12    6.18   0
   1  -1  47    5.26    8.72   0
   1   1  42  371.95   11.95   0
   2  -5  43    4.71    8.38   0
   0  -3  24 1141.29   18.03   0
   1  -4  38  168.06   10.06   0
   1   0  46  138.32    9.06   0
   1   2  35   -1.16    6.63   0
   2  -3  53   -6.38    9.24   0
   2  -1  54  124.50   10.80   0
   3  -2  59   -9.14    9.27   0
   0  -1  37    3.80    6.62   0
   3  -5  53   -3.85    9.56   0
   0  -2  35   -4.23    6.37   0
   1  -2  48  372.66   11.78   0
   2  -2  55   -2.33    8.57   0
   2   0  53  -10.86    9.09   0
   2   1  49   -9.39    8.25   0
   2   2  42  444.17   13.08   0
   4   0  58   90.30   11.03   0
   0  -3  27   -6.43    5.55   0
   1  -5  27    5.15    6.60   0
   1  -3  46  162.59   10.05   0
   3  -6  48  151.84   10.32   0
   3  -4  58  117.94   10.46   0
   3  -3  60  137.38   10.89   0
   0   0  39   -4.15    7.65   0
   1  -4  41   -0.52    7.75   0
   1  -1  50  333.39   12.27   0
   1   1  45    3.19    8.16   0
   2  -5  46   69.03    9.78   0
   3   0  57   -0.08    8.78   0
   0  -3  30  345.01   11.31   0
   0  -1  40  801.82   14.72   0
   1   0  49    3.52    8.46   0
   1   2  38  349.07   11.63   0
   3   1  53    6.05    8.84   0
   0  -2  38  273.59   10.09   0
   0   2  22 1950.38   24.58   0
   1  -5  30  316.01   11.38   0
   2  -3  56  217.87   11.74   0
   2  -1  57   -0.47    9.44   0
   0   2  25    5.17    5.64   0
   1  -2  51    9.93    9.28   0
   2  -2  58  124.31   11.32   0
   3  -5  56  111.27    9.78   0
   3  -2  62   43.62    9.50   0
   3  -1  61   -2.21    9.88   0
   0  -3  33   -4.34    6.15   0
   0   0  42  864.63   15.84   0
   1  -5  33    9.00    8.07   0
   1  -4  44  313.07   12.05   0
   1  -3  49    5.19    8.95   0
   2   0  56  125.53   10.67   0
   2   1  52  314.06   12.38   0
   2   2  45   -7.51    7.51   0
   3  -6  51   -1.84    8.84   0
   0  -2  41   -3.72    7.64   0
   0  -1  43   -0.13    7.04   0
   0   2  28 1139.26   18.23   0
   1   1  48  354.39   12.65   0
   1   2  41    3.54    7.34   0
   2  -5  49    3.18    8.99   0
   3  -4  61   -1.09    9.79   0
   1  -1  53   -4.49    8.03   0
   3  -3  63   12.57    9.88   0
   3   0  60  186.20   11.13   0
   0  -3  36  877.06   15.51   0
   3   1  56  163.78   11.05   0
   0   2  31    0.20    5.26   0
   1  -2  54  128.36   10.77   0
   2  -3  59   -4.26    8.92   0
   2  -1  60  182.53   11.63   0
   0  -2  44  776.66   15.69   0
   0  -1  46  134.62    9.85   0
   0   0  45   -2.19    6.99   0
   1  -4  47    1.21    8.97   0
   1  -3  52  318.85   12.73   0
   2  -2  61    7.18    9.29   0
   2   2  48  327.84   12.91   0
   3  -1  64   88.88   10.65   0
   0  -3  39    2.88    6.69   0
   0   2  34  288.14   10.65   0
   1   2  44  361.62   12.13   0
   2  -5  52  166.02   11.11   0
   2   0  59    9.56    9.17   0
   2   1  55    2.37    8.91   0
   1  -5  39    7.62    7.73   0
   1  -1  56  254.21   11.18   0
   1   1  51    5.25    7.41   0
  -1   0  20 1602.98   21.07   0
  -1   0  23    2.18    5.45   0
  -1   0  26 1241.90   17.68   0
  -1  -1  24 1836.41   21.44   0
  -1  -1  27    5.90    6.74   0
  -1   0  29   -0.81    5.79   0
   0  -4  22  694.64   15.82   0
   0  -4  25    2.08    6.18   0
   0  -3  42  352.41   12.05   0
   0  -2  47    1.50    8.35   0
   0  -1  49    0.07    8.42   0
   0   0  48  528.08   13.24   0
   0   2  37   -2.84    6.96   0
   1  -4  50  203.18   11.21   0
   1  -2  57   -4.54    9.36   0
   3   0  63    0.01    8.52   0
  -1  -1  21   27.06    5.77   0
  -1  -1  30  646.75   13.88   0
  -1   0  32 1918.29   21.56   0
   0  -4  28  653.74   14.74   0
   1  -5  42  192.60   10.42   0
   1  -3  55   -1.02    9.50   0
   2  -3  62   49.35    9.33   0
   2  -1  63   -8.03    9.45   0
  -1  -1  18 1201.08   18.94   0
   0  -4  19   -1.13    6.04   0
   0  -4  31   -3.52    6.90   0
   1   2  47    8.62    7.84   0
   2  -5  55   -8.78    8.57   0
   2  -2  64  139.73   10.80   0
  -1  -1  33    6.76    6.28   0
  -1   0  35    1.03    7.36   0
  -1   1  25    2.76    6.38   0
   0   2  40  902.36   16.34   0
   1  -1  59    8.72    9.42   0
   1   1  54  137.10   10.73   0
   2   0  62   77.64    9.98   0
   2   1  58  118.63   10.12   0
  -1   1  22  485.05   12.24   0
  -1   1  28 1431.48   18.74   0
   0  -4  34  274.82   11.06   0
   0  -3  45   -0.13    7.24   0
   0  -2  50  213.74   11.10   0
  -1  -1  36  993.53   15.87   0
  -1   1  31   -2.20    5.94   0
   0  -1  52  380.50   12.16   0
   1  -5  45   -5.19    8.29   0
   1  -4  53   -4.47    9.29   0
  -1   0  38  287.61   10.16   0
  -1   1  19   -1.37    5.12   0
  -1   1  34 1047.77   16.60   0
   0  -4  37   -0.62    7.56   0
   1  -2  60  170.00   10.54   0
  -1  -2  25    9.21    5.63   0
  -1  -2  28 1404.32   18.89   0
  -1  -1  39    0.21    7.53   0
   0  -3  48  233.96   11.72   0
   0   2  43   -0.17    7.64   0
   1   2  50  200.79   10.78   0
   2  -5  58  108.00   10.27   0
  -1  -2  22  475.03   12.09   0
  -1   0  41    5.45    7.59   0
  -1   1  37   -8.18    6.97   0
   0  -2  53   -2.98    9.51   0
   1   1  57    2.84    8.82   0
   0  -4  40  497.14   13.58   0
   0  -1  55   -2.71    9.40   0
   0   0  54   55.56    8.37   0
   1  -5  48  227.51   11.00   0
   1  -1  62   62.97    9.52   0
   2   0  65    9.51    9.71   0
   2   1  61   -1.99    8.41   0
  -1  -2  19    1.90    5.05   0
  -1  -1  42  361.32   11.15   0
   1  -4  56  171.48   11.43   0
  -1   0  44  489.33   13.05   0
  -1   1  40  820.89   14.85   0
   0  -3  51   -4.65    8.79   0
   0   2  46  294.32   10.68   0
   1  -3  61   -7.48    8.73   0
   1  -2  63    2.92    9.47   0
   0  -4  43    8.05    8.25   0
   0   1  53    4.45    7.50   0
   1   2  53    0.52    8.48   0
  -1  -1  45    0.77    7.26   0
  -1   1  43   -1.36    7.67   0
   0  -2  56  123.97    9.87   0
   0   0  57    8.98    9.18   0
   1  -5  51    6.99    8.55   0
   1   1  60  189.11   11.91   0
  -1  -2  16 1976.73   24.36   0
  -1   0  47    7.18    8.27   0
  -1   2  27    0.98    5.37   0
  -1   2  30  597.15   13.05   0
  -1   2  33    2.78    6.83   0
   0  -1  58  187.15   10.45   0
   0   3  27   -1.45    5.95   0
   0   3  30  573.24   14.06   0
   1  -1  65    2.14    9.44   0
  -1   2  24 1779.66   21.81   0
   0  -4  46  152.58   10.57   0
   0  -3  54  113.73   10.62   0
   0   2  49    3.06    7.17   0
   0   3  33   -0.65    6.68   0
   1  -4  59    7.81    8.29   0
  -1  -1  48  371.78   12.73   0
  -1   1  46  135.87    9.70   0
  -1   2  36  947.27   15.78   0
   0   1  56  235.83   11.66   0
   0   3  36  571.64   14.51   0
   1  -3  64   77.08   10.49   0
  -1   2  21   22.44    6.50   0
   0  -2  59   -0.93    9.13   0
   1   2  56  214.77   11.60   0
  -1  -3  26  684.99   14.88   0
  -1  -3  29    6.57    6.87   0
  -1  -3  32  966.84   16.92   0
  -1   0  50  321.26   11.26   0
  -1   2  39   -0.15    6.36   0
   0  -4  49   10.31    8.22   0
   0  -1  61   -6.14   10.15   0
   0   0  60  197.66   11.90   0
   1  -5  54   67.02    9.23   0
  -1  -3  35    1.70    7.55   0
  -1  -1  51   10.49    8.99   0
  -1   1  49   10.85    8.68   0
   0   3  39   -0.10    6.83   0
   1   1  63   -6.54    8.73   0
  -1  -3  23   16.79    6.59   0
  -1  -3  38  183.16    9.98   0
  -1   2  42  348.15   10.97   0
   0  -3  57   -6.01    8.29   0
  -1   0  53    2.15    8.76   0
   0   1  59   -1.15    9.42   0
   0   3  42  279.77   11.15   0
  -1  -3  41  -15.28    8.35   0
  -1   2  45   -2.08    8.15   0
   0  -2  62   65.67    9.97   0
   1  -5  57    3.85    7.80   0
   1   2  59   -1.74    8.16   0
  -1  -1  54  149.33   10.18   0
  -1   1  52  350.03   11.88   0
   0  -1  64  104.31   10.49   0
   0   0  63   -0.38    9.49   0
   0   2  55    1.52    8.70   0
  -1  -3  44  327.08   12.19   0
   0  -3  60  181.12   10.92   0
   0   3  45    0.70    7.37   0
  -2   0  31    4.58    7.13   0
  -2   0  34  281.79   11.03   0
  -1   0  56  242.03   12.44   0
  -1   2  48  358.94   12.02   0
  -2   0  28 1145.12   16.76   0
  -2   0  37    6.00    7.80   0
  -1  -3  47    2.16    8.56   0
  -1   1  55   -5.82    9.40   0
   0  -4  55   -3.18    9.13   0
   0   1  62   38.75    9.41   0
  -2   0  40  918.08   16.14   0
  -2   1  30  667.39   13.74   0
  -2   1  33    9.00    6.29   0
  -2   1  36 1018.21   16.53   0
  -1  -1  57    7.13    7.93   0
   0  -2  65    2.84    9.11   0
   0   2  58  110.13   10.78   0
  -2  -1  32 1280.47   18.33   0
  -2  -1  35    5.27    7.64   0
  -2   0  25    0.04    5.83   0
  -2   1  27    8.50    6.93   0
  -2   1  39    0.32    7.61   0
  -1  -3  17    2.90    6.24   0
  -1  -2  55   -1.39    8.62   0
  -1   2  51    3.18    8.65   0
   0   0  66  111.90   10.50   0
  -2  -1  29   11.74    6.07   0
  -2  -1  38  351.02   11.04   0
  -2   0  43    3.70    7.23   0
  -1  -3  50  215.79   11.21   0
  -1   0  59   -7.75    9.87   0
  -1   3  32 1250.59   18.92   0
  -1   3  35   -1.91    6.74   0
   0  -3  63   -5.90    9.52   0
  -2  -1  41    9.22    8.29   0
  -2   0  22 1998.03   22.35   0
  -2   1  42  353.87   11.17   0
  -1   3  29    9.82    6.26   0
  -1   3  38  373.55   12.03   0
   0  -4  58   85.75   10.03   0
  -2   0  46  316.22   11.17   0
  -2   1  24 1894.51   21.44   0
  -2   1  45  -10.41    8.62   0
  -1  -2  58  132.52   10.96   0
  -1  -1  60  200.98   10.60   0
  -1   3  41    0.90    7.30   0
   0   1  65    8.39    9.53   0
   0   3  51   -5.77    8.24   0
  -2  -1  44  383.09   11.74   0
  -1  -3  53   -2.13    9.26   0
  -1   2  54  125.75    9.29   0
  -1   3  26  542.92   13.55   0
   0   2  61   -6.60    8.70   0
  -2   0  49   -8.92    8.95   0
  -2   2  32  691.82   14.31   0
  -1  -4  33    5.92    7.18   0
  -1  -4  36  357.77   12.21   0
  -1   0  62   64.84    9.92   0
  -1   3  44  368.30   12.22   0
  -2  -1  47    5.98    7.58   0
  -2   1  21   20.32    6.06   0
  -2   2  29   -1.80    6.92   0
  -1  -4  30  314.66   11.51   0
  -1  -4  39    3.95    7.70   0
  -2  -2  33   -3.97    7.37   0
  -2  -2  36  444.19   12.75   0
  -2  -2  39   -3.85    8.17   0
  -2   0  19   -0.46    5.40   0
  -1  -4  42  172.17   10.34   0
  -1  -2  61   -9.57    9.17   0
  -1  -1  63    5.18    9.59   0
  -1   2  57   17.01    9.25   0
  -2  -2  30  215.76    9.49   0
  -2  -2  42  469.03   13.26   0
  -2  -1  50  203.23   11.62   0
  -2   0  52  211.32   10.67   0
  -2   1  51   -1.11    8.99   0
  -2   2  26 1314.70   18.64   0
  -1  -3  56  146.89   10.73   0
  -1   3  23    5.02    5.84   0
  -1   3  47   -1.85    7.95   0
  -2  -2  27    3.82    7.02   0
  -1  -4  45   -1.30    8.45   0
  -1   0  65   -0.66    9.66   0
   0   2  64  133.58   10.03   0
  -2  -2  45   -9.70    8.83   0
  -2  -1  53   -3.84    9.61   0
  -1   3  50  200.02   10.72   0
  -2   0  55    8.72    8.04   0
  -2   1  18 1219.92   18.15   0
  -1  -4  48  236.64   11.11   0
  -1  -3  59   -0.28    9.07   0
  -1   2  60  178.08   11.49   0
  -2  -2  24 2013.52   23.35   0
  -2  -2  48  341.42   11.58   0
  -2   2  23    1.76    5.51   0
  -1  -2  64   63.31    8.89   0
  -2  -1  56  209.28   12.17   0
  -2   0  16 2997.86   28.07   0
  -1  -4  51    6.52    9.46   0
  -1   3  53   -1.38    8.61   0
  -2  -2  51   -3.61    8.89   0
  -2   0  58  103.56    9.58   0
  -2   1  57    3.08    9.34   0
  -1   3  20 1441.25   21.94   0
  -2  -2  21    5.99    6.43   0
  -2   2  20 3534.97   30.25   0
  -2   3  34  650.14   14.11   0
  -2   3  37    5.52    7.45   0
  -2   3  40  525.46   13.55   0
  -1  -4  54   67.01    9.29   0
  -1   2  63    0.40    9.51   0
  -2  -2  54   32.94    8.95   0
  -2  -1  59    1.64    8.69   0
  -9   5  19   -0.55    7.20   0
  -7   4  28  435.05   11.77   0
  -6   3  33    5.77    6.82   0
  -4   4 -11   -4.54    4.98   0
  -4   4   4 1561.60   17.05   0
  -3   3  12 2651.44   22.92   0
  -8   5  20  243.80    9.96   0
  -7   3  35    3.29    6.79   0
  -6   5  10  531.88   11.38   0
  -9   4  29    2.08    6.73   0
  -8   4  30  116.69    9.02   0
  -6   4  26  411.86   11.15   0
  -6   5 -17    3.98    5.79   0
  -4   4   7    2.07    4.84   0
  -9   6  -9   -0.05    7.16   0
  -9   6   0  366.89   10.44   0
  -9   6   3    7.92    7.51   0
  -4   4 -14  324.93    9.43   0
 -10   6   2   88.36    8.44   0
  -9   6   6  209.37    9.71   0
  -8   6  -5   10.89    7.25   0
  -6   5  13   13.78    6.94   0
  -5   3  31   -0.06    6.20   0
  -4   2  33    0.87    5.31   0
  -9   6 -12  177.00    9.27   0
  -8   6  -8  499.67   11.79   0
  -8   6   1   12.51    6.20   0
  -8   6   4  241.12   10.13   0
  -4   4  10  446.99    9.93   0
  -3   3  15   -3.88    5.06   0
  -9   6   9   -3.75    7.43   0
  -7   4  31    1.59    7.53   0
  -7   5  21    6.02    7.10   0
  -6   5 -20  506.01   11.52   0
  -4   3  26  685.71   12.80   0
  -9   6 -15    1.88    6.94   0
  -8   6   7   -4.90    6.46   0
  -6   5  16  701.53   12.77   0
  -4   4 -17   -1.08    4.95   0
  -9   5  25    6.60    7.17   0
  -9   6  12  155.60    9.05   0
  -8   6 -14  112.77    7.94   0
  -6   3  36  354.46   11.13   0
  -6   4  29    5.50    6.84   0
  -4   4  13    4.80    4.89   0
  -3   2  28 1422.18   18.63   0
  -9   6 -18  186.03    9.37   0
  -8   4  33   -3.33    7.53   0
  -8   6  10  212.95    9.22   0
  -5   4  24 1004.49   14.82   0
  -5   5  -7    5.89    5.66   0
  -5   5   2  379.90    9.43   0
  -7   6  -7   10.05    6.84   0
  -7   6  -1   -5.52    6.00   0
  -7   6   2  363.97   10.58   0
  -5   5   5    2.52    6.21   0
  -9   6  15    9.32    7.17   0
  -8   6 -17    1.13    6.59   0
  -8   6  13    7.72    6.40   0
  -7   6   5    6.26    6.87   0
  -6   5  19    7.40    5.78   0
  -5   5 -10  696.84   12.12   0
  -7   6 -10  229.24    8.60   0
  -5   3  34  499.00   11.84   0
  -5   5   8 1020.45   14.06   0
  -4   4 -20 1237.54   17.47   0
  -4   4  16 1570.00   17.09   0
  -9   5  28  117.38    8.86   0
  -9   6  18  122.87    8.82   0
  -8   6  16  423.32   11.80   0
  -7   4  34  196.71    9.43   0
  -7   6   8  726.28   12.76   0
  -5   5 -13    1.97    5.42   0
  -7   6 -13   -0.08    5.62   0
  -7   6  11   15.89    7.38   0
  -5   5  11    0.14    6.31   0
  -4   3  29    1.91    4.76   0
  -8   4  36  159.94    9.37   0
  -8   5  29   -3.65    7.88   0
  -7   5  27    5.56    7.46   0
  -6   4  32  397.38   11.33   0
  -6   5  22  233.34    9.46   0
  -5   4  27    2.99    5.39   0
  -8   6  19   -9.43    7.94   0
  -7   6 -16  643.37   12.85   0
  -5   5 -16  718.08   12.88   0
  -4   4  19    2.72    5.50   0
  -9   6  21    4.55    7.70   0
  -5   5  14  677.08   11.91   0
  -3   3  21    3.27    4.39   0
  -6   6   0  959.33   14.39   0
  -3   2  31    1.33    4.88   0
  -9   7  -4  205.62    9.43   0
  -8   5  32  254.16   10.12   0
  -8   6  22  121.73    9.03   0
  -7   4  37    5.50    6.79   0
  -7   5  30   92.06    8.75   0
  -7   6 -19    6.70    6.41   0
  -7   6  17   13.35    6.33   0
  -6   6  -6  427.32   10.59   0
  -6   6   3   -5.65    5.77   0
  -5   5 -19    0.43    5.78   0
  -5   5  17   -8.38    6.38   0
  -9   7  -7    0.41    6.91   0
  -9   7   5   -7.16    7.12   0
  -6   6  -9   -2.25    6.18   0
  -6   6   6  265.19    8.87   0
  -5   3  37    1.54    6.09   0
  -5   4  30  335.60   10.23   0
  -9   7 -10  157.49    8.97   0
  -9   7   8  238.72   10.03   0
  -6   4  35    2.18    6.86   0
  -6   6   9    1.98    6.56   0
  -4   3  32  982.32   15.27   0
  -7   6  20  289.78    9.47   0
  -3   3  24 1089.19   15.49   0
  -3   4  -1   30.76    4.99   0
  -3   4   2  864.02   13.53   0
  -9   7 -13    3.47    7.46   0
  -9   7  11    3.43    6.92   0
  -8   7  -3    2.16    7.15   0
  -8   7   3    4.25    7.18   0
  -6   5  28  480.54   11.92   0
  -6   6 -12  378.73    9.72   0
  -5   5  20  724.43   12.37   0
  -3   4   5    4.67    5.20   0
  -2   3  -2  661.07   12.95   0
  -2   3   1   44.67    5.82   0
  -9   6  27    7.49    7.67   0
  -8   7  -6  105.07    8.01   0
  -3   4  -7   17.60    5.14   0
  -2   2  23    0.88    4.69   0
  -2   3   4 3091.72   25.48   0
  -9   7  14  147.74    8.61   0
  -8   5  35   -4.76    6.91   0
  -8   7  -9    3.43    6.68   0
  -8   7   9   -5.56    7.45   0
  -7   5  33    5.03    7.03   0
  -7   6  23   -2.10    7.84   0
  -6   6 -15    0.33    5.91   0
  -3   4   8 2811.38   22.50   0
  -6   6  15    4.28    6.07   0
  -4   4  25   -2.09    5.10   0
  -4   5   0 1464.79   16.44   0
  -4   5   3   31.09    6.08   0
  -2   3   7   -0.23    4.99   0
  -9   7  17   -4.71    7.35   0
  -8   6  28  180.30    9.30   0
  -8   7 -12  231.94    9.39   0
  -8   7  12  205.22    8.94   0
  -5   4  33    3.17    6.41   0
  -4   5  -6  374.96    9.85   0
  -4   5   6  909.98   13.63   0
  -3   4 -10 1116.58   15.68   0
  -6   4  38  120.36    8.58   0
  -6   6  18  422.43   11.10   0
  -3   2  34  631.72   13.57   0
  -3   4  11   23.67    5.28   0
  -8   7 -15   -0.83    7.47   0
  -8   7  15   15.03    7.69   0
  -6   5  31    6.60    7.22   0
  -6   6 -18  261.12    9.20   0
  -4   3  35    6.99    5.79   0
  -4   5  -9   27.04    5.63   0
  -4   5   9   -1.22    5.20   0
  -3   3  27    1.12    5.16   0
  -2   3  10 2062.92   20.42   0
  -9   7  20  156.86    8.98   0
  -7   7   4  221.70    9.41   0
  -8   7  18  154.23    9.34   0
  -7   5  36  306.16   10.89   0
  -7   7  -5   -5.39    6.94   0
  -7   7   7   -8.38    7.24   0
  -4   4  28  675.17   12.81   0
  -4   5  12  970.23   13.73   0
  -3   4 -13    8.94    4.76   0
  -3   4  14  730.60   12.23   0
  -8   5  38   49.21    7.22   0
  -8   6  31    1.72    7.02   0
  -7   7  -8  647.16   12.77   0
  -6   6  21   14.99    6.17   0
  -5   5  26  240.10    8.67   0
  -5   6   1   12.84    6.40   0
  -4   5 -12 1166.39   15.89   0
  -9   7  23    0.64    7.15   0
  -5   6  -5    1.54    6.03   0
  -5   6   4  797.10   12.75   0
  -2   2  26 1284.12   17.81   0
  -2   3  13   33.93    4.97   0
  -8   7  21    6.83    7.39   0
  -7   6  29   -2.09    7.41   0
  -7   7 -11    2.60    6.44   0
  -5   4  36  371.93   10.79   0
  -5   6   7    0.99    5.59   0
  -4   5  15   22.37    5.53   0
  -3   4  17    3.13    5.56   0
  -6   5  34  255.01   10.01   0
  -5   6  -8  871.80   13.78   0
  -5   6  10  515.31   11.35   0
  -7   7  16  544.41   12.46   0
  -6   6  24  519.83   11.29   0
  -4   5 -15    6.99    5.31   0
  -3   4 -16 1959.29   21.43   0
  -9   8   1    6.10    7.39   0
  -8   6  34  150.41    9.27   0
  -7   7 -14  147.03    8.41   0
  -5   5  29   -4.87    6.81   0
  -5   6 -11    8.24    5.97   0
  -5   6  13    3.56    5.93   0
  -4   5  18  419.96    9.88   0
  -3   3  30  346.83   10.07   0
  -2   3  16 2063.16   20.30   0
  -9   8  -5   -7.82    7.31   0
  -9   8   7    1.36    7.21   0
  -8   7  24  288.94   10.68   0
  -7   5  39    6.23    7.43   0
  -4   4  31   -3.85    6.08   0
  -9   8  10  107.13    8.19   0
  -7   6  32  293.86   10.59   0
  -7   7  19    4.26    7.78   0
  -5   6  16  690.80   12.65   0
  -3   4  20  907.63   13.56   0
  -9   8  -8  165.35    8.52   0
  -7   7 -17   -1.51    6.39   0
  -9   8  13    7.18    7.81   0
  -6   5  37    2.00    7.13   0
  -6   7   2  368.97    9.94   0
  -6   7   5    6.95    7.18   0
  -5   6 -14  423.45   10.60   0
  -4   5 -18  744.05   13.38   0
  -4   5  21    1.47    5.47   0
  -9   8 -11   -2.48    6.13   0
  -7   7  22  124.46    9.02   0
  -6   7  -4  299.96    9.17   0
  -6   7   8  714.22   12.55   0
  -5   4  39    4.85    6.30   0
  -5   6  19    3.30    6.56   0
  -8   6  37   -6.89    7.28   0
  -8   8  -4  241.11    9.76   0
  -8   8  -1   -4.07    6.83   0
  -8   8   5   -4.44    6.82   0
  -8   8   8  278.82   10.25   0
  -6   7  -7   12.69    6.66   0
  -6   7  11   -1.01    7.18   0
  -5   5  32  522.30   11.48   0
  -2   2  29    2.87    4.55   0
  -8   8  11    7.09    7.64   0
  -6   6  30  137.57    9.04   0
  -3   4 -19   16.99    4.98   0
  -8   8  -7   -5.07    7.37   0
  -7   6  35    6.11    7.76   0
  -7   7  25   -5.82    7.70   0
  -6   7 -10  242.99    9.10   0
  -6   7  14  160.91    8.12   0
  -5   6 -17    2.29    5.47   0
  -5   6  22  241.58    9.47   0
  -4   4  34  281.29    9.56   0
  -3   3  33   -2.28    5.39   0
  -8   7  30   93.47    8.65   0
  -8   8 -10  184.31    9.71   0
  -8   8  14  158.15    8.94   0
  -6   7  17    1.50    7.64   0
  -2   3  22  475.97   10.85   0
  -8   8  17    7.61    7.25   0
  -6   7 -13   -4.49    6.32   0
  -4   5 -21    5.66    4.86   0
  -8   8 -13    2.86    6.27   0
  -6   5  40  231.67    9.94   0
  -5   5  35   -4.72    6.61   0
  -4   5  27    2.94    6.28   0
  -3   4  26  690.25   12.15   0
  -8   8  20  175.32    9.50   0
  -6   6  33   -6.66    6.51   0
  -5   6 -20  469.97   11.20   0
  -4   6   2  648.28   12.15   0
  -3   5   1    4.44    4.73   0
  -3   5   7   11.77    5.94   0
  -8   7  33   -1.14    7.48   0
  -7   6  38   57.65    8.28   0
  -7   8  -3   -1.07    7.22   0
  -7   8   0  419.53   10.66   0
  -7   8   6  215.61    9.13   0
  -7   8   9  -10.22    7.71   0
  -6   7 -16  648.16   13.12   0
  -4   6   5    1.21    5.29   0
  -4   6   8  932.01   13.87   0
  -3   5  10  780.18   12.77   0
  -8   8  23   11.94    7.23   0
  -7   8  -6  112.01    8.65   0
  -7   8  12  201.17    8.94   0
  -6   7  23   10.33    6.50   0
  -5   6  28  489.34   11.71   0
  -4   4  37    2.78    5.99   0
  -4   6  11    1.74    5.55   0
  -3   5  13   10.09    5.66   0
  -2   2  32  674.96   13.91   0
  -7   7  31   -4.70    7.11   0
  -7   8  15    7.37    7.44   0
  -4   6  -7    2.99    5.56   0
  -4   6  14  311.35    9.64   0
  -3   3  36  891.38   15.51   0
  -2   3  25    8.83    4.42   0
  -2   4   0 4230.47   28.34   0
  -2   4   3   -3.55    4.43   0
  -2   4   6  858.46   13.42   0
  -7   8  -9    1.41    6.94   0
  -6   6  36  246.80   10.11   0
  -5   7   3    1.16    5.85   0
  -5   7   6  179.21    8.79   0
  -4   5  30  340.21    9.60   0
  -3   4  29    3.76    4.91   0
  -3   5  -8 2184.09   20.43   0
  -2   4   9    1.31    5.02   0
  -7   8  18  169.19    9.17   0
  -5   5  38  228.74    9.66   0
  -5   7  -3   11.60    6.32   0
  -5   7   9    0.97    5.97   0
  -3   5  16 1864.48   18.32   0
  -2   4  -3   -1.45    4.19   0
  -8   8  26  105.29    8.88   0
  -7   6  41    2.51    7.83   0
  -7   8 -12  215.88    9.18   0
  -5   7  12  524.38   11.16   0
  -4   6 -10  390.18   10.13   0
  -4   6  17   -6.38    5.55   0
  -2   4  12  826.53   13.20   0
  -7   7  34  177.22    9.76   0
  -5   6  31    5.12    6.91   0
  -5   7  -6  456.97   10.40   0
  -3   5 -11   10.64    5.18   0
  -7   8  21    4.90    6.99   0
  -5   7  15    1.15    6.11   0
  -4   6  20  711.43   12.89   0
  -3   5  19    1.59    5.38   0
  -5   7  -9   -0.31    6.12   0
  -4   5  33   15.01    6.54   0
  -4   6 -13   -2.88    5.59   0
  -2   3  28 1415.98   17.85   0
  -2   4  15    0.05    4.63   0
  -7   8 -15   -1.06    6.64   0
  -6   6  39    1.21    8.05   0
  -6   8   4  230.08    9.96   0
  -5   7  18  444.91   10.66   0
  -4   4  40  485.20   12.10   0
  -3   4  32  982.73   15.01   0
  -8   9   1   11.93    6.75   0
  -7   8  24  309.45   10.03   0
  -6   8   7   -2.06    6.18   0
  -6   8  10  214.03    9.41   0
  -3   5  22  316.69    9.44   0
  -2   4  -9   -0.27    4.56   0
  -1   2  21   24.26    4.87   0
  -8   9  -2  121.90    8.59   0
  -8   9  10  114.37    7.91   0
  -6   8  13    8.80    7.63   0
  -5   5  41   -1.27    6.42   0
  -5   6  34  235.73    9.64   0
  -5   7 -12  419.19   10.72   0
  -5   7  21    0.85    6.90   0
  -4   6  23    3.55    5.82   0
  -3   5 -14  386.85   10.06   0
  -2   4  18 1127.43   14.72   0
  -8   9  -5    5.61    6.62   0
  -8   9  13   -1.69    7.73   0
  -7   7  37    3.35    6.94   0
  -6   7  32  296.30   10.65   0
  -6   8  -5   10.07    7.04   0
  -6   8  16  423.65   11.56   0
  -4   6 -16  760.34   13.33   0
  -8   9  -8  156.84    8.19   0
  -6   8  -8  515.49   11.87   0
  -5   7  24  350.09   10.76   0
  -6   8  19   -0.26    7.48   0
  -5   7 -15    7.00    5.76   0
  -4   5  36  356.69    9.99   0
  -2   4 -12  794.15   13.79   0
  -1   3   5   15.75    5.24   0
  -6   6  42  152.38    9.59   0
  -3   4  35    5.24    6.05   0
  -2   3  31    2.60    5.12   0
  -1   3   2  705.33   12.71   0
  -1   3   8 3405.86   26.12   0
  -7   8  30   87.16    8.73   0
  -6   7  35    5.91    7.44   0
  -6   8 -11    9.95    6.70   0
  -5   6  37    1.60    7.14   0
  -3   5 -17    0.16    4.78   0
  -7   9   2  101.55    8.28   0
  -7   9   8  249.76   10.00   0
  -6   8  22  125.59    8.37   0
  -4   6  29   -3.49    6.62   0
  -1   2  24 1810.04   20.94   0
  -1   3  -1   47.02    5.13   0
  -1   3  11   19.51    4.82   0
  -7   9  -1   -0.07    6.65   0
  -7   9  11   -5.29    6.97   0
  -4   6 -19    3.29    5.14   0
  -3   5  28  422.67   10.24   0
  -2   4  24 1878.95   19.16   0
  -7   9  -4  210.05    9.39   0
  -7   9  14  141.23    8.97   0
  -6   8 -14  118.98    8.02   0
  -6   8  25   -3.20    7.71   0
  -5   7 -18  181.87    8.33   0
  -4   7   4  706.98   12.37   0
  -4   7   7    0.70    5.93   0
  -4   7  10  447.72   11.16   0
  -3   6   3    7.82    5.20   0
  -3   6   6  493.06   10.39   0
  -3   6   9    8.60    6.33   0
  -1   3  14 1667.70   18.34   0
  -7   8  33   -0.96    6.84   0
  -4   5  39   11.17    6.28   0
  -4   7  13    7.53    7.07   0
  -3   6   0 1057.75   14.23   0
  -3   6  12  807.21   13.17   0
  -7   9  -7    4.43    6.95   0
  -7   9  17    0.34    7.64   0
  -5   7  30   87.18    7.37   0
  -2   4 -15    3.84    4.84   0
  -6   7  38   57.70    7.71   0
  -5   6  40  223.25   10.43   0
  -5   8   5    4.21    7.01   0
  -5   8   8  509.08   11.69   0
  -4   6  32  389.13   10.70   0
  -4   7  -5   11.82    6.22   0
  -4   7  16  474.76   11.52   0
  -3   6  15   -1.70    5.46   0
  -1   3  17   14.06    4.58   0
  -7   9  20  161.91    9.22   0
  -5   8  -1    2.64    7.16   0
  -5   8  11    2.70    7.49   0
  -3   4  38  184.70    8.54   0
  -3   5  31    0.73    5.13   0
  -3   6  -6  508.68   11.00   0
  -2   3  34  645.13   12.98   0
  -2   4  27    4.99    4.78   0
  -2   5   5   11.42    5.87   0
  -2   5   8 2288.95   20.26   0
  -7   9 -10  160.68    8.35   0
  -5   8  14  167.54    9.37   0
  -4   7  19    2.31    7.02   0
  -3   5 -20  559.79   12.21   0
  -3   6  18  442.81   10.19   0
  -2   5   2  823.50   12.64   0
  -2   5  11    7.21    6.06   0
  -7   9  23   -1.54    6.99   0
  -5   7  33    0.66    7.07   0
  -5   8  -4  293.30   10.02   0
  -5   8  17   -1.71    7.76   0
  -4   7  -8  583.29   11.53   0
  -2   5  -1    4.50    5.47   0
  -1   2  27    1.54    4.11   0
  -4   7  22  188.42    9.07   0
  -3   6  -9    6.01    5.69   0
  -3   6  21    2.88    6.31   0
  -2   5  14  403.27    9.59   0
  -6   8  31    8.29    6.68   0
  -5   8  -7   -1.20    6.41   0
  -5   8  20  260.94   10.32   0
  -4   6  35    4.36    7.04   0
  -6   7  41    5.84    6.53   0
  -6   9   9   -4.59    7.06   0
  -4   5  42  182.06    8.96   0
  -4   7 -11    2.20    5.90   0
  -3   5  34  469.66   11.35   0
  -2   4  30  227.35    8.66   0
  -2   5  17    2.41    5.21   0
  -6   9   0  355.76   10.66   0
  -6   9  12  175.07    9.00   0
  -4   7  25    6.82    7.23   0
  -3   6  24  642.95   12.43   0
  -6   9  15    7.71    7.42   0
  -5   7  36  292.46   10.28   0
  -5   8 -10  212.59    9.18   0
  -5   8  23    7.41    7.68   0
  -2   5  -7   13.38    5.29   0
  -2   5  20  633.35   12.02   0
  -1   3  23    2.22    4.99   0
  -6   8  34  151.27    8.72   0
  -6   9  -3    5.71    6.65   0
  -3   6 -12  742.31   12.70   0
  -2   4 -18 1026.59   16.71   0
  -6   9  18  119.65    8.28   0
  -4   7 -14  386.36   10.31   0
  -2   3  37   -0.20    5.20   0
  -6   9  -6   90.26    8.12   0
  -5   8 -13    6.41    7.15   0
  -5   8  26  209.44    9.02   0
  -4   6  38  118.41    8.10   0
  -1   2  30  639.59   13.29   0
  -6   9  21   -6.66    6.81   0
  -3   5  37    5.39    6.25   0
  -2   4  33   -1.94    5.59   0
  -2   5 -10  745.52   12.95   0
  -1   4   7   27.93    5.67   0
  -6   9  -9    1.01    6.71   0
  -5   7  39    2.53    7.51   0
  -1   4   4 1353.19   16.00   0
  -1   4  10 1172.58   14.88   0
  -6   8  37   -2.38    7.44   0
  -6   9  24  230.73    9.49   0
  -3   6 -15   -2.25    5.37   0
  -1   3  26  549.21   11.15   0
  -1   4   1   29.28    5.04   0
  -1   4  13   11.23    5.07   0
  -4   7 -17    9.69    6.41   0
  -4   7  31   -2.95    6.03   0
  -3   6  30  221.35    8.37   0
  -4   8   6  223.61    9.33   0
  -4   8   9   -0.54    7.21   0
  -3   7   5   11.92    6.79   0
  -3   7   8  586.31   11.45   0
  -3   7  11   -1.47    6.53   0
  -1   4  -2  894.79   13.79   0
  -1   4  16 2160.33   19.76   0
  -6   9  27    3.33    7.70   0
  -4   6  41    3.22    6.88   0
  -4   8   0  557.16   11.86   0
  -4   8  12  281.31    9.38   0
  -4   8  15    8.36    7.73   0
  -3   7   2  271.11    8.75   0
  -3   7  14  401.47   10.67   0
  -5   8  32  248.43    9.99   0
  -3   7  17   19.85    7.04   0
  -2   5 -13   -2.16    4.95   0
  -1   4  19   29.86    5.77   0
  -5   7  42  169.55    9.63   0
  -5   9   7    4.83    6.92   0
  -5   9  10  148.26    9.18   0
  -4   7  34  185.82    9.20   0
  -4   8  -3    4.05    6.45   0
  -4   8  18  217.56   10.00   0
  -3   5  40  507.95   12.16   0
  -3   6  33    4.04    6.79   0
  -2   4  36  421.80   10.88   0
  -2   5  29    1.25    6.08   0
  -2   6   7    3.40    6.30   0
  -5   9   1    5.14    7.17   0
  -5   9  13    1.10    7.20   0
  -3   6 -18  422.70   10.72   0
  -3   7  -4  687.68   12.65   0
  -3   7  20  463.16   11.14   0
  -2   6   4  894.86   13.29   0
  -2   6  10  366.83    9.45   0
  -2   6  13    6.09    6.01   0
  -1   3  29    3.29    5.09   0
  -5   9  16  392.91   11.03   0
  -4   8  -6  220.84    9.32   0
  -4   8  21    4.58    6.45   0
  -2   6   1  -11.26    6.20   0
  -1   2  33    4.56    4.42   0
  -5   8  35   -3.33    7.15   0
  -5   9  -2  194.36    9.23   0
  -5   9  19   -1.18    7.51   0
  -2   6  16  817.17   12.92   0
  -4   8  24  363.77   10.95   0
  -3   7  -7    3.74    5.18   0
  -3   7  23    1.57    6.14   0
  -2   6  19    2.36    6.75   0
  -5   9  -5    5.08    6.75   0
  -5   9  22   91.33    8.66   0
  -4   7  37   14.94    7.38   0
  -4   8  -9   -3.38    6.59   0
  -3   6  36  340.52   10.61   0
  -2   5 -16 1813.36   20.45   0
  -2   5  32  749.24   13.45   0
  -1   4  -8 2756.09   23.82   0
  -3   7  26  171.09    9.05   0
  -2   6  -5   -4.53    5.75   0
  -1   4  25    2.10    4.74   0
  -4   8  27    1.67    7.50   0
  -3   7 -10  396.75   10.27   0
  -2   4  39    0.51    6.15   0
  -2   6  22  396.51    9.84   0
  -1   3  32 1266.22   17.07   0
  -5   8  38   61.28    7.49   0
  -5   9  -8  416.12   11.08   0
  -5   9  25   10.85    7.58   0
  -4   8 -12  290.64    9.73   0
  -1   5   6  398.72    9.79   0
  -1   5   9   29.60    6.25   0
  -1   5  12 1236.54   15.55   0
  -4   7  40  161.51    8.91   0
  -2   5  35    6.40    6.06   0
  -2   6  -8  857.92   13.22   0
  -1   4  28  741.46   12.99   0
  -1   5   3   -2.05    5.41   0
   0   2  19    3.44    4.46   0
  -5   9 -11    0.99    6.10   0
  -5   9  28  108.89    7.75   0
  -3   6  39   -6.84    6.77   0
  -3   7 -13    6.79    6.05   0
  -1   4 -11   31.47    5.22   0
  -1   5  15    3.34    5.24   0
  -1   5   0 1444.40   16.32   0
  -1   5  18  805.89   13.04   0
  -3   7  32  327.98   10.64   0
   0   3   9    4.47    5.15   0
  -4   8 -15   -6.98    6.29   0
  -4   8  33    3.22    7.31   0
  -3   8   7    2.89    6.99   0
  -3   8  10  223.12    9.44   0
  -2   5 -19    4.98    5.07   0
  -2   6 -11   -3.79    5.53   0
  -1   5  21    7.28    5.95   0
   0   3  12 2080.02   19.97   0
  -4   9   8  400.65   11.01   0
  -4   9  11   -3.61    7.13   0
  -3   8   4  273.71    9.70   0
  -3   8  13    5.26    6.21   0
  -1   3  35    1.66    4.83   0
  -1   4  31    9.15    5.73   0
   0   2  22 1894.74   20.67   0
   0   3   3    3.89    5.09   0
   0   3  15    2.71    5.08   0
  -4   7  43   -2.51    7.12   0
  -4   9   2  187.91    9.36   0
  -4   9  14   99.78    7.99   0
  -3   8  16  449.73   11.03   0
  -2   5  38  110.68    7.74   0
  -2   6  31    5.11    6.79   0
  -4   9  17   -6.52    7.03   0
  -3   6  42  192.75    9.29   0
  -3   7 -16  461.45   11.07   0
  -3   8  19    1.87    6.71   0
  -2   7   6  474.30   11.14   0
  -2   7   9   -1.47    5.80   0
  -2   7  12  440.20   11.13   0
  -4   8  36  154.65    8.69   0
  -4   9  -1   -2.10    7.07   0
  -4   9  20  150.84    8.86   0
  -3   7  35   -0.11    6.62   0
  -3   8  -2  244.68    9.42   0
  -2   7   3    1.55    6.61   0
  -2   7  15    2.58    6.14   0
  -1   4 -14  688.45   13.15   0
  -1   5  -6  859.73   13.12   0
   0   3   0 2680.76   23.19   0
  -5  10   6  100.76    7.78   0
  -3   8  22  140.43    7.96   0
  -2   6 -14  315.64    9.37   0
  -2   7  18  189.55    9.14   0
  -5  10   3   -0.97    6.53   0
  -4   9  -4  160.24    8.36   0
  -4   9  23    7.13    7.05   0
  -3   8  -5    1.89    6.48   0
  -1   4  34  588.47   12.14   0
  -1   5  27    9.02    5.89   0
   0   2  25   -2.38    4.56   0
  -3   8  25    1.65    7.61   0
  -2   6  34  202.75    9.03   0
  -2   7  -3   -0.69    6.34   0
  -2   7  21    7.26    6.13   0
  -4   9  26  171.01    8.90   0
  -3   7  38  167.07    9.13   0
  -2   5  41    1.01    6.77   0
  -1   5  -9   -0.28    5.19   0
   0   3  -3    1.46    4.06   0
  -5  10  -3   -1.72    6.86   0
  -4   8  39   -1.92    6.69   0
  -4   9  -7   10.25    7.06   0
  -3   8  -8  512.63   11.51   0
  -2   7  24  474.73   11.00   0
  -1   6   8  838.67   13.55   0
  -1   6  11    5.91    6.15   0
  -2   7  -6  179.51    8.35   0
  -1   5  30  193.30    8.66   0
  -1   6   5    6.75    6.21   0
  -1   6  14  428.16   10.15   0
   0   4   8 1612.28   17.11   0
   0   4  11   -1.66    4.82   0
  -1   6   2  345.06    9.66   0
  -1   6  17    2.29    5.83   0
   0   4   5    5.44    4.79   0
   0   4  14  325.62    8.82   0
  -4   9 -10  142.92    8.09   0
  -2   6 -17   -2.49    5.34   0
  -2   6  37    0.00    5.94   0
  -1   6  20  535.38   11.72   0
   0   2  28 1120.74   16.45   0
   0   4   2 1466.20   16.81   0
   0   4  17    1.42    4.91   0
  -3   8 -11   -1.09    6.17   0
  -3   8  31   -6.01    7.74   0
  -1   4  37   -1.11    5.68   0
  -1   5 -12  958.43   14.51   0
  -3   7  41    0.70    7.29   0
  -2   7  -9   -3.45    6.08   0
  -2   7  30  202.84    9.55   0
  -1   4 -17   -1.29    4.37   0
  -1   5  33    0.74    6.37   0
  -1   6  23    6.38    6.80   0
   0   3  27    0.92    5.09   0
   0   4  20 1348.61   15.87   0
   0   4  -1   -1.30    4.64   0
  -3   8  34  134.06    8.66   0
  -1   6  -4  762.45   12.44   0
  -3   9   9    3.21    7.05   0
  -3   9  12  205.91    9.14   0
  -2   6  40  293.80   10.01   0
  -3   8 -14  160.31    8.32   0
  -3   9   3   -1.64    7.43   0
  -3   9  15    2.62    6.80   0
  -3   9  18  216.48    9.62   0
  -2   7 -12  489.20   11.22   0
  -2   7  33    9.82    6.84   0
  -2   8   8  494.80   11.76   0
  -2   8  11    3.35    7.15   0
  -2   8   5   -3.13    6.96   0
  -2   8  14  121.63    7.75   0
  -2   8  17    2.77    7.59   0
  -1   5  36  550.29   12.06   0
  -1   6  -7    2.04    5.58   0
   0   2  31    0.70    4.23   0
   0   3  -9    1.37    4.41   0
   0   3  30  589.25   11.80   0
  -3   7  44  171.07    9.07   0
  -3   8  37    5.11    7.19   0
  -3   9   0  355.96   10.36   0
  -3   9  21    6.18    7.35   0
  -1   4  40  482.97   11.47   0
  -1   5 -15   16.01    5.42   0
  -1   6  29    1.08    6.75   0
   0   5  10  762.70   12.73   0
  -2   8  20  214.48    9.17   0
   0   5   7   -3.12    5.37   0
   0   5  13    3.37    5.38   0
   0   5  16  736.18   12.66   0
  -3   9  -3    5.18    6.67   0
  -3   9  24  197.01    8.67   0
  -2   7  36  196.39    9.07   0
  -2   8  -1    6.95    6.64   0
  -2   8  23    4.88    7.13   0
   0   5   4 1214.70   14.97   0
  -2   6  43   -2.44    6.68   0
  -1   6 -10  507.34   11.27   0
  -1   6  32  419.19   11.17   0
  -1   7   7   13.83    6.93   0
  -1   7  10  243.40    9.42   0
  -1   7  13    6.20    6.78   0
   0   4  -7    0.79    4.22   0
   0   4  29    2.37    5.76   0
   0   5  19    1.85    5.48   0
  -3   9  27    5.99    6.92   0
  -2   8  26  217.43    9.69   0
  -1   7   4  279.66    9.81   0
  -1   7  16  668.32   12.34   0
   0   3  33    4.40    5.72   0
   0   5   1    6.35    5.01   0
   0   5  22  270.19    9.35   0
  -3   9  -6  187.96    8.86   0
  -1   4 -20  836.70   15.53   0
  -1   5  39    3.47    6.34   0
  -1   7  19    9.33    6.26   0
   0   5  -2  352.19    9.40   0
  -2   7  39   -2.79    6.58   0
  -2   8  -7   -2.01    6.87   0
   0   2  34  272.62    9.35   0
   0   4  32  520.57   11.37   0
  -3   9  -9    5.60    6.76   0
  -1   5 -18  388.92   10.37   0
  -1   6 -13   14.39    5.95   0
  -1   6  35   -9.73    6.00   0
  -1   7  -2  367.14   10.22   0
  -1   7  25  -10.63    6.94   0
   0   3 -12 2518.79   24.38   0
   0   4 -10  435.14   10.34   0
  -2   8  32  202.49    9.25   0
   0   5  28  655.66   12.03   0
  -2   8 -10  206.17    8.94   0
  -1   5  42  248.36    9.47   0
  -1   7  -5    6.50    5.71   0
   0   3  36  561.11   11.94   0
   0   6   9   -4.12    6.66   0
   0   6  12  372.24   10.18   0
   1   2   8 3435.81   26.30   0
   1   2  11   23.58    4.59   0
   1   2  14 1581.39   17.75   0
  -2   7  42  100.92    8.15   0
  -1   6  38  164.19    8.88   0
   0   4  35   -5.68    5.64   0
   0   6  15    3.05    5.73   0
   1   3  10 1184.17   14.83   0
   1   3  13    5.25    4.85   0
   1   3  16 2230.13   20.23   0
   0   5  31   -0.01    6.10   0
   0   6  18  294.35    9.16   0
   1   2   5    9.07    4.37   0
   1   3   7   24.35    4.89   0
  -2   8  35    3.00    7.20   0
  -2   9  10  191.85    9.14   0
  -2   9  13   -0.27    7.23   0
  -2   9  16  194.28    9.24   0
  -1   7  -8  688.10   12.67   0
  -1   7  31   -0.70    7.38   0
   0   5  -8  992.26   13.99   0
   0   6   3   -8.53    5.55   0
   0   6  21    1.15    5.90   0
   1   2  20 1446.20   17.33   0
   1   3   4 1345.72   16.13   0
  -2   9  19   -5.40    7.07   0
  -1   6 -16  654.54   12.60   0
   0   4 -13   -1.50    4.86   0
   0   6   0  961.09   14.29   0
  -2   8 -13    5.35    6.44   0
  -2   9  22   58.35    8.12   0
   0   6  24  632.44   12.00   0
   1   2   2  703.74   12.48   0
   1   3  22  364.40    9.55   0
  -1   8  12  232.50    9.14   0
   1   3   1   28.19    4.95   0
   1   4   9   22.02    5.47   0
   1   4  12 1196.53   14.82   0
   1   4  15    6.85    5.15   0
  -2  -4  17   -2.61    8.22   0
  -2  -3  16 1832.19   22.75   0
   0  -7  31   -3.66    9.80   0
   0  -1  22  488.22   13.20   0
   1  -7  38   56.94   10.82   0
   1  -6  40  249.72   13.10   0
   1  -3  37   -7.72    9.11   0
   2  -4  42  468.84   14.96   0
   3  -3  39    2.31    8.64   0
   4  -7  47   -3.15   11.04   0
  -2  -2  12  805.48   16.49   0
  -1  -6  26  286.19   13.29   0
   2  -2  34  298.06   12.19   0
   3  -4  43    6.54   10.22   0
  -1  -4  30  341.56   12.82   0
   0  -8  26   93.66   10.87   0
  -1  -7  21    6.83    9.29   0
  -1  -3  29   -3.30    8.42   0
  -1  -2  25   11.55    6.96   0
   0  -4  37   11.39   10.10   0
   1  -5  42  183.50   12.90   0
   1  -4  41   -4.39   10.11   0
   1  -1  26 1220.90   20.23   0
  -2  -4  20  696.20   15.86   0
  -2  -3  19    8.64    7.95   0
  -2  -5  18  390.76   13.73   0
  -2  -2  15   -0.60    5.97   0
  -1  -1  18 1211.45   19.33   0
   0  -5  38  216.51   11.52   0
   2  -7  45    6.65   10.96   0
   3  -6  48  144.10   13.22   0
   3  -5  47    0.88   11.04   0
   4  -4  44  459.06   16.13   0
  -1  -6  29   -3.83    9.56   0
   0  -3  36  919.22   16.80   0
   1  -7  41   -4.13   10.36   0
   1  -6  43    0.64   11.07   0
   2  -3  41    9.26    8.80   0
   2  -1  27   -1.93    6.73   0
   4  -6  49   -1.11   11.87   0
   0  -1  25    1.76    6.17   0
   3  -2  35   -0.36    7.94   0
  -2  -4  23    2.86    8.77   0
  -2  -3  22  325.74   12.10   0
  -1  -4  33   -2.11    8.43   0
   2  -6  47    6.21    9.93   0
   2  -4  45   -1.61   10.47   0
   4  -5  48  160.62   12.93   0
  -2  -5  21    4.04    9.00   0
  -1  -3  32  962.49   17.05   0
  -1  -2  28 1449.13   19.76   0
   0  -6  39   -3.48   10.12   0
   3  -4  46   83.20   11.10   0
   3  -3  42  267.35   12.65   0
  -1  -1  21   25.52    7.69   0
   0  -4  40  501.44   14.04   0
   1  -5  45    1.69   10.67   0
   1  -4  44  336.43   13.85   0
   2  -2  37    3.51    7.99   0
  -1  -7  27    1.49    9.08   0
  -1  -6  32  287.57   13.16   0
   0  -5  41    8.37    8.99   0
   1  -1  29    2.43    7.32   0
  -2  -5  24  352.13   13.16   0
   0  -3  39    2.14    9.12   0
  -2  -4  26  400.23   12.45   0
  -1  -4  36  352.46   13.12   0
   0  -2  35    2.33    7.41   0
   1  -6  46   65.99   11.82   0
   2  -5  49    0.76   10.80   0
   3  -6  51   -4.43   10.29   0
   3  -5  50  190.44   13.75   0
  -1  -3  35    5.46    9.40   0
  -1  -2  31    2.46    8.15   0
   0  -1  28 1395.23   19.83   0
   2  -3  44  383.37   13.69   0
  -1  -7  30   83.16   10.82   0
  -1  -5  37    3.48   10.43   0
  -1  -1  24 1935.33   23.12   0
   2  -1  30  656.16   16.01   0
   4  -6  52  131.79   11.22   0
  -2  -6  22  135.83   11.51   0
  -2  -5  27   -0.11    9.51   0
  -1  -6  35    3.06   10.06   0
   0  -4  43  -12.65   10.84   0
   2  -4  48  330.31   13.01   0
  -2  -4  29  -14.56    9.12   0
  -2  -2  24 1931.27   22.82   0
   0  -5  44  217.47   11.70   0
   1  -5  48  227.71   12.28   0
   1  -4  47   13.68   10.14   0
   1  -2  39   -2.35    7.29   0
   3  -4  49    5.24   10.30   0
   3  -2  38  355.33   13.07   0
   4  -5  51    2.62   10.63   0
   2  -2  40  944.10   18.34   0
   3  -3  45    3.00    8.75   0
  -1  -4  39    8.12    8.52   0
   0  -3  42  358.45   12.43   0
   0  -2  38  275.52   12.02   0
   1  -6  49    3.48   10.19   0
   1  -1  32 1779.60   22.86   0
  -2  -6  25    0.46    8.57   0
  -2  -5  30   84.06   10.66   0
  -1  -7  33   -0.60    9.69   0
  -1  -3  38  202.51   10.57   0
  -1  -2  34  661.40   14.43   0
   0  -1  31   -2.99    6.38   0
  -3  -3   9    7.95    6.86   0
  -2  -4  32  370.17   13.17   0
  -2  -3  31    3.45    8.93   0
  -2  -2  27   -1.51    7.66   0
  -2  -1  17   12.28    6.99   0
  -1  -6  38   53.60   10.77   0
  -1  -5  40  216.52   11.62   0
  -1  -1  27    0.38    6.49   0
   0  -6  45   -7.35    9.24   0
   2  -5  52  151.55   12.56   0
   3  -5  53    3.31   10.99   0
  -3  -3  12  767.82   16.53   0
   1  -3  46  150.90   10.54   0
   2  -3  47    6.36    9.47   0
  -3  -3  15    3.02    7.30   0
   0  -5  47   14.18   10.74   0
   1  -5  51    2.10   10.57   0
   2  -4  51    4.42   10.11   0
  -2  -1  20 1536.44   20.68   0
  -1  -4  42  180.30   12.21   0
   1  -2  42  358.42   12.02   0
   2  -1  33    1.85    6.80   0
  -3  -3  18  433.76   13.13   0
  -2  -5  33   -4.85    9.12   0
  -2  -2  30  217.95   11.08   0
  -1  -3  41    0.90    9.66   0
  -1  -2  37    3.45    8.47   0
   0  -3  45   -9.98    8.65   0
   0  -2  41    7.61    8.84   0
  -2  -3  34  449.99   13.06   0
  -1  -6  41    3.67    9.48   0
  -1  -5  43   13.53    9.94   0
  -1  -1  30  658.15   14.12   0
   0  -6  48  132.15   11.96   0
   1  -1  35   -3.48    6.39   0
   2  -2  43   -7.91    8.39   0
   3  -4  52  242.12   13.07   0
  -3  -2  11    3.61    7.08   0
  -2  -6  31   -9.75    9.71   0
  -3  -3  21    6.48    7.21   0
  -3  -2   5    8.47    6.88   0
  -3  -2  14  392.57   12.39   0
  -2  -1  23    6.99    6.35   0
   0  -4  49  -11.84   10.93   0
   2  -5  55   -1.37   10.97   0
  -3  -4  22  193.01   10.77   0
  -3  -2  17   -0.58    7.28   0
  -2  -5  36  297.06   12.54   0
   0  -5  50   90.88   11.16   0
   1  -3  49    1.73    8.35   0
  -3  -3  24  636.66   15.19   0
  -2  -3  37    8.57    9.62   0
  -2  -2  33    0.58    7.56   0
  -1  -4  45    1.81    8.86   0
  -1  -1  33   -2.62    8.14   0
   1  -5  54   72.00   11.04   0
   2  -3  50  208.95   12.55   0
   3  -5  56  115.65   11.93   0
  -3  -4  25   13.03    8.79   0
  -3  -2  20  636.90   14.70   0
  -2  -6  34  138.28   11.26   0
  -2  -1  26  533.29   12.94   0
  -1  -5  46   71.54   11.11   0
  -1  -3  44  320.88   13.27   0
  -1  -2  40  509.23   13.35   0
   0  -3  48  237.62   12.45   0
   1  -2  45   -0.58    7.61   0
   2  -4  54   44.90   10.89   0
   2  -1  36  957.63   18.41   0
  -3  -3  27    9.36    8.42   0
  -2  -5  39    4.23    9.88   0
  -3  -4  28  422.92   13.84   0
  -3  -2  23    4.13    6.62   0
  -2  -2  36  425.55   13.05   0
  -1   0  20 1588.68   21.84   0
   2  -2  46  319.28   12.66   0
   3  -4  55    0.17   10.16   0
  -2  -6  37    1.60   10.18   0
  -2  -3  40  516.21   14.34   0
  -2  -1  29    8.49    6.90   0
  -1  -4  48  258.08   12.79   0
   0  -5  53  -13.11    9.91   0
   0  -4  52  158.42   11.54   0
  -3  -5  26  185.98   11.11   0
  -3  -3  30  221.93   11.52   0
  -3  -2  26  686.03   14.99   0
  -1  -2  43   -1.83    9.66   0
   1  -3  52  325.47   12.44   0
   2  -5  58  106.50   10.90   0
  -3  -4  31    1.11    9.27   0
  -1  -5  49   -1.05    9.80   0
  -1  -3  47    8.90    8.75   0
  -1   0  23   -4.29    7.19   0
   0  -3  51   -6.98   10.35   0
   1  -2  48  378.69   13.66   0
   2  -3  53   -2.94   10.13   0
  -2  -5  42  152.72   11.10   0
   1  -4  56  144.63   11.67   0
   1   0  25   -0.22    5.97   0
   2  -4  57    4.78   10.68   0
  -3  -5  29   -3.77    8.46   0
  -2  -2  39    9.56    7.71   0
  -2  -1  32 1239.13   17.92   0
   1  -1  41    5.16    7.94   0
   2  -1  39    3.96    7.01   0
  -3  -3  33   -4.63    9.07   0
  -3  -1  13   13.39    6.45   0
  -3  -1  16 2131.55   24.27   0
  -2  -3  43   11.08    8.11   0
  -1  -1  39    5.86    8.47   0
  -3  -4  34  176.23   11.24   0
  -3  -1  10 1146.07   19.28   0
  -3  -1  19   16.21    7.25   0
  -1  -4  51   -5.71   10.70   0
  -1  -2  46  167.05   11.50   0
  -1   0  26 1218.04   18.14   0
   0  -4  55   -3.10    9.77   0
  -3  -5  32  234.20   11.78   0
  -2  -1  35   10.25    8.44   0
  -1  -3  50  231.54   12.59   0
   2  -2  49    0.67    8.68   0
  -3  -3  36  346.74   13.14   0
  -3  -1   7   17.68    6.12   0
  -2  -5  45   -2.25    9.15   0
  -2  -2  42  446.86   13.57   0
  -2   0  16 3023.79   29.11   0
   0  -1  43   -0.72    8.21   0
   0   0  30  152.83    8.65   0
   1  -3  55   -3.08    9.74   0
   1   0  28 1388.74   21.49   0
  -2   0  13   -0.66    5.37   0
  -2   0  19    0.38    6.85   0
  -1   0  29    3.32    6.23   0
  -3  -4  37    6.77    9.04   0
  -2  -4  47   -0.51    9.29   0
  -2  -3  46   60.93    9.20   0
  -1  -1  42  372.77   12.67   0
   1  -4  59  -11.34    9.64   0
   1  -1  44  478.06   13.91   0
   2  -3  56  238.30   12.42   0
  -3  -5  35    3.69    9.30   0
  -2   0  22 1953.12   22.38   0
   2  -4  60  129.28   11.96   0
   2  -1  42  362.11   13.30   0
  -3  -1  28  760.08   14.64   0
  -2  -1  38  348.87   11.45   0
  -1  -4  54   76.58   10.07   0
  -1  -2  49   12.38   10.06   0
   0  -4  58   79.40   11.10   0
   0   0  33    4.33    6.81   0
  -3  -4  40  160.54   11.84   0
  -2  -2  45   -2.17    9.82   0
  -2   0  25   -2.77    6.25   0
  -1  -3  53   -0.43   10.35   0
  -1   0  32 1869.67   21.63   0
   1   0  31   -4.36    6.27   0
  -3  -5  38   54.05    9.92   0
   0  -1  46  119.45    9.95   0
   2  -2  52  216.35   12.15   0
  -3  -2  38   94.02    9.14   0
  -3  -1  31   14.33    7.10   0
  -2  -4  50  111.03   10.37   0
  -2  -3  49   -1.77    8.78   0
  -2   0  28 1142.29   17.17   0
  -1  -1  45   -6.06    9.00   0
   0  -2  53    2.24    9.68   0
   1  -3  58  121.94   12.11   0
  -4  -3  23    0.44    8.76   0
  -2  -1  41    8.87    7.68   0
  -3  -4  43    2.07   10.03   0
  -3  -1  34  592.99   14.11   0
  -1  -4  57  -10.76   10.40   0
  -1   0  35   -1.48    6.39   0
   0   0  36  615.34   13.79   0
   1  -1  47   -2.40    8.24   0
  -4  -3  26  174.16   10.61   0
  -4  -2  16  776.32   16.08   0
  -4  -2  19   -0.32    7.29   0
  -4  -2  22  381.26   12.30   0
  -3  -2  41   -0.76    9.34   0
  -2  -2  48  329.33   12.17   0
  -2   0  31    5.39    6.59   0
   2  -3  59    1.27    9.02   0
   2  -1  45    5.05    8.21   0
  -4  -2  13   -0.33    7.32   0
  -4  -2  25    2.23    8.07   0
  -1  -3  56  167.99   11.31   0
  -4  -3  29    5.96    8.76   0
  -2  -4  53    6.72    9.22   0
  -2  -3  52  175.18   11.41   0
  -2  -1  44  383.69   13.27   0
  -1  -1  48  385.44   13.12   0
   0  -1  49   13.86    8.98   0
  -4  -2  28  475.82   13.24   0
  -3  -1  37    2.00    7.65   0
  -2   0  34  300.64   10.60   0
  -1   0  38  268.43   10.40   0
   0  -2  56  118.79   11.54   0
   0   0  39   -7.65    7.55   0
  -4  -3  32  302.65   12.48   0
  -3  -4  46   65.26   10.34   0
  -3  -2  44  269.63   11.97   0
   0  -3  60  176.73   11.49   0
   1  -3  61  -10.58   10.48   0
  -4  -2  31    2.16    7.92   0
  -3   0  21   -5.63    5.83   0
  -3   0  24 1685.37   20.74   0
  -2  -2  51  -12.00    8.43   0
  -1  -2  55   11.85    9.61   0
   1  -2  57    1.82    9.00   0
   1  -1  50  313.56   12.52   0
   1   0  37    2.64    6.73   0
  -4  -3  35    3.76    9.08   0
  -3  -1  40  531.83   13.98   0
  -3   0  27   -0.22    7.48   0
  -2  -1  47   -3.22    9.27   0
  -2   0  37   -2.98    6.86   0
  -4  -4  33   -2.00    8.72   0
  -4  -2  34  193.36   11.44   0
  -4  -1  21   13.37    7.46   0
  -3  -3  48  190.23   10.92   0
  -2  -3  55   -6.06    9.45   0
  -1  -3  59    1.00    8.77   0
  -4  -1  18  766.40   14.81   0
  -4  -1  24  690.70   14.16   0
  -3  -2  47    6.53    9.55   0
  -3   0  12 1952.81   23.71   0
   0  -1  52  360.49   12.69   0
   0   0  42  840.50   16.34   0
  -4  -4  36  139.66   10.57   0
  -4  -3  38  142.06   10.76   0
  -4  -1  15    7.32    6.63   0
  -4  -1  27    5.61    6.79   0
  -3  -1  43    8.54    9.40   0
  -2   0  40  941.45   16.72   0
  -4  -2  37    6.50    9.29   0
  -4  -1  30  207.18   10.21   0
  -3   0  33   -4.26    7.50   0
  -2  -2  54   46.64    9.75   0
   0  -3  63   10.29   10.03   0
   0  -2  59    0.29   10.43   0
   1   0  40  777.22   16.25   0
  -4  -1  12 1151.04   18.91   0
  -3  -3  51    3.35    9.48   0
  -2  -1  50  198.34   11.84   0
   1  -3  64   77.69   10.00   0
  -4  -4  39   -3.60    8.82   0
  -4  -3  41   -6.61    9.00   0
  -4  -1  33   10.05    8.20   0
  -3   0   9   -0.43    5.86   0
  -2  -3  58  127.61   10.75   0
   1  -2  60  179.46   11.42   0
   1  -1  53   -5.49    8.87   0
  -4  -2  40  300.17   12.62   0
  -3  -2  50  195.72   11.06   0
  -3  -1  46   95.45   10.44   0
  -3   0  36  585.62   13.25   0
  -2   0  43   -8.26    8.78   0
   0  -1  55    1.02    9.75   0
   0   0  45    6.01    8.16   0
  -4  -1   9   19.89    6.96   0
  -3   0  39   -2.55    8.65   0
  -2  -2  57   -6.09    9.47   0
  -1   0  47    6.09    8.52   0
   1   0  43    1.60    7.19   0
  -4  -3  44  142.98   11.11   0
  -4  -2  43   -4.19    9.02   0
  -2  -1  53   -2.28    8.17   0
   0  -2  62   72.96   10.43   0
  -3  -2  53    0.82    9.35   0
  -3  -1  49  -11.04    9.37   0
  -2   0  46  317.38   12.45   0
  -1   1  22  457.87   12.13   0
  -1   1  25   -6.70    5.56   0
  -2   1  24 1895.54   22.03   0
  -1  -1  57    2.22   10.05   0
  -1   1  19   -3.22    5.39   0
  -1   1  28 1377.73   19.09   0
   0   0  48  506.12   14.19   0
   1  -1  56  232.34   12.09   0
  -4  -3  47    1.13    9.44   0
  -4   0  20 1322.63   18.87   0
  -4   0  23   -1.04    6.13   0
  -2   1  21   23.70    6.18   0
  -2   1  27    5.99    6.04   0
   1  -2  63   -5.53    9.59   0
  -4  -1  42  250.37   10.87   0
  -2  -2  60  116.42   10.84   0
  -2   1  18 1215.32   18.71   0
  -2   1  30  660.02   13.48   0
  -1   0  50  321.65   12.71   0
   0  -1  58  175.40   11.30   0
   1   0  46  136.12    9.45   0
  -4   0  17    0.09    6.56   0
  -4   0  32  506.96   12.65   0
  -2  -1  56  231.97   11.49   0
  -2   0  49   -7.68    9.33   0
  -2   1  33   13.03    7.13   0
  -3  -2  56  130.42   10.22   0
  -3   0  45   -8.27    7.82   0
   0   1  23   -0.31    5.66   0
   0   1  26 1156.49   18.87   0
  -5  -2  27   -3.08    7.71   0
  -5  -2  30  205.89   11.80   0
  -4  -1  45    6.41    7.73   0
  -2   1  15   -3.00    6.39   0
  -1  -2  64   68.23    9.95   0
  -1   1  37   -1.45    7.34   0
   0  -2  65    0.80    8.86   0
   0   0  51   -3.33    8.35   0
   0   1  29   -4.19    6.16   0
  -4   0  14  334.27   11.01   0
  -4   0  38  160.90   10.24   0
  -3   1  26  564.78   13.23   0
  -1  -1  60  196.54   11.68   0
   0   1  32 1855.10   22.98   0
  -5  -2  33   -6.67    8.67   0
  -3   0  48  386.73   12.98   0
  -3   1  23    3.99    6.12   0
  -3   1  29    5.93    6.49   0
  -2   0  52  229.58   11.55   0
  -1   0  53   -2.02    9.57   0
   1   0  49    0.77    8.38   0
  -5  -2  36  190.63   11.09   0
  -4  -1  48  157.93   11.17   0
  -3  -1  55   -0.25    8.68   0
  -3   1  20 1490.34   19.11   0
  -3   1  32 1274.96   17.65   0
  -2  -1  59    4.17    9.62   0
  -2   1  39    3.84    6.91   0
  -1   1  40  834.55   15.81   0
   0  -1  61    5.23    9.68   0
   0   1  35   -3.67    6.75   0
  -5  -1  23   -7.05    7.32   0
  -5  -1  29   -1.72    8.37   0
  -5  -1  32  439.00   13.16   0
  -4   0  41   -0.42    7.48   0
  -3   1  35    0.71    6.80   0
  -5  -2  39    1.28    8.80   0
  -5  -1  20  527.29   13.55   0
  -4   0  11   -1.89    6.26   0
  -3   1  17   11.74    5.80   0
   0   0  54   43.84    9.50   0
  -5  -1  35    2.34    7.65   0
  -4   0  44  470.32   13.44   0
  -3   0  51   -9.68    9.84   0
  -3   1  38  366.72   11.38   0
  -1   1  43   -0.80    7.78   0
   0   1  38  276.80   10.78   0
  -5  -1  17    4.11    6.77   0
  -5  -1  38  154.84   10.83   0
  -4  -1  51    8.23    8.73   0
  -3  -1  58  128.45   10.70   0
  -1  -1  63   -4.54    9.35   0
  -1   0  56  239.61   12.40   0
  -5  -2  42  112.53   10.22   0
  -3   1  41   -3.90    8.52   0
  -5  -1  41    9.47    9.07   0
  -4   0  47   -1.22    9.20   0
  -3   1  14 1592.31   20.51   0
   0  -1  64   99.88   10.87   0
   0   1  41   -0.88    7.43   0
  -5  -2  45    6.31    9.03   0
  -4  -1  54   66.83   10.53   0
  -4   1  25    5.54    7.28   0
  -4   1  28  752.77   14.08   0
  -4   1  31   12.25    7.77   0
  -1   1  46  129.91    9.88   0
  -5   0  25   -2.94    7.71   0
  -5   0  28  707.68   14.42   0
  -5   0  31   -5.55    8.31   0
  -4   0   8 1536.96   22.08   0
  -4   1  34  590.79   13.96   0
  -3   1  44  367.26   11.76   0
   0   0  57    3.94    8.94   0
  -5  -1  44  187.30   11.29   0
  -5   0  22  273.17   10.50   0
  -5   0  34  325.00   11.08   0
  -4   0  50  215.90   11.63   0
  -4   1  37   -4.43    8.19   0
  -3  -1  61   -6.73    9.17   0
  -1   0  59    5.08    9.07   0
   0   1  44  493.74   13.55   0
  -5   0  37    4.82    7.33   0
  -5  -1  47    6.30    9.64   0
  -5   0  19    0.52    6.93   0
  -4   1  40  530.00   12.94   0
  -3   0  57   -0.31    9.23   0
  -3   1  11   20.69    6.40   0
  -3   1  47   12.61    7.75   0
  -1   1  49    2.15    7.22   0
  -4  -1  57    5.60    8.28   0
   1   1  30  607.50   15.00   0
   1   1  33    7.05    6.30   0
  -4   0  53   12.33    9.62   0
  -2   0  61   -3.79    9.61   0
   0   0  60  206.44   12.71   0
   0   1  47   -1.54    7.53   0
  -5   0  16  735.06   15.14   0
  -3   1  50  200.76   10.23   0
  -1   0  62   65.75   10.41   0
   1   1  36  947.33   17.82   0
  -5  -1  50  101.88    9.38   0
  -4   1  46  101.63   10.39   0
  -1   1  52  368.76   12.88   0
  -3   0  60  131.53   10.07   0
  -2   1  54  137.15   11.16   0
   1   1  39   -1.32    6.65   0
  -4   0  56   95.95    9.95   0
  -3   1  53    4.86    9.09   0
   0   1  50  320.45   12.04   0
  -5   0  49    0.77    9.16   0
  -5   1  27    6.10    7.71   0
  -5   1  36  545.59   13.99   0
  -4   0   5    4.54    5.63   0
  -4   1  13   10.99    6.27   0
  -4   1  49   -0.31    9.12   0
  -5   0  13    1.16    6.20   0
  -5   1  24  710.19   14.54   0
  -3   2  31    5.25    6.62   0
  -3   2  34  637.07   13.88   0
  -2   0  64  128.46   11.27   0
  -2   2  29   -3.19    6.11   0
  -2   2  32  652.26   13.40   0
  -1   1  55    1.55    8.65   0
  -6  -1  31    8.11    7.63   0
  -6  -1  34  174.00   10.69   0
  -5   1  39   -1.46    7.57   0
  -3   0  63   -2.97    9.34   0
  -3   2  37   -3.59    8.19   0
  -2   1  57   -6.75    9.49   0
  -2   2  26 1313.38   17.97   0
  -1   0  65   -1.81    9.60   0
  -6  -1  37    8.90    8.02   0
  -5   0  52  214.27   11.35   0
  -5   1  21   14.40    7.20   0
  -5   1  42  235.70   11.41   0
  -4   0  59   -2.68    8.35   0
  -3   1  56  221.98   11.62   0
  -3   2  25    6.59    6.14   0
  -3   2  40  517.60   13.27   0
  -6  -1  40  216.69   11.47   0
  -2   2  23   -3.62    5.72   0
   0   1  53   -1.31    8.04   0
  -5   1  45  -10.52    9.25   0
  -4   2  30  227.56    9.96   0
  -4   2  33   -2.00    7.55   0
  -3   2  22  501.17   11.89   0
  -3   2  43   -3.28    8.53   0
  -1   2  30  602.33   13.67   0
  -1   2  33    5.65    6.67   0
  -6  -1  43    1.21    7.83   0
  -6   0  30  158.38   10.36   0
  -6   0  33    8.25    8.58   0
  -6   0  36  185.52   10.49   0
  -5   1  18  782.25   15.09   0
  -4   1  55  -11.66    9.65   0
  -4   2  27   -5.30    7.63   0
  -4   2  39   -3.51    8.55   0
  -1   1  58  195.18   11.56   0
  -1   2  36  973.71   16.08   0
  -6   0  27    1.34    8.03   0
  -6   0  39    2.30    8.43   0
  -5   0  55    4.60    9.38   0
  -5   1  48  161.01   10.89   0
  -4   1  10 1124.36   17.95   0
  -3   2  46  151.66   10.15   0
  -2   1  60  187.50   11.18   0
  -2   2  20 3570.08   29.26   0
  -1   2  27   -2.15    5.33   0
  -1   2  39    8.33    7.26   0
  -6   0  24  651.03   14.69   0
  -6   0  42  157.71   10.72   0
  -4   2  24 1892.71   20.70   0
  -3   2  19    5.95    5.69   0
  -2   2  47    4.08    8.02   0
  -1   2  42  349.10   11.16   0
  -6   0  45    4.22    8.49   0
  -5   1  51   -8.91    9.50   0
  -4   1  58  127.44   10.59   0
  -4   2  21   -1.97    6.77   0
  -4   2  45  -10.40    7.56   0
  -6   0  21    0.52    7.29   0
  -5   1  15    3.10    6.68   0
  -3   1  62   57.77   10.20   0
  -2   2  50  235.79   11.08   0
  -1   1  61    8.72    8.81   0
  -1   2  45   -6.45    7.64   0
  -6   0  48  176.63   10.89   0
  -5   2  32  796.97   15.19   0
  -5   2  35    6.51    8.20   0
  -4   2  48  337.43   11.59   0
  -3   2  16 2073.58   22.69   0
  -2   1  63    5.11    8.74   0
  -2   2  17    3.32    5.37   0
  -6   1  29    0.57    8.09   0
  -6   1  32  445.81   12.39   0
  -6   1  35   -3.83    7.40   0
  -6   1  38  147.96   10.36   0
  -5   1  54   76.41   10.28   0
  -5   2  29  -10.58    8.03   0
  -5   2  38  104.62    9.00   0
  -6   1  41    1.14    8.77   0
  -5   2  41    4.72    7.60   0
  -4   1  61   -5.62    8.82   0
  -4   2  18 1077.69   16.26   0
  -4   2  51   -1.27    9.08   0
  -2   2  53   -5.56    9.09   0
  -1   2  48  364.05   12.36   0
  -6   1  26  269.05   10.41   0
  -6   1  44  170.72   10.67   0
  -5   2  44  260.64   11.78   0
  -5   1  12 1205.17   18.37   0
  -5   1  57   -8.18    8.74   0
  -4   1   7   20.54    5.23   0
  -3   2  55    8.26    9.53   0
  -1   1  64   86.80    9.96   0
  -6   1  23    5.34    7.63   0
  -5   2  47   -3.80    7.86   0
  -1   2  51   10.11    8.32   0
   0   2  34  276.23   10.52   0
   0   2  37   -1.53    6.44   0
  -4   2  15    2.27    6.45   0
  -2   2  14  349.54   10.71   0
  -2   2  56  121.67   10.59   0
   0   2  31    0.68    6.11   0
   0   2  40  900.32   16.84   0
  -5   2  50  201.19   11.75   0
  -3   2  13   33.96    6.01   0
  -3   2  58  113.17   10.77   0
  -6   1  20  550.76   13.54   0
  -4   2  57  -17.95    9.25   0
  -1   2  54  119.51   10.21   0
   0   2  28 1129.88   18.65   0
   0   2  43    3.88    7.33   0
  -5   2  53    3.73    9.42   0
  -6   2  31   -0.90    8.43   0
  -6   2  34  186.10   11.04   0
  -3   3  36  906.11   15.95   0
  -2   2  59    4.51    8.41   0
   0   2  46  288.46   11.71   0
  -6   2  43   -2.46    8.83   0
  -5   2  17    3.40    6.81   0
  -4   3  32  983.37   16.35   0
  -4   3  35    4.29    7.16   0
  -4   3  38  199.96    9.69   0
  -4   3  41   -5.04    8.75   0
  -3   2  61    4.04    9.43   0
  -3   3  33   -0.34    6.47   0
  -3   3  39   -2.04    6.85   0
   0   2  25   -0.57    5.42   0
  -6   1  17    6.26    6.81   0
  -6   2  28  478.50   12.24   0
  -5   1   9   24.48    6.56   0
  -4   3  29    5.00    7.36   0
  -3   3  30  329.67   10.44   0
  -1   2  57    0.86    8.30   0
  -6   2  46  118.12    9.90   0
  -4   3  44  317.85   11.32   0
  -3   3  27   -1.56    7.35   0
  -6   2  25    2.17    6.70   0
  -6   2  49    5.72    8.94   0
  -5   3  37   -6.63    8.57   0
  -4   3  26  725.29   14.41   0
  -4   3  47   -2.35    8.99   0
  -2   2  62   67.63   10.30   0
  -2   3  34  646.44   14.03   0
  -2   3  37    1.38    7.42   0
  -2   3  40  527.27   13.28   0
  -7   1  37    0.11    9.49   0
  -5   3  31   -2.69    8.22   0
  -5   3  40  528.92   12.80   0
  -4   1   4 1308.98   20.67   0
  -3   2  10 2025.92   22.87   0
  -3   3  48  231.85   10.26   0
  -2   2  11   -2.11    5.18   0
  -2   3  43   -6.98    8.12   0
  -7   1  34  176.35   10.54   0
  -7   1  40  222.61   10.90   0
  -6   2  22  393.16   12.10   0
  -6   2  52  138.06   10.65   0
  -5   2  14  405.32   11.45   0
  -5   3  43   -5.69    7.85   0
  -4   3  50  218.18   11.37   0
  -3   3  24 1163.56   16.63   0
  -7   1  31   -6.10    8.42   0
  -7   1  43    1.05    8.89   0
  -6   1  14  428.92   12.28   0
  -5   3  28  433.72   11.59   0
  -5   3  46   68.12    9.19   0
  -4   3  23   15.31    6.48   0
  -3   3  51    2.30    9.17   0
  -2   3  46  153.98   10.15   0
  -7   1  28  169.06   10.20   0
  -5   3  49   10.13    9.52   0
  -5   3  25   -3.08    6.57   0
  -3   3  21   -1.61    6.46   0
  -3   3  54  115.30   10.29   0
  -2   2  65    9.47    7.90   0
  -2   3  49    4.94    8.43   0
  -6   2  19    0.53    7.15   0
  -5   3  52  179.51   11.21   0
  -4   3  20  950.35   15.47   0
  -6   3  36  346.60   12.14   0
  -6   3  39   -5.07    8.67   0
  -2   3  52  345.61   12.71   0
  -7   2  33    9.80    8.82   0
  -7   2  36  187.69   10.68   0
  -7   2  39    0.11    8.58   0
  -7   2  42  106.26    9.60   0
  -6   3  33   -7.49    7.38   0
  -6   3  42  188.70    9.98   0
  -6   3  45    7.35    9.39   0
  -5   1   6  370.38   11.81   0
  -3   3  57    4.89    9.29   0
  -7   2  45    0.05    8.20   0
  -5   2  11    1.94    6.73   0
  -5   3  55   -7.70    8.91   0
  -1   3  38  377.41   11.63   0
  -7   2  30  203.40   10.90   0
  -6   2  16  782.55   15.11   0
  -6   3  48  190.78   11.08   0
  -4   3  59   -2.22    8.74   0
  -3   3  18 1374.12   17.86   0
  -2   3  22  464.68   11.36   0
  -2   3  55    5.70    8.45   0
  -1   3  35    0.54    6.71   0
  -1   3  41    2.34    7.03   0
  -7   2  27    5.07    8.38   0
  -5   3  19   10.70    7.33   0
  -4   3  17   -4.95    5.67   0
  -3   2   7    2.85    4.94   0
  -1   3  32 1260.12   18.46   0
  -1   3  44  356.25   11.83   0
  -6   3  51  -11.56    8.11   0
  -5   3  58  108.63    9.77   0
  -3   3  60  187.63   10.85   0
  -1   3  47   -6.31    7.45   0
  -6   3  24  650.56   14.05   0
  -1   3  29    7.77    6.36   0
  -7   2  24  489.51   13.05   0
  -2   3  58  122.95    9.83   0
  -1   3  50  187.05   11.01   0
  -4   4  37    3.80    7.89   0
  -2   3  19    6.59    5.29   0
  -7   3  38  173.53   10.44   0
  -7   3  41    0.11    8.79   0
  -6   2  13    5.44    6.61   0
  -6   3  21    8.91    7.12   0
  -5   4  36  358.12   12.04   0
  -5   4  39   -2.99    8.57   0
  -5   4  42  216.91   11.22   0
  -4   4  34  293.60   11.37   0
  -4   4  43   -1.73    7.43   0
  -3   3  15   -3.72    5.54   0
  -3   3  63    1.40    8.03   0
  -1   3  26  530.68   12.70   0
  -7   3  35  -10.58    8.85   0
  -5   2   8 2256.59   24.08   0
  -5   4  33   15.49    8.00   0
  -5   4  45   -2.75    9.06   0
  -4   2   6  807.88   14.97   0
  -4   4  31    7.12    7.55   0
  -7   2  21    3.26    7.22   0
  -7   3  32  324.51   11.18   0
  -5   4  30  334.78   11.64   0
  -5   4  48  260.57   11.86   0
  -3   4  38  179.81   10.01   0
  -3   4  41    3.98    7.93   0
  -2   3  61    8.20    7.77   0
  -7   3  29    0.57    8.21   0
  -4   4  28  692.69   14.07   0
  -3   4  44  317.24   10.88   0
  -6   4  35   -1.26    9.09   0
  -6   4  38  113.94   10.05   0
  -6   4  41   10.33    8.87   0
  -5   4  27   18.25    8.04   0
  -5   4  51    4.60    9.07   0
  -4   4  52  177.69   11.27   0
  -3   4  47   16.72    8.78   0
  -7   3  26  188.13   10.23   0
  -6   4  47    0.24    9.12   0
  -5   1   3    0.49    6.14   0
  -3   4  50  225.05   11.43   0
  -2   3  16 2058.64   22.08   0
  -1   3  23    2.92    5.81   0
  -7   2  18  177.44    9.69   0
  -6   4  32  369.08   11.41   0
  -5   4  54   76.77    9.21   0
  -4   4  25   -8.19    6.53   0
  -4   4  55   -5.34    8.52   0
  -3   4  29   -2.20    6.23   0
  -2  -4  38  127.96   10.12   0
  -4  -4   9    2.51    7.82   0
  -4  -3   5   11.68    6.51   0
  -4  -3   8  593.80   13.33   0
  -3  -6  24  237.73   10.01   0
  -2  -3  37    0.42    7.87   0
  -2  -2  33   -3.84    7.41   0
   0  -1  31    3.92    5.93   0
   1  -2  39    1.52    6.51   0
  -4  -4  12  280.58   10.79   0
  -4  -3   2  259.16    9.90   0
  -4  -3  11    7.34    6.56   0
  -3  -4  31   -1.82    8.10   0
  -3  -1  16 2131.55   21.52   0
  -2  -6  37   -1.31    7.43   0
  -2  -5  39   -5.27    8.83   0
  -2  -1  26  563.39   12.13   0
  -1  -6  44  142.03   10.11   0
  -4  -3  14  402.98   11.62   0
   1  -5  51    1.23    8.57   0
  -4  -4  15    4.92    7.54   0
  -3  -6  27    0.12    8.17   0
  -1  -5  46   63.77    9.23   0
   0  -3  45    2.59    6.73   0
   1  -3  46  157.50    9.80   0
  -4  -3  17    7.31    7.26   0
  -3  -5  32  238.31   10.57   0
  -3  -1  19   19.44    6.61   0
  -2  -4  41    4.86    8.52   0
   0  -5  50  101.57    9.03   0
   1  -4  50  218.09   11.87   0
  -4  -4  18  217.31   10.48   0
  -4  -2   4  924.35   15.71   0
  -4  -2   7    1.03    6.08   0
  -4  -2  10  394.69   11.18   0
  -3  -4  34  189.39   10.29   0
  -3  -2  29    4.45    7.17   0
   0  -4  49    0.68    8.06   0
   0  -2  41    3.42    7.09   0
  -4  -5  13    3.24    6.89   0
  -4  -3  20  479.59   12.25   0
  -4  -2  13    0.71    6.63   0
  -3  -3  33    3.28    7.09   0
  -2  -5  42  165.38   10.20   0
  -2  -3  40  507.97   12.20   0
  -2  -2  36  409.51   11.07   0
  -2  -1  29   -0.06    5.90   0
  -4  -5  16  363.19   11.40   0
  -4  -4  21    5.07    8.02   0
  -4  -2   1   -0.39    5.95   0
  -3  -1  22  376.89   10.13   0
  -4  -2  16  785.39   13.65   0
  -3  -5  35    3.65    8.36   0
   0  -1  34  994.19   15.84   0
  -4  -5  19    5.08    7.37   0
  -4  -4  24  343.01   11.70   0
  -4  -3  23    4.44    6.50   0
  -3  -2  32  788.38   14.46   0
  -2   0  13   -1.92    4.78   0
  -1  -4  48  249.93   11.13   0
   1  -2  42  330.94   11.10   0
  -4  -2  19   -2.30    5.84   0
  -3  -4  37   -6.93    7.96   0
  -3  -1  25   -2.24    6.36   0
  -2  -4  44  257.62   10.58   0
   0  -3  48  223.02   10.75   0
   1  -5  54   60.07    8.45   0
  -4  -5  22   97.06    8.57   0
  -2  -5  45   -0.80    8.29   0
  -2  -3  43    5.07    8.17   0
  -2  -2  39    2.22    7.68   0
  -2  -1  32 1282.24   16.70   0
  -2   0  16 3108.09   26.48   0
   0  -5  53   -4.62    9.19   0
  -4  -4  27   -2.23    7.64   0
  -3  -5  38   70.05    9.22   0
  -1  -3  47   -1.02    8.05   0
   1  -3  49   -0.26    7.23   0
  -4  -5  25   16.82    7.86   0
  -1  -2  43    6.84    6.26   0
  -1  -1  36  990.55   15.51   0
   0  -4  52  152.86   10.53   0
   0  -2  44  765.37   14.43   0
   1  -4  53    5.97    7.95   0
  -4  -2  25   -3.82    7.29   0
  -3  -4  40  156.42   10.08   0
  -3  -3  39    3.71    8.62   0
  -3  -2  35   12.98    6.77   0
  -3  -1  28  761.21   13.23   0
  -2   0  19   -2.25    4.98   0
  -4  -4  30   94.78    9.26   0
  -2  -4  47   -2.92    8.39   0
  -1   0  23   -3.09    4.69   0
   0  -1  37    6.22    6.06   0
  -4  -5  28   97.05    8.43   0
  -4  -1   6  396.34   10.74   0
  -4  -1   9   27.30    5.33   0
  -4  -1  12 1147.29   15.90   0
  -4  -1  15    5.62    6.32   0
  -2  -1  35   -3.42    5.94   0
  -1  -4  51   -7.81    8.83   0
   1  -1  35    1.03    5.11   0
  -4  -2  28  487.47   12.08   0
  -2  -3  46   61.89    9.11   0
  -2   0  22 2027.44   20.71   0
   1  -2  45    6.23    7.02   0
  -4  -3  32  315.43   11.37   0
  -4  -1   3    1.82    5.26   0
  -3  -2  38  103.52    8.86   0
  -3  -1  31    8.57    6.26   0
   0  -3  51    2.48    7.77   0
  -4  -1  21   -2.49    6.83   0
  -3  -4  43    0.85    7.90   0
  -3  -3  42  174.60   10.21   0
  -3   0  12 2003.06   21.18   0
  -1  -3  50  210.81   10.60   0
  -1  -2  46  153.82    9.51   0
  -1  -1  39   -2.80    6.30   0
  -4  -2  31   -0.62    7.73   0
  -3   0  15    1.58    4.91   0
  -2   0  25    3.38    5.20   0
   0  -4  55   -2.80    9.01   0
   0  -2  47    1.14    7.19   0
  -4  -3  35   -8.97    8.33   0
  -4  -1  24  734.05   13.49   0
  -3   0  18  560.61   11.93   0
  -2  -4  50  103.95    9.29   0
  -2  -1  38  378.52   10.30   0
  -4  -4  36  152.97    9.39   0
  -4  -1   0 1386.76   19.32   0
  -3  -1  34  550.38   11.91   0
  -1  -4  54   72.64    9.14   0
   0  -1  40  828.04   15.04   0
  -5  -3  13    0.03    6.62   0
  -5  -3  16  438.34   12.07   0
  -3  -2  41    4.74    6.87   0
  -3   0  21    0.75    5.08   0
  -5  -3  19   -2.67    7.60   0
  -4  -2  34  187.09    9.06   0
  -4  -1  27    3.63    7.25   0
  -3  -4  46   79.71    8.79   0
  -3  -3  45    3.56    8.00   0
  -2   0  28 1176.37   15.84   0
   1  -1  38  267.63   10.35   0
  -5  -4  17   -2.95    7.37   0
  -4  -3  38  154.82    9.65   0
  -3   0  24 1717.42   18.71   0
  -5  -3  22  133.34    9.27   0
  -5  -2   9   -5.31    6.34   0
  -5  -2  12  427.38   11.49   0
  -5  -2  15    1.75    6.85   0
  -5  -2  18  183.81    9.32   0
  -4  -4  39   -7.02    7.82   0
  -3  -1  37    2.04    6.38   0
  -1  -3  53   -5.44    8.31   0
  -1  -2  49   -0.19    7.50   0
   0  -3  54   97.46    8.92   0
   0   0  27    1.71    5.04   0
  -5  -3  25    5.71    8.06   0
  -4  -1  -3   24.71    5.80   0
  -4  -1  30  209.54    8.68   0
  -5  -4  23    5.81    7.67   0
  -5  -2  21   -2.72    6.31   0
  -4  -2  37    3.37    6.83   0
  -3   0  27    6.64    5.51   0
  -2  -2  48  335.37   11.64   0
  -2   0  31    3.09    5.35   0
   0  -4  58   71.29    9.80   0
   0  -2  50  230.43   10.28   0
  -5  -4  26  171.86   10.01   0
  -5  -2  24  498.34   12.31   0
  -4  -3  41    7.69    7.84   0
  -3  -3  48  180.79    9.84   0
  -2  -3  52  156.46    9.57   0
  -1   0  32 1750.95   19.60   0
   0  -1  43    0.05    6.27   0
  -5  -3  28  198.70   10.21   0
  -4  -1  33    3.75    6.49   0
  -1  -4  57    3.51    8.12   0
  -5  -2  27    0.06    7.43   0
  -4  -2  40  272.31   11.18   0
  -4   0  17    0.49    5.91   0
  -3   0  30  611.81   11.88   0
  -2  -1  44  377.53   11.13   0
   0   0  30  161.07    8.09   0
  -5  -4  29    3.42    7.52   0
  -5  -3  31    3.09    7.44   0
  -4   0  11    0.29    4.75   0
  -4   0  20 1334.13   16.71   0
  -2   0  34  269.70    9.03   0
  -1  -1  45    0.51    5.91   0
  -5  -1  11    7.43    6.19   0
  -5  -1  14  431.03   10.59   0
  -5  -1  17    7.30    5.67   0
  -5  -1  20  520.24   12.19   0
  -4  -1  36  553.43   12.36   0
  -4   0   8 1616.45   18.93   0
  -4   0  23    8.05    6.47   0
  -3  -2  47   11.05    7.02   0
  -1  -3  56  154.91    9.97   0
  -1  -2  52  321.48   11.42   0
  -5  -1  23   -4.92    7.02   0
  -4  -3  44  164.12    9.27   0
  -3   0  33   -5.00    6.43   0
  -2  -2  51   -2.14    8.25   0
  -1   0  35   -0.64    4.91   0
   0  -3  57    4.62    7.15   0
  -5  -3  34  142.06    9.09   0
  -5  -1   8  847.07   14.67   0
  -4   0  26  794.77   13.42   0
  -3  -3  51   -2.67    8.16   0
  -3  -1  43   -0.86    6.49   0
  -2  -3  55    9.48    7.71   0
  -4  -2  43    1.93    7.21   0
  -4   0   5    3.45    4.99   0
   0  -2  53    4.24    7.33   0
  -5  -1   5    0.84    5.73   0
  -4  -1  39    7.38    8.29   0
  -4   0  29    6.09    6.96   0
  -2  -1  47   -1.32    7.67   0
   0  -1  46  122.72    8.32   0
   0   0  33    1.81    5.33   0
  -5  -1  29   -1.97    7.40   0
  -4  -3  47    9.99    7.69   0
  -3  -2  50  195.59    9.87   0
  -3   0  36  580.36   11.72   0
  -1  -1  48  392.44   11.62   0
  -5  -2  36  177.12   10.04   0
  -1   0  38  272.66    9.73   0
  -5  -1  32  422.69   11.29   0
  -4  -2  46  119.20    9.47   0
  -4   0  32  514.49   11.84   0
  -3  -1  46  105.57    7.86   0
  -2  -2  54   50.96    8.06   0
  -1  -3  59   -4.49    8.10   0
  -1  -2  55    8.27    7.67   0
  -5  -1   2  328.99   10.57   0
  -4  -1  42  242.47    9.56   0
  -4   0   2 1375.84   18.64   0
  -2   0  40  899.75   14.22   0
  -5  -2  39    2.72    7.62   0
  -3   0  39    5.55    5.93   0
  -2  -3  58  122.77    8.77   0
  -5  -1  35   -3.35    7.56   0
  -4   0  35   -8.50    7.32   0
  -2  -1  50  179.65    9.89   0
   0   0  36  633.96   13.24   0
  -5   0  16  749.58   12.84   0
  -5   0  19   -1.12    5.54   0
  -1   0  41    1.79    6.22   0
   0  -1  49    2.33    6.55   0
  -6  -2  17    5.24    7.01   0
  -5   0  13    2.36    5.05   0
  -5   0  25   -2.07    6.88   0
  -4  -2  49  -10.84    7.30   0
  -4  -1  45    6.31    8.19   0
  -1  -1  51    0.44    7.15   0
  -6  -2  23    0.43    7.24   0
  -5  -1  38  142.02    9.73   0
  -5   0  10  731.40   13.27   0
  -5   0  28  693.66   13.16   0
  -4   0  38  154.03    8.86   0
  -3   0  42  280.94   10.17   0
  -3   1  17   10.61    5.77   0
  -3   1  20 1490.60   17.76   0
  -2   0  43    2.25    5.77   0
  -2   1  18 1227.71   16.96   0
  -2   1  21   18.35    5.85   0
  -6  -3  27   -0.82    6.62   0
  -6  -2  26  214.52    9.73   0
  -3   1  14 1595.01   18.51   0
  -3   1  23    0.53    5.23   0
  -2  -2  57   -5.65    7.26   0
  -2   1  15    2.06    4.64   0
  -2   1  24 1925.34   20.31   0
  -1  -2  58  126.86    9.50   0
  -6  -2  29    3.63    7.39   0
  -5   0  31    4.34    6.95   0
  -4   0  -1    1.70    4.68   0
   0   0  39    2.62    6.05   0
  -6  -1  19    8.92    7.10   0
  -6  -1  22  170.20    9.03   0
  -5  -2  45    3.48    7.65   0
  -5  -1  41    6.56    7.76   0
  -5   0   7   -3.72    5.83   0
  -4  -2  52  125.26    9.45   0
  -4  -1  48  151.92    9.44   0
  -3  -2  56  113.27    8.88   0
  -2  -1  53    1.94    8.02   0
  -2   1  27   -0.12    5.64   0
  -6  -2  32  202.20    9.46   0
  -6  -1  16  650.60   13.27   0
  -6  -1  25    1.33    7.10   0
  -4   0  41   -0.93    6.48   0
  -3  -1  52  227.54   10.49   0
  -3   1  11   21.59    4.93   0
  -3   1  29    1.29    5.43   0
  -1   0  44  465.77   11.93   0
  -6  -1  13   -2.79    6.47   0
  -6  -1  28  183.26    9.60   0
  -5   0  34  309.91    9.70   0
  -4   1  16 2079.29   20.32   0
  -4   1  19   26.50    5.38   0
  -4   1  22  372.48    9.61   0
  -2   0  46  301.48    9.69   0
  -1  -1  54  133.13    9.19   0
  -6  -2  35   -4.05    7.70   0
  -4   1  25   -0.14    5.33   0
  -3   1  32 1296.73   16.46   0
  -6  -1  31    0.09    7.81   0
  -5  -1  44  162.69    9.28   0
  -5   0   4 1185.37   16.88   0
  -5   0  37   -5.19    7.64   0
  -4   0  44  482.26   12.28   0
  -4   1  13    7.01    4.88   0
  -4   1  28  761.35   12.76   0
  -3   1   8 3274.55   27.37   0
  -2  -2  60  128.74    9.48   0
  -4  -1  51   -3.55    7.60   0
  -4   1  31    4.73    5.95   0
  -3  -1  55  -11.79    7.92   0
  -3   0  48  378.79   11.35   0
  -3   1  35    6.31    5.59   0
  -2  -1  56  208.09    9.96   0
  -1   0  47    0.07    6.57   0
  -1   1  25    1.92    5.01   0
  -5   0  40  238.43   10.14   0
  -2   0  49   -8.91    7.36   0
  -6   0  18  279.71    9.97   0
  -6   0  21   -1.06    6.96   0
  -6   0  24  656.42   13.22   0
  -5  -1  47    4.83    7.30   0
  -4   0  47    2.44    8.03   0
  -4   1  34  562.64   11.48   0
  -2   1  36  973.97   15.00   0
  -1   1  28 1374.99   18.16   0
  -6   0  15   -2.45    6.43   0
  -6   0  27    1.62    6.28   0
  -5   1  21    7.66    6.58   0
  -5   1  24  729.02   12.93   0
  -3   1  38  362.30   10.59   0
  -1  -1  57    4.52    8.29   0
  -5   0   1   -0.51    4.98   0
  -5   0  43   -1.52    7.79   0
  -5   1  27    4.76    5.97   0
  -4   1   7   17.39    5.37   0
  -4   1  37    3.33    6.74   0
  -1   1  31    3.08    5.23   0
  -6  -1  40  237.00   10.10   0
  -6   0  12  384.32   10.74   0
  -6   0  33   -5.72    7.81   0
  -5   1  15    7.98    5.14   0
  -5   1  30  202.55    9.23   0
  -3   0  51   -0.61    8.01   0
  -5  -1  50   89.60    8.11   0
  -3  -1  58  134.53    8.93   0
  -2  -1  59    2.41    8.68   0
  -2   0  52  229.94   10.15   0
  -2   1  39    5.91    6.11   0
   0   0  45   -4.45    5.96   0
  -6   0  36  180.28    9.69   0
  -5   1  12 1209.67   16.13   0
  -5   1  33    2.38    6.31   0
  -4   0  50  203.58    9.27   0
  -4   1  40  531.68   12.06   0
  -1   0  50  312.12   10.67   0
  -1   1  34 1012.73   15.69   0
  -6  -1  43   -5.96    8.07   0
  -6   0   9   -1.93    5.92   0
  -5   0  46  108.86    8.72   0
  -5   1  36  553.95   11.80   0
  -6   0  39    8.87    6.88   0
  -5   1   9   27.03    5.84   0
  -4   1   4 1285.13   17.63   0
  -4   1  43    6.26    7.10   0
  -3   0  54  106.93    8.68   0
  -3   1  44  378.85   10.91   0
  -2   1  42  354.35    9.98   0
  -5   0  49    2.57    8.16   0
  -5   1  39    5.54    7.74   0
  -1   1  37   -1.69    5.62   0
  -7  -1  21   -1.61    6.65   0
  -7  -1  24  236.65    9.94   0
  -7  -1  27   -0.26    6.86   0
  -6   0  42  156.88    9.60   0
  -3  -1  61    8.07    7.83   0
  -2   0  55   10.25    7.52   0
  -7  -1  30   56.50    7.54   0
  -6   1  20  558.51   12.10   0
  -6   1  29    1.79    6.85   0
  -2  -1  62   66.37    9.21   0
  -1   0  53    2.94    6.47   0
  -7  -1  33   -5.91    6.85   0
  -6   1  17    6.05    6.20   0
  -6   1  32  439.32   11.53   0
  -5   1   6  386.03   10.31   0
  -5   1  42  264.03    9.47   0
  -4   1  46   99.71    9.18   0
  -3   1  47    1.63    6.96   0
  -2   1  45   -2.77    6.72   0
  -6   0  45   -7.74    7.92   0
  -1   1  40  798.62   14.37   0
  -7   0  23    2.37    7.31   0
  -7   0  26  226.46    9.87   0
  -6   1  14  447.47   11.08   0
  -6   1  35   -7.32    6.52   0
  -5   0  52  194.57    9.22   0
  -4   0  56   99.11    8.69   0
  -3   0  57   -7.19    7.24   0
  -7   0  20  186.51    9.01   0
  -7   0  29    2.78    7.53   0
  -5   1  45   -3.41    8.22   0
  -4   2  24 1993.95   19.64   0
  -4   2  27   -2.66    6.40   0
  -7   0  17   -2.18    6.77   0
  -7   0  32  283.33   10.55   0
  -6   1  38  164.37    8.45   0
  -4   1   1   31.32    5.55   0
  -4   2  21    0.15    5.22   0
  -4   2  30  237.26    9.17   0
  -3   1  50  209.95    9.81   0
  -6   1  11    3.58    6.12   0
  -4   2  18 1117.45   15.30   0
  -4   2  33   -4.35    6.49   0
  -3   2  22  498.43   10.68   0
  -3   2  25    7.94    5.23   0
  -3   2  28 1432.13   16.83   0
  -1   1  43    4.06    5.88   0
  -7   0  14  150.14    8.55   0
  -6   1  41   12.98    7.74   0
  -5   0  55    2.92    7.39   0
  -5   1  48  176.58    9.57   0
  -5   2  23    2.01    6.17   0
  -5   2  26  677.96   12.15   0
  -5   2  29    2.16    6.60   0
  -3   2  19   -1.31    5.77   0
  -3   2  31    2.76    5.35   0
  -7   0  38   46.89    7.82   0
  -5   1   3    0.04    5.09   0
  -5   2  20  633.85   12.32   0
  -5   2  32  758.91   13.45   0
  -4   2  15    9.10    5.65   0
  -4   2  36  427.09   11.22   0
  -3   0  60  137.75    9.41   0
  -4   0  59   12.67    7.77   0
  -4   1  52  247.38   10.35   0
   0   1  29   -1.73    4.41   0
  -6   1   8  875.46   14.56   0
  -6   1  44  178.78    9.40   0
  -5   2  17   -1.45    5.20   0
  -5   2  35   -2.21    6.40   0
  -4   2  39   -0.07    6.84   0
  -3   1  53    6.27    7.21   0
  -3   2  16 2102.78   20.46   0
  -2   1  51    6.13    6.92   0
  -7   1  22  174.13    9.16   0
  -7   1  25   -1.58    7.45   0
  -7   1  28  183.39    9.49   0
  -7   1  31    9.96    7.63   0
  -5   1  51    2.04    7.49   0
  -5   2  38  101.77    8.31   0
  -1   1  46  123.05    7.89   0
  -4   2  12  781.74   12.90   0
  -7   1  19    9.39    6.06   0
  -6   1  47   -4.21    7.38   0
  -6   2  25   -2.26    5.91   0
  -6   2  31    0.66    6.90   0
  -5   2  41   -4.50    7.84   0
  -4   1  55   -8.56    8.35   0
  -4   2  42  459.22   11.12   0
  -3   2  13   34.37    6.01   0
  -3   2  40  503.07   11.20   0
   0   1  35    0.68    5.14   0
  -7   1  16  686.44   13.34   0
  -2   2  23   -0.35    4.58   0
  -2   2  32  667.23   12.79   0
  -6   1   5    4.33    5.41   0
  -3   1  56  221.49   10.45   0
  -2   2  20 3673.92   27.78   0
  -7   1  40  238.61   10.27   0
  -6   1  50  102.52    8.69   0
  -6   2  37   -1.78    6.48   0
  -5   1   0 1421.73   18.98   0
  -3   2  43    8.86    5.75   0
  -2   1  54  128.78    8.95   0
  -2   2  35    6.38    5.00   0
  -1   1  49    1.13    5.98   0
  -7   1  13   -3.68    6.45   0
  -6   2  16  796.16   13.09   0
  -6   2  40  293.64   10.89   0
  -4   2   9    4.96    4.45   0
   0   1  38  251.83    9.20   0
  -7   1  43    0.20    7.31   0
  -4   1  58  112.94    9.30   0
  -2   2  17    1.07    5.05   0
  -2   2  38  267.55    9.57   0
  -6   2  13   -6.42    6.18   0
  -5   2  47    0.16    7.63   0
  -4   2  48  361.12   11.25   0
  -3   2  10 2040.76   20.76   0
  -3   2  46  164.84    8.97   0
  -6   2  43   -5.45    7.05   0
  -5   1  57   -0.48    6.89   0
  -5   2   8 2239.11   21.47   0
  -2   2  41    6.31    6.09   0
  -7   1  10  238.17    9.34   0
  -7   2  27    9.99    7.28   0
  -3   1  59   -3.71    7.16   0
  -7   2  24  501.95   11.20   0
  -7   2  33   -2.45    6.76   0
  -6   1   2  340.44   10.32   0
  -6   2  46  118.74    9.01   0
  -7   2  21   -4.25    6.20   0
  -6   2  10  391.55   10.42   0
  -4   2  51    0.53    6.66   0
  -3   2  49  -11.05    7.34   0
  -2   2  14  342.38    9.60   0
  -8   1  27   -1.06    7.26   0
  -8   1  30   63.42    8.11   0
  -7   2  18  178.17    9.00   0
  -7   2  39   11.09    7.47   0
  -4   1  61    1.44    7.12   0
  -2   2  44  777.68   14.30   0
  -8   1  24  242.37    9.50   0
  -8   1  33    3.48    6.69   0
  -6   2  49  -12.41    7.95   0
  -3   2   7    1.47    5.19   0
  -8   1  21    2.03    7.13   0
  -7   2  42  124.68    8.65   0
  -5   2   5   10.36    5.43   0
  -5   3  25    0.88    6.71   0
  -5   3  31   -0.38    6.10   0
  -5   3  34  491.95   11.67   0
  -7   2  15   -1.32    6.52   0
  -5   1  -3   28.35    5.56   0
  -5   3  22  323.19    9.71   0
  -5   3  37   -4.21    7.56   0
  -4   2  54   42.63    8.60   0
  -4   3  26  713.09   12.91   0
  -4   3  29   10.31    5.73   0
  -4   3  32  979.28   14.84   0
  -3   1  62   43.56    7.58   0
  -3   2  52  322.16   11.10   0
  -2   2  47    5.48    6.53   0
  -7   2  45    1.68    7.51   0
  -6   2   7    3.89    5.64   0
  -6   2  52  136.00    9.37   0
  -6   3  27    1.11    7.21   0
  -6   3  30  214.05    9.68   0
  -6   3  33    6.36    7.21   0
  -4   3  23    8.82    6.46   0
  -4   3  35    6.65    5.93   0
  -6   3  24  648.95   12.21   0
  -6   3  36  351.93   11.14   0
  -5   3  19    5.58    6.55   0
  -5   3  40  535.50   12.45   0
  -2   2  11   -1.49    4.50   0
  -1   2  27   -1.30    5.08   0
  -1   2  30  618.54   12.69   0
  -1   2  33    6.33    5.32   0
  -7   2  12  429.31   11.15   0
  -6   3  21   11.80    6.39   0
  -6   3  39    2.27    8.10   0
  -5   2  56  108.75    8.79   0
  -4   3  20  962.09   13.94   0
  -5   3  43    8.84    7.93   0
  -4   2   3   -0.98    4.16   0
  -4   2  57    2.04    7.72   0
  -3   2  55   -7.38    7.49   0
  -2   2  50  224.49   10.15   0
  -1   2  36  932.15   15.31   0
  -8   2  26  214.89    9.59   0
  -8   2  29    1.38    7.74   0
  -8   2  32  205.11    9.98   0
  -8   2  35   -2.69    7.54   0
  -6   3  42  174.03    9.60   0
  -5   3  16 1859.57   18.69   0
  -8   2  23   -8.37    7.08   0
  -7   3  29   14.50    7.46   0
  -7   3  32  302.02   10.75   0
  -4   3  17    6.16    5.11   0
  -4   3  44  319.79   10.57   0
  -3   3  27   -0.55    6.01   0
  -1   2  21   21.13    5.17   0
  -1   2  39    3.83    5.45   0
  -7   2   9    5.33    6.87   0
  -7   3  35    2.86    7.91   0
  -6   2   4  890.05   15.14   0
  -6   3  45   -7.63    7.74   0
  -5   2   2  853.83   14.54   0
  -3   3  24 1179.07   15.82   0
  -3   3  36  909.38   14.17   0
  -8   2  20  221.89    9.71   0
  -7   3  38  175.22    9.70   0
  -5   3  13    7.01    5.70   0
  -3   2   4 2911.46   25.97   0
  -3   3  39   -3.17    6.56   0
  -7   3  20  480.74   11.74   0
  -7   3  41    5.10    7.45   0
  -4   2  60  122.09    9.39   0
  -4   3  14  708.09   12.50   0
  -4   3  47    8.34    7.71   0
  -3   2  58  118.75    9.68   0
  -3   3  21    0.58    5.86   0
  -2   2  53    2.71    6.84   0
  -1   2  42  348.43   10.40   0
  -8   2  17    3.88    7.02   0
  -6   3  48  178.21    9.32   0
  -3   3  42  358.09   10.81   0
  -7   3  17    7.14    5.82   0
  -6   3  12  793.90   13.11   0
  -5   3  52  169.37    9.74   0
  -4   3  50  223.96    9.84   0
  -3   3  18 1383.71   16.91   0
  -8   2  14  128.51    8.30   0
  -7   2   6  466.32   11.49   0
  -7   3  47   -2.25    7.57   0
  -6   3  51   -5.48    7.00   0
  -3   3  45   -0.21    6.87   0
  -8   3  31    0.13    7.33   0
  -4   2   0 4187.64   31.40   0
  -4   3  11   35.89    5.48   0
  -8   3  25    4.93    7.58   0
  -8   3  28  202.58    9.25   0
  -7   3  14  405.85   10.91   0
  -6   2   1    4.51    6.03   0
  -8   3  40  169.92    9.09   0
  -6   3   9    6.06    6.18   0
  -5   3  55    4.91    7.44   0
  -4   3  53   -3.12    7.85   0
  -3   3  15   -0.22    5.49   0
  -3   3  48  229.65    9.95   0
  -8   3  22  142.86    8.91   0
  -5   2  -1    3.85    5.21   0
  -6   4  26  412.25   11.27   0
  -6   4  29   -2.82    6.49   0
  -6   4  35    0.34    6.45   0
  -5   4  30  336.07   10.33   0
  -5   4  33    9.95    7.09   0
  -2   3  28 1388.36   17.43   0
  -2   3  31    1.75    4.82   0
  -2   3  34  635.99   12.74   0
  -8   3  19    2.01    7.08   0
  -7   3  11    1.54    6.49   0
  -6   4  38  127.58    8.47   0
  -5   4  27    2.13    6.05   0
  -5   4  36  350.78   10.26   0
  -5   4  39   -9.61    7.52   0
  -3   3  51    2.31    7.29   0
  -2   3  37    4.84    6.07   0
  -7   4  31    2.69    7.63   0
  -7   4  34  220.07    9.92   0
  -6   4  23    8.71    6.05   0
  -6   4  41   -5.24    6.81   0
  -5   3  58  119.33    8.64   0
  -5   4  24  997.34   14.91   0
  -4   3   8 2757.59   23.20   0
  -4   3  56  173.03    9.73   0
  -2   3  25    9.75    4.74   0
  -2   3  40  500.38   11.98   0
  -7   4  28  409.48   10.85   0
  -7   4  37    3.96    7.13   0
  -6   4  44  267.72   10.78   0
  -3   3  12 2660.06   23.13   0
  -8   3  16  466.26   11.97   0
  -7   4  25   17.75    6.50   0
  -6   3   6  489.14   11.48   0
  -6   4  20  707.77   12.64   0
  -5   4  21    7.85    5.78   0
  -2   3  43    0.81    6.26   0
  -7   4  43   -4.01    7.84   0
  -6   4  47   -0.03    7.84   0
  -4   4  31    0.91    5.70   0
  -3   3  54  103.63    8.52   0
  -7   3   8  587.05   12.47   0
  -6   4  17   -4.48    6.82   0
  -4   3  59   -4.62    7.46   0
  -4   4  25   -0.46    6.49   0
  -4   4  40  520.91   12.47   0
  -8   3  13    2.50    6.68   0
  -7   4  46   74.51    8.34   0
  -5   3   4  768.59   13.40   0
  -5   4  18  403.71   10.14   0
  -5   4  48  251.20   10.38   0
  -2   3  46  167.05    8.62   0
  -9   3  27   -2.50    6.53   0
  -8   4  33   -7.03    7.11   0
  -8   4  36  158.12    9.30   0
  -4   4  22  738.49   12.96   0
  -4   4  43   -2.75    7.64   0
  -2   3  19    4.71    4.47   0
  -9   3  24  177.70    9.88   0
  -8   4  27    2.29    7.20   0
  -8   4  39   -5.56    7.83   0
  -4   2  -3   -0.80    4.58   0
  -4   3   5    4.78    5.53   0
  -8   4  24  338.07   11.09   0
  -7   4  16  475.75   11.81   0
  -5   4  15   19.69    5.73   0
  -5   4  51    0.21    7.36   0
  -3   3   9   -2.26    4.64   0
  -9   3  21   -4.28    7.06   0
  -6   3   3    1.79    5.78   0
  -6   4  53    0.86    7.18   0
  -5   2  -4  716.69   14.55   0
  -4   4  19    0.17    5.28   0
  -8   3  10  224.86    9.69   0
  -8   4  21   -5.22    6.59   0
  -7   3   5    4.55    6.09   0
  -5   4  54   77.97    8.69   0
  -4   4  49   -2.75    7.73   0
  -2   3  16 2017.30   20.40   0
   0   2  31   -1.50    4.70   0
  -8   4  18  218.43    9.55   0
  -7   4  13   11.41    5.80   0
  -5   4  12  940.40   14.32   0
  -3   4  32  957.32   14.77   0
  -3   4  35   14.67    6.65   0
  -4   4  16 1576.07   17.33   0
  -3   4  38  180.76    8.27   0
  -5   3   1    2.08    5.33   0
  -4   4  52  161.47    9.53   0
  -3   4  41    2.39    6.81   0
  -9   4  29   -2.97    7.43   0
  -8   4  15   -3.03    6.70   0
  -7   5  33    3.13    7.71   0
  -6   5  31    9.03    7.32   0
  -6   5  34  279.82   10.64   0
  -6   5  37   13.66    7.75   0
  -5   4  57   -3.31    7.01   0
  -9   4  26  168.64    9.43   0
  -7   4  10  435.59   11.26   0
  -7   5  27    4.37    8.10   0
  -7   5  30   91.41    7.93   0
  -7   5  39   11.08    7.74   0
  -6   5  28  494.24   11.42   0
  -6   5  40  244.06   10.32   0
  -3   3   6  554.59   11.42   0
  -3   4  23   20.78    5.50   0
  -3   4  44  338.42   10.83   0
  -9   4  23   -3.40    7.51   0
  -7   3   2  271.48    9.60   0
  -7   5  42  175.47    9.46   0
  -6   3   0 1124.71   16.39   0
  -6   4   8  932.05   14.48   0
  -6   5  25    9.88    7.08   0
  -6   5  43   -9.26    7.60   0
  -5   4   9    6.09    5.84   0
  -4   4  13    5.10    5.15   0
  -4   4  55   -7.57    8.23   0
  -2   3  13   28.71    5.06   0
  -7   5  24  365.18   10.33   0
  -5   5  35   -6.31    7.16   0
  -3   4  47    0.86    6.62   0
  -1   3  32 1218.54   17.70   0
  -1   3  35    2.15    5.89   0
  -9   4  20  143.07    9.66   0
  -8   4  12  289.78   10.09   0
  -8   5  29    8.60    7.44   0
  -8   5  32  252.05    9.86   0
  -8   5  35    0.35    7.07   0
  -8   5  38   68.59    8.35   0
  -7   5  45  -11.64    6.95   0
  -6   5  22  236.37    8.90   0
  -5   5  29    6.10    6.23   0
  -3   4  20  950.89   13.91   0
  -1   3  38  347.30   10.58   0
  -7   5  21   -0.69    6.34   0
  -1   3  29    3.33    5.18   0
  -7   4   7   -1.29    6.51   0
  -6   5  19   -6.15    6.71   0
  -6   5  49    2.43    7.44   0
  -5   5  44  205.02    9.84   0
  -3   4  50  195.81    9.34   0
  -9   4  17    4.24    7.84   0
  -5   5  23   -2.91    5.95   0
  -4   4  10  448.57   10.52   0
  -1   3  26  523.34   11.76   0
  -6   4   5   -1.71    5.70   0
  -5   5  47    3.54    7.41   0
  -3   4  17   -1.32    4.86   0
  -8   4   9   -4.08    6.78   0
  -8   5  20  256.67   10.28   0
  -5   3  -2  862.59   14.53   0
  -5   5  20  747.77   13.30   0
  -2   3  10 1999.80   20.60   0
  -5   2  -7   13.09    5.24   0
  -5   5  50  100.80    9.05   0
  -4   5  36  350.46   10.94   0
  -1   3  23    4.08    4.87   0
  -9   5  28   98.03    8.15   0
  -4   5  39   -4.21    7.28   0
  -3   3   3   -2.32    4.36   0
  -8   5  17   -2.06    6.41   0
  -4   5  27    2.48    5.83   0
   5   0   5    1.48    5.19   0
   6   4  -1   -5.25    7.28   0
   7   0  -8  666.62   12.54   0
   3   6  12  197.53   10.71   0
   5  -1   0 1471.18   16.89   0
   6   3   3    7.65    7.55   0
   7  -1 -13   -0.50    6.30   0
   2   1  13   33.75    5.19   0
   3   0   9    1.75    5.30   0
   4   1  12  968.46   14.29   0
   4   2  14  314.34    9.60   0
   4   5  11   -2.70    7.75   0
   2   4  19   10.57    6.46   0
   2   5  18  182.44    9.28   0
   3   2  16 1863.84   18.79   0
   3   4  17   14.46    6.11   0
   6  -2 -13    0.86    5.03   0
   3   5  16  449.33   12.00   0
   5  -2  -8 2226.15   22.88   0
   5   1  10  505.81   11.27   0
   5   3  11    4.72    6.43   0
   6   1   5    6.51    6.25   0
   7  -1 -10  248.15    9.28   0
   7   0  -5    1.63    6.24   0
   3   1  14  730.80   12.37   0
   5   4  10  148.57    9.17   0
   6  -1  -2  365.51   10.12   0
   1   5  20  501.85   12.33   0
   2   6  17   -0.10    7.42   0
   4   3  16  477.50   11.65   0
   5   2  12  534.82   11.28   0
   6   2   7   -6.16    7.81   0
   6   3   6  198.87    9.67   0
   7   2  -1    3.70    7.48   0
   1   3  19   15.00    5.52   0
   4   0  10  453.28   10.56   0
   5   0   8 1016.58   14.03   0
   4   5  14  108.32    9.26   0
   6  -2 -10  374.14   10.35   0
   7  -1  -7   14.44    6.33   0
   7   0  -2  255.54    9.95   0
   8   0 -16  195.70    9.16   0
   2   3  20  643.80   12.71   0
   3   6  15    2.55    7.29   0
   6   1   8  729.65   13.15   0
   1   2  17   10.59    4.35   0
   1   4  21    8.10    5.83   0
   4  -1   5    6.63    5.41   0
   4   2  17   -2.75    6.72   0
   8   0 -13   -0.92    6.48   0
   8   1 -11   -3.71    6.53   0
   3   4  20  473.69   11.91   0
   4   1  15   19.35    5.75   0
   5  -2  -5    8.79    5.27   0
   5   1  13   -3.70    6.64   0
   6  -1   1   11.89    5.33   0
   6   0   6  255.76    8.79   0
   6   3   9   -8.90    7.49   0
   7   2   2  107.24    7.94   0
   2   5  21    8.33    7.04   0
   3   2  19   10.02    6.33   0
   3   5  19   -9.47    7.26   0
   5   2  15   -7.81    7.37   0
   7  -1  -4  287.91    9.76   0
   7   0   1   -6.42    7.43   0
   7   1   3   10.69    7.32   0
   3   0  12 2663.62   23.01   0
   4   4  18  232.82   10.34   0
   6  -2  -7   -0.99    5.39   0
   8   0 -10  176.32    9.17   0
   8   1  -8  160.44    8.48   0
   3   3  21   -1.15    6.63   0
   5   0  11   -6.24    6.05   0
   2   1  16 2073.84   20.61   0
   2   6  20  198.63   10.14   0
   3   1  17   -1.89    4.90   0
   4   5  17    4.83    8.18   0
   6   1  11    8.72    7.42   0
   7   2   5   -1.93    7.24   0
   4   0  13    1.67    5.04   0
   8   0  -7   -2.21    7.37   0
   8   1  -5    1.61    6.83   0
   2   0  11    0.38    5.11   0
   3   6  18  211.63   10.24   0
   4  -2  -3    1.46    4.60   0
   6  -1   4  807.93   13.04   0
   6   0   9   -2.40    5.90   0
   6   2  13    3.58    7.98   0
   6   3  12  169.31    9.62   0
   7  -1  -1    8.35    6.60   0
   7   1   6  216.00    9.67   0
   8  -1 -12  225.48    9.44   0
   1   5  23    1.44    6.19   0
   5  -2  -2  856.45   14.29   0
   5   1  16  647.20   12.66   0
   6  -2  -4  954.03   14.86   0
   4  -1   8 2808.90   23.45   0
   4   1  18  418.14   10.54   0
   5   2  18  444.71   11.55   0
   7  -2  -9   -0.15    5.82   0
   8  -1  -9    6.92    7.70   0
   8   0  -4  247.41    9.56   0
   8   1  -2  115.81    8.76   0
   1   3  22  375.82   10.30   0
   2   2  21   -2.11    5.54   0
   2   3  23    5.74    6.26   0
   3   4  23   -6.52    6.73   0
   3   5  22  148.35    9.71   0
   4   4  21   -9.18    7.80   0
   6   1  14  160.63    9.10   0
   2   5  24  494.97   12.66   0
   3  -1   7   -0.33    4.17   0
   5   0  14  677.54   11.91   0
   7  -1   2  375.89   10.05   0
   7   1   9   -6.29    7.37   0
   1   4  24  675.76   13.44   0
   4   5  20  142.39    9.61   0
   5  -1   9    9.03    5.03   0
   6  -2  -1    3.16    5.56   0
   6   0  12  474.59   10.68   0
   6   3  15    4.89    7.24   0
   7  -2  -6  480.55   11.46   0
   8  -1  -6  112.01    8.33   0
   8   0  -1   -2.94    6.69   0
   8   1   1   -2.65    7.05   0
   1   2  20 1462.35   18.21   0
   2   4  25   -2.96    6.49   0
   3   0  15    1.59    4.74   0
   3   3  24  609.69   12.16   0
   5   3  20  240.98    9.17   0
   5   4  19    8.31    7.38   0
   3   1  20  969.95   14.06   0
   3   6  21   -1.82    6.86   0
   4   0  16 1642.06   17.56   0
   5  -2   1    5.16    4.31   0
   7   2  11   12.59    7.38   0
   4  -2   0 4284.95   31.90   0
   5   1  19    3.91    6.11   0
   7  -1   5    7.52    7.05   0
   8  -1  -3    1.56    6.65   0
   8   0   2  126.29    9.00   0
   0   4  23   -2.13    5.18   0
   2   1  19    5.54    4.60   0
   4   2  23   -3.27    6.08   0
   5   2  21   11.30    6.44   0
   7  -2  -3    0.96    6.14   0
   7   0  10  256.68   10.15   0
   7   1  12  184.86    9.46   0
   4  -1  11   30.04    5.25   0
   4   1  21    6.45    5.77   0
   4   4  24  370.63   11.52   0
   6   1  17   10.32    6.60   0
   0   3  21   -0.41    4.37   0
   3   4  26  163.40    9.16   0
   3   5  25    1.65    7.37   0
   5   0  17   -2.57    5.62   0
   6  -2   2  649.79   12.50   0
   6   0  15   -4.18    6.67   0
   2   0  14  348.00    9.97   0
   4   3  25   14.20    7.78   0
   4   5  23   -0.46    7.92   0
   5  -1  12  985.99   13.98   0
   6   2  19   -1.13    7.04   0
   7   2  14  145.67    8.86   0
   2   3  26  653.00   12.51   0
   5   4  22  107.25    8.69   0
   7  -2   0  668.00   12.89   0
   8   0   5    1.93    6.92   0
   2   5  27    8.07    7.80   0
   3  -1  10 2084.93   21.23   0
   5  -2   4  765.25   12.91   0
   7  -1   8  699.98   12.64   0
   1   3  25   -1.52    5.25   0
   3   3  27   -3.32    6.89   0
   4   0  19    5.66    6.25   0
   5   1  22  251.19    9.87   0
   7   0  13    4.42    7.76   0
   7   1  15    2.13    7.08   0
   3   0  18 1412.97   16.97   0
   4  -2   3    2.16    4.97   0
   5   2  24  341.28   10.17   0
   6  -2   5    6.46    5.97   0
   6   1  20  292.67   10.44   0
   8  -2  -5   -0.46    6.83   0
   8  -1   3    0.37    6.75   0
   1   4  27    6.49    5.99   0
   3   1  23   23.60    5.56   0
   6  -1  13   10.09    5.84   0
   6   3  21    6.29    7.56   0
   8   0   8  282.07   10.19   0
   4   1  24  993.58   14.92   0
   4   4  27    7.86    7.41   0
   5   0  20  750.45   13.13   0
   6   0  18  405.86   10.35   0
   6   2  22  119.74    9.04   0
   7  -2   3    7.16    6.27   0
   7   2  17   -6.93    6.97   0
   8   1  10   96.55    7.81   0
   5  -1  15   13.46    5.68   0
   1   2  23    4.63    5.19   0
   3   4  29    6.14    7.15   0
   3   5  28  196.24    9.61   0
   4   3  28  414.30   11.85   0
   4   5  26  169.70    9.09   0
   5  -2   7   10.53    5.61   0
   5   4  25   -4.69    7.64   0
   7   0  16  534.52   12.47   0
   7   1  18  155.09    9.29   0
   8  -2  -2  237.55    9.58   0
   8  -1   6  224.40    9.79   0
   5   1  25    6.49    7.36   0
   6  -2   8  917.24   14.26   0
   8   1  13    6.99    7.24   0
   2   3  29   -4.23    6.25   0
   3   2  28  440.83   11.18   0
   4   0  22  772.00   13.26   0
   6  -1  16  710.55   13.01   0
   6   1  23    6.28    6.73   0
   7  -2   6  176.51    7.95   0
   7   2  20  157.57    9.07   0
   8  -2   1    6.64    6.63   0
   9  -1  -2  114.68    8.28   0
   2   0  17    1.94    5.09   0
   2   2  27   -3.16    5.80   0
   3  -1  13   34.76    5.25   0
   3   3  30  220.65    9.42   0
   4  -2   6  840.21   14.14   0
   6   0  21    9.60    7.33   0
   8  -1   9    0.93    7.06   0
   5   0  23   -7.14    6.98   0
   6   2  25    4.57    7.26   0
   3   0  21   -1.62    5.03   0
   3   1  26  708.23   13.01   0
   4   1  27    6.68    6.81   0
   4   4  30   99.30    9.20   0
   5  -1  18  406.76   10.55   0
   7   0  19   -2.66    7.57   0
   7   1  21    4.87    7.59   0
   9  -1   1    5.16    7.12   0
   2   4  31   -1.87    6.14   0
   4  -1  17    1.87    4.96   0
   5   3  29    5.85    7.98   0
   5   4  28   98.82    9.20   0
   7  -2   9   -5.09    6.74   0
   8  -2   4  268.15    9.70   0
   4   3  31   -4.29    7.41   0
   4   5  29    4.39    7.44   0
   6  -3  -3    6.08    5.82   0
   6  -2  11    0.84    5.31   0
   1   4  30  177.35    8.55   0
   3   4  32  319.72   11.15   0
   6  -1  19    4.24    6.64   0
   6   1  26  306.91   10.74   0
   7   2  23    5.69    7.35   0
   8  -1  12  192.61    8.96   0
   9  -1   4  176.11    8.73   0
   5   1  28  454.12   11.08   0
   7  -1  17   11.64    6.11   0
   6   2  28  172.65    9.43   0
   7  -3  -2  256.41    9.42   0
   8  -2   7   -3.26    6.71   0
   8   0  17   -4.53    7.50   0
   3   2  31   -3.93    6.17   0
   4   0  25    5.54    5.59   0
   6  -3   0 1144.17   16.64   0
   7  -2  12  533.90   12.01   0
   7   0  22  118.90    8.05   0
   7   1  24  301.80   11.02   0
   9  -1   7    3.21    7.93   0
   1   2  26  528.88   11.62   0
   3  -1  16 2160.04   20.93   0
   3   3  33    2.06    7.13   0
   5  -3  -4  713.25   14.49   0
   5  -1  21    6.21    6.66   0
   5   0  26  256.78    8.94   0
   8  -1  15   -2.08    7.72   0
   2   3  32  708.04   13.59   0
   4  -1  20  958.96   14.32   0
   4   1  30  357.11   10.69   0
   4   2  32  370.92   10.53   0
   7  -3   1    5.69    6.01   0
   2   0  20 3583.88   26.65   0
   2   2  30  211.65    8.75   0
   3   0  24 1151.20   15.16   0
   4   4  33   -4.32    7.84   0
   5   3  32  227.51   10.30   0
   7  -1  20  290.72   10.20   0
   8  -2  10  226.97    9.52   0
   9  -2   2   88.25    7.55   0
   6  -1  22  225.38    8.82   0
   6   1  29    4.14    8.01   0
   8   0  20  168.10    9.12   0
   9  -1  10  102.54    8.50   0
   2   4  34  182.74    9.71   0
   4   3  34  210.07    9.60   0
   5  -3  -1    2.93    4.99   0
   5   1  31   -6.57    7.10   0
   6  -3   3    7.00    5.48   0
   6   0  27    8.85    7.62   0
   7  -2  15   -3.67    6.98   0
   6   2  31   -8.30    7.72   0
   7  -3   4  701.70   13.22   0
   7   0  25    6.22    7.18   0
   7   1  27   -4.19    7.81   0
   9  -2   5    3.83    6.96   0
   3   4  35   -3.99    7.34   0
   4  -2  12  805.24   13.13   0
   1   3  31    8.13    5.54   0
   4   0  28  670.56   12.23   0
   5  -2  16 1873.01   18.82   0
   5  -1  24  983.03   14.14   0
   5   0  29   -4.46    7.32   0
   8  -3   2  256.41    9.76   0
   8  -2  13    2.19    6.29   0
   9  -1  13    3.85    7.36   0
   3   2  34  460.12   11.67   0
   5  -3   2  869.90   14.80   0
   6  -3   6  496.31   11.57   0
   7  -1  23    5.23    6.91   0
   8   0  23  -11.90    7.82   0
   0   3  27   -1.61    4.95   0
   3  -1  19    3.15    4.82   0
   4  -1  23   15.47    5.50   0
   4   2  35   -0.69    7.58   0
   6  -1  25    0.13    6.39   0
   7  -3   7    3.59    6.19   0
   9  -2   8  248.02   10.00   0
   3   0  27   -8.96    6.08   0
   3   3  36  337.71   11.08   0
   4   4  36  158.96    9.76   0
   6   1  32  294.80   10.24   0
   8  -3   5    1.47    6.59   0
   2   3  35    5.53    6.34   0
   6   0  30  131.04    8.17   0
   7   0  28  161.81    8.98   0
   7   1  30   93.20    8.53   0
   8  -2  16  412.43   11.25   0
   1   2  29    4.80    4.41   0
   2   0  23    1.04    4.53   0
   2   2  33   -2.89    6.04   0
   4  -2  15    0.34    5.42   0
   4   3  37    6.33    7.48   0
   5   1  34  250.51    9.38   0
   6  -2  20  694.04   12.95   0
   9  -2  11   -5.32    7.42   0
   5  -3   5   12.98    5.64   0
   5  -2  19   11.17    5.54   0
   5   2  36  294.50   11.40   0
   6  -3   9    8.83    5.08   0
   7  -3  10  431.39   11.15   0
   4   0  31   -2.26    6.57   0
   5  -1  27    3.69    6.03   0
   5   0  32  525.72   12.17   0
   7  -1  26  311.46    9.79   0
   8  -3   8  523.27   12.34   0
   3   4  38  150.94    9.33   0
   6  -1  28  458.01   11.56   0
   8  -1  24  297.18   10.66   0
   4  -1  26  716.58   12.69   0
   6   1  35    0.20    8.06   0
   8  -2  19    3.24    7.54   0
   9  -2  14  125.96    8.51   0
   3  -1  22  487.97   10.47   0
   3   2  37   -3.04    6.98   0
   4   2  38  117.30    8.77   0
   5   3  38   55.54    8.64   0
   6  -3  12  843.72   14.01   0
   6   0  33    0.61    7.69   0
   7  -3  13   18.21    6.59   0
   7   0  31   -6.67    7.19   0
   7   1  33    5.54    7.37   0
   8  -3  11    4.42    6.78   0
   1   3  34  537.98   12.82   0
   2  -1  15    3.08    4.48   0
   2   1  31    2.50    5.85   0
   5  -3   8 2288.26   21.84   0
   6  -2  23    1.56    5.99   0
   3   0  30  327.76    9.28   0
   3   3  39    3.49    7.19   0
   4  -2  18 1104.71   14.89   0
   4   4  39   -1.04    6.75   0
   5  -2  22  329.81   10.01   0
   6   2  37   -3.97    7.33   0
   7  -1  29   -1.52    7.97   0
   3  -2  11   17.31    5.43   0
   3   1  35    6.30    5.54   0
   4   3  40  182.78   10.03   0
   5  -1  30  325.97   10.51   0
   5   2  39    6.77    7.97   0
   7  -2  24  361.74   10.73   0
   9  -2  17    3.65    6.85   0
   0   2  25   -0.21    4.50   0
   2   0  26 1310.82   16.52   0
   2   3  38  111.07    7.99   0
   5   0  35    7.98    7.26   0
   6  -1  31   -5.39    7.68   0
   8  -3  14  148.86    8.91   0
   8  -2  22  108.82    8.36   0
   8  -1  27   -4.01    7.64   0
   4   0  34  297.94   10.12   0
   5  -3  11    3.38    5.48   0
   6  -3  15    6.95    6.12   0
   7  -3  16  477.98   11.70   0
   9  -3   9    0.00    6.98   0
   1   1  27    2.78    4.99   0
   4  -1  29    6.63    6.52   0
   6   1  38   67.05    8.59   0
   7   0  34  173.10    9.47   0
   1   0  19   -0.44    5.03   0
   3  -1  25   11.15    5.92   0
   6  -2  26  418.51   10.57   0
   6   0  36  238.16   10.66   0
   9  -2  20  152.97    9.15   0
   4  -2  21    0.02    5.60   0
   4   2  41    2.54    7.70   0
   5  -2  25    1.94    6.66   0
   7  -1  32  279.97   10.64   0
   8  -3  17   -0.36    7.35   0
   9  -3  12  158.91    8.57   0
   2  -1  18 1194.24   16.06   0
   3   2  40  479.11   11.97   0
   4   1  39    9.08    6.26   0
   7  -3  19    6.40    6.95   0
   7  -2  27    0.17    6.45   0
   8  -1  30   76.41    8.45   0
   2   1  34  658.06   12.66   0
   3  -2  14 1603.66   18.31   0
   3   0  33    3.34    5.35   0
   5  -3  14  404.69   10.37   0
   5  -1  33    5.63    7.08   0
   6  -3  18  462.09   10.64   0
   3   1  38  188.57    8.89   0
   3   3  42  169.26    9.10   0
   4  -3   4 1343.90   18.63   0
   5   0  38  234.64   10.17   0
   5   2  42  162.20    9.49   0
   6  -1  34  259.59    9.60   0
   9  -3  15    8.66    7.34   0
   4   0  37   -4.61    7.17   0
   4   3  43   -9.78    7.88   0
   6  -2  29   -8.68    7.04   0
   7   0  37    1.76    7.70   0
   9  -2  23    2.99    6.89   0
   1   3  37    1.46    5.70   0
   2   0  29   -3.92    4.70   0
   8  -3  20  262.82   10.25   0
   2   2  39   -4.41    6.29   0
   2   3  41   -2.30    6.44   0
   4  -2  24 1964.21   19.56   0
   5  -2  28  429.68   11.08   0
   6   0  39   11.17    7.40   0
   7  -4   5    8.06    6.62   0
   7  -3  22  180.11    9.41   0
   7  -2  30  102.44    8.53   0
   7  -1  35   -0.02    7.75   0
   3  -1  28 1399.00   16.34   0
   4  -3   7   15.33    4.48   0
   8  -1  33    4.77    7.98   0
   9  -3  18  115.47    8.27   0
   0   2  28 1113.95   17.10   0
   1   1  30  607.27   12.22   0
   1   2  35    0.76    5.80   0
   2  -1  21   20.43    5.69   0
   3  -2  17   14.38    4.81   0
   4   1  42  193.79   10.17   0
   1   0  22  455.23   10.64   0
   4   2  44  233.91   10.44   0
   5  -1  36  350.94   10.14   0
   5   1  43    7.46    7.64   0
   6  -1  37   16.88    7.77   0
   7  -4   8  593.33   12.75   0
   8  -4   9    4.56    6.45   0
   8  -3  23    5.70    7.17   0
   3   2  43   12.65    7.23   0
   4  -3  10 1149.50   16.23   0
   5   0  41   -6.96    8.24   0
   6  -2  32  393.24   11.20   0
   2   1  37    3.59    5.82   0
   5   2  45   -0.92    7.37   0
   7   0  40  191.18    9.88   0
   8  -2  31   -6.90    7.65   0
   9  -3  21    7.72    6.90   0
   3   1  41    0.82    5.76   0
   3   3  45    5.13    8.01   0
   4  -2  27   -1.82    6.34   0
   4  -1  35   -0.20    6.67   0
   5  -2  31   -1.07    7.01   0
   6  -4   4  937.96   15.78   0
   6   0  42  162.98    9.61   0
   7  -4  11    0.54    6.22   0
   7  -2  33   -1.82    6.72   0
   7  -1  38   66.00    8.66   0
   8  -4  12  293.23   10.04   0
   4   3  46   73.78    7.88   0
   6   1  44  118.68    9.35   0
   3  -2  20 1506.10   17.18   0
   3  -1  31   -1.85    5.42   0
   4  -3  13   10.16    5.45   0
   6  -4   7    6.81    5.40   0
   8  -3  26  221.31    9.57   0
   2  -1  24 1928.50   19.79   0
   5  -1  39    8.63    7.66   0
   6  -1  40  230.61   10.80   0
   7  -4  14  404.88   11.00   0
   8  -4  15   -5.14    6.46   0
   9  -3  24  240.52    9.65   0
   4   1  45    4.96    7.80   0
   5  -3  23    5.67    6.45   0
   6  -4  10  396.26   10.70   0
   6  -3  27    0.01    7.03   0
   6  -2  35    3.02    8.02   0
   8  -2  34  154.64    9.33   0
   1   1  33    6.80    5.51   0
   4   2  47   -0.69    7.23   0
   5   1  46   84.43    9.27   0
   7  -2  36  316.77   10.81   0
   1   2  38  354.26   10.56   0
   4  -2  30  223.47    9.07   0
   5  -2  34  465.28   11.58   0
   7  -4  17    7.52    6.37   0
   7  -1  41    1.67    8.04   0
   8  -3  29   -5.17    7.44   0
   0   2  31    0.49    5.23   0
   3  -2  23    0.71    5.77   0
   3   2  46   55.56    8.29   0
   4  -1  38  191.34    9.32   0
   6  -4  13    4.40    6.01   0
   6   0  45    2.15    7.74   0
   9  -4  16  365.09   10.97   0
   9  -3  27   10.37    7.52   0
   2   1  40  468.52   10.86   0
   3   1  44  320.26   10.64   0
   3  -1  34  630.99   11.88   0
   5  -3  26  686.55   12.77   0
   8  -2  37   -5.91    7.95   0
   2  -1  27    1.82    4.86   0
   6  -2  38  118.96    8.16   0
   6  -1  43   -1.75    8.24   0
   7  -4  20  492.30   11.39   0
   8  -4  21   -0.64    7.25   0
   9  -4  19   -1.49    7.21   0
   4  -3  19   15.41    5.19   0
   7  -2  39    1.72    8.21   0
   4  -2  33   -4.04    6.24   0
   4   1  48  244.80   10.48   0
   5  -2  37   -0.01    6.42   0
   5   1  49   -6.45    7.99   0
   2   2  45   -1.10    6.61   0
   3  -2  26  566.74   11.13   0
   3   0  42  326.56   10.42   0
   6  -4  19    3.43    6.56   0
   7  -4  23    1.49    7.05   0
   7  -3  34  196.04   10.13   0
   7  -1  44  136.49    9.58   0
   8  -4  24  387.52   11.60   0
   1   1  36  937.95   14.93   0
   4  -1  41    9.35    6.27   0
   4   2  50  109.52    9.15   0
   5  -4   3    1.28    5.44   0
   5  -3  29   -0.80    6.84   0
   6  -3  33   -1.69    7.49   0
   9  -4  22   90.72    8.56   0
   0   1  26 1179.69   17.44   0
   3  -1  37   -0.45    6.18   0
   3   2  49   -6.74    8.27   0
   4  -3  22  377.37    9.61   0
   4   0  46  160.88    8.36   0
   5  -4   0 1388.88   20.72   0
   5  -4   6  391.79   10.79   0
   1   2  41    1.19    6.01   0
   2   0  38  273.06    9.24   0
   2   1  43    7.43    6.20   0
   3   1  47   -2.43    7.02   0
   5  -4   9   26.77    6.02   0
   6  -2  41   -1.22    6.92   0
   6  -1  46   83.79    8.93   0
   2  -2  13   -0.60    5.06   0
   2  -1  30  644.73   11.86   0
   5  -1  45    5.77    6.70   0
   6  -4  22  405.66   11.06   0
   7  -4  26  189.57    9.18   0
   8  -4  27   -9.73    7.49   0
   9  -4  25    6.21    7.39   0
   0   2  34  269.69    9.34   0
   3  -2  29    5.12    6.27   0
   4  -2  36  431.91   11.16   0
   5  -4  12 1217.48   16.86   0
   5  -2  40  544.98   11.99   0
   4  -3  25    4.59    6.26   0
   5  -3  32  752.90   13.75   0
   6  -3  36  350.31   11.36   0
   7  -3  37    3.76    7.40   0
   1   0  31    0.58    5.36   0
   3   0  45    2.02    6.88   0
   4  -1  44  324.93   10.87   0
   4   1  51   -0.87    7.72   0
   5  -4  15    3.15    6.02   0
   5   0  50   90.21    8.82   0
   2  -2  16 3014.48   25.39   0
   6  -4  25   -8.12    5.77   0
   7  -4  29    5.94    7.36   0
   8  -4  30   95.07    9.15   0
   9  -4  28   99.76    8.09   0
   1   1  39   -0.78    5.79   0
   2   2  48  323.31   10.68   0
   4   0  49   -1.32    7.54   0
   4   2  53   -1.97    8.20   0
   6  -2  44  263.19   10.41   0
   0   1  29   -0.19    4.69   0
   2  -1  33    3.84    5.34   0
   3  -3   9   -3.51    4.83   0
   5  -4  18  804.41   13.31   0
   5  -1  48  249.92   10.72   0
   6  -1  49   -0.63    7.83   0
   7  -2  45    5.17    7.15   0
   2   0  41    0.76    5.36   0
   2   1  46  160.64    8.64   0
   3  -2  32 1275.99   15.82   0
   3   1  50  186.74    9.54   0
   4  -3  28  755.62   12.68   0
   4  -2  39    3.59    6.19   0
   5  -3  35    6.76    7.42   0
   5  -2  43   -4.66    6.72   0
   7  -3  40  164.30    9.99   0
   1   2  44  359.19   10.75   0
   2  -2  19    3.34    4.58   0
   6  -3  39    1.44    6.56   0
   7  -4  32  329.25   11.24   0
   8  -5  16  444.55   11.88   0
   1  -1  20 1484.89   18.29   0
   5  -4  21   10.01    5.44   0
   8  -4  33    3.83    8.03   0
   0   2  37   -2.44    5.06   0
   1   0  34  986.00   14.93   0
   3  -3  15    3.23    4.45   0
   5   0  53   -7.18    8.06   0
   7  -5  12  438.98   11.54   0
   8  -5  19    0.14    7.85   0
   2  -2  22 2043.32   20.38   0
   3   0  48  228.31    8.99   0
   4  -3  31   16.09    6.83   0
   4   1  54   64.63    8.56   0
   6  -2  47   -6.03    7.58   0
   2  -1  36  946.92   14.03   0
   3  -3  18  550.09   11.65   0
   3  -2  35   -6.18    5.63   0
   4   0  52  168.74    9.68   0
   5  -3  38  107.99    8.62   0
   7  -3  43   -4.50    8.01   0
   1  -1  23    0.31    4.50   0
   1   1  42  348.91   10.44   0
   4  -2  42  442.39   10.81   0
   5  -2  46   63.67    8.06   0
   6  -3  42  190.80   10.27   0
   7  -5  18  189.64    9.10   0
   8  -5  22  150.94    8.63   0
   8  -4  36  147.47    9.01   0
   0   1  32 1765.02   20.72   0
   2  -2  25   -1.34    5.72   0
   2   1  49    1.21    6.81   0
   3  -3  21   -0.50    5.74   0
   3   1  53   -2.18    7.64   0
   7  -5  21    0.88    6.88   0
   4  -3  34  596.57   11.76   0
   6  -4  34  202.33    8.83   0
   8  -5  25    2.06    7.23   0
   1   0  37   -3.34    4.95   0
   3  -2  38  350.10   10.31   0
   5  -3  41    1.68    7.66   0
   6  -2  50  120.31    9.42   0
   9  -5  26  163.67    9.60   0
   1  -1  26 1204.93   16.01   0
   3  -3  24 1694.55   18.41   0
   3   0  51    0.56    7.27   0
   4  -2  45    0.38    7.62   0
   6  -3  45    4.37    7.89   0
   7  -3  46   85.33    8.04   0
   8  -4  39    9.22    8.08   0
   0   2  40  868.87   15.55   0
   2  -2  28 1204.02   15.95   0
   5  -4  30  194.33    8.38   0
   5  -2  49    0.35    8.10   0
   6  -5   8  817.75   15.51   0
   6  -5  11    6.79    5.91   0
   8  -5  28  186.12    9.75   0
   4  -4   8 1625.37   20.08   0
   4  -4  11    4.17    4.43   0
   4  -4  14  331.89    9.93   0
   4  -3  37    2.43    6.72   0
   4   0  55   -3.30    7.27   0
   4   1  57    0.92    7.52   0
   6  -5  14  457.43   11.65   0
   6  -4  37    0.62    7.72   0
   9  -5  29    2.73    7.92   0
   0   1  35    0.99    5.09   0
   1   1  45   -2.23    6.15   0
   2   0  47    2.34    6.81   0
   4  -4  17   -2.12    5.63   0
   6  -5  17    1.30    6.33   0
   7  -5  27   10.22    7.68   0
   1  -1  29    1.65    5.56   0
   3  -3  27    2.22    5.22   0
   4  -4   5   -0.18    4.94   0
   5  -4  33    8.03    7.30   0
   5  -3  44  257.23   10.46   0
   6  -5  20  553.13   12.38   0
   7  -4  41   -9.52    7.89   0
   8  -5  31    4.01    7.05   0
   1   0  40  796.36   13.99   0
   2   1  52  321.71   11.47   0
   3  -2  41    1.95    6.21   0
   4  -1  53   -4.17    8.01   0
   6  -2  53   -0.55    7.59   0
   2  -2  31    8.99    5.20   0
   3  -1  49    5.25    6.79   0
   3   1  56  146.52    9.36   0
   4  -2  48  349.70   11.11   0
   6  -5  23    5.36    6.73   0
   6  -4  40  296.40   11.12   0
   6  -3  48  186.98   10.11   0
   7  -5  30  214.22   10.01   0
   3   0  54   92.23    8.97   0
   4  -4   2 1351.36   20.41   0
   4  -3  40  521.13   12.13   0
   5  -2  52  169.13    9.71   0
   5  -4  36  574.35   12.64   0
   7  -4  44  160.09    9.86   0
   8  -5  34  143.34    9.55   0
   0   0  27    4.07    5.01   0
   1  -1  32 1845.41   19.32   0
   4   0  58   79.85    9.39   0
   5  -1  57    1.92    7.34   0
   6  -5  26  261.73    9.35   0
   7  -5  33    5.42    7.44   0
   0   1  38  261.23    9.49   0
   2  -2  34  295.68    9.01   0
   3  -2  44  362.42   11.03   0
   4  -4  26  770.25   12.94   0
   5  -3  47    5.90    6.69   0
   3  -3  33   -4.87    5.72   0
   6  -5  29   -1.99    7.38   0
   6  -4  43    5.48    8.25   0
   6  -3  51   -2.62    8.07   0
   8  -5  37    3.01    7.71   0
   1   0  43   -0.64    5.31   0
   2  -1  45    7.98    5.85   0
   4  -4  29    5.79    6.35   0
   4  -3  43    3.26    6.51   0
   4  -2  51   -5.70    7.73   0
   4  -1  56  156.10    9.59   0
   5  -4  39    7.16    7.85   0
   7  -5  36  187.70    9.66   0
   4  -4  11    2.11    5.64   0
   4   1  27    9.18    6.67   0
   5   1  28  478.56   13.08   0
   3  -3  12 2037.63   21.62   0
   4  -1  26  691.27   13.45   0
   7   0  28  146.46   10.44   0
   4  -3  19   15.59    6.51   0
   5  -3  23    6.94    7.06   0
   5   0  29   -0.61    6.20   0
   6  -6   3   -4.38    6.10   0
   6  -5  14  453.74   11.05   0
   7  -1  29   -1.28    8.69   0
   8  -6  11    3.86    7.75   0
   8  -1  27    7.19    8.68   0
   4   0  28  646.51   13.50   0
   5  -4  18  768.44   13.84   0
   7  -4  23    1.73    7.09   0
   8  -3  26  215.63    9.87   0
   8   0  26   89.49    9.16   0
   9  -6  12  191.98    9.84   0
   9  -4  22  105.17    8.75   0
   2   1  22  488.11   11.96   0
   3   1  26  665.07   13.80   0
   4  -2  24 1898.30   19.73   0
   6   0  30  140.55    9.80   0
   8  -4  24  385.23   12.04   0
   5  -5  10  730.40   13.74   0
   6  -4  22  388.64   10.62   0
   6  -2  29    0.59    6.96   0
   6   1  29    7.65    7.66   0
   7  -6  10  256.54    9.91   0
   5  -2  28  433.02   11.38   0
   6  -3  27   -0.05    7.54   0
   7  -3  28  436.73   12.47   0
   9  -5  20  142.98    9.69   0
   2  -1  18 1262.75   17.57   0
   3  -2  20 1521.19   17.97   0
   6  -1  31    7.77    6.77   0
   7  -2  30  100.17    8.76   0
   4  -4  14  321.03    9.93   0
   6  -6   6  432.90   11.56   0
   6  -5  17    3.19    6.68   0
   8  -6  14  133.83    8.38   0
   9  -6  15    5.71    8.32   0
   3  -4   4 1291.36   19.22   0
   8  -3  29    7.40    8.67   0
   8  -1  30   94.97    8.84   0
   9  -4  25    0.72    8.16   0
   9  -3  27    9.70    8.55   0
   2  -2  13   -1.06    4.50   0
   3  -3  15    0.62    5.68   0
   3  -1  25   10.35    6.21   0
   3   0  27    0.93    6.02   0
   4   1  30  341.81   11.18   0
   5  -3  26  669.47   13.29   0
   5   1  31   -2.49    7.55   0
   7  -4  26  179.99    9.03   0
   7  -1  32  284.46   11.34   0
   7   0  31   -3.23    8.58   0
   4  -5   3   -0.18    5.56   0
   4  -3  22  380.39   10.02   0
   4  -1  29    4.09    5.98   0
   5  -5  13   -2.18    6.30   0
   5  -4  21    8.73    6.00   0
   5   0  32  502.90   12.96   0
   7  -6  13    6.92    6.23   0
   8  -4  27    6.37    8.51   0
   6  -4  25   -9.71    6.58   0
   9  -5  23   -4.83    7.71   0
   2   2  24 1943.12   23.64   0
   4  -2  27   -9.08    5.79   0
   4   0  31   -0.86    6.59   0
   6  -6   9    1.46    6.10   0
   6  -2  32  386.61   11.17   0
   6   0  33   -0.01    8.21   0
   8  -6  17   -2.20    7.55   0
   6  -3  30  221.73    9.33   0
   6   1  32  281.90   11.49   0
   7  -3  31    7.57    7.48   0
   9  -6  18  215.79   10.21   0
   3   1  29   -2.78    6.15   0
   3   2  28  422.98   12.35   0
   5  -2  31   -3.59    6.44   0
   6  -5  20  548.66   11.95   0
   6  -1  34  265.41   10.96   0
   9  -4  28  106.52    9.17   0
   2   1  25   10.01    5.51   0
   3  -2  23   -2.65    5.31   0
   7  -6  16  686.98   14.05   0
   7  -4  29   -4.14    8.55   0
   8  -5  25    1.14    7.71   0
   8  -3  32  250.36   10.98   0
   9  -7  10  172.07    9.04   0
   3  -4   7   22.54    5.57   0
   8  -4  30  108.14    9.89   0
   8  -1  33   -0.09    7.51   0
   2  -1  21   25.17    5.29   0
   4  -5   6  383.04   10.92   0
   5  -5  16  744.72   13.72   0
   5  -4  24  690.38   13.40   0
   5  -3  29   10.50    6.21   0
   7  -1  35    4.67    8.14   0
   7   0  34  171.84    9.92   0
   9  -5  26  161.58    9.77   0
   3  -3  18  541.99   11.46   0
   4  -3  25    2.63    5.68   0
   6  -6  12  384.86   11.18   0
   8  -6  20  242.34   10.11   0
   8  -2  34  145.96   10.05   0
   9  -6  21    3.80    7.62   0
   2  -2  16 3088.93   26.23   0
   3  -1  28 1441.09   17.88   0
   3   0  30  337.28   10.46   0
   4   1  33    5.76    7.07   0
   5   0  35   -1.12    7.03   0
   5   1  34  251.66   11.14   0
   6  -2  35   -4.53    8.49   0
   4  -2  30  219.08    8.68   0
   6  -3  33   -1.34    7.59   0
   7  -3  34  199.60   10.14   0
   9  -7  13    4.90    7.60   0
   7  -6  19    9.08    7.50   0
   5  -2  34  460.42   11.55   0
   6  -1  37    2.43    8.48   0
   7  -5  27    7.98    6.67   0
   7  -4  32  326.37   11.37   0
   8  -7  12  216.21   10.28   0
   8  -3  35    6.64    8.41   0
   3  -4  10 1162.39   17.18   0
   4  -5   9   19.43    5.86   0
   5  -5  19   -3.79    6.46   0
   6  -6  15   10.36    6.17   0
   8  -6  23   -7.42    7.64   0
   8  -4  33    0.66    8.19   0
   9  -5  29    4.51    7.80   0
   3  -2  26  568.20   11.55   0
   5  -4  27    2.16    7.17   0
   5  -3  32  780.97   14.26   0
   9  -7  16  195.55    9.81   0
   9  -6  24  215.33   10.36   0
   2   2  27   -2.23    5.71   0
   3   1  32  958.37   16.16   0
   6  -4  31    4.50    6.74   0
   7  -1  38   57.20    8.76   0
   7   0  37   -4.10    8.69   0
   8  -2  37   -2.17    7.68   0
   3  -3  21   -0.95    5.12   0
   4  -3  28  735.07   13.02   0
   7  -6  22  167.53    9.92   0
   8  -7  15   11.12    7.57   0
   2  -1  24 1910.39   20.20   0
   2   1  28 1385.39   18.81   0
   7  -3  37    3.89    8.41   0
   8  -5  31    1.23    7.95   0
   2  -2  19    0.84    4.75   0
   3  -1  31    0.65    6.51   0
   4  -5  12 1225.21   17.26   0
   4  -2  33   -3.87    7.16   0
   5  -6   8  847.61   15.30   0
   5   0  38  222.20   10.27   0
   5   1  37    4.12    8.44   0
   6  -6  18  297.92   10.41   0
   6  -3  36  348.48   10.55   0
   7  -5  30  199.43   10.12   0
   3   0  33    1.71    6.28   0
   4  -4  23    4.91    5.53   0
   4   1  36  363.67   11.50   0
   5  -5  22  268.85    9.78   0
   6   0  39    8.63    7.91   0
   7  -4  35   -0.74    8.24   0
   8  -6  26  226.28   10.56   0
   9  -7  19    3.17    7.02   0
   9  -6  27   -5.02    7.64   0
   3  -4  13    9.12    4.74   0
   5  -2  37   -0.13    6.72   0
   8  -4  36  145.48    9.92   0
   8  -3  38   47.29    7.97   0
   4   0  37   -6.64    7.24   0
   5  -4  30  182.90    8.69   0
   5  -1  39    0.58    7.60   0
   6  -4  34  182.11   10.16   0
   6  -1  40  236.25   10.72   0
   8  -7  18  247.67   10.02   0
   3  -2  29    6.29    5.74   0
   5  -3  35    7.27    6.75   0
   7  -6  25    1.23    7.88   0
   3  -3  24 1707.61   18.58   0
   4  -3  31   15.75    6.26   0
   5  -6  11    6.18    6.06   0
   7  -7  14  152.26    9.04   0
   7  -1  41   -1.39    8.56   0
   8  -5  34  145.79    9.51   0
   2   0  29   -3.05    4.89   0
   4  -5  15    1.34    6.00   0
   6  -6  21    2.99    7.10   0
   7  -5  33    2.66    7.97   0
   7  -3  40  162.52   10.13   0
   8  -6  29   -4.73    8.54   0
   9  -7  22   60.49    7.56   0
   3   1  35    6.01    6.42   0
   4  -4  26  774.77   13.82   0
   5  -5  25   -0.28    6.88   0
   6  -3  39    9.09    8.62   0
   2  -2  22 1978.40   20.33   0
   2  -1  27   -4.76    5.03   0
   3  -4  16 2075.47   21.24   0
   4  -2  36  424.18   11.63   0
   7  -4  38  162.13    9.46   0
   8  -7  21    3.35    7.59   0
   2   1  31    0.23    5.83   0
   2   2  30  218.20    9.52   0
   5  -6  14  451.22   11.60   0
   5  -2  40  467.55   12.66   0
   5   0  41    8.82    7.90   0
   7  -7  17    3.96    7.14   0
   8  -4  39    8.98    7.45   0
   3   0  36  916.92   15.42   0
   5  -4  33    5.84    6.68   0
   6  -4  37  -15.42    7.79   0
   6   0  42  155.92    9.77   0
   7  -6  28  165.97    9.03   0
   1   1  24 1810.42   21.99   0
   4  -5  18  793.53   14.15   0
   4   1  39   -0.18    7.36   0
   5  -3  38  106.05    9.13   0
   5  -1  42  214.50   10.54   0
   6  -6  24  660.29   13.48   0
   6  -5  32  427.39   11.19   0
   6  -1  43   12.12    8.42   0
   3  -3  27    3.46    5.57   0
   3  -2  32 1275.95   16.58   0
   4  -3  34  601.61   12.81   0
   4   0  40  493.04   12.70   0
   8  -6  32  211.79    9.90   0
   8  -5  37    0.91    7.28   0
   7  -5  36  189.35    9.80   0
   7  -3  43   -3.58    8.54   0
   4  -4  29    2.29    5.89   0
   5  -6  17    6.83    6.34   0
   6  -3  42  192.43   10.33   0
   7  -7  20  194.96    9.73   0
   7  -1  44  134.32    9.80   0
   2  -2  25    4.99    5.06   0
   2   0  32  665.84   12.71   0
   7  -6  31   -0.87    7.79   0
   7  -4  41    0.86    8.01   0
   2  -3  17   10.72    5.65   0
   2  -1  30  658.96   12.45   0
   4  -2  39   -0.64    6.49   0
   4  -1  41    3.85    7.44   0
   5  -4  36  530.52   12.57   0
   6  -6  27    6.10    7.44   0
   7  -2  45    5.23    8.56   0
   3   1  38  190.15    9.21   0
   4  -5  21    5.30    5.50   0
   6  -5  35   -1.15    8.19   0
   6  -4  40  280.01   11.28   0
   5  -6  20  527.11   12.37   0
   5  -3  41   -2.24    8.03   0
   5   0  44  220.05   10.63   0
   7  -7  23    2.58    7.52   0
   8  -7  27   -4.87    8.00   0
   8  -5  40  174.27    9.73   0
   1  -1  20 1563.68   19.12   0
   2   1  34  645.19   13.43   0
   3  -3  30  601.40   11.87   0
   3  -2  35    6.43    5.91   0
   3   0  39    3.71    6.97   0
   4  -3  37   -9.43    7.51   0
   6  -1  46   79.88    8.92   0
   6   0  45    3.46    7.43   0
   7  -5  39   -2.10    8.46   0
   1   2  26  516.53   12.99   0
   4  -4  32  488.54   12.07   0
   4   0  43   -3.93    7.31   0
   4   1  42  207.32   10.70   0
   5  -1  45    6.67    6.96   0
   1   1  27    1.85    5.35   0
   6  -3  45   -5.50    8.22   0
   7  -4  44  158.26    9.89   0
   7  -3  46   68.70    9.25   0
   2  -3  20 1470.91   17.80   0
   2  -2  28 1152.80   15.64   0
   4  -5  24  701.87   12.93   0
   6  -6  30  163.80    9.76   0
   6  -2  47    2.06    8.37   0
   2   0  35   -2.44    6.16   0
   4  -2  42  445.07   12.17   0
   5  -6  23   -1.21    6.74   0
   5  -4  39    9.76    6.80   0
   6  -5  38  163.76    9.62   0
   7  -7  26  261.73   10.45   0
   8  -7  30   55.84    7.91   0
   2  -1  33    4.72    5.38   0
   3  -5   5    8.40    5.66   0
   4  -1  44  320.65   11.22   0
   6  -4  43   -6.83    7.64   0
   3  -3  33   -1.01    6.85   0
   5  -5  34  303.29   10.84   0
   5  -3  44  275.80   10.88   0
   6  -7  19    4.48    7.01   0
   7  -5  42  122.62    9.20   0
   1  -1  23   -1.33    4.72   0
   3  -2  38  372.31   10.97   0
   3   1  41    1.17    6.62   0
   4  -4  35    1.01    6.98   0
   4  -3  40  510.35   11.84   0
   5   0  47   -8.36    8.28   0
   2  -3  23   -1.41    5.95   0
   3   0  42  349.13   11.17   0
   4  -5  27    3.86    6.73   0
   6  -6  33    5.00    7.58   0
   6  -1  49   -1.57    7.79   0
   7  -6  37   -2.00    7.28   0
   1  -2  15    4.43    4.59   0
   2   1  37    1.87    6.12   0
   5  -6  26  268.20   10.15   0
   5  -1  48  233.12   11.24   0
   6  -3  48  150.19   10.03   0
   7  -7  29   -2.60    7.13   0
   7  -4  47    4.17    7.98   0
   8  -7  33   -1.95    7.11   0
   2  -2  31    4.78    5.45   0
   3  -5  11    5.26    5.46   0
   4   0  46  152.93    9.65   0
   5  -4  42  259.34   10.62   0
   6  -7  22  174.48    9.33   0
   6  -5  41    4.01    7.89   0
   1   1  30  624.63   13.18   0
   1   2  29    4.80    5.16   0
   4  -2  45    3.60    7.59   0
   6  -4  46  129.35    9.55   0
   6  -2  50  116.97    9.33   0
   2  -1  36  961.55   14.65   0
   2   0  38  292.44    9.97   0
   3  -3  36  575.29   12.33   0
   5  -5  37    3.25    6.53   0
   7  -5  45    4.10    8.50   0
   3  -5  14  401.66   11.00   0
   3  -1  43   -5.06    6.85   0
   4  -6  13    2.68    5.59   0
   4  -4  38  156.05    8.91   0
   4  -3  43    5.59    7.94   0
   4  -1  47    1.31    6.64   0
   5  -3  47   -0.78    8.15   0
   1  -2  18 1236.19   16.98   0
   2  -3  26  535.32   11.29   0
   3  -2  41    5.94    6.36   0
   5  -6  29    6.58    6.36   0
   6  -7  25    1.16    6.72   0
   6  -6  36  156.66    9.24   0
   7  -7  32  276.16   10.55   0
   2  -4   9   -2.37    4.97   0
   4  -6  16  756.47   14.72   0
   2  -2  34  301.20    9.43   0
   3  -5  17    6.94    5.94   0
   3  -4  31   12.02    6.50   0
   3   0  45   -2.73    7.33   0
   3   1  44  318.79   11.06   0
   5  -4  45   -3.31    8.33   0
   5   0  50   84.65    8.69   0
   6  -5  44  173.12    9.85   0
   2  -4  12  799.54   14.78   0
   5  -5  40  233.44   10.60   0
   5  -1  51   -1.33    8.57   0
   6  -3  51   -0.48    7.41   0
   1  -2  21   20.75    6.04   0
   2   1  40  483.66   12.12   0
   3  -3  39   -4.46    7.23   0
   4   0  49   -1.35    7.56   0
   5  -6  32  438.28   12.18   0
   6  -7  28  177.06    9.32   0
   6  -4  49    8.37    8.46   0
   1  -1  29   -2.59    5.95   0
   1   1  33    7.75    5.88   0
   2  -3  29    2.39    5.54   0
   3  -5  20  639.06   12.98   0
   4  -6  19   -3.08    6.19   0
   4  -4  41   -3.29    7.51   0
   6  -6  39   -0.49    7.88   0
   6  -2  53   12.53    8.43   0
   7  -7  35  -10.65    7.28   0
   1   2  32 1233.55   18.83   0
   2  -4  15    0.92    4.47   0
   2   0  41   -1.13    6.67   0
   3  -1  46  157.81    9.38   0
   4  -3  46   82.10    9.25   0
   4  -1  50  190.32   10.48   0
   5  -2  52  154.82   10.30   0
   3  -4  34  568.37   12.58   0
   3  -2  44  357.24   10.58   0
   2  -2  37   -2.57    5.87   0
   4  -6  22  379.56   10.95   0
   6  -7  31   12.21    8.58   0
   6  -5  47    1.38    8.32   0
   1  -2  24 1913.03   19.92   0
   1   0  34  997.52   15.54   0
   2  -4  18 1106.75   15.91   0
   3  -5  23    4.41    6.38   0
   5  -6  35    3.03    7.41   0
   5  -5  43    4.73    7.87   0
   5  -4  48  159.65    9.41   0
   2  -3  32 1293.24   16.41   0
   3  -3  42  291.88   10.50   0
   3   0  48  229.10   10.32   0
   7  -7  38   44.87    7.62   0
   1  -1  32 1908.58   20.11   0
   3   1  47    1.08    7.18   0
   4  -6  25   -0.17    6.48   0
   4  -4  44  444.50   12.41   0
   5  -7  21   -1.80    6.98   0
   5  -1  54   77.04    9.21   0
   6  -4  52  122.84    9.03   0
   2  -4  21    7.05    4.96   0
   2   1  43    4.66    6.34   0
   4  -3  49   -3.33    8.47   0
   1   1  36  942.24   15.12   0
   2   0  44  802.91   14.83   0
   3  -5  26  680.86   12.71   0
   3  -4  37   -2.92    6.25   0
   3  -2  47    7.01    7.16   0
   4   0  52  165.40   10.12   0
   5  -3  53    8.54    8.37   0
   6  -7  34  204.58    9.57   0
   1  -2  27   -2.92    5.14   0
   2  -2  40  909.73   14.37   0
   3  -1  49    6.18    6.46   0
   4  -5  39    3.38    7.14   0
   4  -1  53  -10.70    7.66   0
   5  -7  24  473.02   12.70   0
   5  -6  38  158.33    9.41   0
   5  -2  55   -1.41    7.80   0
   6  -5  50   96.30    9.51   0
   1   2  35    0.36    5.36   0
   2  -3  35   -4.22    5.91   0
   5  -4  51   -3.16    8.09   0
   0   0  21   -0.45    5.08   0
   1   0  37   -7.85    5.17   0
   3  -5  29    1.27    6.64   0
   3  -3  45   -5.92    7.49   0
   1  -1  35    6.80    5.41   0
   4  -4  47    6.32    7.40   0
   1  -3  13   32.29    5.63   0
   1  -2  30  692.71   12.39   0
   3  -4  40  493.55   11.63   0
   3   0  51   -4.41    7.72   0
   5  -7  27    4.37    7.10   0
   6  -7  37    4.89    7.83   0
   4  -6  31   -0.17    7.18   0
   4  -5  42  223.70   10.17   0
   4  -3  52  218.75   10.44   0
   4  -2  54   43.11    7.98   0
   5  -6  41   13.29    7.87   0
   5  -1  57    1.59    7.27   0
   0   1  26 1157.41   17.54   0
   1   1  39    1.46    5.97   0
   2  -2  43    2.20    6.34   0
   2   0  47   12.25    7.09   0
   2   1  46  160.80    8.63   0
   3  -5  32  768.73   14.11   0
   3  -2  50  183.56    8.98   0
   0   0  24 4760.75   32.63   0
   3  -1  52  308.72   11.47   0
   4   0  55   -5.90    7.25   0
   5  -7  30  194.12    9.72   0
   5  -5  49   10.07    7.56   0
   5  -2  58  124.13    9.54   0
   1  -2  33   13.14    6.64   0
   1  -1  38  286.92    9.86   0
   1   0  40  809.07   14.39   0
   2  -4  30  221.36    8.85   0
   3  -3  48  380.21   11.70   0
   4  -1  56  154.44   10.24   0
   5  -4  54   68.38    8.25   0
   6  -7  40  245.71   10.45   0
   3  -4  43    8.43    6.82   0
   4  -6  34  189.65    9.68   0
   4  -4  50  177.72    9.44   0
   2  -1  48  374.60   11.42   0
   4  -5  45   -7.88    8.25   0
   5  -6  44  181.58    9.69   0
   0   0  27   -2.32    4.65   0
   0   1  29   -1.22    5.37   0
   2  -3  41   -5.89    6.40   0
   2  -2  46  299.21   10.79   0
   4  -3  55    0.89    8.30   0
   5  -7  33    1.94    7.03   0
   0  -1  19   -2.55    4.68   0
   1  -3  25   10.00    6.01   0
   2  -4  33   -6.67    5.78   0
   3   0  54   89.94    8.64   0
   4  -2  57    4.94    7.67   0
   5  -5  52  206.25   10.21   0
   1  -2  36  989.23   14.53   0
   1   1  42  352.66   10.77   0
   2   0  50  217.85   10.29   0
   4  -6  37    0.01    7.80   0
   6  -7  43    0.48    7.25   0
   0  -1  22  497.18   11.28   0
   0   2  28 1098.40   18.01   0
   1  -1  41   -4.21    5.81   0
   1   0  43    0.51    6.45   0
   2   1  49   -1.10    6.95   0
   3  -4  46   85.38    9.00   0
   3  -3  51   -7.73    8.03   0
   3  -1  55    5.22    8.02   0
   1  -3  28 1423.99   17.52   0
   4  -4  53    4.27    7.71   0
   4  -1  59    2.61    8.16   0
   5  -7  36  183.64    9.67   0
   0  -1  25   -2.91    5.76   0
   0   1  32 1859.55   21.11   0
   2  -4  36  401.86   10.53   0
   2  -3  44  371.49   11.37   0
   3  -6  15    2.13    5.57   0
   3  -6  18  436.13   12.08   0
   4  -5  48  162.36    9.41   0
   1  -2  39   -2.20    6.81   0
   2  -2  49   -5.90    7.32   0
   2  -1  51   -0.24    7.42   0
   3  -6  21    7.89    6.23   0
   4  -6  40  292.66   10.75   0
   1  -3  31    2.82    6.48   0
   5  -5  55   -3.11    7.74   0
   1   1  45    5.51    6.65   0
   3  -6  24  619.01   13.28   0
   3  -4  49   -3.65    8.10   0
   4  -2  60  113.59    9.54   0
   5  -7  39    8.54    7.66   0
   0   2  31    0.96    4.68   0
   1   0  46  126.84    8.48   0
   2  -5  13    0.15    5.15   0
   2  -5  16 1853.38   21.41   0
   2  -5  19    6.58    5.83   0
   2  -4  39   -0.47    6.24   0
   2   0  53    6.16    7.63   0
   3  -3  54   98.41    9.28   0
   3   0  57   -2.32    7.88   0
   0   1  35    3.49    5.61   0
   2  -5  22  325.49   10.26   0
   2  -3  47   -0.15    7.80   0
   3  -6  27   -5.79    6.56   0
   3  -1  58  130.68    9.14   0
   4  -6  43    4.83    7.60   0
   4  -5  51   14.38    8.32   0
   0  -1  31    0.03    6.18   0
   1  -3  34  635.09   12.23   0
   1  -2  42  365.78   10.84   0
   2  -5  25    6.77    6.16   0
   2  -2  52  207.87   10.42   0
   2  -1  54  132.64    9.36   0
   3  -6  30  204.63    9.43   0
   3  -5  44  271.13   10.65   0
   5  -7  42  104.79    8.57   0
   2  -5  28  447.68   11.61   0
   2  -4  42  474.11   11.40   0
   3  -4  52  243.86   10.95   0
   4  -7  29    0.97    7.25   0
   0   2  34  292.24   10.09   0
   1  -3  37   -9.92    6.99   0
   3  -2  59    8.27    7.91   0
   0  -2  20 3662.85   28.20   0
   0  -1  34 1042.71   14.96   0
   0   1  38  288.08    9.84   0
   1   0  49    1.55    6.83   0
   1   1  48  381.61   11.37   0
   2  -3  50  189.88   10.14   0
   3  -6  33    7.15    6.70   0
   3  -3  57    1.41    7.95   0
   4  -6  46  121.40    9.24   0
   4  -5  54   70.79    8.95   0
   0  -2  17    0.36    4.69   0
   0  -2  23   -0.74    5.02   0
   1  -2  45   10.77    6.37   0
   2  -5  31    3.92    5.86   0
   2   0  56  124.84    9.41   0
   3  -5  47   -1.72    8.22   0
   4  -7  32  315.92   10.95   0
   4  -4  59    1.76    8.56   0
   5  -7  45    2.55    7.85   0
   0  -2  14  341.26   10.09   0
   0  -2  26 1308.85   17.00   0
   0   0  39   -3.87    5.41   0
   2  -4  45   10.10    7.88   0
   3  -1  61    0.79    7.66   0
   0  -1  37   -3.97    6.56   0
   1  -4  17    1.87    5.35   0
   1  -4  20  942.07   14.75   0
   1  -4  23   25.45    6.34   0
   1  -3  40  488.38   11.37   0
   2  -5  34  464.21   11.67   0
   3  -6  36  332.11   11.22   0
   4  -7  35    1.64    8.41   0
   0  -2  29   -2.99    5.85   0
   0   2  37   -2.32    5.89   0
   1  -4  14  699.81   13.81   0
   1  -4  26  658.95   12.98   0
   2  -1  57    4.36    7.59   0
   3  -4  55    0.68    8.43   0
   4  -6  49    4.39    7.86   0
   0   1  41    6.10    6.14   0
   1  -2  48  375.21   11.57   0
   2  -3  53   -0.98    8.00   0
   0   0  42  831.84   14.54   0
   1  -3  43   -0.55    7.63   0
   1   0  52  368.92   11.47   0
   2  -5  37    7.08    7.18   0
   2  -4  48  355.33   11.85   0
   3  -6  39    1.93    7.33   0
   3  -5  50  198.60   10.11   0
   3  -3  60  115.92    9.17   0
   3  -2  62   44.20    8.40   0
   4  -5  57   -4.15    8.41   0
   0  -2  32  673.85   12.43   0
   0  -1  40  810.41   14.29   0
   1  -4  11   34.27    5.75   0
   1   1  51    0.81    6.79   0
   4  -7  38  149.38    9.57   0
   2   0  59    1.72    8.69   0
   0  -2  35   -1.13    6.69   0
   1  -1  53    2.76    7.72   0
   3  -6  42  179.42    9.82   0
   3  -4  58  132.41    9.41   0
   0   1  44  489.68   12.03   0
   1  -4  35   17.81    7.05   0
   1  -3  46  157.08    9.57   0
   1  -2  51    4.52    7.51   0
   2  -1  60  199.45    9.92   0
   4  -7  41    7.10    7.31   0
   0  -1  43  -12.16    6.99   0
   0   0  45    0.94    6.67   0
   2  -4  51   10.88    8.40   0
   3  -5  53    9.33    8.19   0
   1   0  55   -6.04    7.51   0
   3  -3  63   -9.22    7.79   0
   1  -4  38  169.08    8.46   0
   1   1  54  121.21    9.03   0
   3  -6  45   18.14    7.67   0
   4  -7  44  147.95    9.51   0
   0  -2  41    7.31    7.34   0
   0  -1  46  127.00    8.77   0
   0   1  47    0.66    6.48   0
   1  -3  49    5.21    6.71   0
   1  -2  54  133.45    9.46   0
   1  -1  56  231.56   10.95   0
   2  -2  61    0.06    7.48   0
   3  -4  61   10.91    7.76   0
   0  -3  24 1095.63   15.51   0
   0  -3  27   -0.81    6.18   0
   0   0  48  490.26   11.68   0
   1  -4  41    4.61    6.60   0
   2  -4  54   39.57    8.00   0
   2  -3  59   -0.02    8.47   0
   2   0  62   73.15    8.78   0
   3  -5  56  132.11    9.67   0
  -1   1  22  460.00   11.84   0
  -1   1  25    1.26    4.28   0
  -1   1  28 1416.05   18.55   0
   0  -3  30  330.58   10.25   0
   2  -1  63   -8.47    8.23   0
   3  -6  48  148.02    9.65   0
   4  -7  47    2.66    7.62   0
  -1   0  23   -1.84    4.74   0
  -1   0  26 1157.31   16.15   0
  -1   0  29   -3.26    5.82   0
   0  -2  44  803.67   14.62   0
   1   0  58  188.43   10.26   0
  -1   0  20 1534.58   19.21   0
  -1   1  31    2.00    5.33   0
   0  -3  33    0.46    5.87   0
   1  -4  44  317.80   10.20   0
   1  -3  52  332.60   10.88   0
   2  -6  23   -0.23    6.23   0
   2  -6  26  394.40   11.36   0
  -1   0  32 1859.85   19.64   0
   0  -3  15    3.35    5.32   0
   0  -3  36  891.08   14.82   0
   0   0  51   -2.71    7.22   0
   1  -2  57    6.26    7.83   0
   1  -1  59   -3.61    8.11   0
   2  -6  20  682.58   13.99   0
   2  -6  32  403.57   11.70   0
   2  -5  49    0.43    7.12   0
   2  -4  57  -11.27    8.44   0
   3  -7  31   -0.53    7.10   0
  -1   1  34 1036.84   15.78   0
   0   1  50  313.97   10.80   0
   2  -3  62   52.91    9.00   0
   2  -2  64  133.60    9.70   0
   3  -7  34  198.39   10.58   0
   3  -6  51    0.69    7.59   0
   0  -2  47   15.51    7.54   0
   1  -4  47   -1.16    7.82   0
   2  -6  35   -7.45    7.29   0
  -1  -1  24 1973.56   20.62   0
  -1  -1  27    2.08    6.01   0
  -1   1  37   -3.20    5.87   0
   0  -3  39   -0.91    6.23   0
   1  -5  24  966.25   15.68   0
   1  -5  27    6.15    6.44   0
   1  -3  55    5.87    8.21   0
   3  -7  37    7.92    8.45   0
  -1  -1  30  667.09   12.44   0
  -1   2  27   -0.79    5.15   0
   1  -5  21    6.01    6.11   0
   1  -5  30  331.51   10.01   0
   2  -6  38  116.44    9.08   0
   2  -5  52  166.85    9.46   0
  -1  -1  21   23.82    5.39   0
  -1  -1  33    1.39    5.69   0
  -1   2  30  632.80   13.67   0
   0  -3  12 2503.92   24.86   0
   0  -3  42  333.66   10.89   0
   0   0  54   41.10    8.46   0
   1  -5  33    8.03    6.09   0
   1   0  61    1.40    7.89   0
   3  -6  54   53.35    8.06   0
  -1   1  40  790.78   14.36   0
  -1   2  33    6.80    5.93   0
   0  -2  50  223.75    9.53   0
   0   1  53   -2.46    6.74   0
   1  -5  18  403.21   11.04   0
   1  -5  36  356.48   11.00   0
   1  -4  50  214.41    9.36   0
   1  -1  62   48.42    8.67   0
   2  -6  41    5.18    7.79   0
   3  -7  40  167.96    9.61   0
  -1  -1  18 1240.63   17.01   0
  -1  -1  39   -0.21    7.00   0
   0  -3  45    4.73    7.82   0
   0  -1  55   -6.87    7.81   0
   1  -5  39   -4.76    7.34   0
   1  -3  58  123.14    9.44   0
   2  -5  55    9.52    7.93   0
   3  -7  43    6.48    7.58   0
  -1   1  43   -3.12    6.49   0
  -1   2  36  948.61   15.95   0
   1  -4  53   -3.73    8.53   0
   2  -6  44  260.14   10.64   0
   1  -5  15   10.77    5.87   0
   1  -5  42  191.15    9.49   0
  -1  -1  15    2.46    4.66   0
  -1  -1  42  355.99   10.25   0
  -1   2  39    1.46    6.22   0
   0  -4  28  642.62   13.06   0
   0  -3  48  234.00   10.52   0
   0   0  57    7.04    6.64   0
   1   0  64   96.33    8.83   0
   3  -7  46   61.95    8.60   0
  -1  -2  25    8.45    6.16   0
  -1  -2  28 1436.62   17.28   0
  -1  -2  31    8.35    5.92   0
   0  -4  25   -6.48    6.25   0
   0   1  56  224.30   10.17   0
   1  -1  65   -6.50    8.13   0
   2  -6  47   -8.62    7.96   0
   2  -5  58  118.38    9.00   0
  -1  -2  34  656.69   12.42   0
  -1   0  47   -3.55    7.30   0
  -1   1  46  130.91    8.16   0
   0  -4  22  725.31   13.65   0
   0  -1  58  173.45    9.89   0
   1  -4  56  178.13   10.19   0
   1  -3  61    5.86    8.22   0
  -1  -2  22  480.97   10.92   0
  -1  -2  37    6.80    6.03   0
  -1  -1  45   -1.26    6.30   0
   1  -2  15    7.08    5.82   0
   5  -6  29   -2.27    8.51   0
   7  -6  34  186.66   10.79   0
   1  -4   5    4.76    5.73   0
   3  -1  28 1467.66   19.68   0
   4  -7  17   13.95    7.66   0
   5  -8  16  458.39   12.78   0
   5  -3  35    9.04    7.38   0
   5  -2  34  473.51   13.07   0
   6  -9  12  183.97   10.25   0
   6  -5  35    1.33    7.50   0
   6  -3  36  343.66   12.19   0
   2  -5  13    0.77    5.91   0
   3  -5  23   -2.63    7.25   0
   6  -8  23   -8.57    8.23   0
   6  -6  33    1.10    7.35   0
   7  -9  19   12.42    8.41   0
   7  -8  27    5.58    8.62   0
   8  -7  33   12.95    9.09   0
   2  -3  23    3.75    5.57   0
   4  -6  25    2.64    6.65   0
   4  -2  33   -7.88    7.17   0
   6  -4  37   -3.77    8.63   0
   6  -2  35   -0.22    8.09   0
   7  -7  32  284.85   11.14   0
   1  -3  13   29.89    5.58   0
   4  -5  30  209.43   10.33   0
   5  -5  34  295.62   11.21   0
   8  -5  37  -10.28    8.18   0
   2  -2  25   -3.02    5.48   0
   3  -6  18  435.89   11.94   0
   3  -4  28  755.74   13.66   0
   3  -3  30  623.48   13.29   0
   5  -4  36  493.43   13.23   0
   6  -9  15   10.45    7.76   0
   7  -4  38  144.08   10.29   0
   7  -3  37   -4.18    8.09   0
   2  -4  21    4.01    6.46   0
   3  -7   7    4.83    6.26   0
   4  -7  20  483.59   12.63   0
   4  -1  32  927.72   16.53   0
   5  -8  19   -5.09    8.15   0
   6  -7  31    0.36    9.01   0
   5  -6  32  430.03   11.81   0
   7  -9  22   67.78    8.32   0
   7  -6  37    9.65    8.66   0
   1  -4   8 2770.00   27.22   0
   2  -5  16 1867.21   21.03   0
   2   0  23   -0.95    5.03   0
   3   0  27   -0.94    5.58   0
   6  -8  26  218.41   10.95   0
   6  -5  38  148.59   10.13   0
   7  -8  30   60.61    9.09   0
   7  -5  39   -3.24    8.92   0
   1  -2  18 1280.12   18.08   0
   2  -6   5    1.62    6.18   0
   4  -6  28  468.92   12.67   0
   6  -6  36  174.87    9.36   0
   7  -7  35   -1.90    8.71   0
   3  -7  10  410.97   11.72   0
   4  -4  35  -12.57    7.63   0
   5  -3  38  113.02    9.35   0
   5  -2  37    0.85    7.76   0
   6  -9  18  216.97   10.59   0
   6  -3  39    3.02    8.11   0
   1  -3  16 2133.11   22.51   0
   2  -3  26  571.54   12.11   0
   3  -6  21    4.48    6.18   0
   3  -1  31    6.26    6.42   0
   4  -5  33    5.55    8.21   0
   5  -8  22  133.31    9.79   0
   5  -5  37   -8.20    8.67   0
   6  -4  40  277.11   11.97   0
   8  -4  39    4.36    8.19   0
   3  -4  31   23.20    7.28   0
   4  -8  12  274.41   11.25   0
   4  -7  23   -2.43    7.90   0
   4  -2  36  420.73   12.25   0
   6  -7  34  188.41   10.53   0
   1  -4  11   30.85    6.01   0
   2  -4  24 1936.35   20.61   0
   3  -3  33    1.02    6.85   0
   5  -7  30  184.62    9.35   0
   5  -6  35    4.15    8.39   0
   7  -4  41    3.83    9.05   0
   2  -6   8  877.59   15.81   0
   2  -5  19    4.17    6.53   0
   2  -2  28 1208.63   16.68   0
   6  -9  21    2.48    8.68   0
   7  -8  33    0.38    8.23   0
   7  -6  40  229.84   10.95   0
   1  -1  20 1572.36   19.95   0
   3  -7  13   12.05    6.94   0
   3  -5  29   14.45    7.46   0
   4  -6  31    6.78    7.64   0
   3  -6  24  663.24   13.51   0
   4  -1  35    7.38    6.73   0
   6  -6  39   -0.54    7.74   0
   7  -7  38   50.70    9.30   0
   7  -5  42   93.11    9.73   0
   4  -8  15    2.93    7.22   0
   5  -8  25    4.44    8.26   0
   1  -3  19    4.82    5.07   0
   1  -2  21   26.53    5.61   0
   2  -6  11    0.22    5.84   0
   4  -5  36  529.04   13.15   0
   4  -4  38  134.28    8.71   0
   5  -3  41   -4.12    8.37   0
   1  -4  14  710.94   13.85   0
   2  -3  29   10.99    5.96   0
   3  -7  16  461.28   12.13   0
   3  -4  34  586.36   13.22   0
   3  -2  35   -8.83    6.99   0
   5  -7  33   -1.42    7.22   0
   5  -5  40  215.85   10.13   0
   6  -9  24  180.75   10.29   0
   6  -7  37    3.27    7.99   0
   6  -4  43   -6.38    8.80   0
   6  -3  42  174.17   10.73   0
   2  -5  22  326.37   10.56   0
   2  -4  27    3.19    5.76   0
   2   0  26 1265.88   18.82   0
   3   0  30  319.90   10.76   0
   5  -6  38  158.51   10.28   0
   5  -2  40  500.74   13.70   0
   3  -1  34  660.98   13.98   0
   4  -8  18  228.62   10.23   0
   4  -2  39   -0.78    7.43   0
   2  -2  31   -3.78    5.70   0
   3  -5  32  751.45   13.86   0
   4  -6  34  200.45    9.31   0
   5  -8  28  179.01   10.06   0
   7  -4  44  143.33   10.00   0
   1  -5   3   30.17    6.27   0
   2  -1  30  607.19   12.48   0
   4  -7  29    1.14    8.02   0
   6  -6  42  160.85    9.71   0
   1  -4  17    4.95    5.79   0
   1  -1  23    1.51    4.80   0
   3  -7  19    4.60    6.22   0
   6  -9  27   -2.73    8.11   0
   7  -5  45    5.28    8.16   0
   1  -3  22  484.05   11.15   0
   1  -2  24 1950.65   20.66   0
   4  -8  21   -1.71    7.61   0
   4  -5  39    4.93    7.21   0
   4  -4  41   -3.42    8.24   0
   5  -7  36  182.76    9.60   0
   6  -7  40  245.80   11.05   0
   2  -6  17   -3.45    6.44   0
   2  -4  30  216.00    9.30   0
   2  -3  32 1307.03   16.93   0
   3  -4  37    4.62    7.75   0
   4  -1  38  181.75    9.53   0
   5  -5  43   -9.70    8.93   0
   3  -2  38  347.86   11.30   0
   5  -8  31    7.60    8.07   0
   5  -6  41    2.98    8.18   0
   5  -3  44  287.15   11.61   0
   3  -7  22  193.04    9.52   0
   3  -5  35   -1.31    7.49   0
   4  -6  37   -0.96    7.17   0
   5  -4  45  -15.60    8.79   0
   6  -4  46  105.90   10.23   0
   6  -3  45    7.95    8.80   0
   1  -5   9    1.39    5.62   0
   3  -3  39   -2.21    6.61   0
   5  -2  43    0.29    7.60   0
   1   0  22  474.69   12.17   0
   2  -2  34  296.86    9.66   0
   2   0  29   -1.51    5.52   0
   3  -1  37   -2.52    6.76   0
   3   0  33    1.02    6.23   0
   4  -8  24  345.64   11.60   0
   4  -3  43    5.31    6.85   0
   4  -2  42  446.48   12.54   0
   6  -6  45   -2.51    7.78   0
   7  -4  47   -3.92    8.53   0
   1  -3  25    2.25    5.69   0
   2  -6  20  674.14   13.71   0
   2  -1  33    2.89    6.23   0
   5  -9  23    5.77    6.98   0
   5  -7  39   -7.32    8.60   0
   6  -5  47    2.87    8.71   0
   1  -5  12  952.87   16.07   0
   1  -2  27   -3.17    5.26   0
   1  -1  26 1188.50   16.67   0
   4  -5  42  239.29   10.22   0
   6  -7  43    7.48    7.62   0
   2  -4  33   -3.06    6.23   0
   2  -3  35    6.50    6.28   0
   3  -7  25   15.09    7.79   0
   3  -4  40  516.14   12.78   0
   4  -4  44  439.02   11.94   0
   5  -8  34  150.77   10.14   0
   5  -6  44  183.42   10.39   0
   5  -5  46   99.44    9.69   0
   3  -5  38  119.82    8.94   0
   4  -8  27    6.93    8.14   0
   4  -6  40  262.43   11.74   0
   2  -6  23   -4.52    6.99   0
   3  -2  41   -3.90    7.51   0
   4  -1  41   -0.54    7.74   0
   5  -9  26  156.51    9.50   0
   5  -3  47   -4.26    8.09   0
   1  -5  15   17.22    6.21   0
   2  -5  31   -7.47    7.49   0
   3  -3  42  259.10   10.91   0
   6  -4  49    4.89    8.99   0
   6  -3  48  165.16   11.46   0
   0  -2  14  342.53   10.30   0
   1  -3  28 1401.10   17.40   0
   2  -2  37   -2.61    6.93   0
   3  -7  28  427.10   12.38   0
   4  -3  46  104.38    9.81   0
   5  -7  42  101.74    9.14   0
   6  -6  48  165.77    9.47   0
   1  -2  30  673.07   13.25   0
   1   0  25   -2.01    5.18   0
   4  -5  45    0.38    8.56   0
   5  -8  37   -1.31    7.92   0
   5  -2  46   73.75    8.73   0
   6  -5  50   83.50    9.58   0
   1  -5  18  403.87   11.25   0
   1  -4  26  683.12   13.31   0
   1  -1  29    3.53    5.17   0
   2  -3  38  358.87   11.06   0
   2  -1  36  996.40   16.04   0
   2   0  32  678.99   14.18   0
   3  -6  36  348.76   11.75   0
   3  -1  40  490.66   12.72   0
   4  -8  30  113.39    8.76   0
   4  -2  45   -7.87    6.89   0
   3  -5  41    5.37    8.68   0
   3  -4  43    0.80    8.29   0
   3   0  36  893.48   16.59   0
   4  -6  43    2.38    8.55   0
   5  -9  29   -5.48    7.07   0
   5  -6  47    8.25    8.16   0
   5  -5  49   -1.95    8.42   0
   0  -3  12 2580.25   25.80   0
   0  -2  17   -4.36    5.55   0
   1  -3  31    8.73    6.57   0
   2  -5  34  482.14   11.79   0
   3  -7  31   -1.51    7.53   0
   1  -5  21    7.81    6.44   0
   3  -2  44  358.45   11.44   0
   5  -7  45    9.56    8.12   0
   5  -3  50  183.51   11.14   0
   0  -3  15    4.81    5.48   0
   1  -4  29    3.38    6.83   0
   2  -6  29   -5.18    7.05   0
   3  -6  39   10.38    8.48   0
   4  -8  33    3.57    7.61   0
   5  -4  51   -0.86    8.66   0
   6  -4  52  135.94    9.62   0
   0  -1  19   -1.35    5.58   0
   1  -2  33    3.97    5.90   0
   2  -4  39    6.33    6.72   0
   4  -5  48  149.61   10.22   0
   4  -3  49    6.66    8.17   0
   0  -2  20 3613.79   28.03   0
   1   0  28 1380.00   18.75   0
   2  -7  18  408.44   12.14   0
   2  -3  41    2.86    6.65   0
   4  -6  46  121.38    9.70   0
   1  -5  24  953.81   15.66   0
   2  -5  37    7.04    7.54   0
   2  -1  39   -1.51    5.73   0
   2   0  35   -2.15    5.96   0
   3  -7  34  194.31   10.11   0
   3  -5  44  252.00   10.25   0
   3  -4  46   89.53    8.42   0
   3  -1  43    2.38    6.95   0
   4  -2  48  316.89   11.95   0
   5  -6  50   95.12    9.73   0
   1  -3  34  624.99   12.62   0
   1  -4  32  971.19   15.35   0
   2  -7  21   -0.86    7.43   0
   2  -6  32  366.80   10.73   0
   4  -8  36  145.80    9.30   0
   0  -2  23    2.26    5.09   0
   0  -1  22  505.06   11.55   0
   3  -6  42  172.54   10.12   0
   1  -5  27    0.82    6.93   0
   1  -2  36 1018.10   15.19   0
   2  -4  42  458.10   11.75   0
   3  -8  26  191.42   10.12   0
   3  -2  47    2.59    6.77   0
   4  -7  44  147.31    9.68   0
   5  -4  54   61.97    9.71   0
   2  -3  44  387.95   11.58   0
   3  -7  37    8.15    8.34   0
   4  -5  51    2.28    8.03   0
   5  -3  53  -11.64    8.54   0
   0  -4   7   -0.86    5.54   0
   0  -4  10  425.84   11.70   0
   1  -3  37    3.73    6.99   0
   1   0  31   -0.61    5.56   0
   2  -7  24  337.19   11.17   0
   2  -6  35    1.38    8.12   0
   2  -5  40  495.62   12.18   0
   3  -5  47   -2.02    7.30   0
   4  -6  49  -12.44    7.94   0
   4  -3  52  233.89   11.14   0
   0  -4  13    4.21    5.52   0
   0  -2  26 1365.92   17.53   0
   1  -6  16  674.86   14.42   0
   1  -4  35    0.87    7.22   0
   2  -1  42  350.44   11.30   0
   4  -8  39    2.25    7.41   0
   0  -3  24 1099.12   15.71   0
   0  -1  25   -4.58    5.07   0
   1  -5  30  321.32   10.88   0
   2   0  38  272.86   10.16   0
   3  -8  29    4.95    7.17   0
   3  -1  46  162.87    9.47   0
   4  -2  51    4.76    7.76   0
   0  -4  16 1587.73   19.92   0
   1  -6  19   -2.13    7.13   0
   1  -2  39   -9.17    7.33   0
   2  -7  27    8.00    6.93   0
   2  -4  45   -5.34    8.26   0
   3  -6  45   12.62    7.83   0
   3  -7  40  162.36   10.11   0
   3  -3  51   -1.48    8.43   0
   4  -7  47    1.36    8.61   0
   0  -4  19   -1.02    5.91   0
   0  -3  27   -6.67    6.56   0
   0   0  21   -0.75    4.42   0
   2  -6  38  100.73    9.27   0
   2  -5  43  -11.95    8.61   0
   2  -3  47   -8.14    8.22   0
   3  -2  50  202.97   10.27   0
   4  -5  54   62.60    9.10   0
   0  -2  29   -1.81    5.48   0
   1  -6  22  229.30    9.72   0
   1  -4  38  174.42    9.69   0
   1  -3  40  511.79   11.92   0
   1   0  34  996.04   16.00   0
   3  -8  32  220.52    9.93   0
   3  -5  50  221.63   10.93   0
   4  -6  52  137.05    9.83   0
   5  -4  57    3.61    8.68   0
   0  -4  22  726.82   13.96   0
   2  -7  30   92.50    8.82   0
   3  -4  52  238.42   10.48   0
   4  -3  55   -0.01    8.76   0
   5  -3  56  129.89    9.45   0
   2  -1  45   -6.17    6.87   0
   3  -6  48  168.87   10.13   0
   4  -4  56   87.72    9.57   0
   0  -3  30  353.43   10.45   0
   0   0  24 4912.15   34.03   0
   1  -6  25    8.85    7.01   0
   1  -2  42  355.88   10.99   0
   3  -7  43    3.34    8.24   0
   0  -4  25   -1.17    6.47   0
   2  -7  33   -4.14    7.90   0
   2  -5  46   70.92    9.04   0
   2   0  41   -0.00    6.43   0
   3  -8  35   -4.57    7.27   0
   3  -1  49   -0.46    7.34   0
   4  -2  54   42.13    8.98   0
   0  -1  31    2.86    5.31   0
   1  -4  41   -2.52    7.99   0
   1  -3  43    9.32    7.93   0
   2  -2  49   -1.32    7.98   0
   3  -3  54  105.73    9.71   0
   1  -6  28  445.96   12.23   0
   1   1  27    1.10    4.78   0
   2  -3  50  202.39    9.62   0
   3  -5  53   -3.71    8.32   0
   3  -2  53    0.66    8.41   0
   4  -5  57    2.69    8.04   0
   0  -4  28  644.90   13.24   0
   0  -3  33   -6.36    7.02   0
   1   0  37    1.61    5.18   0
   3  -4  55   -3.62    8.76   0
   0  -2  35   -1.52    6.55   0
   2  -7  36  303.92   11.35   0
   3  -8  38   50.05    8.27   0
   3  -7  46   57.72    8.49   0
   3  -6  51   -5.46    8.42   0
   0  -1  34 1040.94   15.52   0
   1  -6  31    6.14    7.60   0
   1  -2  45   -2.08    7.63   0
   2  -4  51   -0.91    8.38   0
   2  -1  48  373.42   11.48   0
   4  -3  58  137.76    9.75   0
   1  -4  44  333.80   11.43   0
   1  -3  46  161.02    9.89   0
   2  -5  49    1.83    7.45   0
   4  -4  59   -0.47    8.75   0
   0  -5  11    1.37    5.82   0
   0  -5  14  652.04   13.98   0
   0  -5  17   -1.26    6.20   0
   0  -3  36  918.75   15.04   0
   1  -1  44  490.14   12.24   0
   2   0  44  776.05   15.12   0
   0  -5  20  716.03   14.32   0
   1  -6  34  262.80   10.69   0
   1   1  30  597.00   13.56   0
   2  -7  39   -7.79    8.53   0
   2  -3  53   -5.99    8.74   0
   2  -2  52  211.35   10.87   0
   3  -5  56  108.26    9.76   0
   3  -3  57    3.95    8.20   0
   3  -1  52  330.01   11.85   0
   0  -5  23   -2.12    6.69   0
   0  -2  38  290.02    9.64   0
   1  -5  42  177.19    9.93   0
   1   0  40  804.92   14.73   0
   0  -1  37   -3.59    5.76   0
   3  -2  56  231.51   10.80   0
   0  -5  26  245.63    9.99   0
   0  -3  39   -3.07    7.23   0
   1  -4  47    4.44    8.68   0
   1  -2  48  364.20   10.88   0
   2  -5  52  164.16   10.11   0
   2  -4  54   58.43    9.01   0
   1  -6  37    2.08    7.94   0
   1  -3  49   -1.02    7.21   0
   2  -1  51    0.24    7.07   0
   0  -4  37   10.98    7.58   0
   0  -2  41   -4.27    6.98   0
   1  -1  47   -5.19    6.89   0
   1   1  33    8.74    5.20   0
   2  -7  42  150.38    9.91   0
   4  -3  61   -1.92    7.64   0
  -1  -2  19    3.83    4.96   0
   0  -5  29   -2.67    7.10   0
   0  -1  40  834.07   14.53   0
   1  -5  45   -2.84    7.02   0
   2   0  47   -3.00    7.45   0
  -1  -2  22  463.98   10.95   0
  -1  -1  18 1222.04   17.35   0
   1   0  43    3.31    6.70   0
   2  -6  50  130.65    9.58   0
   2  -2  55    2.18    7.21   0
   3  -3  60  124.09   10.28   0
  -1  -2  25    4.39    6.39   0
  -1  -1  15    5.41    4.86   0
  -1  -1  21   28.98    5.52   0
   0  -5  32  496.34   12.56   0
   0  -3  42  368.57   10.85   0
   0   0  36  636.71   12.78   0
   1  -6  40  240.87   10.70   0
  -1  -1  24 1930.37   20.63   0
   0  -4  40  497.93   12.67   0
   1  -3  52  339.68   11.76   0
   2  -7  45    2.23    7.50   0
   2  -5  55   -2.34    8.10   0
   2  -4  57   -1.34    8.13   0
   3  -2  59    7.52    8.33   0
  -1  -3  17    3.04    5.65   0
  -1  -3  20  959.34   15.47   0
  -1  -2  28 1428.80   17.81   0
   1  -5  48  271.81   10.81   0
  -1  -3  14  710.37   13.98   0
  -1  -3  23   19.53    5.60   0
  -1  -1  27    2.11    5.33   0
   0  -5  35   -0.62    7.57   0
   0  -1  43   -4.61    6.66   0
   1  -1  50  311.70   10.96   0
   1   1  36  931.26   16.18   0
   2  -1  54  136.68    9.54   0
   0  -3  45    1.64    6.84   0
   1  -6  43   -8.41    7.71   0
   2  -6  53   14.39    7.90   0
  -1  -3  11   30.88    5.86   0
  -1  -2  31    0.55    5.83   0
  -1  -1  30  681.55   12.95   0
   0  -4  43    7.70    8.09   0
   0   0  39    3.77    5.40   0
   0   1  26 1142.77   17.48   0
   1  -4  53   -1.13    8.41   0
   1   0  46  121.26    8.13   0
   2  -2  58  111.70    9.46   0
   2   0  50  210.17   10.47   0
   0  -5  38  220.00   10.45   0
   0  -2  47   -5.34    7.96   0
  -1  -2  34  644.85   12.90   0
   0   1  29   -1.77    5.12   0
   1  -7  35    4.80    8.31   0
   1  -5  51   -0.73    8.06   0
   1  -3  55    1.77    8.58   0
   2  -5  58  112.43    8.84   0
   2  -4  60  112.39    9.47   0
  -1  -3  32  954.75   15.45   0
  -1  -1  33    7.58    5.75   0
  -1   0  20 1607.61   19.93   0
   0  -3  48  234.69   10.72   0
   1  -6  46   76.43    9.01   0
   1   1  39   -0.47    5.72   0
  -1   0  23    1.27    4.86   0
   0  -4  46  154.78    9.91   0
   0   0  42  849.44   14.83   0
   1  -1  53    1.93    8.06   0
   3  -2  62   57.69    8.33   0
  -1  -4  21    6.08    6.32   0
  -1  -3  35    3.33    7.36   0
  -1  -2  37   -0.91    7.44   0
  -1   0  26 1251.18   16.81   0
   0  -6  27   -4.61    6.98   0
   0  -5  41    4.28    6.72   0
   0   1  32 1843.10   21.33   0
   1  -7  38   53.60    8.92   0
   1   0  49   -1.65    6.97   0
   2  -1  57    1.75    7.71   0
  -1  -4  18  417.64   11.36   0
  -1  -4  24  986.09   15.39   0
  -1  -1  36  971.82   14.73   0
  -1   0  29    8.02    6.01   0
   0  -6  30  125.43    9.83   0
   1  -4  56  153.61    9.70   0
   2  -3  62   62.58    8.77   0
  -1  -4  15   13.71    6.00   0
  -1  -4  27    6.67    5.88   0
   1  -6  49   -3.79    7.73   0
   1  -5  54   82.10    9.03   0
   1  -3  58  123.67   10.01   0
   1  -2  57   -7.80    8.76   0
   2  -2  61   -4.36    8.02   0
  -1  -4  30  322.60   10.93   0
  -1  -3  38  183.96    9.34   0
   0  -6  33    9.11    7.54   0
   0  -5  44  196.80   10.34   0
   0  -4  49   -2.61    7.99   0
   0  -3  51    4.05    8.74   0
  -1  -1  39    2.64    6.17   0
  -1   0  32 1851.98   19.71   0
   0   0  45   -5.15    6.88   0
   0   1  35    2.63    5.68   0
   1  -7  41   -7.51    7.69   0
   1   1  42  332.30   10.92   0
  -1  -4  12  925.08   16.25   0
  -1  -4  33   11.69    7.23   0
   1  -1  56  236.02   10.71   0
  -1  -3  41   -7.85    7.30   0
  -1   0  35    0.20    6.46   0
   0  -6  36  232.56   10.55   0
   0  -2  53    0.40    8.18   0
   1  -4  59   -6.75    8.26   0
   1   0  52  346.32   12.18   0
  -1  -4  36  355.93   11.20   0
  -1  -2  43   10.32    6.68   0
  -1  -1  42  365.44   10.97   0
   1  -7  44  126.32    9.21   0
   1  -5  57    0.59    7.84   0
   2  -1  60  184.05    9.88   0
   0  -6  39    3.19    7.90   0
   0  -4  52  175.25    9.84   0
   0  -3  54   98.69    9.04   0
   0   1  38  268.21    9.72   0
   1  -3  61    5.16    8.09   0
   1  -2  60  173.93   10.23   0
  -1  -4  39    7.97    7.72   0
  -1  -3  44  316.58   11.27   0
  -1   0  38  280.17    9.89   0
   0   0  48  511.79   11.97   0
   1   1  45    3.30    6.83   0
   2  -2  64  144.51    9.46   0
  -1  -4   9    2.77    5.80   0
  -1  -2  46  175.01    9.43   0
  -1  -1  45    3.27    6.57   0
   0  -6  42  150.10    9.53   0
   0  -2  56  125.15    9.49   0
   1  -1  59  -10.03    7.66   0
  -1  -5  25   11.77    6.80   0
   0  -4  55    3.52    8.22   0
   0   1  41    6.59    6.03   0
  -1  -5  22  223.94    9.64   0
  -1  -5  28  438.76   12.14   0
  -1  -5  31    3.67    7.17   0
  -1  -3  47    6.74    8.51   0
   0  -3  57    4.40    7.56   0
   0  -1  55   -1.29    8.20   0
   1   0  55    5.34    7.55   0
  -1  -2  49   -3.28    8.10   0
   0  -6  45    6.94    8.69   0
   0   0  51    2.97    6.24   0
   1  -2  63    4.50    7.95   0
  -1  -5  34  239.80   10.37   0
  -1  -1  48  384.23   11.03   0
  -2  -2  27   -0.24    6.42   0
  -1   1  31   -3.86    5.69   0
   0   1  44  470.57   12.00   0
  -2  -2  30  228.69    8.72   0
  -2  -1  23    1.74    6.11   0
  -2  -1  26  534.78   11.34   0
  -2  -1  29    7.40    5.69   0
  -1  -5  37    3.71    7.79   0
  -1  -3  50  222.01    9.56   0
   0  -4  58   73.37    8.95   0
   1  -1  62   44.52    8.86   0
  -2  -2  33    2.62    6.03   0
  -2  -1  20 1510.04   18.27   0
  -2  -1  32 1297.32   16.45   0
  -1  -2  52  317.15   11.73   0
   0  -6  48  135.18    8.85   0
   0  -3  60  192.85    9.81   0
   0  -1  58  179.17   10.13   0
  -2  -2  18 1099.90   16.22   0
  -2  -2  36  395.47   11.33   0
  -2  -1  35   -0.70    7.09   0
  -1  -5  40  236.22   10.28   0
  -1  -1  51    5.87    6.76   0
   0   0  54   44.66    8.13   0
   1   0  58  182.23    9.84   0
  -2  -3  25    0.76    6.39   0
  -2  -3  28  450.87   11.54   0
  -2  -3  31    1.45    7.04   0
  -1  -3  53    7.73    8.70   0
  -1   1  37    3.57    5.91   0
   0   1  47    4.71    6.43   0
  -2  -3  22  322.85   10.24   0
  -2  -3  34  475.56   12.02   0
  -2  -2  39   -6.10    7.52   0
  -2  -1  17    8.34    4.99   0
  -2  -1  38  366.35   10.30   0
  -1  -5  43    0.92    7.75   0
  -2  -2  15   -2.94    5.31   0
  -2   0  25    3.42    5.94   0
  -2   0  28 1149.80   15.58   0
  -2   0  31   -2.77    6.45   0
  -1  -4  51   -6.11    7.76   0
  -1  -2  55   -7.15    8.14   0
  -1   1  40  821.84   14.25   0
  -2  -3  19   10.97    6.06   0
  -2  -2  42  436.43   11.85   0
  -2  -1  41    8.07    7.49   0
  -2   0  34  299.76    9.75   0
  -1  -1  54  134.54    9.77   0
  -1   0  50  321.10   10.75   0
   0  -3  63   -1.69    7.79   0
  -2   0  22 2001.72   20.40   0
  -1  -5  46   79.52    8.37   0
   0  -1  61   -4.79    7.74   0
   0   0  57   -4.53    7.41   0
   1  -1  65   -5.99    7.31   0
  -2   0  37    4.60    5.83   0
  -1  -3  56  170.60    9.66   0
  -1  -4  33    9.66    6.86   0
   3  -4  46  102.65    9.82   0
  -2  -6  13    3.74    7.50   0
  -2  -5  21   -4.33    7.24   0
  -2  -2  18 1127.47   16.08   0
  -1  -3  32  976.68   14.95   0
  -1  -2  28 1405.20   17.31   0
   0  -6  39    1.99    8.33   0
   1  -2  36  931.67   15.20   0
   2  -2  37   -1.85    6.08   0
  -1  -5  34  239.84   10.90   0
  -1  -1  21   22.29    6.44   0
   0  -4  40  511.29   12.24   0
  -2  -6  16  400.00   11.83   0
  -1  -7  27    0.94    7.76   0
  -1  -6  32  297.03   11.00   0
   0  -7  37    7.71    8.55   0
   0  -5  41   13.75    7.25   0
   1  -1  29    4.92    4.46   0
   0  -3  39   -3.00    7.51   0
   1  -7  44  131.23    9.40   0
  -2  -6  19    5.25    7.66   0
  -2  -5  24  378.59   10.74   0
  -2  -3  25    9.39    6.12   0
  -2  -2  21   -1.93    5.49   0
   1  -6  46   71.96    9.38   0
   2  -5  49    5.71    8.36   0
   3  -6  51    1.34    7.74   0
   3  -5  50  199.97   10.92   0
  -1  -3  35    8.09    7.66   0
  -1  -2  31    8.49    6.63   0
   2  -3  44  377.99   11.81   0
  -1  -7  30   75.99    8.59   0
  -1  -5  37   16.78    8.76   0
  -1  -1  24 1915.58   20.67   0
   0  -6  42  158.90    9.82   0
   1  -3  43   -3.39    6.35   0
   2  -6  50  105.23   10.09   0
   2  -1  30  616.65   14.85   0
  -2  -6  22  114.75    9.17   0
  -2  -5  27    8.36    7.89   0
  -2  -1  11   16.76    5.11   0
  -1  -6  35    3.36    7.81   0
   0  -7  40  181.48    9.97   0
   2  -4  48  338.52   11.97   0
  -2  -4  29    6.11    6.63   0
  -2  -3  28  420.00   10.78   0
  -2  -2  24 1956.26   19.92   0
   0  -5  44  216.68    9.83   0
   1  -5  48  238.81   11.32   0
   1  -4  47   -2.37    8.18   0
   1  -2  39   -1.15    5.53   0
  -2  -1  14 1671.18   19.82   0
  -2  -6  25    6.35    7.82   0
  -1  -7  33   -3.69    8.20   0
  -1  -4  39   -4.93    7.14   0
   1  -1  32 1890.01   22.35   0
   2  -2  40  873.28   16.22   0
  -3  -4   7    7.88    6.24   0
  -3  -4  10  413.22   11.60   0
  -3  -3   3    3.07    6.18   0
  -3  -3   9    5.40    6.13   0
  -1  -6  38   60.82    9.07   0
  -1  -3  38  199.03    9.04   0
  -1  -2  34  641.97   12.59   0
   0  -1  31    4.14    6.13   0
  -3  -4  13   11.72    6.98   0
  -3  -3  12  798.65   14.42   0
  -2  -4  32  372.00   11.75   0
  -2  -3  31    0.02    7.59   0
  -2  -2  27   -0.47    6.83   0
  -2  -1  17   11.71    5.22   0
  -1  -5  40  225.06    9.77   0
  -1  -1  27   -2.89    5.24   0
   0  -6  45   -1.04    7.76   0
   2  -5  52  154.63   10.56   0
  -3  -3  15   -0.11    6.57   0
   1  -3  46  153.15    9.63   0
   2  -6  53   -1.45    8.39   0
  -3  -4  16  459.49   12.01   0
  -2  -6  28  168.01   10.33   0
   0  -5  47   -8.53    8.75   0
   2  -3  47    1.76    7.12   0
  -3  -3  18  446.24   11.47   0
  -2  -1  20 1540.31   18.11   0
  -1  -4  42  199.72   10.50   0
   1  -5  51    5.72    8.20   0
   2  -4  51   -6.74    7.67   0
  -3  -4  19   -8.17    7.15   0
  -3  -2   8 2280.10   23.26   0
  -2  -4  35   -3.77    8.10   0
  -2  -2  30  235.63    9.44   0
  -1  -6  41   -9.64    8.29   0
  -1  -2  37    9.68    7.34   0
   0  -3  45   -2.09    7.87   0
   1  -4  50  206.00   10.89   0
   1  -2  42  353.13   10.78   0
  -3  -3  21    0.86    6.99   0
  -3  -2   5    7.82    5.76   0
  -3  -2  11    9.18    5.00   0
  -2  -6  31   -1.67    7.79   0
  -2  -3  34  476.71   11.77   0
  -1  -5  43   -1.46    8.80   0
  -1  -3  41   -0.83    6.65   0
  -1  -1  30  668.21   12.55   0
   0  -6  48  133.76   10.22   0
   0  -2  41   -2.51    6.90   0
   2  -1  33    6.49    5.16   0
  -3  -5  17   -3.55    8.16   0
  -3  -4  22  201.89    9.42   0
  -3  -2  14  410.80   10.40   0
  -2  -1  23    0.69    6.02   0
   0  -1  34  992.40   15.31   0
   1  -1  35   -0.38    5.76   0
  -3  -2   2  807.51   15.35   0
  -3  -2  17   13.17    6.26   0
  -2  -5  36  285.15   11.15   0
   2  -2  43    3.45    6.28   0
  -3  -5  20  237.52   10.35   0
   2  -5  55    7.07    9.11   0
  -3  -4  25    4.04    7.83   0
  -2  -6  34  144.90    9.26   0
  -2  -4  38   99.66    8.37   0
  -2  -3  37   -5.87    8.22   0
  -2  -2  33    1.86    6.17   0
  -1  -4  45   -5.53    7.26   0
   1  -3  49    3.34    8.00   0
  -3  -5  23    4.94    7.77   0
  -3  -2  -1    2.82    5.47   0
  -1  -6  44  133.32    8.99   0
  -1  -5  46   78.13    8.97   0
  -1  -3  44  341.09   11.26   0
  -1  -2  40  505.75   12.29   0
  -1  -1  33    9.07    6.58   0
   1  -5  54   65.81    8.73   0
   0  -3  48  239.43   10.68   0
   1  -4  53    9.07    8.34   0
   1  -2  45   -3.72    6.92   0
   2  -3  50  193.59   10.38   0
  -3  -4  28  406.49   11.08   0
  -3  -2  23    5.23    5.82   0
  -2  -5  39    2.36    7.70   0
   0  -2  44  783.62   14.05   0
   0  -1  37    5.26    6.20   0
   2  -4  54   46.31    9.00   0
  -3  -5  26  203.78    9.97   0
  -2  -6  37   -4.39    7.58   0
  -2  -4  41    1.49    8.25   0
  -2  -2  36  441.29   11.72   0
  -3  -3  30  207.72    9.62   0
  -3  -2  26  675.58   13.01   0
  -2  -3  40  510.46   12.17   0
  -2  -1  29    9.11    5.70   0
  -1  -4  48  266.29   11.14   0
  -1   0  20 1520.85   19.25   0
   0  -4  52  174.34   10.46   0
   1  -1  38  280.39   10.21   0
  -3  -4  31    1.43    8.22   0
   0   0  24 4740.43   35.31   0
  -3  -5  29   -5.40    8.27   0
  -2  -5  42  160.59    9.98   0
  -1  -5  49   -3.83    8.35   0
  -1  -3  47   -7.15    8.11   0
  -3  -2  29    0.53    6.84   0
  -3  -1  10 1118.18   16.17   0
  -1   0  23   -0.43    5.49   0
   1  -3  52  307.28   11.72   0
   2  -5  58   98.73    8.78   0
  -3  -3  33   -2.22    6.64   0
  -3  -1   7   22.94    5.61   0
  -3  -1  19   20.37    6.14   0
  -2  -4  44  243.33   10.92   0
  -2  -2  39   12.41    6.50   0
  -2  -1  32 1298.17   16.50   0
   0  -3  51   -8.68    8.37   0
   0  -2  47    2.07    7.58   0
   1  -5  57   -6.04    8.39   0
  -3  -5  32  231.20   10.50   0
  -2  -3  43    1.42    7.01   0
   0  -1  40  787.32   13.97   0
   1  -4  56  152.28    9.87   0
   1  -2  48  392.41   11.95   0
  -3  -6  27    6.58    8.16   0
  -3  -2  32  789.68   14.30   0
  -3  -1  22  389.78   10.08   0
  -1  -4  51   -5.84    8.10   0
   0   0  27    3.04    5.30   0
  -3  -3  36  344.14   11.43   0
  -3  -1   4 1309.46   18.80   0
  -2  -5  45   -7.62    8.03   0
  -2   0  13   -3.74    5.48   0
  -1   0  26 1199.37   16.62   0
   0  -4  55    3.80    7.90   0
  -3  -5  35   -3.45    7.68   0
  -3  -1  25   -5.91    6.50   0
  -2  -2  42  462.30   12.39   0
  -2  -1  35   -0.80    5.96   0
  -2   0  16 3084.79   26.22   0
   1  -1  41    0.93    5.90   0
  -2  -4  47   -1.71    8.21   0
  -2   0  19   -1.45    4.91   0
  -4  -3  11    0.83    6.93   0
  -4  -3  14  373.31   10.84   0
  -4  -3  17    9.58    6.91   0
  -3  -2  35   -6.01    6.62   0
  -2  -3  46   78.97    8.34   0
   1  -3  55    1.37    8.03   0
  -4  -3  20  493.21   12.00   0
  -3  -3  39    3.61    8.36   0
  -3  -1  28  775.70   13.14   0
  -2   0  22 1981.20   20.38   0
   0  -3  54   89.68    8.87   0
   0  -2  50  234.53   10.55   0
   0  -1  43    0.29    6.39   0
   0   0  30  169.58    8.18   0
  -4  -4  18  201.09    9.95   0
  -4  -3  23    2.60    7.39   0
  -3  -5  38   63.01    8.82   0
  -3  -4  40  154.07    9.51   0
  -2  -1  38  364.81   10.94   0
  -1  -1  42  364.87   10.97   0
  -4  -4  21   -0.08    7.30   0
  -4  -2  13    3.90    6.07   0
  -4  -2  16  806.10   14.34   0
  -2  -2  45   -7.68    8.01   0
  -2   0  25   -2.31    5.16   0
  -1  -2  49   -1.59    7.64   0
   1  -4  59    3.85    7.58   0
   1  -2  51    5.67    7.36   0
  -4  -4  24  342.43   11.01   0
  -4  -3  26  173.21    9.73   0
  -4  -2  10  383.35   11.01   0
  -4  -2  19    4.79    5.59   0
  -3  -2  38  106.72    8.17   0
  -3  -1  31   11.89    6.21   0
  -2  -4  50  131.27    9.60   0
   0  -4  58   83.22    8.66   0
  -3  -3  42  154.55    9.92   0
  -2  -3  49    1.23    7.91   0
  -2   0  28 1210.13   16.28   0
   1  -1  44  476.21   12.42   0
  -4  -4  27    1.08    7.64   0
  -4  -3  29    7.30    7.56   0
  -4  -2  25   -0.65    7.08   0
  -3  -4  43   -0.02    8.11   0
  -2  -1  41   16.04    7.30   0
   0   0  33    0.12    5.51   0
  -4  -2   7    0.36    5.54   0
  -3  -1  34  560.14   11.78   0
  -4  -4  30  116.45    8.92   0
  -4  -3  32  303.66   11.19   0
  -2  -2  48  353.41   11.93   0
  -2   0  31   -3.59    6.37   0
  -1  -1  45   -1.86    6.22   0
   0  -3  57   -3.61    8.60   0
   0  -2  53   -2.46    7.50   0
   0  -1  46  136.15    8.10   0
   1  -3  58  123.81   10.30   0
  -3  -3  45   17.00    7.92   0
  -1  -2  52  325.96   11.72   0
  -1   0  35   -5.59    6.06   0
  -4  -4  33    6.59    7.63   0
  -3  -4  46   74.80    8.66   0
  -3  -1  37   -1.81    7.37   0
  -3   0  18  547.92   11.79   0
  -2  -4  53   11.20    8.45   0
  -2  -3  52  170.37    9.76   0
  -1  -3  56  164.96    9.68   0
   1   0  31    0.55    4.80   0
  -4  -1  15    0.75    6.11   0
  -4  -1  18  796.02   13.87   0
  -3   0  15    3.24    4.78   0
  -3   0  21   -0.34    5.24   0
  -2  -1  44  363.65   10.99   0
   0   0  36  644.60   13.37   0
  -4  -1  12 1192.02   16.67   0
  -3  -2  44  263.04    9.88   0
  -3   0  12 2033.46   21.08   0
  -3   0  24 1725.90   18.49   0
  -2   0  34  309.87    9.38   0
  -4  -2  34  188.89    8.87   0
  -3   0  27    3.47    6.35   0
  -1  -1  48  380.96   11.38   0
   1  -1  47   -2.53    6.21   0
  -4  -1  27    8.53    6.04   0
  -3  -3  48  171.62    9.58   0
  -3  -1  40  512.06   11.72   0
  -2  -2  51   -2.56    6.87   0
  -1   0  38  283.97    9.15   0
   0  -1  49    2.55    6.89   0
  -4  -2  37    3.86    8.05   0
  -4  -1   9   22.39    5.93   0
  -4  -1  30  203.87    9.37   0
  -2   0  37    4.43    6.57   0
  -1  -2  55    6.09    8.55   0
   0  -3  60  198.62   10.15   0
   0  -2  56  118.88    9.36   0
  -4  -4  39    2.71    7.34   0
  -3   0  30  597.33   11.85   0
  -2  -3  55   -3.68    7.32   0
   1   0  34  967.62   17.13   0
  -4  -3  41    4.99    7.98   0
  -3  -1  43    5.40    7.77   0
  -1  -3  59   -2.06    8.43   0
   0   0  39    0.44    5.88   0
  -4  -1   6  375.23   10.65   0
  -4  -1  33    4.51    6.33   0
  -3  -3  51   -4.92    8.13   0
  -3   0  33   -4.20    5.76   0
  -1   0  41   -2.33    6.43   0
  -4  -2  40  286.43    9.99   0
  -1  -1  51   -0.59    7.55   0
  -4  -1  36  551.82   12.36   0
  -3  -2  50  208.90   10.61   0
  -4  -3  44  142.99    9.30   0
  -3   0  36  604.05   12.04   0
   0  -1  52  358.87   11.60   0
  -4  -2  43   -1.11    8.50   0
  -3  -1  46  107.09    8.21   0
  -1  -2  58  121.08    9.03   0
   0  -2  59   -5.36    8.57   0
   0   0  42  834.04   15.04   0
   1   0  37    1.42    5.08   0
  -5  -3  19    2.95    6.88   0
  -5  -3  22  130.50    8.86   0
  -5  -3  25    9.81    7.08   0
  -5  -2  21   -2.98    7.01   0
  -4  -1  39    1.13    7.42   0
  -4   0  20 1304.95   16.71   0
  -4   0  23    1.31    6.03   0
  -3  -3  54   46.21    8.28   0
  -1   0  44  495.40   12.11   0
  -5  -3  28  183.64    9.41   0
  -5  -2  18  205.99    9.27   0
  -5  -2  24  497.46   12.40   0
  -5  -2  27    8.22    7.62   0
  -4  -1   3   -0.52    4.90   0
  -4   0  26  789.44   13.17   0
  -3   0  39    7.55    6.23   0
  -4  -3  47    3.57    8.38   0
  -4   0  14  343.36    9.89   0
  -4   0  29   -0.52    6.74   0
  -3  -2  53   -2.08    7.88   0
  -2  -2  57   -1.44    8.34   0
  -1  -1  54  144.31    9.50   0
  -5  -3  31   -2.67    7.59   0
  -5  -2  30  193.23    8.92   0
  -4  -2  46  116.96    8.90   0
  -4  -1  42  244.41   10.44   0
  -2  -1  53   11.08    7.80   0
  -5  -3  34  155.38    9.45   0
  -5  -2  33   -0.81    7.89   0
  -4   0  32  513.76   11.33   0
  -3   0  42  280.53   10.17   0
  -5  -1  20  550.97   12.42   0
  -5  -1  23    5.84    6.64   0
  -5  -1  26  256.79   10.01   0
  -4   0  11    4.89    5.39   0
  -2   0  46  310.85    9.95   0
  -2   1  21   23.73    5.28   0
  -2   1  24 1894.02   19.97   0
  -1   0  47   -0.91    6.87   0
   0  -1  55    5.64    7.23   0
   0   0  45    2.66    6.18   0
  -5  -2  36  182.62    9.87   0
  -5  -1  17    0.61    6.40   0
  -5  -1  29    5.64    7.30   0
  -4  -2  49    7.11    8.41   0
  -4   0  35   -5.29    6.33   0
  -2   1  18 1219.68   16.74   0
  -2   1  27   -1.59    5.08   0
  -1  -2  61    5.32    8.02   0
  -5  -3  37    0.12    7.67   0
  -4  -1  45  -12.94    7.25   0
  -3  -2  56  101.35    9.27   0
  -3  -1  52  242.03   10.71   0
  -2   1  30  661.73   12.73   0
  -5  -1  14  436.52   11.28   0
  -4   0  38  147.26    8.84   0
  -3   0  45   -0.31    7.64   0
  -2  -2  60  123.75    9.74   0
  -2   1  15    1.25    5.46   0
  -1  -1  57    0.77    7.52   0
  -1   1  28 1326.80   17.50   0
  -5  -3  40  157.73    8.88   0
  -4   0   8 1589.68   19.17   0
  -3   1  20 1537.75   17.96   0
  -3   1  23    4.12    5.24   0
  -2  -1  56  207.45   10.20   0
  -2   0  49    5.03    7.56   0
  -1   1  31   -3.34    5.29   0
  -4  -1  48  152.75    9.72   0
  -3   1  29    9.65    5.51   0
  -1   0  50  338.06   11.10   0
  -5  -1  11    9.39    6.03   0
  -4  -2  52  131.05    8.67   0
  -4   0  41   -2.90    6.59   0
  -3   1  17   15.12    5.13   0
   0   0  48  506.89   12.64   0
  -5  -1  38  155.08    8.86   0
  -3   0  48  384.09   11.74   0
  -1   1  34 1020.58   15.69   0
  -3   1  14 1679.22   19.20   0
  -3   1  35   -4.50    6.30   0
  -5  -2  45   -0.25    8.08   0
  -5  -1  41    1.54    7.66   0
  -5   0  22  261.19    8.81   0
  -4  -1  51    3.06    7.95   0
  -4   0  44  453.75   11.33   0
  -2  -1  59   -1.31    7.89   0
  -2   0  52  203.20   10.04   0
  -2   1  39    2.54    6.58   0
  -5  -1   8  839.32   14.78   0
  -5   0  19   -1.32    5.40   0
  -5   0  31   -6.34    6.38   0
  -4   0   5    0.26    4.99   0
  -3   1  38  376.73   10.76   0
  -1  -1  60  189.75   10.29   0
  -1   1  37   -2.54    5.93   0
  -5   0  16  753.63   13.68   0
  -5   0  34  323.72   10.68   0
  -4   1  22  378.23   10.14   0
  -4   1  25   -0.43    5.43   0
  -4   1  28  776.81   13.45   0
  -1   0  53   -0.12    6.86   0
  -5  -1  44  194.83    9.35   0
  -4   0  47    0.06    7.91   0
  -4   1  19   12.49    6.23   0
  -4   1  31   10.18    5.99   0
  -5   0  37    0.85    6.60   0
  -4  -1  54   65.52    8.63   0
  -4   1  34  585.32   12.15   0
  -3   1  11   21.43    4.95   0
  -3   1  41   -0.54    6.72   0
  -2   1  42  364.72   10.08   0
  -1   1  40  811.90   14.39   0
   0   1  29    0.36    4.81   0
  -5   0  13    3.16    5.85   0
  -4   1  16 2149.13   20.84   0
  -2   0  55    0.75    7.72   0
  -6  -2  26  208.96    9.74   0
  -5  -1  47    5.03    7.96   0
  -5   0  40  215.94    9.25   0
  -4   1  37  -10.99    6.39   0
  -2  -1  62   54.56    8.60   0
   0   1  32 1778.47   21.63   0
  -6  -2  29    3.26    7.29   0
  -6  -2  32  213.62    9.86   0
  -4   0  50  214.25    9.37   0
  -3   0  54   92.51    8.67   0
  -2   1  45    8.16    6.86   0
  -6  -1  25    1.14    7.13   0
  -6  -1  28  168.12    9.36   0
  -4   1  40  521.40   12.21   0
  -1   0  56  255.87   10.33   0
  -1   1  43   -9.38    6.15   0
   0   1  35    0.61    5.55   0
  -6  -2  35    0.21    7.37   0
  -6  -1  22  168.74    8.79   0
  -6  -1  31    2.99    7.53   0
  -5  -1  50  106.85    8.73   0
  -5   0  10  724.39   13.42   0
  -4  -1  57    0.31    7.57   0
  -4   0   2 1368.17   19.06   0
  -3  -1  61    2.99    8.16   0
  -6  -1  19   13.63    7.08   0
  -6  -1  34  195.85    9.63   0
  -6  -1  37    3.92    7.18   0
  -5   0  46   91.33    9.15   0
  -5   1  24  730.11   13.17   0
  -5   1  27    4.27    6.92   0
  -5   1  30  185.90    8.91   0
  -4   0  53    3.46    7.09   0
  -4   1  43   -0.46    6.61   0
  -3   0  57   -9.17    7.98   0
  -2   0  58  110.63    9.20   0
  -2   1  48  389.21   11.34   0
   0   1  38  266.32    9.90   0
  -6  -1  16  636.13   13.60   0
  -5   1  33   -1.67    6.23   0
  -1   1  46  128.75    8.27   0
  -6  -1  40  224.87    9.87   0
  -5   1  36  540.35   12.29   0
  -4   1  46  102.96    9.10   0
  -6   0  24  637.52   13.24   0
  -6   0  27    1.89    6.26   0
  -6   0  30  160.43    8.35   0
  -6   0  33    2.33    7.47   0
  -5   0   7    2.69    5.31   0
  -5   0  49    2.46    7.78   0
  -3   1  50  197.42    9.59   0
  -6  -1  43    3.36    7.23   0
  -6   0  21    6.01    6.40   0
  -5   1  39    3.16    6.65   0
  -4   0  56   74.47    8.55   0
  -2   1  51   -8.39    7.15   0
   0   1  41   -1.58    5.25   0
  -3   0  60  131.20    9.54   0
  -2   0  61   -0.96    8.55   0
  -1   1  49   -3.93    7.18   0
  -6   0  18  282.80    9.95   0
  -5   0  52  200.71    9.97   0
  -5   1  15    2.19    5.14   0
  -5   1  42  261.86    9.56   0
  -4   1  49    2.02    6.58   0
  -3   1  53   -1.56    7.84   0
  -3   2  28 1466.24   17.42   0
  -3   2  31    2.62    6.31   0
  -6   0  42  156.86    8.82   0
  -5   1  45    3.13    7.82   0
  -4   1   7   19.50    5.66   0
  -3   2  25    6.89    5.35   0
  -3   2  34  641.96   12.76   0
  -6   0  15   -7.28    6.31   0
  -4   2  27   -1.17    6.13   0
  -4   2  30  224.66    9.10   0
  -4   2  33   -5.22    6.79   0
  -3   2  22  500.94   11.14   0
  -2   1  54  126.58    8.75   0
  -6   0  45    9.98    7.63   0
  -5   0   4 1182.71   17.39   0
  -5   0  55    1.44    7.68   0
  -5   1  12 1180.22   15.75   0
  -4   0  -1    0.74    4.67   0
  -4   2  24 1994.60   19.79   0
  -2   2  32  666.51   12.80   0
  -1   1  52  351.11   11.76   0
  -6   1  26  251.54    9.46   0
  -3   0  63    2.65    7.20   0
  -2   2  35    4.62    5.96   0
  -6   0  12  376.02   10.71   0
  -6   1  23    7.91    6.76   0
  -6   1  35   -2.42    6.51   0
  -4   2  21    1.02    5.18   0
  -4   2  39    0.19    6.21   0
  -3   1  56  225.43   10.47   0
  -3   2  19   -1.00    4.93   0
  -2   0  64  142.30    9.42   0
  -2   2  23    1.12    5.42   0
  -6   0  48  179.57    8.99   0
  -6   1  38  145.68    8.30   0
  -3   2  43   -0.62    7.05   0
  -2   2  38  272.97    9.07   0
  -6   1  20  538.09   12.15   0
  -6   1  41   -0.38    7.62   0
  -5   1  51    3.00    8.08   0
  -5   2  29   -5.32    6.60   0
  -5   2  32  762.64   13.65   0
  -4   2  18 1102.89   15.38   0
  -4   2  42  467.42   11.23   0
  -2   1  57    4.35    7.58   0
  -5   1   9   25.48    5.08   0
  -5   2  26  694.03   12.42   0
  -5   2  35    4.73    6.44   0
  -2   2  20 3600.51   27.47   0
  -2   2  41    4.16    6.39   0
  -7  -1  30   57.79    7.72   0
  -7  -1  33    1.40    6.54   0
  -6   1  17    5.37    6.54   0
  -6   1  44  196.45    9.85   0
  -5   2  23    7.93    5.67   0
  -5   2  38  104.62    7.94   0
  -4   1   4 1310.10   17.88   0
  -3   2  46  165.43    8.95   0
  -6   0   9    5.28    6.33   0
  -5   1  54   69.07    8.56   0
  -5   2  41    6.36    7.64   0
  -4   1  58  130.65    9.59   0
  -3   1  59    3.84    8.09   0
  -2   2  44  805.69   14.60   0
  -7   0  29    3.93    6.90   0
  -7   0  32  289.03   10.27   0
  -7   0  35    1.28    7.55   0
  -6   1  47   -4.00    8.02   0
  -5   2  20  610.28   11.61   0
  -4   2  15    2.08    4.89   0
  -7   0  38   48.23    8.33   0
  -5   2  44  295.04   10.57   0
  -3   2  49   -8.09    7.64   0
  -2   2  17    1.50    4.43   0
  -7   0  23    2.42    6.79   0
  -6   1  14  453.80   11.27   0
  -3   2  13   31.00    6.05   0
  -1   2  30  618.97   12.70   0
  -1   2  33    2.16    5.41   0
  -6   1  50  100.87    8.68   0
  -5   1   6  386.08   10.40   0
  -5   1  57   -2.79    7.62   0
  -5   2  17    6.60    5.24   0
  -5   2  47   -2.29    8.12   0
  -2   2  47   -1.38    5.91   0
  -1   2  27   -1.16    4.88   0
  -1   2  36  953.49   15.48   0
  -7   0  20  181.12    9.12   0
  -6   2  28  484.41   11.60   0
  -6   2  31   -6.64    6.36   0
  -6   2  34  192.77    8.75   0
  -6   2  37   -0.74    8.09   0
  -4   1  61   -1.16    7.30   0
  -4   2  12  806.37   13.64   0
  -4   2  51   -4.91    8.02   0
  -3   1  62   60.42    8.59   0
  -1   2  39    1.36    6.37   0
  -7   1  31    4.53    7.75   0
  -3   2  52  314.09   11.06   0
  -7   1  28  172.74    9.44   0
  -7   1  34  194.84    9.34   0
  -7   1  37    0.09    7.50   0
  -6   1  11    3.09    5.98   0
  -6   2  40  288.36   10.14   0
  -5   2  50  214.03    9.93   0
  -2   2  50  225.22    9.82   0
  -7   1  25    5.10    7.38   0
  -6   2  43    7.06    7.84   0
  -4   2  54   53.89    8.08   0
  -2   2  14  337.35    9.66   0
  -1   2  42  353.00   10.43   0
  -7   1  22  167.11    9.31   0
  -6   2  19   -2.06    6.55   0
  -6   2  46  121.59    9.18   0
  -5   2  53   -5.36    7.67   0
  -4   1   1   24.54    5.26   0
  -3   2  10 2066.77   21.04   0
  -3   2  55   -1.42    7.80   0
  -1   2  21   18.66    4.55   0
  -2   2  53    0.20    7.05   0
  -1   2  45   -2.64    5.99   0
  -4   2   9   -0.73    4.55   0
   5   4  13   -0.82    8.07   0
   6  -4  -8  879.17   15.29   0
   6   3  12  164.49    9.73   0
   7  -3   1    9.23    5.56   0
   9  -3  -9    0.31    7.32   0
   4   0  16 1626.26   18.08   0
   8  -1   6  222.18    9.46   0
   3   0  15   -2.61    4.86   0
   3   2  19    9.31    6.27   0
   5  -3   2  857.71   13.91   0
   6  -3   3    5.27    5.33   0
   6  -1  13    4.87    6.88   0
   6   0  15   -2.88    6.40   0
   7  -4  -7    4.42    6.14   0
   7   1  12  210.03    9.63   0
   8  -3  -1    4.45    7.13   0
   2   2  18 1063.60   16.27   0
   5   2  18  415.46   11.16   0
   7  -1  11    9.90    6.52   0
   7   2  11   10.24    8.18   0
   8   0   8  295.93   10.80   0
   8   1   7   -4.20    7.00   0
   9  -3  -6   89.90    8.69   0
   9  -1   1    7.70    7.76   0
   4   3  19    1.17    7.12   0
   5  -2  10  758.50   13.24   0
   5   0  17   -0.84    5.93   0
   5   3  17   -4.47    7.91   0
   6   2  16  448.33   12.51   0
   7   0  13    3.35    6.78   0
   8  -4  -9   -4.16    6.51   0
   9  -2  -1  -10.03    6.95   0
   4   2  20  666.77   13.66   0
   6   1  17    2.55    7.28   0
   7  -2   9    3.09    6.87   0
   4  -1  14  698.75   12.42   0
   5  -1  15   16.76    6.01   0
   6  -4  -5    2.63    6.05   0
   7  -3   4  738.14   13.56   0
   8  -1   9    2.78    8.11   0
   4  -2   9   -1.95    5.45   0
   4   4  18  214.75   10.13   0
   6  -2  11   -1.34    5.87   0
   6   3  15    2.45    7.64   0
   8  -3   2  256.36   10.12   0
   8  -2   7    6.51    7.93   0
   9  -3  -3    9.15    7.84   0
   5   4  16  376.58   12.63   0
   7  -4  -4  722.41   13.85   0
   7   1  15    2.91    7.86   0
   8  -4  -6  230.69    9.59   0
   8   1  10   96.04    8.54   0
   9  -1   4  228.40    9.95   0
   3   3  21    8.74    6.75   0
   4  -3   1   30.67    5.64   0
   6  -3   6  492.34   11.55   0
   6   0  18  408.77   11.83   0
   7  -1  14  154.33    9.08   0
   7   2  14  139.32    9.16   0
   8   0  11   -3.94    7.46   0
   5  -3   5   13.96    5.75   0
   6  -1  16  657.67   12.57   0
   7   0  16  561.60   13.26   0
   2   0  14  333.23    9.70   0
   3  -1  13   32.91    6.15   0
   4   0  19   -6.04    5.52   0
   5   2  21   -2.51    7.63   0
   5   0  20  741.54   13.80   0
   6   2  19    7.41    8.13   0
   7  -3   7   10.07    6.95   0
   7  -2  12  521.81   11.57   0
   8  -4  -3    2.60    6.75   0
   8  -3   5   -2.73    7.76   0
   9  -3   0  352.95   11.29   0
   5  -2  13    6.97    6.26   0
   6  -4  -2  637.76   13.10   0
   7  -4  -1   11.59    6.16   0
   8  -2  10  220.41    9.85   0
   9  -1   7    4.12    7.56   0
   1   2  17   13.12    4.86   0
   3   0  18 1339.45   16.70   0
   4   3  22  197.01    9.90   0
   6  -2  14  301.14   10.29   0
   6   3  18  111.39    9.51   0
   8   0  14  161.48    9.82   0
   8   1  13    0.54    7.42   0
   4   2  23    0.11    7.12   0
   5  -1  18  423.17   10.51   0
   4  -1  17    2.62    5.38   0
   7   2  17   -3.25    8.12   0
   9  -4  -5   11.03    6.66   0
   9  -3   3    6.19    7.79   0
   1   3  19   12.90    5.33   0
   2   2  21   -1.51    5.40   0
   4  -2  12  831.25   13.87   0
   6  -1  19   -4.82    7.03   0
   6   0  21    3.52    7.38   0
   7   0  19   -0.03    7.90   0
   8  -4   0  562.00   12.87   0
   5  -3   8 2285.38   21.89   0
   7  -2  15   -3.46    7.19   0
   8  -1  15   -0.38    7.99   0
   9  -1  10  108.79    8.62   0
   3  -2   8 3217.56   27.14   0
   4  -3   4 1296.81   17.83   0
   6  -4   1   -0.05    5.59   0
   6   2  22  130.88    9.67   0
   8  -2  13   -0.70    8.09   0
   4   0  22  712.56   13.36   0
   5  -4  -3   24.87    5.73   0
   5   2  24  372.14   11.89   0
   9  -4  -2  197.49    9.22   0
   3   3  24  624.13   13.76   0
   5   0  23   -0.65    7.25   0
   5   3  23    4.36    7.93   0
   8   0  17   -4.02    7.29   0
   9  -3   6  206.77    9.56   0
   3   1  23   17.11    6.23   0
   6  -2  17   -0.52    6.07   0
   6   3  21   -4.81    7.48   0
   8  -4   3    6.12    6.78   0
   2   3  23    6.76    5.69   0
   3  -1  16 2111.59   20.83   0
   4   3  25    7.05    7.51   0
   5  -1  21    4.72    6.99   0
   5   1  25    8.40    7.50   0
   7  -1  20  282.22    9.99   0
   7   2  20  166.69   10.12   0
   9  -1  13    4.39    7.60   0
   3   2  25    0.96    6.32   0
   7  -4   5   10.41    6.63   0
   7   0  22  114.91    9.38   0
   8  -1  18  143.90    9.49   0
   9  -4   1   -5.60    6.87   0
   2   0  17    1.30    4.47   0
   3   0  21   -1.51    4.99   0
   4  -1  20  989.49   14.85   0
   4   2  26  395.72   11.74   0
   6  -1  22  245.15    9.30   0
   6   0  24  509.16   11.98   0
   7  -2  18  428.01   11.82   0
   8  -2  16  429.71   12.12   0
   6  -4   4  961.10   15.34   0
   9  -3   9   -7.25    7.72   0
   4  -2  15    6.76    4.96   0
   5  -4   0 1474.25   19.42   0
   6   2  25    1.00    8.07   0
   8  -4   6  221.81    9.67   0
   8   0  20  161.65    9.76   0
   4  -3   7   19.53    5.46   0
   6   1  26  283.90   11.01   0
   9  -4   4  157.30    9.57   0
   5   2  27    4.28    8.27   0
   5   3  26  199.53   11.39   0
   6  -2  20  696.54   12.89   0
   7   1  24  297.36   11.14   0
   1   2  20 1439.22   19.82   0
   3  -2  11   19.41    4.80   0
   4   0  25   -0.55    5.61   0
   4   1  27    8.28    6.93   0
   5  -2  19   11.76    5.86   0
   5   0  26  238.83    9.29   0
   6   3  24  237.79   10.11   0
   7  -1  23    9.44    7.09   0
   8  -1  21    5.41    8.33   0
   5  -1  24  989.17   15.27   0
   7   0  25   -6.75    7.92   0
   8  -2  19    4.97    8.25   0
   9  -3  12  171.47    9.33   0
   3   3  27   -0.87    6.47   0
   5   1  28  454.91   11.63   0
   6  -4   7    5.24    6.02   0
   6  -1  25   14.68    7.86   0
   7  -2  21    9.89    6.71   0
   8  -4   9    0.33    7.53   0
   3   1  26  644.24   12.35   0
   4   3  28  438.66   12.57   0
   6   0  27   -7.63    6.84   0
   8   0  23    9.28    7.89   0
   9  -4   7    9.38    7.07   0
   9  -2  17    2.26    8.15   0
   3  -1  19    4.35    4.84   0
   4  -1  23   21.26    6.40   0
   4   2  29    5.07    7.34   0
   5  -4   3   -1.82    5.39   0
   2   3  26  646.57   14.05   0
   3   0  24 1125.20   15.81   0
   3   2  28  415.60   11.43   0
   4  -2  18 1140.59   15.63   0
   6   2  28  200.11   10.39   0
   6  -2  23    6.73    7.11   0
   6   1  29   -0.83    8.03   0
   7  -4  11   -3.67    6.89   0
   7   1  27   -3.35    7.58   0
   2   0  20 3691.86   28.19   0
   4  -3  10 1123.51   15.73   0
   5   2  30   91.07    9.42   0
   7  -3  19  -10.95    7.38   0
   8  -1  24  298.90   10.66   0
   5  -2  22  327.15    9.71   0
   5   0  29   10.06    7.40   0
   5   3  29    3.69    8.73   0
   6  -4  10  390.77   10.79   0
   6   3  27    3.24    7.73   0
   7  -2  24  382.37   11.56   0
   7   0  28  166.03    9.61   0
   8  -4  12  294.36    9.87   0
   9  -4  10  150.36    9.70   0
   4   0  28  651.93   13.19   0
   4   1  30  333.66   10.80   0
   9  -2  20  152.33    9.43   0
   3  -2  14 1670.39   18.92   0
   5  -1  27   -1.84    6.32   0
   5   1  31    2.35    7.79   0
   6  -1  28  475.16   12.49   0
   6   0  30  128.44    9.41   0
   8   0  26   88.53    9.26   0
   2  -1  15    5.05    5.54   0
   5  -4   6  403.69   10.80   0
   5  -3  17    2.60    6.31   0
   8  -3  20  266.10   10.70   0
   2   1  25    8.52    5.54   0
   2   2  27    3.55    5.92   0
   7  -4  14  378.60   10.48   0
   8  -5   4  293.55   10.37   0
   9  -4  13    4.02    7.97   0
   3  -1  22  493.58   11.30   0
   3   1  29    0.57    6.26   0
   3   3  30  210.97    9.54   0
   4  -1  26  728.99   13.32   0
   4   3  31    1.32    7.55   0
   6  -2  26  420.66   11.80   0
   6   2  31   -3.58    8.26   0
   7   1  30   86.04    9.06   0
   8  -4  15    1.01    7.64   0
   8  -2  25    2.75    8.03   0
   8  -1  27    3.86    7.71   0
   4  -2  21    6.23    5.38   0
   4   2  32  400.42   11.71   0
   6  -4  13    5.61    6.41   0
   6  -3  21   11.03    7.12   0
   6   1  32  309.74   11.26   0
   7  -5   3    6.99    5.99   0
   7  -3  22  211.82    9.00   0
   7  -1  29   -4.95    6.98   0
   1   2  23    3.27    5.06   0
   3   0  27   -0.58    6.09   0
   5  -2  25    7.92    6.63   0
   9  -5   5   -0.33    6.65   0
   9  -2  23    3.89    7.48   0
   3   2  31   -2.17    6.44   0
   5   2  33   -0.65    7.93   0
   5  -4   9   28.33    6.20   0
   6  -1  31    1.98    8.41   0
   7  -4  17   14.70    7.35   0
   8  -5   7    4.90    6.77   0
   8  -3  23   -7.23    7.20   0
   9  -4  16  387.11   11.88   0
   1   3  25    1.16    5.00   0
   2   3  29   -0.55    5.71   0
   5  -1  30  339.11   10.14   0
   7  -5   6  479.21   12.45   0
   8  -4  18  223.98   10.29   0
   2   0  23   -2.23    4.75   0
   3  -2  17   16.00    5.73   0
   4   1  33    5.57    6.07   0
   5  -3  20  633.82   11.99   0
   9  -5   8  403.71   11.33   0
   1   1  21   17.78    5.30   0
   7  -3  25   23.23    7.79   0
   8  -2  28  197.44    9.57   0
   8  -1  30   96.83    9.12   0
   6  -4  16  777.59   13.48   0
   6  -3  24  672.82   12.76   0
   6  -2  29    2.79    6.61   0
   7  -1  32  315.32   11.11   0
   7   1  33   -7.92    7.49   0
   8  -5  10  233.33    9.88   0
   2  -1  18 1224.01   16.61   0
   4  -2  24 1898.94   19.16   0
   4  -1  29    2.67    5.81   0
   6  -5   2  341.62   10.53   0
   6   1  35    3.91    7.93   0
   6   2  34  137.60    9.90   0
   7  -2  30   89.00    8.42   0
   9  -3  24  249.04   10.63   0
   2   1  28 1409.08   18.07   0
   2   2  30  214.84    8.90   0
   3  -1  25   10.41    5.34   0
   4   2  35   -4.28    7.36   0
   5  -4  12 1228.39   16.73   0
   5  -2  28  433.80   10.78   0
   7  -5   9    4.16    6.35   0
   7  -4  20  489.92   12.26   0
   8  -3  26  196.74    9.46   0
   9  -5  11    3.41    7.57   0
   9  -4  19    9.42    7.32   0
   8  -4  21    8.10    7.99   0
   4  -4   2 1375.23   19.73   0
   5  -1  33   -2.17    7.52   0
   5   2  36  282.07   10.95   0
   6  -1  34  229.31   10.93   0
   3   2  34  452.43   11.99   0
   5  -3  23    1.16    5.76   0
   6  -5   5    2.64    6.32   0
   7  -3  28  423.75   12.20   0
   8  -5  13    4.92    7.06   0
   8  -2  31    3.77    7.79   0
   8  -1  33   -1.82    8.40   0
   5   1  37    2.16    7.69   0
   6  -4  19   -1.93    5.61   0
   6  -3  27    0.02    7.51   0
   1   2  26  531.72   12.46   0
   3  -2  20 1490.69   17.42   0
   4   1  36  347.40   10.41   0
   6  -2  32  388.27   11.00   0
   7  -5  12  431.69   11.54   0
   7  -1  35    2.44    7.63   0
   9  -5  14  102.66    8.76   0
   9  -4  22  100.98    8.81   0
   9  -3  27   16.31    7.58   0
   2   0  26 1275.10   16.54   0
   3  -3   9    3.32    5.09   0
   4  -3  19   17.02    5.92   0
   5  -4  15    4.30    5.88   0
   7  -2  33   -1.57    6.87   0
   8  -4  24  380.78   11.72   0
   8  -3  29    4.48    8.11   0
   4  -4   5    0.53    5.34   0
   4  -2  27    1.69    5.57   0
   4  -1  32  931.57   14.24   0
   5  -2  31   -1.86    7.04   0
   6   1  38   64.19    8.61   0
   6   2  37   -4.46    7.30   0
   7   0  37  -10.55    7.87   0
   8  -5  16  473.93   12.40   0
   3  -1  28 1468.47   17.40   0
   6  -5   8  873.00   15.12   0
   1   1  24 1755.36   20.74   0
   2  -1  21   19.87    5.17   0
   3   1  35    6.22    6.79   0
   5  -3  26  677.05   13.15   0
   5   0  38  226.04   10.27   0
   6  -1  37    6.73    8.64   0
   9  -5  17   -6.68    7.67   0
   4   2  38  107.93    9.02   0
   5  -1  36  360.39   11.07   0
   6   0  39    7.78    8.73   0
   7  -5  15   -0.56    6.88   0
   7  -3  31   -4.36    8.46   0
   9  -4  25   -1.93    7.54   0
   1   0  19   -1.32    4.22   0
   2   1  31    4.09    4.95   0
   2   2  33    2.23    5.95   0
   5   2  39    3.19    7.40   0
   6  -3  30  218.39    9.87   0
   5  -4  18  789.42   13.61   0
   6  -5  11    2.56    6.17   0
   6  -2  35    6.49    6.76   0
   7  -2  36  315.94   11.29   0
   7  -1  38   40.87    8.95   0
   8  -5  19   -6.35    7.47   0
   8  -3  32  230.29   10.27   0
   3  -2  23    2.43    5.12   0
   3   2  37   -0.00    6.70   0
   4  -4   8 1596.72   19.80   0
   4  -3  22  383.92   10.50   0
   4   1  39   -8.01    7.41   0
   5   1  40  233.34   10.96   0
   4  -2  30  228.23    9.05   0
   5  -2  34  485.77   12.13   0
   9  -5  20  136.35    8.92   0
   2  -2  13    0.80    4.37   0
   4  -1  35    6.53    6.15   0
   6   1  41    7.57    8.22   0
   7  -5  18  190.74    9.34   0
   9  -4  28  112.29    9.07   0
   3  -1  31    4.89    6.50   0
   5  -3  29    2.77    7.10   0
   7  -3  34  210.84   10.17   0
   8  -2  37   -6.80    7.77   0
   1   2  29    9.20    5.55   0
   2  -1  24 1920.21   20.08   0
   6  -3  33    3.79    7.91   0
   6  -1  40  236.75    9.98   0
   8  -5  22  137.27    9.31   0
   4  -4  11    0.24    5.33   0
   5  -4  21    9.23    6.49   0
   5  -1  39   -5.06    6.68   0
   5   0  41   -5.07    6.59   0
   6   0  42  156.97   10.13   0
   8  -3  35   -2.70    8.10   0
   4   2  41    0.05    7.59   0
   6  -2  38  103.35    8.31   0
   7  -2  39   -0.97    7.99   0
   7  -1  41   11.60    7.89   0
   9  -5  23   -2.21    7.74   0
   1   1  27    0.86    5.29   0
   2   1  34  637.76   13.00   0
   3  -2  26  537.81   11.09   0
   4  -3  25   -6.21    5.43   0
   4   0  40  488.95   12.40   0
   7  -5  21    5.57    6.29   0
   1   0  22  465.19   11.00   0
   4  -2  33    1.81    6.84   0
   5   1  43    4.36    7.66   0
   2  -2  16 3044.06   25.86   0
   2   2  36  412.15   11.33   0
   4   1  42  188.45   10.03   0
   5  -2  37   -2.78    6.57   0
   6  -5  17    2.39    6.61   0
   8  -5  25    7.51    7.66   0
   3   2  40  480.21   12.32   0
   4  -4  14  347.86   10.00   0
   4  -1  38  172.03    8.48   0
   5  -3  32  741.85   13.23   0
   7  -3  37    1.32    7.36   0
   3  -1  34  642.81   12.80   0
   5  -5   7   -0.23    5.84   0
   6  -3  36  350.53   11.67   0
   6   1  44  138.95    9.80   0
   7  -4  32  326.41   10.35   0
   8  -3  38   65.42    9.02   0
   9  -5  26  159.40    9.71   0
   2  -1  27   -3.35    5.47   0
   3  -3  18  553.11   11.78   0
   5  -1  42  170.22    9.94   0
   4  -3  28  755.37   12.87   0
   5   0  44  228.61   10.25   0
   6  -5  20  541.60   12.47   0
   6  -2  41   -7.32    7.11   0
   6   0  45   -2.09    7.85   0
   7  -2  42  172.19    9.77   0
   3  -2  29    5.53    5.59   0
   6  -4  31   11.31    7.48   0
   8  -5  28  192.75   10.04   0
   1   2  32 1251.53   18.04   0
   2  -2  19   -0.71    5.47   0
   3   0  39   -2.48    5.82   0
   3   1  41    0.73    6.14   0
   4  -4  17   -3.93    4.89   0
   4  -2  36  428.32   11.48   0
   5  -5  10  748.21   14.07   0
   2   1  37   -0.12    6.37   0
   4   0  43   -1.28    6.33   0
   5  -3  35   -5.25    7.56   0
   5  -2  40  503.78   11.85   0
   7  -4  35   -1.09    8.15   0
   7  -3  40  166.88    9.92   0
   8  -6  17    0.40    6.54   0
   8  -4  36  154.06    9.63   0
   9  -5  29   -6.25    7.75   0
   1   1  30  639.80   12.89   0
   4  -1  41   -9.10    7.57   0
   5   1  46   64.89    9.03   0
   6  -3  39   12.35    8.42   0
   7  -5  27   -2.49    6.61   0
   2   2  39   -3.27    6.92   0
   3  -3  21   -0.07    4.92   0
   4   1  45   -4.05    7.63   0
   5  -5  13    0.09    5.61   0
   6  -5  23   -3.11    6.73   0
   3  -1  37   11.75    5.88   0
   3   2  43   -2.31    7.17   0
   4  -3  31    9.30    6.88   0
   8  -5  31    8.89    8.22   0
   2  -1  30  661.55   12.24   0
   4  -4  20 1305.66   16.61   0
   6  -4  34  186.81    8.93   0
   6  -2  44  237.31   10.06   0
   7  -2  45  -10.30    7.95   0
   8  -6  20  224.69    9.45   0
   3  -2  32 1279.37   16.11   0
   5   0  47    9.07    7.51   0
   6   0  48  132.24    9.22   0
   2  -2  22 1988.79   20.09   0
   4  -2  39    6.52    7.05   0
   5  -5  16  742.82   13.79   0
   5  -4  30  191.88    8.40   0
   5  -3  38  102.04    8.56   0
   5  -2  43    0.08    8.21   0
   7  -6  16  650.43   13.92   0
   7  -5  30  209.78    9.40   0
   7  -4  38  157.00    9.70   0
   7  -3  43   -0.89    8.36   0
   8  -4  39    2.26    7.88   0
   3  -3  24 1726.10   18.80   0
   3   1  44  312.20   10.88   0
   6  -5  26  251.36   10.16   0
   9  -6  24  183.73    9.04   0
   0   2  25   -0.37    4.75   0
   4   0  46  162.33    8.83   0
   6  -3  42  186.66    9.51   0
   8  -6  23    3.64    6.97   0
   1   2  35    0.08    5.44   0
   2   1  40  483.89   11.92   0
   4  -3  34  572.98   12.19   0
   5   1  49    1.03    8.12   0
   7  -6  19   10.98    6.93   0
   8  -5  34  154.63    9.55   0
   1  -1  20 1577.73   19.29   0
   1   1  33    5.42    4.73   0
   3  -1  40  478.04   11.69   0
   4   1  48  259.97   11.61   0
   5  -5  19    4.61    6.12   0
   6  -4  37    2.75    6.60   0
   6  -2  47   -2.22    8.36   0
   6  -1  49    4.05    7.87   0
   2  -2  25    1.72    5.85   0
   2  -1  33    1.15    5.48   0
   2   0  38  268.25    9.72   0
   3  -2  35   -3.61    6.79   0
   5  -4  33   -1.97    6.87   0
   7  -5  33    0.77    7.83   0
   9  -6  27    7.82    8.10   0
   2   2  42  428.24   11.75   0
   5   0  50  103.39    9.52   0
   6  -5  29    2.26    6.21   0
   7  -4  41    1.84    7.91   0
   3  -3  27    2.51    5.52   0
   4  -2  42  420.59   11.82   0
   5  -3  41   -2.07    6.69   0
   5  -2  46   51.30    8.69   0
   7  -6  22  176.65    9.16   0
   7  -3  46   75.66    8.81   0
   3   0  45    9.23    7.11   0
   6  -3  45   12.64    8.03   0
   8  -5  37   -2.96    7.49   0
   4   0  49    0.97    8.09   0
   6  -4  40  307.89   11.06   0
   1  -1  23   -5.30    5.48   0
   3   1  47    4.85    7.36   0
   7  -5  36  187.39    9.70   0
   8  -6  29   -0.88    8.32   0
   2  -2  28 1140.73   15.30   0
   2   1  43    0.60    6.75   0
   3  -4   7   18.84    5.23   0
   3  -2  38  356.47   10.74   0
   5  -4  36  520.79   11.77   0
   6  -6  15   -3.29    6.16   0
   6  -2  50  136.78    9.93   0
   7  -6  25   -3.45    7.05   0
   0   2  28 1150.24   18.22   0
   1   1  36  938.25   15.30   0
   1   2  38  351.74   10.76   0
   3  -4  10 1128.58   17.20   0
   3  -3  30  614.51   11.85   0
   4  -4  29   -1.53    5.59   0
   5  -5  25    2.21    5.56   0
   7  -4  44  173.94    9.85   0
   2   0  41   -3.20    5.73   0
   4   1  51    2.46    7.25   0
   5  -3  44  285.39   10.10   0
   5  -1  51    1.98    7.38   0
   2  -3  11   21.01    5.59   0
   3  -4  13    8.50    5.34   0
   4  -2  45   -0.82    6.63   0
   5  -2  49   -1.54    7.77   0
   6  -6  18  288.26   10.13   0
   2   2  45   -1.53    6.65   0
   4  -3  40  508.05   11.77   0
   5   0  53    0.31    8.12   0
   6  -5  35    5.33    7.77   0
   6  -4  43    9.77    8.00   0
   6  -3  48  184.21    9.80   0
   7  -6  28  159.86    9.13   0
   8  -6  32  213.02    9.78   0
   1  -1  26 1240.24   16.31   0
   3   0  48  227.28   10.09   0
   5  -5  28  683.43   13.36   0
   5  -4  39    2.17    7.90   0
   1   0  34  989.86   14.87   0
   2  -2  31    2.30    5.34   0
   3  -4  16 2125.47   21.46   0
   3  -3  33   -0.46    6.76   0
   4  -4  32  531.77   11.53   0
   4  -1  50  190.34   10.04   0
   4   0  52  156.39    9.81   0
   6  -6  21   -0.26    6.40   0
   0   1  26 1167.32   17.47   0
   2  -1  39    4.04    6.69   0
   3  -2  41   -1.46    6.36   0
   3   1  50  203.09    9.94   0
   4  -5   9   20.46    5.97   0
   7  -4  47   -3.61    7.89   0
   2  -3  17   11.73    4.87   0
   4  -5  12 1200.74   17.64   0
   5  -3  47    7.49    8.37   0
   6  -2  53   11.96    7.09   0
   7  -6  31    7.83    7.19   0
   0   2  31    1.38    5.34   0
   1   1  39   -0.63    5.14   0
   2   0  44  779.28   14.36   0
   2   1  46  141.95    8.81   0
   3  -4  19   17.45    5.28   0
   4  -5  15    3.68    5.65   0
   4  -2  48  346.94   11.10   0
   5  -5  31   -9.58    7.26   0
   5  -1  54   62.21    8.56   0
   6  -6  24  667.97   13.58   0
   8  -6  35   -1.50    7.66   0
   1  -1  29   -4.26    5.80   0
   1   2  41    8.31    6.36   0
   4  -4  35   -3.90    7.07   0
   4  -3  43   -6.92    6.76   0
   5  -4  42  244.44   10.49   0
   6  -4  46  113.69    9.68   0
   6  -3  51   13.45    8.18   0
   2  -3  20 1473.53   17.67   0
   2  -2  34  299.87    9.19   0
   3  -3  36  579.03   12.15   0
   4   1  54   64.17    8.59   0
   1   0  37   -0.45    6.19   0
   4  -5  18  793.62   13.60   0
   6  -6  27    2.54    7.02   0
   7  -6  34  189.61    9.73   0
   0   1  29    1.34    4.98   0
   3  -2  44  345.86   10.25   0
   3   0  51    3.86    7.79   0
   4  -1  53    3.62    7.83   0
   5  -5  34  305.98   10.43   0
   1   7   6  113.71    8.72   0
   2   2   9   -2.01    4.61   0
   2   6   5   -3.67    6.31   0
   5   4 -14   88.43    8.31   0
   6   2 -29    3.80    6.79   0
  -1   5  15    3.78    5.17   0
   1   6  10  238.66    9.13   0
   2   5   9   -1.88    6.97   0
   3   0   0 2627.45   23.45   0
   4   3   1    5.19    5.92   0
   5   1  -8  847.00   13.08   0
   6   1 -25    5.17    6.38   0
   6   2 -26  231.34    9.51   0
   1   2  11   18.13    5.30   0
   2   7   1   -1.46    7.12   0
   3   5   4  275.16   10.24   0
   4   1   0 1461.62   16.34   0
   5   2  -6  473.63   10.97   0
   6   1 -22  182.83    8.66   0
   6   2 -23    6.64    6.44   0
   1   3  13    7.77    4.64   0
   2   1   7   -0.76    5.15   0
   2   3  11    4.63    5.10   0
   3   2   7   11.31    6.12   0
   3   6   0  334.09   10.69   0
   4   2   2  611.42   11.33   0
   4   4   0  554.07   11.50   0
   4   5  -4  170.65    9.43   0
   5   0 -10  748.00   12.94   0
   5   3  -7   -1.16    6.17   0
   5   4 -11   12.23    7.45   0
   0   7  11    1.87    6.55   0
   1   8   2  112.01    9.02   0
   3   1   5    7.32    4.87   0
   4  -1 -10 1124.25   16.64   0
   5  -1 -18  742.68   13.91   0
   6   2 -20  210.37    9.10   0
   6   3 -27    4.29    6.38   0
   6   1 -19   10.92    6.63   0
   6   3 -24  195.23    9.28   0
   1   5  14  446.92   11.21   0
   2   6   8  506.01   12.69   0
   3   4   8  605.68   11.80   0
   5   4  -8  439.43   11.54   0
   6   2 -17   -3.78    7.05   0
   3   3   9   10.44    5.69   0
   4   3   4  688.89   12.31   0
   4   5  -1   10.67    7.46   0
   5   2  -3    5.81    6.66   0
   5   3  -4  306.72   10.24   0
   6   0 -21    2.28    6.48   0
   6   3 -21    2.39    7.36   0
   0   5  16  722.94   13.82   0
   0   6  15    0.03    7.16   0
   1   4  15    5.25    5.77   0
   1   7   9    9.61    7.45   0
   2   7   4  205.86    9.79   0
   4   4   3   10.10    7.34   0
   5  -1 -15    3.81    5.48   0
   1   6  13   -3.47    7.00   0
   2   5  12  446.51   11.46   0
   4   1   3   33.50    6.00   0
   4   2   5    5.41    6.36   0
   5   0  -7   -5.89    5.59   0
   6   2 -14  112.86    8.29   0
   6   0 -18  282.13    9.50   0
   0   3  15   -0.10    4.84   0
   1   8   5    2.38    6.60   0
   2   2  12  836.08   13.61   0
   6   1 -13   -1.21    5.77   0
   6   3 -15    7.74    7.22   0
   3   2  10  772.85   12.49   0
   4  -1  -7   14.66    4.91   0
   5   2   0  709.54   13.06   0
   5   3  -1    1.86    6.45   0
   6   2 -11    5.40    7.05   0
   0   4  17   -1.77    5.22   0
   2   6  11    3.20    7.84   0
   3   0   3   -3.27    4.33   0
   3   4  11   10.71    7.10   0
   4   3   7   15.06    6.80   0
   6   0 -15    0.41    5.81   0
   2   7   7    3.78    7.23   0
   3   1   8 2838.16   22.84   0
   3   6   6   86.21    8.54   0
   4   4   6  237.40    8.95   0
   5  -1 -12 1212.28   16.80   0
   6   3 -12  172.41    9.29   0
   1   7  12  223.42   10.31   0
   3   3  12  778.26   12.85   0
   4   0   1    1.33    4.53   0
   4   6  -2   85.84    7.52   0
   5   0  -4 1211.71   15.46   0
   1   5  17    6.62    6.64   0
   5   5  -6  112.99    8.49   0
   6   2  -8  520.19   11.17   0
   2   1  10 2113.97   20.99   0
   4   1   6  902.08   13.28   0
   4   2   8  895.38   13.46   0
   4   5   5    6.04    8.14   0
   5   1   1   19.39    6.41   0
   5   3   2  262.21    9.11   0
   6   0 -12  399.96   10.50   0
   1   6  16  652.84   13.79   0
   2   4  16  761.92   13.51   0
   2   5  15    1.97    6.07   0
   5   2   3    4.14    5.95   0
   6   1  -7   10.48    6.67   0
   1   4  18  799.60   13.86   0
   4   6   1    4.28    7.28   0
   5   4   1   -2.47    7.92   0
   0   6  18  275.38   10.10   0
   2   7  10  196.45   10.43   0
   3   6   9   15.05    7.55   0
   4   3  10  416.88   10.98   0
   4   4   9    4.97    7.76   0
   5  -1  -9   24.50    5.41   0
   5   5  -3    2.98    6.90   0
   0   5  19   -3.50    5.71   0
   2   6  14  117.45    8.95   0
   3   2  13    7.54    6.03   0
   4  -1  -4 1336.28   17.62   0
   5   0  -1   -2.78    5.76   0
   6   0  -9    0.73    6.11   0
   3   5  13   -4.20    7.84   0
   5   3   5    0.76    7.48   0
   6   1  -4  297.75    9.92   0
   2   2  15   -1.59    4.67   0
   3   3  15    1.38    6.51   0
   4   0   4 1628.44   17.87   0
   4   5   8  429.98   11.58   0
   5   1   4  804.15   13.22   0
   7   2 -22   58.95    7.38   0
   1   7  15    0.48    7.46   0
   3   0   6  541.53   11.17   0
   3   1  11   32.59    5.45   0
   4   2  11    6.27    5.62   0
   5   2   6  167.50    8.03   0
   5   4   4  156.17    8.76   0
   5   5   0  258.02   10.26   0
   6   3  -3   -3.84    7.27   0
   7   1 -18  252.93   10.14   0
   7   2 -19    8.88    6.31   0
   4   1   9    5.49    5.23   0
   6   0  -6  436.82   10.73   0
   2   5  18  195.35    9.30   0
   3   6  12  188.43   10.05   0
   4   4  12  282.33   10.37   0
   5  -1  -6  385.15   10.10   0
   6  -1 -14  432.65   11.01   0
   7   2 -16  188.63    8.75   0
   1   5  20  523.48   12.17   0
   2   4  19    0.77    6.38   0
   2   7  13    8.86    8.20   0
   4   3  13   12.12    6.31   0
   7   1 -15   -2.68    7.11   0
   0   3  18  532.67   12.14   0
   0   4  20 1282.66   17.86   0
   1   3  19   19.97    5.56   0
   1   6  19    3.53    6.95   0
   5   3   8  509.48   11.35   0
   5   5   3   -2.50    7.24   0
   6   2   1    1.65    7.17   0
   6   3   0  354.18   10.89   0
   7   2 -13   -0.84    6.64   0
   2   1  13   31.39    5.71   0
   2   6  17   -1.22    7.58   0
   3   5  16  450.91   11.87   0
   5   4   7    5.48    7.23   0
   7   1 -12  231.27    9.33   0
   3   2  16 1886.43   18.99   0
   4  -1  -1   32.12    4.79   0
   5   1   7    5.68    5.58   0
   5   2   9    0.90    6.09   0
   6  -1 -11    6.90    5.46   0
   6   0  -3    3.30    6.32   0
   1   4  21    8.94    6.05   0
   4   0   7    3.47    5.46   0
   4   2  14  308.22    9.88   0
   6   4  -1    0.06    7.20   0
  -1   4  19   15.93    5.07   0
   3   3  18  426.23   10.27   0
   5  -1  -3   -3.40    5.29   0
   6   3   3    7.75    7.78   0
   7   0 -14  136.89    8.32   0
   7   1  -9   -1.32    6.95   0
   2   3  20  610.85   12.11   0
   4   1  12  953.89   13.54   0
   4   4  15    2.18    6.69   0
   6   2   4  257.40   10.08   0
   7   2  -7   -2.29    7.54   0
   2   2  18 1142.85   15.48   0
   3   0   9   -4.50    5.24   0
   3   1  14  734.81   12.25   0
   4   3  16  472.74   11.52   0
   5   0   5   -4.21    4.97   0
   6  -1  -8  865.72   14.18   0
   7   0 -11   -4.48    6.50   0
   2   5  21    6.63    7.22   0
   2   7  16  179.03    9.01   0
   6   0   0  934.52   13.84   0
   6   4   2  101.50    8.12   0
   7   1  -6  121.47    8.19   0
   3   4  20  488.95   11.70   0
   5   2  12  531.84   11.91   0
   1   5  23   -5.19    7.12   0
   1   6  22  161.75    9.59   0
   2   4  22  368.61   10.52   0
   2   6  20  188.60    9.41   0
   3   5  19   -1.98    6.62   0
   6   1   5    7.47    6.09   0
   6   3   6  204.39    9.54   0
   7   0  -8  662.57   12.98   0
   5  -1   0 1523.68   17.58   0
   6  -1  -5    0.90    5.61   0
   6   2   7   -1.42    6.62   0
   3   2  19    4.98    6.28   0
   4   2  17   -3.98    6.68   0
   5   3  14  179.51    9.14   0
   7   1  -3    2.30    6.72   0
   3   6  18  214.89    9.61   0
   4   0  10  433.10    9.73   0
   5   0   8 1065.92   14.61   0
   5   4  13    9.82    7.00   0
   7   2  -1   -3.23    6.99   0
   1   3  22  371.95   10.17   0
   4   1  15   18.89    5.63   0
   4   3  19   -1.42    6.76   0
   4   5  17   -2.07    7.61   0
   7   0  -5   -0.56    6.62   0
   1   4  24  711.09   13.43   0
   2   1  16 2061.20   20.22   0
   5   2  15    1.65    6.90   0
   6   1   8  699.08   12.99   0
   6   3   9    3.11    7.64   0
   7   1   0  428.99   11.50   0
   0   4  23    2.17    4.91   0
   2   3  23    3.60    6.08   0
   3   1  17   -0.80    5.75   0
   5   1  13   12.77    6.08   0
   6   2  10  227.55    9.54   0
   3   5  22  123.23    9.04   0
   7   0  -2  257.60    9.59   0
   0   3  21    0.29    4.68   0
   2   6  23   -2.66    8.26   0
   3   0  12 2622.20   22.31   0
   3   4  23    4.63    6.05   0
   5  -2 -11    5.33    4.73   0
   5  -1   3   31.65    5.24   0
   7  -1 -10  243.61    9.12   0
   1   2  20 1442.46   17.91   0
   2   4  25    5.30    6.62   0
   5   3  17   -7.65    6.78   0
   5   4  16  348.44   10.60   0
   7   1   3    3.46    7.48   0
   2   0  11   -1.83    4.95   0
   4   2  20  708.91   12.39   0
   5   0  11   -1.85    6.19   0
   6   3  12  162.15    9.04   0
   1   5  26  246.93    9.64   0
   3   2  22  335.84    9.90   0
   3   6  21   -4.51    7.62   0
   4   0  13    2.52    4.92   0
   4   5  20  132.47    8.93   0
   6  -1   1   10.58    6.02   0
   6   1  11    7.35    6.24   0
   6   2  13    2.51    7.70   0
   7  -1  -7    7.78    5.75   0
   7   0   1   -7.16    7.10   0
   8   1 -11    2.34    6.57   0
   4   3  22  187.96    8.35   0
   5  -2  -8 2125.77   23.42   0
   5   1  16  676.75   12.51   0
   5   2  18  418.97   10.53   0
   8   1  -8  158.78    8.26   0
   3   5  25   -9.26    7.62   0
   5   3  20  252.24   10.28   0
   5   4  19    2.58    7.00   0
   6   3  15    6.02    7.47   0
   7   2   8  234.70    9.62   0
   8   1  -5    0.21    7.19   0
   2   1  19    4.35    5.37   0
   2   5  27    6.27    7.19   0
   3   1  20  946.96   13.78   0
   3   4  26  163.48    8.99   0
   6  -1   4  805.80   13.36   0
   6   1  14  154.01    8.52   0
   7   0   4  219.00    8.55   0
   1   3  25    0.36    4.58   0
   1   4  27    9.18    6.03   0
   2   3  26  676.79   12.52   0
   3   0  15    4.56    5.47   0
   4  -1   8 2844.53   23.73   0
   4   2  23  -11.68    7.17   0
   4   4  24  357.60   11.46   0
   6   2  16  412.58   11.55   0
   8   0  -7    1.15    6.44   0
   3   6  24  212.11   10.02   0
   4   5  23    3.30    7.44   0
   5  -2  -5    8.70    4.97   0
   7  -1  -1    1.33    6.06   0
   8   1  -2  106.65    8.01   0
   4   0  16 1649.10   17.55   0
   5   2  21    0.57    6.55   0
   5   2  45   -3.68    7.24   0
   6  -2  26  398.91   10.15   0
   6  -1  34  261.56   10.14   0
   6   0  39    6.81    7.98   0
   7  -3  10  404.59   10.46   0
   8  -2  22  115.78    8.45   0
   9  -2  14  125.95    8.01   0
   1   1  33    8.40    4.50   0
   3  -2  11   22.31    4.83   0
   3  -1  28 1426.25   16.38   0
   4  -2  21    5.55    5.12   0
   4  -1  32  970.18   13.93   0
   5  -2  25    1.90    5.58   0
   7   0  37    9.63    7.07   0
   5  -3  -1    2.69    5.01   0
   5  -3   2  862.78   15.01   0
   6  -3  12  825.80   13.95   0
   7  -3  13    8.52    6.60   0
   8  -3   8  503.90   12.00   0
   2  -1  21   22.88    4.94   0
   5  -3  -4  706.54   15.21   0
   5  -3   5   11.30    5.63   0
   5   0  41   15.76    7.89   0
   9  -2  17    4.29    6.55   0
   3   2  46   57.14    7.99   0
   3   3  48  164.40    9.41   0
   4   0  40  482.19   11.21   0
   4   2  47    5.71    7.19   0
   5  -1  36  367.48   10.80   0
   7  -1  35    9.46    7.93   0
   8  -3  11    2.46    6.74   0
   8  -2  25   -1.00    7.06   0
   2   1  40  478.52   11.57   0
   3  -2  14 1648.28   18.45   0
   4   1  45   -0.52    8.00   0
   5  -3   8 2298.83   22.04   0
   5  -2  28  445.75   11.17   0
   6  -3  15    0.35    5.28   0
   6  -2  29   -2.79    6.10   0
   7  -3  16  467.71   11.52   0
   0   1  26 1146.97   17.18   0
   4  -2  24 1953.40   18.99   0
   6  -1  37    5.26    6.72   0
   6   0  42  149.07    9.76   0
   7   0  40  195.25    9.94   0
   8  -3  14  182.15    8.69   0
   9  -2  20  160.98    8.47   0
   3  -1  31    7.90    5.95   0
   3   1  44  338.56   10.55   0
   4  -1  35   10.57    5.90   0
   5  -3  11    6.68    5.68   0
   5   1  46   77.22    8.55   0
   7  -2  30   96.88    8.35   0
   8  -1  33   -0.37    7.75   0
   1   2  41   -1.86    5.82   0
   2   2  45    0.15    6.59   0
   6  -3  18  451.10   10.48   0
   7  -3  19    2.09    6.69   0
   8  -2  28  200.57    9.32   0
   1   1  36  928.21   14.79   0
   2  -1  24 1875.33   19.23   0
   3  -2  17   11.98    4.88   0
   5  -3  14  424.43   10.58   0
   6  -2  32  374.93   11.26   0
   8  -3  17   -3.59    7.20   0
   9  -2  23   -3.66    6.68   0
   5  -2  31    2.64    6.98   0
   5  -1  39   -1.90    7.53   0
   5   0  44  204.73    9.75   0
   7  -1  38   52.19    8.44   0
   4  -2  27    3.21    5.31   0
   6  -1  40  248.29   10.24   0
   7  -3  22  191.96    9.20   0
   1   0  28 1332.50   16.84   0
   3   2  49    2.21    7.12   0
   4   2  50  124.08    8.77   0
   7  -2  33   -4.09    6.64   0
   8  -3  20  248.52    9.62   0
   3  -2  20 1512.40   17.23   0
   3  -1  34  625.55   12.32   0
   4  -1  38  189.21    8.35   0
   4   1  48  248.77   10.24   0
   6   0  45  -13.05    7.81   0
   2   1  43   -1.19    5.44   0
   5   1  49    6.49    8.13   0
   6  -2  35    1.10    7.41   0
   9  -3  15   -0.94    6.96   0
   0   1  29   -3.06    4.85   0
   2  -1  27   -1.44    4.71   0
   3   0  42  348.12    9.90   0
   3   1  47    8.87    7.03   0
   7  -3  25    3.97    6.22   0
   7  -1  41    1.31    7.68   0
   8  -3  23    6.13    7.54   0
   0   2  37    1.21    4.87   0
   4  -2  30  215.80    8.29   0
   7  -2  36  301.91   10.98   0
   9  -3  18  113.22    7.96   0
   1   2  44  337.93   10.60   0
   3  -2  23    3.07    5.84   0
   4   0  46  176.11    9.69   0
   6  -1  43   -1.94    7.76   0
   1   1  39    2.01    5.62   0
   6  -3  27    5.29    6.99   0
   8  -3  26  215.95    9.80   0
   9  -3  21    0.66    7.76   0
   1   0  31   -2.34    5.14   0
   4  -3   4 1385.13   18.81   0
   4  -3   7   18.84    4.74   0
   4  -3  10 1133.33   16.12   0
   4  -1  41    8.87    7.32   0
   5  -3  23    5.01    5.53   0
   6   0  48  142.63    9.47   0
   3  -1  37    3.54    5.55   0
   4   2  53   -7.57    8.22   0
   2  -1  30  645.20   11.84   0
   4  -2  33   -5.35    5.67   0
   4   1  51   -3.37    8.01   0
   5  -2  37   -9.61    6.31   0
   7  -2  39   -3.39    7.93   0
   7  -1  44  138.22    8.83   0
   9  -3  24  253.11   10.00   0
   2   1  46  148.20    8.25   0
   3  -2  26  562.00   11.07   0
   3   0  45   -4.84    5.82   0
   5  -1  45   -2.57    8.02   0
   6  -3  30  211.35    9.65   0
   8  -3  29    3.36    7.10   0
   8  -2  37    5.97    6.58   0
   3   1  50  207.99    9.43   0
   5  -3  26  687.56   12.25   0
   6  -1  46   87.13    8.58   0
   7  -4   8  597.51   12.74   0
   0   1  32 1756.31   20.46   0
   2   0  41    3.71    6.09   0
   4   0  49    6.74    7.72   0
   5   0  50   97.90    7.99   0
   7  -4  11   -6.46    6.26   0
   8  -4  12  305.14   10.68   0
   4  -3  19   20.25    5.93   0
   4  -1  44  309.98   10.32   0
   6  -2  41   -7.33    6.67   0
   7  -4  14  386.65   10.87   0
   8  -3  32  233.63    9.91   0
   9  -3  27   -0.01    6.99   0
   1   0  34  983.72   14.88   0
   1   1  42  335.19   10.05   0
   2  -1  33    6.18    5.86   0
   2   2  51    2.33    6.65   0
   3  -2  29   14.63    5.79   0
   4  -2  36  422.92   10.29   0
   5  -3  29    5.30    6.37   0
   5  -2  40  546.10   12.37   0
   7  -4  17   11.47    6.91   0
   7  -3  34  204.21    9.94   0
   8  -4  15   -3.03    6.77   0
   6  -3  33    8.73    6.42   0
   7  -2  42  173.29    9.14   0
   8  -4  18  209.73    9.37   0
   4  -3  22  384.03   10.03   0
   4   1  54   79.04    8.36   0
   6  -4   7    4.41    5.51   0
   6  -4  10  396.52   10.63   0
   7  -4  20  494.86   11.91   0
   3   0  48  221.36    9.80   0
   5  -1  48  240.23    9.78   0
   6  -4   4  937.45   15.93   0
   6  -4  13   -2.04    5.89   0
   6  -1  49   -2.60    7.53   0
   8  -4  21   -0.58    7.08   0
   1  -1  20 1469.55   18.08   0
   2  -2  13   -3.69    5.00   0
   2   1  49   -8.97    6.39   0
   5  -3  32  773.33   13.43   0
   6  -4  16  818.79   13.95   0
   6  -2  44  250.88   10.18   0
   2   0  44  769.91   13.68   0
   3  -2  32 1258.04   15.52   0
   3   1  53    0.69    6.83   0
   4  -3  25    4.09    6.19   0
   4  -2  39   -1.27    7.12   0
   4   0  52  174.73    9.53   0
   5  -2  43    1.42    7.64   0
   5   0  53   -6.06    7.95   0
   6  -3  36  362.09   10.14   0
   7  -4  23    7.39    6.97   0
   7  -3  37    4.79    7.26   0
   0   1  35   -1.43    5.00   0
   2  -2  16 2990.22   24.85   0
   6  -4  19   -6.21    6.49   0
   7  -2  45    2.63    7.64   0
   8  -4  24  360.07   11.10   0
   1   0  37    0.34    5.57   0
   7  -4  26  191.24    9.20   0
   1  -1  23    2.86    4.22   0
   1   1  45    0.75    6.01   0
   2  -2  19    0.47    5.25   0
   5  -3  35   14.76    7.18   0
   6  -4  22  400.88   10.76   0
   8  -4  27   -2.60    7.17   0
   9  -4  22   88.41    7.54   0
   4  -3  28  768.66   12.50   0
   6  -3  39   -5.19    7.45   0
   6  -2  47    1.48    7.86   0
   7  -3  40  176.78    9.31   0
   3  -2  35    3.27    5.40   0
  -8   3  13    1.55    7.58   0
  -8   3  16  472.98   12.33   0
  -8   3  19    2.05    8.16   0
  -6   1  50   90.95    9.85   0
  -5   3  25    6.34    6.98   0
  -4   1  49   -1.63    8.45   0
  -4   2  39   -4.26    7.57   0
  -8   3  10  244.68   10.37   0
  -7   2  42  100.88    9.51   0
  -7   3   2  268.03    9.93   0
  -6   2  43  -16.05    7.95   0
  -8   3   7   -1.82    7.04   0
  -5   1  51    4.20    8.69   0
  -5   3   4  771.57   13.68   0
  -3   2  34  626.78   12.94   0
  -1   1  28 1349.13   18.79   0
  -7   3  32  325.57   11.73   0
  -6   3   0 1068.68   16.11   0
  -5   2  44  294.27   11.03   0
  -3   1  47    4.47    7.06   0
  -8   3   4  296.94   10.33   0
  -8   3  28  181.27    9.67   0
  -6   3  33    3.97    7.00   0
  -7   3  -1   11.88    6.15   0
  -5   3  31    7.57    6.36   0
  -4   2  42  449.98   11.40   0
  -4   3  14  707.04   12.98   0
  -4   3  17    3.15    6.08   0
  -2   1  42  349.47   10.89   0
   0   0  33    1.55    4.91   0
  -8   3  31   -1.69    7.69   0
  -7   2  45   -0.67    8.16   0
  -7   3  35   13.69    8.24   0
  -5   3   1    1.09    5.40   0
  -4   3  11   35.09    6.33   0
  -4   3  20  953.62   14.21   0
  -2   2  17    3.55    5.26   0
  -1   1  31    1.90    5.09   0
  -9   3  18  214.57   10.21   0
  -6   3  36  362.36   10.76   0
  -4   1  52  235.13   10.76   0
  -4   3  23   16.00    5.80   0
  -3   2  37   -2.30    5.63   0
  -2   2  14  335.95    9.74   0
  -2   2  20 3577.33   27.73   0
  -5   3  34  478.27   11.57   0
;
_shelx_hkl_checksum              48694
loop_
_space_group_symop_operation_xyz
'x, y, z'
'-y, x-y, z'
'-x+y, -x, z'
'y, x, -z+1/2'
'x-y, -y, -z+1/2'
'-x, -x+y, -z+1/2'
'x+2/3, y+1/3, z+1/3'
'-y+2/3, x-y+1/3, z+1/3'
'-x+y+2/3, -x+1/3, z+1/3'
'y+2/3, x+1/3, -z+5/6'
'x-y+2/3, -y+1/3, -z+5/6'
'-x+2/3, -x+y+1/3, -z+5/6'
'x+1/3, y+2/3, z+2/3'
'-y+1/3, x-y+2/3, z+2/3'
'-x+y+1/3, -x+2/3, z+2/3'
'y+1/3, x+2/3, -z+7/6'
'x-y+1/3, -y+2/3, -z+7/6'
'-x+1/3, -x+y+2/3, -z+7/6'
'-x, -y, -z'
'y, -x+y, -z'
'x-y, x, -z'
'-y, -x, z-1/2'
'-x+y, y, z-1/2'
'x, x-y, z-1/2'
'-x+2/3, -y+1/3, -z+1/3'
'y+2/3, -x+y+1/3, -z+1/3'
'x-y+2/3, x+1/3, -z+1/3'
'-y+2/3, -x+1/3, z-1/6'
'-x+y+2/3, y+1/3, z-1/6'
'x+2/3, x-y+1/3, z-1/6'
'-x+1/3, -y+2/3, -z+2/3'
'y+1/3, -x+y+2/3, -z+2/3'
'x-y+1/3, x+2/3, -z+2/3'
'-y+1/3, -x+2/3, z+1/6'
'-x+y+1/3, y+2/3, z+1/6'
'x+1/3, x-y+2/3, z+1/6'
loop_
_atom_site_label
_atom_site_type_symbol
_atom_site_fract_x
_atom_site_fract_y
_atom_site_fract_z
_atom_site_U_iso_or_equiv
_atom_site_adp_type
_atom_site_occupancy
_atom_site_site_symmetry_order
_atom_site_calc_flag
_atom_site_refinement_flags_posn
_atom_site_refinement_flags_adp
_atom_site_refinement_flags_occupancy
Ba1 Ba 0.0000 0.0000 0.2500 0.00992(2) Uani 1 6 d S T P
Mg2 Mg 0.0000 0.0000 0.0000 0.00804(7) Uani 1 6 d S T P
O3 O 0.11770(16) 0.82531(16) 0.12921(2) 0.01808(12) Uani 1 1 d . . .
C4 C 0.0000 0.0000 0.13039(3) 0.00870(11) Uani 1 3 d S T P
loop_
_atom_site_aniso_label
_atom_site_aniso_U_11
_atom_site_aniso_U_22
_atom_site_aniso_U_33
_atom_site_aniso_U_23
_atom_site_aniso_U_13
_atom_site_aniso_U_12
Ba1 0.00867(2) 0.00867(2) 0.01241(3) 0.000 0.000 0.00434(1)
Mg2 0.00690(11) 0.00690(11) 0.01031(17) 0.000 0.000 0.00345(5)
O3 0.0236(3) 0.0198(3) 0.0202(2) -0.0043(2) -0.0075(2) 0.0179(3)
C4 0.00849(17) 0.00849(17) 0.0091(3) 0.000 0.000 0.00424(9)
loop_
_atom_type_symbol
_atom_type_description
_atom_type_scat_dispersion_real
_atom_type_scat_dispersion_imag
_atom_type_scat_source
C C 0.0033 0.0016 'International Tables Vol C Tables 4.2.6.8 and 6.1.1.4'
O O 0.0106 0.0060 'International Tables Vol C Tables 4.2.6.8 and 6.1.1.4'
Mg Mg 0.0486 0.0363 'International Tables Vol C Tables 4.2.6.8 and 6.1.1.4'
Ba Ba -0.3244 2.2819 'International Tables Vol C Tables 4.2.6.8 and 6.1.1.4'
loop_
_geom_angle_atom_site_label_1
_geom_angle_atom_site_label_2
_geom_angle_atom_site_label_3
_geom_angle
_geom_angle_site_symmetry_1
_geom_angle_site_symmetry_3
O3 Ba1 O3 123.55(3) 35_445 26_445
O3 Ba1 O3 137.32(3) 35_445 25_455
O3 Ba1 O3 93.24(2) 26_445 25_455
O3 Ba1 O3 93.24(2) 35_445 34_545
O3 Ba1 O3 137.32(3) 26_445 34_545
O3 Ba1 O3 66.37(3) 25_455 34_545
O3 Ba1 O3 93.24(2) 35_445 36
O3 Ba1 O3 66.37(3) 26_445 36
O3 Ba1 O3 123.55(2) 25_455 36
O3 Ba1 O3 93.24(2) 34_545 36
O3 Ba1 O3 66.37(3) 35_445 27
O3 Ba1 O3 93.24(2) 26_445 27
O3 Ba1 O3 93.24(2) 25_455 27
O3 Ba1 O3 123.55(2) 34_545 27
O3 Ba1 O3 137.32(3) 36 27
O3 Ba1 O3 177.078(15) 35_445 27_545
O3 Ba1 O3 57.13(2) 26_445 27_545
O3 Ba1 O3 43.87(2) 25_455 27_545
O3 Ba1 O3 85.069(15) 34_545 27_545
O3 Ba1 O3 84.485(15) 36 27_545
O3 Ba1 O3 116.55(2) 27 27_545
O3 Ba1 O3 57.13(2) 35_445 36_455
O3 Ba1 O3 177.078(15) 26_445 36_455
O3 Ba1 O3 85.069(15) 25_455 36_455
O3 Ba1 O3 43.87(2) 34_545 36_455
O3 Ba1 O3 116.55(2) 36 36_455
O3 Ba1 O3 84.485(15) 27 36_455
O3 Ba1 O3 122.36(2) 27_545 36_455
O3 Ba1 O3 43.87(2) 35_445 34_655
O3 Ba1 O3 84.485(15) 26_445 34_655
O3 Ba1 O3 177.078(16) 25_455 34_655
O3 Ba1 O3 116.55(2) 34_545 34_655
O3 Ba1 O3 57.13(2) 36 34_655
O3 Ba1 O3 85.070(15) 27 34_655
O3 Ba1 O3 135.13(2) 27_545 34_655
O3 Ba1 O3 97.125(16) 36_455 34_655
O3 Ba1 O3 84.485(15) 35_445 25_565
O3 Ba1 O3 43.87(2) 26_445 25_565
O3 Ba1 O3 116.55(2) 25_455 25_565
O3 Ba1 O3 177.078(16) 34_545 25_565
O3 Ba1 O3 85.070(15) 36 25_565
O3 Ba1 O3 57.13(2) 27 25_565
O3 Ba1 O3 97.125(16) 27_545 25_565
O3 Ba1 O3 135.13(2) 36_455 25_565
O3 Ba1 O3 60.53(3) 34_655 25_565
O3 Ba1 O3 85.070(15) 35_445 26_345
O3 Ba1 O3 116.55(2) 26_445 26_345
O3 Ba1 O3 57.13(2) 25_455 26_345
O3 Ba1 O3 84.486(15) 34_545 26_345
O3 Ba1 O3 177.078(15) 36 26_345
O3 Ba1 O3 43.87(2) 27 26_345
O3 Ba1 O3 97.125(16) 27_545 26_345
O3 Ba1 O3 60.53(3) 36_455 26_345
O3 Ba1 O3 122.36(2) 34_655 26_345
O3 Ba1 O3 97.125(16) 25_565 26_345
O3 Ba1 O3 116.55(2) 35_445 35_435
O3 Ba1 O3 85.070(15) 26_445 35_435
O3 Ba1 O3 84.486(15) 25_455 35_435
O3 Ba1 O3 57.13(2) 34_545 35_435
O3 Ba1 O3 43.87(2) 36 35_435
O3 Ba1 O3 177.078(15) 27 35_435
O3 Ba1 O3 60.53(3) 27_545 35_435
O3 Ba1 O3 97.125(16) 36_455 35_435
O3 Ba1 O3 97.125(16) 34_655 35_435
O3 Ba1 O3 122.36(2) 25_565 35_435
O3 Ba1 O3 135.13(2) 26_345 35_435
O3 Mg2 O3 180.00(7) 29_445 17_554
O3 Mg2 O3 86.73(3) 29_445 30_455
O3 Mg2 O3 93.27(3) 17_554 30_455
O3 Mg2 O3 93.27(3) 29_445 18_544
O3 Mg2 O3 86.73(3) 17_554 18_544
O3 Mg2 O3 180.00(5) 30_455 18_544
O3 Mg2 O3 86.73(3) 29_445 28
O3 Mg2 O3 93.27(3) 17_554 28
O3 Mg2 O3 86.73(3) 30_455 28
O3 Mg2 O3 93.27(3) 18_544 28
O3 Mg2 O3 93.27(3) 29_445 16_444
O3 Mg2 O3 86.73(3) 17_554 16_444
O3 Mg2 O3 93.27(3) 30_455 16_444
O3 Mg2 O3 86.73(3) 18_544 16_444
O3 Mg2 O3 180.00(4) 28 16_444
O3 Mg2 Ba1 98.382(19) 29_445 13_444
O3 Mg2 Ba1 81.618(19) 17_554 13_444
O3 Mg2 Ba1 41.363(19) 30_455 13_444
O3 Mg2 Ba1 138.637(19) 18_544 13_444
O3 Mg2 Ba1 48.40(2) 28 13_444
O3 Mg2 Ba1 131.60(2) 16_444 13_444
O3 Mg2 Ba1 81.618(19) 29_445 25
O3 Mg2 Ba1 98.382(19) 17_554 25
O3 Mg2 Ba1 138.637(19) 30_455 25
O3 Mg2 Ba1 41.363(19) 18_544 25
O3 Mg2 Ba1 131.60(2) 28 25
O3 Mg2 Ba1 48.40(2) 16_444 25
Ba1 Mg2 Ba1 180.0 13_444 25
O3 Mg2 Ba1 48.40(2) 29_445 13_554
O3 Mg2 Ba1 131.60(2) 17_554 13_554
O3 Mg2 Ba1 98.382(19) 30_455 13_554
O3 Mg2 Ba1 81.618(19) 18_544 13_554
O3 Mg2 Ba1 41.364(19) 28 13_554
O3 Mg2 Ba1 138.636(19) 16_444 13_554
Ba1 Mg2 Ba1 77.150(1) 13_444 13_554
Ba1 Mg2 Ba1 102.850(1) 25 13_554
O3 Mg2 Ba1 131.60(2) 29_445 25_445
O3 Mg2 Ba1 48.40(2) 17_554 25_445
O3 Mg2 Ba1 81.618(19) 30_455 25_445
O3 Mg2 Ba1 98.382(19) 18_544 25_445
O3 Mg2 Ba1 138.636(19) 28 25_445
O3 Mg2 Ba1 41.364(19) 16_444 25_445
Ba1 Mg2 Ba1 102.850(1) 13_444 25_445
Ba1 Mg2 Ba1 77.150(1) 25 25_445
Ba1 Mg2 Ba1 180.0 13_554 25_445
O3 Mg2 Ba1 41.364(19) 29_445 13_544
O3 Mg2 Ba1 138.636(19) 17_554 13_544
O3 Mg2 Ba1 48.40(2) 30_455 13_544
O3 Mg2 Ba1 131.60(2) 18_544 13_544
O3 Mg2 Ba1 98.383(19) 28 13_544
O3 Mg2 Ba1 81.617(19) 16_444 13_544
Ba1 Mg2 Ba1 77.150(1) 13_444 13_544
Ba1 Mg2 Ba1 102.850(2) 25 13_544
Ba1 Mg2 Ba1 77.150(1) 13_554 13_544
Ba1 Mg2 Ba1 102.850(1) 25_445 13_544
O3 Mg2 Ba1 138.636(19) 29_445 25_455
O3 Mg2 Ba1 41.364(19) 17_554 25_455
O3 Mg2 Ba1 131.60(2) 30_455 25_455
O3 Mg2 Ba1 48.40(2) 18_544 25_455
O3 Mg2 Ba1 81.617(19) 28 25_455
O3 Mg2 Ba1 98.383(19) 16_444 25_455
Ba1 Mg2 Ba1 102.850(2) 13_444 25_455
Ba1 Mg2 Ba1 77.150(1) 25 25_455
Ba1 Mg2 Ba1 102.850(1) 13_554 25_455
Ba1 Mg2 Ba1 77.150(1) 25_445 25_455
Ba1 Mg2 Ba1 180.0 13_544 25_455
C4 O3 Mg2 139.29(6) 1_565 16_554
C4 O3 Ba1 99.95(4) 1_565 25_455
Mg2 O3 Ba1 109.86(3) 16_554 25_455
C4 O3 Ba1 88.65(4) 1_565 25_565
Mg2 O3 Ba1 101.50(3) 16_554 25_565
Ba1 O3 Ba1 116.55(2) 25_455 25_565
O3 C4 O3 119.906(6) 2_665 3_455
O3 C4 O3 119.906(6) 2_665 1_545
O3 C4 O3 119.906(6) 3_455 1_545
O3 C4 Ba1 149.06(6) 2_665 25_445
O3 C4 Ba1 68.54(4) 3_455 25_445
O3 C4 Ba1 57.59(4) 1_545 25_445
O3 C4 Ba1 57.59(4) 2_665 25
O3 C4 Ba1 149.06(6) 3_455 25
O3 C4 Ba1 68.54(4) 1_545 25
Ba1 C4 Ba1 99.049(18) 25_445 25
O3 C4 Ba1 68.54(4) 2_665 25_455
O3 C4 Ba1 57.59(4) 3_455 25_455
O3 C4 Ba1 149.06(6) 1_545 25_455
Ba1 C4 Ba1 99.048(18) 25_445 25_455
Ba1 C4 Ba1 99.048(18) 25 25_455
loop_
_geom_bond_atom_site_label_1
_geom_bond_atom_site_label_2
_geom_bond_distance
_geom_bond_site_symmetry_2
Ba1 O3 2.8261(7) 35_445
Ba1 O3 2.8261(7) 26_445
Ba1 O3 2.8261(7) 25_455
Ba1 O3 2.8261(7) 34_545
Ba1 O3 2.8261(7) 36
Ba1 O3 2.8261(7) 27
Ba1 O3 3.0693(7) 27_545
Ba1 O3 3.0693(7) 36_455
Ba1 O3 3.0693(8) 34_655
Ba1 O3 3.0693(8) 25_565
Ba1 O3 3.0693(7) 26_345
Ba1 O3 3.0693(7) 35_435
Mg2 O3 2.0586(6) 29_445
Mg2 O3 2.0586(6) 17_554
Mg2 O3 2.0586(6) 30_455
Mg2 O3 2.0586(6) 18_544
Mg2 O3 2.0586(6) 28
Mg2 O3 2.0586(6) 16_444
Mg2 Ba1 4.02227(6) 13_444
Mg2 Ba1 4.02227(6) 25
Mg2 Ba1 4.02227(6) 13_554
Mg2 Ba1 4.02227(6) 25_445
Mg2 Ba1 4.02230(6) 13_544
Mg2 Ba1 4.02230(6) 25_455
O3 C4 1.2788(6) 1_565
O3 Mg2 2.0585(6) 16_554
O3 Ba1 2.8261(7) 25_455
O3 Ba1 3.0693(7) 25_565
C4 O3 1.2788(6) 2_665
C4 O3 1.2788(6) 3_455
C4 O3 1.2788(6) 1_545
C4 Ba1 3.2971(4) 25_445
C4 Ba1 3.2971(4) 25
C4 Ba1 3.2971(4) 25_455
