#------------------------------------------------------------------------------
#$Date: 2019-12-26 20:40:52 +0200 (Thu, 26 Dec 2019) $
#$Revision: 246067 $
#$URL: file:///home/coder/svn-repositories/cod/cif/2/31/16/2311638.cif $
#------------------------------------------------------------------------------
#
# This file is available in the Crystallography Open Database (COD),
# http://www.crystallography.net/. The original data for this entry
# were provided by IUCr Journals, http://journals.iucr.org/.
#
# The file may be used within the scientific community so long as
# proper attribution is given to the journal article from which the
# data were obtained.
#
data_2311638
loop_
_publ_author_name
'Tawfiq, Kinaan M.'
'Miller, Gary J.'
'Al-Jeboori, Mohamad J'
'Fennell, Paul S.'
'Coles, Simon J.'
'Tizzard, Graham J.'
'Wilson, Claire'
'Potgieter, Herman'
_publ_section_title
;
 Comparison of the structural motifs and packing arrangements of six novel
 derivatives and one polymorph of
 2-(1-phenyl-1H-1,2,3-triazol-4-yl)pyridine.
;
_journal_issue                   'Pt 2'
_journal_name_full
'Acta crystallographica Section B, Structural science, crystal engineering and materials'
_journal_page_first              379
_journal_page_last               389
_journal_paper_doi               10.1107/S2052520614001152
_journal_volume                  70
_journal_year                    2014
_chemical_formula_moiety         'C14 H9 F3 N4'
_chemical_formula_sum            'C14 H9 F3 N4'
_chemical_formula_weight         290.25
_chemical_name_common
;
'2-(1-(4-(trifluoromethyl)phenyl)-1H-1,2,3-triazol-4-yl)pyridine'
;
_space_group_IT_number           2
_space_group_name_Hall           '-P 1'
_space_group_name_H-M_alt        'P -1'
_symmetry_cell_setting           triclinic
_symmetry_space_group_name_Hall  '-P 1'
_symmetry_space_group_name_H-M   'P -1'
_atom_sites_solution_hydrogens   geom
_atom_sites_solution_primary     direct
_atom_sites_solution_secondary   difmap
_audit_creation_method           SHELXL-97
_cell_angle_alpha                103.045(2)
_cell_angle_beta                 98.768(2)
_cell_angle_gamma                92.290(2)
_cell_formula_units_Z            2
_cell_length_a                   5.74600(10)
_cell_length_b                   7.2076(2)
_cell_length_c                   15.2997(4)
_cell_measurement_reflns_used    9548
_cell_measurement_temperature    120(2)
_cell_measurement_theta_max      27.48
_cell_measurement_theta_min      2.91
_cell_volume                     608.25(3)
_computing_cell_refinement
'DENZO (Otwinowski & Minor, 1997) & COLLECT (Hooft, R.W.W., 1998)'
_computing_data_collection       'COLLECT (Hooft, R.W.W., 1998)'
_computing_data_reduction
'DENZO (Otwinowski & Minor, 1997) & COLLECT (Hooft, R.W.W., 1998)'
_computing_molecular_graphics
'OLEX2 (Dolomanov, Bourhis, Gildea, Howard & Puschmann, 2009)'
_computing_publication_material  'WINGX (Farrugia, 1998)'
_computing_structure_refinement  'SHELXL-97 (Sheldrick, 1997)'
_computing_structure_solution    'SUPERFLIP (Palatinus & Chapuis, 2007)'
_diffrn_ambient_temperature      120(2)
_diffrn_detector_area_resol_mean 9.091
_diffrn_measured_fraction_theta_full 0.996
_diffrn_measured_fraction_theta_max 0.996
_diffrn_measurement_device_type  'Bruker-Nonius CCD camera on \k-goniostat'
_diffrn_measurement_method       '\f & \w scans to fill the asymmetric unit'
_diffrn_radiation_monochromator  graphite
_diffrn_radiation_source         'Bruker Nonius FR591 Rotating Anode'
_diffrn_radiation_type           MoK\a
_diffrn_radiation_wavelength     0.71073
_diffrn_reflns_av_R_equivalents  0.0351
_diffrn_reflns_av_sigmaI/netI    0.0273
_diffrn_reflns_limit_h_max       7
_diffrn_reflns_limit_h_min       -7
_diffrn_reflns_limit_k_max       9
_diffrn_reflns_limit_k_min       -9
_diffrn_reflns_limit_l_max       19
_diffrn_reflns_limit_l_min       -19
_diffrn_reflns_number            14232
_diffrn_reflns_theta_full        27.48
_diffrn_reflns_theta_max         27.48
_diffrn_reflns_theta_min         2.91
_diffrn_standards_number         0
_exptl_absorpt_coefficient_mu    0.131
_exptl_absorpt_correction_T_max  0.9767
_exptl_absorpt_correction_T_min  0.9253
_exptl_absorpt_correction_type   multi-scan
_exptl_absorpt_process_details   'SADABS 2007/2 (Sheldrick, G.M., 2007)'
_exptl_crystal_colour            colourless
_exptl_crystal_density_diffrn    1.585
_exptl_crystal_density_method    'not measured'
_exptl_crystal_description       block
_exptl_crystal_F_000             296
_exptl_crystal_size_max          0.60
_exptl_crystal_size_mid          0.20
_exptl_crystal_size_min          0.18
_refine_diff_density_max         0.374
_refine_diff_density_min         -0.298
_refine_ls_extinction_coef       0.040(9)
_refine_ls_extinction_expression Fc^*^=kFc[1+0.001xFc^2^\l^3^/sin(2\q)]^-1/4^
_refine_ls_extinction_method     SHELXL
_refine_ls_goodness_of_fit_ref   1.028
_refine_ls_hydrogen_treatment    constr
_refine_ls_matrix_type           full
_refine_ls_number_parameters     191
_refine_ls_number_reflns         2785
_refine_ls_number_restraints     0
_refine_ls_restrained_S_all      1.028
_refine_ls_R_factor_all          0.0459
_refine_ls_R_factor_gt           0.0398
_refine_ls_shift/su_max          0.000
_refine_ls_shift/su_mean         0.000
_refine_ls_structure_factor_coef Fsqd
_refine_ls_weighting_details
'calc w=1/[\s^2^(Fo^2^)+(0.0577P)^2^+0.2868P] where P=(Fo^2^+2Fc^2^)/3'
_refine_ls_weighting_scheme      calc
_refine_ls_wR_factor_gt          0.1046
_refine_ls_wR_factor_ref         0.1092
_reflns_number_gt                2436
_reflns_number_total             2785
_reflns_threshold_expression     >2\s(I)
_cod_data_source_file            eb5029sup1.cif
_cod_data_source_block           L6
_cod_database_code               2311638
_shelx_res_file
;
TITL 2011src0201a
CELL  0.71073   5.7460   7.2076  15.2997  103.045   98.768   92.290
ZERR     2.00   0.0001   0.0002   0.0004    0.002    0.002    0.002
LATT   1
SFAC  C    H    N    F
UNIT  28   18   8    6
MERG   2
OMIT    -3.00  55.00
OMIT     0   2   0
OMIT    -1   1   1
SHEL    7 0.77
OMIT    -1  -1   1
FMAP   2
PLAN    5
SIZE     0.18   0.20   0.60
ACTA
BOND   $H
L.S.  20
TEMP  -153.00
WGHT    0.057700    0.286800
EXTI    0.039573
FVAR       0.48896
F1    4    0.312770    0.433406    0.057239    11.00000    0.06115    0.02968 =
         0.02255    0.00804    0.00192    0.02154
F2    4    0.526784    0.212832    0.003290    11.00000    0.03243    0.04297 =
         0.01631    0.00868    0.00829    0.00862
F3    4    0.193975    0.138511    0.038057    11.00000    0.03034    0.04835 =
         0.02256    0.00875   -0.00586   -0.01400
N4    3    0.702719    0.166440    0.681997    11.00000    0.01643    0.02014 =
         0.01824    0.00627    0.00317    0.00160
N2    3    1.047550    0.278252    0.447020    11.00000    0.01468    0.02540 =
         0.01615    0.00533    0.00177    0.00108
N1    3    0.807765    0.252169    0.424781    11.00000    0.01347    0.01876 =
         0.01437    0.00431    0.00240    0.00029
N3    3    1.101793    0.272287    0.532224    11.00000    0.01630    0.02486 =
         0.01644    0.00628    0.00310    0.00226
C14   1    0.705415    0.161962    0.769296    11.00000    0.01764    0.02057 =
         0.02006    0.00739    0.00584    0.00330
AFIX  43
H16   2    0.565225    0.114590    0.785386    11.00000   -1.20000
AFIX   0
C5    1    0.383526    0.336792    0.232476    11.00000    0.01490    0.01792 =
         0.01857    0.00568    0.00215    0.00154
AFIX  43
H5    2    0.235214    0.388264    0.221328    11.00000   -1.20000
AFIX   0
C6    1    0.482340    0.332759    0.320661    11.00000    0.01710    0.01791 =
         0.01615    0.00348    0.00562    0.00050
AFIX  43
H6    2    0.402746    0.380850    0.370155    11.00000   -1.20000
AFIX   0
C1    1    0.699901    0.257058    0.335218    11.00000    0.01562    0.01578 =
         0.01423    0.00447    0.00201   -0.00185
C4    1    0.501578    0.265428    0.160238    11.00000    0.01831    0.01426 =
         0.01495    0.00362    0.00197   -0.00186
C9    1    0.898825    0.241620    0.565473    11.00000    0.01547    0.01570 =
         0.01674    0.00341    0.00361    0.00117
C10   1    0.904228    0.232268    0.660609    11.00000    0.01593    0.01484 =
         0.01574    0.00410    0.00309    0.00273
C11   1    1.109542    0.293546    0.724473    11.00000    0.01628    0.01907 =
         0.01927    0.00656    0.00215   -0.00007
AFIX  43
H13   2    1.249091    0.337190    0.706580    11.00000   -1.20000
AFIX   0
C8    1    0.709342    0.229095    0.497088    11.00000    0.01565    0.01932 =
         0.01527    0.00579    0.00401    0.00015
AFIX  43
H8    2    0.546515    0.208874    0.499877    11.00000   -1.20000
AFIX   0
C13   1    0.899244    0.221887    0.837640    11.00000    0.02367    0.01911 =
         0.01598    0.00569    0.00443    0.00524
AFIX  43
H15   2    0.891075    0.216887    0.898625    11.00000   -1.20000
AFIX   0
C12   1    1.105785    0.289460    0.814459    11.00000    0.02102    0.01908 =
         0.01677    0.00343   -0.00123    0.00155
AFIX  43
H14   2    1.242042    0.332116    0.859466    11.00000   -1.20000
AFIX   0
C7    1    0.385694    0.263737    0.065685    11.00000    0.02290    0.01855 =
         0.01631    0.00442    0.00311    0.00193
C2    1    0.820139    0.187514    0.263715    11.00000    0.01540    0.01704 =
         0.01757    0.00422    0.00388    0.00106
AFIX  43
H2    2    0.969404    0.137603    0.275030    11.00000   -1.20000
AFIX   0
C3    1    0.720355    0.191636    0.175793    11.00000    0.01864    0.01691 =
         0.01570    0.00215    0.00514    0.00007
AFIX  43
H3    2    0.800808    0.144380    0.126451    11.00000   -1.20000
HKLF    4
REM  2011src0201a
REM R1 =  0.0398 for   2436 Fo > 4sig(Fo)  and  0.0459 for all   2785 data
REM    191 parameters refined using      0 restraints
END
WGHT      0.0502      0.3135
REM Highest difference peak  0.374,  deepest hole -0.298,  1-sigma level  0.050
Q1    1   0.1759  0.3628  0.0674  11.00000  0.05    0.37
Q2    1   0.8046  0.2405  0.5391  11.00000  0.05    0.30
Q3    1   0.4599  0.2774  0.1199  11.00000  0.05    0.30
Q4    1   0.1313  0.2520  0.0564  11.00000  0.05    0.28
Q5    1   0.5934  0.2265  0.1623  11.00000  0.05    0.25
;
loop_
_symmetry_equiv_pos_as_xyz
'x, y, z'
'-x, -y, -z'
loop_
_atom_site_type_symbol
_atom_site_label
_atom_site_fract_x
_atom_site_fract_y
_atom_site_fract_z
_atom_site_U_iso_or_equiv
_atom_site_adp_type
_atom_site_calc_flag
_atom_site_refinement_flags
_atom_site_occupancy
_atom_site_symmetry_multiplicity
F F1 0.3128(2) 0.43341(14) 0.05724(6) 0.0375(3) Uani d . 1 1
F F2 0.52678(16) 0.21283(14) 0.00329(6) 0.0297(2) Uani d . 1 1
F F3 0.19398(17) 0.13851(15) 0.03806(6) 0.0353(3) Uani d . 1 1
N N4 0.7027(2) 0.16644(16) 0.68200(8) 0.0179(3) Uani d . 1 1
N N2 1.04755(19) 0.27825(17) 0.44702(8) 0.0188(3) Uani d . 1 1
N N1 0.80777(19) 0.25217(16) 0.42478(7) 0.0155(2) Uani d . 1 1
N N3 1.1018(2) 0.27229(17) 0.53222(8) 0.0189(3) Uani d . 1 1
C C14 0.7054(2) 0.16196(19) 0.76930(9) 0.0187(3) Uani d . 1 1
H H16 0.5652 0.1146 0.7854 0.022 Uiso calc R 1 1
C C5 0.3835(2) 0.33679(18) 0.23248(9) 0.0170(3) Uani d . 1 1
H H5 0.2352 0.3883 0.2213 0.020 Uiso calc R 1 1
C C6 0.4823(2) 0.33276(18) 0.32066(9) 0.0169(3) Uani d . 1 1
H H6 0.4027 0.3808 0.3702 0.020 Uiso calc R 1 1
C C1 0.6999(2) 0.25706(18) 0.33522(8) 0.0152(3) Uani d . 1 1
C C4 0.5016(2) 0.26543(18) 0.16024(9) 0.0160(3) Uani d . 1 1
C C9 0.8988(2) 0.24162(18) 0.56547(9) 0.0159(3) Uani d . 1 1
C C10 0.9042(2) 0.23227(18) 0.66061(9) 0.0153(3) Uani d . 1 1
C C11 1.1095(2) 0.29355(19) 0.72447(9) 0.0180(3) Uani d . 1 1
H H13 1.2491 0.3372 0.7066 0.022 Uiso calc R 1 1
C C8 0.7093(2) 0.22909(18) 0.49709(9) 0.0163(3) Uani d . 1 1
H H8 0.5465 0.2089 0.4999 0.020 Uiso calc R 1 1
C C13 0.8992(2) 0.22189(19) 0.83764(9) 0.0191(3) Uani d . 1 1
H H15 0.8911 0.2169 0.8986 0.023 Uiso calc R 1 1
C C12 1.1058(2) 0.28946(19) 0.81446(9) 0.0195(3) Uani d . 1 1
H H14 1.2420 0.3321 0.8595 0.023 Uiso calc R 1 1
C C7 0.3857(2) 0.26374(19) 0.06569(9) 0.0192(3) Uani d . 1 1
C C2 0.8201(2) 0.18751(18) 0.26371(9) 0.0165(3) Uani d . 1 1
H H2 0.9694 0.1376 0.2750 0.020 Uiso calc R 1 1
C C3 0.7204(2) 0.19164(18) 0.17579(9) 0.0171(3) Uani d . 1 1
H H3 0.8008 0.1444 0.1265 0.021 Uiso calc R 1 1
loop_
_atom_site_aniso_label
_atom_site_aniso_U_11
_atom_site_aniso_U_22
_atom_site_aniso_U_33
_atom_site_aniso_U_12
_atom_site_aniso_U_13
_atom_site_aniso_U_23
F1 0.0611(7) 0.0297(5) 0.0225(5) 0.0215(5) 0.0019(4) 0.0080(4)
F2 0.0324(5) 0.0430(5) 0.0163(4) 0.0086(4) 0.0083(4) 0.0087(4)
F3 0.0303(5) 0.0483(6) 0.0226(5) -0.0140(4) -0.0059(4) 0.0087(4)
N4 0.0164(5) 0.0201(5) 0.0182(6) 0.0016(4) 0.0032(4) 0.0063(4)
N2 0.0147(5) 0.0254(6) 0.0161(5) 0.0011(4) 0.0018(4) 0.0053(4)
N1 0.0135(5) 0.0188(5) 0.0144(5) 0.0003(4) 0.0024(4) 0.0043(4)
N3 0.0163(5) 0.0249(6) 0.0164(6) 0.0023(4) 0.0031(4) 0.0063(4)
C14 0.0176(6) 0.0206(6) 0.0201(7) 0.0033(5) 0.0058(5) 0.0074(5)
C5 0.0149(6) 0.0179(6) 0.0186(6) 0.0015(5) 0.0022(5) 0.0057(5)
C6 0.0171(6) 0.0179(6) 0.0161(6) 0.0005(5) 0.0056(5) 0.0035(5)
C1 0.0156(6) 0.0158(6) 0.0142(6) -0.0019(5) 0.0020(5) 0.0045(5)
C4 0.0183(6) 0.0143(6) 0.0149(6) -0.0019(5) 0.0020(5) 0.0036(5)
C9 0.0155(6) 0.0157(6) 0.0167(6) 0.0012(5) 0.0036(5) 0.0034(5)
C10 0.0159(6) 0.0148(6) 0.0157(6) 0.0027(5) 0.0031(5) 0.0041(5)
C11 0.0163(6) 0.0191(6) 0.0193(7) -0.0001(5) 0.0022(5) 0.0066(5)
C8 0.0156(6) 0.0193(6) 0.0153(6) 0.0001(5) 0.0040(5) 0.0058(5)
C13 0.0237(7) 0.0191(6) 0.0160(6) 0.0052(5) 0.0044(5) 0.0057(5)
C12 0.0210(7) 0.0191(6) 0.0168(6) 0.0015(5) -0.0012(5) 0.0034(5)
C7 0.0229(7) 0.0185(6) 0.0163(6) 0.0019(5) 0.0031(5) 0.0044(5)
C2 0.0154(6) 0.0170(6) 0.0176(6) 0.0011(5) 0.0039(5) 0.0042(5)
C3 0.0186(6) 0.0169(6) 0.0157(6) 0.0001(5) 0.0051(5) 0.0022(5)
loop_
_atom_type_symbol
_atom_type_description
_atom_type_scat_dispersion_real
_atom_type_scat_dispersion_imag
_atom_type_scat_source
C C 0.0033 0.0016 'International Tables Vol C Tables 4.2.6.8 and 6.1.1.4'
H H 0.0000 0.0000 'International Tables Vol C Tables 4.2.6.8 and 6.1.1.4'
N N 0.0061 0.0033 'International Tables Vol C Tables 4.2.6.8 and 6.1.1.4'
F F 0.0171 0.0103 'International Tables Vol C Tables 4.2.6.8 and 6.1.1.4'
loop_
_geom_angle_atom_site_label_1
_geom_angle_atom_site_label_2
_geom_angle_atom_site_label_3
_geom_angle
C14 N4 C10 116.77(12)
N3 N2 N1 107.11(10)
C8 N1 N2 110.86(11)
C8 N1 C1 130.30(11)
N2 N1 C1 118.82(10)
N2 N3 C9 109.18(11)
N4 C14 C13 124.35(13)
N4 C14 H16 117.8
C13 C14 H16 117.8
C6 C5 C4 120.15(12)
C6 C5 H5 119.9
C4 C5 H5 119.9
C5 C6 C1 118.82(12)
C5 C6 H6 120.6
C1 C6 H6 120.6
C6 C1 C2 121.43(12)
C6 C1 N1 120.42(11)
C2 C1 N1 118.14(11)
C3 C4 C5 120.49(12)
C3 C4 C7 120.62(12)
C5 C4 C7 118.86(12)
N3 C9 C8 108.57(11)
N3 C9 C10 121.56(12)
C8 C9 C10 129.85(12)
N4 C10 C11 123.07(12)
N4 C10 C9 116.62(11)
C11 C10 C9 120.30(12)
C12 C11 C10 118.78(12)
C12 C11 H13 120.6
C10 C11 H13 120.6
N1 C8 C9 104.27(11)
N1 C8 H8 127.9
C9 C8 H8 127.9
C14 C13 C12 118.17(12)
C14 C13 H15 120.9
C12 C13 H15 120.9
C11 C12 C13 118.86(12)
C11 C12 H14 120.6
C13 C12 H14 120.6
F1 C7 F2 106.28(11)
F1 C7 F3 106.38(12)
F2 C7 F3 105.48(11)
F1 C7 C4 112.90(11)
F2 C7 C4 113.35(11)
F3 C7 C4 111.87(11)
C3 C2 C1 119.48(12)
C3 C2 H2 120.3
C1 C2 H2 120.3
C2 C3 C4 119.63(12)
C2 C3 H3 120.2
C4 C3 H3 120.2
loop_
_geom_bond_atom_site_label_1
_geom_bond_atom_site_label_2
_geom_bond_distance
F1 C7 1.3355(16)
F2 C7 1.3434(16)
F3 C7 1.3466(16)
N4 C14 1.3410(17)
N4 C10 1.3471(17)
N2 N3 1.3042(16)
N2 N1 1.3627(15)
N1 C8 1.3556(16)
N1 C1 1.4240(16)
N3 C9 1.3707(17)
C14 C13 1.387(2)
C14 H16 0.9500
C5 C6 1.3889(18)
C5 C4 1.3950(18)
C5 H5 0.9500
C6 C1 1.3909(18)
C6 H6 0.9500
C1 C2 1.3914(18)
C4 C3 1.3925(19)
C4 C7 1.4947(18)
C9 C8 1.3749(18)
C9 C10 1.4679(18)
C10 C11 1.3977(18)
C11 C12 1.3871(19)
C11 H13 0.9500
C8 H8 0.9500
C13 C12 1.390(2)
C13 H15 0.9500
C12 H14 0.9500
C2 C3 1.3869(18)
C2 H2 0.9500
C3 H3 0.9500
loop_
_refln_index_h
_refln_index_k
_refln_index_l
_refln_F_squared_meas
-1 0 0 4.81
-1 0 0 4.86
-1 0 0 5.08
-1 0 0 4.12
-1 0 0 4.48
1 0 0 4.71
1 0 0 3.60
1 0 0 4.12
-2 0 0 50.37
-2 0 0 52.47
-2 0 0 54.98
-2 0 0 53.44
-2 0 0 55.98
2 0 0 53.88
2 0 0 54.79
2 0 0 55.93
2 0 0 54.73
2 0 0 55.59
2 0 0 52.23
-3 0 0 43.82
-3 0 0 42.67
-3 0 0 46.61
-3 0 0 47.66
3 0 0 44.11
3 0 0 45.63
3 0 0 44.55
3 0 0 44.34
3 0 0 51.44
3 0 0 41.79
-4 0 0 -0.08
-4 0 0 0.29
-4 0 0 0.70
-4 0 0 0.33
4 0 0 0.33
4 0 0 0.05
4 0 0 0.21
4 0 0 0.04
4 0 0 0.12
-5 0 0 155.29
-5 0 0 153.04
-5 0 0 150.91
-5 0 0 155.28
5 0 0 152.49
5 0 0 154.39
5 0 0 153.82
5 0 0 155.81
5 0 0 154.92
-6 0 0 0.04
-6 0 0 0.43
-6 0 0 0.37
-6 0 0 -0.31
6 0 0 0.16
6 0 0 0.12
6 0 0 0.29
6 0 0 0.24
-7 0 0 0.20
-7 0 0 0.68
7 -1 0 2.90
-7 1 0 3.44
-7 1 0 2.78
6 -1 0 61.62
6 -1 0 52.78
6 -1 0 56.66
6 -1 0 59.36
-6 1 0 55.14
-6 1 0 59.43
-6 1 0 61.95
-6 1 0 53.35
5 -1 0 1.73
5 -1 0 1.59
5 -1 0 1.92
5 -1 0 2.08
5 -1 0 1.81
-5 1 0 1.82
-5 1 0 1.43
-5 1 0 1.76
4 -1 0 -0.10
4 -1 0 -0.07
4 -1 0 -0.03
4 -1 0 0.21
4 -1 0 0.31
-4 1 0 0.02
-4 1 0 0.26
-4 1 0 0.31
-4 1 0 0.15
-4 1 0 0.19
3 -1 0 65.14
3 -1 0 64.22
3 -1 0 67.28
3 -1 0 62.93
3 -1 0 65.13
-3 1 0 65.65
-3 1 0 66.22
-3 1 0 63.27
-3 1 0 66.09
-3 1 0 69.12
2 -1 0 8.70
2 -1 0 10.39
2 -1 0 9.11
2 -1 0 8.96
-2 1 0 9.00
-2 1 0 9.10
-2 1 0 9.33
-2 1 0 8.88
-2 1 0 9.35
1 -1 0 104.53
1 -1 0 104.97
1 -1 0 100.91
1 -1 0 100.99
1 -1 0 99.27
-1 1 0 100.44
-1 1 0 99.32
-1 1 0 101.44
-1 1 0 101.62
-1 1 0 100.03
-1 -1 0 327.32
-1 -1 0 326.54
-1 -1 0 325.18
1 1 0 329.54
1 1 0 332.00
1 1 0 321.39
-2 -1 0 65.28
-2 -1 0 63.48
-2 -1 0 60.15
-2 -1 0 64.38
-2 -1 0 64.10
2 1 0 65.24
2 1 0 61.93
2 1 0 61.56
2 1 0 59.99
-3 -1 0 235.26
-3 -1 0 230.18
-3 -1 0 234.39
-3 -1 0 241.52
-3 -1 0 237.64
3 1 0 245.93
3 1 0 240.53
3 1 0 239.93
3 1 0 244.62
3 1 0 241.91
-4 -1 0 31.09
-4 -1 0 29.97
-4 -1 0 30.89
-4 -1 0 30.47
4 1 0 28.42
4 1 0 29.34
4 1 0 28.43
4 1 0 30.55
4 1 0 30.84
-5 -1 0 7.02
-5 -1 0 7.27
-5 -1 0 7.32
-5 -1 0 7.57
5 1 0 6.28
5 1 0 7.30
5 1 0 7.13
-6 -1 0 41.50
-6 -1 0 39.70
-6 -1 0 40.08
-6 -1 0 43.83
6 1 0 39.06
6 1 0 40.96
-7 -1 0 19.26
-7 -1 0 19.38
7 -2 0 2.87
-7 2 0 2.22
-7 2 0 2.02
6 -2 0 49.07
6 -2 0 51.50
6 -2 0 49.49
6 -2 0 47.51
-6 2 0 47.03
-6 2 0 53.42
-6 2 0 51.53
5 -2 0 71.11
5 -2 0 70.23
5 -2 0 66.32
5 -2 0 72.28
5 -2 0 72.03
5 -2 0 69.23
-5 2 0 71.21
-5 2 0 72.47
-5 2 0 69.77
-5 2 0 70.40
-5 2 0 67.06
4 -2 0 25.54
4 -2 0 25.81
4 -2 0 24.05
4 -2 0 28.02
4 -2 0 25.89
-4 2 0 26.45
-4 2 0 24.54
-4 2 0 27.03
-4 2 0 26.15
-4 2 0 26.28
3 -2 0 24.39
3 -2 0 25.64
3 -2 0 22.44
3 -2 0 24.48
3 -2 0 22.44
-3 2 0 24.97
-3 2 0 22.63
-3 2 0 25.69
-3 2 0 25.57
-3 2 0 23.37
2 -2 0 1.55
2 -2 0 1.21
2 -2 0 1.52
2 -2 0 1.85
-2 2 0 1.62
-2 2 0 1.30
-2 2 0 1.61
-2 2 0 1.76
-2 2 0 1.31
1 -2 0 907.72
1 -2 0 907.98
1 -2 0 906.42
-1 2 0 888.91
-1 2 0 892.78
0 2 0 146.50
-1 -2 0 202.67
-1 -2 0 201.06
-1 -2 0 200.20
1 2 0 185.81
1 2 0 195.02
1 2 0 191.15
-2 -2 0 116.50
-2 -2 0 112.83
-2 -2 0 116.03
-2 -2 0 110.37
2 2 0 111.39
2 2 0 111.62
2 2 0 112.22
-3 -2 0 143.47
-3 -2 0 155.04
-3 -2 0 151.44
-3 -2 0 147.73
-3 -2 0 144.91
3 2 0 150.72
3 2 0 158.49
3 2 0 151.28
-4 -2 0 72.70
-4 -2 0 69.84
-4 -2 0 72.54
-4 -2 0 72.23
-4 -2 0 74.13
4 2 0 69.11
4 2 0 70.89
4 2 0 72.24
4 2 0 68.74
-5 -2 0 123.15
-5 -2 0 122.56
-5 -2 0 128.90
-5 -2 0 133.22
5 2 0 132.52
5 2 0 127.24
5 2 0 125.02
-6 -2 0 5.93
-6 -2 0 7.95
-6 -2 0 6.16
6 2 0 5.86
-7 -2 0 -0.20
-7 -2 0 0.21
7 -3 0 0.03
-7 3 0 0.56
-7 3 0 0.14
6 -3 0 26.91
6 -3 0 26.24
6 -3 0 25.47
-6 3 0 28.75
-6 3 0 30.69
-6 3 0 27.41
5 -3 0 4.94
5 -3 0 4.57
5 -3 0 5.88
5 -3 0 5.35
5 -3 0 4.41
-5 3 0 5.54
-5 3 0 5.38
-5 3 0 6.27
-5 3 0 4.74
-5 3 0 5.70
4 -3 0 23.16
4 -3 0 23.95
4 -3 0 22.65
4 -3 0 27.05
4 -3 0 24.66
-4 3 0 25.11
-4 3 0 23.99
-4 3 0 25.07
-4 3 0 24.28
-4 3 0 23.77
3 -3 0 74.69
3 -3 0 72.48
3 -3 0 71.18
3 -3 0 69.71
3 -3 0 72.75
-3 3 0 70.12
-3 3 0 76.63
-3 3 0 77.89
-3 3 0 71.87
-3 3 0 65.19
2 -3 0 154.76
2 -3 0 142.31
2 -3 0 142.41
2 -3 0 133.96
2 -3 0 145.29
-2 3 0 139.56
-2 3 0 142.92
-2 3 0 141.58
-2 3 0 139.39
-2 3 0 139.46
1 -3 0 311.53
1 -3 0 308.99
1 -3 0 305.46
1 -3 0 322.59
-1 3 0 308.55
-1 3 0 306.14
-1 3 0 318.72
-1 3 0 308.90
-1 3 0 312.95
-1 3 0 312.64
0 -3 0 102.05
0 -3 0 103.44
0 -3 0 103.56
0 3 0 100.38
0 3 0 99.93
0 3 0 98.58
0 3 0 105.44
-1 -3 0 227.09
-1 -3 0 234.60
-1 -3 0 247.32
1 3 0 243.39
1 3 0 249.58
1 3 0 245.93
-2 -3 0 196.73
-2 -3 0 202.80
-2 -3 0 205.18
-2 -3 0 211.42
2 3 0 207.11
2 3 0 202.60
2 3 0 196.59
-3 -3 0 46.06
-3 -3 0 47.38
-3 -3 0 49.99
-3 -3 0 48.18
-3 -3 0 47.77
3 3 0 47.60
3 3 0 48.46
3 3 0 51.85
-4 -3 0 12.81
-4 -3 0 11.82
-4 -3 0 13.55
-4 -3 0 10.87
-4 -3 0 12.15
4 3 0 10.51
4 3 0 12.44
4 3 0 14.19
4 3 0 12.13
-5 -3 0 0.28
-5 -3 0 0.77
-5 -3 0 0.72
-5 -3 0 0.46
-5 -3 0 0.96
5 3 0 1.07
-6 -3 0 1.27
-6 -3 0 0.99
6 -4 0 43.44
-6 4 0 40.02
-6 4 0 45.32
-6 4 0 41.30
5 -4 0 19.80
5 -4 0 17.75
5 -4 0 18.04
5 -4 0 20.93
-5 4 0 17.83
-5 4 0 17.23
-5 4 0 18.13
-5 4 0 19.92
4 -4 0 1.59
4 -4 0 1.48
4 -4 0 1.70
4 -4 0 1.91
4 -4 0 1.49
-4 4 0 1.95
-4 4 0 0.95
-4 4 0 1.77
-4 4 0 1.41
-4 4 0 1.28
3 -4 0 16.77
3 -4 0 14.00
3 -4 0 13.50
3 -4 0 12.45
3 -4 0 13.02
-3 4 0 11.42
-3 4 0 13.98
-3 4 0 14.28
-3 4 0 12.79
-3 4 0 13.45
2 -4 0 148.25
2 -4 0 138.77
2 -4 0 138.25
2 -4 0 143.52
2 -4 0 134.38
-2 4 0 138.74
-2 4 0 135.46
-2 4 0 133.96
-2 4 0 134.74
-2 4 0 131.26
-2 4 0 138.13
1 -4 0 376.86
1 -4 0 353.13
1 -4 0 361.57
-1 4 0 360.46
-1 4 0 351.62
-1 4 0 335.20
0 -4 0 266.54
0 -4 0 274.86
0 -4 0 256.51
0 4 0 282.33
0 4 0 248.91
0 4 0 285.63
0 4 0 266.63
-1 -4 0 35.58
-1 -4 0 36.99
-1 -4 0 35.91
-1 -4 0 36.95
1 4 0 38.88
1 4 0 42.06
1 4 0 38.31
-2 -4 0 4.68
-2 -4 0 5.29
-2 -4 0 6.46
-2 -4 0 5.79
2 4 0 6.11
2 4 0 6.64
2 4 0 6.65
-3 -4 0 57.33
-3 -4 0 59.14
-3 -4 0 64.51
3 4 0 51.79
3 4 0 59.83
3 4 0 61.89
-4 -4 0 37.03
-4 -4 0 40.52
-4 -4 0 38.48
-4 -4 0 40.58
4 4 0 39.62
4 4 0 40.05
4 4 0 36.79
-5 -4 0 67.79
-5 -4 0 75.03
-5 -4 0 70.07
-5 -4 0 70.36
5 4 0 70.41
-6 -4 0 1.37
-6 -4 0 1.77
6 -5 0 -0.34
-6 5 0 0.99
-6 5 0 0.59
-6 5 0 -0.18
5 -5 0 3.72
5 -5 0 5.74
5 -5 0 5.13
-5 5 0 6.01
-5 5 0 5.40
-5 5 0 4.99
-5 5 0 6.07
4 -5 0 59.24
4 -5 0 59.09
4 -5 0 62.74
4 -5 0 63.13
4 -5 0 59.66
-4 5 0 63.34
-4 5 0 58.64
-4 5 0 61.80
-4 5 0 61.41
3 -5 0 0.51
3 -5 0 -0.26
3 -5 0 0.14
3 -5 0 0.26
3 -5 0 0.33
-3 5 0 0.26
-3 5 0 0.20
-3 5 0 -0.06
-3 5 0 -0.20
2 -5 0 96.39
2 -5 0 106.22
2 -5 0 107.87
2 -5 0 102.65
-2 5 0 107.07
-2 5 0 106.87
-2 5 0 102.18
-2 5 0 100.35
-2 5 0 105.28
1 -5 0 26.47
1 -5 0 28.54
1 -5 0 27.39
-1 5 0 27.40
-1 5 0 26.24
-1 5 0 28.21
-1 5 0 27.38
-1 5 0 27.85
0 -5 0 6.26
0 -5 0 5.35
0 -5 0 4.77
0 5 0 5.33
0 5 0 5.48
0 5 0 5.52
0 5 0 6.12
-1 -5 0 1.60
-1 -5 0 1.56
-1 -5 0 0.92
-1 -5 0 1.82
1 5 0 2.28
1 5 0 1.53
1 5 0 1.80
-2 -5 0 1.81
-2 -5 0 1.07
-2 -5 0 1.48
-2 -5 0 1.88
2 5 0 1.93
2 5 0 1.93
2 5 0 1.18
-3 -5 0 3.26
-3 -5 0 3.58
-3 -5 0 3.42
3 5 0 3.27
3 5 0 2.65
3 5 0 3.78
-4 -5 0 1.49
-4 -5 0 1.53
-4 -5 0 1.35
-4 -5 0 0.94
4 5 0 1.23
-5 -5 0 2.21
-5 -5 0 0.87
-5 -5 0 1.08
5 5 0 2.29
5 -6 0 2.41
-5 6 0 3.34
-5 6 0 2.71
4 -6 0 0.15
4 -6 0 -0.08
4 -6 0 0.47
-4 6 0 0.01
-4 6 0 0.57
-4 6 0 0.52
3 -6 0 23.90
3 -6 0 23.34
3 -6 0 24.73
-3 6 0 22.73
-3 6 0 20.05
2 -6 0 55.62
2 -6 0 52.44
2 -6 0 54.58
2 -6 0 55.87
-2 6 0 58.59
-2 6 0 54.06
-2 6 0 57.33
-2 6 0 52.85
1 -6 0 169.72
1 -6 0 186.76
1 -6 0 181.64
-1 6 0 183.53
-1 6 0 172.04
-1 6 0 184.14
-1 6 0 179.13
0 -6 0 26.85
0 -6 0 26.24
0 -6 0 24.42
0 6 0 26.57
0 6 0 25.92
0 6 0 25.40
0 6 0 25.44
0 6 0 25.81
-1 -6 0 30.39
-1 -6 0 26.10
-1 -6 0 32.99
1 6 0 32.80
1 6 0 32.53
1 6 0 29.91
1 6 0 29.41
-2 -6 0 13.16
-2 -6 0 11.57
-2 -6 0 12.17
2 6 0 11.52
2 6 0 12.29
-3 -6 0 24.87
-3 -6 0 22.20
-3 -6 0 22.19
3 6 0 23.50
3 6 0 21.55
-4 -6 0 14.52
-4 -6 0 15.45
-4 -6 0 17.59
4 6 0 16.26
-5 -6 0 8.06
-5 -6 0 6.86
-5 -6 0 8.05
5 6 0 6.51
5 -7 0 2.33
-5 7 0 1.20
-5 7 0 1.86
4 -7 0 -0.06
4 -7 0 -0.22
-4 7 0 0.09
-4 7 0 0.12
3 -7 0 21.79
3 -7 0 22.01
-3 7 0 22.56
-3 7 0 21.86
-3 7 0 23.22
2 -7 0 0.03
2 -7 0 0.04
-2 7 0 0.03
-2 7 0 0.61
-2 7 0 -0.19
-2 7 0 0.17
1 -7 0 7.26
1 -7 0 6.05
-1 7 0 6.20
-1 7 0 7.26
-1 7 0 7.09
-1 7 0 7.31
0 -7 0 11.19
0 -7 0 8.35
0 7 0 7.30
0 7 0 10.83
0 7 0 10.24
0 7 0 10.66
-1 -7 0 2.72
-1 -7 0 2.25
1 7 0 2.06
1 7 0 2.03
-2 -7 0 8.80
2 7 0 7.97
-3 -7 0 1.68
3 7 0 2.30
-4 -7 0 0.29
-4 -7 0 0.41
4 7 0 -0.43
4 -8 0 0.11
-4 8 0 0.85
-4 8 0 0.48
3 -8 0 10.44
3 -8 0 11.67
-3 8 0 12.92
-3 8 0 12.44
2 -8 0 44.85
2 -8 0 49.17
-2 8 0 45.54
-2 8 0 49.11
1 -8 0 13.52
1 -8 0 13.86
-1 8 0 13.95
-1 8 0 14.03
-1 8 0 13.92
0 -8 0 1.01
0 -8 0 0.75
0 8 0 0.71
0 8 0 0.59
0 8 0 0.45
-1 -8 0 0.60
-1 -8 0 0.57
1 8 0 0.68
1 8 0 0.48
-2 -8 0 23.19
2 8 0 25.37
2 8 0 24.63
-3 -8 0 29.64
1 -9 0 7.80
1 -9 0 5.50
-1 9 0 6.56
-1 9 0 6.60
0 -9 0 0.52
0 9 0 0.89
0 9 0 -0.63
1 9 -1 0.07
1 9 -1 -0.07
-1 -9 1 0.03
0 9 -1 2.54
0 9 -1 2.38
-1 9 -1 1.22
-1 9 -1 0.81
1 -9 1 1.86
1 -9 1 1.90
-2 9 -1 0.15
-2 9 -1 0.31
2 -9 1 1.18
2 -9 1 0.97
3 8 -1 0.80
-3 -8 1 -0.34
2 8 -1 52.63
2 8 -1 57.07
-2 -8 1 55.95
1 8 -1 0.16
1 8 -1 0.50
1 8 -1 -0.16
-1 -8 1 0.19
-1 -8 1 -0.13
0 8 -1 27.75
0 8 -1 25.43
0 8 -1 27.86
0 -8 1 27.10
0 -8 1 26.67
-1 8 -1 1.07
-1 8 -1 0.35
-1 8 -1 0.09
1 -8 1 0.52
1 -8 1 -0.03
-2 8 -1 2.80
-2 8 -1 3.54
2 -8 1 3.81
2 -8 1 2.63
-3 8 -1 18.88
-3 8 -1 17.43
3 -8 1 19.24
3 -8 1 20.28
-4 8 -1 1.10
-4 8 -1 0.62
4 -8 1 2.04
4 7 -1 6.82
-4 -7 1 4.99
-4 -7 1 6.53
3 7 -1 46.79
-3 -7 1 50.75
2 7 -1 18.22
2 7 -1 20.18
-2 -7 1 20.37
1 7 -1 8.60
1 7 -1 6.30
1 7 -1 6.59
-1 -7 1 6.85
-1 -7 1 6.79
0 7 -1 1.30
0 7 -1 1.33
0 7 -1 0.52
0 7 -1 1.33
0 7 -1 1.36
0 -7 1 1.09
0 -7 1 1.48
-1 7 -1 10.19
-1 7 -1 9.83
-1 7 -1 9.86
-1 7 -1 11.05
1 -7 1 10.97
1 -7 1 10.45
-2 7 -1 5.50
-2 7 -1 4.82
-2 7 -1 3.86
2 -7 1 3.32
2 -7 1 3.52
-3 7 -1 19.49
-3 7 -1 23.09
3 -7 1 22.52
3 -7 1 21.86
-4 7 -1 1.78
-4 7 -1 2.07
4 -7 1 2.36
4 -7 1 1.26
-5 7 -1 0.23
-5 7 -1 -0.24
5 -7 1 0.47
5 6 -1 1.39
-5 -6 1 1.83
-5 -6 1 2.80
-5 -6 1 2.37
4 6 -1 14.05
-4 -6 1 13.96
-4 -6 1 16.29
-4 -6 1 11.01
3 6 -1 25.21
3 6 -1 24.26
-3 -6 1 24.84
-3 -6 1 21.94
-3 -6 1 23.65
2 6 -1 112.05
2 6 -1 120.38
2 6 -1 120.34
-2 -6 1 114.74
-2 -6 1 117.19
1 6 -1 113.71
1 6 -1 114.28
1 6 -1 117.53
1 6 -1 112.03
-1 -6 1 113.05
-1 -6 1 117.67
-1 -6 1 106.34
0 6 -1 13.49
0 6 -1 12.60
0 6 -1 14.21
0 6 -1 12.85
0 6 -1 14.75
0 -6 1 15.52
0 -6 1 12.82
0 -6 1 13.77
-1 6 -1 11.48
-1 6 -1 10.78
-1 6 -1 11.40
-1 6 -1 11.71
-1 6 -1 12.13
1 -6 1 12.39
1 -6 1 11.82
1 -6 1 10.19
-2 6 -1 12.93
-2 6 -1 13.00
-2 6 -1 10.37
-2 6 -1 10.51
2 -6 1 11.90
2 -6 1 12.72
2 -6 1 13.45
2 -6 1 12.89
-3 6 -1 1.90
-3 6 -1 0.08
-3 6 -1 1.20
-3 6 -1 1.23
3 -6 1 1.86
3 -6 1 0.97
3 -6 1 1.31
-4 6 -1 0.37
-4 6 -1 0.11
-4 6 -1 0.20
-4 6 -1 -0.04
4 -6 1 -0.07
4 -6 1 -0.04
4 -6 1 -0.16
-5 6 -1 -0.05
-5 6 -1 0.77
5 -6 1 -0.42
5 5 -1 5.27
-5 -5 1 5.08
-5 -5 1 4.76
-5 -5 1 3.88
4 5 -1 51.77
-4 -5 1 53.01
-4 -5 1 49.07
-4 -5 1 50.05
-4 -5 1 48.90
3 5 -1 53.78
3 5 -1 54.43
3 5 -1 56.61
-3 -5 1 57.37
-3 -5 1 56.89
-3 -5 1 56.01
2 5 -1 34.47
2 5 -1 34.15
2 5 -1 33.14
-2 -5 1 35.53
-2 -5 1 33.96
-2 -5 1 34.47
1 5 -1 38.42
1 5 -1 40.33
1 5 -1 37.26
-1 -5 1 37.95
-1 -5 1 40.49
-1 -5 1 37.39
0 5 -1 16.66
0 5 -1 18.75
0 5 -1 19.14
0 5 -1 19.79
0 -5 1 18.37
0 -5 1 19.80
0 -5 1 18.01
-1 5 -1 4.80
-1 5 -1 4.73
-1 5 -1 5.00
-1 5 -1 4.73
-1 5 -1 4.94
-1 5 -1 4.22
1 -5 1 4.00
1 -5 1 5.05
1 -5 1 3.79
-2 5 -1 98.21
-2 5 -1 91.44
-2 5 -1 104.18
-2 5 -1 101.56
-2 5 -1 98.95
2 -5 1 95.28
2 -5 1 91.52
2 -5 1 99.07
2 -5 1 101.29
-3 5 -1 0.36
-3 5 -1 0.18
-3 5 -1 0.17
-3 5 -1 0.25
-3 5 -1 0.11
3 -5 1 0.14
3 -5 1 0.83
3 -5 1 0.16
3 -5 1 0.26
3 -5 1 0.24
-4 5 -1 13.92
-4 5 -1 12.45
-4 5 -1 14.71
-4 5 -1 12.15
4 -5 1 11.35
4 -5 1 13.65
4 -5 1 11.66
4 -5 1 13.44
4 -5 1 12.89
-5 5 -1 12.64
-5 5 -1 14.68
-5 5 -1 13.09
-5 5 -1 13.52
5 -5 1 10.62
5 -5 1 12.68
5 -5 1 12.54
-6 5 -1 15.51
-6 5 -1 20.92
-6 5 -1 18.96
6 -5 1 18.54
-6 -4 1 9.48
-6 -4 1 8.10
-6 -4 1 9.41
5 4 -1 0.41
-5 -4 1 0.26
-5 -4 1 0.19
-5 -4 1 0.46
4 4 -1 26.03
4 4 -1 26.49
4 4 -1 25.39
-4 -4 1 26.01
-4 -4 1 28.14
-4 -4 1 28.82
3 4 -1 47.26
3 4 -1 45.16
3 4 -1 42.95
-3 -4 1 42.07
-3 -4 1 43.26
-3 -4 1 42.16
2 4 -1 223.35
2 4 -1 235.69
2 4 -1 242.79
-2 -4 1 228.17
-2 -4 1 234.96
-2 -4 1 239.71
1 4 -1 347.12
1 4 -1 336.76
1 4 -1 347.21
-1 -4 1 321.29
-1 -4 1 308.00
-1 -4 1 333.82
-1 -4 1 349.56
0 4 -1 80.71
0 4 -1 75.21
0 4 -1 78.96
0 4 -1 76.06
0 -4 1 78.03
0 -4 1 78.19
0 -4 1 76.65
-1 4 -1 296.83
-1 4 -1 295.03
-1 4 -1 298.82
-1 4 -1 295.31
-1 4 -1 299.46
-1 4 -1 305.08
1 -4 1 306.23
1 -4 1 298.00
1 -4 1 305.87
1 -4 1 310.39
-2 4 -1 37.53
-2 4 -1 36.57
-2 4 -1 37.38
-2 4 -1 39.48
2 -4 1 40.32
2 -4 1 36.37
2 -4 1 39.56
2 -4 1 38.74
2 -4 1 41.22
-3 4 -1 0.38
-3 4 -1 0.27
-3 4 -1 0.36
-3 4 -1 0.13
-3 4 -1 0.71
3 -4 1 0.13
3 -4 1 -0.05
3 -4 1 0.22
3 -4 1 0.16
3 -4 1 -0.04
-4 4 -1 3.38
-4 4 -1 3.65
-4 4 -1 2.99
-4 4 -1 3.13
-4 4 -1 3.78
4 -4 1 2.22
4 -4 1 2.46
4 -4 1 2.87
4 -4 1 2.96
4 -4 1 3.74
-5 4 -1 0.50
-5 4 -1 0.40
-5 4 -1 0.06
-5 4 -1 0.77
5 -4 1 0.17
5 -4 1 1.10
5 -4 1 0.21
5 -4 1 0.22
-6 4 -1 0.27
-6 4 -1 0.09
-6 4 -1 -0.15
6 -4 1 0.01
-6 -3 1 1.43
-6 -3 1 1.01
5 3 -1 19.32
5 3 -1 20.48
-5 -3 1 20.73
-5 -3 1 20.10
-5 -3 1 20.46
-5 -3 1 20.51
4 3 -1 200.70
4 3 -1 196.52
4 3 -1 201.58
-4 -3 1 194.28
-4 -3 1 205.16
-4 -3 1 197.92
-4 -3 1 185.34
3 3 -1 4.26
3 3 -1 4.92
3 3 -1 3.63
-3 -3 1 3.51
-3 -3 1 3.54
-3 -3 1 3.96
-3 -3 1 4.02
2 3 -1 19.28
2 3 -1 19.39
2 3 -1 18.50
-2 -3 1 19.09
-2 -3 1 19.85
1 3 -1 32.74
1 3 -1 32.27
1 3 -1 31.05
-1 -3 1 31.62
-1 -3 1 33.40
-1 -3 1 31.18
-1 -3 1 30.67
0 3 -1 76.32
0 3 -1 77.04
0 3 -1 71.24
0 3 -1 73.72
0 3 -1 72.78
0 -3 1 72.17
0 -3 1 77.35
0 -3 1 70.72
-1 3 -1 219.62
-1 3 -1 221.91
-1 3 -1 218.50
-1 3 -1 235.64
-1 3 -1 237.73
1 -3 1 225.61
1 -3 1 233.77
1 -3 1 219.63
1 -3 1 226.00
1 -3 1 220.04
-2 3 -1 33.77
-2 3 -1 29.83
-2 3 -1 32.54
-2 3 -1 33.88
2 -3 1 29.52
2 -3 1 33.91
2 -3 1 34.82
2 -3 1 32.85
2 -3 1 32.08
-3 3 -1 20.95
-3 3 -1 21.75
-3 3 -1 19.82
-3 3 -1 19.55
-3 3 -1 20.07
3 -3 1 20.38
3 -3 1 22.75
3 -3 1 20.93
3 -3 1 21.73
3 -3 1 20.28
-4 3 -1 0.78
-4 3 -1 0.52
-4 3 -1 0.53
-4 3 -1 0.37
-4 3 -1 0.60
4 -3 1 0.47
4 -3 1 0.33
4 -3 1 0.76
4 -3 1 0.68
4 -3 1 0.38
-5 3 -1 2.06
-5 3 -1 0.84
-5 3 -1 1.59
-5 3 -1 2.12
-5 3 -1 2.14
5 -3 1 1.49
5 -3 1 1.43
5 -3 1 2.20
5 -3 1 1.62
5 -3 1 2.07
-6 3 -1 77.40
-6 3 -1 78.70
-6 3 -1 83.05
6 -3 1 83.13
6 -3 1 63.99
-7 3 -1 0.74
-7 3 -1 0.22
7 -3 1 0.21
-7 -2 1 0.42
-7 -2 1 0.55
6 2 -1 16.49
-6 -2 1 19.62
-6 -2 1 18.18
5 2 -1 2.99
5 2 -1 3.69
5 2 -1 2.90
5 2 -1 4.12
-5 -2 1 3.26
-5 -2 1 4.24
-5 -2 1 4.86
-5 -2 1 3.99
4 2 -1 4.78
4 2 -1 4.87
4 2 -1 4.37
4 2 -1 4.36
-4 -2 1 4.02
-4 -2 1 4.52
-4 -2 1 4.78
-4 -2 1 4.74
-4 -2 1 4.64
3 2 -1 25.25
3 2 -1 25.63
3 2 -1 24.16
-3 -2 1 23.95
-3 -2 1 23.50
-3 -2 1 23.64
-3 -2 1 26.56
2 2 -1 200.99
2 2 -1 202.13
2 2 -1 194.26
-2 -2 1 206.40
-2 -2 1 198.40
-2 -2 1 199.59
-2 -2 1 202.05
1 2 -1 953.01
1 2 -1 907.21
1 2 -1 1000.00
-1 -2 1 970.23
-1 -2 1 949.08
0 2 -1 30.75
0 2 -1 29.31
0 2 -1 28.40
0 2 -1 27.77
0 -2 1 30.22
0 -2 1 28.40
0 -2 1 32.16
-1 2 -1 630.86
-1 2 -1 660.34
-1 2 -1 615.30
-1 2 -1 653.81
1 -2 1 635.80
1 -2 1 653.25
1 -2 1 645.52
-2 2 -1 36.60
-2 2 -1 39.27
-2 2 -1 38.24
-2 2 -1 38.04
-2 2 -1 39.47
2 -2 1 37.78
2 -2 1 38.10
2 -2 1 38.52
2 -2 1 38.15
2 -2 1 39.44
-3 2 -1 28.39
-3 2 -1 34.79
-3 2 -1 29.90
-3 2 -1 31.07
-3 2 -1 32.23
3 -2 1 31.38
3 -2 1 34.18
3 -2 1 30.96
3 -2 1 31.96
-4 2 -1 10.19
-4 2 -1 9.92
-4 2 -1 9.12
-4 2 -1 8.99
-4 2 -1 8.43
4 -2 1 9.53
4 -2 1 8.82
4 -2 1 8.96
4 -2 1 8.64
-5 2 -1 0.26
-5 2 -1 0.68
-5 2 -1 0.80
-5 2 -1 0.31
-5 2 -1 0.66
5 -2 1 0.75
5 -2 1 0.30
5 -2 1 1.04
5 -2 1 0.83
5 -2 1 0.28
-6 2 -1 -0.10
-6 2 -1 0.33
-6 2 -1 0.68
-6 2 -1 0.69
6 -2 1 0.21
6 -2 1 0.45
6 -2 1 0.00
6 -2 1 0.21
-7 2 -1 0.24
-7 2 -1 0.14
7 -2 1 0.16
-7 -1 1 4.56
-7 -1 1 5.68
6 1 -1 4.90
6 1 -1 5.93
-6 -1 1 6.09
-6 -1 1 6.56
-6 -1 1 5.94
-6 -1 1 4.57
5 1 -1 182.95
5 1 -1 175.12
5 1 -1 186.83
5 1 -1 183.90
5 1 -1 190.16
-5 -1 1 184.84
-5 -1 1 186.87
-5 -1 1 180.67
-5 -1 1 189.52
4 1 -1 147.99
4 1 -1 145.51
4 1 -1 146.14
4 1 -1 155.47
4 1 -1 146.67
-4 -1 1 137.52
-4 -1 1 142.33
-4 -1 1 142.86
-4 -1 1 150.50
3 1 -1 1.15
3 1 -1 0.94
3 1 -1 1.16
3 1 -1 0.63
3 1 -1 1.04
-3 -1 1 0.87
-3 -1 1 0.85
-3 -1 1 0.70
-3 -1 1 0.51
-3 -1 1 1.34
2 1 -1 63.67
2 1 -1 65.05
2 1 -1 65.22
2 1 -1 59.37
-2 -1 1 62.27
-2 -1 1 69.15
-2 -1 1 64.84
-2 -1 1 65.08
-2 -1 1 61.30
1 1 -1 463.80
-1 -1 1 391.69
0 1 -1 33.39
0 1 -1 38.73
0 1 -1 38.56
0 -1 1 36.61
0 -1 1 39.54
0 -1 1 36.20
-1 1 -1 0.75
-1 1 -1 0.74
-1 1 -1 0.86
-1 1 -1 0.77
1 -1 1 0.42
1 -1 1 0.35
1 -1 1 0.55
1 -1 1 0.73
-2 1 -1 14.43
-2 1 -1 15.32
-2 1 -1 15.04
-2 1 -1 15.15
-2 1 -1 15.95
2 -1 1 14.51
2 -1 1 14.17
2 -1 1 15.88
2 -1 1 15.37
-3 1 -1 287.20
-3 1 -1 290.95
-3 1 -1 301.73
-3 1 -1 284.13
-3 1 -1 289.28
3 -1 1 290.81
3 -1 1 291.09
3 -1 1 293.40
3 -1 1 279.63
-4 1 -1 25.35
-4 1 -1 23.82
-4 1 -1 23.38
-4 1 -1 25.15
-4 1 -1 24.95
4 -1 1 25.32
4 -1 1 26.51
4 -1 1 23.77
4 -1 1 24.52
4 -1 1 24.44
-5 1 -1 25.06
-5 1 -1 22.90
-5 1 -1 23.09
-5 1 -1 22.53
5 -1 1 22.15
5 -1 1 23.17
5 -1 1 22.12
5 -1 1 24.03
5 -1 1 22.02
-6 1 -1 65.39
-6 1 -1 65.94
-6 1 -1 66.91
-6 1 -1 54.71
6 -1 1 62.42
6 -1 1 68.50
6 -1 1 61.88
6 -1 1 63.81
-7 1 -1 7.34
-7 1 -1 6.18
7 0 -1 1.34
-7 0 1 2.06
-7 0 1 1.41
6 0 -1 7.99
6 0 -1 8.76
6 0 -1 9.69
6 0 -1 11.03
-6 0 1 9.55
-6 0 1 9.57
-6 0 1 7.61
-6 0 1 10.22
5 0 -1 21.88
5 0 -1 24.00
5 0 -1 20.87
5 0 -1 20.66
5 0 -1 20.72
5 0 -1 18.84
-5 0 1 22.34
-5 0 1 23.10
-5 0 1 22.09
-5 0 1 22.18
4 0 -1 31.41
4 0 -1 33.91
4 0 -1 34.11
4 0 -1 32.72
4 0 -1 33.48
4 0 -1 36.48
-4 0 1 37.28
-4 0 1 31.99
-4 0 1 34.92
-4 0 1 30.54
3 0 -1 2.10
3 0 -1 1.55
3 0 -1 1.95
3 0 -1 1.77
3 0 -1 1.31
3 0 -1 2.41
-3 0 1 2.14
-3 0 1 2.02
-3 0 1 1.96
-3 0 1 2.13
2 0 -1 154.00
2 0 -1 151.98
2 0 -1 154.56
2 0 -1 158.16
2 0 -1 154.30
2 0 -1 153.62
-2 0 1 156.06
-2 0 1 151.10
-2 0 1 153.38
-2 0 1 148.81
1 0 -1 305.90
1 0 -1 296.10
1 0 -1 326.88
1 0 -1 314.98
-1 0 1 382.23
-1 0 1 392.23
-1 0 1 394.90
-1 0 -1 611.48
-1 0 -1 656.03
-2 0 -1 106.69
-2 0 -1 103.24
-2 0 -1 114.39
-2 0 -1 107.74
-2 0 -1 107.50
2 0 1 112.49
2 0 1 109.19
2 0 1 112.28
2 0 1 105.27
2 0 1 102.74
-3 0 -1 91.53
-3 0 -1 94.51
-3 0 -1 89.93
-3 0 -1 94.20
-3 0 -1 88.92
3 0 1 96.13
3 0 1 93.00
3 0 1 91.13
3 0 1 94.66
3 0 1 97.48
-4 0 -1 1.44
-4 0 -1 1.68
-4 0 -1 1.93
-4 0 -1 1.90
4 0 1 2.67
4 0 1 1.58
4 0 1 2.02
4 0 1 1.24
4 0 1 2.70
-5 0 -1 5.47
-5 0 -1 5.53
-5 0 -1 5.89
-5 0 -1 6.19
5 0 1 5.47
5 0 1 4.98
5 0 1 4.48
5 0 1 4.39
5 0 1 5.67
-6 0 -1 5.76
-6 0 -1 5.24
-6 0 -1 5.16
-6 0 -1 6.46
6 0 1 5.11
-7 0 -1 0.44
-7 0 -1 -0.11
7 -1 -1 0.23
-7 1 1 0.22
-7 1 1 -0.01
6 -1 -1 36.51
6 -1 -1 35.49
6 -1 -1 34.30
6 -1 -1 37.94
-6 1 1 36.91
-6 1 1 34.04
-6 1 1 36.09
-6 1 1 36.73
5 -1 -1 115.99
5 -1 -1 105.57
5 -1 -1 112.95
5 -1 -1 105.63
5 -1 -1 109.86
5 -1 -1 106.71
-5 1 1 104.38
-5 1 1 105.10
-5 1 1 106.98
-5 1 1 106.96
4 -1 -1 27.16
4 -1 -1 29.59
4 -1 -1 29.83
4 -1 -1 26.12
4 -1 -1 32.50
4 -1 -1 30.37
-4 1 1 29.85
-4 1 1 27.30
-4 1 1 25.61
-4 1 1 28.50
-4 1 1 29.29
3 -1 -1 196.42
3 -1 -1 205.10
3 -1 -1 207.46
3 -1 -1 211.74
3 -1 -1 210.07
3 -1 -1 211.34
-3 1 1 213.03
-3 1 1 202.62
-3 1 1 201.26
-3 1 1 205.46
-3 1 1 210.91
2 -1 -1 26.63
2 -1 -1 27.94
2 -1 -1 27.60
2 -1 -1 28.15
2 -1 -1 27.16
2 -1 -1 27.75
-2 1 1 26.85
-2 1 1 27.71
-2 1 1 27.75
-2 1 1 27.70
-2 1 1 27.23
1 -1 -1 202.05
0 -1 -1 12.87
0 -1 -1 13.82
0 1 1 12.99
0 1 1 13.09
-1 -1 -1 29.97
-1 -1 -1 30.42
-1 -1 -1 29.82
1 1 1 29.53
1 1 1 31.46
1 1 1 29.65
-2 -1 -1 8.06
-2 -1 -1 8.45
-2 -1 -1 8.62
-2 -1 -1 8.79
-2 -1 -1 9.29
2 1 1 8.43
2 1 1 8.35
2 1 1 8.13
2 1 1 8.38
-3 -1 -1 19.72
-3 -1 -1 21.02
-3 -1 -1 21.40
-3 -1 -1 20.95
-3 -1 -1 20.51
3 1 1 23.45
3 1 1 22.10
3 1 1 21.19
3 1 1 21.36
-4 -1 -1 36.71
-4 -1 -1 38.05
-4 -1 -1 36.77
-4 -1 -1 32.69
4 1 1 35.51
4 1 1 35.96
4 1 1 36.37
-5 -1 -1 2.22
-5 -1 -1 2.28
-5 -1 -1 1.67
-5 -1 -1 1.84
5 1 1 1.30
5 1 1 1.55
5 1 1 2.11
-6 -1 -1 20.53
-6 -1 -1 17.31
-6 -1 -1 17.52
-6 -1 -1 15.77
6 1 1 15.63
-7 -1 -1 1.23
-7 -1 -1 2.68
7 -2 -1 4.40
-7 2 1 5.35
-7 2 1 4.62
6 -2 -1 0.36
6 -2 -1 0.24
6 -2 -1 1.31
-6 2 1 0.25
-6 2 1 0.43
-6 2 1 0.90
5 -2 -1 48.34
5 -2 -1 52.25
5 -2 -1 50.26
5 -2 -1 48.74
5 -2 -1 49.11
5 -2 -1 48.45
-5 2 1 45.43
-5 2 1 47.09
-5 2 1 50.38
-5 2 1 50.79
-5 2 1 45.78
4 -2 -1 20.10
4 -2 -1 18.30
4 -2 -1 19.56
4 -2 -1 19.53
4 -2 -1 20.00
-4 2 1 19.43
-4 2 1 19.45
-4 2 1 21.19
-4 2 1 19.49
-4 2 1 18.72
3 -2 -1 27.95
3 -2 -1 27.72
3 -2 -1 26.53
3 -2 -1 25.16
3 -2 -1 27.05
-3 2 1 27.60
-3 2 1 27.23
-3 2 1 27.04
-3 2 1 28.80
-3 2 1 25.40
2 -2 -1 6.95
2 -2 -1 7.78
2 -2 -1 9.13
2 -2 -1 7.20
2 -2 -1 7.48
-2 2 1 7.43
-2 2 1 7.08
-2 2 1 7.05
-2 2 1 7.86
-2 2 1 6.81
1 -2 -1 118.85
1 -2 -1 132.06
1 -2 -1 118.63
1 -2 -1 118.51
1 -2 -1 126.72
-1 2 1 123.10
-1 2 1 124.07
-1 2 1 115.68
-1 2 1 124.50
-1 2 1 126.88
0 -2 -1 468.94
0 -2 -1 489.04
0 2 1 478.02
0 2 1 479.64
-1 -2 -1 11.41
-1 -2 -1 10.87
-1 -2 -1 12.10
1 2 1 12.74
1 2 1 12.52
1 2 1 12.03
-2 -2 -1 209.89
-2 -2 -1 223.00
-2 -2 -1 224.48
-2 -2 -1 211.20
2 2 1 235.72
2 2 1 214.29
2 2 1 221.35
-3 -2 -1 235.07
-3 -2 -1 235.62
-3 -2 -1 243.24
-3 -2 -1 249.33
-3 -2 -1 215.88
3 2 1 246.98
3 2 1 235.29
3 2 1 238.92
3 2 1 239.18
-4 -2 -1 7.63
-4 -2 -1 9.99
-4 -2 -1 8.04
-4 -2 -1 8.28
-4 -2 -1 8.07
4 2 1 8.79
4 2 1 9.17
4 2 1 9.12
4 2 1 9.62
-5 -2 -1 19.69
-5 -2 -1 20.69
-5 -2 -1 21.17
-5 -2 -1 21.17
5 2 1 20.70
5 2 1 16.94
5 2 1 18.59
-6 -2 -1 1.76
-6 -2 -1 0.40
-6 -2 -1 0.77
6 2 1 0.79
7 -3 -1 18.89
-7 3 1 16.27
-7 3 1 16.18
6 -3 -1 44.97
6 -3 -1 40.43
-6 3 1 45.47
-6 3 1 48.27
-6 3 1 45.46
5 -3 -1 34.84
5 -3 -1 34.80
5 -3 -1 38.75
5 -3 -1 38.74
5 -3 -1 40.75
5 -3 -1 39.55
-5 3 1 40.61
-5 3 1 40.59
-5 3 1 41.98
-5 3 1 33.83
-5 3 1 39.91
4 -3 -1 0.08
4 -3 -1 0.77
4 -3 -1 0.01
4 -3 -1 -0.03
4 -3 -1 -0.03
-4 3 1 0.44
-4 3 1 0.08
-4 3 1 0.08
-4 3 1 0.04
-4 3 1 0.07
3 -3 -1 52.05
3 -3 -1 51.63
3 -3 -1 48.78
3 -3 -1 47.63
3 -3 -1 52.37
-3 3 1 47.82
-3 3 1 47.52
-3 3 1 48.89
-3 3 1 48.35
-3 3 1 50.68
2 -3 -1 57.07
2 -3 -1 54.49
2 -3 -1 55.30
2 -3 -1 53.11
2 -3 -1 57.11
-2 3 1 54.37
-2 3 1 52.93
-2 3 1 49.42
-2 3 1 53.81
-2 3 1 54.70
-2 3 1 56.79
1 -3 -1 217.36
1 -3 -1 235.64
1 -3 -1 238.82
1 -3 -1 233.61
-1 3 1 237.71
-1 3 1 243.01
-1 3 1 232.09
-1 3 1 228.80
0 -3 -1 149.15
0 -3 -1 146.28
0 -3 -1 151.62
0 -3 -1 154.47
0 3 1 155.69
0 3 1 154.42
0 3 1 152.16
0 3 1 157.02
-1 -3 -1 34.94
-1 -3 -1 34.66
-1 -3 -1 34.22
1 3 1 37.54
1 3 1 34.18
1 3 1 35.05
-2 -3 -1 0.73
-2 -3 -1 0.21
-2 -3 -1 0.59
2 3 1 0.85
2 3 1 0.19
2 3 1 0.24
-3 -3 -1 8.17
-3 -3 -1 7.60
-3 -3 -1 8.48
-3 -3 -1 9.46
-3 -3 -1 8.14
3 3 1 9.26
3 3 1 8.76
3 3 1 8.47
-4 -3 -1 71.97
-4 -3 -1 67.62
-4 -3 -1 71.62
-4 -3 -1 72.19
-4 -3 -1 67.23
4 3 1 67.32
4 3 1 73.18
4 3 1 66.44
-5 -3 -1 -0.21
-5 -3 -1 0.14
-5 -3 -1 0.28
-5 -3 -1 0.15
-5 -3 -1 -0.04
5 3 1 -0.10
-6 -3 -1 2.07
-6 -3 -1 1.27
6 -4 -1 6.66
-6 4 1 8.14
-6 4 1 8.14
-6 4 1 9.19
5 -4 -1 8.31
5 -4 -1 8.35
5 -4 -1 7.48
5 -4 -1 6.90
-5 4 1 7.38
-5 4 1 7.78
-5 4 1 7.17
-5 4 1 8.07
4 -4 -1 16.83
4 -4 -1 16.12
4 -4 -1 17.07
4 -4 -1 16.28
4 -4 -1 18.01
-4 4 1 16.54
-4 4 1 14.88
-4 4 1 17.63
-4 4 1 15.79
-4 4 1 16.87
3 -4 -1 6.73
3 -4 -1 6.31
3 -4 -1 5.91
3 -4 -1 6.27
3 -4 -1 5.54
-3 4 1 5.09
-3 4 1 6.85
-3 4 1 6.09
-3 4 1 4.58
-3 4 1 6.83
2 -4 -1 40.43
2 -4 -1 41.02
2 -4 -1 41.03
2 -4 -1 39.99
-2 4 1 38.98
-2 4 1 38.45
-2 4 1 40.97
-2 4 1 36.49
1 -4 -1 263.38
1 -4 -1 257.78
1 -4 -1 276.38
-1 4 1 260.79
-1 4 1 271.51
-1 4 1 277.44
-1 4 1 264.36
0 -4 -1 111.38
0 -4 -1 108.91
0 -4 -1 114.55
0 -4 -1 107.56
0 4 1 113.58
0 4 1 107.65
0 4 1 117.03
0 4 1 117.89
-1 -4 -1 29.14
-1 -4 -1 27.91
-1 -4 -1 28.30
-1 -4 -1 30.07
1 4 1 29.20
1 4 1 30.29
1 4 1 31.50
-2 -4 -1 1.54
-2 -4 -1 1.30
2 4 1 1.24
2 4 1 1.77
2 4 1 1.13
-3 -4 -1 34.18
-3 -4 -1 35.70
-3 -4 -1 34.09
-3 -4 -1 32.99
3 4 1 32.65
3 4 1 31.74
3 4 1 37.87
-4 -4 -1 2.92
-4 -4 -1 2.70
-4 -4 -1 2.98
-4 -4 -1 3.15
-4 -4 -1 2.56
4 4 1 2.70
4 4 1 3.11
-5 -4 -1 1.62
-5 -4 -1 1.50
-5 -4 -1 0.99
-5 -4 -1 0.92
5 4 1 1.08
-6 -4 -1 0.80
-6 -4 -1 0.46
6 -5 -1 43.22
-6 5 1 41.38
-6 5 1 45.15
5 -5 -1 7.31
5 -5 -1 5.58
-5 5 1 6.49
-5 5 1 7.71
-5 5 1 6.85
-5 5 1 6.00
4 -5 -1 5.20
4 -5 -1 8.13
4 -5 -1 7.46
4 -5 -1 8.40
4 -5 -1 9.43
-4 5 1 6.43
-4 5 1 8.88
-4 5 1 6.30
-4 5 1 7.11
3 -5 -1 8.16
3 -5 -1 10.02
3 -5 -1 9.18
3 -5 -1 9.34
3 -5 -1 9.85
-3 5 1 8.44
-3 5 1 9.47
-3 5 1 7.85
2 -5 -1 63.31
2 -5 -1 57.94
2 -5 -1 65.35
2 -5 -1 66.69
-2 5 1 66.54
-2 5 1 62.44
-2 5 1 63.14
-2 5 1 59.08
1 -5 -1 115.63
1 -5 -1 115.56
1 -5 -1 104.56
-1 5 1 112.14
-1 5 1 105.98
-1 5 1 112.14
-1 5 1 112.54
0 -5 -1 11.99
0 -5 -1 10.70
0 -5 -1 11.22
0 5 1 12.60
0 5 1 12.16
0 5 1 11.32
-1 -5 -1 2.55
-1 -5 -1 2.94
-1 -5 -1 2.46
-1 -5 -1 3.40
1 5 1 3.19
1 5 1 2.92
1 5 1 2.45
-2 -5 -1 42.96
-2 -5 -1 44.53
-2 -5 -1 46.38
-2 -5 -1 43.44
2 5 1 41.93
2 5 1 44.25
2 5 1 44.40
-3 -5 -1 33.06
-3 -5 -1 35.42
3 5 1 32.29
3 5 1 36.60
3 5 1 30.06
-4 -5 -1 55.88
-4 -5 -1 61.16
-4 -5 -1 61.47
4 5 1 59.61
-5 -5 -1 1.11
-5 -5 -1 0.97
5 5 1 0.64
5 -6 -1 -0.46
-5 6 1 0.45
-5 6 1 -0.06
4 -6 -1 7.91
4 -6 -1 5.78
-4 6 1 6.73
-4 6 1 5.77
-4 6 1 7.16
3 -6 -1 2.04
3 -6 -1 2.36
3 -6 -1 1.56
-3 6 1 1.80
-3 6 1 2.42
-3 6 1 2.82
2 -6 -1 2.43
2 -6 -1 2.20
2 -6 -1 2.77
-2 6 1 3.04
-2 6 1 3.25
-2 6 1 2.58
-2 6 1 2.43
1 -6 -1 20.55
1 -6 -1 22.48
1 -6 -1 20.67
-1 6 1 22.58
-1 6 1 20.10
-1 6 1 20.35
-1 6 1 21.99
0 -6 -1 3.02
0 -6 -1 3.45
0 -6 -1 2.90
0 6 1 3.52
0 6 1 3.51
0 6 1 3.08
-1 -6 -1 19.69
-1 -6 -1 18.40
-1 -6 -1 17.27
1 6 1 18.94
1 6 1 16.09
1 6 1 17.94
-2 -6 -1 4.12
-2 -6 -1 3.58
-2 -6 -1 2.25
-2 -6 -1 3.67
2 6 1 3.70
-3 -6 -1 0.63
-3 -6 -1 -0.09
-3 -6 -1 0.68
3 6 1 0.51
-4 -6 -1 9.16
-4 -6 -1 7.39
4 6 1 8.19
-5 -6 -1 0.85
-5 -6 -1 0.59
5 6 1 0.82
5 -7 -1 0.33
-5 7 1 1.16
-5 7 1 -0.06
4 -7 -1 2.56
4 -7 -1 3.32
-4 7 1 3.43
-4 7 1 2.87
3 -7 -1 2.11
3 -7 -1 2.57
-3 7 1 2.61
-3 7 1 2.25
-3 7 1 1.96
2 -7 -1 71.75
2 -7 -1 69.63
-2 7 1 75.21
-2 7 1 71.90
-2 7 1 70.42
-2 7 1 74.26
1 -7 -1 33.90
1 -7 -1 32.72
-1 7 1 32.05
-1 7 1 36.10
-1 7 1 34.95
-1 7 1 31.36
0 -7 -1 1.20
0 -7 -1 0.21
0 7 1 1.42
0 7 1 0.92
0 7 1 0.91
0 7 1 1.48
-1 -7 -1 0.28
-1 -7 -1 0.66
1 7 1 0.59
1 7 1 1.16
-2 -7 -1 0.78
-2 -7 -1 0.52
2 7 1 0.56
2 7 1 1.13
-3 -7 -1 29.51
-3 -7 -1 30.06
3 7 1 32.47
-4 -7 -1 1.96
-4 -7 -1 0.84
4 7 1 0.15
3 -8 -1 1.25
3 -8 -1 0.62
-3 8 1 0.54
-3 8 1 1.86
2 -8 -1 2.89
2 -8 -1 2.59
-2 8 1 3.91
-2 8 1 3.70
-2 8 1 3.47
1 -8 -1 4.58
1 -8 -1 4.21
-1 8 1 3.69
-1 8 1 3.87
-1 8 1 4.84
0 -8 -1 2.32
0 -8 -1 2.41
0 8 1 2.92
0 8 1 2.32
0 8 1 1.77
-1 -8 -1 11.99
1 8 1 12.40
1 8 1 12.62
-2 -8 -1 1.84
2 8 1 1.68
2 8 1 1.28
1 9 -2 0.18
1 9 -2 0.71
-1 -9 2 0.87
0 9 -2 2.63
0 9 -2 3.31
0 -9 2 1.84
-1 9 -2 1.18
-1 9 -2 2.50
1 -9 2 2.09
1 -9 2 3.04
-2 9 -2 0.36
-2 9 -2 -0.16
2 -9 2 -0.59
2 -9 2 0.47
3 8 -2 15.97
-3 -8 2 15.77
2 8 -2 -0.02
2 8 -2 1.25
-2 -8 2 -0.39
1 8 -2 2.49
1 8 -2 1.62
1 8 -2 2.36
-1 -8 2 2.07
0 8 -2 31.96
0 8 -2 31.94
0 8 -2 29.62
0 -8 2 31.54
0 -8 2 31.91
-1 8 -2 0.57
-1 8 -2 1.36
-1 8 -2 1.75
1 -8 2 1.45
1 -8 2 1.92
-2 8 -2 11.98
-2 8 -2 12.07
2 -8 2 12.27
2 -8 2 12.72
-3 8 -2 2.22
-3 8 -2 2.61
3 -8 2 2.35
3 -8 2 2.39
-4 8 -2 2.29
-4 8 -2 1.42
4 -8 2 2.58
4 7 -2 1.16
-4 -7 2 0.86
3 7 -2 41.87
-3 -7 2 39.08
2 7 -2 42.98
2 7 -2 41.39
-2 -7 2 42.34
1 7 -2 3.79
1 7 -2 3.77
1 7 -2 4.28
-1 -7 2 2.93
-1 -7 2 3.61
0 7 -2 1.61
0 7 -2 1.24
0 7 -2 1.92
0 7 -2 1.06
0 7 -2 0.94
0 -7 2 1.33
0 -7 2 0.90
-1 7 -2 4.92
-1 7 -2 6.03
-1 7 -2 6.07
-1 7 -2 5.51
1 -7 2 5.26
1 -7 2 5.56
-2 7 -2 10.62
-2 7 -2 9.10
2 -7 2 9.82
2 -7 2 9.57
-3 7 -2 0.02
-3 7 -2 0.31
-3 7 -2 0.49
3 -7 2 0.44
3 -7 2 0.00
-4 7 -2 0.23
-4 7 -2 0.17
4 -7 2 0.02
4 -7 2 0.27
-5 7 -2 12.71
-5 7 -2 14.16
5 -7 2 12.65
5 6 -2 1.33
-5 -6 2 2.79
-5 -6 2 3.34
-5 -6 2 2.30
4 6 -2 1.67
-4 -6 2 0.51
-4 -6 2 1.17
-4 -6 2 0.64
-4 -6 2 0.59
3 6 -2 4.28
3 6 -2 3.90
-3 -6 2 3.53
-3 -6 2 2.92
2 6 -2 7.53
2 6 -2 7.11
2 6 -2 8.97
-2 -6 2 8.76
-2 -6 2 6.76
1 6 -2 0.99
1 6 -2 1.44
1 6 -2 0.70
1 6 -2 1.25
-1 -6 2 1.00
-1 -6 2 0.53
-1 -6 2 0.66
0 6 -2 145.75
0 6 -2 141.66
0 6 -2 146.09
0 6 -2 127.37
0 6 -2 139.96
0 -6 2 137.17
0 -6 2 137.79
0 -6 2 135.51
-1 6 -2 39.38
-1 6 -2 40.51
-1 6 -2 36.89
-1 6 -2 39.73
1 -6 2 39.27
1 -6 2 43.04
1 -6 2 41.00
-2 6 -2 9.33
-2 6 -2 9.36
-2 6 -2 8.24
-2 6 -2 9.02
-2 6 -2 9.17
2 -6 2 8.74
2 -6 2 9.72
2 -6 2 9.35
2 -6 2 8.73
-3 6 -2 14.26
-3 6 -2 17.55
-3 6 -2 15.75
-3 6 -2 16.60
-3 6 -2 18.16
3 -6 2 15.99
3 -6 2 17.42
3 -6 2 14.92
-4 6 -2 0.73
-4 6 -2 2.15
-4 6 -2 1.12
-4 6 -2 1.55
4 -6 2 1.04
4 -6 2 1.21
4 -6 2 1.12
-5 6 -2 0.07
-5 6 -2 0.89
-5 6 -2 0.86
5 -6 2 0.93
-6 -5 2 1.98
-6 -5 2 2.01
-6 -5 2 1.76
5 5 -2 18.56
-5 -5 2 19.90
-5 -5 2 21.07
-5 -5 2 21.95
4 5 -2 9.47
-4 -5 2 7.59
-4 -5 2 10.29
-4 -5 2 9.25
-4 -5 2 9.26
3 5 -2 49.72
3 5 -2 43.77
3 5 -2 47.99
-3 -5 2 48.00
-3 -5 2 46.60
-3 -5 2 47.08
2 5 -2 219.84
2 5 -2 234.73
2 5 -2 228.68
-2 -5 2 221.08
-2 -5 2 230.64
1 5 -2 47.11
1 5 -2 45.85
1 5 -2 44.90
-1 -5 2 49.91
-1 -5 2 46.91
-1 -5 2 45.51
0 5 -2 4.02
0 5 -2 3.95
0 5 -2 3.62
0 5 -2 3.77
0 -5 2 4.33
0 -5 2 4.15
0 -5 2 4.22
-1 5 -2 108.12
-1 5 -2 115.82
-1 5 -2 113.77
-1 5 -2 115.61
-1 5 -2 109.61
-1 5 -2 123.94
1 -5 2 114.28
1 -5 2 115.64
1 -5 2 111.55
-2 5 -2 25.69
-2 5 -2 20.53
-2 5 -2 23.27
-2 5 -2 23.29
2 -5 2 23.16
2 -5 2 22.24
2 -5 2 24.25
2 -5 2 21.50
-3 5 -2 2.25
-3 5 -2 2.63
-3 5 -2 2.45
-3 5 -2 2.28
-3 5 -2 1.38
3 -5 2 2.37
3 -5 2 1.99
3 -5 2 2.30
3 -5 2 2.45
3 -5 2 2.06
-4 5 -2 0.51
-4 5 -2 0.57
-4 5 -2 1.16
4 -5 2 0.38
4 -5 2 0.83
4 -5 2 0.86
4 -5 2 0.44
4 -5 2 0.36
-5 5 -2 30.52
-5 5 -2 33.86
-5 5 -2 32.15
-5 5 -2 33.62
5 -5 2 30.91
5 -5 2 28.04
5 -5 2 31.72
-6 5 -2 2.11
-6 5 -2 3.53
-6 5 -2 0.84
6 -5 2 0.74
-6 -4 2 7.33
-6 -4 2 6.40
-6 -4 2 5.94
5 4 -2 3.47
-5 -4 2 2.99
-5 -4 2 2.50
-5 -4 2 3.23
4 4 -2 4.46
4 4 -2 4.53
4 4 -2 4.56
-4 -4 2 5.08
-4 -4 2 5.53
-4 -4 2 4.46
3 4 -2 12.45
3 4 -2 11.29
3 4 -2 11.12
-3 -4 2 12.91
-3 -4 2 13.86
-3 -4 2 10.82
2 4 -2 2.65
2 4 -2 2.35
2 4 -2 3.55
-2 -4 2 3.01
-2 -4 2 3.00
-2 -4 2 2.72
1 4 -2 118.86
1 4 -2 112.40
1 4 -2 124.78
-1 -4 2 125.26
-1 -4 2 113.37
-1 -4 2 118.92
0 4 -2 1.21
0 4 -2 1.24
0 4 -2 1.61
0 4 -2 1.42
0 4 -2 1.58
0 -4 2 1.58
0 -4 2 1.77
0 -4 2 1.35
-1 4 -2 271.71
-1 4 -2 280.78
-1 4 -2 281.58
-1 4 -2 280.79
-1 4 -2 274.23
1 -4 2 279.24
1 -4 2 279.19
1 -4 2 284.69
1 -4 2 290.94
-2 4 -2 93.65
-2 4 -2 94.75
-2 4 -2 97.03
-2 4 -2 95.09
2 -4 2 105.51
2 -4 2 94.81
2 -4 2 98.89
2 -4 2 97.38
2 -4 2 94.83
-3 4 -2 19.80
-3 4 -2 17.56
-3 4 -2 17.62
-3 4 -2 19.04
-3 4 -2 19.46
3 -4 2 20.12
3 -4 2 20.83
3 -4 2 20.17
3 -4 2 18.36
3 -4 2 18.81
-4 4 -2 5.15
-4 4 -2 5.35
-4 4 -2 6.02
-4 4 -2 5.22
-4 4 -2 5.99
4 -4 2 6.00
4 -4 2 5.64
4 -4 2 4.61
4 -4 2 5.99
4 -4 2 6.03
-5 4 -2 31.25
-5 4 -2 32.21
-5 4 -2 32.37
-5 4 -2 35.45
5 -4 2 30.23
5 -4 2 34.03
5 -4 2 32.38
5 -4 2 31.44
-6 4 -2 1.20
-6 4 -2 1.44
-6 4 -2 0.82
6 -4 2 1.27
-6 -3 2 3.40
-6 -3 2 4.02
5 3 -2 1.11
5 3 -2 1.04
-5 -3 2 0.82
-5 -3 2 0.91
-5 -3 2 1.52
4 3 -2 51.30
4 3 -2 44.77
4 3 -2 52.47
-4 -3 2 51.70
-4 -3 2 51.41
-4 -3 2 52.26
3 3 -2 75.21
3 3 -2 85.48
3 3 -2 87.86
-3 -3 2 86.70
-3 -3 2 79.67
-3 -3 2 79.40
-3 -3 2 79.41
2 3 -2 249.57
2 3 -2 251.93
2 3 -2 248.85
-2 -3 2 238.90
-2 -3 2 237.94
-2 -3 2 252.13
1 3 -2 36.35
1 3 -2 36.02
1 3 -2 35.56
-1 -3 2 35.31
-1 -3 2 32.92
0 3 -2 1.25
0 3 -2 1.17
0 3 -2 0.86
0 3 -2 1.50
0 3 -2 1.51
0 -3 2 1.16
0 -3 2 1.17
-1 3 -2 246.50
-1 3 -2 258.95
-1 3 -2 250.12
-1 3 -2 259.10
1 -3 2 236.81
1 -3 2 242.88
1 -3 2 246.28
1 -3 2 253.73
1 -3 2 253.92
-2 3 -2 148.48
-2 3 -2 152.52
-2 3 -2 136.48
-2 3 -2 145.74
2 -3 2 146.06
2 -3 2 141.97
2 -3 2 142.97
2 -3 2 142.26
2 -3 2 139.14
-3 3 -2 52.87
-3 3 -2 50.59
-3 3 -2 53.41
-3 3 -2 50.36
-3 3 -2 51.22
3 -3 2 51.02
3 -3 2 50.85
3 -3 2 54.86
3 -3 2 50.76
3 -3 2 54.71
-4 3 -2 2.31
-4 3 -2 1.56
-4 3 -2 1.48
-4 3 -2 1.94
-4 3 -2 1.82
4 -3 2 2.37
4 -3 2 1.57
4 -3 2 1.62
4 -3 2 1.65
4 -3 2 2.27
-5 3 -2 0.74
-5 3 -2 0.87
-5 3 -2 0.65
-5 3 -2 0.75
-5 3 -2 0.43
5 -3 2 0.31
5 -3 2 0.34
5 -3 2 1.21
5 -3 2 0.58
-6 3 -2 0.32
-6 3 -2 -0.04
-6 3 -2 0.14
6 -3 2 -0.40
6 -3 2 0.01
-7 3 -2 31.18
-7 3 -2 30.99
7 -3 2 32.98
-7 -2 2 0.63
-7 -2 2 1.24
6 2 -2 -0.39
-6 -2 2 0.15
-6 -2 2 0.20
5 2 -2 -0.25
5 2 -2 -0.02
5 2 -2 0.17
5 2 -2 0.37
-5 -2 2 0.16
-5 -2 2 0.06
-5 -2 2 0.38
-5 -2 2 0.38
4 2 -2 66.23
4 2 -2 67.40
4 2 -2 65.38
4 2 -2 66.60
4 2 -2 65.62
-4 -2 2 66.61
-4 -2 2 58.33
-4 -2 2 66.81
-4 -2 2 66.03
3 2 -2 33.01
3 2 -2 32.23
3 2 -2 32.01
3 2 -2 32.60
-3 -2 2 30.71
-3 -2 2 30.07
-3 -2 2 30.60
-3 -2 2 31.95
2 2 -2 132.12
2 2 -2 125.09
2 2 -2 126.19
2 2 -2 121.88
-2 -2 2 119.12
-2 -2 2 126.37
-2 -2 2 131.73
1 2 -2 264.79
1 2 -2 256.23
-1 -2 2 256.83
-1 -2 2 242.73
-1 -2 2 251.26
0 2 -2 40.32
0 2 -2 39.36
0 2 -2 40.11
0 2 -2 39.45
0 2 -2 38.31
0 -2 2 42.74
0 -2 2 40.20
0 -2 2 41.63
-1 2 -2 232.07
-1 2 -2 229.49
-1 2 -2 232.46
-1 2 -2 234.20
1 -2 2 241.29
1 -2 2 226.40
1 -2 2 220.00
1 -2 2 232.77
1 -2 2 234.42
-2 2 -2 43.98
-2 2 -2 41.85
-2 2 -2 43.44
-2 2 -2 40.55
2 -2 2 43.52
2 -2 2 45.13
2 -2 2 46.25
2 -2 2 42.26
-3 2 -2 8.10
-3 2 -2 7.67
-3 2 -2 7.08
-3 2 -2 8.16
-3 2 -2 7.41
3 -2 2 6.99
3 -2 2 7.49
3 -2 2 7.35
3 -2 2 7.38
-4 2 -2 42.87
-4 2 -2 41.63
-4 2 -2 40.09
-4 2 -2 39.74
-4 2 -2 41.74
4 -2 2 40.34
4 -2 2 41.45
4 -2 2 41.01
4 -2 2 43.58
-5 2 -2 45.65
-5 2 -2 45.95
-5 2 -2 47.70
-5 2 -2 46.71
-5 2 -2 50.89
5 -2 2 48.70
5 -2 2 49.60
5 -2 2 50.09
5 -2 2 46.57
5 -2 2 45.98
-6 2 -2 6.79
-6 2 -2 7.62
-6 2 -2 8.26
6 -2 2 5.22
6 -2 2 6.51
6 -2 2 6.70
-7 2 -2 2.38
-7 2 -2 2.39
-7 -1 2 6.13
-7 -1 2 7.31
6 1 -2 4.89
6 1 -2 5.97
6 1 -2 6.34
-6 -1 2 6.40
-6 -1 2 4.69
-6 -1 2 5.99
5 1 -2 1.28
5 1 -2 1.02
5 1 -2 1.88
5 1 -2 1.23
5 1 -2 1.37
-5 -1 2 1.11
-5 -1 2 1.30
-5 -1 2 1.26
-5 -1 2 0.77
4 1 -2 103.69
4 1 -2 105.92
4 1 -2 103.00
4 1 -2 109.14
4 1 -2 104.47
4 1 -2 110.84
-4 -1 2 107.30
-4 -1 2 105.17
-4 -1 2 103.43
-4 -1 2 109.90
-4 -1 2 107.70
3 1 -2 1.42
3 1 -2 1.52
3 1 -2 1.85
3 1 -2 1.70
3 1 -2 1.39
-3 -1 2 1.84
-3 -1 2 1.46
-3 -1 2 1.05
2 1 -2 23.74
2 1 -2 23.32
2 1 -2 25.43
2 1 -2 23.64
-2 -1 2 23.76
-2 -1 2 23.94
-2 -1 2 22.59
-2 -1 2 24.95
1 1 -2 526.20
1 1 -2 514.59
1 1 -2 520.00
-1 -1 2 477.42
-1 -1 2 516.71
0 1 -2 24.82
0 1 -2 24.09
0 1 -2 23.85
0 -1 2 23.80
0 -1 2 24.63
-1 1 -2 73.77
-1 1 -2 75.57
-1 1 -2 68.22
-1 1 -2 74.20
1 -1 2 72.50
1 -1 2 71.22
1 -1 2 68.72
1 -1 2 71.82
-2 1 -2 2.61
-2 1 -2 2.40
-2 1 -2 2.81
-2 1 -2 2.65
2 -1 2 3.07
2 -1 2 2.98
2 -1 2 3.00
2 -1 2 2.72
-3 1 -2 162.85
-3 1 -2 168.65
-3 1 -2 154.63
-3 1 -2 166.15
-3 1 -2 159.35
3 -1 2 163.94
3 -1 2 162.27
3 -1 2 171.94
3 -1 2 172.87
-4 1 -2 37.86
-4 1 -2 40.27
-4 1 -2 37.54
-4 1 -2 36.75
-4 1 -2 38.21
4 -1 2 39.33
4 -1 2 38.64
4 -1 2 37.58
4 -1 2 33.97
4 -1 2 38.00
-5 1 -2 1.29
-5 1 -2 1.14
-5 1 -2 1.04
-5 1 -2 0.64
-5 1 -2 0.86
5 -1 2 1.26
5 -1 2 0.26
5 -1 2 1.00
5 -1 2 0.72
5 -1 2 0.76
-6 1 -2 0.58
-6 1 -2 0.69
-6 1 -2 1.01
6 -1 2 0.60
6 -1 2 0.23
-7 1 -2 -0.11
-7 1 -2 0.25
7 0 -2 2.66
-7 0 2 1.49
-7 0 2 1.58
6 0 -2 8.50
6 0 -2 8.19
6 0 -2 10.50
6 0 -2 9.17
-6 0 2 8.11
-6 0 2 10.34
-6 0 2 9.70
5 0 -2 0.94
5 0 -2 0.52
5 0 -2 0.52
5 0 -2 0.34
5 0 -2 0.75
5 0 -2 0.58
-5 0 2 0.44
-5 0 2 0.62
-5 0 2 0.72
-5 0 2 1.34
4 0 -2 5.45
4 0 -2 6.46
4 0 -2 5.02
4 0 -2 5.69
4 0 -2 6.35
4 0 -2 6.61
-4 0 2 4.55
-4 0 2 5.93
-4 0 2 7.38
-4 0 2 5.96
3 0 -2 53.30
3 0 -2 53.30
3 0 -2 56.17
3 0 -2 55.95
3 0 -2 55.51
3 0 -2 56.12
-3 0 2 56.01
-3 0 2 53.97
-3 0 2 55.49
2 0 -2 1.05
2 0 -2 0.96
2 0 -2 0.93
2 0 -2 1.14
2 0 -2 0.95
2 0 -2 0.62
-2 0 2 1.34
-2 0 2 1.04
-2 0 2 1.12
1 0 -2 107.58
1 0 -2 112.95
1 0 -2 116.75
-1 0 2 112.52
-1 0 2 111.26
-1 0 -2 53.39
-1 0 -2 51.23
1 0 2 52.29
1 0 2 57.76
-2 0 -2 33.75
-2 0 -2 34.48
-2 0 -2 34.65
-2 0 -2 33.11
-2 0 -2 35.88
2 0 2 32.47
2 0 2 34.42
2 0 2 35.47
2 0 2 35.48
-3 0 -2 -0.15
-3 0 -2 0.23
-3 0 -2 0.09
-3 0 -2 0.12
-3 0 -2 -0.16
3 0 2 0.20
3 0 2 0.31
3 0 2 0.10
3 0 2 0.15
-4 0 -2 36.19
-4 0 -2 37.23
-4 0 -2 37.25
-4 0 -2 36.31
4 0 2 36.44
4 0 2 39.31
4 0 2 36.75
4 0 2 37.67
-5 0 -2 51.94
-5 0 -2 49.84
-5 0 -2 52.66
-5 0 -2 55.90
5 0 2 50.65
5 0 2 50.43
5 0 2 50.30
5 0 2 48.55
-6 0 -2 6.85
-6 0 -2 6.66
-6 0 -2 5.58
-6 0 -2 5.96
6 0 2 6.53
-7 0 -2 5.61
-7 0 -2 7.12
7 -1 -2 0.66
-7 1 2 0.71
6 -1 -2 14.24
6 -1 -2 15.11
6 -1 -2 16.06
6 -1 -2 13.42
-6 1 2 16.11
-6 1 2 17.62
-6 1 2 15.14
5 -1 -2 20.04
5 -1 -2 20.29
5 -1 -2 19.04
5 -1 -2 20.32
5 -1 -2 20.88
5 -1 -2 22.30
5 -1 -2 20.58
-5 1 2 19.67
-5 1 2 19.59
-5 1 2 19.54
4 -1 -2 13.00
4 -1 -2 11.74
4 -1 -2 13.74
4 -1 -2 13.42
4 -1 -2 13.77
4 -1 -2 13.41
4 -1 -2 13.65
-4 1 2 12.73
-4 1 2 11.73
-4 1 2 12.38
3 -1 -2 119.94
3 -1 -2 122.47
3 -1 -2 128.63
3 -1 -2 118.59
3 -1 -2 125.18
3 -1 -2 125.57
3 -1 -2 123.75
-3 1 2 117.21
-3 1 2 122.16
-3 1 2 118.89
-3 1 2 118.40
2 -1 -2 216.44
2 -1 -2 207.50
2 -1 -2 212.07
2 -1 -2 225.14
2 -1 -2 216.10
2 -1 -2 215.04
-2 1 2 184.94
-2 1 2 213.10
-2 1 2 213.89
1 -1 -2 123.40
1 -1 -2 118.70
1 -1 -2 119.78
1 -1 -2 130.76
1 -1 -2 130.06
-1 1 2 125.29
-1 1 2 125.00
-1 1 2 125.73
-1 1 2 113.86
0 -1 -2 60.32
0 -1 -2 62.43
0 1 2 61.24
0 1 2 61.22
-1 -1 -2 2.75
-1 -1 -2 2.59
-1 -1 -2 1.95
1 1 2 2.36
1 1 2 2.31
-2 -1 -2 3.49
-2 -1 -2 3.56
-2 -1 -2 2.95
-2 -1 -2 3.55
-2 -1 -2 3.04
2 1 2 3.59
2 1 2 3.19
2 1 2 2.95
-3 -1 -2 18.57
-3 -1 -2 18.68
-3 -1 -2 20.81
-3 -1 -2 20.96
3 1 2 18.90
3 1 2 16.16
3 1 2 18.15
-4 -1 -2 0.02
-4 -1 -2 0.06
-4 -1 -2 0.22
-4 -1 -2 0.40
4 1 2 0.31
4 1 2 -0.05
4 1 2 -0.57
-5 -1 -2 16.50
-5 -1 -2 16.94
-5 -1 -2 17.49
-5 -1 -2 16.21
5 1 2 15.85
5 1 2 17.10
5 1 2 15.88
-6 -1 -2 1.66
-6 -1 -2 1.88
-6 -1 -2 0.80
6 1 2 1.46
-7 -1 -2 9.51
-7 -1 -2 10.84
7 -2 -2 -0.22
-7 2 2 0.20
-7 2 2 0.22
6 -2 -2 1.68
6 -2 -2 2.01
6 -2 -2 1.18
-6 2 2 1.74
-6 2 2 1.76
5 -2 -2 0.29
5 -2 -2 0.24
5 -2 -2 -0.02
5 -2 -2 -0.02
5 -2 -2 -0.32
5 -2 -2 -0.02
-5 2 2 0.18
-5 2 2 -0.45
-5 2 2 0.23
-5 2 2 0.00
-5 2 2 0.16
4 -2 -2 2.11
4 -2 -2 2.97
4 -2 -2 2.34
4 -2 -2 2.11
4 -2 -2 2.87
4 -2 -2 2.41
-4 2 2 2.20
-4 2 2 3.23
-4 2 2 2.38
-4 2 2 2.62
-4 2 2 2.64
3 -2 -2 24.97
3 -2 -2 23.46
3 -2 -2 21.54
3 -2 -2 24.63
3 -2 -2 25.72
3 -2 -2 24.36
-3 2 2 24.38
-3 2 2 23.85
-3 2 2 24.80
-3 2 2 23.94
-3 2 2 22.66
2 -2 -2 7.50
2 -2 -2 6.47
2 -2 -2 6.61
2 -2 -2 6.65
2 -2 -2 6.55
2 -2 -2 6.51
-2 2 2 6.90
-2 2 2 7.33
-2 2 2 6.68
-2 2 2 7.02
-2 2 2 5.92
1 -2 -2 140.17
1 -2 -2 134.56
1 -2 -2 133.99
1 -2 -2 113.94
1 -2 -2 137.53
-1 2 2 127.88
-1 2 2 131.85
-1 2 2 133.80
-1 2 2 142.48
0 -2 -2 43.13
0 -2 -2 40.49
0 -2 -2 43.41
0 2 2 42.07
0 2 2 40.79
0 2 2 39.75
-1 -2 -2 158.29
-1 -2 -2 146.94
-1 -2 -2 151.02
1 2 2 156.93
1 2 2 153.14
-2 -2 -2 78.50
-2 -2 -2 75.93
-2 -2 -2 79.45
2 2 2 75.94
2 2 2 77.22
-3 -2 -2 23.67
-3 -2 -2 23.91
-3 -2 -2 21.22
-3 -2 -2 23.12
-3 -2 -2 20.47
3 2 2 23.06
3 2 2 24.59
3 2 2 22.11
-4 -2 -2 31.12
-4 -2 -2 30.16
-4 -2 -2 31.12
-4 -2 -2 32.64
-4 -2 -2 31.16
4 2 2 30.47
4 2 2 29.43
4 2 2 30.99
-5 -2 -2 6.27
-5 -2 -2 6.56
-5 -2 -2 5.87
5 2 2 4.96
5 2 2 5.19
-6 -2 -2 4.54
-6 -2 -2 5.58
6 2 2 3.77
7 -3 -2 1.35
-7 3 2 1.37
-7 3 2 1.00
6 -3 -2 29.04
6 -3 -2 30.05
-6 3 2 31.49
-6 3 2 29.84
-6 3 2 30.48
5 -3 -2 6.83
5 -3 -2 6.32
5 -3 -2 5.54
5 -3 -2 6.92
5 -3 -2 5.44
5 -3 -2 6.54
-5 3 2 6.32
-5 3 2 8.39
-5 3 2 7.07
-5 3 2 5.54
4 -3 -2 0.74
4 -3 -2 0.15
4 -3 -2 0.41
4 -3 -2 0.26
4 -3 -2 0.37
-4 3 2 0.55
-4 3 2 0.82
-4 3 2 1.23
-4 3 2 0.54
-4 3 2 0.37
3 -3 -2 4.56
3 -3 -2 4.34
3 -3 -2 4.82
3 -3 -2 5.36
3 -3 -2 3.75
-3 3 2 4.75
-3 3 2 4.81
-3 3 2 4.87
-3 3 2 4.16
2 -3 -2 8.13
2 -3 -2 8.74
2 -3 -2 8.13
2 -3 -2 7.18
2 -3 -2 8.05
-2 3 2 7.71
-2 3 2 7.41
-2 3 2 7.29
1 -3 -2 89.81
1 -3 -2 89.01
1 -3 -2 95.13
1 -3 -2 88.71
-1 3 2 88.07
-1 3 2 92.28
-1 3 2 88.77
-1 3 2 93.22
0 -3 -2 64.03
0 -3 -2 60.83
0 3 2 58.61
0 3 2 67.02
0 3 2 64.36
-1 -3 -2 15.61
-1 -3 -2 15.32
-1 -3 -2 13.57
1 3 2 15.48
1 3 2 17.15
-2 -3 -2 40.62
-2 -3 -2 43.02
-2 -3 -2 40.94
2 3 2 38.06
2 3 2 43.05
-3 -3 -2 62.68
-3 -3 -2 62.82
-3 -3 -2 64.76
-3 -3 -2 61.37
3 3 2 62.59
3 3 2 66.18
-4 -3 -2 0.63
-4 -3 -2 0.40
-4 -3 -2 0.68
-4 -3 -2 0.85
-4 -3 -2 0.25
4 3 2 0.50
4 3 2 0.53
4 3 2 0.04
-5 -3 -2 5.43
-5 -3 -2 4.47
-5 -3 -2 5.86
-5 -3 -2 7.07
5 3 2 5.91
-6 -3 -2 1.46
-6 -3 -2 1.54
6 -4 -2 0.84
-6 4 2 0.87
-6 4 2 1.04
-6 4 2 0.23
5 -4 -2 4.70
5 -4 -2 2.84
5 -4 -2 3.47
5 -4 -2 3.37
-5 4 2 3.70
-5 4 2 3.12
-5 4 2 4.28
-5 4 2 3.14
4 -4 -2 0.10
4 -4 -2 -0.13
4 -4 -2 -0.06
4 -4 -2 0.12
4 -4 -2 -0.05
-4 4 2 -0.03
-4 4 2 -0.31
-4 4 2 -0.04
-4 4 2 0.10
3 -4 -2 27.62
3 -4 -2 28.68
3 -4 -2 28.49
3 -4 -2 27.43
3 -4 -2 27.55
-3 4 2 28.07
-3 4 2 29.61
2 -4 -2 21.96
2 -4 -2 20.34
2 -4 -2 23.16
2 -4 -2 21.70
-2 4 2 20.96
-2 4 2 21.02
-2 4 2 21.71
-2 4 2 21.19
1 -4 -2 136.12
1 -4 -2 136.41
1 -4 -2 125.97
-1 4 2 129.87
-1 4 2 127.95
-1 4 2 134.75
-1 4 2 134.93
0 -4 -2 248.90
0 -4 -2 230.15
0 -4 -2 222.74
0 -4 -2 223.15
0 4 2 235.54
0 4 2 227.82
0 4 2 232.99
-1 -4 -2 12.04
-1 -4 -2 11.02
-1 -4 -2 11.24
1 4 2 12.15
1 4 2 12.71
-2 -4 -2 9.93
-2 -4 -2 10.28
-2 -4 -2 9.99
2 4 2 10.40
2 4 2 9.80
-3 -4 -2 24.46
-3 -4 -2 24.08
-3 -4 -2 25.53
-3 -4 -2 22.99
3 4 2 22.46
3 4 2 25.94
-4 -4 -2 10.66
-4 -4 -2 9.93
-4 -4 -2 11.44
-4 -4 -2 10.53
-4 -4 -2 11.90
4 4 2 10.78
4 4 2 9.74
-5 -4 -2 18.82
-5 -4 -2 16.34
-5 -4 -2 19.45
-5 -4 -2 17.76
5 4 2 20.95
-6 -4 -2 1.25
-6 -4 -2 1.24
6 -5 -2 10.94
-6 5 2 10.07
-6 5 2 9.08
5 -5 -2 -0.02
5 -5 -2 0.29
-5 5 2 0.46
-5 5 2 0.21
4 -5 -2 10.69
4 -5 -2 11.44
4 -5 -2 9.59
4 -5 -2 8.85
4 -5 -2 9.88
-4 5 2 10.26
-4 5 2 11.19
-4 5 2 10.75
3 -5 -2 38.09
3 -5 -2 39.69
3 -5 -2 38.55
3 -5 -2 38.26
-3 5 2 33.04
-3 5 2 43.33
-3 5 2 40.33
2 -5 -2 8.10
2 -5 -2 8.16
2 -5 -2 8.64
2 -5 -2 8.19
-2 5 2 8.42
-2 5 2 7.74
-2 5 2 8.27
-2 5 2 9.42
1 -5 -2 32.72
1 -5 -2 32.77
1 -5 -2 33.12
-1 5 2 34.28
-1 5 2 33.96
-1 5 2 36.05
-1 5 2 34.68
0 -5 -2 -0.14
0 -5 -2 -0.01
0 -5 -2 0.22
0 5 2 0.01
0 5 2 0.14
0 5 2 -0.19
-1 -5 -2 6.45
-1 -5 -2 6.74
-1 -5 -2 6.67
-1 -5 -2 6.08
1 5 2 6.07
1 5 2 6.77
-2 -5 -2 0.90
-2 -5 -2 0.64
2 5 2 0.53
2 5 2 0.58
-3 -5 -2 32.28
-3 -5 -2 28.41
-3 -5 -2 34.16
-3 -5 -2 30.83
3 5 2 36.10
-4 -5 -2 -0.03
-4 -5 -2 -0.01
-4 -5 -2 -0.26
-4 -5 -2 -0.16
4 5 2 0.42
4 5 2 -0.34
-5 -5 -2 -0.02
-5 -5 -2 0.37
5 5 2 0.23
5 -6 -2 0.72
-5 6 2 0.05
-5 6 2 0.35
4 -6 -2 0.70
4 -6 -2 1.28
-4 6 2 1.64
-4 6 2 2.00
-4 6 2 1.46
3 -6 -2 0.29
3 -6 -2 0.16
3 -6 -2 0.20
-3 6 2 0.30
-3 6 2 0.36
-3 6 2 0.52
2 -6 -2 96.72
2 -6 -2 100.76
2 -6 -2 98.07
-2 6 2 103.10
-2 6 2 102.66
-2 6 2 106.53
-2 6 2 96.97
1 -6 -2 36.63
1 -6 -2 35.83
1 -6 -2 37.90
-1 6 2 36.14
-1 6 2 35.37
-1 6 2 36.36
-1 6 2 38.74
0 -6 -2 84.88
0 -6 -2 87.52
0 -6 -2 87.96
0 6 2 84.26
0 6 2 89.57
0 6 2 92.28
-1 -6 -2 24.04
-1 -6 -2 24.85
-1 -6 -2 23.80
-1 -6 -2 26.51
1 6 2 21.39
1 6 2 24.62
1 6 2 23.92
-2 -6 -2 10.19
-2 -6 -2 10.16
-2 -6 -2 10.85
-2 -6 -2 12.32
2 6 2 12.06
-3 -6 -2 38.69
-3 -6 -2 39.93
3 6 2 36.17
-4 -6 -2 0.34
-4 -6 -2 0.11
4 6 2 0.07
5 -7 -2 3.21
-5 7 2 1.30
4 -7 -2 7.94
-4 7 2 4.76
-4 7 2 5.31
3 -7 -2 46.30
3 -7 -2 47.81
-3 7 2 45.76
-3 7 2 48.76
-3 7 2 51.97
2 -7 -2 9.97
2 -7 -2 8.07
-2 7 2 8.74
-2 7 2 9.86
-2 7 2 9.00
-2 7 2 8.34
1 -7 -2 23.37
1 -7 -2 25.82
-1 7 2 23.55
-1 7 2 23.44
-1 7 2 22.71
-1 7 2 24.01
0 -7 -2 1.46
0 -7 -2 1.85
0 7 2 1.15
0 7 2 0.76
0 7 2 0.97
0 7 2 0.47
-1 -7 -2 6.36
-1 -7 -2 6.29
1 7 2 6.16
1 7 2 6.35
-2 -7 -2 16.92
-2 -7 -2 15.02
-2 -7 -2 14.46
2 7 2 13.99
2 7 2 14.10
-3 -7 -2 1.79
-3 -7 -2 2.43
3 7 2 3.62
3 -8 -2 4.87
3 -8 -2 6.31
-3 8 2 4.50
-3 8 2 4.72
2 -8 -2 36.23
2 -8 -2 38.37
-2 8 2 38.72
-2 8 2 39.96
-2 8 2 42.84
1 -8 -2 78.29
1 -8 -2 75.13
-1 8 2 81.92
-1 8 2 76.51
-1 8 2 74.58
0 -8 -2 8.49
0 -8 -2 9.29
0 8 2 8.60
0 8 2 9.34
0 8 2 10.21
-1 -8 -2 0.97
1 8 2 0.52
1 8 2 0.88
-2 -8 -2 3.32
2 8 2 3.76
2 8 2 2.29
1 9 -3 -0.16
1 9 -3 0.26
-1 -9 3 0.59
0 9 -3 5.23
0 9 -3 4.66
0 -9 3 6.30
-1 9 -3 6.03
-1 9 -3 6.04
1 -9 3 6.18
1 -9 3 7.56
-2 9 -3 4.71
-2 9 -3 6.41
2 -9 3 4.31
2 -9 3 6.98
3 8 -3 18.03
-3 -8 3 17.04
2 8 -3 8.58
2 8 -3 7.24
-2 -8 3 9.36
1 8 -3 3.56
1 8 -3 2.97
1 8 -3 4.16
-1 -8 3 4.31
0 8 -3 19.51
0 8 -3 19.56
0 8 -3 20.05
0 -8 3 20.16
0 -8 3 17.58
-1 8 -3 0.08
-1 8 -3 0.57
1 -8 3 0.53
1 -8 3 0.94
-2 8 -3 3.78
-2 8 -3 2.81
2 -8 3 4.14
2 -8 3 2.48
-3 8 -3 0.65
-3 8 -3 0.47
3 -8 3 0.27
3 -8 3 0.63
-4 8 -3 29.61
-4 8 -3 25.88
4 -8 3 25.34
4 7 -3 5.76
-4 -7 3 4.45
3 7 -3 43.76
-3 -7 3 32.53
-3 -7 3 40.65
2 7 -3 39.94
2 7 -3 33.55
2 7 -3 44.15
-2 -7 3 36.77
-2 -7 3 38.12
1 7 -3 10.38
1 7 -3 10.01
1 7 -3 9.00
-1 -7 3 10.50
-1 -7 3 13.12
0 7 -3 4.66
0 7 -3 2.60
0 7 -3 4.09
0 7 -3 4.06
0 7 -3 3.33
0 -7 3 3.71
0 -7 3 3.70
-1 7 -3 0.16
-1 7 -3 0.25
-1 7 -3 0.44
1 -7 3 0.45
1 -7 3 0.16
-2 7 -3 15.26
-2 7 -3 13.59
-2 7 -3 14.32
-2 7 -3 15.79
-2 7 -3 13.95
2 -7 3 16.16
2 -7 3 14.29
-3 7 -3 14.80
-3 7 -3 14.35
-3 7 -3 15.21
-3 7 -3 16.03
-3 7 -3 16.30
3 -7 3 14.52
3 -7 3 18.13
-4 7 -3 0.47
-4 7 -3 0.00
4 -7 3 -0.19
4 -7 3 0.05
-5 7 -3 6.70
-5 7 -3 7.63
5 -7 3 6.71
-5 -6 3 7.70
-5 -6 3 6.75
4 6 -3 24.28
-4 -6 3 23.24
-4 -6 3 21.66
-4 -6 3 25.59
3 6 -3 41.02
3 6 -3 42.33
-3 -6 3 37.27
-3 -6 3 34.30
2 6 -3 49.29
2 6 -3 47.67
2 6 -3 51.91
-2 -6 3 52.32
-2 -6 3 49.98
1 6 -3 34.34
1 6 -3 29.55
1 6 -3 33.00
1 6 -3 32.34
-1 -6 3 29.03
-1 -6 3 32.92
0 6 -3 21.54
0 6 -3 21.91
0 6 -3 22.56
0 6 -3 22.61
0 6 -3 20.82
0 -6 3 21.27
0 -6 3 20.22
0 -6 3 22.23
-1 6 -3 5.20
-1 6 -3 5.35
-1 6 -3 4.77
-1 6 -3 5.99
-1 6 -3 4.28
1 -6 3 5.68
1 -6 3 5.74
1 -6 3 6.00
-2 6 -3 0.10
-2 6 -3 -0.15
-2 6 -3 -0.25
-2 6 -3 -0.05
2 -6 3 0.38
2 -6 3 0.53
2 -6 3 0.16
2 -6 3 0.14
-3 6 -3 0.32
-3 6 -3 1.11
-3 6 -3 0.04
-3 6 -3 0.68
-3 6 -3 1.05
3 -6 3 0.78
3 -6 3 0.24
3 -6 3 0.49
3 -6 3 0.70
-4 6 -3 132.75
-4 6 -3 139.09
-4 6 -3 133.81
-4 6 -3 134.45
4 -6 3 140.07
4 -6 3 136.93
4 -6 3 127.72
-5 6 -3 0.37
-5 6 -3 0.05
-5 6 -3 0.15
5 -6 3 0.29
5 -6 3 -0.54
-6 -5 3 1.45
-6 -5 3 1.60
-6 -5 3 2.93
5 5 -3 13.37
-5 -5 3 13.96
-5 -5 3 13.61
-5 -5 3 14.45
4 5 -3 14.93
-4 -5 3 15.71
-4 -5 3 18.21
-4 -5 3 16.50
-4 -5 3 15.82
3 5 -3 -0.10
3 5 -3 0.32
3 5 -3 -0.02
-3 -5 3 0.11
-3 -5 3 0.30
2 5 -3 69.97
2 5 -3 69.87
2 5 -3 71.84
-2 -5 3 73.06
-2 -5 3 73.38
1 5 -3 5.69
1 5 -3 5.74
1 5 -3 5.60
-1 -5 3 6.12
-1 -5 3 5.38
0 5 -3 48.86
0 5 -3 48.89
0 5 -3 45.58
0 5 -3 50.18
0 5 -3 49.93
0 5 -3 47.65
0 -5 3 50.59
0 -5 3 51.51
0 -5 3 44.83
-1 5 -3 28.89
-1 5 -3 29.19
-1 5 -3 32.73
-1 5 -3 29.79
1 -5 3 30.38
1 -5 3 31.26
1 -5 3 29.80
-2 5 -3 5.48
-2 5 -3 4.63
-2 5 -3 4.36
-2 5 -3 6.33
2 -5 3 4.44
2 -5 3 6.23
2 -5 3 4.31
2 -5 3 4.03
2 -5 3 5.16
-3 5 -3 1.05
-3 5 -3 1.09
-3 5 -3 1.72
-3 5 -3 0.84
-3 5 -3 0.86
3 -5 3 0.42
3 -5 3 1.60
3 -5 3 0.74
3 -5 3 0.77
3 -5 3 1.09
-4 5 -3 2.62
-4 5 -3 1.97
-4 5 -3 1.62
-4 5 -3 3.01
4 -5 3 1.47
4 -5 3 2.29
4 -5 3 1.66
4 -5 3 0.75
-5 5 -3 6.21
-5 5 -3 6.81
-5 5 -3 7.92
-5 5 -3 6.11
5 -5 3 7.01
5 -5 3 7.51
5 -5 3 6.63
-6 5 -3 6.34
-6 5 -3 6.01
-6 5 -3 8.81
6 -5 3 6.85
-6 -4 3 3.98
-6 -4 3 5.32
-6 -4 3 3.76
5 4 -3 6.21
-5 -4 3 7.53
-5 -4 3 8.81
-5 -4 3 6.61
-5 -4 3 7.27
4 4 -3 30.22
4 4 -3 35.92
4 4 -3 31.01
-4 -4 3 32.67
-4 -4 3 32.10
-4 -4 3 37.31
-4 -4 3 31.96
3 4 -3 19.21
3 4 -3 17.28
3 4 -3 17.91
-3 -4 3 18.54
-3 -4 3 20.50
-3 -4 3 18.51
2 4 -3 8.11
2 4 -3 6.68
2 4 -3 7.22
-2 -4 3 7.40
-2 -4 3 8.11
1 4 -3 85.41
1 4 -3 86.08
1 4 -3 90.42
-1 -4 3 92.60
-1 -4 3 86.24
0 4 -3 105.88
0 4 -3 106.75
0 4 -3 102.53
0 4 -3 101.42
0 4 -3 105.70
0 4 -3 105.83
0 -4 3 104.79
0 -4 3 96.25
0 -4 3 105.15
-1 4 -3 10.59
-1 4 -3 10.25
-1 4 -3 10.15
-1 4 -3 9.63
1 -4 3 9.91
1 -4 3 10.52
1 -4 3 9.93
1 -4 3 9.70
-2 4 -3 26.22
-2 4 -3 25.31
-2 4 -3 25.88
-2 4 -3 25.85
2 -4 3 25.38
2 -4 3 26.65
2 -4 3 26.71
2 -4 3 25.40
2 -4 3 25.26
-3 4 -3 49.76
-3 4 -3 53.20
-3 4 -3 50.73
-3 4 -3 53.05
3 -4 3 55.70
3 -4 3 56.47
3 -4 3 50.16
3 -4 3 53.00
3 -4 3 52.49
-4 4 -3 115.04
-4 4 -3 113.56
-4 4 -3 116.06
-4 4 -3 114.32
-4 4 -3 119.18
4 -4 3 116.97
4 -4 3 108.59
4 -4 3 114.67
4 -4 3 109.87
4 -4 3 130.12
-5 4 -3 11.45
-5 4 -3 13.33
-5 4 -3 12.10
-5 4 -3 13.48
5 -4 3 8.98
5 -4 3 10.86
5 -4 3 11.07
-6 4 -3 0.50
-6 4 -3 -0.21
-6 4 -3 -0.40
6 -4 3 -0.50
-6 -3 3 12.01
-6 -3 3 11.77
-6 -3 3 12.00
5 3 -3 13.00
5 3 -3 11.79
-5 -3 3 12.49
-5 -3 3 12.73
-5 -3 3 11.90
-5 -3 3 13.23
4 3 -3 22.19
4 3 -3 24.10
4 3 -3 21.28
-4 -3 3 23.64
-4 -3 3 22.50
-4 -3 3 22.69
-4 -3 3 20.07
3 3 -3 0.78
3 3 -3 0.55
3 3 -3 0.20
-3 -3 3 0.98
-3 -3 3 1.08
-3 -3 3 0.61
-3 -3 3 1.15
2 3 -3 49.39
2 3 -3 49.85
2 3 -3 46.87
-2 -3 3 48.37
-2 -3 3 48.56
-2 -3 3 50.46
1 3 -3 101.89
1 3 -3 109.05
1 3 -3 97.06
1 3 -3 103.58
-1 -3 3 103.82
-1 -3 3 100.29
0 3 -3 38.57
0 3 -3 41.67
0 3 -3 38.76
0 3 -3 40.39
0 3 -3 37.83
0 -3 3 39.23
0 -3 3 37.02
0 -3 3 36.45
-1 3 -3 39.30
-1 3 -3 37.61
-1 3 -3 36.02
-1 3 -3 39.48
1 -3 3 34.35
1 -3 3 37.72
1 -3 3 36.75
1 -3 3 42.16
1 -3 3 38.22
-2 3 -3 2.59
-2 3 -3 2.33
-2 3 -3 2.92
-2 3 -3 2.61
2 -3 3 2.02
2 -3 3 2.38
2 -3 3 2.11
2 -3 3 2.56
2 -3 3 2.03
-3 3 -3 35.45
-3 3 -3 36.14
-3 3 -3 33.72
-3 3 -3 36.09
3 -3 3 31.60
3 -3 3 37.03
3 -3 3 36.33
3 -3 3 35.01
-4 3 -3 11.42
-4 3 -3 9.01
-4 3 -3 9.09
-4 3 -3 10.59
-4 3 -3 10.41
4 -3 3 12.22
4 -3 3 9.18
4 -3 3 10.87
4 -3 3 10.40
-5 3 -3 33.63
-5 3 -3 29.65
-5 3 -3 32.03
-5 3 -3 27.50
5 -3 3 30.10
5 -3 3 28.03
5 -3 3 29.89
-6 3 -3 0.79
-6 3 -3 0.81
-6 3 -3 0.33
6 -3 3 1.47
-7 -2 3 8.89
-7 -2 3 7.97
6 2 -3 10.09
6 2 -3 11.67
-6 -2 3 15.51
-6 -2 3 12.70
-6 -2 3 14.18
5 2 -3 2.26
5 2 -3 1.88
5 2 -3 2.02
5 2 -3 1.92
-5 -2 3 1.07
-5 -2 3 2.10
-5 -2 3 2.00
4 2 -3 1.40
4 2 -3 1.44
4 2 -3 1.16
4 2 -3 1.78
4 2 -3 1.86
-4 -2 3 1.66
-4 -2 3 1.47
-4 -2 3 1.63
3 2 -3 28.54
3 2 -3 28.73
3 2 -3 28.22
3 2 -3 29.91
-3 -2 3 28.10
-3 -2 3 30.81
-3 -2 3 29.51
-3 -2 3 28.93
2 2 -3 322.62
2 2 -3 340.92
2 2 -3 312.29
2 2 -3 329.02
-2 -2 3 332.18
-2 -2 3 327.41
-2 -2 3 312.36
-2 -2 3 331.85
1 2 -3 -0.13
1 2 -3 -0.04
1 2 -3 0.15
-1 -2 3 0.12
-1 -2 3 0.05
0 2 -3 72.52
0 2 -3 69.48
0 2 -3 76.48
0 2 -3 72.45
0 -2 3 69.14
0 -2 3 76.05
-1 2 -3 57.77
-1 2 -3 64.49
-1 2 -3 61.49
-1 2 -3 61.64
1 -2 3 59.31
1 -2 3 62.74
1 -2 3 58.09
1 -2 3 62.84
-2 2 -3 99.73
-2 2 -3 95.41
-2 2 -3 99.13
-2 2 -3 101.68
2 -2 3 98.45
2 -2 3 95.89
2 -2 3 104.04
2 -2 3 98.31
-3 2 -3 62.69
-3 2 -3 65.62
-3 2 -3 63.85
-3 2 -3 60.03
-3 2 -3 63.52
3 -2 3 63.99
3 -2 3 60.60
3 -2 3 64.99
3 -2 3 64.19
-4 2 -3 -0.11
-4 2 -3 -0.25
-4 2 -3 -0.05
-4 2 -3 0.12
-4 2 -3 -0.09
4 -2 3 -0.12
4 -2 3 0.13
4 -2 3 -0.14
4 -2 3 0.51
-5 2 -3 1.00
-5 2 -3 0.98
-5 2 -3 1.19
-5 2 -3 0.99
5 -2 3 1.09
5 -2 3 0.52
5 -2 3 0.30
5 -2 3 1.40
5 -2 3 1.22
-6 2 -3 0.04
-6 2 -3 -0.43
-6 2 -3 0.28
6 -2 3 -0.28
6 -2 3 0.27
-7 2 -3 11.41
-7 2 -3 9.98
7 1 -3 0.23
-7 -1 3 0.31
-7 -1 3 0.33
6 1 -3 7.45
6 1 -3 7.41
-6 -1 3 8.02
-6 -1 3 8.27
5 1 -3 8.20
5 1 -3 10.10
5 1 -3 8.54
5 1 -3 8.93
5 1 -3 9.72
-5 -1 3 7.22
-5 -1 3 9.47
-5 -1 3 8.35
4 1 -3 1.34
4 1 -3 0.80
4 1 -3 0.72
4 1 -3 1.03
4 1 -3 1.26
4 1 -3 0.86
-4 -1 3 1.03
-4 -1 3 0.97
-4 -1 3 1.28
-4 -1 3 0.92
3 1 -3 59.88
3 1 -3 55.78
3 1 -3 55.85
3 1 -3 54.01
3 1 -3 54.05
-3 -1 3 58.28
-3 -1 3 56.10
-3 -1 3 55.45
2 1 -3 1.67
2 1 -3 1.11
2 1 -3 1.62
2 1 -3 2.27
2 1 -3 1.63
-2 -1 3 1.70
-2 -1 3 2.19
-2 -1 3 1.60
-2 -1 3 1.85
1 1 -3 3.07
1 1 -3 3.21
1 1 -3 3.45
-1 -1 3 3.78
-1 -1 3 3.25
-1 -1 3 3.29
0 1 -3 244.42
0 1 -3 243.94
0 1 -3 231.13
0 -1 3 232.14
0 -1 3 238.71
-1 1 -3 62.45
-1 1 -3 65.24
-1 1 -3 70.10
-1 1 -3 62.04
1 -1 3 62.83
1 -1 3 67.73
1 -1 3 65.78
-2 1 -3 143.28
-2 1 -3 152.34
-2 1 -3 149.27
-2 1 -3 142.29
2 -1 3 145.00
2 -1 3 139.74
2 -1 3 156.04
2 -1 3 147.23
-3 1 -3 71.73
-3 1 -3 74.91
-3 1 -3 74.07
-3 1 -3 72.35
-3 1 -3 68.42
3 -1 3 70.69
3 -1 3 72.30
3 -1 3 70.80
3 -1 3 68.85
-4 1 -3 14.71
-4 1 -3 14.96
-4 1 -3 12.81
-4 1 -3 16.29
-4 1 -3 15.65
4 -1 3 13.53
4 -1 3 13.78
4 -1 3 15.64
4 -1 3 15.10
4 -1 3 13.88
-5 1 -3 4.39
-5 1 -3 3.07
-5 1 -3 4.25
-5 1 -3 4.00
-5 1 -3 3.58
5 -1 3 4.53
5 -1 3 3.92
5 -1 3 3.83
5 -1 3 3.33
-6 1 -3 0.35
-6 1 -3 0.54
6 -1 3 -0.01
-7 1 -3 0.12
-7 1 -3 0.27
7 0 -3 1.45
-7 0 3 0.63
-7 0 3 0.91
6 0 -3 21.94
6 0 -3 23.40
6 0 -3 19.88
6 0 -3 23.44
-6 0 3 22.75
-6 0 3 26.42
-6 0 3 26.75
5 0 -3 1.28
5 0 -3 1.14
5 0 -3 1.10
5 0 -3 1.05
5 0 -3 1.49
5 0 -3 0.95
5 0 -3 1.53
-5 0 3 0.90
-5 0 3 1.05
-5 0 3 1.44
4 0 -3 37.21
4 0 -3 36.66
4 0 -3 35.10
4 0 -3 41.47
4 0 -3 39.61
4 0 -3 34.63
4 0 -3 32.68
-4 0 3 34.98
-4 0 3 33.63
3 0 -3 13.82
3 0 -3 13.90
3 0 -3 15.79
3 0 -3 13.32
3 0 -3 15.56
3 0 -3 14.35
3 0 -3 13.99
-3 0 3 12.52
-3 0 3 14.51
-3 0 3 13.91
2 0 -3 64.99
2 0 -3 66.10
2 0 -3 64.34
2 0 -3 65.39
2 0 -3 65.07
-2 0 3 64.38
-2 0 3 62.39
1 0 -3 39.20
1 0 -3 37.08
1 0 -3 38.55
1 0 -3 37.96
-1 0 3 38.46
-1 0 3 35.77
-1 0 3 38.74
0 0 -3 10.99
0 0 -3 11.38
0 0 -3 9.70
0 0 -3 10.24
0 0 3 10.77
0 0 3 10.63
0 0 3 11.40
0 0 3 10.29
-1 0 -3 501.10
-1 0 -3 508.03
-1 0 -3 528.93
1 0 3 521.09
1 0 3 530.13
1 0 3 507.07
-2 0 -3 119.39
-2 0 -3 120.76
-2 0 -3 117.38
-2 0 -3 121.30
2 0 3 122.46
2 0 3 117.87
2 0 3 121.43
2 0 3 108.54
-3 0 -3 64.06
-3 0 -3 68.23
-3 0 -3 69.84
-3 0 -3 66.59
-3 0 -3 70.53
3 0 3 63.58
3 0 3 69.09
3 0 3 70.42
3 0 3 67.26
-4 0 -3 0.18
-4 0 -3 0.34
-4 0 -3 0.81
-4 0 -3 1.04
4 0 3 0.84
4 0 3 0.59
4 0 3 0.81
-5 0 -3 5.81
-5 0 -3 5.38
-5 0 -3 6.16
5 0 3 6.56
5 0 3 5.61
5 0 3 6.12
-6 0 -3 7.37
-6 0 -3 8.01
-6 0 -3 8.92
-6 0 -3 7.85
6 0 3 9.19
-7 0 -3 0.42
-7 0 -3 0.22
7 -1 -3 1.72
-7 1 3 2.45
6 -1 -3 2.22
6 -1 -3 3.22
6 -1 -3 2.15
6 -1 -3 3.16
-6 1 3 2.39
-6 1 3 2.76
-6 1 3 2.16
5 -1 -3 0.91
5 -1 -3 0.63
5 -1 -3 0.82
5 -1 -3 0.31
5 -1 -3 -0.35
5 -1 -3 0.39
5 -1 -3 0.35
-5 1 3 0.29
-5 1 3 0.25
-5 1 3 0.27
4 -1 -3 142.18
4 -1 -3 137.86
4 -1 -3 135.96
4 -1 -3 132.53
4 -1 -3 121.96
4 -1 -3 133.20
4 -1 -3 136.02
-4 1 3 135.23
-4 1 3 137.46
-4 1 3 119.22
3 -1 -3 137.76
3 -1 -3 140.56
3 -1 -3 127.88
3 -1 -3 126.85
3 -1 -3 136.86
3 -1 -3 133.17
3 -1 -3 132.92
-3 1 3 116.28
-3 1 3 133.63
-3 1 3 139.93
-3 1 3 125.36
2 -1 -3 67.39
2 -1 -3 68.78
2 -1 -3 70.63
2 -1 -3 72.41
2 -1 -3 68.73
2 -1 -3 70.02
2 -1 -3 69.61
-2 1 3 67.36
-2 1 3 67.59
-2 1 3 64.82
1 -1 -3 12.72
1 -1 -3 13.41
1 -1 -3 12.36
1 -1 -3 12.21
-1 1 3 12.05
-1 1 3 11.15
-1 1 3 12.47
-1 1 3 12.57
0 -1 -3 138.84
0 -1 -3 139.79
0 1 3 145.29
0 1 3 138.99
-1 -1 -3 16.95
-1 -1 -3 18.96
1 1 3 20.04
1 1 3 18.38
1 1 3 19.66
-2 -1 -3 3.79
-2 -1 -3 4.91
-2 -1 -3 4.26
-2 -1 -3 4.83
2 1 3 4.92
2 1 3 5.29
2 1 3 4.60
-3 -1 -3 2.49
-3 -1 -3 3.20
-3 -1 -3 2.85
-3 -1 -3 2.98
3 1 3 3.06
3 1 3 3.57
3 1 3 2.93
-4 -1 -3 23.52
-4 -1 -3 22.85
-4 -1 -3 20.19
-4 -1 -3 22.07
4 1 3 23.00
4 1 3 21.73
4 1 3 22.63
-5 -1 -3 2.84
-5 -1 -3 2.69
-5 -1 -3 2.17
-5 -1 -3 3.14
5 1 3 2.88
5 1 3 3.28
-6 -1 -3 13.41
-6 -1 -3 11.16
-6 -1 -3 14.53
6 1 3 12.23
7 -2 -3 -0.08
-7 2 3 0.15
6 -2 -3 0.63
6 -2 -3 0.46
-6 2 3 0.88
-6 2 3 0.57
-6 2 3 0.75
5 -2 -3 20.15
5 -2 -3 16.87
5 -2 -3 17.90
5 -2 -3 18.82
5 -2 -3 17.88
5 -2 -3 17.84
-5 2 3 16.88
-5 2 3 19.96
-5 2 3 16.23
4 -2 -3 18.77
4 -2 -3 19.10
4 -2 -3 21.44
4 -2 -3 20.61
4 -2 -3 18.43
4 -2 -3 21.27
4 -2 -3 20.79
-4 2 3 18.46
-4 2 3 18.15
-4 2 3 20.44
3 -2 -3 30.13
3 -2 -3 30.95
3 -2 -3 28.15
3 -2 -3 30.95
3 -2 -3 32.26
3 -2 -3 30.26
-3 2 3 29.37
-3 2 3 28.96
-3 2 3 30.78
-3 2 3 30.13
2 -2 -3 2.09
2 -2 -3 1.53
2 -2 -3 2.10
2 -2 -3 2.12
2 -2 -3 1.87
2 -2 -3 2.29
-2 2 3 2.20
-2 2 3 1.63
-2 2 3 1.93
-2 2 3 1.79
1 -2 -3 365.48
1 -2 -3 372.55
-1 2 3 330.92
-1 2 3 381.23
-1 2 3 355.75
-1 2 3 361.47
0 -2 -3 31.21
0 -2 -3 30.84
0 2 3 30.15
0 2 3 30.84
0 2 3 29.84
-1 -2 -3 60.92
-1 -2 -3 61.09
-1 -2 -3 62.13
1 2 3 61.66
1 2 3 63.68
-2 -2 -3 6.04
-2 -2 -3 5.03
-2 -2 -3 5.46
2 2 3 5.00
2 2 3 4.52
2 2 3 5.04
-3 -2 -3 93.99
-3 -2 -3 100.44
-3 -2 -3 101.88
-3 -2 -3 87.51
-3 -2 -3 92.56
3 2 3 94.36
3 2 3 98.37
3 2 3 98.04
-4 -2 -3 0.12
-4 -2 -3 0.73
-4 -2 -3 0.33
-4 -2 -3 0.58
4 2 3 0.94
4 2 3 0.01
4 2 3 0.33
-5 -2 -3 6.47
-5 -2 -3 5.10
-5 -2 -3 6.85
-5 -2 -3 5.90
5 2 3 6.38
-6 -2 -3 11.28
-6 -2 -3 9.44
6 2 3 9.07
7 -3 -3 0.91
-7 3 3 1.27
6 -3 -3 10.56
-6 3 3 11.55
-6 3 3 11.91
-6 3 3 11.82
5 -3 -3 32.26
5 -3 -3 27.38
5 -3 -3 31.85
5 -3 -3 27.96
5 -3 -3 31.08
5 -3 -3 28.49
-5 3 3 30.42
-5 3 3 30.44
-5 3 3 28.83
4 -3 -3 58.89
4 -3 -3 51.37
4 -3 -3 55.30
4 -3 -3 55.57
4 -3 -3 50.90
-4 3 3 50.49
-4 3 3 48.30
-4 3 3 52.19
3 -3 -3 16.86
3 -3 -3 17.44
3 -3 -3 17.56
3 -3 -3 19.28
3 -3 -3 19.55
-3 3 3 16.87
-3 3 3 18.97
-3 3 3 18.13
2 -3 -3 15.73
2 -3 -3 15.79
2 -3 -3 15.77
2 -3 -3 16.36
2 -3 -3 16.50
-2 3 3 17.58
-2 3 3 14.80
-2 3 3 15.80
-2 3 3 14.51
1 -3 -3 0.17
1 -3 -3 0.08
1 -3 -3 0.14
1 -3 -3 0.17
1 -3 -3 -0.04
-1 3 3 0.11
-1 3 3 0.29
-1 3 3 0.28
-1 3 3 0.38
0 -3 -3 45.78
0 -3 -3 44.25
0 -3 -3 47.78
0 3 3 41.12
0 3 3 41.36
0 3 3 43.18
-1 -3 -3 10.46
-1 -3 -3 10.26
-1 -3 -3 10.53
1 3 3 10.68
1 3 3 10.02
-2 -3 -3 1.31
-2 -3 -3 1.24
-2 -3 -3 2.38
2 3 3 2.32
2 3 3 1.25
-3 -3 -3 1.87
-3 -3 -3 1.18
-3 -3 -3 1.52
-3 -3 -3 2.39
-3 -3 -3 1.92
3 3 3 1.46
3 3 3 2.43
3 3 3 1.67
-4 -3 -3 8.03
-4 -3 -3 9.51
-4 -3 -3 7.80
-4 -3 -3 9.04
-4 -3 -3 8.79
4 3 3 8.55
4 3 3 8.48
4 3 3 8.33
-5 -3 -3 0.71
-5 -3 -3 0.06
-5 -3 -3 0.57
-5 -3 -3 0.23
5 3 3 0.95
-6 -3 -3 6.10
-6 -3 -3 4.93
6 -4 -3 0.66
-6 4 3 -0.10
-6 4 3 -0.18
5 -4 -3 2.09
5 -4 -3 3.47
5 -4 -3 2.92
-5 4 3 3.22
-5 4 3 2.78
-5 4 3 2.86
4 -4 -3 -0.11
4 -4 -3 0.00
4 -4 -3 -0.12
4 -4 -3 0.33
4 -4 -3 -0.16
-4 4 3 0.22
-4 4 3 0.04
-4 4 3 0.03
3 -4 -3 184.42
3 -4 -3 177.95
3 -4 -3 181.00
3 -4 -3 182.23
3 -4 -3 180.55
-3 4 3 173.75
-3 4 3 180.00
-3 4 3 184.54
-3 4 3 172.66
2 -4 -3 64.15
2 -4 -3 59.64
2 -4 -3 57.25
2 -4 -3 58.04
-2 4 3 58.26
-2 4 3 55.11
-2 4 3 59.65
-2 4 3 56.28
1 -4 -3 196.67
1 -4 -3 205.32
1 -4 -3 203.13
-1 4 3 189.67
-1 4 3 200.37
-1 4 3 205.55
-1 4 3 194.86
0 -4 -3 33.14
0 -4 -3 31.74
0 4 3 33.40
0 4 3 34.89
0 4 3 32.23
-1 -4 -3 23.51
-1 -4 -3 26.08
-1 -4 -3 23.82
1 4 3 23.10
1 4 3 24.07
-2 -4 -3 1.22
-2 -4 -3 1.63
-2 -4 -3 1.84
2 4 3 2.04
-3 -4 -3 0.37
-3 -4 -3 0.03
-3 -4 -3 0.56
-3 -4 -3 0.90
3 4 3 0.55
3 4 3 1.12
-4 -4 -3 1.03
-4 -4 -3 1.16
-4 -4 -3 1.11
-4 -4 -3 0.96
-4 -4 -3 1.40
4 4 3 1.34
4 4 3 0.66
-5 -4 -3 -0.24
-5 -4 -3 -0.02
-5 -4 -3 0.05
5 4 3 0.27
6 -5 -3 0.29
-6 5 3 0.09
-6 5 3 0.27
5 -5 -3 46.45
5 -5 -3 52.20
-5 5 3 50.45
-5 5 3 52.39
4 -5 -3 0.25
4 -5 -3 0.60
4 -5 -3 0.63
4 -5 -3 -0.21
4 -5 -3 0.53
-4 5 3 0.23
-4 5 3 0.15
-4 5 3 0.94
3 -5 -3 42.40
3 -5 -3 35.10
3 -5 -3 41.58
3 -5 -3 36.53
-3 5 3 36.15
-3 5 3 38.73
-3 5 3 40.06
-3 5 3 39.32
2 -5 -3 0.25
2 -5 -3 0.21
2 -5 -3 -0.07
2 -5 -3 0.10
-2 5 3 0.12
-2 5 3 0.23
-2 5 3 0.31
-2 5 3 -0.04
1 -5 -3 12.75
1 -5 -3 10.80
1 -5 -3 10.42
-1 5 3 10.98
-1 5 3 9.10
-1 5 3 9.28
-1 5 3 11.31
0 -5 -3 2.16
0 -5 -3 1.75
0 -5 -3 2.32
0 -5 -3 1.17
0 5 3 1.72
0 5 3 0.81
0 5 3 1.98
-1 -5 -3 7.68
-1 -5 -3 7.79
-1 -5 -3 7.28
1 5 3 9.04
1 5 3 7.14
-2 -5 -3 47.86
-2 -5 -3 45.09
-2 -5 -3 46.63
2 5 3 47.40
2 5 3 44.55
-3 -5 -3 0.27
-3 -5 -3 0.56
-3 -5 -3 0.09
-3 -5 -3 0.45
3 5 3 -0.33
-4 -5 -3 -0.50
-4 -5 -3 0.35
-4 -5 -3 -0.05
-4 -5 -3 0.21
4 5 3 1.01
4 5 3 -1.04
-5 -5 -3 2.86
-5 -5 -3 2.51
5 5 3 1.91
5 -6 -3 1.72
-5 6 3 1.62
-5 6 3 1.08
4 -6 -3 -0.49
4 -6 -3 0.02
4 -6 -3 0.01
-4 6 3 -0.01
-4 6 3 -0.27
-4 6 3 0.35
3 -6 -3 39.55
3 -6 -3 38.73
3 -6 -3 34.94
-3 6 3 35.55
-3 6 3 37.47
-3 6 3 42.29
-3 6 3 37.73
2 -6 -3 62.36
2 -6 -3 66.12
2 -6 -3 56.41
-2 6 3 63.60
-2 6 3 63.90
-2 6 3 64.84
-2 6 3 54.74
1 -6 -3 1.05
1 -6 -3 0.35
1 -6 -3 0.37
-1 6 3 1.09
-1 6 3 1.02
-1 6 3 0.60
-1 6 3 0.85
0 -6 -3 82.28
0 -6 -3 78.88
0 -6 -3 82.99
0 6 3 83.37
0 6 3 86.40
0 6 3 87.04
-1 -6 -3 4.42
-1 -6 -3 4.49
-1 -6 -3 4.88
-1 -6 -3 3.51
1 6 3 4.76
1 6 3 3.95
1 6 3 5.14
-2 -6 -3 12.73
-2 -6 -3 12.74
-2 -6 -3 12.92
2 6 3 13.15
-3 -6 -3 1.41
-3 -6 -3 1.85
-3 -6 -3 2.47
3 6 3 2.66
-4 -6 -3 0.26
-4 -6 -3 0.24
4 6 3 -0.16
4 -7 -3 1.96
-4 7 3 1.73
-4 7 3 2.05
3 -7 -3 13.29
3 -7 -3 14.99
-3 7 3 12.55
-3 7 3 15.23
-3 7 3 18.09
-3 7 3 15.27
2 -7 -3 50.74
2 -7 -3 49.04
-2 7 3 44.87
-2 7 3 45.87
-2 7 3 54.02
-2 7 3 48.99
1 -7 -3 0.25
1 -7 -3 0.16
-1 7 3 0.48
-1 7 3 0.97
-1 7 3 0.35
-1 7 3 -0.07
0 -7 -3 2.85
0 -7 -3 3.24
0 7 3 3.20
0 7 3 2.18
0 7 3 2.71
-1 -7 -3 7.15
-1 -7 -3 9.76
1 7 3 9.97
1 7 3 9.44
-2 -7 -3 24.55
-2 -7 -3 23.15
-2 -7 -3 25.45
2 7 3 25.67
2 7 3 24.77
-3 -7 -3 1.36
-3 -7 -3 -0.02
3 7 3 0.24
3 -8 -3 6.00
-3 8 3 4.85
-3 8 3 4.77
-3 8 3 4.21
2 -8 -3 13.79
2 -8 -3 15.20
-2 8 3 14.20
-2 8 3 17.31
-2 8 3 15.75
1 -8 -3 5.16
1 -8 -3 5.43
-1 8 3 4.82
-1 8 3 4.40
-1 8 3 4.25
0 -8 -3 25.47
0 -8 -3 28.21
0 8 3 24.92
0 8 3 26.09
0 8 3 28.44
-1 -8 -3 14.56
1 8 3 15.62
1 8 3 13.90
-2 -8 -3 0.39
2 8 3 -0.45
2 8 3 0.14
1 9 -4 23.46
1 9 -4 24.94
-1 -9 4 24.40
0 9 -4 0.30
0 9 -4 1.12
0 -9 4 1.03
-1 9 -4 4.09
-1 9 -4 2.45
1 -9 4 3.16
1 -9 4 2.70
-2 9 -4 0.66
-2 9 -4 0.43
2 -9 4 0.72
2 -9 4 1.31
3 8 -4 12.50
-3 -8 4 15.60
2 8 -4 1.94
2 8 -4 2.75
2 8 -4 2.15
-2 -8 4 2.12
1 8 -4 0.29
1 8 -4 1.44
1 8 -4 0.35
-1 -8 4 0.59
0 8 -4 8.09
0 8 -4 11.05
0 8 -4 9.98
0 -8 4 8.15
-1 8 -4 3.26
-1 8 -4 3.99
1 -8 4 4.05
1 -8 4 3.52
-2 8 -4 17.07
-2 8 -4 18.63
2 -8 4 11.81
2 -8 4 13.28
-3 8 -4 0.57
-3 8 -4 0.26
3 -8 4 0.85
3 -8 4 0.76
-4 8 -4 4.73
-4 8 -4 4.47
4 -8 4 3.77
4 -8 4 4.37
4 7 -4 1.40
-4 -7 4 1.25
3 7 -4 11.52
-3 -7 4 7.76
-3 -7 4 12.44
2 7 -4 28.18
2 7 -4 22.01
-2 -7 4 25.06
-2 -7 4 25.78
1 7 -4 94.59
1 7 -4 92.61
1 7 -4 91.91
1 7 -4 94.48
-1 -7 4 93.85
-1 -7 4 93.63
0 7 -4 -0.26
0 7 -4 0.65
0 7 -4 0.88
0 7 -4 0.45
0 -7 4 0.09
0 -7 4 -0.23
-1 7 -4 0.11
-1 7 -4 0.10
-1 7 -4 0.09
-1 7 -4 0.51
-1 7 -4 0.27
1 -7 4 0.68
-2 7 -4 1.10
-2 7 -4 0.84
-2 7 -4 1.03
-2 7 -4 1.35
-2 7 -4 0.66
2 -7 4 0.87
2 -7 4 0.70
-3 7 -4 17.10
-3 7 -4 16.85
-3 7 -4 15.59
-3 7 -4 17.07
3 -7 4 18.76
3 -7 4 18.32
-4 7 -4 0.37
-4 7 -4 -0.14
4 -7 4 -0.29
4 -7 4 0.21
-5 7 -4 3.60
-5 7 -4 4.15
5 -7 4 2.11
-5 -6 4 9.53
-5 -6 4 10.30
4 6 -4 1.65
-4 -6 4 0.84
-4 -6 4 1.02
-4 -6 4 1.69
3 6 -4 9.61
3 6 -4 9.74
-3 -6 4 9.70
-3 -6 4 10.58
2 6 -4 19.13
2 6 -4 19.70
2 6 -4 19.76
-2 -6 4 17.73
-2 -6 4 23.77
1 6 -4 10.31
1 6 -4 11.68
1 6 -4 12.43
1 6 -4 12.64
-1 -6 4 12.25
-1 -6 4 11.92
0 6 -4 0.52
0 6 -4 0.86
0 6 -4 0.77
0 6 -4 0.67
0 6 -4 1.09
0 6 -4 0.87
0 -6 4 1.44
0 -6 4 0.71
0 -6 4 0.97
-1 6 -4 1.34
-1 6 -4 1.14
-1 6 -4 1.96
-1 6 -4 1.16
-1 6 -4 1.13
1 -6 4 1.56
1 -6 4 1.60
1 -6 4 1.41
-2 6 -4 1.70
-2 6 -4 1.69
-2 6 -4 1.96
-2 6 -4 1.62
2 -6 4 2.23
2 -6 4 2.41
2 -6 4 1.41
2 -6 4 2.26
-3 6 -4 2.49
-3 6 -4 4.70
-3 6 -4 3.79
-3 6 -4 4.26
3 -6 4 3.45
3 -6 4 2.37
3 -6 4 3.61
-4 6 -4 1.66
-4 6 -4 1.62
-4 6 -4 1.92
-4 6 -4 1.86
4 -6 4 2.84
4 -6 4 1.35
4 -6 4 1.82
-5 6 -4 2.31
-5 6 -4 0.60
-5 6 -4 0.61
5 -6 4 0.47
5 -6 4 1.14
-6 -5 4 1.74
-6 -5 4 1.60
5 5 -4 2.92
-5 -5 4 1.93
-5 -5 4 2.17
-5 -5 4 2.78
4 5 -4 0.20
-4 -5 4 -0.33
-4 -5 4 -0.15
-4 -5 4 0.01
3 5 -4 4.51
3 5 -4 3.91
3 5 -4 4.29
-3 -5 4 3.83
-3 -5 4 5.25
2 5 -4 122.27
2 5 -4 110.52
2 5 -4 120.43
-2 -5 4 113.81
-2 -5 4 105.85
1 5 -4 56.38
1 5 -4 52.52
1 5 -4 51.99
1 5 -4 53.46
-1 -5 4 55.53
-1 -5 4 56.42
0 5 -4 14.26
0 5 -4 16.22
0 5 -4 15.44
0 5 -4 13.21
0 5 -4 14.18
0 -5 4 13.10
0 -5 4 14.33
0 -5 4 14.38
-1 5 -4 58.96
-1 5 -4 55.98
-1 5 -4 54.98
-1 5 -4 57.04
1 -5 4 54.36
1 -5 4 60.06
1 -5 4 60.32
-2 5 -4 15.78
-2 5 -4 13.30
-2 5 -4 14.33
-2 5 -4 12.63
2 -5 4 12.83
2 -5 4 14.76
2 -5 4 13.55
2 -5 4 12.65
2 -5 4 14.44
-3 5 -4 96.99
-3 5 -4 102.67
-3 5 -4 107.94
-3 5 -4 97.24
3 -5 4 106.82
3 -5 4 99.18
3 -5 4 97.85
3 -5 4 101.16
3 -5 4 103.52
-4 5 -4 2.00
-4 5 -4 1.87
-4 5 -4 1.33
-4 5 -4 1.30
4 -5 4 1.68
4 -5 4 1.04
4 -5 4 2.15
-5 5 -4 22.02
-5 5 -4 19.94
-5 5 -4 19.60
-5 5 -4 19.83
5 -5 4 21.41
5 -5 4 18.50
5 -5 4 19.12
-6 5 -4 1.15
-6 5 -4 2.01
-6 5 -4 0.92
6 -5 4 1.71
-6 -4 4 0.52
-6 -4 4 1.28
-6 -4 4 0.57
5 4 -4 25.74
-5 -4 4 28.75
-5 -4 4 28.44
-5 -4 4 30.15
-5 -4 4 31.65
4 4 -4 -0.23
4 4 -4 0.22
4 4 -4 -0.02
-4 -4 4 0.22
-4 -4 4 -0.22
-4 -4 4 0.00
-4 -4 4 0.62
3 4 -4 0.10
3 4 -4 0.35
3 4 -4 0.29
-3 -4 4 0.34
-3 -4 4 0.69
2 4 -4 5.23
2 4 -4 5.01
2 4 -4 5.38
-2 -4 4 5.36
-2 -4 4 5.65
1 4 -4 74.43
1 4 -4 83.32
1 4 -4 81.98
1 4 -4 82.68
-1 -4 4 84.86
-1 -4 4 73.23
0 4 -4 25.12
0 4 -4 26.87
0 4 -4 25.12
0 4 -4 23.28
0 -4 4 25.14
0 -4 4 21.87
-1 4 -4 8.87
-1 4 -4 6.83
-1 4 -4 8.79
-1 4 -4 6.28
1 -4 4 7.27
1 -4 4 8.63
1 -4 4 7.32
1 -4 4 7.64
-2 4 -4 12.90
-2 4 -4 11.27
-2 4 -4 10.16
-2 4 -4 10.13
2 -4 4 10.83
2 -4 4 11.72
2 -4 4 11.62
2 -4 4 11.72
2 -4 4 11.19
-3 4 -4 1.02
-3 4 -4 0.32
-3 4 -4 1.07
-3 4 -4 0.67
3 -4 4 0.87
3 -4 4 0.48
3 -4 4 1.03
3 -4 4 1.07
3 -4 4 0.44
-4 4 -4 13.56
-4 4 -4 14.52
-4 4 -4 13.82
-4 4 -4 16.20
-4 4 -4 14.84
4 -4 4 16.25
4 -4 4 15.59
4 -4 4 13.03
4 -4 4 14.93
4 -4 4 15.80
-5 4 -4 2.27
-5 4 -4 2.06
-5 4 -4 2.72
-5 4 -4 2.23
5 -4 4 2.76
5 -4 4 2.66
5 -4 4 2.74
-6 4 -4 14.66
-6 4 -4 16.52
-6 4 -4 14.48
6 -4 4 15.02
-6 -3 4 3.80
-6 -3 4 3.20
-6 -3 4 4.27
5 3 -4 0.76
5 3 -4 1.07
-5 -3 4 1.21
-5 -3 4 0.87
-5 -3 4 0.98
-5 -3 4 0.89
4 3 -4 4.81
4 3 -4 4.27
4 3 -4 3.98
4 3 -4 4.02
-4 -3 4 4.55
-4 -3 4 4.23
-4 -3 4 4.83
3 3 -4 163.00
3 3 -4 155.15
3 3 -4 157.68
3 3 -4 177.93
-3 -3 4 152.21
-3 -3 4 149.82
-3 -3 4 161.01
-3 -3 4 159.26
2 3 -4 79.52
2 3 -4 79.64
2 3 -4 75.45
2 3 -4 77.95
-2 -3 4 72.63
-2 -3 4 76.68
1 3 -4 7.10
1 3 -4 6.90
1 3 -4 6.60
1 3 -4 7.34
-1 -3 4 8.16
-1 -3 4 7.26
0 3 -4 0.20
0 3 -4 -0.13
0 3 -4 0.24
0 3 -4 0.40
0 -3 4 0.04
0 -3 4 0.60
-1 3 -4 104.94
-1 3 -4 106.69
-1 3 -4 100.51
-1 3 -4 104.79
1 -3 4 108.13
1 -3 4 110.34
1 -3 4 105.76
1 -3 4 100.04
1 -3 4 103.15
-2 3 -4 115.87
-2 3 -4 115.68
-2 3 -4 111.21
-2 3 -4 112.65
2 -3 4 117.62
2 -3 4 114.92
2 -3 4 111.53
2 -3 4 122.36
-3 3 -4 31.58
-3 3 -4 33.17
-3 3 -4 35.47
-3 3 -4 32.94
3 -3 4 34.05
3 -3 4 31.66
3 -3 4 33.30
3 -3 4 32.40
-4 3 -4 0.10
-4 3 -4 -0.16
-4 3 -4 0.39
-4 3 -4 0.18
-4 3 -4 -0.18
4 -3 4 0.31
4 -3 4 0.59
4 -3 4 0.17
4 -3 4 0.12
-5 3 -4 8.87
-5 3 -4 8.58
-5 3 -4 8.22
-5 3 -4 7.49
5 -3 4 6.76
5 -3 4 9.56
-6 3 -4 0.55
-6 3 -4 1.11
-6 3 -4 0.78
-7 -2 4 1.48
-7 -2 4 1.69
6 2 -4 1.02
6 2 -4 1.05
-6 -2 4 0.75
-6 -2 4 1.49
-6 -2 4 0.91
5 2 -4 37.13
5 2 -4 38.71
5 2 -4 34.84
5 2 -4 37.42
5 2 -4 34.83
-5 -2 4 33.73
-5 -2 4 35.25
-5 -2 4 38.67
-5 -2 4 37.22
4 2 -4 21.56
4 2 -4 22.49
4 2 -4 23.60
4 2 -4 25.15
-4 -2 4 23.00
-4 -2 4 23.37
-4 -2 4 22.04
-4 -2 4 21.48
3 2 -4 -0.06
3 2 -4 -0.11
3 2 -4 0.13
3 2 -4 0.18
-3 -2 4 -0.31
-3 -2 4 -0.11
-3 -2 4 -0.09
-3 -2 4 0.27
2 2 -4 21.68
2 2 -4 23.96
2 2 -4 24.77
-2 -2 4 20.96
-2 -2 4 22.96
-2 -2 4 23.44
1 2 -4 117.82
1 2 -4 121.77
1 2 -4 119.59
-1 -2 4 117.80
-1 -2 4 124.88
0 2 -4 141.07
0 2 -4 138.57
0 2 -4 142.10
0 -2 4 132.91
0 -2 4 141.05
0 -2 4 142.40
-1 2 -4 57.32
-1 2 -4 58.93
-1 2 -4 56.99
-1 2 -4 59.68
1 -2 4 59.74
1 -2 4 59.58
1 -2 4 56.46
-2 2 -4 24.82
-2 2 -4 23.78
-2 2 -4 26.25
-2 2 -4 23.40
2 -2 4 21.97
2 -2 4 25.05
2 -2 4 26.11
2 -2 4 26.03
-3 2 -4 42.74
-3 2 -4 41.02
-3 2 -4 39.10
-3 2 -4 39.82
3 -2 4 39.92
3 -2 4 42.11
3 -2 4 41.03
3 -2 4 40.69
-4 2 -4 58.83
-4 2 -4 55.38
-4 2 -4 60.44
-4 2 -4 58.87
-4 2 -4 58.01
4 -2 4 58.42
4 -2 4 58.26
4 -2 4 59.48
4 -2 4 54.74
-5 2 -4 25.13
-5 2 -4 23.76
-5 2 -4 23.71
-5 2 -4 22.88
-5 2 -4 22.58
5 -2 4 23.20
5 -2 4 22.32
5 -2 4 26.49
-6 2 -4 1.06
-6 2 -4 1.12
-6 2 -4 0.55
6 -2 4 0.78
7 1 -4 16.83
-7 -1 4 15.23
-7 -1 4 18.03
6 1 -4 -0.27
6 1 -4 0.37
-6 -1 4 0.32
-6 -1 4 0.06
-6 -1 4 -0.02
5 1 -4 0.69
5 1 -4 0.69
5 1 -4 0.37
5 1 -4 0.70
5 1 -4 0.73
5 1 -4 0.54
5 1 -4 0.76
-5 -1 4 0.99
-5 -1 4 1.06
4 1 -4 76.88
4 1 -4 70.87
4 1 -4 69.12
4 1 -4 72.28
4 1 -4 70.73
4 1 -4 72.41
-4 -1 4 68.34
-4 -1 4 73.02
-4 -1 4 69.92
3 1 -4 215.52
3 1 -4 219.80
3 1 -4 227.11
3 1 -4 227.62
3 1 -4 229.81
3 1 -4 213.75
-3 -1 4 207.63
-3 -1 4 217.87
-3 -1 4 218.27
2 1 -4 73.41
2 1 -4 70.79
2 1 -4 71.35
2 1 -4 70.19
2 1 -4 71.06
-2 -1 4 74.06
-2 -1 4 68.10
-2 -1 4 67.61
1 1 -4 68.63
1 1 -4 67.21
1 1 -4 69.42
-1 -1 4 68.74
-1 -1 4 63.91
-1 -1 4 66.48
-1 -1 4 67.77
0 1 -4 130.22
0 1 -4 135.42
0 1 -4 132.45
0 -1 4 138.18
0 -1 4 130.59
-1 1 -4 19.30
-1 1 -4 17.72
-1 1 -4 16.24
1 -1 4 16.19
1 -1 4 18.42
1 -1 4 17.36
-2 1 -4 46.42
-2 1 -4 47.99
-2 1 -4 44.31
-2 1 -4 46.66
2 -1 4 44.78
2 -1 4 44.69
2 -1 4 47.44
-3 1 -4 2.67
-3 1 -4 3.43
-3 1 -4 2.70
-3 1 -4 2.71
-3 1 -4 2.89
3 -1 4 3.26
3 -1 4 4.43
3 -1 4 2.86
-4 1 -4 1.98
-4 1 -4 2.54
-4 1 -4 2.06
-4 1 -4 2.52
-4 1 -4 2.25
4 -1 4 2.06
4 -1 4 3.02
4 -1 4 2.49
4 -1 4 2.13
-5 1 -4 14.48
-5 1 -4 14.78
-5 1 -4 17.31
-5 1 -4 16.30
-5 1 -4 13.75
5 -1 4 15.22
5 -1 4 13.92
5 -1 4 14.32
5 -1 4 14.11
-6 1 -4 0.27
6 -1 4 0.37
-7 1 -4 8.41
7 0 -4 2.84
-7 0 4 2.18
6 0 -4 0.07
6 0 -4 0.45
6 0 -4 0.12
6 0 -4 -0.30
-6 0 4 0.19
-6 0 4 0.03
-6 0 4 0.12
5 0 -4 1.15
5 0 -4 1.08
5 0 -4 1.22
5 0 -4 0.79
5 0 -4 1.35
5 0 -4 0.82
5 0 -4 1.11
-5 0 4 0.84
-5 0 4 0.89
-5 0 4 0.99
4 0 -4 5.88
4 0 -4 7.72
4 0 -4 8.21
4 0 -4 7.92
4 0 -4 6.78
4 0 -4 7.92
4 0 -4 7.11
-4 0 4 5.84
-4 0 4 6.66
3 0 -4 75.70
3 0 -4 69.85
3 0 -4 67.81
3 0 -4 72.54
3 0 -4 71.55
-3 0 4 72.24
2 0 -4 27.63
2 0 -4 26.76
2 0 -4 26.30
2 0 -4 28.35
-2 0 4 24.73
-2 0 4 27.24
1 0 -4 238.70
1 0 -4 244.74
1 0 -4 242.82
1 0 -4 240.01
-1 0 4 235.05
-1 0 4 235.99
-1 0 4 237.38
-1 0 4 224.95
0 0 -4 423.92
0 0 -4 405.96
0 0 -4 415.42
0 0 4 427.61
0 0 4 412.09
0 0 4 410.28
-1 0 -4 400.10
-1 0 -4 397.46
-1 0 -4 395.24
1 0 4 395.21
1 0 4 410.32
1 0 4 404.46
-2 0 -4 1.35
-2 0 -4 1.50
-2 0 -4 1.15
-2 0 -4 1.36
2 0 4 1.60
2 0 4 1.53
2 0 4 1.01
-3 0 -4 8.71
-3 0 -4 10.72
-3 0 -4 10.45
-3 0 -4 9.91
-3 0 -4 10.77
3 0 4 9.74
3 0 4 8.86
3 0 4 10.29
-4 0 -4 7.47
-4 0 -4 8.52
-4 0 -4 8.24
-4 0 -4 7.48
4 0 4 8.20
4 0 4 7.64
4 0 4 9.04
-5 0 -4 3.67
-5 0 -4 3.56
-5 0 -4 4.25
-5 0 -4 4.27
5 0 4 3.79
5 0 4 4.46
5 0 4 2.99
-6 0 -4 1.90
-6 0 -4 1.46
6 0 4 1.83
7 -1 -4 19.24
-7 1 4 17.99
6 -1 -4 24.20
6 -1 -4 25.89
6 -1 -4 21.28
-6 1 4 24.09
5 -1 -4 0.87
5 -1 -4 0.63
5 -1 -4 0.75
5 -1 -4 1.08
5 -1 -4 0.43
-5 1 4 0.77
4 -1 -4 117.33
4 -1 -4 114.28
4 -1 -4 118.03
4 -1 -4 125.41
4 -1 -4 118.89
-4 1 4 113.38
3 -1 -4 23.73
3 -1 -4 22.08
3 -1 -4 21.27
3 -1 -4 22.92
3 -1 -4 22.13
2 -1 -4 142.89
2 -1 -4 143.62
2 -1 -4 140.95
2 -1 -4 146.04
2 -1 -4 131.49
2 -1 -4 147.43
-2 1 4 141.89
-2 1 4 132.15
1 -1 -4 17.58
1 -1 -4 17.33
1 -1 -4 17.44
-1 1 4 18.77
-1 1 4 17.72
-1 1 4 18.38
0 -1 -4 16.14
0 -1 -4 15.67
0 1 4 15.87
0 1 4 16.49
-1 -1 -4 55.92
-1 -1 -4 56.28
1 1 4 54.01
1 1 4 53.04
1 1 4 55.05
-2 -1 -4 173.40
-2 -1 -4 176.73
-2 -1 -4 180.66
2 1 4 180.92
2 1 4 176.93
2 1 4 174.42
-3 -1 -4 8.73
-3 -1 -4 10.00
-3 -1 -4 9.07
-3 -1 -4 9.28
3 1 4 9.68
3 1 4 8.30
3 1 4 9.15
-4 -1 -4 34.37
-4 -1 -4 33.94
-4 -1 -4 35.56
-4 -1 -4 38.53
4 1 4 34.83
4 1 4 35.97
4 1 4 35.96
-5 -1 -4 7.75
-5 -1 -4 9.52
-5 -1 -4 11.57
-5 -1 -4 10.59
5 1 4 9.61
5 1 4 10.42
-6 -1 -4 0.50
-6 -1 -4 -0.22
-6 -1 -4 -0.13
6 1 4 0.20
7 -2 -4 2.10
-7 2 4 2.93
6 -2 -4 0.02
-6 2 4 -0.09
5 -2 -4 15.54
5 -2 -4 17.04
5 -2 -4 17.53
5 -2 -4 18.69
5 -2 -4 17.11
5 -2 -4 18.32
5 -2 -4 15.20
-5 2 4 17.97
-5 2 4 14.03
-5 2 4 17.56
4 -2 -4 25.19
4 -2 -4 25.72
4 -2 -4 26.25
4 -2 -4 24.36
4 -2 -4 28.95
4 -2 -4 26.30
4 -2 -4 25.06
-4 2 4 26.35
-4 2 4 23.87
-4 2 4 24.48
-4 2 4 25.85
3 -2 -4 27.72
3 -2 -4 29.16
3 -2 -4 29.45
3 -2 -4 28.55
3 -2 -4 28.53
3 -2 -4 27.00
-3 2 4 29.09
-3 2 4 24.69
-3 2 4 28.44
2 -2 -4 0.90
2 -2 -4 1.39
2 -2 -4 0.81
2 -2 -4 1.02
2 -2 -4 1.31
2 -2 -4 0.87
-2 2 4 0.88
-2 2 4 1.09
-2 2 4 1.06
-2 2 4 0.74
1 -2 -4 104.60
1 -2 -4 107.48
1 -2 -4 109.15
-1 2 4 109.53
-1 2 4 109.86
-1 2 4 106.08
-1 2 4 102.81
0 -2 -4 17.76
0 -2 -4 16.36
0 2 4 16.89
0 2 4 16.29
0 2 4 17.15
-1 -2 -4 1.99
-1 -2 -4 2.81
-1 -2 -4 2.22
1 2 4 2.29
1 2 4 2.65
-2 -2 -4 14.79
-2 -2 -4 14.63
-2 -2 -4 15.20
2 2 4 17.08
2 2 4 14.04
2 2 4 16.34
-3 -2 -4 39.36
-3 -2 -4 41.90
-3 -2 -4 40.13
-3 -2 -4 35.47
-3 -2 -4 37.14
3 2 4 40.11
3 2 4 39.32
3 2 4 42.00
-4 -2 -4 2.88
-4 -2 -4 2.34
-4 -2 -4 3.22
-4 -2 -4 1.79
4 2 4 2.41
4 2 4 2.42
4 2 4 2.02
-5 -2 -4 31.36
-5 -2 -4 30.63
-5 -2 -4 35.52
-5 -2 -4 32.17
5 2 4 31.65
5 2 4 35.78
-6 -2 -4 1.58
-6 -2 -4 0.68
6 2 4 0.82
7 -3 -4 6.63
6 -3 -4 44.09
-6 3 4 33.98
-6 3 4 49.19
5 -3 -4 1.16
5 -3 -4 1.42
5 -3 -4 1.60
5 -3 -4 1.13
5 -3 -4 0.93
5 -3 -4 0.84
-5 3 4 1.76
-5 3 4 1.67
-5 3 4 1.73
4 -3 -4 297.65
4 -3 -4 319.23
4 -3 -4 306.57
4 -3 -4 311.59
-4 3 4 276.06
-4 3 4 287.94
-4 3 4 285.61
3 -3 -4 13.69
3 -3 -4 12.70
3 -3 -4 13.23
3 -3 -4 14.62
3 -3 -4 12.52
3 -3 -4 14.48
-3 3 4 13.72
-3 3 4 13.87
-3 3 4 14.23
-3 3 4 11.75
2 -3 -4 1.02
2 -3 -4 1.07
2 -3 -4 1.56
2 -3 -4 1.07
2 -3 -4 1.61
-2 3 4 1.65
-2 3 4 1.42
-2 3 4 1.40
1 -3 -4 2.44
1 -3 -4 2.43
1 -3 -4 2.35
-1 3 4 2.13
-1 3 4 2.00
-1 3 4 2.85
-1 3 4 2.32
0 -3 -4 85.84
0 -3 -4 83.45
0 -3 -4 81.86
0 3 4 78.27
0 3 4 80.12
0 3 4 80.66
-1 -3 -4 146.51
-1 -3 -4 132.30
-1 -3 -4 134.52
1 3 4 140.78
1 3 4 143.40
-2 -3 -4 57.49
-2 -3 -4 60.28
-2 -3 -4 56.66
2 3 4 54.82
2 3 4 61.87
-3 -3 -4 15.53
-3 -3 -4 18.33
-3 -3 -4 16.80
-3 -3 -4 18.38
-3 -3 -4 16.68
3 3 4 16.08
3 3 4 17.69
3 3 4 15.68
-4 -3 -4 17.23
-4 -3 -4 18.84
-4 -3 -4 18.56
-4 -3 -4 18.66
-4 -3 -4 20.08
4 3 4 17.48
4 3 4 18.64
-5 -3 -4 5.18
-5 -3 -4 4.39
-5 -3 -4 6.42
-5 -3 -4 4.25
5 3 4 5.58
-6 -3 -4 30.82
-6 -3 -4 27.77
6 -4 -4 2.87
-6 4 4 2.54
-6 4 4 3.50
5 -4 -4 0.10
5 -4 -4 0.60
5 -4 -4 0.41
5 -4 -4 0.66
-5 4 4 0.55
-5 4 4 0.14
-5 4 4 0.91
4 -4 -4 17.59
4 -4 -4 17.65
4 -4 -4 17.75
4 -4 -4 17.24
4 -4 -4 15.14
-4 4 4 16.61
-4 4 4 15.13
-4 4 4 15.74
3 -4 -4 13.89
3 -4 -4 13.52
3 -4 -4 15.54
3 -4 -4 16.01
-3 4 4 12.05
-3 4 4 16.10
-3 4 4 15.20
-3 4 4 13.78
2 -4 -4 0.31
2 -4 -4 0.03
2 -4 -4 0.00
2 -4 -4 0.04
-2 4 4 0.27
-2 4 4 0.12
-2 4 4 0.01
-2 4 4 -0.04
1 -4 -4 15.76
1 -4 -4 17.00
1 -4 -4 15.71
1 -4 -4 16.87
-1 4 4 14.27
-1 4 4 17.53
-1 4 4 17.25
-1 4 4 15.41
0 -4 -4 2.16
0 -4 -4 2.49
0 -4 -4 2.74
0 4 4 2.47
0 4 4 2.56
0 4 4 2.53
-1 -4 -4 1.61
-1 -4 -4 1.43
-1 -4 -4 1.74
1 4 4 1.37
1 4 4 1.33
-2 -4 -4 14.34
-2 -4 -4 14.02
-2 -4 -4 13.26
2 4 4 13.65
2 4 4 13.57
-3 -4 -4 4.39
-3 -4 -4 3.65
-3 -4 -4 3.92
-3 -4 -4 4.35
3 4 4 3.58
3 4 4 3.67
3 4 4 2.21
-4 -4 -4 1.93
-4 -4 -4 4.04
-4 -4 -4 3.19
-4 -4 -4 2.88
-4 -4 -4 2.96
4 4 4 2.58
4 4 4 3.19
-5 -4 -4 8.98
-5 -4 -4 6.91
5 4 4 8.86
6 -5 -4 15.01
-6 5 4 13.96
-6 5 4 15.00
5 -5 -4 21.64
5 -5 -4 22.62
-5 5 4 23.28
-5 5 4 20.17
4 -5 -4 206.67
4 -5 -4 211.19
4 -5 -4 200.02
4 -5 -4 201.40
-4 5 4 197.65
-4 5 4 205.00
-4 5 4 203.54
3 -5 -4 106.84
3 -5 -4 114.23
3 -5 -4 113.24
3 -5 -4 106.09
-3 5 4 101.08
-3 5 4 104.18
-3 5 4 109.34
-3 5 4 103.98
2 -5 -4 10.20
2 -5 -4 12.34
2 -5 -4 11.03
2 -5 -4 11.70
-2 5 4 11.98
-2 5 4 11.29
-2 5 4 12.59
-2 5 4 10.20
1 -5 -4 0.83
1 -5 -4 0.54
-1 5 4 1.13
-1 5 4 1.14
-1 5 4 1.78
-1 5 4 0.81
0 -5 -4 1.77
0 -5 -4 0.99
0 -5 -4 1.25
0 5 4 2.03
0 5 4 1.50
0 5 4 2.23
-1 -5 -4 36.19
-1 -5 -4 30.87
-1 -5 -4 32.36
1 5 4 34.27
1 5 4 36.05
1 5 4 31.81
-2 -5 -4 2.31
-2 -5 -4 2.74
-2 -5 -4 1.79
2 5 4 2.54
2 5 4 1.51
-3 -5 -4 31.81
-3 -5 -4 36.50
-3 -5 -4 32.98
-3 -5 -4 31.02
3 5 4 34.05
-4 -5 -4 4.98
-4 -5 -4 3.89
-4 -5 -4 4.99
4 5 4 4.27
4 5 4 5.50
-5 -5 -4 2.61
-5 -5 -4 2.59
5 5 4 3.85
5 -6 -4 2.86
-5 6 4 3.08
-5 6 4 2.98
4 -6 -4 1.02
4 -6 -4 0.59
4 -6 -4 1.44
-4 6 4 2.40
-4 6 4 1.28
3 -6 -4 -0.32
3 -6 -4 0.09
3 -6 -4 0.25
-3 6 4 0.10
-3 6 4 0.13
-3 6 4 0.67
-3 6 4 -0.39
2 -6 -4 18.39
2 -6 -4 16.81
-2 6 4 17.44
-2 6 4 15.72
-2 6 4 16.36
-2 6 4 15.59
1 -6 -4 24.31
1 -6 -4 24.05
-1 6 4 23.10
-1 6 4 20.33
-1 6 4 23.90
-1 6 4 21.69
0 -6 -4 40.78
0 -6 -4 40.02
0 -6 -4 36.46
0 6 4 37.51
0 6 4 42.90
0 6 4 43.72
-1 -6 -4 2.68
-1 -6 -4 2.52
-1 -6 -4 2.37
1 6 4 3.08
1 6 4 2.07
1 6 4 2.98
-2 -6 -4 8.12
-2 -6 -4 8.64
2 6 4 8.32
-3 -6 -4 0.44
-3 -6 -4 0.46
-3 -6 -4 0.28
3 6 4 0.57
-4 -6 -4 19.84
4 6 4 22.15
4 -7 -4 13.94
-4 7 4 13.33
-4 7 4 14.76
3 -7 -4 22.80
3 -7 -4 24.37
-3 7 4 25.20
-3 7 4 26.17
-3 7 4 20.09
2 -7 -4 24.13
2 -7 -4 23.26
-2 7 4 25.68
-2 7 4 25.41
-2 7 4 27.38
-2 7 4 24.44
1 -7 -4 30.75
1 -7 -4 27.55
-1 7 4 28.99
-1 7 4 27.64
-1 7 4 29.84
-1 7 4 27.61
0 -7 -4 3.38
0 -7 -4 3.40
0 7 4 3.44
0 7 4 2.45
-1 -7 -4 9.58
-1 -7 -4 9.42
-1 -7 -4 9.57
1 7 4 8.87
1 7 4 10.69
-2 -7 -4 -0.54
-2 -7 -4 0.44
2 7 4 0.65
2 7 4 0.81
-3 -7 -4 2.99
-3 -7 -4 3.33
3 7 4 2.95
3 -8 -4 0.93
-3 8 4 0.53
-3 8 4 1.59
-3 8 4 0.97
2 -8 -4 14.47
2 -8 -4 14.88
-2 8 4 15.79
-2 8 4 15.02
-2 8 4 12.00
1 -8 -4 1.15
1 -8 -4 0.56
-1 8 4 0.56
-1 8 4 0.90
-1 8 4 0.71
0 -8 -4 4.35
0 -8 -4 5.35
0 8 4 4.22
0 8 4 3.22
0 8 4 3.74
-1 -8 -4 -0.37
1 8 4 -0.01
1 8 4 -1.48
1 9 -5 -0.35
1 9 -5 0.43
-1 -9 5 0.40
0 9 -5 -0.31
0 9 -5 -0.18
0 -9 5 1.51
-1 9 -5 0.31
-1 9 -5 1.26
1 -9 5 0.55
-2 9 -5 0.16
-2 9 -5 -0.42
2 -9 5 0.22
3 8 -5 4.08
-3 -8 5 3.17
2 8 -5 0.60
2 8 -5 0.03
-2 -8 5 -0.07
1 8 -5 2.69
1 8 -5 2.09
1 8 -5 1.96
-1 -8 5 2.74
0 8 -5 1.88
0 8 -5 1.15
0 8 -5 1.41
0 -8 5 1.06
-1 8 -5 0.06
-1 8 -5 -0.05
-1 8 -5 0.23
1 -8 5 0.31
-2 8 -5 0.75
-2 8 -5 0.12
2 -8 5 -0.29
2 -8 5 0.07
-3 8 -5 4.43
-3 8 -5 4.24
3 -8 5 2.76
3 -8 5 2.84
-4 8 -5 4.68
4 7 -5 6.73
-4 -7 5 7.44
-4 -7 5 4.86
3 7 -5 1.28
-3 -7 5 2.51
-3 -7 5 3.89
2 7 -5 3.27
2 7 -5 2.84
2 7 -5 2.27
-2 -7 5 2.73
-2 -7 5 2.16
1 7 -5 7.60
1 7 -5 8.31
1 7 -5 8.74
1 7 -5 7.95
-1 -7 5 8.88
-1 -7 5 8.13
0 7 -5 0.75
0 7 -5 0.34
0 7 -5 1.06
0 7 -5 0.96
0 -7 5 -0.04
0 -7 5 0.59
-1 7 -5 6.28
-1 7 -5 6.44
-1 7 -5 9.58
-1 7 -5 7.87
-1 7 -5 7.91
1 -7 5 9.36
1 -7 5 8.01
-2 7 -5 0.36
-2 7 -5 -0.34
-2 7 -5 0.55
-2 7 -5 -0.05
2 -7 5 0.22
2 -7 5 -0.09
-3 7 -5 1.04
-3 7 -5 1.07
-3 7 -5 1.58
3 -7 5 1.39
-4 7 -5 6.98
-4 7 -5 10.09
-4 7 -5 8.57
4 -7 5 6.89
4 -7 5 7.41
-5 -6 5 5.59
-5 -6 5 5.28
4 6 -5 25.26
-4 -6 5 23.12
-4 -6 5 26.24
-4 -6 5 24.81
3 6 -5 2.72
3 6 -5 1.82
-3 -6 5 2.50
-3 -6 5 2.19
2 6 -5 6.25
2 6 -5 5.71
2 6 -5 5.94
-2 -6 5 5.94
-2 -6 5 7.34
1 6 -5 -0.02
1 6 -5 0.26
1 6 -5 0.06
1 6 -5 0.28
1 6 -5 -0.18
-1 -6 5 -0.26
-1 -6 5 0.04
0 6 -5 -0.03
0 6 -5 0.01
0 6 -5 -0.36
0 6 -5 0.14
0 6 -5 0.27
0 -6 5 0.18
0 -6 5 0.05
-1 6 -5 2.95
-1 6 -5 2.41
-1 6 -5 2.00
-1 6 -5 2.29
1 -6 5 2.03
1 -6 5 1.32
1 -6 5 2.41
-2 6 -5 11.53
-2 6 -5 12.29
-2 6 -5 11.33
-2 6 -5 9.28
2 -6 5 11.16
2 -6 5 11.51
2 -6 5 10.60
2 -6 5 11.52
-3 6 -5 0.07
-3 6 -5 -0.04
-3 6 -5 0.27
-3 6 -5 0.17
3 -6 5 0.00
3 -6 5 0.06
3 -6 5 -0.08
-4 6 -5 0.61
-4 6 -5 0.20
-4 6 -5 0.40
-4 6 -5 0.06
4 -6 5 0.76
4 -6 5 0.60
4 -6 5 0.16
-5 6 -5 13.14
-5 6 -5 13.05
-5 6 -5 13.35
5 -6 5 11.46
5 -6 5 10.96
-6 -5 5 3.72
5 5 -5 6.03
-5 -5 5 7.62
-5 -5 5 6.58
4 5 -5 0.42
-4 -5 5 0.49
-4 -5 5 0.33
-4 -5 5 0.39
3 5 -5 1.02
3 5 -5 2.07
3 5 -5 1.00
-3 -5 5 1.96
-3 -5 5 1.39
2 5 -5 15.42
2 5 -5 13.80
2 5 -5 12.31
-2 -5 5 14.68
-2 -5 5 16.17
1 5 -5 -0.03
1 5 -5 0.06
1 5 -5 0.20
1 5 -5 0.55
1 5 -5 0.34
-1 -5 5 0.28
-1 -5 5 0.24
0 5 -5 7.62
0 5 -5 7.84
0 5 -5 8.45
0 5 -5 6.65
0 -5 5 6.31
0 -5 5 7.34
-1 5 -5 15.45
-1 5 -5 17.19
-1 5 -5 15.03
-1 5 -5 16.24
1 -5 5 17.88
1 -5 5 16.36
1 -5 5 14.39
-2 5 -5 14.37
-2 5 -5 16.09
-2 5 -5 13.10
-2 5 -5 14.50
2 -5 5 14.09
2 -5 5 14.13
2 -5 5 15.52
2 -5 5 14.39
2 -5 5 15.64
-3 5 -5 2.62
-3 5 -5 2.04
-3 5 -5 1.98
-3 5 -5 1.80
3 -5 5 2.19
3 -5 5 1.97
3 -5 5 2.83
3 -5 5 1.50
3 -5 5 2.33
-4 5 -5 4.49
-4 5 -5 4.54
-4 5 -5 4.62
-4 5 -5 5.45
4 -5 5 4.31
4 -5 5 3.39
4 -5 5 3.78
-5 5 -5 0.36
-5 5 -5 0.14
-5 5 -5 0.07
-5 5 -5 -0.02
5 -5 5 0.23
5 -5 5 0.26
5 -5 5 0.83
-6 5 -5 0.58
-6 5 -5 0.29
-6 5 -5 0.05
-6 -4 5 0.56
-6 -4 5 1.06
5 4 -5 10.34
5 4 -5 8.97
-5 -4 5 9.54
-5 -4 5 8.86
-5 -4 5 9.89
4 4 -5 29.95
4 4 -5 30.76
4 4 -5 32.31
-4 -4 5 32.77
-4 -4 5 31.64
-4 -4 5 32.65
3 4 -5 1.12
3 4 -5 0.14
3 4 -5 0.08
-3 -4 5 0.45
-3 -4 5 0.14
-3 -4 5 0.08
2 4 -5 -0.09
2 4 -5 -0.11
2 4 -5 0.21
2 4 -5 0.46
-2 -4 5 0.26
-2 -4 5 0.41
1 4 -5 27.71
1 4 -5 30.46
1 4 -5 30.94
1 4 -5 29.63
1 4 -5 28.63
-1 -4 5 27.39
-1 -4 5 30.96
0 4 -5 50.17
0 4 -5 51.48
0 4 -5 50.46
0 4 -5 52.00
0 -4 5 51.37
0 -4 5 50.73
-1 4 -5 9.58
-1 4 -5 10.09
-1 4 -5 8.67
-1 4 -5 9.70
1 -4 5 9.14
1 -4 5 8.77
1 -4 5 9.52
1 -4 5 8.91
-2 4 -5 82.13
-2 4 -5 88.99
-2 4 -5 86.75
-2 4 -5 93.63
2 -4 5 83.83
2 -4 5 85.00
2 -4 5 93.23
2 -4 5 87.28
2 -4 5 92.88
-3 4 -5 0.24
-3 4 -5 0.15
-3 4 -5 0.26
-3 4 -5 -0.09
3 -4 5 0.13
3 -4 5 0.04
3 -4 5 0.02
3 -4 5 0.25
3 -4 5 0.36
-4 4 -5 -0.04
-4 4 -5 0.44
-4 4 -5 0.19
-4 4 -5 0.26
-4 4 -5 -0.08
4 -4 5 0.24
4 -4 5 0.54
4 -4 5 0.21
-5 4 -5 6.04
-5 4 -5 4.88
-5 4 -5 5.67
-5 4 -5 6.07
5 -4 5 4.46
5 -4 5 6.48
5 -4 5 5.64
-6 4 -5 0.03
-6 4 -5 0.75
-6 4 -5 0.31
6 3 -5 4.28
-6 -3 5 6.50
-6 -3 5 5.40
-6 -3 5 6.09
5 3 -5 16.27
5 3 -5 13.36
5 3 -5 16.06
-5 -3 5 18.57
-5 -3 5 16.22
-5 -3 5 16.80
-5 -3 5 16.44
4 3 -5 16.38
4 3 -5 13.85
4 3 -5 14.27
4 3 -5 14.89
-4 -3 5 13.73
-4 -3 5 15.01
-4 -3 5 15.14
-4 -3 5 14.46
3 3 -5 30.51
3 3 -5 29.74
3 3 -5 29.44
3 3 -5 29.42
-3 -3 5 29.56
-3 -3 5 32.41
-3 -3 5 32.71
2 3 -5 147.63
2 3 -5 146.58
-2 -3 5 140.47
-2 -3 5 145.38
1 3 -5 35.37
1 3 -5 36.75
1 3 -5 34.24
-1 -3 5 34.56
-1 -3 5 36.88
0 3 -5 0.53
0 3 -5 0.71
0 3 -5 0.65
0 3 -5 0.70
0 -3 5 0.87
0 -3 5 0.75
-1 3 -5 2.60
-1 3 -5 2.45
-1 3 -5 2.78
1 -3 5 2.60
1 -3 5 2.62
1 -3 5 2.81
-2 3 -5 17.65
-2 3 -5 19.16
-2 3 -5 17.71
-2 3 -5 19.56
2 -3 5 19.03
2 -3 5 17.97
2 -3 5 21.57
-3 3 -5 22.97
-3 3 -5 24.64
-3 3 -5 19.81
-3 3 -5 22.45
3 -3 5 20.70
3 -3 5 23.94
3 -3 5 22.41
3 -3 5 21.11
-4 3 -5 22.69
-4 3 -5 22.23
-4 3 -5 21.51
-4 3 -5 20.73
-4 3 -5 22.75
4 -3 5 20.16
4 -3 5 19.49
4 -3 5 20.65
-5 3 -5 5.57
-5 3 -5 5.29
-5 3 -5 5.69
-5 3 -5 4.85
5 -3 5 4.27
-6 3 -5 -0.03
-6 3 -5 -0.19
-6 3 -5 0.44
-7 -2 5 1.39
-7 -2 5 1.70
6 2 -5 -0.16
6 2 -5 -0.05
-6 -2 5 0.01
-6 -2 5 0.57
-6 -2 5 -0.03
5 2 -5 3.85
5 2 -5 2.69
5 2 -5 3.98
5 2 -5 4.61
5 2 -5 2.94
5 2 -5 3.70
-5 -2 5 3.89
-5 -2 5 2.66
-5 -2 5 4.27
-5 -2 5 4.22
4 2 -5 10.09
4 2 -5 10.91
4 2 -5 11.07
4 2 -5 10.51
4 2 -5 11.34
-4 -2 5 10.53
-4 -2 5 10.74
-4 -2 5 9.52
-4 -2 5 10.39
3 2 -5 1.17
3 2 -5 1.74
3 2 -5 1.49
3 2 -5 1.06
3 2 -5 1.48
-3 -2 5 1.90
-3 -2 5 1.91
-3 -2 5 1.51
2 2 -5 10.76
2 2 -5 9.32
2 2 -5 9.88
2 2 -5 9.97
-2 -2 5 10.09
-2 -2 5 10.60
-2 -2 5 10.44
1 2 -5 40.13
1 2 -5 40.22
1 2 -5 38.91
-1 -2 5 40.99
-1 -2 5 37.96
0 2 -5 0.14
0 2 -5 0.38
0 2 -5 0.32
0 -2 5 0.39
0 -2 5 0.42
-1 2 -5 45.86
-1 2 -5 49.10
-1 2 -5 47.74
-1 2 -5 49.13
1 -2 5 48.17
1 -2 5 46.62
1 -2 5 46.06
-2 2 -5 66.09
-2 2 -5 63.82
-2 2 -5 60.48
-2 2 -5 68.09
2 -2 5 60.02
2 -2 5 68.11
2 -2 5 67.33
-3 2 -5 48.03
-3 2 -5 44.78
-3 2 -5 49.26
-3 2 -5 47.32
3 -2 5 48.64
3 -2 5 46.99
3 -2 5 47.25
-4 2 -5 0.41
-4 2 -5 -0.10
-4 2 -5 0.57
-4 2 -5 0.63
-4 2 -5 -0.13
4 -2 5 0.49
4 -2 5 0.15
4 -2 5 0.14
-5 2 -5 0.39
-5 2 -5 0.66
-5 2 -5 0.75
-5 2 -5 1.02
5 -2 5 0.52
5 -2 5 0.55
-6 2 -5 4.70
-6 2 -5 7.16
-6 2 -5 6.42
6 -2 5 5.97
7 1 -5 7.42
-7 -1 5 8.49
6 1 -5 1.41
6 1 -5 1.60
-6 -1 5 1.47
-6 -1 5 1.98
-6 -1 5 1.62
5 1 -5 115.94
5 1 -5 134.42
5 1 -5 130.59
5 1 -5 127.80
5 1 -5 128.34
5 1 -5 122.03
5 1 -5 127.23
-5 -1 5 113.11
-5 -1 5 113.15
-5 -1 5 130.94
4 1 -5 84.86
4 1 -5 90.68
4 1 -5 83.61
4 1 -5 86.83
4 1 -5 89.09
4 1 -5 94.68
4 1 -5 91.56
-4 -1 5 84.53
-4 -1 5 81.65
-4 -1 5 86.76
-4 -1 5 81.50
3 1 -5 3.09
3 1 -5 2.15
3 1 -5 2.81
3 1 -5 3.93
3 1 -5 3.50
3 1 -5 3.24
-3 -1 5 2.66
-3 -1 5 2.87
-3 -1 5 2.84
2 1 -5 13.25
2 1 -5 14.40
2 1 -5 12.66
2 1 -5 11.92
2 1 -5 13.33
-2 -1 5 13.08
-2 -1 5 12.37
-2 -1 5 10.22
1 1 -5 7.39
1 1 -5 8.14
1 1 -5 8.23
-1 -1 5 8.56
-1 -1 5 7.89
-1 -1 5 8.52
-1 -1 5 8.68
0 1 -5 233.99
0 1 -5 246.64
0 1 -5 261.22
0 -1 5 245.77
0 -1 5 259.14
-1 1 -5 88.68
-1 1 -5 89.17
-1 1 -5 87.00
1 -1 5 91.04
1 -1 5 92.37
1 -1 5 85.87
-2 1 -5 86.56
-2 1 -5 85.63
-2 1 -5 89.22
-2 1 -5 85.83
2 -1 5 91.60
2 -1 5 86.52
2 -1 5 87.44
-3 1 -5 25.09
-3 1 -5 25.13
-3 1 -5 25.07
-3 1 -5 22.99
3 -1 5 27.02
3 -1 5 25.11
3 -1 5 26.11
-4 1 -5 12.25
-4 1 -5 13.52
-4 1 -5 13.96
-4 1 -5 15.15
-4 1 -5 13.64
4 -1 5 12.40
4 -1 5 11.83
4 -1 5 13.05
4 -1 5 12.50
-5 1 -5 24.53
-5 1 -5 21.77
-5 1 -5 18.84
-5 1 -5 22.96
-5 1 -5 23.75
5 -1 5 21.45
5 -1 5 20.01
5 -1 5 20.59
-6 1 -5 2.53
-6 1 -5 1.35
6 -1 5 1.71
7 0 -5 1.16
-7 0 5 1.63
6 0 -5 5.62
-6 0 5 6.30
5 0 -5 12.52
5 0 -5 13.56
5 0 -5 13.95
5 0 -5 15.34
5 0 -5 15.38
-5 0 5 13.73
4 0 -5 37.08
4 0 -5 31.78
4 0 -5 33.79
4 0 -5 34.28
4 0 -5 33.34
-4 0 5 35.40
3 0 -5 170.26
3 0 -5 165.01
3 0 -5 158.69
3 0 -5 164.29
3 0 -5 162.61
2 0 -5 100.11
2 0 -5 93.19
2 0 -5 103.00
2 0 -5 102.09
2 0 -5 100.25
-2 0 5 94.38
-2 0 5 94.80
-2 0 5 89.70
-2 0 5 105.13
1 0 -5 94.92
1 0 -5 94.18
1 0 -5 93.09
-1 0 5 96.91
-1 0 5 96.80
-1 0 5 90.19
-1 0 5 89.95
0 0 -5 6.46
0 0 -5 5.27
0 0 -5 6.49
0 0 -5 6.08
0 0 5 5.83
0 0 5 5.30
0 0 5 6.14
-1 0 -5 160.29
-1 0 -5 162.23
-1 0 -5 167.27
1 0 5 161.17
1 0 5 164.92
1 0 5 161.26
1 0 5 171.48
-2 0 -5 295.38
-2 0 -5 275.54
-2 0 -5 291.00
2 0 5 283.86
2 0 5 306.30
2 0 5 293.35
-3 0 -5 3.91
-3 0 -5 4.39
-3 0 -5 4.58
-3 0 -5 4.45
-3 0 -5 4.14
3 0 5 4.18
3 0 5 4.87
3 0 5 4.04
-4 0 -5 8.02
-4 0 -5 5.84
-4 0 -5 7.78
-4 0 -5 7.65
4 0 5 7.26
4 0 5 8.44
4 0 5 6.84
-5 0 -5 2.26
-5 0 -5 3.74
-5 0 -5 3.31
-5 0 -5 2.73
5 0 5 2.77
-6 0 -5 6.21
-6 0 -5 5.46
6 0 5 5.68
7 -1 -5 5.13
6 -1 -5 0.69
6 -1 -5 1.10
-6 1 5 1.35
5 -1 -5 125.97
5 -1 -5 124.33
5 -1 -5 120.10
5 -1 -5 117.30
5 -1 -5 126.34
-5 1 5 122.04
4 -1 -5 39.19
4 -1 -5 40.12
4 -1 -5 37.83
4 -1 -5 37.85
4 -1 -5 39.87
3 -1 -5 73.44
3 -1 -5 71.81
3 -1 -5 71.99
3 -1 -5 72.47
3 -1 -5 67.51
2 -1 -5 49.12
2 -1 -5 51.72
2 -1 -5 54.41
2 -1 -5 55.56
2 -1 -5 53.40
-2 1 5 49.99
-2 1 5 54.71
1 -1 -5 165.08
1 -1 -5 167.59
1 -1 -5 154.80
1 -1 -5 160.52
-1 1 5 167.78
-1 1 5 161.61
-1 1 5 163.63
0 -1 -5 61.91
0 -1 -5 62.14
0 -1 -5 61.83
0 1 5 57.40
0 1 5 59.11
-1 -1 -5 50.81
-1 -1 -5 53.07
-1 -1 -5 53.77
1 1 5 54.62
1 1 5 55.24
1 1 5 51.10
-2 -1 -5 3.70
-2 -1 -5 3.30
2 1 5 3.35
2 1 5 3.11
2 1 5 3.54
-3 -1 -5 12.41
-3 -1 -5 11.48
-3 -1 -5 12.42
-3 -1 -5 12.38
3 1 5 11.66
3 1 5 12.31
3 1 5 14.26
-4 -1 -5 18.20
-4 -1 -5 21.93
-4 -1 -5 20.29
-4 -1 -5 19.35
4 1 5 18.43
4 1 5 17.93
4 1 5 19.51
-5 -1 -5 64.39
-5 -1 -5 63.05
-5 -1 -5 67.63
-5 -1 -5 57.82
5 1 5 53.90
5 1 5 58.20
-6 -1 -5 0.57
-6 -1 -5 0.34
6 1 5 0.09
7 -2 -5 15.54
6 -2 -5 13.77
6 -2 -5 16.56
5 -2 -5 15.57
5 -2 -5 13.60
5 -2 -5 12.44
5 -2 -5 13.81
5 -2 -5 11.39
4 -2 -5 16.86
4 -2 -5 13.95
4 -2 -5 18.16
4 -2 -5 18.41
4 -2 -5 17.07
4 -2 -5 17.25
4 -2 -5 14.33
-4 2 5 18.40
-4 2 5 15.10
3 -2 -5 166.52
3 -2 -5 172.23
3 -2 -5 170.58
3 -2 -5 182.62
3 -2 -5 168.30
3 -2 -5 171.46
3 -2 -5 179.57
-3 2 5 163.29
-3 2 5 158.57
-3 2 5 165.51
2 -2 -5 17.66
2 -2 -5 18.85
2 -2 -5 16.98
2 -2 -5 18.72
2 -2 -5 18.37
-2 2 5 18.27
-2 2 5 17.59
-2 2 5 17.98
-2 2 5 18.24
1 -2 -5 12.14
1 -2 -5 12.02
1 -2 -5 11.49
-1 2 5 13.80
-1 2 5 11.94
-1 2 5 13.55
-1 2 5 12.00
0 -2 -5 16.40
0 -2 -5 16.82
0 2 5 14.82
0 2 5 15.99
0 2 5 17.39
-1 -2 -5 55.67
-1 -2 -5 59.08
1 2 5 56.45
1 2 5 57.07
1 2 5 57.68
-2 -2 -5 155.04
-2 -2 -5 154.34
-2 -2 -5 152.34
2 2 5 154.18
2 2 5 161.73
2 2 5 161.12
-3 -2 -5 179.09
-3 -2 -5 170.52
-3 -2 -5 175.34
-3 -2 -5 170.68
3 2 5 167.75
3 2 5 172.96
3 2 5 173.38
-4 -2 -5 1.35
-4 -2 -5 1.23
-4 -2 -5 1.73
-4 -2 -5 1.53
4 2 5 0.62
4 2 5 0.54
4 2 5 0.92
-5 -2 -5 0.38
-5 -2 -5 0.39
-5 -2 -5 -0.21
-5 -2 -5 1.02
5 2 5 0.31
-6 -2 -5 0.12
-6 -2 -5 -0.10
6 2 5 -0.49
7 -3 -5 2.80
6 -3 -5 3.83
5 -3 -5 43.29
5 -3 -5 46.99
5 -3 -5 46.11
5 -3 -5 46.77
-5 3 5 42.59
-5 3 5 48.65
-5 3 5 45.23
4 -3 -5 71.03
4 -3 -5 77.96
4 -3 -5 72.33
4 -3 -5 77.28
4 -3 -5 75.51
4 -3 -5 74.00
4 -3 -5 76.38
-4 3 5 75.56
-4 3 5 66.84
3 -3 -5 99.00
3 -3 -5 93.78
3 -3 -5 96.86
3 -3 -5 95.16
3 -3 -5 106.14
3 -3 -5 100.49
-3 3 5 99.49
-3 3 5 94.55
-3 3 5 100.09
-3 3 5 95.77
2 -3 -5 10.69
2 -3 -5 9.65
2 -3 -5 8.67
2 -3 -5 10.12
2 -3 -5 10.92
-2 3 5 9.62
-2 3 5 10.32
-2 3 5 9.70
-2 3 5 9.61
1 -3 -5 51.45
1 -3 -5 52.20
-1 3 5 56.15
-1 3 5 52.74
-1 3 5 48.23
-1 3 5 55.57
0 -3 -5 39.57
0 -3 -5 39.56
0 -3 -5 35.57
0 3 5 36.34
0 3 5 35.80
0 3 5 39.03
-1 -3 -5 37.47
-1 -3 -5 40.03
-1 -3 -5 41.21
1 3 5 43.07
1 3 5 35.62
-2 -3 -5 1.35
-2 -3 -5 1.31
-2 -3 -5 1.06
2 3 5 0.90
2 3 5 0.93
2 3 5 0.52
-3 -3 -5 6.80
-3 -3 -5 6.87
-3 -3 -5 8.22
-3 -3 -5 6.51
3 3 5 7.54
3 3 5 7.61
3 3 5 6.62
-4 -3 -5 1.40
-4 -3 -5 1.77
-4 -3 -5 2.22
-4 -3 -5 1.51
4 3 5 2.36
4 3 5 1.75
-5 -3 -5 32.30
-5 -3 -5 32.39
-5 -3 -5 32.37
5 3 5 29.93
-6 -3 -5 17.66
6 -4 -5 8.02
-6 4 5 6.62
5 -4 -5 1.73
5 -4 -5 2.14
5 -4 -5 1.00
-5 4 5 1.36
-5 4 5 1.69
4 -4 -5 18.88
4 -4 -5 19.50
4 -4 -5 18.40
4 -4 -5 18.82
4 -4 -5 19.21
-4 4 5 19.07
-4 4 5 18.56
-4 4 5 19.25
3 -4 -5 50.42
3 -4 -5 43.74
3 -4 -5 47.30
3 -4 -5 46.12
-3 4 5 46.27
-3 4 5 43.32
-3 4 5 48.72
-3 4 5 47.41
2 -4 -5 20.19
2 -4 -5 22.63
2 -4 -5 18.23
2 -4 -5 21.71
-2 4 5 20.92
-2 4 5 21.64
-2 4 5 20.72
-2 4 5 22.80
1 -4 -5 15.48
1 -4 -5 15.70
1 -4 -5 16.81
-1 4 5 16.89
-1 4 5 16.37
-1 4 5 14.04
-1 4 5 16.26
0 -4 -5 39.53
0 -4 -5 41.80
0 -4 -5 36.70
0 4 5 39.65
0 4 5 38.37
0 4 5 40.93
-1 -4 -5 18.09
-1 -4 -5 16.71
-1 -4 -5 15.71
1 4 5 14.88
1 4 5 17.86
-2 -4 -5 67.75
-2 -4 -5 64.81
-2 -4 -5 67.10
2 4 5 65.78
2 4 5 73.00
-3 -4 -5 74.47
-3 -4 -5 71.69
-3 -4 -5 74.79
3 4 5 75.51
3 4 5 74.36
-4 -4 -5 5.16
-4 -4 -5 3.89
-4 -4 -5 5.57
-4 -4 -5 4.55
-4 -4 -5 3.94
4 4 5 4.03
4 4 5 5.35
-5 -4 -5 11.77
-5 -4 -5 14.94
5 4 5 12.98
6 -5 -5 18.39
-6 5 5 17.24
-6 5 5 16.82
5 -5 -5 -0.32
-5 5 5 0.19
-5 5 5 0.16
4 -5 -5 17.24
4 -5 -5 15.66
4 -5 -5 16.15
4 -5 -5 12.72
-4 5 5 18.03
-4 5 5 16.81
-4 5 5 17.64
3 -5 -5 75.11
3 -5 -5 66.99
3 -5 -5 73.10
3 -5 -5 70.66
-3 5 5 70.75
-3 5 5 67.46
-3 5 5 71.58
-3 5 5 71.90
2 -5 -5 -0.07
2 -5 -5 -0.05
2 -5 -5 0.04
-2 5 5 0.18
-2 5 5 0.02
-2 5 5 -0.02
-2 5 5 -0.16
1 -5 -5 30.07
1 -5 -5 26.44
1 -5 -5 31.86
-1 5 5 28.60
-1 5 5 29.63
-1 5 5 28.22
-1 5 5 29.33
0 -5 -5 0.24
0 -5 -5 0.46
0 5 5 1.16
0 5 5 0.15
0 5 5 0.58
-1 -5 -5 0.97
-1 -5 -5 1.33
-1 -5 -5 1.53
1 5 5 1.51
1 5 5 1.45
1 5 5 2.03
-2 -5 -5 17.30
-2 -5 -5 17.01
-2 -5 -5 16.23
2 5 5 16.20
2 5 5 19.90
-3 -5 -5 -0.09
-3 -5 -5 0.15
3 5 5 0.28
3 5 5 0.17
-4 -5 -5 3.92
-4 -5 -5 5.20
4 5 5 5.80
5 -6 -5 0.03
-5 6 5 0.44
-5 6 5 0.03
4 -6 -5 -0.20
4 -6 -5 0.46
-4 6 5 0.16
-4 6 5 0.33
3 -6 -5 43.98
3 -6 -5 48.62
3 -6 -5 50.98
-3 6 5 49.61
-3 6 5 50.91
-3 6 5 49.28
-3 6 5 51.23
2 -6 -5 0.53
2 -6 -5 1.44
-2 6 5 1.11
-2 6 5 1.52
-2 6 5 2.23
-2 6 5 1.55
1 -6 -5 1.32
1 -6 -5 1.79
-1 6 5 2.00
-1 6 5 2.11
-1 6 5 1.99
-1 6 5 1.67
0 -6 -5 0.37
0 -6 -5 0.20
0 -6 -5 0.05
0 6 5 0.24
0 6 5 0.08
0 6 5 0.08
-1 -6 -5 0.83
-1 -6 -5 0.76
-1 -6 -5 0.45
1 6 5 1.19
-2 -6 -5 21.11
-2 -6 -5 21.06
-2 -6 -5 19.66
2 6 5 19.78
-3 -6 -5 32.98
-3 -6 -5 29.98
3 6 5 28.96
-4 -6 -5 1.15
4 6 5 1.31
4 -7 -5 0.87
-4 7 5 1.80
-4 7 5 0.70
3 -7 -5 1.37
-3 7 5 0.71
-3 7 5 1.10
-3 7 5 1.10
2 -7 -5 0.44
2 -7 -5 0.58
-2 7 5 0.75
-2 7 5 -0.07
-2 7 5 0.95
-2 7 5 0.71
1 -7 -5 20.96
1 -7 -5 18.78
-1 7 5 19.92
-1 7 5 19.65
-1 7 5 21.48
-1 7 5 19.74
0 -7 -5 1.33
0 -7 -5 1.57
0 7 5 1.41
0 7 5 1.72
0 7 5 1.88
-1 -7 -5 2.77
-1 -7 -5 2.20
1 7 5 2.09
1 7 5 2.02
-2 -7 -5 6.31
-2 -7 -5 5.10
2 7 5 6.34
2 7 5 5.23
2 -8 -5 1.83
-2 8 5 2.27
-2 8 5 2.68
-2 8 5 2.48
1 -8 -5 0.87
1 -8 -5 0.39
-1 8 5 0.58
-1 8 5 1.19
-1 8 5 0.66
0 -8 -5 2.74
0 -8 -5 2.07
0 8 5 2.24
0 8 5 3.46
0 8 5 2.68
-1 -8 -5 0.52
1 9 -6 2.71
1 9 -6 1.70
-1 -9 6 2.04
0 9 -6 4.82
0 9 -6 3.98
0 -9 6 4.09
-1 9 -6 1.90
-1 9 -6 1.41
1 -9 6 0.93
-2 9 -6 11.92
-2 9 -6 11.80
2 -9 6 10.57
3 8 -6 4.57
3 8 -6 4.83
-3 -8 6 3.49
2 8 -6 3.75
2 8 -6 4.55
-2 -8 6 4.45
1 8 -6 2.48
1 8 -6 4.16
1 8 -6 2.48
-1 -8 6 3.31
0 8 -6 0.60
0 8 -6 0.27
0 8 -6 1.01
0 -8 6 0.51
-1 8 -6 3.35
-1 8 -6 3.66
-1 8 -6 3.56
1 -8 6 3.14
-2 8 -6 -0.37
-2 8 -6 0.40
2 -8 6 -0.15
-3 8 -6 0.92
-3 8 -6 2.38
3 -8 6 1.30
3 -8 6 1.10
4 7 -6 1.61
-4 -7 6 1.55
-4 -7 6 2.63
3 7 -6 -0.43
-3 -7 6 -0.60
-3 -7 6 0.22
2 7 -6 0.01
2 7 -6 0.37
2 7 -6 0.14
-2 -7 6 0.11
-2 -7 6 -0.19
1 7 -6 3.86
1 7 -6 6.14
1 7 -6 5.31
-1 -7 6 5.80
-1 -7 6 4.85
0 7 -6 24.19
0 7 -6 23.08
0 7 -6 21.94
0 7 -6 22.51
0 -7 6 23.81
0 -7 6 18.91
-1 7 -6 5.76
-1 7 -6 6.97
-1 7 -6 7.26
-1 7 -6 7.46
-1 7 -6 7.20
1 -7 6 7.88
-2 7 -6 1.16
-2 7 -6 1.94
-2 7 -6 1.47
2 -7 6 1.13
2 -7 6 1.31
-3 7 -6 2.32
-3 7 -6 1.72
-3 7 -6 1.38
3 -7 6 1.62
3 -7 6 1.55
-4 7 -6 -0.62
-4 7 -6 0.16
-4 7 -6 -0.07
4 -7 6 0.19
4 -7 6 -0.43
-5 -6 6 7.21
-5 -6 6 8.20
4 6 -6 9.45
-4 -6 6 8.57
-4 -6 6 9.59
-4 -6 6 9.25
3 6 -6 2.61
3 6 -6 3.59
-3 -6 6 2.54
-3 -6 6 3.93
2 6 -6 21.69
2 6 -6 20.92
2 6 -6 18.35
-2 -6 6 21.35
-2 -6 6 17.72
1 6 -6 1.56
1 6 -6 1.77
1 6 -6 1.74
1 6 -6 1.63
1 6 -6 1.60
-1 -6 6 1.52
-1 -6 6 1.67
0 6 -6 7.35
0 6 -6 6.94
0 6 -6 6.71
0 6 -6 5.57
0 6 -6 7.07
0 -6 6 6.20
0 -6 6 7.06
-1 6 -6 2.65
-1 6 -6 1.90
-1 6 -6 2.20
-1 6 -6 2.25
1 -6 6 2.27
1 -6 6 2.85
-2 6 -6 1.06
-2 6 -6 0.76
-2 6 -6 1.57
-2 6 -6 1.70
2 -6 6 1.96
2 -6 6 0.57
2 -6 6 1.33
-3 6 -6 1.12
-3 6 -6 1.18
-3 6 -6 0.95
3 -6 6 1.33
3 -6 6 1.17
3 -6 6 0.76
-4 6 -6 7.07
-4 6 -6 6.28
-4 6 -6 5.27
-4 6 -6 5.42
4 -6 6 4.05
4 -6 6 4.84
4 -6 6 5.33
-5 6 -6 -0.56
-5 6 -6 -0.08
-5 6 -6 0.09
5 -6 6 -0.44
-6 -5 6 19.59
-6 -5 6 18.27
5 5 -6 5.49
-5 -5 6 5.68
-5 -5 6 6.28
4 5 -6 1.87
-4 -5 6 2.63
-4 -5 6 1.78
-4 -5 6 1.20
3 5 -6 8.56
3 5 -6 9.35
3 5 -6 9.52
-3 -5 6 9.65
-3 -5 6 9.37
2 5 -6 1.26
2 5 -6 1.06
2 5 -6 1.46
2 5 -6 1.03
2 5 -6 0.89
-2 -5 6 1.80
-2 -5 6 1.10
1 5 -6 0.51
1 5 -6 0.07
1 5 -6 0.05
1 5 -6 -0.23
-1 -5 6 -0.12
-1 -5 6 -0.19
0 5 -6 24.89
0 5 -6 27.12
0 5 -6 27.47
0 5 -6 23.59
0 -5 6 24.09
0 -5 6 24.77
-1 5 -6 24.65
-1 5 -6 21.78
-1 5 -6 23.52
-1 5 -6 23.70
1 -5 6 25.11
1 -5 6 21.90
-2 5 -6 22.68
-2 5 -6 24.77
-2 5 -6 22.18
-2 5 -6 27.83
2 -5 6 26.87
2 -5 6 26.81
2 -5 6 24.71
2 -5 6 24.89
-3 5 -6 15.30
-3 5 -6 12.61
-3 5 -6 14.23
-3 5 -6 11.86
3 -5 6 13.31
3 -5 6 13.52
3 -5 6 14.16
3 -5 6 14.74
3 -5 6 13.23
-4 5 -6 25.61
-4 5 -6 26.49
-4 5 -6 25.86
-4 5 -6 23.39
4 -5 6 29.45
4 -5 6 22.90
-5 5 -6 47.33
-5 5 -6 44.70
-5 5 -6 43.19
5 -5 6 33.65
5 -5 6 47.03
-6 -4 6 3.05
-6 -4 6 2.52
5 4 -6 68.23
5 4 -6 75.51
-5 -4 6 69.91
-5 -4 6 75.37
-5 -4 6 72.73
4 4 -6 12.59
4 4 -6 10.72
4 4 -6 12.51
-4 -4 6 11.11
-4 -4 6 13.00
-4 -4 6 12.00
3 4 -6 2.58
3 4 -6 3.98
3 4 -6 3.69
-3 -4 6 3.41
-3 -4 6 2.72
-3 -4 6 2.37
2 4 -6 3.04
2 4 -6 3.82
2 4 -6 3.25
2 4 -6 2.94
2 4 -6 3.23
-2 -4 6 3.18
-2 -4 6 3.57
1 4 -6 84.85
1 4 -6 90.00
1 4 -6 88.52
1 4 -6 80.66
-1 -4 6 91.41
-1 -4 6 81.47
0 4 -6 6.25
0 4 -6 6.30
0 4 -6 6.26
0 4 -6 5.73
0 -4 6 5.03
0 -4 6 5.19
-1 4 -6 29.30
-1 4 -6 33.01
-1 4 -6 32.66
-1 4 -6 28.52
1 -4 6 28.20
1 -4 6 27.92
1 -4 6 31.10
1 -4 6 29.81
-2 4 -6 4.12
-2 4 -6 3.91
-2 4 -6 4.74
-2 4 -6 4.64
2 -4 6 5.87
2 -4 6 4.11
2 -4 6 4.28
-3 4 -6 4.93
-3 4 -6 3.99
-3 4 -6 4.51
-3 4 -6 4.60
3 -4 6 3.75
3 -4 6 5.03
3 -4 6 4.27
-4 4 -6 1.79
-4 4 -6 1.73
-4 4 -6 2.42
4 -4 6 1.51
4 -4 6 0.82
-5 4 -6 1.11
-5 4 -6 0.89
-5 4 -6 0.48
-5 4 -6 0.39
5 -4 6 0.11
-6 4 -6 25.28
-6 4 -6 22.10
-6 4 -6 21.87
6 3 -6 35.40
-6 -3 6 44.32
-6 -3 6 45.55
5 3 -6 0.08
5 3 -6 -0.05
5 3 -6 0.23
5 3 -6 0.29
-5 -3 6 0.24
-5 -3 6 0.20
-5 -3 6 0.12
4 3 -6 7.24
4 3 -6 6.64
4 3 -6 6.37
4 3 -6 6.35
4 3 -6 6.30
-4 -3 6 6.50
-4 -3 6 7.23
-4 -3 6 6.94
3 3 -6 6.77
3 3 -6 7.93
3 3 -6 7.53
3 3 -6 6.74
3 3 -6 7.23
-3 -3 6 7.12
-3 -3 6 6.11
-3 -3 6 6.61
2 3 -6 0.40
2 3 -6 0.32
2 3 -6 0.98
2 3 -6 0.73
-2 -3 6 0.18
-2 -3 6 0.46
-2 -3 6 0.36
1 3 -6 18.18
1 3 -6 16.27
1 3 -6 15.26
-1 -3 6 16.22
-1 -3 6 15.46
0 3 -6 2.96
0 3 -6 3.46
0 3 -6 2.79
0 3 -6 2.83
0 -3 6 2.68
0 -3 6 2.34
0 -3 6 2.01
-1 3 -6 34.11
-1 3 -6 32.02
-1 3 -6 34.27
-1 3 -6 38.03
1 -3 6 36.15
1 -3 6 31.50
1 -3 6 33.12
-2 3 -6 21.48
-2 3 -6 21.95
-2 3 -6 21.82
-2 3 -6 22.04
2 -3 6 21.74
2 -3 6 22.88
2 -3 6 20.81
-3 3 -6 1.26
-3 3 -6 0.93
-3 3 -6 1.33
-3 3 -6 1.71
3 -3 6 1.36
3 -3 6 1.46
3 -3 6 1.13
-4 3 -6 28.62
-4 3 -6 32.05
-4 3 -6 35.84
-4 3 -6 32.02
-4 3 -6 35.12
4 -3 6 29.53
4 -3 6 30.17
4 -3 6 33.02
-5 3 -6 27.19
-5 3 -6 25.53
-5 3 -6 26.76
-5 3 -6 23.20
5 -3 6 26.51
-6 3 -6 6.75
-6 3 -6 8.20
-6 3 -6 8.44
6 2 -6 9.10
-6 -2 6 11.11
-6 -2 6 9.54
5 2 -6 297.02
5 2 -6 304.62
5 2 -6 322.98
5 2 -6 314.88
5 2 -6 313.45
-5 -2 6 300.27
-5 -2 6 300.80
4 2 -6 3.67
4 2 -6 2.78
4 2 -6 2.66
4 2 -6 3.10
4 2 -6 2.70
-4 -2 6 3.56
-4 -2 6 3.89
-4 -2 6 3.06
3 2 -6 26.30
3 2 -6 25.38
3 2 -6 25.77
3 2 -6 26.34
3 2 -6 26.77
-3 -2 6 25.94
-3 -2 6 27.37
-3 -2 6 26.68
2 2 -6 21.58
2 2 -6 21.18
2 2 -6 22.20
2 2 -6 22.97
-2 -2 6 22.55
-2 -2 6 22.65
-2 -2 6 22.35
1 2 -6 84.43
1 2 -6 85.34
1 2 -6 81.51
-1 -2 6 85.31
-1 -2 6 81.99
-1 -2 6 85.83
0 2 -6 295.41
0 2 -6 269.88
0 2 -6 265.96
0 -2 6 272.28
0 -2 6 296.15
-1 2 -6 199.58
-1 2 -6 214.44
-1 2 -6 207.28
-1 2 -6 195.16
1 -2 6 217.55
1 -2 6 196.20
1 -2 6 203.20
-2 2 -6 0.76
-2 2 -6 0.67
-2 2 -6 0.99
-2 2 -6 0.34
2 -2 6 0.89
2 -2 6 0.38
2 -2 6 0.73
-3 2 -6 14.82
-3 2 -6 16.30
-3 2 -6 14.54
-3 2 -6 16.69
3 -2 6 16.65
3 -2 6 14.99
3 -2 6 14.83
-4 2 -6 50.40
-4 2 -6 46.94
-4 2 -6 54.12
-4 2 -6 46.92
-4 2 -6 51.28
4 -2 6 50.41
4 -2 6 53.87
4 -2 6 48.76
-5 2 -6 44.96
-5 2 -6 46.73
-5 2 -6 45.14
-5 2 -6 40.22
5 -2 6 46.65
5 -2 6 42.95
-6 2 -6 18.42
-6 2 -6 18.57
-6 2 -6 19.36
6 -2 6 19.40
7 1 -6 0.37
6 1 -6 34.07
5 1 -6 2.83
5 1 -6 4.40
5 1 -6 4.45
5 1 -6 4.20
5 1 -6 3.71
4 1 -6 1.82
4 1 -6 2.12
4 1 -6 1.53
4 1 -6 1.74
4 1 -6 1.63
4 1 -6 1.79
4 1 -6 1.63
-4 -1 6 2.05
-4 -1 6 2.37
-4 -1 6 1.70
3 1 -6 31.85
3 1 -6 31.09
3 1 -6 30.42
3 1 -6 27.66
3 1 -6 32.61
3 1 -6 29.37
-3 -1 6 31.06
-3 -1 6 28.69
-3 -1 6 31.14
2 1 -6 256.40
2 1 -6 264.96
2 1 -6 278.35
2 1 -6 268.74
2 1 -6 269.92
-2 -1 6 248.28
-2 -1 6 263.39
-2 -1 6 265.98
-2 -1 6 269.38
1 1 -6 27.96
1 1 -6 27.05
-1 -1 6 27.98
-1 -1 6 26.09
-1 -1 6 27.36
-1 -1 6 28.28
0 1 -6 274.26
0 1 -6 286.42
0 1 -6 285.02
0 -1 6 269.85
0 -1 6 275.45
0 -1 6 273.99
-1 1 -6 83.48
-1 1 -6 83.15
-1 1 -6 81.41
1 -1 6 84.20
1 -1 6 86.50
1 -1 6 84.18
-2 1 -6 4.05
-2 1 -6 4.71
-2 1 -6 4.38
-2 1 -6 4.62
2 -1 6 4.38
2 -1 6 5.34
2 -1 6 4.55
-3 1 -6 0.94
-3 1 -6 0.97
-3 1 -6 0.79
-3 1 -6 0.84
3 -1 6 1.07
3 -1 6 0.88
3 -1 6 0.60
-4 1 -6 72.85
-4 1 -6 67.81
-4 1 -6 70.31
-4 1 -6 66.98
-4 1 -6 65.74
4 -1 6 72.28
4 -1 6 64.35
4 -1 6 68.99
4 -1 6 70.03
-5 1 -6 16.01
-5 1 -6 15.59
-5 1 -6 14.31
-5 1 -6 15.62
-5 1 -6 13.89
5 -1 6 14.11
-6 1 -6 0.82
-6 1 -6 0.31
6 -1 6 -0.20
7 0 -6 -0.21
6 0 -6 1.71
5 0 -6 316.13
5 0 -6 298.56
5 0 -6 300.74
5 0 -6 319.14
5 0 -6 317.90
4 0 -6 18.78
4 0 -6 16.52
4 0 -6 15.89
4 0 -6 17.41
4 0 -6 17.43
3 0 -6 35.74
3 0 -6 34.31
3 0 -6 35.45
3 0 -6 37.11
3 0 -6 35.30
2 0 -6 56.20
2 0 -6 54.94
2 0 -6 54.70
2 0 -6 55.91
-2 0 6 52.85
-2 0 6 56.47
-2 0 6 52.96
1 0 -6 34.21
1 0 -6 36.47
1 0 -6 36.69
-1 0 6 38.83
-1 0 6 37.73
-1 0 6 36.74
-1 0 6 35.93
0 0 -6 153.62
0 0 -6 154.68
0 0 -6 151.85
0 0 -6 155.31
0 0 6 149.37
0 0 6 156.05
0 0 6 143.93
-1 0 -6 567.33
-1 0 -6 558.98
-1 0 -6 555.35
1 0 6 554.94
1 0 6 576.15
1 0 6 548.76
1 0 6 570.67
-2 0 -6 37.60
-2 0 -6 36.44
-2 0 -6 36.23
2 0 6 33.11
2 0 6 41.17
2 0 6 39.11
-3 0 -6 0.77
-3 0 -6 1.19
-3 0 -6 1.04
-3 0 -6 0.90
-3 0 -6 0.81
3 0 6 1.05
3 0 6 1.66
3 0 6 1.27
-4 0 -6 106.76
-4 0 -6 116.30
-4 0 -6 114.84
-4 0 -6 110.27
-4 0 -6 113.19
4 0 6 111.26
4 0 6 117.19
4 0 6 112.19
-5 0 -6 60.43
-5 0 -6 55.49
-5 0 -6 53.64
-5 0 -6 59.63
5 0 6 57.61
5 0 6 60.15
-6 0 -6 2.54
-6 0 -6 2.64
6 0 6 2.73
7 -1 -6 6.98
6 -1 -6 33.20
6 -1 -6 42.61
5 -1 -6 3.01
5 -1 -6 2.92
5 -1 -6 4.07
5 -1 -6 2.44
5 -1 -6 3.06
4 -1 -6 42.28
4 -1 -6 42.74
4 -1 -6 41.92
4 -1 -6 41.19
4 -1 -6 41.85
3 -1 -6 0.14
3 -1 -6 0.28
3 -1 -6 0.07
3 -1 -6 -0.11
3 -1 -6 -0.13
-3 1 6 -0.07
2 -1 -6 384.00
2 -1 -6 414.86
2 -1 -6 409.90
2 -1 -6 391.28
2 -1 -6 403.77
-2 1 6 376.18
-2 1 6 382.63
1 -1 -6 144.26
1 -1 -6 140.40
1 -1 -6 137.73
1 -1 -6 153.37
-1 1 6 143.95
-1 1 6 146.18
-1 1 6 141.24
0 -1 -6 13.72
0 -1 -6 13.13
0 -1 -6 12.51
0 1 6 13.32
0 1 6 13.31
-1 -1 -6 61.80
-1 -1 -6 59.71
-1 -1 -6 60.18
1 1 6 57.43
1 1 6 63.26
1 1 6 59.93
-2 -1 -6 138.21
-2 -1 -6 133.66
2 1 6 139.18
2 1 6 142.35
2 1 6 135.46
-3 -1 -6 27.41
-3 -1 -6 27.69
-3 -1 -6 23.39
-3 -1 -6 26.75
3 1 6 26.44
3 1 6 26.41
3 1 6 26.82
-4 -1 -6 165.59
-4 -1 -6 157.58
-4 -1 -6 163.03
-4 -1 -6 160.96
4 1 6 159.63
4 1 6 172.50
4 1 6 159.05
-5 -1 -6 2.46
-5 -1 -6 2.96
-5 -1 -6 2.06
-5 -1 -6 2.83
5 1 6 2.49
-6 -1 -6 8.90
-6 -1 -6 7.43
6 1 6 6.65
7 -2 -6 1.03
6 -2 -6 3.39
5 -2 -6 125.75
5 -2 -6 127.43
5 -2 -6 120.69
5 -2 -6 121.90
5 -2 -6 117.17
4 -2 -6 26.29
4 -2 -6 28.83
4 -2 -6 25.36
4 -2 -6 28.11
4 -2 -6 24.53
3 -2 -6 7.85
3 -2 -6 8.54
3 -2 -6 9.07
3 -2 -6 8.57
3 -2 -6 8.16
3 -2 -6 9.09
3 -2 -6 7.57
-3 2 6 9.03
-3 2 6 8.50
2 -2 -6 47.67
2 -2 -6 45.54
2 -2 -6 47.19
-2 2 6 47.70
-2 2 6 44.44
-2 2 6 43.36
-2 2 6 47.54
1 -2 -6 31.20
1 -2 -6 32.05
-1 2 6 30.72
-1 2 6 32.72
-1 2 6 31.70
0 -2 -6 121.29
0 -2 -6 111.05
0 2 6 114.01
0 2 6 119.74
-1 -2 -6 25.20
-1 -2 -6 24.70
1 2 6 24.82
1 2 6 22.99
1 2 6 25.92
-2 -2 -6 0.54
-2 -2 -6 0.11
-2 -2 -6 0.48
-2 -2 -6 0.75
2 2 6 1.26
2 2 6 0.81
-3 -2 -6 9.78
-3 -2 -6 11.14
-3 -2 -6 9.99
3 2 6 11.93
3 2 6 10.93
3 2 6 12.60
-4 -2 -6 81.71
-4 -2 -6 79.15
-4 -2 -6 74.46
-4 -2 -6 76.22
4 2 6 75.70
4 2 6 79.60
-5 -2 -6 69.88
-5 -2 -6 73.63
-5 -2 -6 78.12
-5 -2 -6 79.72
5 2 6 68.62
-6 -2 -6 8.85
-6 -2 -6 8.00
6 2 6 7.36
6 -3 -6 13.73
5 -3 -6 1.63
5 -3 -6 1.78
5 -3 -6 1.31
4 -3 -6 5.66
4 -3 -6 4.01
4 -3 -6 5.33
4 -3 -6 4.29
4 -3 -6 4.77
4 -3 -6 4.61
4 -3 -6 4.50
-4 3 6 6.06
-4 3 6 5.41
3 -3 -6 -0.15
3 -3 -6 0.18
3 -3 -6 -0.07
3 -3 -6 0.01
3 -3 -6 0.01
-3 3 6 -0.05
-3 3 6 0.14
-3 3 6 0.16
-3 3 6 0.41
2 -3 -6 8.57
2 -3 -6 8.61
2 -3 -6 9.20
2 -3 -6 8.07
2 -3 -6 8.63
-2 3 6 9.19
-2 3 6 7.42
-2 3 6 8.94
-2 3 6 9.65
1 -3 -6 4.88
1 -3 -6 5.36
-1 3 6 5.39
-1 3 6 6.15
-1 3 6 5.13
-1 3 6 4.89
0 -3 -6 46.34
0 -3 -6 47.93
0 3 6 46.86
0 3 6 45.48
0 3 6 49.31
-1 -3 -6 0.68
-1 -3 -6 0.44
-1 -3 -6 0.60
1 3 6 0.56
1 3 6 0.62
1 3 6 0.39
-2 -3 -6 88.65
-2 -3 -6 85.62
-2 -3 -6 92.54
2 3 6 87.70
2 3 6 82.91
2 3 6 85.23
-3 -3 -6 39.87
-3 -3 -6 40.01
-3 -3 -6 37.99
-3 -3 -6 33.19
3 3 6 35.54
3 3 6 40.67
3 3 6 37.74
-4 -3 -6 49.33
-4 -3 -6 49.43
-4 -3 -6 49.51
-4 -3 -6 52.24
4 3 6 51.76
4 3 6 51.07
-5 -3 -6 7.29
-5 -3 -6 8.51
5 3 6 7.34
6 -4 -6 27.16
5 -4 -6 37.48
5 -4 -6 32.96
5 -4 -6 31.52
-5 4 6 38.40
-5 4 6 38.81
-5 4 6 31.92
4 -4 -6 42.00
4 -4 -6 40.34
4 -4 -6 40.24
4 -4 -6 43.12
4 -4 -6 44.56
-4 4 6 44.86
-4 4 6 40.18
-4 4 6 45.86
-4 4 6 45.72
3 -4 -6 8.37
3 -4 -6 8.28
3 -4 -6 8.35
3 -4 -6 6.71
-3 4 6 7.88
-3 4 6 7.65
-3 4 6 7.65
-3 4 6 8.67
2 -4 -6 0.54
2 -4 -6 0.57
2 -4 -6 1.00
2 -4 -6 1.06
-2 4 6 0.91
-2 4 6 1.21
-2 4 6 1.27
-2 4 6 0.96
1 -4 -6 4.94
1 -4 -6 4.79
1 -4 -6 4.08
-1 4 6 5.17
-1 4 6 4.15
-1 4 6 5.12
-1 4 6 4.37
0 -4 -6 52.46
0 -4 -6 53.04
0 -4 -6 50.44
0 4 6 47.49
0 4 6 52.58
0 4 6 51.07
-1 -4 -6 9.06
-1 -4 -6 11.36
-1 -4 -6 13.17
1 4 6 12.24
1 4 6 11.54
-2 -4 -6 6.36
-2 -4 -6 7.59
-2 -4 -6 7.55
2 4 6 6.51
2 4 6 8.12
2 4 6 6.79
-3 -4 -6 1.57
-3 -4 -6 1.57
-3 -4 -6 1.38
3 4 6 2.35
-4 -4 -6 0.59
-4 -4 -6 0.58
-4 -4 -6 0.74
4 4 6 0.60
4 4 6 0.14
-5 -4 -6 47.56
-5 -4 -6 52.69
5 4 6 54.28
6 -5 -6 2.99
5 -5 -6 0.68
-5 5 6 0.31
-5 5 6 0.05
4 -5 -6 -0.12
4 -5 -6 -0.29
4 -5 -6 0.25
4 -5 -6 0.14
-4 5 6 0.00
-4 5 6 0.74
-4 5 6 0.57
-4 5 6 0.38
3 -5 -6 0.05
3 -5 -6 -0.13
3 -5 -6 -0.09
3 -5 -6 0.25
-3 5 6 0.20
-3 5 6 -0.26
-3 5 6 -0.01
-3 5 6 0.48
2 -5 -6 4.14
2 -5 -6 5.21
2 -5 -6 3.74
-2 5 6 4.29
-2 5 6 3.62
-2 5 6 3.96
-2 5 6 3.32
1 -5 -6 8.84
1 -5 -6 9.69
1 -5 -6 9.31
1 -5 -6 8.86
-1 5 6 7.91
-1 5 6 10.69
-1 5 6 8.62
-1 5 6 9.49
0 -5 -6 4.44
0 -5 -6 5.39
0 -5 -6 5.31
0 5 6 5.10
0 5 6 5.81
0 5 6 4.43
-1 -5 -6 8.23
-1 -5 -6 10.71
-1 -5 -6 8.90
1 5 6 9.05
1 5 6 9.03
1 5 6 9.24
-2 -5 -6 5.65
-2 -5 -6 3.68
2 5 6 6.00
-3 -5 -6 2.73
-3 -5 -6 3.31
3 5 6 4.51
3 5 6 2.50
-4 -5 -6 7.45
-4 -5 -6 5.95
5 -6 -6 0.23
-5 6 6 -0.11
-5 6 6 -0.36
4 -6 -6 6.23
-4 6 6 5.46
-4 6 6 4.16
-4 6 6 4.08
3 -6 -6 1.49
3 -6 -6 1.18
-3 6 6 1.85
-3 6 6 1.90
-3 6 6 1.95
-3 6 6 2.67
2 -6 -6 2.72
2 -6 -6 2.62
-2 6 6 2.23
-2 6 6 2.79
-2 6 6 2.73
-2 6 6 2.59
1 -6 -6 4.92
1 -6 -6 4.42
-1 6 6 5.18
-1 6 6 5.79
-1 6 6 5.21
-1 6 6 5.80
0 -6 -6 0.22
0 -6 -6 0.42
0 -6 -6 0.40
0 6 6 0.32
0 6 6 0.65
0 6 6 0.98
-1 -6 -6 2.85
-1 -6 -6 3.22
-1 -6 -6 3.23
1 6 6 3.32
1 6 6 3.40
-2 -6 -6 6.62
-2 -6 -6 6.06
2 6 6 6.18
-3 -6 -6 3.68
-3 -6 -6 3.05
3 6 6 4.01
4 -7 -6 -0.21
-4 7 6 0.66
-4 7 6 0.42
3 -7 -6 2.53
-3 7 6 2.82
-3 7 6 1.79
-3 7 6 2.70
2 -7 -6 -0.09
2 -7 -6 -0.33
-2 7 6 0.02
-2 7 6 -0.01
-2 7 6 -0.46
1 -7 -6 6.98
1 -7 -6 9.86
-1 7 6 8.94
-1 7 6 9.10
-1 7 6 7.86
-1 7 6 7.97
0 -7 -6 5.85
0 -7 -6 7.23
0 7 6 7.71
0 7 6 6.02
0 7 6 5.12
-1 -7 -6 1.25
-1 -7 -6 2.06
1 7 6 1.38
1 7 6 1.65
-2 -7 -6 -0.43
2 7 6 0.21
2 7 6 -0.05
1 -8 -6 0.82
1 -8 -6 3.50
-1 8 6 2.35
-1 8 6 3.01
1 9 -7 0.73
1 9 -7 -0.23
-1 -9 7 0.94
0 9 -7 1.09
0 9 -7 0.55
0 -9 7 0.44
-1 9 -7 1.95
-1 9 -7 1.18
1 -9 7 2.45
3 8 -7 1.49
-3 -8 7 1.99
2 8 -7 0.40
2 8 -7 0.60
-2 -8 7 1.27
1 8 -7 -0.19
1 8 -7 0.61
1 8 -7 0.02
-1 -8 7 0.81
0 8 -7 2.08
0 8 -7 2.21
0 8 -7 2.23
0 -8 7 1.68
-1 8 -7 2.85
-1 8 -7 4.27
-1 8 -7 3.10
1 -8 7 4.08
-2 8 -7 -0.64
-2 8 -7 0.05
2 -8 7 0.27
-3 8 -7 1.60
-3 8 -7 1.74
3 -8 7 0.72
4 7 -7 1.80
-4 -7 7 1.05
-4 -7 7 0.93
3 7 -7 19.92
-3 -7 7 21.13
-3 -7 7 20.09
2 7 -7 7.57
2 7 -7 7.29
2 7 -7 6.37
-2 -7 7 4.82
-2 -7 7 7.27
1 7 -7 13.81
1 7 -7 13.38
1 7 -7 13.73
1 7 -7 15.16
-1 -7 7 15.55
-1 -7 7 13.08
0 7 -7 2.48
0 7 -7 2.79
0 7 -7 1.89
0 7 -7 1.94
0 -7 7 1.48
-1 7 -7 7.42
-1 7 -7 6.48
-1 7 -7 5.69
1 -7 7 7.08
-2 7 -7 61.42
-2 7 -7 47.38
-2 7 -7 55.00
2 -7 7 57.24
-3 7 -7 5.58
-3 7 -7 7.40
3 -7 7 6.49
-4 7 -7 0.89
-4 7 -7 0.66
-4 7 -7 1.44
4 -7 7 0.32
-5 -6 7 2.01
-5 -6 7 1.60
4 6 -7 2.83
4 6 -7 2.70
-4 -6 7 2.11
-4 -6 7 3.45
3 6 -7 19.98
3 6 -7 19.01
3 6 -7 19.74
-3 -6 7 21.38
-3 -6 7 21.10
2 6 -7 0.62
2 6 -7 1.39
2 6 -7 0.08
2 6 -7 0.25
-2 -6 7 1.32
-2 -6 7 0.87
1 6 -7 1.59
1 6 -7 2.39
1 6 -7 2.02
1 6 -7 2.49
1 6 -7 1.32
-1 -6 7 2.25
-1 -6 7 2.15
0 6 -7 15.39
0 6 -7 14.33
0 6 -7 16.35
0 6 -7 14.37
0 -6 7 12.77
0 -6 7 14.62
-1 6 -7 3.50
-1 6 -7 2.57
-1 6 -7 3.30
-1 6 -7 3.78
1 -6 7 4.16
1 -6 7 4.62
-2 6 -7 36.92
-2 6 -7 36.58
-2 6 -7 37.18
-2 6 -7 34.73
2 -6 7 39.60
2 -6 7 33.11
-3 6 -7 9.47
-3 6 -7 9.22
-3 6 -7 8.15
3 -6 7 9.00
3 -6 7 9.68
-4 6 -7 4.91
-4 6 -7 3.50
4 -6 7 4.92
4 -6 7 4.37
-5 6 -7 11.43
-5 6 -7 7.72
-5 6 -7 7.34
5 -6 7 9.94
-6 -5 7 1.21
-6 -5 7 1.19
-5 -5 7 0.21
-5 -5 7 0.40
4 5 -7 0.85
4 5 -7 1.47
-4 -5 7 1.49
-4 -5 7 1.78
-4 -5 7 1.57
3 5 -7 41.55
3 5 -7 43.39
3 5 -7 43.26
3 5 -7 40.29
-3 -5 7 46.66
-3 -5 7 41.78
2 5 -7 15.96
2 5 -7 15.17
2 5 -7 13.12
2 5 -7 13.37
-2 -5 7 15.59
-2 -5 7 14.58
1 5 -7 7.95
1 5 -7 10.27
1 5 -7 9.72
1 5 -7 9.90
1 5 -7 9.91
-1 -5 7 9.50
-1 -5 7 10.27
0 5 -7 0.66
0 5 -7 0.26
0 5 -7 0.68
0 5 -7 0.56
0 -5 7 1.18
0 -5 7 0.09
-1 5 -7 159.64
-1 5 -7 160.02
-1 5 -7 168.85
-1 5 -7 160.16
1 -5 7 161.07
1 -5 7 163.63
-2 5 -7 3.87
-2 5 -7 3.78
-2 5 -7 3.64
-2 5 -7 4.35
2 -5 7 3.39
2 -5 7 4.55
2 -5 7 3.80
2 -5 7 3.38
-3 5 -7 0.18
-3 5 -7 0.62
-3 5 -7 -0.11
-3 5 -7 0.35
3 -5 7 0.40
3 -5 7 -0.53
3 -5 7 -0.31
3 -5 7 -0.03
-4 5 -7 1.04
-4 5 -7 0.86
-4 5 -7 0.36
4 -5 7 0.74
4 -5 7 0.75
-5 5 -7 28.90
-5 5 -7 27.48
-5 5 -7 28.73
5 -5 7 29.00
-6 -4 7 30.41
-6 -4 7 31.69
5 4 -7 0.39
5 4 -7 0.84
5 4 -7 0.44
-5 -4 7 0.21
-5 -4 7 1.05
-5 -4 7 0.15
4 4 -7 13.35
4 4 -7 13.65
4 4 -7 14.18
4 4 -7 12.65
4 4 -7 15.24
-4 -4 7 13.85
-4 -4 7 13.86
-4 -4 7 14.07
3 4 -7 34.43
3 4 -7 36.26
3 4 -7 35.39
3 4 -7 36.69
3 4 -7 40.33
-3 -4 7 35.89
-3 -4 7 35.29
-3 -4 7 35.58
2 4 -7 21.02
2 4 -7 24.85
2 4 -7 23.30
2 4 -7 21.52
-2 -4 7 20.86
-2 -4 7 21.11
1 4 -7 29.34
1 4 -7 28.14
1 4 -7 29.39
1 4 -7 30.84
-1 -4 7 31.28
-1 -4 7 26.80
0 4 -7 31.80
0 4 -7 32.42
0 4 -7 30.69
0 4 -7 30.54
0 -4 7 32.34
0 -4 7 31.21
-1 4 -7 78.79
-1 4 -7 75.66
-1 4 -7 80.06
-1 4 -7 74.14
1 -4 7 76.06
1 -4 7 81.23
1 -4 7 79.10
-2 4 -7 82.31
-2 4 -7 77.42
-2 4 -7 89.30
-2 4 -7 84.16
2 -4 7 84.36
2 -4 7 88.63
2 -4 7 84.34
-3 4 -7 105.11
-3 4 -7 116.41
-3 4 -7 108.49
-3 4 -7 118.16
3 -4 7 113.97
3 -4 7 113.01
3 -4 7 102.09
-4 4 -7 3.91
-4 4 -7 3.35
4 -4 7 2.45
-5 4 -7 -0.16
-5 4 -7 0.11
-5 4 -7 -0.19
-5 4 -7 0.58
5 -4 7 0.14
-6 4 -7 1.19
-6 4 -7 -0.01
-6 4 -7 -0.39
-6 -3 7 27.12
-6 -3 7 25.01
5 3 -7 3.35
5 3 -7 3.58
5 3 -7 2.67
5 3 -7 1.96
-5 -3 7 2.53
-5 -3 7 3.11
-5 -3 7 3.41
4 3 -7 20.35
4 3 -7 20.80
4 3 -7 20.70
4 3 -7 23.11
4 3 -7 22.99
-4 -3 7 23.80
-4 -3 7 20.80
-4 -3 7 22.40
3 3 -7 36.86
3 3 -7 33.65
3 3 -7 34.99
3 3 -7 32.60
-3 -3 7 33.43
-3 -3 7 36.51
-3 -3 7 33.82
2 3 -7 142.70
2 3 -7 151.88
2 3 -7 148.03
2 3 -7 135.25
-2 -3 7 141.27
-2 -3 7 139.64
-2 -3 7 145.03
1 3 -7 18.16
1 3 -7 17.73
-1 -3 7 19.69
-1 -3 7 17.47
0 3 -7 20.74
0 3 -7 16.27
0 3 -7 18.27
0 -3 7 18.61
0 -3 7 18.14
0 -3 7 16.91
-1 3 -7 271.39
-1 3 -7 275.93
-1 3 -7 259.76
-1 3 -7 259.75
1 -3 7 264.15
1 -3 7 261.29
1 -3 7 265.25
-2 3 -7 2.53
-2 3 -7 1.81
-2 3 -7 2.35
-2 3 -7 2.16
2 -3 7 2.13
2 -3 7 2.15
2 -3 7 2.06
-3 3 -7 12.73
-3 3 -7 13.34
-3 3 -7 12.21
-3 3 -7 15.09
3 -3 7 12.30
3 -3 7 14.31
3 -3 7 13.94
-4 3 -7 124.46
-4 3 -7 127.19
-4 3 -7 121.56
-4 3 -7 118.76
4 -3 7 118.36
4 -3 7 119.80
4 -3 7 125.03
-5 3 -7 40.90
-5 3 -7 40.96
-5 3 -7 46.72
-5 3 -7 44.77
5 -3 7 43.03
-6 3 -7 1.38
-6 3 -7 0.51
-6 3 -7 1.76
6 2 -7 43.33
-6 -2 7 31.65
5 2 -7 18.23
5 2 -7 19.34
5 2 -7 15.05
5 2 -7 18.07
5 2 -7 19.78
5 2 -7 20.02
-5 -2 7 18.99
-5 -2 7 18.77
-5 -2 7 20.67
4 2 -7 10.15
4 2 -7 11.72
4 2 -7 8.78
4 2 -7 10.84
4 2 -7 9.50
-4 -2 7 10.40
-4 -2 7 12.09
3 2 -7 47.20
3 2 -7 45.74
3 2 -7 46.29
3 2 -7 51.50
-3 -2 7 45.51
-3 -2 7 46.69
-3 -2 7 46.30
2 2 -7 80.01
2 2 -7 80.91
2 2 -7 80.88
-2 -2 7 76.93
-2 -2 7 79.64
-2 -2 7 82.96
1 2 -7 1.86
1 2 -7 2.09
-1 -2 7 2.08
-1 -2 7 1.44
-1 -2 7 2.00
-1 -2 7 2.01
0 2 -7 128.32
0 2 -7 135.64
0 2 -7 122.29
0 -2 7 135.88
0 -2 7 125.56
-1 2 -7 0.16
-1 2 -7 -0.14
-1 2 -7 -0.08
1 -2 7 0.00
1 -2 7 0.29
1 -2 7 -0.05
-2 2 -7 77.99
-2 2 -7 79.50
-2 2 -7 73.97
-2 2 -7 77.73
2 -2 7 76.96
2 -2 7 81.41
2 -2 7 76.32
-3 2 -7 61.16
-3 2 -7 53.03
-3 2 -7 52.36
-3 2 -7 56.63
3 -2 7 57.58
3 -2 7 50.70
3 -2 7 53.54
-4 2 -7 16.13
-4 2 -7 17.56
-4 2 -7 16.43
-4 2 -7 14.48
-4 2 -7 16.62
4 -2 7 17.43
4 -2 7 14.49
4 -2 7 14.51
-5 2 -7 11.07
-5 2 -7 9.82
-5 2 -7 8.28
-5 2 -7 9.68
5 -2 7 8.97
5 -2 7 9.24
-6 2 -7 -0.04
-6 2 -7 1.04
-6 2 -7 0.23
6 -2 7 0.07
7 1 -7 0.34
6 1 -7 68.81
5 1 -7 12.10
5 1 -7 10.54
5 1 -7 11.58
5 1 -7 10.23
5 1 -7 12.96
4 1 -7 3.40
4 1 -7 2.03
4 1 -7 3.49
4 1 -7 3.35
4 1 -7 2.56
-4 -1 7 4.20
3 1 -7 49.95
3 1 -7 59.44
3 1 -7 57.75
3 1 -7 56.50
3 1 -7 54.62
-3 -1 7 52.20
-3 -1 7 59.69
-3 -1 7 55.65
2 1 -7 8.17
2 1 -7 8.00
2 1 -7 7.50
2 1 -7 7.23
-2 -1 7 8.16
-2 -1 7 7.31
-2 -1 7 8.51
-2 -1 7 7.54
1 1 -7 42.03
1 1 -7 40.82
-1 -1 7 40.14
-1 -1 7 38.31
-1 -1 7 38.59
-1 -1 7 42.11
0 1 -7 62.24
0 1 -7 63.65
0 1 -7 58.80
0 -1 7 63.86
0 -1 7 55.93
0 -1 7 61.54
-1 1 -7 423.45
-1 1 -7 425.32
-1 1 -7 393.69
1 -1 7 416.61
1 -1 7 434.91
1 -1 7 424.50
1 -1 7 382.82
-2 1 -7 32.27
-2 1 -7 31.06
-2 1 -7 29.96
-2 1 -7 31.10
2 -1 7 32.06
2 -1 7 31.19
2 -1 7 29.00
-3 1 -7 3.66
-3 1 -7 3.07
-3 1 -7 3.98
-3 1 -7 3.10
3 -1 7 3.92
3 -1 7 3.18
3 -1 7 3.05
-4 1 -7 264.54
-4 1 -7 256.87
-4 1 -7 276.57
-4 1 -7 257.48
-4 1 -7 273.16
4 -1 7 277.46
4 -1 7 270.74
4 -1 7 274.17
-5 1 -7 8.77
-5 1 -7 9.17
-5 1 -7 9.64
-5 1 -7 8.85
5 -1 7 9.64
-6 1 -7 0.17
-6 1 -7 0.86
6 -1 7 0.03
7 0 -7 0.36
6 0 -7 20.30
5 0 -7 0.21
5 0 -7 -0.37
5 0 -7 -0.26
5 0 -7 -0.50
5 0 -7 0.28
4 0 -7 -0.10
4 0 -7 0.82
4 0 -7 0.13
4 0 -7 -0.05
4 0 -7 0.02
3 0 -7 238.88
3 0 -7 240.92
3 0 -7 230.73
3 0 -7 236.26
-3 0 7 224.01
2 0 -7 347.02
2 0 -7 336.68
2 0 -7 323.44
2 0 -7 340.25
-2 0 7 310.98
-2 0 7 314.79
-2 0 7 334.21
1 0 -7 186.43
1 0 -7 180.15
1 0 -7 179.13
-1 0 7 176.99
-1 0 7 180.17
-1 0 7 185.55
-1 0 7 182.46
0 0 -7 14.45
0 0 -7 13.81
0 0 -7 13.40
0 0 -7 14.83
0 0 7 12.92
0 0 7 13.42
0 0 7 13.69
-1 0 -7 0.71
-1 0 -7 1.34
-1 0 -7 1.28
1 0 7 1.39
1 0 7 2.06
1 0 7 1.33
1 0 7 1.32
-2 0 -7 10.68
-2 0 -7 10.36
-2 0 -7 10.57
2 0 7 11.69
2 0 7 11.47
2 0 7 12.79
-3 0 -7 123.60
-3 0 -7 122.40
-3 0 -7 120.97
-3 0 -7 121.70
3 0 7 127.32
3 0 7 117.47
3 0 7 122.47
-4 0 -7 32.64
-4 0 -7 34.45
-4 0 -7 33.92
-4 0 -7 34.57
4 0 7 36.83
4 0 7 33.70
4 0 7 35.31
-5 0 -7 0.39
-5 0 -7 -0.33
-5 0 -7 0.16
-5 0 -7 -0.10
5 0 7 -0.06
-6 0 -7 2.65
-6 0 -7 2.34
6 0 7 1.47
7 -1 -7 0.64
6 -1 -7 17.60
6 -1 -7 15.68
5 -1 -7 1.78
5 -1 -7 1.64
5 -1 -7 1.75
5 -1 -7 2.26
5 -1 -7 0.25
4 -1 -7 26.92
4 -1 -7 23.16
4 -1 -7 23.53
4 -1 -7 23.09
4 -1 -7 23.29
3 -1 -7 15.91
3 -1 -7 16.40
3 -1 -7 15.50
3 -1 -7 16.57
3 -1 -7 19.13
-3 1 7 17.82
-3 1 7 16.30
2 -1 -7 10.99
2 -1 -7 11.11
2 -1 -7 12.37
2 -1 -7 10.16
-2 1 7 11.36
-2 1 7 11.72
-2 1 7 12.14
1 -1 -7 31.24
1 -1 -7 27.74
1 -1 -7 28.39
1 -1 -7 29.30
-1 1 7 30.25
-1 1 7 29.77
-1 1 7 26.91
0 -1 -7 2.76
0 -1 -7 2.67
0 -1 -7 2.78
0 1 7 2.49
0 1 7 3.00
-1 -1 -7 66.59
-1 -1 -7 68.31
-1 -1 -7 66.72
1 1 7 68.66
1 1 7 70.23
1 1 7 70.08
-2 -1 -7 10.32
-2 -1 -7 9.26
2 1 7 9.16
2 1 7 10.38
2 1 7 10.29
-3 -1 -7 11.79
-3 -1 -7 11.12
-3 -1 -7 12.02
-3 -1 -7 12.19
3 1 7 12.15
3 1 7 11.68
3 1 7 12.20
-4 -1 -7 146.25
-4 -1 -7 148.81
-4 -1 -7 147.48
-4 -1 -7 148.37
4 1 7 146.11
4 1 7 153.34
-5 -1 -7 1.06
-5 -1 -7 -0.10
-5 -1 -7 -0.11
-5 -1 -7 0.74
5 1 7 -0.44
-6 -1 -7 3.21
-6 -1 -7 1.26
6 1 7 2.25
7 -2 -7 0.17
6 -2 -7 5.37
5 -2 -7 6.21
5 -2 -7 7.49
5 -2 -7 5.49
4 -2 -7 12.92
4 -2 -7 15.30
4 -2 -7 17.84
4 -2 -7 14.41
4 -2 -7 14.07
3 -2 -7 26.89
3 -2 -7 27.22
3 -2 -7 25.40
3 -2 -7 26.96
3 -2 -7 26.40
3 -2 -7 22.64
3 -2 -7 25.65
-3 2 7 24.23
-3 2 7 24.62
2 -2 -7 160.10
2 -2 -7 155.67
2 -2 -7 166.84
2 -2 -7 162.24
-2 2 7 158.74
-2 2 7 162.95
-2 2 7 151.30
1 -2 -7 0.46
1 -2 -7 -0.02
1 -2 -7 0.67
-1 2 7 -0.16
-1 2 7 0.17
-1 2 7 0.69
0 -2 -7 83.70
0 -2 -7 77.68
0 -2 -7 79.26
0 2 7 85.46
0 2 7 80.54
-1 -2 -7 59.42
-1 -2 -7 52.82
-1 -2 -7 60.08
1 2 7 55.97
1 2 7 57.61
1 2 7 56.06
-2 -2 -7 57.50
-2 -2 -7 63.74
-2 -2 -7 60.73
-2 -2 -7 57.83
2 2 7 55.77
2 2 7 62.14
2 2 7 59.23
-3 -2 -7 96.16
-3 -2 -7 100.05
-3 -2 -7 107.66
3 2 7 103.08
3 2 7 97.29
3 2 7 103.46
-4 -2 -7 18.46
-4 -2 -7 19.26
-4 -2 -7 19.36
-4 -2 -7 19.22
4 2 7 18.98
4 2 7 17.35
-5 -2 -7 -0.89
-5 -2 -7 0.71
-5 -2 -7 0.51
-5 -2 -7 0.30
5 2 7 0.82
6 -3 -7 2.20
5 -3 -7 2.00
5 -3 -7 1.82
5 -3 -7 1.19
4 -3 -7 0.75
4 -3 -7 0.52
4 -3 -7 0.90
4 -3 -7 1.33
4 -3 -7 0.72
4 -3 -7 0.78
4 -3 -7 0.59
-4 3 7 0.92
-4 3 7 0.55
-4 3 7 0.60
3 -3 -7 55.78
3 -3 -7 58.49
3 -3 -7 60.62
3 -3 -7 54.46
3 -3 -7 57.00
3 -3 -7 58.05
-3 3 7 55.30
-3 3 7 54.44
-3 3 7 51.54
-3 3 7 55.75
2 -3 -7 1.46
2 -3 -7 1.53
-2 3 7 1.82
-2 3 7 1.17
-2 3 7 1.54
-2 3 7 1.41
1 -3 -7 96.79
1 -3 -7 102.13
-1 3 7 107.56
-1 3 7 89.74
-1 3 7 93.57
-1 3 7 94.95
0 -3 -7 16.95
0 -3 -7 18.31
0 3 7 16.52
0 3 7 16.48
0 3 7 14.29
0 3 7 16.04
-1 -3 -7 7.44
-1 -3 -7 6.25
-1 -3 -7 7.05
1 3 7 6.81
1 3 7 7.10
1 3 7 6.00
-2 -3 -7 0.87
-2 -3 -7 1.15
-2 -3 -7 0.70
2 3 7 0.75
2 3 7 0.47
2 3 7 0.76
-3 -3 -7 5.30
-3 -3 -7 5.41
3 3 7 5.37
3 3 7 6.24
3 3 7 5.71
-4 -3 -7 63.79
-4 -3 -7 62.48
-4 -3 -7 63.48
-4 -3 -7 61.03
4 3 7 69.55
4 3 7 60.90
-5 -3 -7 8.57
-5 -3 -7 9.17
5 3 7 9.82
6 -4 -7 0.04
5 -4 -7 0.39
5 -4 -7 0.35
-5 4 7 -0.06
-5 4 7 0.18
4 -4 -7 0.05
4 -4 -7 0.26
4 -4 -7 -0.20
4 -4 -7 0.11
-4 4 7 0.20
-4 4 7 0.16
-4 4 7 0.17
-4 4 7 -0.10
3 -4 -7 4.33
3 -4 -7 3.39
3 -4 -7 3.78
3 -4 -7 4.66
3 -4 -7 3.59
-3 4 7 3.95
-3 4 7 4.25
-3 4 7 3.83
-3 4 7 3.59
2 -4 -7 3.37
2 -4 -7 2.53
2 -4 -7 2.56
2 -4 -7 2.12
-2 4 7 2.42
-2 4 7 3.04
-2 4 7 3.41
-2 4 7 2.45
1 -4 -7 -0.14
1 -4 -7 0.13
1 -4 -7 0.04
-1 4 7 0.28
-1 4 7 -0.10
-1 4 7 0.29
-1 4 7 0.32
0 -4 -7 20.75
0 -4 -7 19.64
0 -4 -7 24.53
0 4 7 21.35
0 4 7 20.17
0 4 7 20.00
-1 -4 -7 1.52
-1 -4 -7 1.98
-1 -4 -7 2.21
1 4 7 2.23
1 4 7 1.56
1 4 7 2.43
-2 -4 -7 5.39
-2 -4 -7 5.00
-2 -4 -7 3.87
2 4 7 3.65
2 4 7 4.48
2 4 7 5.17
-3 -4 -7 25.97
-3 -4 -7 26.57
3 4 7 26.52
3 4 7 27.75
-4 -4 -7 0.39
-4 -4 -7 1.33
4 4 7 0.82
4 4 7 0.86
-5 -4 -7 0.12
-5 -4 -7 -0.32
5 4 7 0.96
5 -5 -7 1.42
-5 5 7 1.66
-5 5 7 2.21
4 -5 -7 -0.16
4 -5 -7 0.17
4 -5 -7 0.47
-4 5 7 -0.07
-4 5 7 0.06
-4 5 7 0.04
3 -5 -7 25.71
3 -5 -7 23.30
3 -5 -7 26.63
3 -5 -7 26.19
-3 5 7 26.99
-3 5 7 24.52
-3 5 7 25.93
-3 5 7 24.96
2 -5 -7 25.30
2 -5 -7 23.55
2 -5 -7 23.47
-2 5 7 24.62
-2 5 7 26.00
-2 5 7 20.95
-2 5 7 20.46
1 -5 -7 1.59
1 -5 -7 1.94
1 -5 -7 0.93
1 -5 -7 1.58
-1 5 7 2.61
-1 5 7 2.37
-1 5 7 1.55
0 -5 -7 0.25
0 -5 -7 -0.46
0 5 7 0.06
0 5 7 -0.05
0 5 7 0.00
-1 -5 -7 2.67
-1 -5 -7 3.72
1 5 7 2.98
1 5 7 4.02
1 5 7 2.19
-2 -5 -7 0.43
-2 -5 -7 -0.39
2 5 7 0.06
2 5 7 -0.19
-3 -5 -7 37.27
-3 -5 -7 38.97
3 5 7 40.50
3 5 7 44.99
-4 -5 -7 11.61
-4 -5 -7 11.98
4 5 7 12.35
5 -6 -7 -0.40
-5 6 7 0.54
-5 6 7 0.61
4 -6 -7 1.76
-4 6 7 0.03
-4 6 7 0.75
-4 6 7 0.45
3 -6 -7 0.46
3 -6 -7 0.96
-3 6 7 1.14
-3 6 7 0.69
-3 6 7 0.91
2 -6 -7 10.51
2 -6 -7 10.91
-2 6 7 9.13
-2 6 7 8.44
-2 6 7 9.96
-2 6 7 10.24
1 -6 -7 -0.30
1 -6 -7 -0.11
-1 6 7 0.41
-1 6 7 -0.14
-1 6 7 0.31
-1 6 7 0.10
0 -6 -7 4.03
0 -6 -7 3.72
0 -6 -7 3.61
0 6 7 5.69
0 6 7 3.85
0 6 7 4.58
-1 -6 -7 -0.02
1 6 7 0.18
1 6 7 0.11
-2 -6 -7 -0.39
-2 -6 -7 0.25
2 6 7 0.11
2 6 7 -0.20
-3 -6 -7 11.46
-3 -6 -7 11.52
3 6 7 11.89
3 -7 -7 0.22
-3 7 7 0.03
-3 7 7 -0.16
-3 7 7 -0.35
2 -7 -7 3.84
2 -7 -7 3.90
-2 7 7 3.46
-2 7 7 3.97
-2 7 7 3.35
1 -7 -7 0.33
1 -7 -7 1.92
-1 7 7 1.33
-1 7 7 0.86
-1 7 7 0.89
0 -7 -7 -0.14
0 -7 -7 0.81
0 7 7 0.09
0 7 7 0.44
0 7 7 0.48
-1 -7 -7 0.77
-1 -7 -7 0.63
1 7 7 1.37
-2 -7 -7 0.06
2 7 7 0.37
1 9 -8 0.42
1 9 -8 0.50
-1 -9 8 0.00
0 9 -8 6.72
0 9 -8 7.45
0 -9 8 7.59
-1 9 -8 0.90
-1 9 -8 1.07
1 -9 8 0.45
3 8 -8 12.19
3 8 -8 12.58
-3 -8 8 14.22
2 8 -8 0.55
2 8 -8 0.19
-2 -8 8 -0.16
1 8 -8 0.40
1 8 -8 0.37
1 8 -8 -0.13
-1 -8 8 0.25
0 8 -8 1.33
0 8 -8 1.41
0 -8 8 1.00
-1 8 -8 43.47
-1 8 -8 44.76
1 -8 8 40.37
-2 8 -8 11.00
-2 8 -8 11.30
2 -8 8 10.19
-3 8 -8 -0.30
-3 8 -8 -0.17
3 -8 8 -0.01
-4 -7 8 7.58
-4 -7 8 7.83
3 7 -8 5.99
-3 -7 8 4.78
-3 -7 8 5.43
2 7 -8 -0.40
2 7 -8 -0.35
2 7 -8 0.42
-2 -7 8 0.79
-2 -7 8 0.06
1 7 -8 7.74
1 7 -8 7.26
1 7 -8 7.58
1 7 -8 6.72
-1 -7 8 7.93
-1 -7 8 8.41
0 7 -8 46.81
0 7 -8 44.56
0 7 -8 48.23
0 7 -8 42.63
0 -7 8 46.04
-1 7 -8 0.79
-1 7 -8 0.23
-1 7 -8 -0.05
1 -7 8 -0.17
-2 7 -8 37.48
-2 7 -8 39.71
2 -7 8 37.11
-3 7 -8 1.69
-3 7 -8 1.43
3 -7 8 1.77
-4 7 -8 12.87
-4 7 -8 13.31
4 -7 8 13.63
-5 -6 8 5.06
-5 -6 8 4.67
4 6 -8 95.19
-4 -6 8 96.32
-4 -6 8 100.34
3 6 -8 -0.17
3 6 -8 0.51
-3 -6 8 -0.17
-3 -6 8 0.32
2 6 -8 1.71
2 6 -8 1.61
2 6 -8 1.79
2 6 -8 1.92
-2 -6 8 2.18
-2 -6 8 2.47
1 6 -8 5.62
1 6 -8 4.91
1 6 -8 5.53
1 6 -8 6.98
1 6 -8 6.74
-1 -6 8 5.86
-1 -6 8 5.48
0 6 -8 18.29
0 6 -8 20.04
0 6 -8 16.77
0 6 -8 17.29
0 -6 8 18.96
0 -6 8 17.39
-1 6 -8 81.92
-1 6 -8 82.38
-1 6 -8 90.28
-1 6 -8 89.93
1 -6 8 93.03
1 -6 8 88.80
-2 6 -8 5.28
-2 6 -8 3.88
-2 6 -8 3.95
-2 6 -8 4.48
2 -6 8 4.42
-3 6 -8 6.81
-3 6 -8 5.43
-3 6 -8 8.75
3 -6 8 7.89
3 -6 8 7.27
-4 6 -8 4.54
-4 6 -8 3.20
4 -6 8 2.52
-5 6 -8 2.05
-5 6 -8 1.83
-5 6 -8 2.22
5 -6 8 2.28
-6 -5 8 2.90
-6 -5 8 2.95
-5 -5 8 0.30
-5 -5 8 1.62
4 5 -8 12.33
4 5 -8 13.80
-4 -5 8 14.32
-4 -5 8 14.85
-4 -5 8 14.80
3 5 -8 7.42
3 5 -8 8.68
3 5 -8 8.15
3 5 -8 6.78
3 5 -8 8.67
3 5 -8 6.43
-3 -5 8 7.72
-3 -5 8 8.14
-3 -5 8 7.25
2 5 -8 6.10
2 5 -8 4.87
2 5 -8 5.56
2 5 -8 5.68
2 5 -8 4.58
-2 -5 8 5.00
-2 -5 8 6.39
1 5 -8 8.73
1 5 -8 8.45
1 5 -8 7.87
1 5 -8 8.41
-1 -5 8 9.88
-1 -5 8 8.43
0 5 -8 15.06
0 5 -8 15.90
0 5 -8 15.93
0 5 -8 15.50
0 -5 8 15.18
0 -5 8 14.88
-1 5 -8 9.58
-1 5 -8 10.51
-1 5 -8 9.88
-1 5 -8 10.99
1 -5 8 9.84
1 -5 8 9.95
-2 5 -8 246.95
-2 5 -8 249.83
-2 5 -8 240.41
-2 5 -8 245.78
2 -5 8 245.74
2 -5 8 239.15
2 -5 8 260.08
2 -5 8 242.12
-3 5 -8 81.53
-3 5 -8 84.67
-3 5 -8 80.01
-3 5 -8 78.76
3 -5 8 84.51
3 -5 8 82.20
-4 5 -8 15.70
-4 5 -8 15.49
-4 5 -8 16.72
4 -5 8 17.24
4 -5 8 14.53
-5 5 -8 0.11
-5 5 -8 0.67
-5 5 -8 -0.35
5 -5 8 0.40
-6 -4 8 6.86
-6 -4 8 4.54
5 4 -8 0.23
5 4 -8 0.21
5 4 -8 0.33
5 4 -8 0.03
-5 -4 8 0.47
-5 -4 8 0.07
-5 -4 8 0.39
4 4 -8 128.36
4 4 -8 123.51
4 4 -8 118.47
4 4 -8 130.73
4 4 -8 126.76
-4 -4 8 123.59
-4 -4 8 126.31
-4 -4 8 129.74
3 4 -8 -0.14
3 4 -8 0.08
3 4 -8 -0.17
3 4 -8 0.32
-3 -4 8 0.23
-3 -4 8 0.50
-3 -4 8 0.30
2 4 -8 1.96
2 4 -8 2.48
2 4 -8 1.89
2 4 -8 2.34
-2 -4 8 1.60
-2 -4 8 2.82
1 4 -8 47.66
1 4 -8 45.92
1 4 -8 44.84
1 4 -8 45.17
-1 -4 8 43.36
-1 -4 8 47.06
0 4 -8 186.97
0 4 -8 175.90
0 4 -8 176.39
0 4 -8 168.21
0 -4 8 172.05
0 -4 8 187.97
-1 4 -8 7.16
-1 4 -8 6.77
-1 4 -8 6.46
-1 4 -8 7.13
1 -4 8 6.39
1 -4 8 7.74
1 -4 8 6.05
-2 4 -8 6.57
-2 4 -8 7.51
-2 4 -8 7.48
-2 4 -8 7.27
2 -4 8 7.15
2 -4 8 6.30
2 -4 8 5.51
-3 4 -8 18.48
-3 4 -8 18.09
-3 4 -8 17.22
-3 4 -8 14.81
3 -4 8 15.64
3 -4 8 18.42
3 -4 8 18.45
-4 4 -8 1.28
-4 4 -8 1.83
4 -4 8 0.94
-5 4 -8 6.79
-5 4 -8 6.49
-5 4 -8 6.57
-5 4 -8 9.01
5 -4 8 7.76
-6 -3 8 28.90
-6 -3 8 26.36
5 3 -8 0.14
5 3 -8 0.17
5 3 -8 0.07
5 3 -8 0.07
-5 -3 8 0.31
-5 -3 8 -0.06
-5 -3 8 -0.13
4 3 -8 0.19
4 3 -8 0.30
4 3 -8 0.38
4 3 -8 0.55
4 3 -8 -0.04
-4 -3 8 0.22
-4 -3 8 0.32
-4 -3 8 0.73
3 3 -8 12.06
3 3 -8 12.61
3 3 -8 11.94
3 3 -8 12.93
-3 -3 8 12.88
-3 -3 8 11.56
-3 -3 8 13.52
2 3 -8 72.79
2 3 -8 79.19
2 3 -8 70.19
2 3 -8 71.18
-2 -3 8 68.82
-2 -3 8 64.98
-2 -3 8 70.00
1 3 -8 27.35
1 3 -8 29.17
-1 -3 8 29.53
-1 -3 8 25.08
-1 -3 8 28.10
0 3 -8 7.23
0 3 -8 7.68
0 3 -8 8.58
0 -3 8 6.45
0 -3 8 6.98
0 -3 8 6.62
-1 3 -8 1.09
-1 3 -8 0.68
-1 3 -8 0.26
-1 3 -8 0.70
1 -3 8 1.09
1 -3 8 0.46
1 -3 8 0.66
-2 3 -8 89.18
-2 3 -8 89.05
-2 3 -8 99.64
-2 3 -8 85.72
2 -3 8 83.35
2 -3 8 94.40
2 -3 8 85.50
-3 3 -8 226.85
-3 3 -8 234.42
-3 3 -8 237.09
-3 3 -8 223.76
3 -3 8 240.27
3 -3 8 226.66
3 -3 8 221.60
-4 3 -8 31.34
-4 3 -8 33.81
-4 3 -8 33.29
4 -3 8 35.70
4 -3 8 28.73
-5 3 -8 1.91
-5 3 -8 1.91
-5 3 -8 1.45
5 -3 8 2.26
-6 3 -8 0.40
-6 3 -8 0.94
-6 3 -8 0.75
6 2 -8 4.74
5 2 -8 -0.80
5 2 -8 -0.02
5 2 -8 0.11
5 2 -8 -0.05
5 2 -8 0.52
-5 -2 8 0.00
-5 -2 8 0.15
-5 -2 8 0.03
4 2 -8 74.78
4 2 -8 74.00
4 2 -8 73.82
4 2 -8 74.79
4 2 -8 72.16
-4 -2 8 72.79
-4 -2 8 76.05
3 2 -8 0.07
3 2 -8 0.39
3 2 -8 0.04
-3 -2 8 0.23
-3 -2 8 0.08
-3 -2 8 0.03
2 2 -8 5.22
2 2 -8 4.99
2 2 -8 5.35
-2 -2 8 4.87
-2 -2 8 5.31
-2 -2 8 4.93
1 2 -8 119.62
1 2 -8 116.04
-1 -2 8 117.95
-1 -2 8 120.24
-1 -2 8 118.82
-1 -2 8 115.72
0 2 -8 370.94
0 2 -8 369.37
0 2 -8 364.18
0 -2 8 350.36
0 -2 8 369.17
-1 2 -8 53.92
-1 2 -8 57.45
-1 2 -8 56.39
1 -2 8 54.08
1 -2 8 58.41
1 -2 8 57.39
-2 2 -8 16.75
-2 2 -8 17.98
-2 2 -8 18.59
-2 2 -8 16.58
2 -2 8 18.96
2 -2 8 17.00
2 -2 8 16.36
-3 2 -8 5.24
-3 2 -8 5.53
-3 2 -8 5.09
-3 2 -8 4.94
3 -2 8 4.17
3 -2 8 6.03
3 -2 8 3.65
-4 2 -8 12.93
-4 2 -8 12.30
-4 2 -8 11.99
-4 2 -8 14.01
4 -2 8 12.48
4 -2 8 13.63
-5 2 -8 2.14
-5 2 -8 1.36
-5 2 -8 2.20
-5 2 -8 1.31
5 -2 8 1.89
-6 2 -8 22.72
-6 2 -8 23.27
-6 2 -8 22.20
6 -2 8 23.18
7 1 -8 0.68
6 1 -8 26.87
5 1 -8 0.59
5 1 -8 0.21
5 1 -8 0.06
5 1 -8 0.25
5 1 -8 0.38
4 1 -8 0.38
4 1 -8 0.08
4 1 -8 0.13
4 1 -8 0.10
4 1 -8 0.51
-4 -1 8 0.74
3 1 -8 6.66
3 1 -8 6.00
3 1 -8 6.08
3 1 -8 5.49
3 1 -8 5.91
-3 -1 8 6.08
-3 -1 8 5.99
-3 -1 8 6.27
2 1 -8 5.91
2 1 -8 7.23
2 1 -8 7.05
2 1 -8 7.90
-2 -1 8 7.50
-2 -1 8 6.74
-2 -1 8 6.85
-2 -1 8 7.07
1 1 -8 0.23
1 1 -8 0.26
-1 -1 8 0.14
-1 -1 8 0.34
-1 -1 8 -0.01
-1 -1 8 0.12
0 1 -8 179.97
0 1 -8 182.89
0 1 -8 180.84
0 -1 8 189.66
0 -1 8 177.54
0 -1 8 186.77
-1 1 -8 10.54
-1 1 -8 10.86
-1 1 -8 11.07
1 -1 8 12.52
1 -1 8 12.03
1 -1 8 9.96
1 -1 8 11.42
-2 1 -8 5.97
-2 1 -8 7.40
-2 1 -8 5.86
2 -1 8 6.58
2 -1 8 5.76
2 -1 8 6.81
2 -1 8 7.87
-3 1 -8 83.16
-3 1 -8 83.36
-3 1 -8 82.59
-3 1 -8 83.37
3 -1 8 84.65
3 -1 8 80.15
3 -1 8 84.38
3 -1 8 83.63
-4 1 -8 44.38
-4 1 -8 48.48
-4 1 -8 44.67
-4 1 -8 43.44
-4 1 -8 45.92
4 -1 8 47.27
4 -1 8 47.82
4 -1 8 43.97
-5 1 -8 7.07
-5 1 -8 6.34
-5 1 -8 5.88
-5 1 -8 6.12
5 -1 8 6.44
-6 1 -8 0.26
-6 1 -8 0.87
6 -1 8 0.50
7 0 -8 0.73
6 0 -8 0.14
5 0 -8 4.19
5 0 -8 4.56
5 0 -8 3.51
4 0 -8 5.65
4 0 -8 6.19
4 0 -8 6.35
4 0 -8 4.89
4 0 -8 6.54
3 0 -8 32.32
3 0 -8 32.59
3 0 -8 32.40
3 0 -8 30.50
-3 0 8 32.46
-3 0 8 38.00
2 0 -8 41.51
2 0 -8 40.40
2 0 -8 39.45
-2 0 8 37.75
-2 0 8 39.11
-2 0 8 41.16
-2 0 8 39.97
1 0 -8 110.40
1 0 -8 110.59
1 0 -8 105.93
-1 0 8 105.62
-1 0 8 114.08
-1 0 8 107.69
-1 0 8 107.75
0 0 -8 248.15
0 0 -8 232.38
0 0 -8 244.18
0 0 -8 248.63
0 0 8 245.26
0 0 8 247.65
0 0 8 251.82
-1 0 -8 20.12
-1 0 -8 19.22
-1 0 -8 18.32
1 0 8 19.06
1 0 8 17.78
1 0 8 19.11
1 0 8 19.77
-2 0 -8 0.60
-2 0 -8 2.03
-2 0 -8 1.91
2 0 8 1.58
2 0 8 1.46
2 0 8 1.54
-3 0 -8 0.61
-3 0 -8 0.91
-3 0 -8 0.27
-3 0 -8 0.77
3 0 8 0.70
3 0 8 0.56
3 0 8 0.61
-4 0 -8 1.50
-4 0 -8 1.10
-4 0 -8 0.57
-4 0 -8 0.86
4 0 8 1.22
4 0 8 1.63
-5 0 -8 11.57
-5 0 -8 8.05
-5 0 -8 11.05
5 0 8 13.45
-6 0 -8 2.28
-6 0 -8 2.38
6 0 8 1.29
7 -1 -8 7.26
6 -1 -8 0.48
6 -1 -8 0.06
5 -1 -8 13.93
5 -1 -8 14.35
5 -1 -8 12.99
4 -1 -8 4.49
4 -1 -8 3.80
4 -1 -8 4.88
4 -1 -8 3.35
4 -1 -8 5.07
3 -1 -8 12.38
3 -1 -8 12.36
3 -1 -8 13.90
3 -1 -8 13.52
3 -1 -8 14.54
3 -1 -8 14.25
-3 1 8 14.57
-3 1 8 12.63
-3 1 8 12.61
2 -1 -8 66.74
2 -1 -8 68.92
2 -1 -8 67.95
2 -1 -8 63.41
-2 1 8 70.91
-2 1 8 63.02
-2 1 8 67.45
1 -1 -8 12.90
1 -1 -8 10.05
1 -1 -8 13.25
1 -1 -8 12.71
1 -1 -8 13.67
-1 1 8 12.20
-1 1 8 12.22
-1 1 8 12.01
0 -1 -8 5.47
0 -1 -8 6.27
0 -1 -8 6.59
0 1 8 4.97
0 1 8 7.59
-1 -1 -8 2.13
-1 -1 -8 2.37
-1 -1 -8 2.98
1 1 8 2.40
1 1 8 2.43
1 1 8 2.53
-2 -1 -8 0.23
-2 -1 -8 0.64
2 1 8 0.01
2 1 8 0.52
2 1 8 -0.07
-3 -1 -8 55.76
-3 -1 -8 51.39
-3 -1 -8 57.40
3 1 8 53.89
3 1 8 53.46
3 1 8 48.96
-4 -1 -8 0.65
-4 -1 -8 0.31
-4 -1 -8 0.88
-4 -1 -8 0.84
4 1 8 1.24
4 1 8 1.41
-5 -1 -8 -0.12
-5 -1 -8 -0.31
-5 -1 -8 0.37
5 1 8 -0.21
6 -2 -8 10.51
6 -2 -8 7.11
5 -2 -8 0.41
5 -2 -8 0.70
5 -2 -8 -0.08
4 -2 -8 0.08
4 -2 -8 0.29
4 -2 -8 -0.16
4 -2 -8 0.17
4 -2 -8 0.44
-4 2 8 0.27
3 -2 -8 0.45
3 -2 -8 0.25
3 -2 -8 0.19
3 -2 -8 0.29
3 -2 -8 0.51
3 -2 -8 0.30
-3 2 8 0.36
2 -2 -8 9.81
2 -2 -8 10.10
2 -2 -8 9.82
2 -2 -8 9.68
-2 2 8 9.44
-2 2 8 9.73
-2 2 8 9.58
1 -2 -8 164.71
1 -2 -8 157.81
1 -2 -8 158.10
-1 2 8 145.60
-1 2 8 160.44
-1 2 8 151.19
0 -2 -8 15.46
0 -2 -8 16.76
0 -2 -8 15.21
0 2 8 18.99
0 2 8 17.20
-1 -2 -8 4.97
-1 -2 -8 6.86
-1 -2 -8 5.93
1 2 8 5.96
1 2 8 6.45
1 2 8 6.16
-2 -2 -8 28.37
-2 -2 -8 28.08
-2 -2 -8 26.81
2 2 8 27.19
2 2 8 26.43
2 2 8 27.63
-3 -2 -8 0.58
-3 -2 -8 0.34
-3 -2 -8 0.07
3 2 8 0.24
3 2 8 0.73
3 2 8 0.59
-4 -2 -8 18.61
-4 -2 -8 20.52
-4 -2 -8 18.73
-4 -2 -8 18.79
4 2 8 18.57
4 2 8 19.00
-5 -2 -8 9.39
-5 -2 -8 7.51
5 2 8 8.36
6 -3 -8 8.48
5 -3 -8 7.14
5 -3 -8 8.69
5 -3 -8 8.84
4 -3 -8 0.30
4 -3 -8 0.14
4 -3 -8 0.33
4 -3 -8 -0.22
4 -3 -8 0.11
-4 3 8 0.18
-4 3 8 0.35
-4 3 8 0.36
3 -3 -8 1.04
3 -3 -8 1.58
3 -3 -8 1.23
3 -3 -8 1.46
3 -3 -8 1.03
3 -3 -8 0.92
-3 3 8 1.12
-3 3 8 1.32
-3 3 8 0.93
2 -3 -8 41.26
2 -3 -8 37.44
2 -3 -8 35.86
2 -3 -8 41.26
-2 3 8 40.30
-2 3 8 39.11
-2 3 8 41.69
1 -3 -8 8.88
1 -3 -8 7.99
-1 3 8 9.00
-1 3 8 10.30
-1 3 8 9.36
0 -3 -8 5.35
0 -3 -8 4.49
0 3 8 6.14
0 3 8 4.97
-1 -3 -8 6.88
-1 -3 -8 6.08
-1 -3 -8 5.66
1 3 8 7.42
1 3 8 6.37
1 3 8 7.61
-2 -3 -8 1.16
-2 -3 -8 1.54
-2 -3 -8 1.30
-2 -3 -8 1.20
2 3 8 1.24
2 3 8 1.07
2 3 8 1.19
-3 -3 -8 -0.67
-3 -3 -8 -0.57
-3 -3 -8 0.24
3 3 8 -0.19
3 3 8 0.83
-4 -3 -8 4.67
-4 -3 -8 6.39
-4 -3 -8 8.02
4 3 8 6.41
4 3 8 5.98
-5 -3 -8 1.53
-5 -3 -8 1.44
5 3 8 1.46
6 -4 -8 -0.09
5 -4 -8 11.68
5 -4 -8 15.77
-5 4 8 11.69
4 -4 -8 25.09
4 -4 -8 25.23
4 -4 -8 27.52
4 -4 -8 24.67
4 -4 -8 23.65
-4 4 8 27.49
-4 4 8 28.05
-4 4 8 26.20
3 -4 -8 0.98
3 -4 -8 0.72
3 -4 -8 0.68
3 -4 -8 0.43
3 -4 -8 0.13
3 -4 -8 0.54
-3 4 8 1.22
-3 4 8 0.57
-3 4 8 0.96
-3 4 8 0.33
2 -4 -8 75.90
2 -4 -8 78.57
2 -4 -8 64.10
2 -4 -8 73.32
-2 4 8 68.82
-2 4 8 74.84
-2 4 8 74.68
-2 4 8 67.82
1 -4 -8 6.78
1 -4 -8 6.76
-1 4 8 7.80
-1 4 8 8.02
-1 4 8 7.16
-1 4 8 8.03
0 -4 -8 4.33
0 -4 -8 4.56
0 -4 -8 3.62
0 4 8 4.95
0 4 8 5.30
0 4 8 4.86
0 4 8 4.26
-1 -4 -8 27.10
-1 -4 -8 24.53
-1 -4 -8 25.24
1 4 8 24.98
1 4 8 26.58
1 4 8 22.81
1 4 8 23.13
-2 -4 -8 2.03
-2 -4 -8 2.44
2 4 8 2.71
2 4 8 2.21
2 4 8 2.10
-3 -4 -8 0.92
-3 -4 -8 1.40
-3 -4 -8 1.99
3 4 8 0.75
3 4 8 0.45
-4 -4 -8 2.70
-4 -4 -8 2.72
4 4 8 3.87
5 -5 -8 -0.29
-5 5 8 0.00
4 -5 -8 1.60
-4 5 8 0.92
-4 5 8 0.39
-4 5 8 0.40
3 -5 -8 3.08
3 -5 -8 3.18
3 -5 -8 2.01
-3 5 8 3.87
-3 5 8 2.64
-3 5 8 2.51
-3 5 8 1.93
2 -5 -8 24.75
2 -5 -8 27.88
-2 5 8 26.59
-2 5 8 26.88
-2 5 8 24.44
-2 5 8 26.82
1 -5 -8 2.66
1 -5 -8 3.44
-1 5 8 3.05
-1 5 8 4.08
-1 5 8 3.32
-1 5 8 4.07
0 -5 -8 9.04
0 -5 -8 8.72
0 5 8 9.66
0 5 8 10.15
0 5 8 9.16
-1 -5 -8 10.36
-1 -5 -8 10.86
1 5 8 7.75
1 5 8 9.55
1 5 8 12.60
1 5 8 9.46
-2 -5 -8 31.58
-2 -5 -8 31.88
2 5 8 29.67
2 5 8 30.27
-3 -5 -8 1.97
-3 -5 -8 2.69
3 5 8 4.01
4 -6 -8 7.41
-4 6 8 7.07
-4 6 8 8.51
-4 6 8 6.88
3 -6 -8 1.81
-3 6 8 1.97
-3 6 8 2.22
-3 6 8 1.61
2 -6 -8 6.77
2 -6 -8 5.65
-2 6 8 5.29
-2 6 8 6.18
-2 6 8 5.09
-2 6 8 5.62
1 -6 -8 0.42
1 -6 -8 0.35
-1 6 8 0.45
-1 6 8 1.02
-1 6 8 0.20
0 -6 -8 14.85
0 -6 -8 10.94
0 -6 -8 12.47
0 6 8 12.39
0 6 8 14.44
0 6 8 9.75
-1 -6 -8 3.79
-1 -6 -8 3.69
1 6 8 4.08
1 6 8 2.41
-2 -6 -8 5.13
-2 -6 -8 7.81
2 6 8 8.81
3 -7 -8 23.19
-3 7 8 19.53
-3 7 8 21.50
2 -7 -8 0.48
-2 7 8 0.49
-2 7 8 0.86
1 -7 -8 1.41
1 -7 -8 3.25
-1 7 8 1.55
0 -7 -8 10.31
0 -7 -8 12.94
0 7 8 12.23
0 7 8 9.65
-1 -7 -8 0.11
-1 -7 -8 -0.42
1 7 8 0.59
1 9 -9 -0.16
-1 -9 9 0.05
0 9 -9 -0.29
0 9 -9 0.38
0 -9 9 -0.15
-1 9 -9 29.51
3 8 -9 8.59
3 8 -9 10.99
-3 -8 9 10.25
2 8 -9 9.29
2 8 -9 8.75
-2 -8 9 10.81
1 8 -9 77.15
1 8 -9 73.01
-1 -8 9 83.54
0 8 -9 9.35
0 8 -9 12.72
0 8 -9 10.18
0 -8 9 10.19
-1 8 -9 1.84
1 -8 9 1.33
-2 8 -9 2.91
2 -8 9 2.01
-3 8 -9 5.07
-3 8 -9 7.07
3 -8 9 4.14
-4 -7 9 -0.05
-4 -7 9 0.35
3 7 -9 0.95
-3 -7 9 -0.22
-3 -7 9 0.62
2 7 -9 12.92
2 7 -9 11.82
-2 -7 9 12.19
-2 -7 9 14.64
1 7 -9 1.62
1 7 -9 2.98
1 7 -9 3.10
1 7 -9 2.84
-1 -7 9 2.64
-1 -7 9 2.55
0 7 -9 0.48
0 7 -9 1.32
0 7 -9 0.19
0 -7 9 0.92
-1 7 -9 39.09
-1 7 -9 36.14
-1 7 -9 34.85
1 -7 9 40.07
-2 7 -9 24.93
-2 7 -9 28.58
2 -7 9 26.31
-3 7 -9 22.29
-3 7 -9 16.84
3 -7 9 20.79
-4 7 -9 0.48
-4 7 -9 0.97
4 -7 9 1.06
-5 -6 9 1.30
-5 -6 9 2.37
4 6 -9 0.99
-4 -6 9 1.71
-4 -6 9 1.00
3 6 -9 37.60
3 6 -9 36.80
-3 -6 9 44.63
-3 -6 9 41.26
2 6 -9 0.02
2 6 -9 0.34
2 6 -9 0.59
-2 -6 9 0.24
-2 -6 9 -0.22
1 6 -9 181.73
1 6 -9 165.07
1 6 -9 165.39
1 6 -9 178.77
1 6 -9 162.76
-1 -6 9 164.17
-1 -6 9 173.56
0 6 -9 2.30
0 6 -9 3.61
0 6 -9 1.61
0 6 -9 3.57
0 -6 9 2.86
0 -6 9 3.47
-1 6 -9 5.23
-1 6 -9 6.42
-1 6 -9 4.04
-1 6 -9 5.22
1 -6 9 4.90
1 -6 9 5.92
-2 6 -9 1.05
-2 6 -9 1.82
-2 6 -9 1.03
-2 6 -9 1.06
2 -6 9 1.47
-3 6 -9 0.40
-3 6 -9 0.51
3 -6 9 0.26
3 -6 9 0.33
-4 6 -9 -0.65
-4 6 -9 -0.48
4 -6 9 0.64
-5 -5 9 27.94
-5 -5 9 27.19
4 5 -9 1.52
-4 -5 9 2.01
-4 -5 9 1.91
-4 -5 9 1.55
3 5 -9 2.98
3 5 -9 3.37
3 5 -9 2.86
3 5 -9 2.83
3 5 -9 2.83
-3 -5 9 3.65
-3 -5 9 3.52
-3 -5 9 2.86
2 5 -9 17.94
2 5 -9 20.63
2 5 -9 17.21
2 5 -9 18.81
2 5 -9 19.76
-2 -5 9 21.38
-2 -5 9 18.99
1 5 -9 4.32
1 5 -9 3.47
1 5 -9 2.94
1 5 -9 2.91
-1 -5 9 3.32
-1 -5 9 2.44
0 5 -9 28.65
0 5 -9 28.28
0 5 -9 27.65
0 5 -9 28.42
0 -5 9 28.73
0 -5 9 30.41
-1 5 -9 23.57
-1 5 -9 25.03
-1 5 -9 21.97
-1 5 -9 21.02
1 -5 9 22.53
1 -5 9 21.03
-2 5 -9 81.56
-2 5 -9 84.62
-2 5 -9 91.15
-2 5 -9 89.28
2 -5 9 78.73
2 -5 9 95.89
2 -5 9 86.11
2 -5 9 87.59
-3 5 -9 39.73
-3 5 -9 43.46
-3 5 -9 39.18
3 -5 9 37.64
-4 5 -9 1.00
-4 5 -9 1.53
-4 5 -9 2.12
4 -5 9 0.67
-5 5 -9 9.25
-5 5 -9 10.34
-5 5 -9 10.42
5 -5 9 8.88
-6 -4 9 6.25
-6 -4 9 6.86
5 4 -9 0.12
5 4 -9 0.25
-5 -4 9 0.29
-5 -4 9 -0.12
4 4 -9 1.96
4 4 -9 2.23
4 4 -9 2.09
4 4 -9 1.88
-4 -4 9 2.01
-4 -4 9 2.14
-4 -4 9 1.70
3 4 -9 2.27
3 4 -9 1.58
3 4 -9 2.59
-3 -4 9 2.22
-3 -4 9 1.75
-3 -4 9 2.08
2 4 -9 34.94
2 4 -9 31.98
2 4 -9 35.27
2 4 -9 32.91
-2 -4 9 35.08
-2 -4 9 37.76
-2 -4 9 38.31
1 4 -9 6.96
1 4 -9 6.34
1 4 -9 6.65
-1 -4 9 5.04
-1 -4 9 7.18
0 4 -9 1.06
0 4 -9 1.49
0 4 -9 1.90
0 4 -9 1.52
0 -4 9 1.05
0 -4 9 1.53
0 -4 9 1.60
-1 4 -9 83.07
-1 4 -9 83.67
-1 4 -9 86.62
-1 4 -9 87.61
1 -4 9 87.94
1 -4 9 80.98
-2 4 -9 22.91
-2 4 -9 23.25
-2 4 -9 24.21
-2 4 -9 24.01
2 -4 9 21.04
2 -4 9 21.85
2 -4 9 22.67
-3 4 -9 7.53
-3 4 -9 7.48
-3 4 -9 8.28
-3 4 -9 8.58
3 -4 9 7.71
3 -4 9 6.93
3 -4 9 9.04
-4 4 -9 1.06
-4 4 -9 1.61
-4 4 -9 1.77
4 -4 9 0.56
-5 4 -9 1.30
-5 4 -9 1.08
-5 4 -9 1.09
5 -4 9 0.95
-6 -3 9 4.07
-6 -3 9 3.54
5 3 -9 29.06
5 3 -9 31.75
5 3 -9 24.94
5 3 -9 29.60
-5 -3 9 29.88
-5 -3 9 32.61
4 3 -9 2.63
4 3 -9 2.52
4 3 -9 2.01
4 3 -9 2.52
-4 -3 9 2.65
-4 -3 9 3.51
-4 -3 9 2.10
3 3 -9 18.62
3 3 -9 18.58
3 3 -9 18.96
3 3 -9 19.54
-3 -3 9 18.87
-3 -3 9 20.49
-3 -3 9 18.90
2 3 -9 62.39
2 3 -9 66.12
2 3 -9 64.14
-2 -3 9 65.14
-2 -3 9 68.54
-2 -3 9 64.65
1 3 -9 18.36
1 3 -9 20.89
1 3 -9 19.73
-1 -3 9 17.86
-1 -3 9 20.17
-1 -3 9 17.82
0 3 -9 38.36
0 3 -9 36.57
0 3 -9 35.62
0 -3 9 34.79
0 -3 9 35.24
0 -3 9 37.15
-1 3 -9 4.70
-1 3 -9 4.51
-1 3 -9 4.38
-1 3 -9 4.06
1 -3 9 4.89
1 -3 9 3.79
1 -3 9 4.07
-2 3 -9 1.72
-2 3 -9 1.42
-2 3 -9 1.28
-2 3 -9 1.38
2 -3 9 0.95
2 -3 9 1.24
-3 3 -9 6.83
-3 3 -9 7.94
-3 3 -9 6.55
-3 3 -9 7.03
3 -3 9 7.89
3 -3 9 7.86
3 -3 9 8.23
-4 3 -9 16.82
-4 3 -9 15.96
-4 3 -9 20.58
4 -3 9 15.20
-5 3 -9 23.08
-5 3 -9 24.09
-5 3 -9 25.46
-5 3 -9 20.51
5 -3 9 21.48
6 2 -9 0.17
-6 -2 9 0.34
5 2 -9 11.58
5 2 -9 11.52
-5 -2 9 12.57
4 2 -9 0.57
4 2 -9 1.23
4 2 -9 1.56
4 2 -9 0.90
4 2 -9 1.04
-4 -2 9 0.59
-4 -2 9 0.98
-4 -2 9 1.19
3 2 -9 7.64
3 2 -9 8.52
3 2 -9 6.55
3 2 -9 7.82
-3 -2 9 8.85
-3 -2 9 8.21
-3 -2 9 8.60
2 2 -9 56.01
2 2 -9 52.85
2 2 -9 51.03
-2 -2 9 51.71
-2 -2 9 54.57
-2 -2 9 53.15
-2 -2 9 48.54
1 2 -9 1.02
1 2 -9 1.18
1 2 -9 1.17
-1 -2 9 1.42
-1 -2 9 1.07
-1 -2 9 1.02
-1 -2 9 0.78
0 2 -9 1.25
0 2 -9 1.55
0 2 -9 2.11
0 -2 9 1.43
0 -2 9 1.14
-1 2 -9 1.42
-1 2 -9 1.03
-1 2 -9 1.19
1 -2 9 1.85
1 -2 9 1.65
1 -2 9 1.40
-2 2 -9 3.02
-2 2 -9 2.53
-2 2 -9 3.68
-2 2 -9 3.34
2 -2 9 2.54
2 -2 9 3.81
2 -2 9 3.95
-3 2 -9 66.92
-3 2 -9 66.43
-3 2 -9 66.74
-3 2 -9 70.47
3 -2 9 65.63
3 -2 9 67.93
3 -2 9 64.86
-4 2 -9 0.42
-4 2 -9 1.73
-4 2 -9 0.10
4 -2 9 0.61
4 -2 9 0.74
-5 2 -9 0.76
-5 2 -9 0.37
-5 2 -9 1.16
-5 2 -9 0.03
5 -2 9 1.47
-6 2 -9 3.08
-6 2 -9 2.45
-6 2 -9 3.65
6 -2 9 3.13
7 1 -9 0.00
6 1 -9 3.81
5 1 -9 10.52
5 1 -9 9.71
5 1 -9 11.36
5 1 -9 9.84
4 1 -9 0.23
4 1 -9 0.21
4 1 -9 0.01
4 1 -9 0.11
4 1 -9 0.67
-4 -1 9 0.15
3 1 -9 6.24
3 1 -9 7.65
3 1 -9 8.18
3 1 -9 8.64
3 1 -9 7.77
-3 -1 9 7.21
-3 -1 9 7.82
2 1 -9 0.87
2 1 -9 0.86
2 1 -9 0.78
-2 -1 9 0.52
-2 -1 9 0.90
-2 -1 9 1.04
-2 -1 9 1.07
1 1 -9 26.86
1 1 -9 26.39
1 1 -9 27.63
-1 -1 9 27.17
-1 -1 9 26.98
-1 -1 9 29.29
-1 -1 9 27.62
0 1 -9 17.85
0 1 -9 19.15
0 1 -9 18.63
0 -1 9 18.91
0 -1 9 19.56
0 -1 9 20.38
-1 1 -9 115.59
-1 1 -9 110.19
-1 1 -9 113.89
1 -1 9 111.28
1 -1 9 108.89
1 -1 9 116.40
1 -1 9 110.85
-2 1 -9 8.40
-2 1 -9 10.75
-2 1 -9 9.31
2 -1 9 9.75
2 -1 9 11.13
2 -1 9 10.35
2 -1 9 10.49
-3 1 -9 3.75
-3 1 -9 3.57
-3 1 -9 4.03
-3 1 -9 3.82
3 -1 9 4.20
3 -1 9 4.35
3 -1 9 2.88
-4 1 -9 0.58
-4 1 -9 1.10
-4 1 -9 0.53
-4 1 -9 0.32
-4 1 -9 0.89
4 -1 9 0.69
4 -1 9 0.83
-5 1 -9 0.73
-5 1 -9 0.93
-5 1 -9 0.26
-5 1 -9 -1.01
5 -1 9 0.91
-6 1 -9 13.53
-6 1 -9 14.05
6 -1 9 13.89
7 0 -9 1.51
6 0 -9 7.09
5 0 -9 3.70
5 0 -9 4.17
5 0 -9 3.06
4 0 -9 -0.06
4 0 -9 0.32
4 0 -9 0.86
4 0 -9 0.44
3 0 -9 7.88
3 0 -9 8.17
3 0 -9 7.82
3 0 -9 7.98
3 0 -9 8.14
3 0 -9 8.17
-3 0 9 8.43
-3 0 9 9.01
-3 0 9 7.44
2 0 -9 104.27
2 0 -9 105.72
2 0 -9 103.01
-2 0 9 100.25
-2 0 9 101.00
-2 0 9 96.38
-2 0 9 108.91
1 0 -9 0.00
1 0 -9 0.16
1 0 -9 0.24
1 0 -9 0.28
-1 0 9 -0.02
-1 0 9 -0.06
-1 0 9 0.26
-1 0 9 0.29
0 0 -9 1.29
0 0 -9 1.62
0 0 -9 1.90
0 0 -9 1.42
0 0 9 1.26
0 0 9 2.13
0 0 9 1.31
-1 0 -9 10.91
-1 0 -9 11.36
-1 0 -9 12.06
1 0 9 12.56
1 0 9 12.33
1 0 9 11.44
-2 0 -9 13.45
-2 0 -9 15.94
-2 0 -9 16.58
2 0 9 15.99
2 0 9 15.98
2 0 9 16.08
-3 0 -9 7.90
-3 0 -9 7.69
-3 0 -9 7.11
-3 0 -9 8.60
3 0 9 7.49
3 0 9 7.01
3 0 9 8.51
-4 0 -9 12.49
-4 0 -9 11.76
-4 0 -9 13.32
-4 0 -9 14.31
4 0 9 11.69
4 0 9 13.26
-5 0 -9 1.44
-5 0 -9 0.87
5 0 9 0.59
7 -1 -9 0.77
6 -1 -9 3.89
5 -1 -9 1.07
5 -1 -9 0.99
5 -1 -9 0.71
4 -1 -9 1.06
4 -1 -9 0.94
4 -1 -9 0.24
4 -1 -9 0.52
4 -1 -9 0.54
3 -1 -9 0.46
3 -1 -9 0.42
3 -1 -9 0.20
3 -1 -9 0.30
3 -1 -9 0.90
-3 1 9 0.73
-3 1 9 0.33
-3 1 9 0.24
2 -1 -9 0.12
2 -1 -9 0.47
2 -1 -9 0.03
2 -1 -9 -0.07
-2 1 9 0.04
-2 1 9 0.17
-2 1 9 0.13
1 -1 -9 52.70
1 -1 -9 49.54
1 -1 -9 47.86
-1 1 9 48.44
-1 1 9 50.27
-1 1 9 53.45
0 -1 -9 0.24
0 -1 -9 0.28
0 -1 -9 0.47
0 1 9 0.32
0 1 9 0.60
-1 -1 -9 8.94
-1 -1 -9 9.55
-1 -1 -9 8.72
1 1 9 9.72
1 1 9 9.16
1 1 9 9.43
-2 -1 -9 0.88
-2 -1 -9 0.84
2 1 9 0.85
2 1 9 0.76
2 1 9 0.33
-3 -1 -9 18.22
-3 -1 -9 20.08
-3 -1 -9 18.00
3 1 9 19.45
3 1 9 16.39
3 1 9 18.13
-4 -1 -9 -0.33
-4 -1 -9 0.22
-4 -1 -9 0.16
-4 -1 -9 0.03
4 1 9 0.10
4 1 9 -0.05
-5 -1 -9 19.72
-5 -1 -9 20.60
5 1 9 21.49
6 -2 -9 19.49
5 -2 -9 0.53
5 -2 -9 -0.29
5 -2 -9 0.05
4 -2 -9 0.62
4 -2 -9 0.64
4 -2 -9 0.44
4 -2 -9 0.94
4 -2 -9 0.24
-4 2 9 0.58
3 -2 -9 6.74
3 -2 -9 6.43
3 -2 -9 6.73
3 -2 -9 5.86
3 -2 -9 6.95
-3 2 9 5.31
-3 2 9 5.99
-3 2 9 4.99
2 -2 -9 0.25
2 -2 -9 0.27
2 -2 -9 0.18
2 -2 -9 -0.03
-2 2 9 0.17
-2 2 9 -0.11
-2 2 9 0.29
1 -2 -9 0.25
1 -2 -9 0.12
1 -2 -9 -0.11
-1 2 9 1.01
-1 2 9 -0.09
-1 2 9 -0.12
0 -2 -9 83.08
0 -2 -9 78.97
0 -2 -9 81.04
0 2 9 81.05
0 2 9 87.91
-1 -2 -9 -0.08
-1 -2 -9 -0.20
-1 -2 -9 -0.07
1 2 9 -0.22
1 2 9 0.06
-2 -2 -9 -0.14
-2 -2 -9 0.44
2 2 9 0.06
2 2 9 -0.26
2 2 9 0.19
-3 -2 -9 0.07
-3 -2 -9 0.05
-3 -2 -9 -0.37
3 2 9 0.31
3 2 9 -0.15
-4 -2 -9 17.72
-4 -2 -9 15.95
-4 -2 -9 14.59
4 2 9 15.19
4 2 9 14.48
-5 -2 -9 1.25
-5 -2 -9 1.75
5 2 9 0.95
6 -3 -9 0.35
5 -3 -9 1.16
5 -3 -9 0.98
4 -3 -9 0.38
4 -3 -9 0.56
4 -3 -9 0.72
4 -3 -9 0.75
4 -3 -9 0.75
-4 3 9 0.53
-4 3 9 0.64
-4 3 9 0.44
3 -3 -9 41.72
3 -3 -9 37.82
3 -3 -9 37.49
3 -3 -9 35.81
3 -3 -9 38.52
3 -3 -9 38.05
-3 3 9 39.32
-3 3 9 38.21
-3 3 9 36.69
2 -3 -9 1.13
2 -3 -9 1.40
2 -3 -9 1.30
-2 3 9 1.29
-2 3 9 0.69
-2 3 9 1.08
1 -3 -9 2.31
1 -3 -9 1.98
1 -3 -9 1.60
-1 3 9 1.76
-1 3 9 1.99
-1 3 9 1.60
0 -3 -9 0.14
0 -3 -9 0.10
0 -3 -9 0.32
0 3 9 -0.20
0 3 9 0.03
-1 -3 -9 0.01
-1 -3 -9 -0.08
-1 -3 -9 0.28
1 3 9 0.07
1 3 9 -0.10
1 3 9 0.33
-2 -3 -9 -0.31
-2 -3 -9 0.13
-2 -3 -9 0.53
-2 -3 -9 0.31
2 3 9 -0.02
2 3 9 0.16
2 3 9 0.17
-3 -3 -9 8.55
-3 -3 -9 6.39
3 3 9 6.55
3 3 9 7.38
-4 -3 -9 3.21
-4 -3 -9 3.38
-4 -3 -9 3.24
4 3 9 2.11
4 3 9 3.18
6 -4 -9 1.32
5 -4 -9 8.17
-5 4 9 5.34
4 -4 -9 1.87
4 -4 -9 1.61
4 -4 -9 2.38
-4 4 9 1.68
-4 4 9 1.78
-4 4 9 2.66
3 -4 -9 14.28
3 -4 -9 13.76
3 -4 -9 16.79
3 -4 -9 14.02
3 -4 -9 16.74
-3 4 9 16.02
-3 4 9 16.53
-3 4 9 12.91
2 -4 -9 8.74
2 -4 -9 8.28
2 -4 -9 7.14
-2 4 9 9.13
-2 4 9 7.68
-2 4 9 7.88
1 -4 -9 13.21
1 -4 -9 14.14
-1 4 9 11.25
-1 4 9 12.29
-1 4 9 14.62
0 -4 -9 2.44
0 -4 -9 1.92
0 -4 -9 1.32
0 4 9 2.18
0 4 9 2.51
-1 -4 -9 17.45
-1 -4 -9 20.19
1 4 9 17.93
1 4 9 17.80
1 4 9 17.90
1 4 9 18.86
-2 -4 -9 4.05
-2 -4 -9 3.72
-2 -4 -9 3.71
2 4 9 4.11
2 4 9 3.39
-3 -4 -9 6.05
-3 -4 -9 5.32
3 4 9 4.46
-4 -4 -9 0.82
-4 -4 -9 1.31
4 4 9 0.33
5 -5 -9 12.12
-5 5 9 10.07
4 -5 -9 1.16
-4 5 9 2.18
-4 5 9 1.58
3 -5 -9 30.62
3 -5 -9 28.47
-3 5 9 27.60
-3 5 9 32.17
-3 5 9 28.65
2 -5 -9 0.46
2 -5 -9 0.37
2 -5 -9 0.00
2 -5 -9 0.58
-2 5 9 0.89
-2 5 9 0.56
-2 5 9 0.77
-2 5 9 0.48
1 -5 -9 6.76
-1 5 9 7.73
-1 5 9 6.48
-1 5 9 6.87
0 -5 -9 3.65
0 -5 -9 4.73
0 5 9 5.10
0 5 9 4.09
-1 -5 -9 13.05
-1 -5 -9 13.84
1 5 9 12.17
1 5 9 14.04
1 5 9 12.20
-2 -5 -9 0.04
-2 -5 -9 0.63
2 5 9 -0.11
-3 -5 -9 -0.25
-3 -5 -9 -0.23
3 5 9 1.09
4 -6 -9 17.57
-4 6 9 19.20
-4 6 9 18.54
3 -6 -9 1.53
-3 6 9 1.97
-3 6 9 1.82
2 -6 -9 1.67
2 -6 -9 1.30
-2 6 9 1.64
-2 6 9 0.93
1 -6 -9 0.23
1 -6 -9 0.70
-1 6 9 -0.13
-1 6 9 -0.18
-1 6 9 -0.09
0 6 9 3.19
-1 -6 -9 60.90
-1 -6 -9 62.14
1 6 9 66.01
-2 -6 -9 1.92
-2 -6 -9 2.60
2 6 9 2.64
2 -7 -9 -0.39
-2 7 9 0.02
-2 7 9 -0.26
1 -7 -9 8.24
1 -7 -9 6.94
-1 7 9 7.05
-1 7 9 5.19
0 -7 -9 7.28
0 -7 -9 7.23
0 7 9 7.61
0 7 9 8.22
3 8 -10 10.50
3 8 -10 11.18
-3 -8 10 10.34
2 8 -10 2.84
2 8 -10 2.26
-2 -8 10 3.33
1 8 -10 1.64
1 8 -10 1.66
0 8 -10 7.00
0 8 -10 6.16
0 -8 10 6.89
-1 8 -10 54.35
-1 8 -10 54.07
1 -8 10 50.05
-2 8 -10 33.37
-2 8 -10 35.21
2 -8 10 35.57
-4 -7 10 6.78
-4 -7 10 8.95
3 7 -10 -0.29
-3 -7 10 0.12
2 7 -10 102.08
2 7 -10 101.39
-2 -7 10 101.13
-2 -7 10 93.20
1 7 -10 4.92
1 7 -10 6.37
1 7 -10 5.02
1 7 -10 5.28
-1 -7 10 4.73
-1 -7 10 5.06
0 7 -10 29.54
0 7 -10 33.78
0 7 -10 35.31
0 -7 10 33.94
-1 7 -10 0.36
-1 7 -10 -0.01
-1 7 -10 -0.25
1 -7 10 -0.01
-2 7 -10 3.39
-2 7 -10 6.09
2 -7 10 4.45
-3 7 -10 19.81
-3 7 -10 19.02
3 -7 10 19.43
-5 -6 10 2.13
-5 -6 10 2.50
4 6 -10 -0.20
-4 -6 10 0.22
-4 -6 10 0.21
3 6 -10 5.94
-3 -6 10 6.18
-3 -6 10 4.25
-3 -6 10 5.31
2 6 -10 11.48
2 6 -10 12.09
2 6 -10 12.85
2 6 -10 11.89
-2 -6 10 13.95
-2 -6 10 14.68
1 6 -10 1.05
1 6 -10 1.43
-1 -6 10 1.28
-1 -6 10 0.89
0 6 -10 0.27
0 6 -10 -0.04
0 6 -10 -0.05
0 -6 10 0.18
0 -6 10 0.33
-1 6 -10 74.27
-1 6 -10 75.23
-1 6 -10 80.27
1 -6 10 75.58
1 -6 10 78.56
-2 6 -10 108.78
-2 6 -10 105.99
2 -6 10 107.10
-3 6 -10 55.06
-3 6 -10 49.89
3 -6 10 54.24
-4 6 -10 4.48
-4 6 -10 5.50
4 -6 10 5.62
-5 -5 10 0.23
-5 -5 10 0.10
4 5 -10 23.93
4 5 -10 22.71
4 5 -10 25.71
-4 -5 10 26.01
-4 -5 10 28.07
-4 -5 10 25.42
3 5 -10 10.12
3 5 -10 10.18
3 5 -10 10.59
-3 -5 10 10.67
-3 -5 10 11.13
-3 -5 10 12.23
2 5 -10 83.02
2 5 -10 91.16
2 5 -10 84.94
2 5 -10 90.06
-2 -5 10 83.40
-2 -5 10 85.49
1 5 -10 1.60
1 5 -10 1.68
1 5 -10 1.32
-1 -5 10 1.82
-1 -5 10 2.29
0 5 -10 6.71
0 5 -10 8.25
0 5 -10 9.35
0 5 -10 7.82
0 -5 10 8.78
0 -5 10 7.59
-1 5 -10 0.65
-1 5 -10 0.71
-1 5 -10 0.08
-1 5 -10 0.45
1 -5 10 0.77
1 -5 10 0.62
-2 5 -10 19.55
-2 5 -10 18.62
-2 5 -10 16.56
-2 5 -10 20.06
2 -5 10 18.58
2 -5 10 16.09
2 -5 10 17.97
-3 5 -10 45.52
-3 5 -10 46.51
-3 5 -10 50.62
3 -5 10 50.73
-4 5 -10 8.98
-4 5 -10 10.06
4 -5 10 9.40
-5 5 -10 4.66
-5 5 -10 4.06
-5 5 -10 6.13
5 -5 10 5.22
-6 -4 10 2.12
-6 -4 10 1.97
5 4 -10 2.83
-5 -4 10 3.84
-5 -4 10 2.94
4 4 -10 16.89
4 4 -10 16.06
4 4 -10 16.99
4 4 -10 18.18
-4 -4 10 15.93
-4 -4 10 17.04
-4 -4 10 17.86
3 4 -10 51.54
3 4 -10 58.29
3 4 -10 52.34
3 4 -10 53.92
-3 -4 10 51.53
-3 -4 10 54.80
-3 -4 10 52.90
2 4 -10 3.86
2 4 -10 3.72
-2 -4 10 3.35
-2 -4 10 4.28
-2 -4 10 5.00
1 4 -10 91.38
1 4 -10 97.48
1 4 -10 92.32
-1 -4 10 86.78
-1 -4 10 100.75
0 4 -10 84.36
0 4 -10 83.71
0 4 -10 81.51
0 4 -10 87.92
0 -4 10 90.05
0 -4 10 85.32
0 -4 10 87.44
-1 4 -10 17.64
-1 4 -10 15.85
-1 4 -10 14.01
-1 4 -10 15.07
1 -4 10 14.37
1 -4 10 14.64
-2 4 -10 232.88
-2 4 -10 246.79
-2 4 -10 236.68
-2 4 -10 229.80
2 -4 10 233.19
2 -4 10 228.21
2 -4 10 224.30
-3 4 -10 34.23
-3 4 -10 30.75
-3 4 -10 32.12
3 -4 10 29.68
3 -4 10 35.53
-4 4 -10 1.69
-4 4 -10 2.07
-4 4 -10 1.14
4 -4 10 1.27
-5 4 -10 3.60
-5 4 -10 3.99
-5 4 -10 4.15
5 -4 10 4.53
-6 -3 10 -0.34
5 3 -10 -0.27
5 3 -10 -0.11
5 3 -10 0.01
-5 -3 10 0.26
-5 -3 10 0.35
-5 -3 10 0.28
4 3 -10 -0.71
4 3 -10 0.51
4 3 -10 0.61
4 3 -10 0.60
4 3 -10 0.38
-4 -3 10 0.71
-4 -3 10 0.26
-4 -3 10 0.64
3 3 -10 22.03
3 3 -10 23.80
3 3 -10 23.94
3 3 -10 21.57
-3 -3 10 25.60
-3 -3 10 24.17
-3 -3 10 24.32
2 3 -10 3.15
2 3 -10 3.46
-2 -3 10 3.59
-2 -3 10 3.04
-2 -3 10 4.50
1 3 -10 -0.01
1 3 -10 0.33
1 3 -10 0.29
-1 -3 10 0.55
-1 -3 10 0.01
-1 -3 10 0.05
-1 -3 10 0.48
0 3 -10 15.50
0 3 -10 14.55
0 3 -10 16.20
0 -3 10 15.12
0 -3 10 16.17
0 -3 10 19.25
-1 3 -10 2.69
-1 3 -10 2.78
-1 3 -10 2.42
1 -3 10 3.05
1 -3 10 3.18
1 -3 10 2.51
-2 3 -10 39.73
-2 3 -10 36.62
-2 3 -10 42.75
-2 3 -10 41.20
2 -3 10 39.50
2 -3 10 37.13
2 -3 10 38.72
-3 3 -10 62.74
-3 3 -10 68.94
-3 3 -10 67.22
-3 3 -10 68.42
3 -3 10 61.58
3 -3 10 66.80
3 -3 10 65.23
-4 3 -10 0.33
-4 3 -10 1.09
-4 3 -10 0.97
4 -3 10 1.10
-5 3 -10 18.40
-5 3 -10 21.98
-5 3 -10 17.19
5 -3 10 18.46
6 2 -10 2.26
5 2 -10 20.18
5 2 -10 24.89
-5 -2 10 26.69
4 2 -10 119.37
4 2 -10 129.09
4 2 -10 115.54
4 2 -10 113.00
4 2 -10 120.20
-4 -2 10 121.43
-4 -2 10 122.33
-4 -2 10 117.97
3 2 -10 53.59
3 2 -10 60.03
3 2 -10 54.54
3 2 -10 57.34
-3 -2 10 53.82
-3 -2 10 59.57
-3 -2 10 57.70
2 2 -10 0.64
2 2 -10 1.14
-2 -2 10 0.80
-2 -2 10 0.62
-2 -2 10 0.29
1 2 -10 10.67
1 2 -10 10.86
1 2 -10 10.34
-1 -2 10 10.42
-1 -2 10 10.75
-1 -2 10 11.03
-1 -2 10 10.37
0 2 -10 16.08
0 2 -10 17.27
0 2 -10 17.94
0 -2 10 17.32
0 -2 10 16.47
0 -2 10 16.53
-1 2 -10 176.52
-1 2 -10 179.02
-1 2 -10 167.17
1 -2 10 183.72
1 -2 10 181.19
1 -2 10 169.37
1 -2 10 172.79
-2 2 -10 29.97
-2 2 -10 30.57
-2 2 -10 26.55
-2 2 -10 29.06
2 -2 10 28.99
2 -2 10 29.57
2 -2 10 28.68
2 -2 10 28.66
-3 2 -10 5.77
-3 2 -10 4.43
-3 2 -10 4.32
-3 2 -10 4.53
3 -2 10 5.04
3 -2 10 6.32
3 -2 10 3.99
3 -2 10 4.48
-4 2 -10 12.31
-4 2 -10 12.29
-4 2 -10 13.12
4 -2 10 14.12
4 -2 10 12.60
4 -2 10 13.27
-5 2 -10 10.18
-5 2 -10 11.12
-5 2 -10 10.66
5 -2 10 12.99
6 1 -10 1.41
5 1 -10 3.87
5 1 -10 2.54
4 1 -10 4.09
4 1 -10 3.33
4 1 -10 4.75
4 1 -10 3.49
-4 -1 10 4.35
3 1 -10 60.23
3 1 -10 60.65
3 1 -10 58.33
3 1 -10 66.53
3 1 -10 63.71
-3 -1 10 59.45
-3 -1 10 63.57
-3 -1 10 59.66
2 1 -10 13.30
2 1 -10 13.96
2 1 -10 12.83
-2 -1 10 13.84
-2 -1 10 14.09
-2 -1 10 11.93
-2 -1 10 13.20
1 1 -10 98.35
1 1 -10 92.72
1 1 -10 97.23
-1 -1 10 101.22
-1 -1 10 87.75
-1 -1 10 91.00
-1 -1 10 93.33
0 1 -10 44.04
0 1 -10 45.59
0 1 -10 45.46
0 -1 10 45.73
0 -1 10 44.79
0 -1 10 44.44
-1 1 -10 38.41
-1 1 -10 38.18
-1 1 -10 38.46
1 -1 10 40.02
1 -1 10 40.57
1 -1 10 41.03
1 -1 10 37.79
-2 1 -10 72.42
-2 1 -10 80.35
-2 1 -10 79.97
2 -1 10 79.56
2 -1 10 77.14
2 -1 10 78.32
2 -1 10 76.84
-3 1 -10 5.71
-3 1 -10 4.82
-3 1 -10 3.94
-3 1 -10 2.71
3 -1 10 3.60
3 -1 10 4.55
3 -1 10 4.23
-4 1 -10 4.80
-4 1 -10 3.83
-4 1 -10 4.18
-4 1 -10 3.39
4 -1 10 4.65
4 -1 10 2.63
-5 1 -10 3.36
-5 1 -10 2.84
-5 1 -10 4.70
6 0 -10 15.83
5 0 -10 -0.13
5 0 -10 0.30
5 0 -10 0.00
4 0 -10 82.61
4 0 -10 78.99
4 0 -10 75.12
4 0 -10 74.81
4 0 -10 73.46
3 0 -10 0.90
3 0 -10 1.25
3 0 -10 0.77
3 0 -10 1.25
3 0 -10 0.83
-3 0 10 1.32
-3 0 10 1.33
-3 0 10 1.09
2 0 -10 73.98
2 0 -10 72.30
2 0 -10 70.13
-2 0 10 68.15
-2 0 10 70.13
-2 0 10 73.04
-2 0 10 71.43
1 0 -10 1.81
1 0 -10 1.69
1 0 -10 1.53
1 0 -10 1.51
-1 0 10 1.55
-1 0 10 1.55
-1 0 10 1.69
-1 0 10 2.15
0 0 -10 109.17
0 0 -10 106.10
0 0 -10 109.39
0 0 10 117.42
0 0 10 108.65
0 0 10 108.54
-1 0 -10 199.72
-1 0 -10 200.49
-1 0 -10 212.06
1 0 10 201.76
1 0 10 200.46
1 0 10 198.05
-2 0 -10 8.91
-2 0 -10 9.54
-2 0 -10 9.66
2 0 10 9.60
2 0 10 9.09
2 0 10 9.42
-3 0 -10 11.29
-3 0 -10 13.11
-3 0 -10 12.95
-3 0 -10 13.87
3 0 10 13.28
3 0 10 12.69
3 0 10 13.36
-4 0 -10 0.15
-4 0 -10 -1.15
-4 0 -10 -0.27
4 0 10 -0.34
4 0 10 0.69
-5 0 -10 0.66
-5 0 -10 2.08
5 0 10 1.34
6 -1 -10 4.75
5 -1 -10 23.44
5 -1 -10 19.80
5 -1 -10 20.84
4 -1 -10 23.55
4 -1 -10 24.81
4 -1 -10 23.81
4 -1 -10 22.31
4 -1 -10 24.81
-4 1 10 24.58
3 -1 -10 44.93
3 -1 -10 43.27
3 -1 -10 42.55
3 -1 -10 47.38
3 -1 -10 45.31
-3 1 10 40.66
-3 1 10 42.31
2 -1 -10 0.99
2 -1 -10 0.99
2 -1 -10 1.87
2 -1 -10 1.63
-2 1 10 0.53
-2 1 10 0.94
-2 1 10 1.43
1 -1 -10 39.94
1 -1 -10 38.46
1 -1 -10 38.81
-1 1 10 38.92
-1 1 10 38.22
-1 1 10 37.39
0 -1 -10 1.26
0 -1 -10 1.27
0 -1 -10 1.54
0 1 10 1.41
0 1 10 1.11
-1 -1 -10 59.38
-1 -1 -10 53.48
-1 -1 -10 56.51
1 1 10 57.43
1 1 10 57.64
1 1 10 57.66
-2 -1 -10 32.07
-2 -1 -10 29.57
2 1 10 30.90
2 1 10 32.33
2 1 10 29.57
-3 -1 -10 94.62
-3 -1 -10 89.74
-3 -1 -10 89.05
3 1 10 92.27
3 1 10 92.28
-4 -1 -10 2.09
-4 -1 -10 1.29
4 1 10 1.06
4 1 10 2.23
-5 -1 -10 -0.41
-5 -1 -10 0.65
5 1 10 0.34
6 -2 -10 14.68
5 -2 -10 23.34
5 -2 -10 23.60
5 -2 -10 21.09
4 -2 -10 31.27
4 -2 -10 31.83
4 -2 -10 33.70
-4 2 10 30.94
3 -2 -10 0.97
3 -2 -10 0.42
3 -2 -10 1.11
3 -2 -10 0.79
-3 2 10 0.71
-3 2 10 0.75
-3 2 10 0.65
2 -2 -10 9.31
2 -2 -10 7.79
2 -2 -10 9.39
2 -2 -10 9.31
-2 2 10 8.49
-2 2 10 7.59
-2 2 10 9.90
1 -2 -10 2.30
1 -2 -10 1.61
1 -2 -10 2.19
-1 2 10 2.74
-1 2 10 2.43
-1 2 10 2.50
0 -2 -10 84.78
0 -2 -10 82.06
0 -2 -10 86.93
0 2 10 86.64
0 2 10 79.58
-1 -2 -10 63.23
-1 -2 -10 58.68
-1 -2 -10 66.18
1 2 10 66.15
1 2 10 61.71
1 2 10 58.70
-2 -2 -10 38.85
-2 -2 -10 40.61
2 2 10 40.85
2 2 10 37.25
2 2 10 35.28
-3 -2 -10 4.34
-3 -2 -10 4.68
3 2 10 3.60
3 2 10 5.02
-4 -2 -10 0.78
-4 -2 -10 0.24
4 2 10 0.75
4 2 10 0.91
-5 -2 -10 4.07
5 2 10 2.91
6 -3 -10 5.59
5 -3 -10 0.74
5 -3 -10 0.79
4 -3 -10 26.17
4 -3 -10 26.52
4 -3 -10 23.61
4 -3 -10 25.95
4 -3 -10 25.57
-4 3 10 26.05
-4 3 10 23.90
-4 3 10 26.38
3 -3 -10 17.88
3 -3 -10 19.29
3 -3 -10 18.88
3 -3 -10 16.81
3 -3 -10 16.51
-3 3 10 19.86
-3 3 10 18.04
-3 3 10 19.77
2 -3 -10 18.50
2 -3 -10 20.82
2 -3 -10 20.23
-2 3 10 21.23
-2 3 10 19.89
-2 3 10 19.07
1 -3 -10 0.04
1 -3 -10 0.10
1 -3 -10 0.20
-1 3 10 0.45
-1 3 10 0.66
-1 3 10 0.14
0 -3 -10 6.41
0 -3 -10 4.60
0 -3 -10 6.76
0 3 10 5.39
0 3 10 6.65
-1 -3 -10 131.57
-1 -3 -10 132.23
-1 -3 -10 122.64
1 3 10 128.94
1 3 10 133.22
-2 -3 -10 4.61
-2 -3 -10 3.48
-2 -3 -10 3.16
2 3 10 2.28
2 3 10 2.83
2 3 10 4.27
-3 -3 -10 60.62
-3 -3 -10 56.67
3 3 10 56.71
3 3 10 54.54
-4 -3 -10 1.38
-4 -3 -10 0.91
4 3 10 0.49
5 -4 -10 54.14
4 -4 -10 23.41
4 -4 -10 19.04
-4 4 10 19.74
-4 4 10 21.63
3 -4 -10 0.18
3 -4 -10 0.12
3 -4 -10 0.34
3 -4 -10 0.03
3 -4 -10 -0.04
-3 4 10 0.15
-3 4 10 0.08
-3 4 10 0.53
2 -4 -10 0.72
2 -4 -10 0.88
-2 4 10 0.89
-2 4 10 1.09
-2 4 10 1.10
1 -4 -10 19.70
1 -4 -10 21.78
-1 4 10 17.16
-1 4 10 19.39
-1 4 10 20.24
0 -4 -10 115.19
0 -4 -10 120.46
0 -4 -10 129.11
0 4 10 116.29
0 4 10 123.00
-1 -4 -10 -0.13
-1 -4 -10 0.08
-1 -4 -10 -0.35
1 4 10 -0.01
1 4 10 0.23
-2 -4 -10 4.96
-2 -4 -10 5.09
-2 -4 -10 5.42
2 4 10 5.05
2 4 10 5.59
-3 -4 -10 6.64
-3 -4 -10 4.62
3 4 10 5.34
5 -5 -10 -0.07
4 -5 -10 1.79
-4 5 10 1.97
-4 5 10 2.06
3 -5 -10 12.46
-3 5 10 10.79
-3 5 10 9.56
2 -5 -10 30.40
2 -5 -10 30.09
-2 5 10 30.48
-2 5 10 27.37
-2 5 10 28.80
1 -5 -10 20.48
1 -5 -10 19.38
-1 5 10 20.36
-1 5 10 21.67
-1 5 10 20.21
0 -5 -10 1.07
0 -5 -10 0.55
0 5 10 0.35
0 5 10 1.77
-1 -5 -10 29.15
-1 -5 -10 33.23
1 5 10 29.18
-2 -5 -10 20.15
-2 -5 -10 21.55
2 5 10 18.60
-3 -5 -10 3.76
-3 -5 -10 3.31
3 5 10 3.39
3 -6 -10 3.56
-3 6 10 4.12
-3 6 10 5.28
2 -6 -10 1.66
-2 6 10 0.72
-2 6 10 1.04
1 -6 -10 88.89
1 -6 -10 95.02
-1 6 10 87.57
-1 6 10 87.50
0 -6 -10 38.28
0 6 10 39.16
-1 -6 -10 5.65
1 6 10 4.62
2 8 -11 1.59
2 8 -11 2.82
-2 -8 11 3.50
1 8 -11 33.52
1 8 -11 31.19
-1 -8 11 31.38
0 8 -11 44.95
0 8 -11 36.87
0 -8 11 41.34
-1 8 -11 -0.23
-1 8 -11 0.08
1 -8 11 0.21
-2 8 -11 5.72
-2 8 -11 3.12
2 -8 11 4.23
-4 -7 11 4.60
-4 -7 11 4.70
3 7 -11 0.58
-3 -7 11 0.87
-3 -7 11 0.83
2 7 -11 16.91
2 7 -11 16.08
-2 -7 11 14.85
-2 -7 11 13.87
1 7 -11 3.91
1 7 -11 3.77
-1 -7 11 4.03
-1 -7 11 2.69
0 7 -11 0.97
0 7 -11 0.18
0 7 -11 0.14
0 -7 11 0.97
-1 7 -11 0.53
-1 7 -11 0.57
1 -7 11 1.06
-2 7 -11 1.40
-2 7 -11 1.56
2 -7 11 1.25
-3 7 -11 0.63
-3 7 -11 1.18
3 -7 11 0.33
-5 -6 11 1.45
-4 -6 11 0.34
3 6 -11 54.24
-3 -6 11 57.61
-3 -6 11 57.95
-3 -6 11 57.59
2 6 -11 37.98
2 6 -11 33.76
2 6 -11 33.99
-2 -6 11 33.18
-2 -6 11 37.31
1 6 -11 40.18
1 6 -11 36.60
1 6 -11 38.02
-1 -6 11 36.85
-1 -6 11 36.41
0 6 -11 6.88
0 6 -11 8.39
0 6 -11 7.08
0 -6 11 7.59
0 -6 11 7.58
-1 6 -11 4.08
-1 6 -11 2.41
-1 6 -11 2.42
1 -6 11 3.66
-2 6 -11 35.23
-2 6 -11 32.46
2 -6 11 35.46
-3 6 -11 50.41
-3 6 -11 46.77
3 -6 11 47.40
-4 6 -11 19.73
-4 6 -11 20.59
4 -6 11 19.18
-5 -5 11 1.54
-5 -5 11 1.89
4 5 -11 2.47
4 5 -11 2.67
-4 -5 11 3.16
-4 -5 11 2.57
3 5 -11 23.28
3 5 -11 24.68
-3 -5 11 24.63
-3 -5 11 24.93
-3 -5 11 26.07
2 5 -11 -0.17
2 5 -11 -0.25
2 5 -11 0.17
2 5 -11 0.01
-2 -5 11 0.34
-2 -5 11 0.46
-2 -5 11 0.09
1 5 -11 20.13
1 5 -11 21.20
1 5 -11 19.04
1 5 -11 20.28
-1 -5 11 20.52
-1 -5 11 19.31
0 5 -11 26.69
0 5 -11 26.79
0 5 -11 26.07
0 5 -11 24.86
0 -5 11 25.82
0 -5 11 25.59
-1 5 -11 0.18
-1 5 -11 0.27
-1 5 -11 0.67
-1 5 -11 -0.19
1 -5 11 0.44
1 -5 11 0.24
1 -5 11 -0.21
-2 5 -11 45.21
-2 5 -11 39.93
2 -5 11 42.37
2 -5 11 39.52
-3 5 -11 5.50
-3 5 -11 7.09
3 -5 11 6.77
-4 5 -11 0.81
-4 5 -11 -0.29
4 -5 11 1.75
-6 -4 11 2.08
-6 -4 11 2.53
5 4 -11 -0.30
-5 -4 11 -0.01
-5 -4 11 -0.11
4 4 -11 0.19
4 4 -11 -0.10
4 4 -11 0.63
4 4 -11 -0.08
-4 -4 11 -0.06
-4 -4 11 0.53
-4 -4 11 0.54
3 4 -11 110.42
3 4 -11 107.26
3 4 -11 107.65
3 4 -11 103.31
-3 -4 11 110.95
-3 -4 11 105.96
-3 -4 11 102.89
2 4 -11 136.03
2 4 -11 136.65
-2 -4 11 141.23
-2 -4 11 144.24
-2 -4 11 132.95
1 4 -11 29.41
1 4 -11 30.17
1 4 -11 30.33
-1 -4 11 31.53
-1 -4 11 30.06
0 4 -11 17.88
0 4 -11 18.64
0 4 -11 20.54
0 -4 11 20.19
0 -4 11 20.23
0 -4 11 18.79
-1 4 -11 17.48
-1 4 -11 17.85
-1 4 -11 16.34
-1 4 -11 16.57
1 -4 11 19.24
1 -4 11 16.70
-2 4 -11 59.15
-2 4 -11 69.61
-2 4 -11 65.76
-2 4 -11 71.37
2 -4 11 66.82
2 -4 11 67.67
2 -4 11 65.54
-3 4 -11 68.69
-3 4 -11 65.88
-3 4 -11 68.19
3 -4 11 65.28
-4 4 -11 8.12
-4 4 -11 7.97
4 -4 11 6.86
-5 4 -11 -0.10
-5 4 -11 0.58
-5 4 -11 -0.27
5 -4 11 -0.03
-6 -3 11 0.20
5 3 -11 -0.07
5 3 -11 -0.04
-5 -3 11 0.03
-5 -3 11 -0.04
-5 -3 11 0.22
4 3 -11 37.16
4 3 -11 36.07
4 3 -11 37.81
-4 -3 11 37.97
-4 -3 11 35.84
-4 -3 11 37.41
3 3 -11 3.62
3 3 -11 3.86
3 3 -11 3.69
3 3 -11 3.61
-3 -3 11 3.68
-3 -3 11 4.88
-3 -3 11 4.53
2 3 -11 14.47
2 3 -11 15.57
-2 -3 11 16.70
-2 -3 11 12.78
-2 -3 11 15.72
1 3 -11 67.91
1 3 -11 75.26
1 3 -11 73.81
-1 -3 11 78.87
-1 -3 11 71.55
-1 -3 11 69.05
-1 -3 11 74.83
0 3 -11 32.70
0 3 -11 38.26
0 3 -11 33.95
0 -3 11 35.74
0 -3 11 33.17
0 -3 11 35.90
0 -3 11 41.11
-1 3 -11 0.46
-1 3 -11 0.08
-1 3 -11 0.54
1 -3 11 0.25
1 -3 11 -0.08
-2 3 -11 49.38
-2 3 -11 51.79
-2 3 -11 52.77
-2 3 -11 48.55
2 -3 11 51.13
2 -3 11 48.56
2 -3 11 50.22
-3 3 -11 1.23
-3 3 -11 0.40
-3 3 -11 1.27
3 -3 11 0.70
3 -3 11 1.19
-4 3 -11 17.24
-4 3 -11 22.24
4 -3 11 17.59
-5 3 -11 0.60
-5 3 -11 -0.03
-5 3 -11 -0.12
5 -3 11 -0.82
6 2 -11 1.69
5 2 -11 2.41
-5 -2 11 2.58
4 2 -11 0.70
4 2 -11 1.53
4 2 -11 0.95
4 2 -11 0.32
-4 -2 11 0.39
-4 -2 11 0.90
-4 -2 11 0.67
3 2 -11 250.99
3 2 -11 245.58
3 2 -11 247.08
3 2 -11 234.90
-3 -2 11 235.10
-3 -2 11 248.30
-3 -2 11 238.14
2 2 -11 46.71
2 2 -11 42.67
-2 -2 11 45.08
-2 -2 11 40.82
-2 -2 11 45.28
-2 -2 11 45.57
1 2 -11 19.06
1 2 -11 19.15
1 2 -11 20.12
-1 -2 11 19.86
-1 -2 11 18.83
-1 -2 11 18.45
-1 -2 11 17.39
0 2 -11 1.58
0 2 -11 1.86
0 2 -11 1.61
0 -2 11 1.59
0 -2 11 2.03
0 -2 11 1.96
-1 2 -11 15.40
-1 2 -11 15.70
-1 2 -11 15.22
1 -2 11 15.96
1 -2 11 16.56
1 -2 11 16.41
1 -2 11 18.07
-2 2 -11 295.92
-2 2 -11 290.05
-2 2 -11 306.33
-2 2 -11 282.53
2 -2 11 311.63
2 -2 11 271.48
2 -2 11 307.20
2 -2 11 292.59
-3 2 -11 50.86
-3 2 -11 49.30
-3 2 -11 53.66
3 -2 11 47.16
3 -2 11 51.63
3 -2 11 48.94
-4 2 -11 1.00
-4 2 -11 2.15
4 -2 11 0.85
4 -2 11 0.79
-5 2 -11 0.39
-5 2 -11 -0.23
-5 2 -11 -0.09
5 -2 11 -0.23
6 1 -11 0.29
5 1 -11 4.15
5 1 -11 2.90
4 1 -11 97.34
4 1 -11 95.22
4 1 -11 99.06
4 1 -11 88.95
-4 -1 11 89.36
3 1 -11 2.72
3 1 -11 3.08
3 1 -11 3.05
3 1 -11 2.98
-3 -1 11 2.48
-3 -1 11 3.23
-3 -1 11 3.33
-3 -1 11 2.97
2 1 -11 0.92
2 1 -11 0.19
2 1 -11 0.54
-2 -1 11 0.49
-2 -1 11 0.23
-2 -1 11 0.40
-2 -1 11 0.58
1 1 -11 2.64
1 1 -11 2.04
1 1 -11 2.93
-1 -1 11 2.10
-1 -1 11 2.24
-1 -1 11 2.51
-1 -1 11 2.20
0 1 -11 35.98
0 1 -11 37.28
0 1 -11 36.31
0 -1 11 34.87
0 -1 11 34.63
0 -1 11 34.43
-1 1 -11 0.83
-1 1 -11 0.53
-1 1 -11 1.23
1 -1 11 1.03
1 -1 11 1.87
1 -1 11 1.14
1 -1 11 1.31
-2 1 -11 42.68
-2 1 -11 43.76
-2 1 -11 44.06
2 -1 11 45.13
2 -1 11 49.63
2 -1 11 47.56
2 -1 11 44.15
-3 1 -11 0.14
-3 1 -11 0.49
-3 1 -11 0.39
-3 1 -11 0.14
3 -1 11 0.90
3 -1 11 0.73
-4 1 -11 30.47
-4 1 -11 33.08
4 -1 11 31.15
4 -1 11 32.01
-5 1 -11 0.21
-5 1 -11 0.13
5 -1 11 0.47
6 0 -11 0.44
5 0 -11 2.28
5 0 -11 2.07
4 0 -11 75.02
4 0 -11 80.81
4 0 -11 71.73
4 0 -11 73.57
3 0 -11 253.46
3 0 -11 250.52
3 0 -11 245.44
3 0 -11 261.05
-3 0 11 240.53
-3 0 11 249.59
2 0 -11 83.27
2 0 -11 83.43
2 0 -11 85.53
-2 0 11 82.46
-2 0 11 80.90
-2 0 11 80.62
1 0 -11 19.47
1 0 -11 22.39
1 0 -11 19.42
1 0 -11 20.59
-1 0 11 17.60
-1 0 11 18.01
-1 0 11 22.33
-1 0 11 19.96
0 0 -11 6.29
0 0 -11 6.77
0 0 -11 5.38
0 0 11 5.37
0 0 11 4.92
-1 0 -11 86.26
-1 0 -11 83.94
-1 0 -11 89.02
1 0 11 85.74
1 0 11 86.37
1 0 11 86.14
-2 0 -11 103.73
-2 0 -11 107.05
-2 0 -11 118.76
2 0 11 107.26
2 0 11 108.73
2 0 11 117.62
-3 0 -11 16.92
-3 0 -11 15.72
-3 0 -11 16.02
-3 0 -11 17.67
3 0 11 17.00
3 0 11 19.59
-4 0 -11 7.25
-4 0 -11 5.03
4 0 11 7.00
4 0 11 6.65
-5 0 -11 1.33
-5 0 -11 0.91
5 0 11 1.35
6 -1 -11 3.53
5 -1 -11 3.01
5 -1 -11 2.93
5 -1 -11 3.78
4 -1 -11 97.49
4 -1 -11 97.68
-4 1 11 99.24
3 -1 -11 0.11
3 -1 -11 0.23
3 -1 -11 0.54
3 -1 -11 0.30
-3 1 11 0.56
-3 1 11 0.46
-3 1 11 0.35
2 -1 -11 5.11
2 -1 -11 5.92
2 -1 -11 5.81
2 -1 -11 6.04
-2 1 11 6.10
-2 1 11 6.40
-2 1 11 5.72
1 -1 -11 3.87
1 -1 -11 3.40
1 -1 -11 3.16
-1 1 11 3.75
-1 1 11 3.72
-1 1 11 2.93
0 -1 -11 37.62
0 -1 -11 34.09
0 -1 -11 35.44
0 1 11 35.44
0 1 11 33.27
-1 -1 -11 112.41
-1 -1 -11 116.96
1 1 11 117.38
1 1 11 121.43
1 1 11 113.35
-2 -1 -11 4.65
-2 -1 -11 4.44
2 1 11 3.98
2 1 11 3.59
2 1 11 4.88
-3 -1 -11 -0.09
3 1 11 0.27
3 1 11 0.46
-4 -1 -11 21.08
-4 -1 -11 22.55
4 1 11 20.54
4 1 11 18.54
-5 -1 -11 2.46
-5 -1 -11 3.62
5 1 11 2.65
6 -2 -11 -0.19
5 -2 -11 16.93
5 -2 -11 19.49
5 -2 -11 16.94
4 -2 -11 68.43
4 -2 -11 74.44
4 -2 -11 68.41
4 -2 -11 74.35
4 -2 -11 59.33
-4 2 11 57.35
-4 2 11 66.19
3 -2 -11 100.69
3 -2 -11 95.20
3 -2 -11 95.88
3 -2 -11 88.43
3 -2 -11 94.65
-3 2 11 89.92
-3 2 11 95.54
-3 2 11 89.17
2 -2 -11 52.45
2 -2 -11 61.04
2 -2 -11 58.07
-2 2 11 56.52
-2 2 11 54.07
-2 2 11 55.34
1 -2 -11 7.08
1 -2 -11 7.85
1 -2 -11 9.31
-1 2 11 8.85
-1 2 11 11.24
-1 2 11 9.56
0 -2 -11 93.47
0 -2 -11 94.04
0 -2 -11 90.13
0 2 11 95.97
0 2 11 83.24
-1 -2 -11 17.33
-1 -2 -11 14.65
-1 -2 -11 16.08
1 2 11 20.69
1 2 11 17.49
-2 -2 -11 2.75
2 2 11 1.77
2 2 11 2.05
2 2 11 1.72
-3 -2 -11 15.16
-3 -2 -11 12.63
3 2 11 13.54
3 2 11 13.42
-4 -2 -11 7.32
-4 -2 -11 5.96
4 2 11 7.56
6 -3 -11 22.33
5 -3 -11 19.52
4 -3 -11 25.78
4 -3 -11 26.30
4 -3 -11 23.94
4 -3 -11 27.33
-4 3 11 26.06
-4 3 11 25.82
-4 3 11 27.83
3 -3 -11 15.72
3 -3 -11 12.86
3 -3 -11 13.67
3 -3 -11 15.04
-3 3 11 15.70
-3 3 11 14.51
-3 3 11 15.41
2 -3 -11 34.58
2 -3 -11 35.35
2 -3 -11 31.13
-2 3 11 35.69
-2 3 11 33.24
-2 3 11 29.57
1 -3 -11 0.86
1 -3 -11 0.91
1 -3 -11 1.33
-1 3 11 0.47
-1 3 11 0.64
-1 3 11 0.50
0 -3 -11 0.74
0 -3 -11 0.99
0 -3 -11 1.46
0 3 11 1.87
0 3 11 1.04
-1 -3 -11 147.46
-1 -3 -11 144.55
1 3 11 147.73
1 3 11 144.62
-2 -3 -11 0.52
-2 -3 -11 0.89
2 3 11 0.50
2 3 11 0.29
-3 -3 -11 9.05
-3 -3 -11 7.11
3 3 11 7.81
-4 -3 -11 2.24
-4 -3 -11 2.84
4 3 11 2.86
5 -4 -11 14.13
4 -4 -11 16.64
-4 4 11 15.25
-4 4 11 14.57
3 -4 -11 39.34
3 -4 -11 40.04
3 -4 -11 33.12
-3 4 11 39.22
-3 4 11 39.39
-3 4 11 39.56
2 -4 -11 39.11
2 -4 -11 39.14
-2 4 11 37.42
-2 4 11 36.93
-2 4 11 38.98
1 -4 -11 6.11
1 -4 -11 5.77
-1 4 11 6.08
-1 4 11 4.99
-1 4 11 5.29
0 -4 -11 70.63
0 -4 -11 69.25
0 4 11 68.05
0 4 11 68.30
-1 -4 -11 0.67
-1 -4 -11 1.30
-1 -4 -11 0.16
1 4 11 1.03
-2 -4 -11 7.11
-2 -4 -11 8.22
2 4 11 7.93
-3 -4 -11 0.01
-3 -4 -11 0.38
3 4 11 0.81
4 -5 -11 1.07
-4 5 11 0.99
-4 5 11 0.69
3 -5 -11 -0.68
-3 5 11 -0.02
-3 5 11 0.18
2 -5 -11 0.59
-2 5 11 0.94
-2 5 11 0.26
1 -5 -11 19.49
1 -5 -11 21.79
-1 5 11 19.79
-1 5 11 18.77
0 -5 -11 5.18
0 -5 -11 3.83
0 -5 -11 4.18
0 5 11 5.30
0 5 11 4.56
-1 -5 -11 45.52
-1 -5 -11 56.58
1 5 11 48.25
-2 -5 -11 9.54
-2 -5 -11 6.51
2 5 11 7.06
3 -6 -11 0.08
-3 6 11 0.11
2 -6 -11 23.29
-2 6 11 21.87
-2 6 11 19.65
1 -6 -11 0.20
1 -6 -11 0.22
-1 6 11 0.03
-1 6 11 -0.24
0 -6 -11 23.61
0 6 11 25.68
0 6 11 25.22
2 8 -12 -0.14
2 8 -12 1.13
-2 -8 12 0.70
1 8 -12 8.05
1 8 -12 7.12
-1 -8 12 6.76
0 8 -12 11.70
0 8 -12 13.43
0 -8 12 9.87
-1 8 -12 15.64
-1 8 -12 12.64
1 -8 12 14.99
-2 8 -12 2.85
3 7 -12 1.68
3 7 -12 0.84
-3 -7 12 1.18
-3 -7 12 1.18
2 7 -12 13.71
2 7 -12 9.89
-2 -7 12 13.37
-2 -7 12 8.32
1 7 -12 36.19
1 7 -12 39.66
-1 -7 12 38.27
0 7 -12 17.85
0 7 -12 17.17
0 7 -12 21.12
0 -7 12 22.33
-1 7 -12 4.65
-1 7 -12 5.27
1 -7 12 5.99
-2 7 -12 0.99
-2 7 -12 1.98
2 -7 12 0.67
-3 7 -12 6.09
-3 7 -12 5.51
3 -7 12 6.38
-4 -6 12 10.93
-4 -6 12 11.62
3 6 -12 0.81
-3 -6 12 0.30
-3 -6 12 0.62
-3 -6 12 0.25
2 6 -12 1.55
2 6 -12 1.75
2 6 -12 1.16
-2 -6 12 1.77
-2 -6 12 1.20
1 6 -12 12.24
1 6 -12 11.07
1 6 -12 11.82
-1 -6 12 11.31
-1 -6 12 11.29
0 6 -12 0.02
0 6 -12 0.41
0 6 -12 0.66
0 -6 12 0.57
0 -6 12 0.40
-1 6 -12 -0.17
-1 6 -12 -0.10
-1 6 -12 0.02
1 -6 12 0.08
-2 6 -12 2.46
-2 6 -12 2.72
2 -6 12 1.61
-3 6 -12 1.55
-3 6 -12 1.27
3 -6 12 2.48
-4 6 -12 0.75
-4 6 -12 0.36
4 -6 12 0.81
-5 -5 12 0.20
-5 -5 12 0.53
-4 -5 12 5.01
-4 -5 12 6.10
3 5 -12 11.39
-3 -5 12 11.15
-3 -5 12 10.17
-3 -5 12 11.73
2 5 -12 26.93
2 5 -12 26.97
-2 -5 12 28.56
-2 -5 12 26.89
-2 -5 12 24.57
1 5 -12 17.07
1 5 -12 17.71
1 5 -12 18.85
-1 -5 12 21.66
-1 -5 12 18.07
0 5 -12 3.89
0 5 -12 2.56
0 5 -12 4.05
0 -5 12 3.61
0 -5 12 4.25
-1 5 -12 0.86
-1 5 -12 0.32
-1 5 -12 1.04
1 -5 12 1.21
1 -5 12 1.23
1 -5 12 0.84
-2 5 -12 2.19
-2 5 -12 1.88
2 -5 12 2.00
-3 5 -12 82.79
-3 5 -12 81.51
3 -5 12 75.30
-4 5 -12 2.51
-4 5 -12 1.52
4 -5 12 1.89
-5 -4 12 0.69
-5 -4 12 1.01
4 4 -12 29.89
4 4 -12 30.65
4 4 -12 32.36
-4 -4 12 37.15
-4 -4 12 33.31
-4 -4 12 33.52
3 4 -12 0.32
3 4 -12 0.20
-3 -4 12 0.75
-3 -4 12 0.63
-3 -4 12 0.35
2 4 -12 0.35
2 4 -12 -0.23
-2 -4 12 -0.01
-2 -4 12 0.16
-2 -4 12 -0.18
1 4 -12 10.85
1 4 -12 10.43
1 4 -12 11.16
-1 -4 12 13.03
-1 -4 12 12.49
-1 -4 12 10.70
-1 -4 12 11.10
0 4 -12 10.55
0 4 -12 9.38
0 4 -12 10.05
0 -4 12 10.76
0 -4 12 9.68
0 -4 12 11.78
-1 4 -12 14.60
-1 4 -12 14.68
-1 4 -12 13.93
-1 4 -12 12.73
1 -4 12 15.44
1 -4 12 14.12
-2 4 -12 8.51
-2 4 -12 9.54
2 -4 12 9.65
2 -4 12 11.38
2 -4 12 9.83
-3 4 -12 4.13
-3 4 -12 3.74
3 -4 12 3.53
-4 4 -12 1.80
-4 4 -12 2.39
4 -4 12 2.56
-6 -3 12 1.95
5 3 -12 0.79
-5 -3 12 0.30
-5 -3 12 0.51
4 3 -12 8.75
4 3 -12 9.59
4 3 -12 6.81
-4 -3 12 9.53
-4 -3 12 10.51
-4 -3 12 9.69
3 3 -12 112.67
3 3 -12 109.73
3 3 -12 122.06
-3 -3 12 110.56
-3 -3 12 112.69
-3 -3 12 110.83
2 3 -12 5.78
2 3 -12 5.84
-2 -3 12 6.35
-2 -3 12 5.48
-2 -3 12 5.29
-2 -3 12 6.36
1 3 -12 17.36
1 3 -12 17.99
1 3 -12 19.46
-1 -3 12 17.82
-1 -3 12 18.84
-1 -3 12 19.79
-1 -3 12 18.51
0 3 -12 17.20
0 3 -12 18.60
0 3 -12 14.15
0 -3 12 14.76
0 -3 12 16.40
0 -3 12 12.95
0 -3 12 18.52
-1 3 -12 5.52
-1 3 -12 4.97
-1 3 -12 4.26
1 -3 12 4.34
1 -3 12 5.38
1 -3 12 4.68
-2 3 -12 37.47
-2 3 -12 36.28
-2 3 -12 37.21
-2 3 -12 38.53
2 -3 12 37.49
2 -3 12 34.46
2 -3 12 39.30
-3 3 -12 18.59
-3 3 -12 17.42
3 -3 12 16.01
3 -3 12 16.68
-4 3 -12 3.85
-4 3 -12 4.37
4 -3 12 2.64
-5 3 -12 4.18
-5 3 -12 1.59
-5 3 -12 3.30
5 -3 12 2.77
6 2 -12 2.99
5 2 -12 1.82
-5 -2 12 1.80
4 2 -12 52.86
4 2 -12 57.16
4 2 -12 54.54
-4 -2 12 59.95
-4 -2 12 52.19
-4 -2 12 55.44
3 2 -12 1.05
3 2 -12 1.08
3 2 -12 0.97
-3 -2 12 0.94
-3 -2 12 0.77
-3 -2 12 1.28
-3 -2 12 1.13
2 2 -12 15.18
2 2 -12 14.68
-2 -2 12 13.14
-2 -2 12 14.58
-2 -2 12 14.75
-2 -2 12 15.37
1 2 -12 98.53
1 2 -12 99.63
1 2 -12 93.82
-1 -2 12 101.52
-1 -2 12 99.07
-1 -2 12 95.87
-1 -2 12 102.49
0 2 -12 2.62
0 2 -12 1.39
0 2 -12 2.27
0 -2 12 2.38
0 -2 12 2.04
0 -2 12 2.42
-1 2 -12 20.35
-1 2 -12 21.22
-1 2 -12 22.65
1 -2 12 20.19
1 -2 12 20.56
1 -2 12 18.09
-2 2 -12 0.70
-2 2 -12 1.37
-2 2 -12 0.91
-2 2 -12 1.52
2 -2 12 1.09
2 -2 12 1.11
2 -2 12 1.09
2 -2 12 0.49
-3 2 -12 13.96
-3 2 -12 14.42
3 -2 12 14.43
3 -2 12 13.02
3 -2 12 13.97
-4 2 -12 2.99
-4 2 -12 4.12
4 -2 12 4.37
-5 2 -12 9.65
-5 2 -12 8.65
-5 2 -12 9.11
5 -2 12 9.78
6 1 -12 2.52
5 1 -12 0.04
5 1 -12 0.08
4 1 -12 55.60
4 1 -12 62.34
4 1 -12 58.14
-4 -1 12 59.20
3 1 -12 29.56
3 1 -12 28.35
3 1 -12 30.55
-3 -1 12 27.92
-3 -1 12 28.83
-3 -1 12 29.76
-3 -1 12 28.00
2 1 -12 2.36
-2 -1 12 1.86
-2 -1 12 2.03
-2 -1 12 2.16
-2 -1 12 2.58
1 1 -12 252.11
1 1 -12 274.20
1 1 -12 260.51
-1 -1 12 280.33
-1 -1 12 273.06
-1 -1 12 269.27
-1 -1 12 260.24
0 1 -12 1.88
0 1 -12 2.18
0 1 -12 2.05
0 -1 12 1.99
0 -1 12 1.67
0 -1 12 1.60
-1 1 -12 128.20
-1 1 -12 125.12
-1 1 -12 133.49
1 -1 12 128.95
1 -1 12 129.75
1 -1 12 132.48
1 -1 12 133.32
-2 1 -12 60.13
-2 1 -12 60.85
-2 1 -12 58.91
2 -1 12 60.27
2 -1 12 59.66
2 -1 12 59.80
2 -1 12 56.72
-3 1 -12 1.01
-3 1 -12 1.27
3 -1 12 0.61
3 -1 12 0.72
-4 1 -12 3.15
-4 1 -12 3.81
4 -1 12 4.27
4 -1 12 2.57
-5 1 -12 0.45
-5 1 -12 0.40
5 -1 12 0.61
6 0 -12 12.95
5 0 -12 15.19
5 0 -12 11.33
4 0 -12 10.24
4 0 -12 10.53
-4 0 12 8.11
3 0 -12 -0.06
3 0 -12 0.04
3 0 -12 0.28
3 0 -12 0.05
-3 0 12 0.23
-3 0 12 0.09
-3 0 12 -0.03
2 0 -12 58.12
2 0 -12 55.93
2 0 -12 59.52
-2 0 12 62.79
-2 0 12 54.85
-2 0 12 58.31
1 0 -12 264.25
1 0 -12 267.98
1 0 -12 263.89
1 0 -12 270.53
-1 0 12 254.45
-1 0 12 274.88
-1 0 12 271.57
0 0 -12 77.32
0 0 -12 77.06
0 0 -12 84.35
0 0 12 76.16
0 0 12 89.10
-1 0 -12 6.34
-1 0 -12 6.73
-1 0 -12 7.18
1 0 12 6.77
1 0 12 6.20
1 0 12 6.75
-2 0 -12 16.14
-2 0 -12 13.09
-2 0 -12 15.24
2 0 12 15.10
2 0 12 16.59
2 0 12 16.63
-3 0 -12 4.62
3 0 12 6.16
3 0 12 6.40
-4 0 -12 3.09
-4 0 -12 3.54
4 0 12 3.72
4 0 12 4.19
-5 0 -12 41.78
-5 0 -12 48.42
6 -1 -12 4.01
5 -1 -12 26.01
5 -1 -12 34.10
5 -1 -12 25.79
4 -1 -12 66.91
4 -1 -12 69.63
-4 1 12 73.64
3 -1 -12 1.18
3 -1 -12 1.36
3 -1 -12 0.67
3 -1 -12 1.76
-3 1 12 1.57
-3 1 12 1.80
-3 1 12 1.65
2 -1 -12 0.89
2 -1 -12 0.54
2 -1 -12 0.66
2 -1 -12 0.66
2 -1 -12 0.45
-2 1 12 0.59
-2 1 12 0.80
-2 1 12 0.25
1 -1 -12 174.42
1 -1 -12 155.67
1 -1 -12 171.00
-1 1 12 161.66
-1 1 12 162.71
-1 1 12 174.54
0 -1 -12 2.78
0 -1 -12 4.02
0 -1 -12 4.40
0 1 12 3.28
0 1 12 3.58
-1 -1 -12 59.30
-1 -1 -12 60.17
1 1 12 57.35
1 1 12 57.14
-2 -1 -12 78.20
2 1 12 75.17
2 1 12 83.63
2 1 12 77.45
-3 -1 -12 -0.35
3 1 12 -0.71
3 1 12 0.16
-4 -1 -12 2.53
-4 -1 -12 3.28
4 1 12 1.95
6 -2 -12 3.47
5 -2 -12 25.25
4 -2 -12 13.58
4 -2 -12 12.90
4 -2 -12 12.88
4 -2 -12 15.45
-4 2 12 14.45
-4 2 12 14.01
-4 2 12 14.59
3 -2 -12 0.00
3 -2 -12 0.82
3 -2 -12 0.53
3 -2 -12 0.40
-3 2 12 0.97
-3 2 12 0.59
-3 2 12 1.26
2 -2 -12 3.14
2 -2 -12 3.30
2 -2 -12 3.87
-2 2 12 4.17
-2 2 12 2.70
-2 2 12 3.30
1 -2 -12 50.13
1 -2 -12 48.17
1 -2 -12 52.28
-1 2 12 45.06
-1 2 12 49.74
-1 2 12 46.37
0 -2 -12 357.80
0 -2 -12 353.81
0 -2 -12 371.51
0 2 12 352.88
0 2 12 368.62
-1 -2 -12 45.21
-1 -2 -12 46.98
1 2 12 47.32
1 2 12 47.84
-2 -2 -12 34.61
2 2 12 31.04
2 2 12 32.59
-3 -2 -12 0.84
-3 -2 -12 0.14
3 2 12 0.03
-4 -2 -12 -0.60
-4 -2 -12 1.17
4 2 12 1.02
5 -3 -12 42.21
4 -3 -12 52.41
-4 3 12 47.05
-4 3 12 47.72
3 -3 -12 1.54
3 -3 -12 1.39
3 -3 -12 1.06
-3 3 12 1.54
-3 3 12 1.69
-3 3 12 0.81
2 -3 -12 -0.33
2 -3 -12 -0.11
2 -3 -12 0.02
-2 3 12 -0.37
-2 3 12 0.07
-2 3 12 0.23
1 -3 -12 34.96
1 -3 -12 32.17
-1 3 12 32.23
-1 3 12 34.59
-1 3 12 30.65
0 -3 -12 6.90
0 -3 -12 6.24
0 3 12 6.06
0 3 12 7.71
-1 -3 -12 51.05
-1 -3 -12 56.42
1 3 12 55.56
1 3 12 48.19
-2 -3 -12 9.13
-2 -3 -12 10.08
2 3 12 10.11
-3 -3 -12 2.80
-3 -3 -12 1.88
3 3 12 1.62
5 -4 -12 1.73
-5 4 12 0.99
4 -4 -12 10.90
-4 4 12 9.12
-4 4 12 12.54
3 -4 -12 12.54
-3 4 12 11.82
-3 4 12 9.92
2 -4 -12 8.64
-2 4 12 9.66
-2 4 12 8.99
-2 4 12 8.77
1 -4 -12 2.85
1 -4 -12 2.91
-1 4 12 3.64
-1 4 12 2.85
-1 4 12 2.96
0 -4 -12 118.37
0 -4 -12 117.12
0 -4 -12 115.46
0 4 12 119.93
0 4 12 117.47
-1 -4 -12 34.42
-1 -4 -12 33.55
1 4 12 32.97
-2 -4 -12 3.29
-2 -4 -12 3.94
2 4 12 3.65
-3 -4 -12 9.70
-3 -4 -12 9.86
4 -5 -12 11.94
-4 5 12 12.21
-4 5 12 8.44
3 -5 -12 4.08
-3 5 12 4.42
-2 5 12 9.66
-2 5 12 7.87
1 -5 -12 5.08
-1 5 12 4.36
-1 5 12 5.41
0 -5 -12 53.07
0 -5 -12 46.93
0 5 12 54.13
-1 -5 -12 28.00
-1 -5 -12 25.41
1 5 12 24.61
1 8 -13 9.68
1 8 -13 12.52
-1 -8 13 12.51
0 8 -13 17.15
0 8 -13 13.41
0 -8 13 16.83
-1 8 -13 3.45
-1 8 -13 4.59
1 -8 13 3.85
3 7 -13 1.36
-3 -7 13 1.89
-3 -7 13 1.35
2 7 -13 -0.28
2 7 -13 0.26
-2 -7 13 -0.40
1 7 -13 7.43
1 7 -13 6.14
-1 -7 13 4.80
0 7 -13 0.50
0 7 -13 0.85
0 -7 13 0.60
-1 7 -13 0.37
-1 7 -13 1.36
1 -7 13 2.46
-2 7 -13 0.58
-2 7 -13 0.26
2 -7 13 0.44
-4 -6 13 5.73
-4 -6 13 7.70
3 6 -13 49.96
3 6 -13 47.68
-3 -6 13 44.10
-3 -6 13 46.21
2 6 -13 67.80
2 6 -13 71.11
2 6 -13 61.63
-2 -6 13 67.31
-2 -6 13 70.87
-2 -6 13 70.72
1 6 -13 0.67
1 6 -13 0.30
1 6 -13 1.64
-1 -6 13 -0.14
-1 -6 13 0.20
0 6 -13 42.02
0 6 -13 41.02
0 6 -13 36.50
0 -6 13 39.50
0 -6 13 36.11
-1 6 -13 1.89
-1 6 -13 1.39
1 -6 13 2.36
-2 6 -13 0.90
-2 6 -13 0.28
2 -6 13 0.39
-3 6 -13 6.16
-3 6 -13 6.30
3 -6 13 7.14
-5 -5 13 8.44
-5 -5 13 8.12
-4 -5 13 0.07
-4 -5 13 0.02
3 5 -13 18.63
-3 -5 13 16.44
-3 -5 13 16.86
-3 -5 13 16.93
2 5 -13 1.36
2 5 -13 0.81
-2 -5 13 1.22
-2 -5 13 0.82
-2 -5 13 1.01
1 5 -13 48.66
1 5 -13 53.54
1 5 -13 56.97
-1 -5 13 53.15
-1 -5 13 56.74
-1 -5 13 54.45
0 5 -13 6.17
0 5 -13 5.68
0 5 -13 6.01
0 -5 13 4.89
0 -5 13 6.72
-1 5 -13 38.90
-1 5 -13 36.71
1 -5 13 35.94
1 -5 13 37.08
1 -5 13 38.81
-2 5 -13 0.61
-2 5 -13 0.30
2 -5 13 0.24
-3 5 -13 25.82
-3 5 -13 29.04
3 -5 13 29.03
-4 5 -13 3.58
-4 5 -13 4.30
4 -5 13 5.99
-5 -4 13 4.11
-5 -4 13 3.57
4 4 -13 0.88
-4 -4 13 1.26
-4 -4 13 1.71
3 4 -13 20.78
3 4 -13 18.89
-3 -4 13 21.33
-3 -4 13 21.55
-3 -4 13 21.85
2 4 -13 94.23
2 4 -13 86.23
2 4 -13 90.87
-2 -4 13 88.09
-2 -4 13 87.64
-2 -4 13 98.30
1 4 -13 63.25
1 4 -13 59.59
1 4 -13 62.33
-1 -4 13 63.40
-1 -4 13 60.03
-1 -4 13 65.12
-1 -4 13 59.57
0 4 -13 0.28
0 4 -13 0.06
0 4 -13 -0.60
0 -4 13 0.01
0 -4 13 -0.04
0 -4 13 -0.08
0 -4 13 -0.13
-1 4 -13 0.21
-1 4 -13 0.43
-1 4 -13 0.28
1 -4 13 1.27
1 -4 13 -0.22
-2 4 -13 2.93
-2 4 -13 1.63
2 -4 13 3.37
2 -4 13 2.77
-3 4 -13 0.49
-3 4 -13 0.52
3 -4 13 1.43
-4 4 -13 10.03
-4 4 -13 7.47
4 -4 13 9.58
-6 -3 13 0.76
5 3 -13 45.59
-5 -3 13 39.79
-5 -3 13 37.98
4 3 -13 14.07
4 3 -13 13.58
-4 -3 13 16.17
-4 -3 13 15.04
-4 -3 13 15.18
3 3 -13 31.89
3 3 -13 34.23
-3 -3 13 32.48
-3 -3 13 30.12
-3 -3 13 33.31
2 3 -13 7.25
2 3 -13 6.54
2 3 -13 8.61
-2 -3 13 6.92
-2 -3 13 7.75
-2 -3 13 6.40
-2 -3 13 7.33
1 3 -13 128.58
1 3 -13 124.55
1 3 -13 130.48
-1 -3 13 140.16
-1 -3 13 123.91
-1 -3 13 125.40
-1 -3 13 129.36
0 3 -13 0.53
0 3 -13 0.22
0 3 -13 -0.03
0 -3 13 -0.03
0 -3 13 0.20
0 -3 13 0.03
0 -3 13 -0.29
-1 3 -13 1.46
-1 3 -13 2.02
-1 3 -13 1.62
1 -3 13 1.61
1 -3 13 1.82
1 -3 13 1.16
-2 3 -13 5.35
-2 3 -13 4.78
2 -3 13 6.49
2 -3 13 5.57
2 -3 13 3.58
2 -3 13 3.81
-3 3 -13 0.30
-3 3 -13 0.21
3 -3 13 0.21
3 -3 13 0.25
3 -3 13 0.20
-4 3 -13 4.55
-4 3 -13 4.16
4 -3 13 4.68
6 2 -13 0.74
5 2 -13 12.18
-5 -2 13 12.29
4 2 -13 1.92
4 2 -13 2.28
-4 -2 13 3.40
-4 -2 13 2.33
-4 -2 13 2.81
3 2 -13 4.06
3 2 -13 3.89
-3 -2 13 3.20
-3 -2 13 4.76
-3 -2 13 3.81
-3 -2 13 3.90
2 2 -13 126.78
2 2 -13 129.44
2 2 -13 128.54
-2 -2 13 141.92
-2 -2 13 128.06
-2 -2 13 127.91
-2 -2 13 124.42
1 2 -13 160.54
1 2 -13 161.56
1 2 -13 163.20
-1 -2 13 157.30
-1 -2 13 156.60
-1 -2 13 164.42
-1 -2 13 163.95
0 2 -13 2.49
0 2 -13 2.83
0 2 -13 1.84
0 -2 13 3.11
0 -2 13 2.49
0 -2 13 3.20
-1 2 -13 1.74
-1 2 -13 1.01
-1 2 -13 0.63
1 -2 13 1.96
1 -2 13 1.55
1 -2 13 1.26
-2 2 -13 27.15
-2 2 -13 26.22
2 -2 13 25.47
2 -2 13 24.55
2 -2 13 25.41
2 -2 13 25.38
-3 2 -13 0.74
-3 2 -13 0.08
3 -2 13 0.09
3 -2 13 0.46
3 -2 13 0.16
-4 2 -13 7.58
-4 2 -13 7.97
4 -2 13 7.81
6 1 -13 1.69
5 1 -13 10.09
4 1 -13 30.10
4 1 -13 33.92
-4 -1 13 35.05
-4 -1 13 32.00
-4 -1 13 28.63
3 1 -13 6.29
3 1 -13 5.41
-3 -1 13 6.70
-3 -1 13 6.73
-3 -1 13 6.46
-3 -1 13 5.23
2 1 -13 1.19
2 1 -13 0.78
-2 -1 13 0.98
-2 -1 13 0.74
-2 -1 13 0.69
1 1 -13 32.90
1 1 -13 33.50
1 1 -13 34.99
-1 -1 13 35.44
-1 -1 13 30.78
-1 -1 13 35.18
-1 -1 13 29.67
0 1 -13 3.78
0 1 -13 3.86
0 1 -13 3.56
0 -1 13 4.22
0 -1 13 4.75
0 -1 13 3.86
-1 1 -13 19.36
-1 1 -13 17.04
-1 1 -13 18.16
1 -1 13 20.47
1 -1 13 18.54
1 -1 13 19.79
-2 1 -13 0.59
2 -1 13 0.41
2 -1 13 0.70
2 -1 13 0.33
-3 1 -13 -0.47
-3 1 -13 0.34
3 -1 13 0.44
3 -1 13 0.18
-4 1 -13 3.73
-4 1 -13 3.73
4 -1 13 3.70
6 0 -13 0.25
5 0 -13 5.70
5 0 -13 7.03
4 0 -13 -0.17
4 0 -13 0.31
-4 0 13 0.09
3 0 -13 4.21
3 0 -13 3.95
3 0 -13 3.90
3 0 -13 4.82
-3 0 13 4.66
-3 0 13 3.39
-3 0 13 3.79
2 0 -13 99.78
2 0 -13 99.99
2 0 -13 100.52
2 0 -13 97.84
2 0 -13 104.46
-2 0 13 105.60
-2 0 13 104.38
-2 0 13 101.63
1 0 -13 208.42
1 0 -13 191.48
1 0 -13 213.94
1 0 -13 192.74
-1 0 13 200.17
-1 0 13 195.26
-1 0 13 197.80
0 0 -13 -0.09
0 0 -13 0.09
0 0 -13 0.02
0 0 13 0.10
0 0 13 0.04
-1 0 -13 10.08
-1 0 -13 10.83
-1 0 -13 9.62
1 0 13 10.72
1 0 13 10.94
-2 0 -13 24.55
-2 0 -13 23.78
2 0 13 26.39
2 0 13 25.75
2 0 13 25.11
-3 0 -13 10.24
3 0 13 9.28
3 0 13 8.55
-4 0 -13 17.45
-4 0 -13 22.26
4 0 13 23.00
6 -1 -13 0.11
5 -1 -13 3.64
4 -1 -13 0.13
4 -1 -13 0.63
-4 1 13 0.60
3 -1 -13 21.20
3 -1 -13 18.81
3 -1 -13 21.10
3 -1 -13 20.07
-3 1 13 22.90
-3 1 13 21.25
-3 1 13 19.66
2 -1 -13 0.25
2 -1 -13 0.22
2 -1 -13 -0.17
-2 1 13 0.09
-2 1 13 0.58
-2 1 13 0.03
1 -1 -13 79.64
1 -1 -13 76.28
1 -1 -13 72.45
-1 1 13 73.54
-1 1 13 74.81
-1 1 13 76.35
0 -1 -13 1.35
0 -1 -13 1.88
0 1 13 2.22
0 1 13 0.79
-1 -1 -13 0.32
1 1 13 0.29
1 1 13 0.05
-2 -1 -13 4.32
2 1 13 4.54
2 1 13 4.37
-3 -1 -13 9.03
3 1 13 8.72
-4 -1 -13 18.42
-4 -1 -13 16.80
4 1 13 19.30
5 -2 -13 0.03
4 -2 -13 0.45
4 -2 -13 0.49
-4 2 13 0.34
-4 2 13 0.38
-4 2 13 0.20
3 -2 -13 0.20
3 -2 -13 -0.18
3 -2 -13 0.04
-3 2 13 -0.07
-3 2 13 0.11
-3 2 13 0.07
2 -2 -13 2.94
2 -2 -13 3.23
2 -2 -13 1.54
-2 2 13 2.30
-2 2 13 2.25
-2 2 13 2.49
1 -2 -13 11.66
1 -2 -13 11.81
1 -2 -13 11.41
-1 2 13 11.47
-1 2 13 12.04
-1 2 13 11.69
0 -2 -13 0.22
0 -2 -13 1.00
0 2 13 0.42
0 2 13 0.39
-1 -2 -13 26.43
-1 -2 -13 26.75
1 2 13 25.42
1 2 13 25.60
-2 -2 -13 27.13
2 2 13 31.73
-3 -2 -13 7.65
-3 -2 -13 8.61
3 2 13 11.47
5 -3 -13 3.86
-5 3 13 2.36
4 -3 -13 0.52
-4 3 13 1.53
-4 3 13 1.29
3 -3 -13 0.05
-3 3 13 0.45
-3 3 13 0.37
2 -3 -13 25.99
-2 3 13 27.28
-2 3 13 26.38
-2 3 13 27.83
1 -3 -13 51.36
1 -3 -13 53.12
-1 3 13 47.84
-1 3 13 49.32
-1 3 13 46.40
0 -3 -13 8.99
0 -3 -13 6.55
0 3 13 7.82
0 3 13 6.46
-1 -3 -13 0.72
-1 -3 -13 1.39
1 3 13 1.41
-2 -3 -13 0.88
-2 -3 -13 1.64
2 3 13 1.09
-3 -3 -13 1.46
-3 -3 -13 1.82
3 3 13 1.34
4 -4 -13 -0.03
-4 4 13 0.49
-4 4 13 0.10
3 -4 -13 5.91
-3 4 13 7.89
-3 4 13 5.45
2 -4 -13 1.91
-2 4 13 1.36
-2 4 13 1.91
1 -4 -13 0.77
-1 4 13 1.40
-1 4 13 0.85
-1 4 13 1.85
0 -4 -13 4.01
0 -4 -13 3.71
0 4 13 4.37
0 4 13 5.61
-1 -4 -13 3.86
-1 -4 -13 4.53
1 4 13 6.92
-2 -4 -13 17.03
-2 -4 -13 19.82
2 4 13 16.89
3 -5 -13 -0.08
-3 5 13 0.65
-3 5 13 -0.03
-2 5 13 12.63
-2 5 13 10.43
1 -5 -13 10.46
-1 5 13 13.08
-1 5 13 14.46
0 -5 -13 4.36
0 5 13 4.13
3 7 -14 17.89
-3 -7 14 15.21
-3 -7 14 13.69
2 7 -14 0.26
2 7 -14 0.43
-2 -7 14 1.22
-2 -7 14 0.43
1 7 -14 21.77
1 7 -14 21.62
-1 -7 14 20.63
0 7 -14 4.48
0 7 -14 6.08
0 -7 14 7.00
-1 7 -14 4.35
-1 7 -14 3.04
1 -7 14 6.13
-2 7 -14 0.47
-2 7 -14 0.03
2 -7 14 0.14
-4 -6 14 0.61
-4 -6 14 0.98
3 6 -14 16.33
-3 -6 14 15.56
-3 -6 14 17.84
2 6 -14 30.65
2 6 -14 26.46
-2 -6 14 28.07
-2 -6 14 26.16
-2 -6 14 28.19
1 6 -14 1.05
1 6 -14 0.63
1 6 -14 0.14
-1 -6 14 0.73
-1 -6 14 0.47
0 6 -14 68.09
0 6 -14 65.18
0 -6 14 66.37
-1 6 -14 5.92
-1 6 -14 5.01
1 -6 14 5.15
-2 6 -14 22.29
-2 6 -14 22.18
2 -6 14 25.04
-3 6 -14 3.87
-3 6 -14 2.46
3 -6 14 3.71
-4 -5 14 8.15
-4 -5 14 7.10
3 5 -14 50.22
-3 -5 14 50.95
-3 -5 14 52.36
2 5 -14 46.38
2 5 -14 49.30
-2 -5 14 50.25
-2 -5 14 44.91
-2 -5 14 44.71
1 5 -14 4.52
1 5 -14 3.53
-1 -5 14 3.27
-1 -5 14 4.34
-1 -5 14 3.62
0 5 -14 2.07
0 5 -14 2.87
0 5 -14 2.00
0 -5 14 2.90
0 -5 14 4.06
0 -5 14 2.21
-1 5 -14 0.00
-1 5 -14 0.20
1 -5 14 0.55
1 -5 14 -0.09
-2 5 -14 5.79
-2 5 -14 4.72
2 -5 14 7.60
-3 5 -14 6.86
-3 5 -14 7.37
-5 -4 14 0.25
-5 -4 14 -0.14
-4 -4 14 7.78
-4 -4 14 8.61
3 4 -14 5.56
-3 -4 14 6.70
-3 -4 14 7.38
-3 -4 14 6.76
2 4 -14 1.32
2 4 -14 2.55
-2 -4 14 2.32
-2 -4 14 1.71
-2 -4 14 3.08
1 4 -14 5.98
1 4 -14 5.86
-1 -4 14 7.01
-1 -4 14 6.12
-1 -4 14 6.71
-1 -4 14 6.97
0 4 -14 181.56
0 4 -14 192.44
0 -4 14 176.77
0 -4 14 188.24
0 -4 14 176.66
0 -4 14 176.09
-1 4 -14 12.94
-1 4 -14 16.08
1 -4 14 18.28
1 -4 14 16.70
1 -4 14 15.86
-2 4 -14 36.55
-2 4 -14 34.76
2 -4 14 33.65
2 -4 14 33.04
-3 4 -14 0.24
-3 4 -14 -0.13
3 -4 14 -0.14
3 -4 14 -0.11
-4 4 -14 13.49
-4 4 -14 12.73
4 -4 14 10.72
5 3 -14 14.67
-5 -3 14 11.77
-5 -3 14 11.90
4 3 -14 3.67
-4 -3 14 3.73
-4 -3 14 2.49
3 3 -14 14.06
3 3 -14 17.34
-3 -3 14 16.60
-3 -3 14 15.27
-3 -3 14 17.05
2 3 -14 151.61
2 3 -14 149.45
2 3 -14 149.29
-2 -3 14 144.23
-2 -3 14 151.22
-2 -3 14 146.01
-2 -3 14 152.15
1 3 -14 -0.06
1 3 -14 0.49
1 3 -14 -0.09
-1 -3 14 0.63
-1 -3 14 0.32
-1 -3 14 -0.20
-1 -3 14 -0.10
0 3 -14 6.02
0 3 -14 6.09
0 -3 14 6.23
0 -3 14 6.72
0 -3 14 4.95
0 -3 14 6.85
-1 3 -14 12.88
-1 3 -14 12.06
1 -3 14 13.93
1 -3 14 12.52
1 -3 14 11.79
-2 3 -14 28.47
-2 3 -14 27.10
2 -3 14 25.36
2 -3 14 29.51
2 -3 14 25.44
-3 3 -14 0.43
-3 3 -14 0.27
3 -3 14 0.56
-4 3 -14 0.36
-4 3 -14 0.28
4 -3 14 0.57
5 2 -14 3.61
-5 -2 14 2.33
4 2 -14 17.79
-4 -2 14 18.78
-4 -2 14 17.67
-4 -2 14 18.66
3 2 -14 2.66
-3 -2 14 3.21
-3 -2 14 2.66
-3 -2 14 1.71
-3 -2 14 2.86
2 2 -14 11.52
2 2 -14 10.44
2 2 -14 10.45
-2 -2 14 10.33
-2 -2 14 9.02
-2 -2 14 10.43
-2 -2 14 10.58
1 2 -14 17.48
1 2 -14 20.76
1 2 -14 19.50
-1 -2 14 19.62
-1 -2 14 20.37
-1 -2 14 21.40
-1 -2 14 19.93
0 2 -14 25.61
0 2 -14 23.17
0 2 -14 26.38
0 -2 14 24.52
0 -2 14 26.90
0 -2 14 24.55
-1 2 -14 35.20
-1 2 -14 32.74
1 -2 14 35.34
1 -2 14 30.61
1 -2 14 37.72
-2 2 -14 -0.03
-2 2 -14 0.66
2 -2 14 0.64
2 -2 14 -0.04
2 -2 14 0.10
-3 2 -14 8.90
-3 2 -14 7.08
3 -2 14 7.30
3 -2 14 6.82
-4 2 -14 42.99
-4 2 -14 35.94
4 -2 14 39.58
6 1 -14 14.27
5 1 -14 1.08
4 1 -14 1.43
4 1 -14 2.04
-4 -1 14 2.31
-4 -1 14 1.87
3 1 -14 3.93
3 1 -14 3.96
-3 -1 14 4.76
-3 -1 14 3.71
-3 -1 14 3.35
-3 -1 14 3.46
2 1 -14 222.89
2 1 -14 230.48
2 1 -14 236.55
-2 -1 14 224.96
-2 -1 14 233.69
-2 -1 14 226.71
-2 -1 14 221.57
1 1 -14 7.92
1 1 -14 7.47
1 1 -14 7.23
-1 -1 14 7.57
-1 -1 14 8.55
-1 -1 14 7.59
-1 -1 14 8.13
0 1 -14 4.73
0 1 -14 3.51
0 1 -14 3.14
0 -1 14 4.19
0 -1 14 4.18
0 -1 14 3.36
-1 1 -14 16.95
-1 1 -14 13.90
1 -1 14 13.80
1 -1 14 15.89
1 -1 14 14.82
-2 1 -14 34.49
-2 1 -14 35.43
2 -1 14 37.45
2 -1 14 36.82
-3 1 -14 9.80
-3 1 -14 7.54
3 -1 14 7.68
3 -1 14 8.44
-4 1 -14 0.19
-4 1 -14 0.52
4 -1 14 0.18
5 0 -14 2.59
4 0 -14 2.19
-4 0 14 2.72
-4 0 14 3.09
-4 0 14 2.88
3 0 -14 3.62
3 0 -14 4.06
3 0 -14 3.43
-3 0 14 2.66
-3 0 14 4.12
-3 0 14 3.67
2 0 -14 34.54
2 0 -14 32.70
2 0 -14 33.77
2 0 -14 33.30
2 0 -14 34.34
-2 0 14 33.46
-2 0 14 33.44
-2 0 14 34.17
1 0 -14 3.24
1 0 -14 3.07
1 0 -14 2.71
-1 0 14 3.80
-1 0 14 3.40
-1 0 14 2.77
0 0 -14 0.94
0 0 14 1.28
0 0 14 0.69
-1 0 -14 40.67
-1 0 -14 40.01
1 0 14 41.66
1 0 14 46.25
-2 0 -14 2.02
-2 0 -14 3.18
2 0 14 0.93
2 0 14 1.56
-3 0 -14 2.57
3 0 14 3.43
-4 0 -14 8.16
-4 0 -14 8.68
4 0 14 9.91
5 -1 -14 2.01
4 -1 -14 10.83
-4 1 14 15.03
-4 1 14 12.18
3 -1 -14 12.87
3 -1 -14 11.68
3 -1 -14 12.98
-3 1 14 12.62
-3 1 14 14.72
-3 1 14 15.20
2 -1 -14 87.02
2 -1 -14 84.97
2 -1 -14 80.80
-2 1 14 88.34
-2 1 14 79.64
-2 1 14 87.10
1 -1 -14 1.26
1 -1 -14 1.66
1 -1 -14 1.66
-1 1 14 1.40
-1 1 14 1.94
-1 1 14 2.26
0 -1 -14 1.40
0 -1 -14 2.30
0 1 14 1.79
0 1 14 1.58
-1 -1 -14 0.43
1 1 14 0.15
1 1 14 0.84
-2 -1 -14 4.63
2 1 14 3.89
-3 -1 -14 20.86
3 1 14 20.39
5 -2 -14 1.06
-5 2 14 0.92
-4 2 14 6.34
-4 2 14 6.56
3 -2 -14 0.28
-3 2 14 0.09
-3 2 14 0.02
2 -2 -14 11.12
2 -2 -14 10.56
-2 2 14 11.99
-2 2 14 12.03
-2 2 14 10.89
1 -2 -14 7.40
1 -2 -14 7.78
-1 2 14 5.93
-1 2 14 6.38
-1 2 14 6.06
0 -2 -14 4.17
0 -2 -14 5.30
0 2 14 6.50
0 2 14 6.12
-1 -2 -14 61.20
1 2 14 62.93
1 2 14 48.40
-2 -2 -14 2.89
2 2 14 2.78
-3 -2 -14 0.38
-3 -2 -14 0.84
3 2 14 1.14
4 -3 -14 2.63
-4 3 14 1.98
-4 3 14 2.33
-3 3 14 22.74
-3 3 14 23.73
2 -3 -14 0.03
-2 3 14 0.60
-2 3 14 0.28
1 -3 -14 10.18
1 -3 -14 13.77
-1 3 14 12.26
-1 3 14 10.20
-1 3 14 11.52
0 -3 -14 5.01
0 -3 -14 4.39
0 3 14 3.80
0 3 14 4.92
-1 -3 -14 -0.36
1 3 14 1.09
-2 -3 -14 12.83
-2 -3 -14 11.25
2 3 14 10.72
-3 4 14 1.22
-2 4 14 5.26
-2 4 14 4.95
1 -4 -14 7.14
-1 4 14 8.29
-1 4 14 9.32
0 -4 -14 1.78
0 4 14 1.10
-1 -4 -14 3.96
-1 -4 -14 3.74
1 4 14 3.80
2 7 -15 0.26
2 7 -15 0.28
-2 -7 15 0.23
-2 -7 15 -0.30
1 7 -15 1.29
1 7 -15 1.63
-1 -7 15 2.94
0 7 -15 -0.12
0 7 -15 0.43
0 -7 15 -0.30
-1 7 -15 11.82
-1 7 -15 12.17
1 -7 15 10.74
3 6 -15 1.39
-3 -6 15 1.13
-3 -6 15 2.25
2 6 -15 6.18
2 6 -15 4.33
-2 -6 15 4.53
-2 -6 15 4.98
1 6 -15 6.77
1 6 -15 8.52
-1 -6 15 6.44
-1 -6 15 8.86
-1 -6 15 6.45
0 6 -15 0.65
0 6 -15 1.35
0 -6 15 0.94
-1 6 -15 0.22
-1 6 -15 0.34
1 -6 15 0.59
-2 6 -15 4.52
-2 6 -15 4.07
2 -6 15 4.36
-4 -5 15 30.25
-4 -5 15 30.85
3 5 -15 63.58
-3 -5 15 62.58
-3 -5 15 63.96
2 5 -15 2.48
2 5 -15 1.67
-2 -5 15 2.97
-2 -5 15 2.32
-2 -5 15 2.20
1 5 -15 53.61
1 5 -15 49.47
-1 -5 15 49.15
-1 -5 15 50.09
-1 -5 15 47.61
0 5 -15 -0.41
0 5 -15 0.04
0 -5 15 -0.23
0 -5 15 -0.64
0 -5 15 -0.01
0 -5 15 0.17
-1 5 -15 0.54
-1 5 -15 -0.39
1 -5 15 -0.08
1 -5 15 -0.01
1 -5 15 0.22
-2 5 -15 1.05
-2 5 -15 1.62
2 -5 15 2.41
-3 5 -15 17.70
-3 5 -15 14.52
3 -5 15 21.65
-5 -4 15 1.10
-5 -4 15 0.96
-4 -4 15 0.22
-4 -4 15 0.37
3 4 -15 0.33
-3 -4 15 -0.12
-3 -4 15 0.71
2 4 -15 50.80
2 4 -15 48.97
-2 -4 15 52.84
-2 -4 15 55.54
-2 -4 15 49.33
1 4 -15 0.98
1 4 -15 0.52
-1 -4 15 0.14
-1 -4 15 0.63
-1 -4 15 0.06
-1 -4 15 -0.09
0 4 -15 7.75
0 4 -15 8.24
0 -4 15 8.82
0 -4 15 8.48
0 -4 15 7.55
0 -4 15 7.59
-1 4 -15 2.27
-1 4 -15 2.17
1 -4 15 2.67
1 -4 15 3.04
-2 4 -15 0.49
-2 4 -15 0.17
2 -4 15 0.22
2 -4 15 -0.03
-3 4 -15 13.81
-3 4 -15 12.17
3 -4 15 10.84
5 3 -15 29.88
-5 -3 15 32.40
4 3 -15 0.37
-4 -3 15 0.52
-4 -3 15 1.10
3 3 -15 11.97
3 3 -15 9.58
-3 -3 15 11.38
-3 -3 15 12.70
-3 -3 15 9.77
2 3 -15 1.24
2 3 -15 1.06
-2 -3 15 1.72
-2 -3 15 1.79
-2 -3 15 2.00
-2 -3 15 1.41
1 3 -15 70.14
1 3 -15 78.14
-1 -3 15 77.54
-1 -3 15 77.84
-1 -3 15 80.17
-1 -3 15 81.00
0 3 -15 0.01
0 3 -15 -0.39
0 -3 15 0.36
0 -3 15 -0.17
0 -3 15 0.47
0 -3 15 0.25
-1 3 -15 2.80
-1 3 -15 1.70
1 -3 15 2.08
1 -3 15 2.27
1 -3 15 1.77
-2 3 -15 7.51
-2 3 -15 5.55
2 -3 15 6.56
2 -3 15 7.65
-3 3 -15 0.54
-3 3 -15 0.96
3 -3 15 0.70
5 2 -15 1.27
-5 -2 15 0.34
-4 -2 15 1.07
-4 -2 15 1.19
3 2 -15 10.45
3 2 -15 11.18
-3 -2 15 13.03
-3 -2 15 11.65
-3 -2 15 11.33
-3 -2 15 13.20
2 2 -15 3.57
2 2 -15 4.64
2 2 -15 3.33
-2 -2 15 3.90
-2 -2 15 3.09
-2 -2 15 3.35
-2 -2 15 3.19
1 2 -15 0.56
1 2 -15 0.45
-1 -2 15 0.25
-1 -2 15 1.55
-1 -2 15 0.03
-1 -2 15 0.49
0 2 -15 3.09
0 -2 15 3.07
0 -2 15 2.83
0 -2 15 2.86
0 -2 15 2.10
-1 2 -15 7.95
-1 2 -15 6.32
1 -2 15 6.65
1 -2 15 8.72
1 -2 15 7.21
-2 2 -15 17.27
-2 2 -15 17.19
2 -2 15 15.54
2 -2 15 15.07
2 -2 15 15.34
-3 2 -15 3.37
-3 2 -15 2.46
3 -2 15 4.22
-4 2 -15 35.31
4 -2 15 34.95
5 1 -15 6.61
4 1 -15 8.57
-4 -1 15 10.01
-4 -1 15 10.23
-4 -1 15 8.85
3 1 -15 5.54
3 1 -15 4.63
-3 -1 15 5.62
-3 -1 15 5.79
-3 -1 15 5.72
-3 -1 15 5.46
2 1 -15 1.93
2 1 -15 1.70
2 1 -15 2.01
-2 -1 15 2.17
-2 -1 15 1.55
-2 -1 15 1.01
-2 -1 15 1.80
1 1 -15 15.50
1 1 -15 17.31
-1 -1 15 18.38
-1 -1 15 20.21
-1 -1 15 18.92
-1 -1 15 17.69
0 1 -15 16.23
0 1 -15 14.38
0 -1 15 15.79
0 -1 15 13.83
0 -1 15 13.42
-1 1 -15 0.15
-1 1 -15 -0.11
1 -1 15 0.01
1 -1 15 1.24
-2 1 -15 9.77
-2 1 -15 8.20
2 -1 15 8.81
2 -1 15 9.40
-3 1 -15 0.15
-3 1 -15 -0.28
3 -1 15 0.29
5 0 -15 3.94
-4 0 15 2.20
-4 0 15 3.21
3 0 -15 0.22
3 0 -15 1.19
3 0 -15 0.36
-3 0 15 0.63
-3 0 15 0.25
-3 0 15 0.78
2 0 -15 20.44
2 0 -15 17.69
2 0 -15 16.29
2 0 -15 17.83
2 0 -15 20.15
-2 0 15 18.63
-2 0 15 21.17
-2 0 15 17.74
1 0 -15 20.77
1 0 -15 21.18
1 0 -15 17.96
-1 0 15 21.11
-1 0 15 22.40
-1 0 15 21.87
0 0 -15 0.23
0 0 15 -0.29
0 0 15 0.37
-1 0 -15 3.60
-1 0 -15 3.64
1 0 15 3.14
1 0 15 3.70
-2 0 -15 1.98
2 0 15 2.15
-3 0 -15 2.15
3 0 15 0.88
5 -1 -15 1.62
-4 1 15 12.59
-4 1 15 9.18
3 -1 -15 1.25
-3 1 15 2.21
-3 1 15 1.45
2 -1 -15 14.03
2 -1 -15 17.71
-2 1 15 14.83
-2 1 15 16.11
-2 1 15 18.02
1 -1 -15 24.83
1 -1 -15 19.46
-1 1 15 22.25
-1 1 15 22.72
-1 1 15 20.82
0 -1 -15 -0.05
0 1 15 0.00
0 1 15 0.12
1 1 15 0.64
1 1 15 1.54
-2 -1 -15 3.53
2 1 15 2.91
-3 -1 -15 2.43
3 1 15 2.69
-4 2 15 5.10
-4 2 15 4.21
-3 2 15 -0.16
-3 2 15 -0.10
2 -2 -15 31.50
-2 2 15 31.30
-2 2 15 32.15
1 -2 -15 2.50
1 -2 -15 2.88
-1 2 15 2.85
-1 2 15 2.84
-1 2 15 2.08
0 -2 -15 0.88
0 -2 -15 0.76
0 2 15 0.80
0 2 15 1.03
-1 -2 -15 5.99
1 2 15 3.88
-2 -2 -15 0.31
2 2 15 -0.52
4 -3 -15 2.24
-4 3 15 1.77
-4 3 15 2.65
-3 3 15 7.11
-2 3 15 46.76
-2 3 15 45.83
1 -3 -15 7.65
-1 3 15 8.57
-1 3 15 6.61
0 -3 -15 4.91
0 3 15 5.47
-1 -3 -15 0.98
1 3 15 2.22
-2 4 15 15.25
-2 4 15 18.00
-1 4 15 6.86
-1 4 15 6.71
0 -4 -15 1.02
0 4 15 1.44
1 7 -16 3.08
1 7 -16 2.63
-1 -7 16 2.16
-1 -7 16 3.10
0 7 -16 0.02
0 7 -16 0.26
0 -7 16 -0.60
3 6 -16 32.97
-3 -6 16 31.25
-3 -6 16 29.55
2 6 -16 7.83
2 6 -16 7.91
-2 -6 16 8.59
-2 -6 16 7.66
1 6 -16 -0.27
1 6 -16 0.56
-1 -6 16 0.05
-1 -6 16 0.94
0 6 -16 0.39
0 6 -16 -0.19
0 -6 16 -0.06
0 -6 16 0.10
-1 6 -16 0.20
-1 6 -16 0.70
1 -6 16 0.47
-2 6 -16 32.21
-4 -5 16 -0.11
-4 -5 16 -0.77
3 5 -16 0.41
-3 -5 16 0.75
-3 -5 16 0.45
2 5 -16 1.42
2 5 -16 1.11
-2 -5 16 0.98
-2 -5 16 0.72
1 5 -16 15.84
1 5 -16 14.93
-1 -5 16 14.96
-1 -5 16 14.50
-1 -5 16 13.60
0 5 -16 6.15
0 5 -16 6.94
0 -5 16 7.15
0 -5 16 6.73
0 -5 16 7.24
-1 5 -16 -0.04
-1 5 -16 0.44
1 -5 16 0.11
1 -5 16 0.33
-2 5 -16 1.63
-2 5 -16 1.05
2 -5 16 1.05
2 -5 16 1.26
-4 -4 16 3.50
-4 -4 16 1.97
3 4 -16 9.58
-3 -4 16 9.30
-3 -4 16 10.14
2 4 -16 0.27
2 4 -16 0.03
-2 -4 16 0.18
-2 -4 16 0.68
-2 -4 16 0.51
1 4 -16 0.05
1 4 -16 0.79
-1 -4 16 0.31
-1 -4 16 -0.01
-1 -4 16 0.28
-1 -4 16 0.34
0 4 -16 3.53
0 4 -16 2.49
0 -4 16 2.08
0 -4 16 2.26
0 -4 16 2.38
0 -4 16 2.67
-1 4 -16 4.78
-1 4 -16 5.65
1 -4 16 5.34
1 -4 16 5.06
-2 4 -16 9.60
-2 4 -16 11.03
2 -4 16 11.30
2 -4 16 10.16
-3 4 -16 1.32
-3 4 -16 1.92
3 -4 16 2.50
-5 -3 16 4.18
-4 -3 16 3.41
-4 -3 16 3.52
3 3 -16 3.60
-3 -3 16 3.08
-3 -3 16 2.97
2 3 -16 8.03
2 3 -16 8.75
-2 -3 16 8.73
-2 -3 16 10.57
-2 -3 16 8.62
-2 -3 16 7.95
1 3 -16 1.77
1 3 -16 1.60
-1 -3 16 1.35
-1 -3 16 2.29
-1 -3 16 2.86
0 3 -16 6.01
0 3 -16 9.46
0 -3 16 7.94
0 -3 16 7.37
0 -3 16 6.41
0 -3 16 7.04
-1 3 -16 3.68
-1 3 -16 3.28
1 -3 16 3.93
1 -3 16 5.32
-2 3 -16 4.23
-2 3 -16 4.45
2 -3 16 3.65
2 -3 16 6.37
-3 3 -16 12.76
-3 3 -16 14.98
3 -3 16 14.93
5 2 -16 1.93
-4 -2 16 21.68
-4 -2 16 23.91
3 2 -16 0.09
3 2 -16 -0.26
-3 -2 16 -0.09
-3 -2 16 0.38
-3 -2 16 -0.01
2 2 -16 3.21
2 2 -16 3.72
-2 -2 16 3.17
-2 -2 16 2.81
-2 -2 16 4.48
1 2 -16 18.96
1 2 -16 18.05
-1 -2 16 21.04
-1 -2 16 18.41
-1 -2 16 20.40
-1 -2 16 22.29
0 2 -16 0.47
0 2 -16 0.22
0 -2 16 0.38
0 -2 16 0.31
0 -2 16 0.69
0 -2 16 0.40
-1 2 -16 0.71
-1 2 -16 0.72
1 -2 16 1.07
1 -2 16 0.68
1 -2 16 0.00
-2 2 -16 1.22
-2 2 -16 -0.35
2 -2 16 0.00
-3 2 -16 0.84
-3 2 -16 0.00
3 -2 16 0.34
-4 -1 16 0.21
3 1 -16 2.79
3 1 -16 4.03
-3 -1 16 3.99
-3 -1 16 5.00
2 1 -16 9.21
2 1 -16 8.93
-2 -1 16 8.32
-2 -1 16 7.42
-2 -1 16 8.60
-2 -1 16 9.88
1 1 -16 4.55
1 1 -16 4.01
-1 -1 16 3.32
-1 -1 16 3.48
-1 -1 16 4.67
-1 -1 16 4.93
0 1 -16 2.51
0 1 -16 2.60
0 -1 16 2.62
0 -1 16 3.57
0 -1 16 3.25
-1 1 -16 1.47
-1 1 -16 1.60
1 -1 16 0.97
1 -1 16 2.77
-2 1 -16 15.25
-2 1 -16 12.63
2 -1 16 15.14
-3 1 -16 4.37
3 -1 16 6.08
5 0 -16 8.45
-4 0 16 6.84
-4 0 16 6.35
3 0 -16 1.98
-3 0 16 1.52
2 0 -16 -0.10
-2 0 16 0.34
-2 0 16 0.02
-2 0 16 0.12
1 0 -16 34.46
-1 0 16 34.29
-1 0 16 32.81
-1 0 16 35.16
0 0 -16 8.56
0 0 16 10.34
0 0 16 10.72
-1 0 -16 3.07
1 0 16 2.57
-2 0 -16 0.88
2 0 16 1.01
-3 0 -16 8.20
3 0 16 7.96
-4 1 16 4.22
-4 1 16 3.68
-3 1 16 2.18
-3 1 16 1.65
2 -1 -16 23.39
-2 1 16 22.89
-2 1 16 24.54
1 -1 -16 3.65
1 -1 -16 3.07
-1 1 16 2.66
-1 1 16 2.46
-1 1 16 3.92
0 -1 -16 1.10
0 1 16 1.04
0 1 16 0.76
-1 -1 -16 0.08
1 1 16 -0.20
-2 -1 -16 0.22
2 1 16 0.67
-4 2 16 0.04
-4 2 16 -0.39
-3 2 16 1.64
-3 2 16 1.17
-2 2 16 2.17
-2 2 16 1.88
1 -2 -16 1.02
-1 2 16 1.16
-1 2 16 0.59
0 -2 -16 1.55
0 2 16 1.52
-1 -2 -16 17.89
1 2 16 18.54
-2 -2 -16 0.82
2 2 16 0.46
-3 3 16 0.59
-3 3 16 -0.57
-2 3 16 8.77
-2 3 16 9.58
-1 3 16 5.30
-1 3 16 6.61
0 -3 -16 0.53
0 3 16 0.04
0 3 16 -0.19
2 6 -17 1.13
-2 -6 17 0.25
-2 -6 17 0.00
1 6 -17 1.55
1 6 -17 1.96
-1 -6 17 1.63
-1 -6 17 1.09
0 6 -17 3.32
0 6 -17 2.62
0 -6 17 2.28
0 -6 17 3.25
-1 6 -17 0.60
-1 6 -17 -0.26
1 -6 17 0.80
3 5 -17 3.95
-3 -5 17 4.42
-3 -5 17 5.42
2 5 -17 0.36
-2 -5 17 0.18
-2 -5 17 -0.09
1 5 -17 13.35
1 5 -17 12.94
-1 -5 17 14.57
-1 -5 17 13.90
0 5 -17 5.87
0 5 -17 6.16
0 -5 17 5.96
0 -5 17 6.38
-1 5 -17 13.53
-1 5 -17 14.60
1 -5 17 12.86
1 -5 17 13.41
-2 5 -17 0.64
2 -5 17 0.36
-4 -4 17 0.19
-4 -4 17 0.23
3 4 -17 25.15
-3 -4 17 22.46
-3 -4 17 23.94
2 4 -17 2.71
-2 -4 17 1.89
-2 -4 17 1.95
-2 -4 17 1.67
1 4 -17 -0.12
1 4 -17 0.16
-1 -4 17 0.71
-1 -4 17 0.19
-1 -4 17 0.50
-1 -4 17 0.65
0 4 -17 0.26
0 4 -17 0.28
0 -4 17 -0.69
0 -4 17 0.01
0 -4 17 0.41
0 -4 17 0.10
-1 4 -17 4.89
-1 4 -17 3.94
1 -4 17 3.92
1 -4 17 4.31
1 -4 17 2.81
-2 4 -17 1.61
-2 4 -17 1.75
2 -4 17 1.59
-4 -3 17 1.52
-4 -3 17 1.05
3 3 -17 9.47
-3 -3 17 10.93
-3 -3 17 9.36
2 3 -17 2.12
2 3 -17 2.79
-2 -3 17 2.61
-2 -3 17 3.49
-2 -3 17 2.86
1 3 -17 9.27
1 3 -17 11.48
-1 -3 17 11.08
-1 -3 17 12.71
-1 -3 17 9.38
-1 -3 17 9.59
0 3 -17 4.94
0 3 -17 3.60
0 -3 17 4.56
0 -3 17 4.83
0 -3 17 6.01
0 -3 17 3.57
-1 3 -17 5.96
-1 3 -17 6.71
1 -3 17 6.24
1 -3 17 5.82
-2 3 -17 10.60
-2 3 -17 11.40
2 -3 17 10.84
-4 -2 17 0.84
3 2 -17 9.02
-3 -2 17 8.42
-3 -2 17 9.46
-3 -2 17 9.45
2 2 -17 0.61
2 2 -17 0.77
-2 -2 17 -0.58
-2 -2 17 0.44
-2 -2 17 0.99
1 2 -17 18.78
1 2 -17 21.36
-1 -2 17 21.95
-1 -2 17 19.31
-1 -2 17 19.32
-1 -2 17 22.00
0 2 -17 0.24
0 2 -17 1.37
0 -2 17 0.72
0 -2 17 0.60
0 -2 17 0.75
0 -2 17 0.90
-1 2 -17 2.77
-1 2 -17 3.76
1 -2 17 3.93
1 -2 17 3.03
-2 2 -17 2.91
-2 2 -17 1.99
2 -2 17 2.44
-4 -1 17 2.01
-4 -1 17 2.54
-3 -1 17 16.47
-3 -1 17 20.75
2 1 -17 1.82
2 1 -17 2.08
-2 -1 17 2.51
-2 -1 17 2.15
1 1 -17 5.44
-1 -1 17 6.08
-1 -1 17 5.96
-1 -1 17 5.95
0 1 -17 0.80
0 -1 17 0.14
0 -1 17 0.80
0 -1 17 0.59
-1 1 -17 20.19
1 -1 17 18.26
-2 1 -17 5.50
2 -1 17 8.94
-4 0 17 0.11
-4 0 17 0.36
-3 0 17 1.36
-3 0 17 0.53
-2 0 17 9.89
-2 0 17 8.58
1 0 -17 23.27
-1 0 17 26.05
-1 0 17 23.67
0 0 -17 1.56
0 0 17 1.91
0 0 17 1.31
-1 0 -17 0.44
1 0 17 -0.04
-2 0 -17 10.20
2 0 17 12.87
-4 1 17 34.42
-4 1 17 31.43
-3 1 17 2.90
-3 1 17 4.57
-2 1 17 1.03
-2 1 17 0.85
1 -1 -17 -0.43
-1 1 17 0.62
-1 1 17 0.06
0 -1 -17 4.55
0 1 17 4.36
-1 -1 -17 13.58
1 1 17 13.69
-3 2 17 1.60
-3 2 17 0.66
-2 2 17 7.21
-2 2 17 5.55
-1 2 17 -0.40
-1 2 17 0.29
0 -2 -17 -1.16
0 2 17 -0.88
-1 -2 -17 5.20
1 2 17 5.02
2 5 -18 4.36
-2 -5 18 4.83
-2 -5 18 5.10
1 5 -18 0.91
1 5 -18 0.28
-1 -5 18 0.44
-1 -5 18 1.02
0 5 -18 6.76
0 5 -18 10.00
0 -5 18 7.85
0 -5 18 9.78
-1 5 -18 0.07
1 -5 18 1.53
3 4 -18 3.73
-3 -4 18 2.71
-3 -4 18 4.49
2 4 -18 0.72
-2 -4 18 1.60
-2 -4 18 1.09
-2 -4 18 1.64
1 4 -18 -0.14
1 4 -18 -0.35
-1 -4 18 0.47
-1 -4 18 0.26
-1 -4 18 -0.84
0 4 -18 13.14
0 4 -18 10.25
0 -4 18 11.08
0 -4 18 13.15
0 -4 18 12.36
-1 4 -18 0.44
-1 4 -18 0.59
1 -4 18 0.64
1 -4 18 -0.12
1 -4 18 1.20
3 3 -18 8.59
-3 -3 18 8.70
-3 -3 18 10.09
-3 -3 18 6.70
2 3 -18 0.66
-2 -3 18 0.33
-2 -3 18 0.55
-2 -3 18 0.51
1 3 -18 0.91
1 3 -18 0.62
-1 -3 18 0.80
-1 -3 18 0.77
-1 -3 18 0.06
0 3 -18 1.13
0 3 -18 2.05
0 -3 18 0.83
0 -3 18 0.96
0 -3 18 1.76
-1 3 -18 7.58
-1 3 -18 6.24
1 -3 18 7.12
1 -3 18 9.55
-2 3 -18 2.32
2 -3 18 2.46
-4 -2 18 12.91
-4 -2 18 14.80
-3 -2 18 0.02
-3 -2 18 0.26
-3 -2 18 -0.52
-2 -2 18 -0.83
-2 -2 18 0.27
-2 -2 18 0.14
1 2 -18 8.09
-1 -2 18 9.50
-1 -2 18 10.03
-1 -2 18 8.10
0 2 -18 46.71
0 -2 18 42.39
0 -2 18 48.09
0 -2 18 46.69
-1 2 -18 5.25
1 -2 18 8.35
-2 2 -18 0.45
2 -2 18 0.61
-4 -1 18 1.15
-4 -1 18 0.96
-3 -1 18 22.97
-3 -1 18 23.46
-2 -1 18 4.37
-2 -1 18 5.01
1 1 -18 0.59
-1 -1 18 -0.11
-1 -1 18 0.04
0 1 -18 5.31
0 -1 18 4.61
0 -1 18 4.74
-1 1 -18 6.14
1 -1 18 7.25
-3 0 18 3.85
-3 0 18 3.12
-2 0 18 0.21
-2 0 18 -0.05
1 0 -18 6.17
-1 0 18 6.16
-1 0 18 4.60
0 0 -18 76.37
0 0 18 77.66
0 0 18 77.50
-1 0 -18 2.99
1 0 18 2.97
-3 1 18 27.68
-3 1 18 25.22
-2 1 18 0.62
-2 1 18 0.04
-1 1 18 2.89
-1 1 18 4.17
0 -1 -18 -0.12
0 1 18 0.06
0 1 18 -0.18
2 4 -19 8.20
-2 -4 19 8.53
-2 -4 19 7.67
-2 -4 19 9.30
1 4 -19 0.15
-1 -4 19 0.46
-1 -4 19 -0.10
-1 -4 19 0.95
0 4 -19 1.28
0 4 -19 0.94
0 -4 19 0.97
0 -4 19 1.18
-3 -3 19 2.48
-3 -3 19 4.16
-2 -3 19 0.43
-2 -3 19 0.12
-2 -3 19 1.32
-1 -3 19 3.76
-1 -3 19 3.20
-1 -3 19 3.95
0 3 -19 12.78
0 -3 19 13.62
0 -3 19 12.92
0 -3 19 16.38
-1 3 -19 2.33
1 -3 19 1.82
-3 -2 19 4.18
-3 -2 19 3.49
-3 -2 19 4.77
-2 -2 19 4.37
-2 -2 19 4.88
-2 -2 19 4.27
-1 -2 19 13.59
-1 -2 19 11.60
-1 -2 19 13.99
0 2 -19 7.94
0 -2 19 7.74
0 -2 19 5.77
0 -2 19 6.51
-1 2 -19 1.33
1 -2 19 0.53
-3 -1 19 8.28
-3 -1 19 8.51
-2 -1 19 8.11
-2 -1 19 8.45
-1 -1 19 15.03
-1 -1 19 14.70
0 1 -19 2.29
0 -1 19 3.12
0 -1 19 2.28
-2 0 19 1.31
-2 0 19 0.98
-1 0 19 7.43
-1 0 19 6.55
0 0 -19 1.51
0 0 19 2.38
0 0 19 2.09
0 0 0 0.00
