#------------------------------------------------------------------------------
#$Date: 2019-12-25 22:13:34 +0200 (Wed, 25 Dec 2019) $
#$Revision: 245852 $
#$URL: file:///home/coder/svn-repositories/cod/cif/2/31/13/2311398.cif $
#------------------------------------------------------------------------------
#
# This file is available in the Crystallography Open Database (COD),
# http://www.crystallography.net/. The original data for this entry
# were provided by IUCr Journals, http://journals.iucr.org/.
#
# The file may be used within the scientific community so long as
# proper attribution is given to the journal article from which the
# data were obtained.
#
data_2311398
loop_
_publ_author_name
'Then, Li Yee'
'Chidan Kumar, C. S.'
'Kwong, Huey Chong'
'Win, Yip-Foo'
'Mah, Siau Hui'
'Quah, Ching Kheng'
'Naveen, S.'
'Warad, Ismail'
_publ_section_title
;
 Steric repulsion and supra-molecular assemblies <i>via</i> a
 two-dimensional plate by C-H&#x22EF;O hydrogen bonds in two closely
 related 2-(benzo-furan-2-yl)-2-oxoethyl benzoates.
;
_journal_coeditor_code           QM2117
_journal_issue                   'Pt 8'
_journal_name_full
'Acta crystallographica. Section E, Crystallographic communications'
_journal_page_first              1227
_journal_page_last               1231
_journal_paper_doi               10.1107/S2056989017010556
_journal_volume                  73
_journal_year                    2017
_chemical_formula_iupac          'C18 H14 O5'
_chemical_formula_moiety         'C18 H14 O5'
_chemical_formula_sum            'C18 H14 O5'
_chemical_formula_weight         310.29
_chemical_name_systematic
;
2-(Benzofuran-2-yl)-2-oxoethyl 2-methoxybenzoate
;
_space_group_crystal_system      triclinic
_space_group_IT_number           2
_space_group_name_Hall           '-P 1'
_space_group_name_H-M_alt        'P -1'
_atom_sites_solution_hydrogens   geom
_audit_creation_method           SHELXL-2013
_cell_angle_alpha                83.4300(10)
_cell_angle_beta                 71.8080(10)
_cell_angle_gamma                87.2650(10)
_cell_formula_units_Z            2
_cell_length_a                   7.4094(3)
_cell_length_b                   9.7566(4)
_cell_length_c                   10.5832(5)
_cell_measurement_reflns_used    8829
_cell_measurement_temperature    100(2)
_cell_measurement_theta_max      30.17
_cell_measurement_theta_min      2.77
_cell_volume                     721.99(5)
_computing_cell_refinement
;
SAINT (Bruker, 2009)
;
_computing_data_collection
;
APEX2 (Bruker, 2009)
;
_computing_data_reduction
;
SAINT (Bruker, 2009)
;
_computing_molecular_graphics
;
SHELXL2013 (Sheldrick, 2015) and Mercury (Macrae <i>et al.</i>,
2006)
;
_computing_publication_material
;
SHELXL2013 (Sheldrick, 2015) and PLATON (Spek, 2009)
;
_computing_structure_refinement
;
SHELXL2013 (Sheldrick, 2015)
;
_computing_structure_solution
;
<i>XS</i> (Sheldrick, 2013)
;
_diffrn_ambient_temperature      100(2)
_diffrn_measured_fraction_theta_full 1.000
_diffrn_measured_fraction_theta_max 0.995
_diffrn_measurement_device_type
;
Bruker APEXII DUO CCD area-detector
;
_diffrn_measurement_method       '\f and \w scans'
_diffrn_radiation_monochromator  graphite
_diffrn_radiation_source         'fine-focus sealed tube'
_diffrn_radiation_type           MoK\a
_diffrn_radiation_wavelength     0.71073
_diffrn_reflns_av_R_equivalents  0.0457
_diffrn_reflns_limit_h_max       10
_diffrn_reflns_limit_h_min       -10
_diffrn_reflns_limit_k_max       13
_diffrn_reflns_limit_k_min       -13
_diffrn_reflns_limit_l_max       14
_diffrn_reflns_limit_l_min       -14
_diffrn_reflns_number            27838
_diffrn_reflns_theta_full        25.242
_diffrn_reflns_theta_max         30.231
_diffrn_reflns_theta_min         2.037
_exptl_absorpt_coefficient_mu    0.105
_exptl_absorpt_correction_T_max  0.9498
_exptl_absorpt_correction_T_min  0.7659
_exptl_absorpt_correction_type   multi-scan
_exptl_absorpt_process_details
;
(SADABS; Krause <i>et al.</i>, 2015)
;
_exptl_crystal_colour            colourless
_exptl_crystal_density_diffrn    1.427
_exptl_crystal_description       block
_exptl_crystal_F_000             324
_exptl_crystal_size_max          0.513
_exptl_crystal_size_mid          0.345
_exptl_crystal_size_min          0.114
_refine_diff_density_max         0.521
_refine_diff_density_min         -0.333
_refine_ls_extinction_method     none
_refine_ls_goodness_of_fit_ref   1.040
_refine_ls_hydrogen_treatment    constr
_refine_ls_matrix_type           full
_refine_ls_number_parameters     209
_refine_ls_number_reflns         4286
_refine_ls_number_restraints     0
_refine_ls_restrained_S_all      1.040
_refine_ls_R_factor_all          0.0543
_refine_ls_R_factor_gt           0.0451
_refine_ls_shift/su_max          0.001
_refine_ls_shift/su_mean         0.000
_refine_ls_structure_factor_coef Fsqd
_refine_ls_weighting_details
;
 w=1/[\s^2^(Fo^2^)+(0.0640P)^2^+0.3014P]
 where P=(Fo^2^+2Fc^2^)/3
;
_refine_ls_weighting_scheme      calc
_refine_ls_wR_factor_gt          0.1150
_refine_ls_wR_factor_ref         0.1242
_reflns_number_gt                3615
_reflns_number_total             4286
_reflns_threshold_expression     'I > 2\s(I)'
_cod_data_source_file            qm2117sup1.cif
_cod_data_source_block           II
_cod_database_code               2311398
_shelx_space_group_comment
;
The symmetry employed for this shelxl refinement is uniquely defined
by the following loop, which should always be used as a source of
symmetry information in preference to the above space-group names.
They are only intended as comments.
;
_shelx_estimated_absorpt_t_min   0.948
_shelx_estimated_absorpt_t_max   0.988
_shelx_hkl_file
;
  -1   0   0 29.0637 1.40525   2
  -1   0   0 26.2576 1.42974   9
  -1   0   0 28.2962 1.45131   9
  -1   0   0 30.1870 1.39215   5
  -1   0   0 30.0001 1.47466   7
  -1   0   0 26.6491 1.38611   1
  -1   0   0 30.6361 1.37790   6
  -1   0   0 29.2986 1.47042   3
  -1   0   0 29.0631 1.42081   4
  -1   0   0 29.9259 1.36832   8
   1   0   0 26.8082 1.44338   9
   1   0   0 25.1591 1.41821   9
   1   0   0 29.6668 1.37145   6
  -2   0   0 308.453 12.0110   9
  -2   0   0 229.270 11.8715   9
  -2   0   0 273.827 11.9878   7
  -2   0   0 269.427 11.8413   2
  -2   0   0 265.413 11.9760   3
  -2   0   0 268.915 11.8767   4
  -2   0   0 270.482 11.7674   6
  -2   0   0 274.244 11.8048   5
  -2   0   0 279.234 11.7630   8
  -2   0   0 257.916 11.8032   1
   2   0   0 274.250 11.7963   5
   2   0   0 246.470 11.8772   9
   2   0   0 243.592 11.9133   9
   2   0   0 232.235 11.7545   1
   2   0   0 260.616 11.7548   6
  -3   0   0 1.17597 0.28896   5
  -3   0   0 0.82237 0.33604   3
  -3   0   0 2.05618 0.43603   2
  -3   0   0 0.95070 0.32704   4
  -3   0   0 1.25101 0.32640   1
  -3   0   0 0.85385 0.32928   9
  -3   0   0 1.48943 0.32907   8
  -3   0   0 1.54192 0.42403   7
  -3   0   0 1.06771 0.27766   6
   3   0   0 1.24492 0.29922   6
   3   0   0 1.72844 0.43695   9
   3   0   0 0.99859 0.27633   1
   3   0   0 1.47090 0.39254   9
   3   0   0 1.21362 0.30015   5
  -4   0   0 16.0395 1.32732   4
  -4   0   0 20.6935 1.27051   8
  -4   0   0 17.3278 1.27207   1
  -4   0   0 17.5535 1.27018   5
  -4   0   0 19.0747 1.37641   2
  -4   0   0 15.4513 1.44075   7
  -4   0   0 19.1969 1.25234   6
  -4   0   0 18.8474 1.55182   3
   4   0   0 17.3025 1.21550   6
   4   0   0 16.8439 1.36245   9
   4   0   0 18.7256 1.27104   1
   4   0   0 17.9405 1.28422   5
   4   0   0 16.8371 1.43449   9
  -5   0   0 152.101 8.09160   7
  -5   0   0 159.821 7.86013   2
  -5   0   0 160.853 7.73322   5
  -5   0   0 156.819 7.88791   4
  -5   0   0 166.345 7.74580   1
  -5   0   0 166.018 7.65836   8
  -5   0   0 164.910 8.20044   3
  -5   0   0 163.612 7.65990   6
   5   0   0 156.443 7.71389   5
   5   0   0 150.535 8.03404   3
   5   0   0 158.276 7.66408   1
   5   0   0 159.041 7.63168   6
   5   0   0 160.939 7.91746   9
  -6   0   0 10.7964 1.36858   2
  -6   0   0 8.60715 1.11273   8
  -6   0   0 9.39421 1.20614   1
  -6   0   0 7.78905 1.38353   7
  -6   0   0 8.11826 1.13723   5
  -6   0   0 8.77384 1.28616   4
  -6   0   0 7.65793 1.32059   3
   6   0   0 8.62281 1.13949   5
   6   0   0 9.16754 1.10881   6
   6   0   0 8.35525 1.21526   4
   6   0   0 10.4999 1.37835   9
   6   0   0 8.40125 1.11579   1
   6   0   0 7.22216 1.29094   3
  -7   0   0 64.3005 4.33511   7
  -7   0   0 62.9847 4.00419   2
  -7   0   0 59.1535 4.27862   3
  -7   0   0 65.8651 3.74614   8
  -7   0   0 69.6641 3.90926   5
   7   0   0 63.7000 3.84410   5
   7   0   0 59.1194 4.18894   3
   7   0   0 69.1424 3.74719   6
  -8   0   0 0.08587 0.56718   3
  -8   0   0 0.46855 0.64782   2
  -8   0   0 0.40885 0.60180   7
   8   0   0 0.23519 0.53742   5
   8   0   0 0.53852 0.46385   6
   8   0   0 -0.0054 0.47519   3
  -9   0   0 1.42235 1.01370   7
  -9   0   0 2.22421 0.96925   2
  -9   0   0 1.27169 0.83484   3
   9   0   0 -0.0336 0.59915   5
   9   0   0 0.69001 0.85043   7
   9   0   0 1.44175 0.80346   3
   9  -1   0 12.1856 1.81268   5
   9  -1   0 15.1613 2.18690   7
   9  -1   0 14.8880 2.32544   3
  -9   1   0 12.1031 1.97664   2
  -9   1   0 11.9813 2.29017   3
  -9   1   0 11.4086 2.08274   7
   8  -1   0 -0.2207 0.44386   3
   8  -1   0 -0.3527 0.59022   7
   8  -1   0 -0.6233 0.49424   5
  -8   1   0 0.55539 0.74798   2
  -8   1   0 1.11576 0.85981   7
  -8   1   0 -0.4640 0.45298   3
  -8   1   0 0.80043 0.58370   8
   7  -1   0 79.1305 4.91466   3
   7  -1   0 78.8209 4.43305   5
   7  -1   0 73.7492 4.70581   7
   7  -1   0 83.3148 4.26436   6
  -7   1   0 88.7660 5.18909   3
  -7   1   0 69.0293 4.82383   7
  -7   1   0 75.0583 4.38510   8
  -7   1   0 78.7221 4.71569   2
   6  -1   0 7.59750 1.34434   3
   6  -1   0 6.26226 1.04299   9
   6  -1   0 6.62742 0.94689   1
   6  -1   0 7.39671 1.05928   5
   6  -1   0 4.96771 0.79159   6
  -6   1   0 5.00213 0.87948   8
  -6   1   0 7.34360 1.01441   1
  -6   1   0 4.36986 1.03698   7
  -6   1   0 7.95970 1.07352   5
  -6   1   0 6.37027 1.14936   4
  -6   1   0 7.68662 1.32969   3
  -6   1   0 7.34275 1.23952   2
   5  -1   0 61.7474 3.12740   6
   5  -1   0 54.6090 3.15685   1
   5  -1   0 61.0764 3.25936   5
   5  -1   0 54.6744 3.35644   9
   5  -1   0 56.1743 3.53193   3
  -5   1   0 62.2253 3.69962   7
  -5   1   0 54.8954 3.39185   2
  -5   1   0 63.4517 3.53614   9
  -5   1   0 59.3477 3.49651   4
  -5   1   0 58.9530 3.64609   3
  -5   1   0 58.5295 3.11096   6
  -5   1   0 58.2160 3.23042   1
  -5   1   0 57.1301 3.22608   8
  -5   1   0 57.8147 3.22091   5
   4  -1   0 2.81312 0.64527   3
   4  -1   0 2.67961 0.50980   5
   4  -1   0 3.73004 0.53100   6
   4  -1   0 4.05069 0.72899   9
   4  -1   0 2.92423 0.60956   9
  -4   1   0 3.89563 0.52616   6
  -4   1   0 2.78416 0.70965   7
  -4   1   0 3.67644 0.67582   2
  -4   1   0 3.12985 0.53217   5
  -4   1   0 2.98769 0.63594   9
  -4   1   0 2.83775 0.52212   8
  -4   1   0 3.26553 0.58014   1
  -4   1   0 3.76426 0.71354   4
  -4   1   0 2.42397 0.61552   3
   3  -1   0 74.4525 3.92498   9
   3  -1   0 79.4826 3.73570   5
   3  -1   0 70.9146 3.86807   9
   3  -1   0 74.3606 3.63519   6
   3  -1   0 72.3672 3.92780   3
  -3   1   0 73.6525 4.02276   7
  -3   1   0 82.3680 3.74907   5
  -3   1   0 73.7877 3.76552   1
  -3   1   0 74.3047 3.91728   9
  -3   1   0 76.8650 3.64764   6
  -3   1   0 78.1283 3.93613   4
  -3   1   0 75.0114 3.88740   2
  -3   1   0 82.9662 4.05698   3
  -3   1   0 80.7841 3.79148   8
   2  -1   0 1.16681 0.32391   3
   2  -1   0 1.61546 0.23749   6
   2  -1   0 2.24568 0.30029   5
   2  -1   0 1.71532 0.37063   9
  -2   1   0 1.72044 0.35075   2
  -2   1   0 1.43624 0.25013   5
  -2   1   0 1.43225 0.30258   1
  -2   1   0 1.93438 0.25165   6
  -2   1   0 1.08125 0.29788   9
  -2   1   0 1.56666 0.30659   8
  -2   1   0 2.04584 0.39724   4
  -2   1   0 2.05480 0.41796   3
  -2   1   0 1.91477 0.40319   7
   1  -1   0 2.96027 0.35041   7
   1  -1   0 2.26342 0.30490   3
   1  -1   0 2.10370 0.19916   5
   1  -1   0 2.84312 0.28947   9
  -1   1   0 3.04385 0.36610   2
  -1   1   0 2.19486 0.30473   9
  -1   1   0 2.53400 0.17055   6
  -1   1   0 2.87539 0.35092   4
  -1   1   0 2.28826 0.28099   8
  -1   1   0 2.65843 0.25962   1
  -1   1   0 2.46826 0.34828   7
   0  -1   0 271.586 12.0627   5
   0  -1   0 283.617 12.1207   3
   0  -1   0 282.067 12.1176   7
   0  -1   0 276.023 12.0726   2
   0  -1   0 287.272 12.0592   6
   0  -1   0 264.588 12.1463   9
   0   1   0 287.465 12.0956   2
   0   1   0 263.502 12.1188   4
   0   1   0 280.001 12.0633   8
   0   1   0 264.678 12.1092   1
   0   1   0 255.042 12.1430   9
   0   1   0 277.759 12.0535   6
  -1  -1   0 421.958 18.2105   5
  -1  -1   0 393.816 18.1103   2
  -1  -1   0 417.712 18.2794   3
  -1  -1   0 417.779 18.2921   9
  -1  -1   0 419.789 18.0554   8
  -1  -1   0 408.469 18.2437   7
  -1  -1   0 408.920 18.1982   6
   1   1   0 413.128 18.1616   4
   1   1   0 424.530 18.2893   9
   1   1   0 408.928 18.0494   8
   1   1   0 397.911 18.1890   6
   1   1   0 413.825 18.2089   1
  -2  -1   0 1394.67 61.7450   6
  -2  -1   0 1412.24 61.7535   4
  -2  -1   0 1316.88 61.8677   9
  -2  -1   0 1392.58 61.7583   5
  -2  -1   0 1476.03 61.5997   8
  -2  -1   0 1394.56 61.8821   7
  -2  -1   0 1538.20 61.8136   1
  -2  -1   0 1445.80 61.9345   3
   2   1   0 1299.81 61.7009   4
   2   1   0 1424.06 61.8760   9
   2   1   0 1355.60 61.7307   6
   2   1   0 1380.92 61.7428   1
   2   1   0 1452.61 61.9757   9
  -3  -1   0 81.4845 4.60613   9
  -3  -1   0 93.6619 4.51531   4
  -3  -1   0 92.7768 4.31898   8
  -3  -1   0 85.9638 4.64127   7
  -3  -1   0 92.7692 4.49494   5
  -3  -1   0 95.3385 4.46079   2
  -3  -1   0 93.0702 4.47516   6
  -3  -1   0 105.541 4.57105   1
  -3  -1   0 85.7631 4.68036   3
   3   1   0 95.9068 4.48700   1
   3   1   0 94.1958 4.63827   9
   3   1   0 90.7343 4.45954   6
   3   1   0 87.0483 4.45355   4
   3   1   0 91.4454 4.72409   9
  -4  -1   0 32.3167 2.31431   7
  -4  -1   0 38.2436 2.21213   4
  -4  -1   0 37.2887 2.15365   2
  -4  -1   0 32.7294 2.11336   5
  -4  -1   0 39.4334 2.21121   1
  -4  -1   0 37.5222 2.45629   3
  -4  -1   0 39.9898 2.16455   6
  -4  -1   0 31.7557 2.46671   9
  -4  -1   0 38.0507 2.00610   8
   4   1   0 33.5722 2.11257   4
   4   1   0 37.7986 2.31477   9
   4   1   0 34.0730 2.09704   1
   4   1   0 32.6095 2.35838   9
   4   1   0 37.3269 2.12533   6
   4   1   0 38.2519 2.17921   5
  -5  -1   0 49.7051 2.83372   6
  -5  -1   0 47.7999 3.13861   7
  -5  -1   0 45.1970 2.83231   2
  -5  -1   0 50.3642 2.69514   8
  -5  -1   0 45.6394 3.13874   3
  -5  -1   0 44.3386 2.81217   5
  -5  -1   0 53.3838 2.97012   4
   5   1   0 47.9737 2.80485   6
   5   1   0 54.9148 3.10847   9
   5   1   0 45.0269 2.80755   4
   5   1   0 52.5711 2.85999   1
   5   1   0 47.8478 2.85506   5
  -6  -1   0 26.0623 2.29624   7
  -6  -1   0 25.8906 2.01470   4
  -6  -1   0 27.2406 2.04716   2
  -6  -1   0 25.0975 1.96793   5
  -6  -1   0 22.3968 2.51591   3
  -6  -1   0 29.9692 1.90041   8
   6   1   0 29.2987 1.98959   6
   6   1   0 27.6164 2.15733   9
   6   1   0 29.0205 2.03990   4
   6   1   0 26.7597 2.02066   5
   6   1   0 30.8063 2.03211   1
  -7  -1   0 17.5895 2.30775   3
  -7  -1   0 19.0484 2.05601   2
  -7  -1   0 13.8133 1.72229   5
  -7  -1   0 17.9811 2.30636   7
   7   1   0 16.5645 1.84941   5
   7   1   0 18.1339 1.55606   6
   7   1   0 16.7347 2.19480   3
   7   1   0 21.9415 1.70141   1
  -8  -1   0 27.0057 3.09475   7
  -8  -1   0 27.7082 2.32407   5
  -8  -1   0 30.9778 2.51026   2
  -8  -1   0 29.1643 3.24922   3
   8   1   0 30.7350 2.24450   6
   8   1   0 25.9424 2.99616   3
   8   1   0 28.3812 2.36462   5
  -9  -1   0 42.1671 3.64028   3
   9   1   0 35.0022 3.75825   3
   9   1   0 35.8669 2.91513   5
   9  -2   0 43.5550 3.46141   7
   9  -2   0 38.5579 3.33873   3
  -9   2   0 39.7228 3.56875   7
  -9   2   0 41.5258 3.39444   2
   8  -2   0 0.71385 0.64229   5
   8  -2   0 -0.0668 0.44556   3
   8  -2   0 -0.1147 0.38849   7
  -8   2   0 0.14407 0.51181   8
  -8   2   0 0.58481 0.76090   2
  -8   2   0 -0.2592 0.49624   3
  -8   2   0 0.14925 0.55388   7
   7  -2   0 0.91432 0.47922   5
   7  -2   0 0.98904 0.62676   3
   7  -2   0 -0.0472 0.42532   7
  -7   2   0 0.13214 0.49438   3
  -7   2   0 0.81344 0.60827   7
  -7   2   0 0.48633 0.49962   2
  -7   2   0 -0.4045 0.43551   8
   6  -2   0 165.459 7.84237   6
   6  -2   0 160.836 8.30436   9
   6  -2   0 158.032 8.20862   1
   6  -2   0 180.676 8.16354   5
   6  -2   0 168.227 8.53729   7
   6  -2   0 158.962 8.50472   3
  -6   2   0 156.681 8.46342   4
  -6   2   0 158.648 8.42787   2
  -6   2   0 170.071 8.72072   3
  -6   2   0 162.650 8.17071   8
  -6   2   0 184.526 8.90189   7
   5  -2   0 65.0649 3.58583   9
   5  -2   0 62.4948 3.08237   6
   5  -2   0 52.4903 3.47281   7
   5  -2   0 61.8274 3.63119   3
   5  -2   0 62.3772 3.27862   5
   5  -2   0 60.8863 3.46638   9
  -5   2   0 53.5650 3.21508   1
  -5   2   0 62.0940 3.72721   3
  -5   2   0 60.1500 3.55590   2
  -5   2   0 54.4345 3.43001   9
  -5   2   0 60.1010 3.34644   8
  -5   2   0 56.4167 3.68206   7
  -5   2   0 57.1977 3.56175   4
   4  -2   0 93.2631 4.27738   6
   4  -2   0 85.5938 4.70513   3
   4  -2   0 83.0418 4.61783   9
   4  -2   0 94.0617 4.71373   9
   4  -2   0 84.0286 4.69919   7
   4  -2   0 98.1334 4.47569   5
  -4   2   0 90.1509 4.75818   4
  -4   2   0 94.7681 4.86290   3
  -4   2   0 91.7819 4.27892   6
  -4   2   0 83.9220 4.68148   2
  -4   2   0 87.6715 4.53520   8
  -4   2   0 86.7990 4.68050   9
  -4   2   0 84.5252 4.47432   1
  -4   2   0 92.7217 4.92658   7
   3  -2   0 86.5616 4.56680   3
   3  -2   0 94.6262 4.21274   6
   3  -2   0 83.7098 4.58220   7
   3  -2   0 97.8852 4.60037   9
   3  -2   0 96.8022 4.36240   5
  -3   2   0 95.0707 4.21479   6
  -3   2   0 94.1053 4.64072   4
  -3   2   0 86.3867 4.72047   7
  -3   2   0 90.7340 4.61939   2
  -3   2   0 81.5695 4.54254   9
  -3   2   0 86.1023 4.42769   1
  -3   2   0 91.0905 4.47796   8
   2  -2   0 87.4746 4.44554   7
   2  -2   0 95.4437 4.22281   5
   2  -2   0 89.9568 4.40568   3
   2  -2   0 98.6048 4.44365   9
   2  -2   0 89.2168 4.08474   6
  -2   2   0 93.0525 4.57169   7
  -2   2   0 91.8439 4.46291   4
  -2   2   0 95.0398 4.48656   2
  -2   2   0 90.1008 4.08722   6
  -2   2   0 85.3699 4.32516   1
  -2   2   0 88.5230 4.35214   8
  -2   2   0 86.6750 4.43578   9
   1  -2   0 303.954 13.4522   3
   1  -2   0 298.872 13.2880   5
   1  -2   0 321.642 13.5122   9
   1  -2   0 291.782 13.4837   7
  -1   2   0 294.419 13.4953   2
  -1   2   0 300.726 13.5011   9
  -1   2   0 307.221 13.5197   4
  -1   2   0 320.501 13.4378   1
  -1   2   0 293.557 13.4190   8
  -1   2   0 279.868 13.1900   6
   0  -2   0 148.282 6.97258   7
   0  -2   0 151.438 6.87809   5
   0  -2   0 152.931 7.05015   9
   0  -2   0 154.324 6.89772   2
   0  -2   0 156.989 6.99228   3
   0   2   0 156.523 6.93846   2
   0   2   0 160.873 6.88483   8
   0   2   0 147.453 6.99124   4
   0   2   0 150.952 6.85272   6
   0   2   0 154.373 6.98307   1
   0   2   0 159.621 7.07864   9
  -1  -2   0 659.446 30.2538   9
  -1  -2   0 680.131 30.1103   6
  -1  -2   0 674.651 30.1486   7
  -1  -2   0 666.549 30.1080   5
  -1  -2   0 677.941 30.2076   3
  -1  -2   0 650.825 29.9633   2
   1   2   0 716.701 30.1768   1
   1   2   0 713.016 30.1103   4
   1   2   0 728.927 30.2980   9
   1   2   0 666.013 30.0971   6
  -2  -2   0 721.686 32.9064   7
  -2  -2   0 734.963 32.9706   3
  -2  -2   0 733.748 32.9996   9
  -2  -2   0 739.068 32.8238   5
  -2  -2   0 748.096 32.8206   6
  -2  -2   0 726.743 32.6429   2
   2   2   0 750.025 32.5076   8
   2   2   0 754.896 32.8409   1
   2   2   0 774.410 33.0025   9
   2   2   0 766.033 32.7366   4
   2   2   0 714.056 32.7946   6
  -3  -2   0 7.07110 0.92744   7
  -3  -2   0 7.29744 0.52113   8
  -3  -2   0 6.16202 0.77626   5
  -3  -2   0 6.24879 0.90531   3
  -3  -2   0 6.35188 0.90697   9
  -3  -2   0 7.79816 0.84679   6
   3   2   0 9.29136 0.86655   9
   3   2   0 6.07748 0.60752   4
   3   2   0 10.5440 0.79846   1
   3   2   0 6.98365 0.82412   6
  -4  -2   0 0.24687 0.35416   7
  -4  -2   0 0.12376 0.26434   6
  -4  -2   0 0.21127 0.17053   8
  -4  -2   0 -0.1195 0.24011   3
  -4  -2   0 0.02943 0.17588   2
  -4  -2   0 -0.1807 0.15504   5
   4   2   0 0.16791 0.25679   1
   4   2   0 -0.1078 0.25558   6
   4   2   0 0.24292 0.33246   9
   4   2   0 -0.0842 0.17400   4
  -5  -2   0 72.9805 4.08055   2
  -5  -2   0 84.7234 3.93643   8
  -5  -2   0 69.4351 4.46997   3
  -5  -2   0 74.6862 4.18807   5
  -5  -2   0 76.8675 4.16977   6
  -5  -2   0 71.0735 4.41100   7
   5   2   0 80.2676 4.18461   6
   5   2   0 84.3994 4.22954   1
   5   2   0 73.4471 4.16447   5
   5   2   0 87.7323 4.50387   9
   5   2   0 76.2959 4.08301   4
  -6  -2   0 1.75514 0.71150   3
  -6  -2   0 0.92651 0.44186   5
  -6  -2   0 1.23491 0.63946   7
  -6  -2   0 0.82633 0.42067   2
   6   2   0 1.77816 0.60352   5
   6   2   0 0.59704 0.43904   6
   6   2   0 1.87907 0.60155   1
   6   2   0 1.81428 0.67656   9
  -7  -2   0 0.35560 0.59957   7
  -7  -2   0 -0.1546 0.30614   5
  -7  -2   0 0.25104 0.50807   2
  -7  -2   0 0.36190 0.76682   3
   7   2   0 0.45759 0.46171   1
   7   2   0 -0.1033 0.28082   6
   7   2   0 -0.3683 0.48764   9
   7   2   0 -0.4852 0.22544   5
  -8  -2   0 14.2771 2.15193   7
  -8  -2   0 11.6592 1.63048   5
  -8  -2   0 9.16451 1.82417   3
   8   2   0 10.5273 1.47510   6
   8   2   0 13.3940 1.74991   5
   8   2   0 15.2812 2.19308   3
  -9  -2   0 31.9304 3.65339   7
  -9  -2   0 33.6424 3.77518   3
  -9  -2   0 35.8058 2.81028   5
   9   2   0 33.7132 3.67621   3
   9   2   0 40.7229 2.87956   6
   9   2   0 31.8046 2.72890   5
   9  -3   0 0.27560 0.57941   2
   9  -3   0 -0.3485 0.87968   7
   9  -3   0 0.46435 0.89408   3
  -9   3   0 0.59521 1.02608   7
  -9   3   0 0.72577 0.68808   8
  -9   3   0 -0.1569 0.53751   2
   8  -3   0 0.51557 0.84566   7
   8  -3   0 -0.2943 0.47311   3
  -8   3   0 1.58951 1.03275   7
  -8   3   0 0.54007 0.76303   2
  -8   3   0 0.28045 0.60324   8
   7  -3   0 13.9736 1.94455   3
   7  -3   0 16.9108 2.13879   7
   7  -3   0 15.9766 1.68091   5
  -7   3   0 13.1666 1.68570   8
  -7   3   0 13.2378 2.02365   7
  -7   3   0 11.5026 1.81531   4
  -7   3   0 14.6339 2.04014   2
   6  -3   0 54.4233 2.99967   5
   6  -3   0 48.3206 3.34558   7
   6  -3   0 47.4897 3.29259   3
  -6   3   0 49.6968 3.36398   4
  -6   3   0 50.9551 3.13026   8
  -6   3   0 42.2817 3.39970   7
  -6   3   0 47.1019 3.31610   2
   5  -3   0 39.8565 2.79447   7
   5  -3   0 44.1003 2.20033   6
   5  -3   0 45.4184 2.49164   5
   5  -3   0 40.7504 2.75613   3
   5  -3   0 37.9176 2.61789   9
  -5   3   0 38.5659 2.66443   9
  -5   3   0 43.9828 2.84072   2
  -5   3   0 43.1087 2.99502   7
  -5   3   0 42.1174 2.84609   4
  -5   3   0 44.1701 2.65941   8
  -5   3   0 35.8333 2.41939   1
   4  -3   0 2.57681 0.47746   5
   4  -3   0 2.41466 0.53169   9
   4  -3   0 1.69132 0.29147   6
   4  -3   0 1.14840 0.45439   3
   4  -3   0 1.39425 0.54580   7
  -4   3   0 1.77833 0.55592   4
  -4   3   0 2.06929 0.50824   1
  -4   3   0 1.35042 0.45466   8
  -4   3   0 2.14871 0.71061   7
  -4   3   0 0.98140 0.41582   9
  -4   3   0 1.76413 0.59720   2
   3  -3   0 382.239 15.7009   9
   3  -3   0 341.923 15.1186   6
   3  -3   0 369.918 15.3648   5
   3  -3   0 325.227 15.7087   7
   3  -3   0 350.261 15.6622   3
  -3   3   0 307.154 15.6515   9
  -3   3   0 319.751 15.5140   1
  -3   3   0 353.999 15.9434   7
  -3   3   0 348.961 15.7624   4
  -3   3   0 333.626 15.5700   8
  -3   3   0 335.838 15.7388   2
   2  -3   0 51.3542 2.35288   5
   2  -3   0 47.1655 2.64557   7
   2  -3   0 46.9676 2.12975   6
   2  -3   0 51.5366 2.64507   9
   2  -3   0 48.0930 2.57530   3
  -2   3   0 48.5362 2.53920   1
  -2   3   0 48.3246 2.13403   6
  -2   3   0 49.9768 2.67955   4
  -2   3   0 41.8646 2.50078   8
  -2   3   0 46.2082 2.64925   2
  -2   3   0 47.1963 2.63851   9
   1  -3   0 5.67546 0.63067   3
   1  -3   0 5.48143 0.66391   7
   1  -3   0 5.61315 0.60015   2
   1  -3   0 5.32684 0.40346   5
   1  -3   0 5.49427 0.70325   9
  -1   3   0 5.47786 0.66260   2
  -1   3   0 5.47352 0.58917   8
  -1   3   0 5.68460 0.34587   6
  -1   3   0 5.67506 0.71071   9
  -1   3   0 5.69245 0.65577   1
  -1   3   0 5.60382 0.69776   4
   0  -3   0 205.668 9.20469   2
   0  -3   0 202.762 9.42772   9
   0  -3   0 210.860 9.35435   3
   0  -3   0 204.375 9.17540   5
   0  -3   0 205.674 9.33468   7
   0   3   0 203.175 9.45204   9
   0   3   0 211.339 9.37731   4
   0   3   0 202.694 9.33090   1
   0   3   0 198.828 9.12931   6
   0   3   0 202.764 9.17403   8
  -1  -3   0 26.0558 1.45140   6
  -1  -3   0 25.0052 1.49320   7
  -1  -3   0 24.4006 1.44030   5
  -1  -3   0 24.0982 1.53705   3
  -1  -3   0 25.5325 1.31316   2
   1   3   0 28.2665 1.57071   1
   1   3   0 25.4658 1.43474   6
   1   3   0 25.5224 1.51125   4
   1   3   0 27.9677 1.70694   9
   1   3   0 27.0198 1.25876   8
  -2  -3   0 43.0166 2.41253   7
  -2  -3   0 41.2330 2.46419   3
  -2  -3   0 44.5148 2.13666   2
  -2  -3   0 41.1744 2.32735   5
  -2  -3   0 45.1655 2.57396   9
  -2  -3   0 43.4215 2.34842   6
   2   3   0 43.1695 2.33690   6
   2   3   0 46.2028 2.56882   9
   2   3   0 44.8749 2.29725   4
   2   3   0 42.7770 2.39598   1
  -3  -3   0 99.0663 5.27713   3
  -3  -3   0 99.9816 5.22013   7
  -3  -3   0 99.4529 5.07426   5
  -3  -3   0 99.6458 5.06941   6
  -3  -3   0 100.534 4.83827   2
   3   3   0 110.933 5.35652   9
   3   3   0 102.124 5.10444   1
   3   3   0 102.539 4.59571   8
   3   3   0 101.177 5.06691   6
   3   3   0 111.549 4.97829   4
  -4  -3   0 30.9888 2.13747   5
  -4  -3   0 35.7319 2.00039   2
  -4  -3   0 37.0601 2.22931   6
  -4  -3   0 29.8048 2.25985   7
  -4  -3   0 33.8449 2.42435   3
  -4  -3   0 35.9190 1.78649   8
   4   3   0 35.5602 2.19529   1
   4   3   0 34.6924 1.75631   8
   4   3   0 34.6822 2.36410   9
   4   3   0 37.6184 2.05884   4
   4   3   0 34.3951 2.17377   6
  -5  -3   0 8.68802 1.14937   6
  -5  -3   0 7.65494 1.28328   3
  -5  -3   0 6.46414 1.01632   5
  -5  -3   0 6.97363 1.20757   7
  -5  -3   0 8.14325 0.98724   2
   5   3   0 8.36773 1.23993   9
   5   3   0 8.57173 1.14168   6
   5   3   0 8.58487 1.12614   1
   5   3   0 8.91652 1.02588   4
   5   3   0 9.43450 1.17383   5
  -6  -3   0 24.5885 1.83488   2
  -6  -3   0 21.9897 2.09459   7
  -6  -3   0 25.0550 1.99420   5
  -6  -3   0 24.2126 2.62157   3
   6   3   0 25.1939 2.01246   5
   6   3   0 24.6309 1.95971   1
   6   3   0 30.6471 2.34180   9
   6   3   0 24.2494 1.90581   6
  -7  -3   0 31.1249 2.68390   7
  -7  -3   0 31.0261 2.41499   5
  -7  -3   0 25.1273 2.92186   3
   7   3   0 30.6190 2.34808   6
   7   3   0 28.5763 2.36674   5
   7   3   0 31.7162 2.65273   9
   7   3   0 36.9617 2.51449   1
  -8  -3   0 5.90543 1.37249   7
  -8  -3   0 7.04894 1.52460   3
  -8  -3   0 6.23298 1.28622   5
   8   3   0 6.42944 1.33597   5
   8   3   0 5.81478 1.15523   6
  -9  -3   0 0.63533 0.95967   7
  -9  -3   0 1.00620 0.96514   3
  -9  -3   0 1.17167 0.65299   5
   9   3   0 1.32847 0.84499   5
   9   3   0 1.61127 1.13081   3
   9   3   0 0.84734 0.59213   6
   9  -4   0 7.92933 1.58899   2
   9  -4   0 9.58013 1.81574   3
   9  -4   0 5.53591 1.65435   7
  -9   4   0 4.28654 1.66779   7
  -9   4   0 7.12497 1.45759   8
  -9   4   0 9.68721 1.89670   2
   8  -4   0 24.7314 2.85144   7
   8  -4   0 22.0666 2.56327   3
   8  -4   0 17.2447 2.29609   2
  -8   4   0 19.6140 2.54941   2
  -8   4   0 17.0021 2.14838   8
  -8   4   0 20.4380 2.77783   7
   7  -4   0 7.67477 1.46995   7
   7  -4   0 8.50266 1.43524   3
  -7   4   0 8.83138 1.58074   2
  -7   4   0 7.65903 1.49165   4
  -7   4   0 7.27680 1.27030   8
  -7   4   0 7.59923 1.64998   7
   6  -4   0 32.9899 2.69800   7
   6  -4   0 39.7397 2.74668   3
   6  -4   0 40.0712 2.37834   5
  -6   4   0 30.2631 2.66798   4
  -6   4   0 34.9738 2.74408   2
  -6   4   0 34.9315 2.95656   7
  -6   4   0 35.6862 2.53065   8
   5  -4   0 -0.2550 0.30153   5
   5  -4   0 0.03873 0.31315   3
   5  -4   0 0.48203 0.39087   7
  -5   4   0 -0.3020 0.23840   9
  -5   4   0 0.24865 0.34526   1
  -5   4   0 -0.0896 0.44250   4
  -5   4   0 0.24922 0.40140   2
  -5   4   0 -0.0045 0.26944   8
  -5   4   0 -0.1829 0.30811   7
   4  -4   0 0.17154 0.44300   7
   4  -4   0 0.15277 0.50669   9
   4  -4   0 0.34506 0.28764   5
   4  -4   0 -0.3135 0.14891   3
  -4   4   0 -0.2944 0.38094   7
  -4   4   0 0.20861 0.42465   4
  -4   4   0 -0.0631 0.23912   8
  -4   4   0 0.23427 0.33797   2
  -4   4   0 0.04828 0.30646   1
  -4   4   0 -0.2716 0.27533   9
   3  -4   0 19.6880 1.51815   9
   3  -4   0 21.4695 1.57071   7
   3  -4   0 20.9720 1.47295   3
   3  -4   0 21.5518 1.20857   5
  -3   4   0 16.6491 1.45357   9
  -3   4   0 17.0253 1.46446   4
  -3   4   0 19.0944 1.55289   2
  -3   4   0 19.1535 1.42816   8
  -3   4   0 18.1252 1.36720   1
   2  -4   0 64.6877 3.04089   5
   2  -4   0 60.6052 3.32590   3
   2  -4   0 61.8240 3.33858   2
   2  -4   0 62.5698 3.41561   7
   2  -4   0 67.4289 3.45245   9
  -2   4   0 58.4875 3.40225   2
  -2   4   0 63.3525 3.45548   4
  -2   4   0 65.3395 3.31396   1
  -2   4   0 60.9864 3.28460   8
  -2   4   0 65.4780 3.45628   9
   1  -4   0 1.05733 0.22465   5
   1  -4   0 1.08171 0.31821   3
   1  -4   0 1.20948 0.40180   9
   1  -4   0 0.95083 0.31263   2
   1  -4   0 1.15422 0.34026   7
  -1   4   0 0.81345 0.33703   1
  -1   4   0 1.00396 0.35051   2
  -1   4   0 0.60873 0.41269   9
  -1   4   0 0.67346 0.26284   8
  -1   4   0 1.04119 0.18712   6
  -1   4   0 0.89350 0.35307   4
   0  -4   0 118.098 5.50927   2
   0  -4   0 118.751 5.68253   7
   0  -4   0 118.495 5.46933   5
   0  -4   0 119.923 5.70251   3
   0  -4   0 120.591 5.81134   9
   0   4   0 111.310 5.65706   1
   0   4   0 129.383 5.43927   6
   0   4   0 117.245 5.72356   4
   0   4   0 109.114 5.79119   9
   0   4   0 117.143 5.47394   8
  -1  -4   0 4.97587 0.60728   5
  -1  -4   0 6.51999 0.82219   3
  -1  -4   0 5.88756 0.73938   7
  -1  -4   0 5.66600 0.47395   2
  -1  -4   0 7.23217 0.77561   9
   1   4   0 6.02232 0.79259   4
   1   4   0 6.46662 0.80355   1
   1   4   0 6.23483 0.56836   6
   1   4   0 6.18402 0.88785   9
   1   4   0 6.17979 0.44653   8
  -2  -4   0 0.11603 0.16908   5
  -2  -4   0 0.15599 0.18645   6
  -2  -4   0 -0.0213 0.20306   3
  -2  -4   0 0.17529 0.12525   2
  -2  -4   0 0.02732 0.17397   7
   2   4   0 0.26469 0.30797   9
   2   4   0 0.17799 0.05951   8
   2   4   0 0.38020 0.33421   4
   2   4   0 -0.0542 0.33300   1
   2   4   0 0.28979 0.20405   6
  -3  -4   0 897.675 39.8035   6
  -3  -4   0 886.745 39.4472   2
  -3  -4   0 863.372 40.0400   3
  -3  -4   0 873.130 39.9423   7
  -3  -4   0 864.552 39.7806   5
   3   4   0 873.405 39.7625   6
   3   4   0 948.647 39.6922   4
   3   4   0 926.588 40.1578   9
   3   4   0 922.449 39.8981   1
  -4  -4   0 3.06482 0.65715   5
  -4  -4   0 3.75628 0.57195   2
  -4  -4   0 2.58168 0.71751   3
  -4  -4   0 2.27641 0.72941   7
  -4  -4   0 3.88542 0.74791   6
   4   4   0 3.47696 0.72844   6
   4   4   0 3.01690 0.76959   9
   4   4   0 4.41986 0.79297   1
   4   4   0 5.70169 0.77397   4
  -5  -4   0 5.58963 1.09037   7
  -5  -4   0 5.27607 1.19178   3
  -5  -4   0 5.56869 0.78815   2
  -5  -4   0 6.61405 1.03061   6
  -5  -4   0 5.46324 0.93529   5
   5   4   0 4.51748 1.04424   9
   5   4   0 7.34024 1.07490   6
   5   4   0 4.37242 0.91471   1
   5   4   0 5.83076 0.84482   4
  -6  -4   0 0.45855 0.50554   3
  -6  -4   0 0.20190 0.49905   5
  -6  -4   0 0.12104 0.52336   7
   6   4   0 0.81299 0.48308   1
   6   4   0 0.50090 0.53001   5
   6   4   0 0.75696 0.62838   9
   6   4   0 0.70722 0.52395   6
  -7  -4   0 8.73533 1.62708   3
  -7  -4   0 5.87614 1.18989   5
  -7  -4   0 5.14881 1.26201   7
   7   4   0 4.95089 1.12284   1
   7   4   0 4.48728 1.00082   6
   7   4   0 6.64047 1.46377   9
   7   4   0 6.30124 1.25847   5
  -8  -4   0 0.37412 0.66335   5
  -8  -4   0 -0.3479 0.52869   3
  -8  -4   0 -0.4982 0.68248   7
   8   4   0 0.86669 0.66874   5
   8   4   0 -0.3890 0.43836   1
   8   4   0 0.56984 0.60537   6
  -9  -4   0 7.07866 1.72453   7
  -9  -4   0 5.02157 1.22005   5
  -9  -4   0 5.28796 1.65335   3
   9   4   0 9.66882 1.57521   6
   9   4   0 9.20559 1.59762   5
   9  -5   0 7.41075 1.71986   2
   9  -5   0 5.90687 1.50739   7
   9  -5   0 4.82775 1.49855   3
  -9   5   0 7.10380 1.80416   2
  -9   5   0 3.64566 1.13709   8
   8  -5   0 -0.3027 0.44731   3
   8  -5   0 0.19724 0.66068   2
   8  -5   0 0.97998 0.85578   7
  -8   5   0 0.10708 0.67472   8
  -8   5   0 0.80465 0.76240   2
   7  -5   0 2.76056 0.90227   7
   7  -5   0 2.90850 0.94782   2
   7  -5   0 3.97882 1.01081   3
  -7   5   0 3.02406 1.06975   4
  -7   5   0 2.17531 1.03621   2
  -7   5   0 1.58231 0.72228   8
  -7   5   0 1.17552 0.81168   7
   6  -5   0 32.1058 2.64470   7
   6  -5   0 30.4749 2.45254   2
   6  -5   0 36.1074 2.62170   3
  -6   5   0 29.2678 2.56199   2
  -6   5   0 31.4841 2.39602   8
  -6   5   0 27.8904 2.54995   4
   5  -5   0 59.8732 3.59878   3
   5  -5   0 60.9615 3.76679   7
  -5   5   0 56.3335 3.74265   4
  -5   5   0 54.6598 3.46984   8
  -5   5   0 57.2828 3.76706   2
   4  -5   0 11.0097 1.33045   2
   4  -5   0 8.55406 1.15703   3
   4  -5   0 10.1631 0.85427   5
   4  -5   0 9.83701 1.33811   7
  -4   5   0 8.17989 1.22434   9
  -4   5   0 10.4617 1.46575   2
  -4   5   0 8.48786 1.30316   4
  -4   5   0 7.39501 1.09472   1
  -4   5   0 8.16998 1.17012   8
   3  -5   0 114.594 5.86674   3
   3  -5   0 120.242 5.44329   5
   3  -5   0 117.439 5.90421   2
   3  -5   0 116.195 6.00040   7
  -3   5   0 112.951 6.00968   2
  -3   5   0 114.679 5.82224   8
  -3   5   0 110.734 5.77255   1
  -3   5   0 115.917 6.03634   4
  -3   5   0 117.350 6.00713   9
   2  -5   0 353.737 15.5805   5
   2  -5   0 350.450 15.9764   2
   2  -5   0 353.083 16.1039   7
   2  -5   0 365.813 16.0365   3
  -2   5   0 356.222 15.9451   1
  -2   5   0 344.235 16.0943   2
  -2   5   0 346.996 16.1171   9
  -2   5   0 339.931 16.1310   4
  -2   5   0 332.541 15.8915   8
   1  -5   0 49.7119 2.54565   5
   1  -5   0 50.4470 2.76561   2
   1  -5   0 49.1246 2.84711   3
   1  -5   0 50.7040 2.90343   7
  -1   5   0 49.6206 2.94255   4
  -1   5   0 55.2237 2.91306   2
  -1   5   0 49.3977 2.85366   1
  -1   5   0 52.4408 2.45547   6
  -1   5   0 52.8750 2.75345   8
  -1   5   0 52.9466 3.05623   9
   0  -5   0 20.2641 1.52149   3
   0  -5   0 23.5667 1.36188   5
   0  -5   0 25.0316 1.59996   7
   0  -5   0 21.5903 1.37942   2
   0   5   0 25.1592 1.32237   6
   0   5   0 24.6320 1.63262   1
   0   5   0 22.4840 1.73385   9
   0   5   0 20.8273 1.34061   8
   0   5   0 22.2778 1.63952   4
  -1  -5   0 9.44158 1.09382   3
  -1  -5   0 8.72613 0.64705   2
  -1  -5   0 8.47133 0.99086   7
  -1  -5   0 8.19674 0.86796   5
   1   5   0 6.85814 0.66715   6
   1   5   0 9.04250 1.11806   1
   1   5   0 7.24015 1.09047   9
   1   5   0 8.70426 0.61630   8
   1   5   0 7.99630 0.98641   4
  -2  -5   0 0.07238 0.13313   2
  -2  -5   0 -0.0068 0.20695   3
  -2  -5   0 0.18377 0.26027   5
  -2  -5   0 -0.1011 0.16790   7
   2   5   0 -0.0513 0.24219   4
   2   5   0 -0.0657 0.08475   8
   2   5   0 0.12825 0.41282   9
   2   5   0 0.21759 0.23609   6
   2   5   0 0.19941 0.37858   1
  -3  -5   0 13.6941 1.15644   6
  -3  -5   0 13.5152 0.87345   2
  -3  -5   0 10.6943 1.30212   7
  -3  -5   0 12.9858 1.12850   5
  -3  -5   0 13.1734 1.52947   3
   3   5   0 11.7022 1.52718   9
   3   5   0 12.8840 1.15043   4
   3   5   0 11.3098 1.34064   1
   3   5   0 12.3609 1.09088   6
  -4  -5   0 4.99079 0.64037   2
  -4  -5   0 5.29646 1.08578   3
  -4  -5   0 5.65741 0.97972   7
  -4  -5   0 5.77501 0.93935   5
   4   5   0 5.50630 1.14566   9
   4   5   0 4.78469 0.82173   4
   4   5   0 5.10092 0.98144   1
   4   5   0 3.41007 0.76053   6
  -5  -5   0 9.74925 1.31372   5
  -5  -5   0 9.60880 1.49439   7
  -5  -5   0 10.4188 1.66278   3
   5   5   0 11.1061 1.60713   9
   5   5   0 12.6758 1.15941   4
   5   5   0 12.2208 1.45205   6
   5   5   0 10.8310 1.46030   1
  -6  -5   0 38.7275 2.73581   5
  -6  -5   0 33.6169 2.83855   7
  -6  -5   0 33.4463 2.92485   3
   6   5   0 41.7052 2.82767   1
   6   5   0 43.1482 3.13746   9
   6   5   0 35.2883 2.64967   5
   6   5   0 39.0493 2.68960   6
  -7  -5   0 0.64010 0.72044   7
  -7  -5   0 0.28019 0.45898   5
  -7  -5   0 0.27142 0.58439   3
   7   5   0 -0.3476 0.39997   5
   7   5   0 -0.2035 0.48082   6
   7   5   0 -0.5066 0.65931   1
   7   5   0 0.15295 0.82683   9
  -8  -5   0 2.29803 0.96808   7
  -8  -5   0 1.30035 0.65140   5
  -8  -5   0 1.05145 0.90704   3
   8   5   0 3.57126 0.96284   6
   8   5   0 3.08381 1.17724   1
   8   5   0 2.77338 0.91476   5
  -9  -5   0 17.1739 2.69351   3
  -9  -5   0 13.1864 1.98544   5
  -9  -5   0 14.6338 2.36153   7
   9   5   0 15.7489 2.16591   6
   9   5   0 15.5592 2.15692   5
   8  -6   0 0.64964 0.86273   7
   8  -6   0 -0.3935 0.72787   2
   8  -6   0 1.35683 0.81580   3
  -8   6   0 0.18967 0.90842   2
  -8   6   0 -0.0167 0.70341   8
   7  -6   0 32.7609 2.77673   3
   7  -6   0 31.3518 2.87187   7
   7  -6   0 33.3523 2.76767   2
  -7   6   0 30.6077 2.60358   8
  -7   6   0 32.6330 2.91215   2
  -7   6   0 31.7303 2.93716   4
   6  -6   0 8.80556 1.56873   7
   6  -6   0 9.35723 1.58635   2
   6  -6   0 10.6110 1.56447   3
  -6   6   0 13.6958 2.01930   2
  -6   6   0 11.0514 1.59115   8
  -6   6   0 11.3674 1.79957   4
   5  -6   0 3.12766 0.94763   7
   5  -6   0 3.22772 0.85297   3
   5  -6   0 3.84627 0.95329   2
  -5   6   0 2.63120 0.91806   2
  -5   6   0 3.04577 0.86267   8
  -5   6   0 5.06875 1.14730   4
   4  -6   0 45.1944 2.86646   2
   4  -6   0 43.2521 2.94486   7
   4  -6   0 43.8485 2.80798   3
  -4   6   0 49.4707 3.10754   2
  -4   6   0 41.7787 2.98553   4
  -4   6   0 38.0151 2.63256   1
  -4   6   0 40.0456 2.71541   8
  -4   6   0 39.2173 2.84113   9
   3  -6   0 221.383 10.3730   7
   3  -6   0 214.529 9.61755   5
   3  -6   0 217.229 10.2045   2
   3  -6   0 219.513 10.2143   3
  -3   6   0 212.148 10.3816   4
  -3   6   0 216.043 10.3729   2
  -3   6   0 193.832 10.0398   8
  -3   6   0 206.678 10.0685   1
  -3   6   0 198.875 10.2519   9
   2  -6   0 17.4314 1.38128   2
   2  -6   0 15.8318 1.41395   7
   2  -6   0 13.7012 1.32716   3
   2  -6   0 17.8309 1.07177   5
  -2   6   0 15.5703 1.45509   9
  -2   6   0 17.8464 1.49297   2
  -2   6   0 16.1766 1.48411   4
  -2   6   0 13.9686 1.32618   1
  -2   6   0 15.2045 1.29101   8
   1  -6   0 4.23595 0.75468   3
   1  -6   0 4.51206 0.71049   2
   1  -6   0 4.74712 0.57126   5
   1  -6   0 4.24012 0.76169   7
  -1   6   0 5.05522 0.92722   4
  -1   6   0 4.18713 0.47995   6
  -1   6   0 4.92718 0.89500   1
  -1   6   0 5.34433 0.73959   8
  -1   6   0 2.62415 0.84461   9
  -1   6   0 5.53401 0.86373   2
   0  -6   0 1.31027 0.44832   7
   0  -6   0 2.58334 0.63593   3
   0  -6   0 2.19263 0.44939   2
   0  -6   0 3.70459 0.54955   5
   0   6   0 3.35589 0.48176   6
   0   6   0 2.19609 0.70813   4
   0   6   0 3.46062 0.83601   1
   0   6   0 2.83765 0.49836   8
   0   6   0 2.23141 0.76160   9
  -1  -6   0 63.8971 3.72712   3
  -1  -6   0 63.8740 3.42954   5
  -1  -6   0 67.0586 3.67184   7
  -1  -6   0 66.4262 3.30692   2
   1   6   0 64.5963 3.66620   4
   1   6   0 67.9066 3.97149   9
   1   6   0 64.6403 3.24305   8
   1   6   0 65.0959 3.71786   1
   1   6   0 71.3092 3.42137   6
  -2  -6   0 46.6672 2.96584   3
  -2  -6   0 48.0483 2.38936   2
  -2  -6   0 45.7471 2.83402   7
  -2  -6   0 45.7231 2.67947   5
   2   6   0 48.4796 2.67222   6
   2   6   0 47.2130 2.25730   8
   2   6   0 46.9895 2.83595   4
   2   6   0 43.2914 2.85985   1
   2   6   0 46.9678 3.13203   9
  -3  -6   0 68.8946 3.83583   5
  -3  -6   0 68.7669 4.14562   3
  -3  -6   0 68.4902 3.40639   2
  -3  -6   0 69.1717 3.99196   7
   3   6   0 71.1633 4.29889   9
   3   6   0 72.5651 4.05907   1
   3   6   0 72.5263 3.87658   4
   3   6   0 68.1869 3.78763   6
  -4  -6   0 1.26772 0.58507   7
  -4  -6   0 0.36850 0.46011   5
  -4  -6   0 0.35401 0.46075   3
   4   6   0 1.42598 0.66383   4
   4   6   0 1.03891 0.62093   1
   4   6   0 0.69173 0.76600   9
   4   6   0 0.78068 0.41035   6
  -5  -6   0 0.61313 0.54335   3
  -5  -6   0 0.75955 0.46462   5
  -5  -6   0 0.34908 0.53989   7
   5   6   0 0.65287 0.63033   9
   5   6   0 1.01105 0.55662   6
   5   6   0 0.59198 0.54766   1
   5   6   0 0.85329 0.70892   4
  -6  -6   0 1.09893 0.88469   3
  -6  -6   0 1.12097 0.69592   7
  -6  -6   0 1.77147 0.64571   5
   6   6   0 0.54830 0.68406   9
   6   6   0 0.86498 0.52732   5
   6   6   0 1.72520 0.65923   6
   6   6   0 0.52609 0.60508   1
  -7  -6   0 38.1822 3.25249   7
  -7  -6   0 33.6531 2.84621   5
  -7  -6   0 44.7707 3.61283   3
   7   6   0 42.4877 2.98430   6
   7   6   0 38.1930 2.96273   5
   7   6   0 39.7941 3.15180   1
  -8  -6   0 30.1998 2.71486   5
  -8  -6   0 36.1725 3.21779   7
  -8  -6   0 27.2112 3.43327   3
   8   6   0 34.0797 2.85593   5
   8   6   0 35.9942 2.87683   6
   8   6   0 29.2692 2.92266   1
   8  -7   0 1.44713 0.85613   7
   8  -7   0 2.20275 0.97254   3
   8  -7   0 1.24435 0.80398   2
  -8   7   0 0.32011 0.74819   2
  -8   7   0 0.01446 0.55643   8
   7  -7   0 6.45912 1.41548   3
   7  -7   0 7.06645 1.56233   2
   7  -7   0 6.01938 1.44042   7
  -7   7   0 4.81757 1.28665   4
  -7   7   0 4.92932 1.18026   8
  -7   7   0 6.36896 1.58528   2
   6  -7   0 -0.2884 0.56143   3
   6  -7   0 0.12857 0.57320   2
   6  -7   0 -0.0319 0.65926   7
  -6   7   0 0.14045 0.63525   8
  -6   7   0 1.36204 0.74174   4
  -6   7   0 0.23774 0.55054   2
   5  -7   0 3.75303 0.93999   3
   5  -7   0 2.47595 0.84049   7
   5  -7   0 2.31455 0.86042   2
  -5   7   0 2.13768 0.73956   8
  -5   7   0 5.75247 1.30254   2
  -5   7   0 2.27009 0.99475   4
   4  -7   0 0.12191 0.34142   2
   4  -7   0 0.14322 0.55383   7
   4  -7   0 -0.5751 0.41656   3
  -4   7   0 -0.2675 0.36219   2
  -4   7   0 0.23834 0.42436   4
  -4   7   0 -0.2166 0.43933   8
  -4   7   0 0.87183 0.41899   9
  -4   7   0 0.77270 0.41395   1
   3  -7   0 6.60548 1.16604   7
   3  -7   0 5.11046 1.02778   3
   3  -7   0 9.26246 1.28107   2
  -3   7   0 7.47964 1.12002   1
  -3   7   0 7.64848 1.36904   4
  -3   7   0 6.38221 1.20968   2
  -3   7   0 7.67511 1.15227   8
  -3   7   0 7.77125 1.24351   9
   2  -7   0 9.47694 1.31205   3
   2  -7   0 9.00394 1.29568   7
   2  -7   0 10.9352 1.30676   2
   2  -7   0 9.61766 0.80638   5
  -2   7   0 9.14944 1.28956   2
  -2   7   0 10.1776 1.34489   1
  -2   7   0 9.73450 1.46052   9
  -2   7   0 11.8998 1.53352   4
  -2   7   0 9.91007 1.21271   8
   1  -7   0 110.440 6.12841   7
   1  -7   0 117.750 5.94204   2
   1  -7   0 124.639 5.67783   5
   1  -7   0 116.235 6.15509   3
  -1   7   0 117.768 6.36758   9
  -1   7   0 113.699 5.52183   6
  -1   7   0 121.165 5.91507   8
  -1   7   0 129.962 6.37125   4
  -1   7   0 120.311 6.14126   1
   0  -7   0 373.603 17.6538   7
   0  -7   0 378.678 17.7156   3
   0  -7   0 376.506 17.3176   2
   0  -7   0 375.021 17.2314   5
   0   7   0 403.520 17.7567   1
   0   7   0 380.292 17.7472   4
   0   7   0 386.488 17.2820   8
   0   7   0 378.335 17.1372   6
   0   7   0 385.508 18.0024   9
  -1  -7   0 64.5034 3.09408   2
  -1  -7   0 54.2060 3.47679   3
  -1  -7   0 55.5415 3.40822   7
  -1  -7   0 57.7675 3.17534   5
   1   7   0 58.1828 3.51834   4
   1   7   0 58.9042 3.00379   8
   1   7   0 56.3424 3.82915   9
   1   7   0 62.9286 3.14790   6
   1   7   0 55.2733 3.50136   1
  -2  -7   0 7.69202 1.00053   5
  -2  -7   0 7.03134 1.18144   3
  -2  -7   0 6.89791 1.07183   7
  -2  -7   0 6.86255 0.62772   2
   2   7   0 6.44902 1.08385   4
   2   7   0 6.77538 0.89946   6
   2   7   0 6.98874 1.37797   9
   2   7   0 5.52601 1.09640   1
  -3  -7   0 40.0982 2.59183   5
  -3  -7   0 44.7360 3.03887   3
  -3  -7   0 37.6462 2.74255   7
   3   7   0 40.7051 3.11981   9
   3   7   0 41.6006 2.87230   1
   3   7   0 41.0644 2.59387   6
   3   7   0 44.4598 2.78718   4
  -4  -7   0 10.1095 1.58466   3
  -4  -7   0 10.5599 1.52420   7
  -4  -7   0 12.8865 1.53101   5
   4   7   0 9.57098 1.50541   1
   4   7   0 12.3633 1.46856   6
   4   7   0 13.2130 1.99276   9
   4   7   0 13.0859 1.52583   4
  -5  -7   0 7.77973 1.41503   7
  -5  -7   0 8.78104 1.34052   5
  -5  -7   0 7.99365 1.49063   3
   5   7   0 5.24032 1.36224   9
   5   7   0 8.04967 1.29740   6
   5   7   0 8.42297 1.48214   1
  -6  -7   0 4.94226 1.09583   5
  -6  -7   0 4.69836 1.29704   3
  -6  -7   0 5.41063 1.31488   7
   6   7   0 5.66574 1.31624   1
   6   7   0 5.38276 1.08524   5
   6   7   0 7.60311 1.28173   6
  -7  -7   0 8.12361 1.72643   7
  -7  -7   0 6.32319 1.67131   3
  -7  -7   0 7.11852 1.37656   5
   7   7   0 10.6783 1.66906   6
   7   7   0 10.1555 1.57530   5
   7   7   0 10.4961 1.95316   1
  -8  -7   0 1.20908 1.09738   7
  -8  -7   0 4.57146 1.14530   5
  -8  -7   0 2.01506 1.26605   3
   8   7   0 2.56326 1.17603   1
   8   7   0 2.20070 0.85298   6
   8   7   0 3.95496 1.14464   5
   8  -8   0 10.4811 1.99164   3
   7  -8   0 -0.0783 0.77275   7
   7  -8   0 1.23122 0.93958   3
   7  -8   0 0.17154 0.61182   2
  -7   8   0 1.81754 0.88791   4
  -7   8   0 2.28494 1.06751   8
  -7   8   0 0.16764 0.75456   2
   6  -8   0 3.92588 1.17351   3
   6  -8   0 4.64490 1.19560   2
   6  -8   0 2.89316 0.98359   7
  -6   8   0 4.47213 1.07459   8
  -6   8   0 2.15900 0.96913   2
  -6   8   0 5.31277 1.32966   4
   5  -8   0 21.0583 2.33861   2
   5  -8   0 17.8803 2.09999   3
   5  -8   0 18.8308 2.42308   7
  -5   8   0 17.1248 2.32295   4
  -5   8   0 16.7347 2.10028   8
  -5   8   0 18.9087 2.43854   2
   4  -8   0 7.27346 1.26961   2
   4  -8   0 8.84253 1.45007   3
   4  -8   0 8.65351 1.49570   7
  -4   8   0 7.51770 1.23189   8
  -4   8   0 10.0929 1.62747   2
  -4   8   0 7.72568 1.44611   4
   3  -8   0 244.208 11.5536   3
   3  -8   0 227.677 11.3960   2
   3  -8   0 230.172 11.6241   7
  -3   8   0 231.424 11.6298   9
  -3   8   0 225.342 11.2932   8
  -3   8   0 229.549 11.3421   1
  -3   8   0 239.018 11.7799   4
  -3   8   0 246.875 11.7145   2
   2  -8   0 92.8585 5.04242   2
   2  -8   0 95.2986 5.32368   7
   2  -8   0 92.2889 5.19459   3
  -2   8   0 96.3452 5.18314   1
  -2   8   0 92.3488 5.21063   2
  -2   8   0 95.5988 5.43733   4
  -2   8   0 90.6062 4.97775   8
  -2   8   0 90.3199 5.37864   9
   1  -8   0 111.907 6.08841   7
   1  -8   0 112.312 6.10764   5
   1  -8   0 109.519 6.03661   3
   1  -8   0 113.610 5.79558   2
  -1   8   0 112.391 6.34593   9
  -1   8   0 112.263 6.02389   1
  -1   8   0 112.967 5.73944   8
  -1   8   0 119.094 6.24458   4
   0  -8   0 100.657 5.10743   2
   0  -8   0 92.8067 5.40548   7
   0  -8   0 96.9544 4.99059   5
   0  -8   0 105.486 5.59463   3
   0   8   0 99.8892 4.92166   6
   0   8   0 104.835 5.61799   1
   0   8   0 96.8677 5.83813   9
   0   8   0 99.1265 5.05195   8
   0   8   0 111.149 5.67363   4
  -1  -8   0 0.45698 0.33724   5
  -1  -8   0 0.11500 0.47330   7
  -1  -8   0 -0.3303 0.21777   2
  -1  -8   0 0.14152 0.46491   3
   1   8   0 1.73135 0.99366   1
   1   8   0 0.11481 0.23968   8
   1   8   0 -0.8429 0.54928   4
   1   8   0 0.35839 0.76574   9
   1   8   0 -0.1269 0.25923   6
  -2  -8   0 4.47699 0.99781   7
  -2  -8   0 3.07411 0.71921   5
  -2  -8   0 4.45198 0.97462   3
   2   8   0 5.78728 1.20645   1
   2   8   0 4.07670 0.74519   6
   2   8   0 5.01434 1.46831   9
   2   8   0 4.39056 0.99755   4
  -3  -8   0 6.75086 1.17417   7
  -3  -8   0 5.21708 0.96522   5
  -3  -8   0 4.77499 1.09734   3
   3   8   0 4.24999 0.97296   4
   3   8   0 6.16756 0.98116   6
   3   8   0 6.03700 1.26992   1
   3   8   0 5.46359 1.34502   9
  -4  -8   0 0.61761 0.51661   7
  -4  -8   0 1.44695 0.62665   5
  -4  -8   0 1.88019 0.79444   3
   4   8   0 -0.1643 0.65440   4
   4   8   0 1.60113 0.69246   6
   4   8   0 3.28169 1.03454   1
   4   8   0 1.12250 1.16841   9
  -5  -8   0 -0.0317 0.53954   7
  -5  -8   0 0.14958 0.37475   5
  -5  -8   0 0.39522 0.58830   3
   5   8   0 -0.2869 0.58527   1
   5   8   0 0.71122 0.57660   6
  -6  -8   0 3.68056 1.25133   3
  -6  -8   0 2.99214 1.01372   7
  -6  -8   0 2.51937 0.84726   5
   6   8   0 2.80488 1.11342   1
   6   8   0 5.36679 1.10414   5
   6   8   0 3.75469 1.00407   6
  -7  -8   0 1.26734 1.07924   3
  -7  -8   0 -0.2346 0.44787   5
  -7  -8   0 -0.0217 0.51903   7
   7   8   0 -0.3239 0.48827   6
   7   8   0 -0.5475 0.40075   5
   7   8   0 -1.4194 0.58030   1
  -8  -8   0 2.36590 1.54067   3
  -8  -8   0 0.39948 0.66058   5
   8   8   0 -0.1067 1.34411   1
   8   8   0 0.84270 0.90843   6
   8   8   0 0.47362 0.80281   5
   7  -9   0 0.06178 0.79580   2
   7  -9   0 0.50511 0.98435   7
   7  -9   0 -0.2531 0.86431   3
  -7   9   0 -0.4387 0.98024   2
  -7   9   0 1.13855 0.94736   4
  -7   9   0 0.03283 0.59672   8
   6  -9   0 3.02924 1.01566   2
   6  -9   0 2.11148 0.98184   7
   6  -9   0 4.31231 1.21604   3
  -6   9   0 2.49925 1.05843   8
  -6   9   0 2.46457 1.12115   4
  -6   9   0 3.24831 1.17172   2
   5  -9   0 5.86201 1.27757   3
   5  -9   0 4.38827 1.32774   7
   5  -9   0 3.36739 0.97854   2
  -5   9   0 8.10218 1.64471   2
  -5   9   0 7.91386 1.41054   8
  -5   9   0 6.43095 1.52353   4
   4  -9   0 0.82564 0.80111   7
   4  -9   0 0.65625 0.52884   2
   4  -9   0 0.06462 0.45816   3
  -4   9   0 1.04640 0.69089   2
  -4   9   0 0.64586 0.56055   8
  -4   9   0 2.27856 0.88422   4
   3  -9   0 101.719 5.68243   2
   3  -9   0 103.067 5.93897   7
   3  -9   0 104.342 5.82981   3
  -3   9   0 102.902 5.93185   9
  -3   9   0 101.189 5.89440   2
  -3   9   0 98.9823 5.60564   1
  -3   9   0 94.6658 5.53171   8
  -3   9   0 102.039 6.01990   4
   2  -9   0 5.04221 1.08590   3
   2  -9   0 5.02160 1.16510   7
   2  -9   0 4.89977 1.01582   2
  -2   9   0 5.02640 1.07455   1
  -2   9   0 4.18134 1.08139   4
  -2   9   0 5.22750 1.24354   9
  -2   9   0 4.16085 0.93087   8
   1  -9   0 43.8477 3.03872   3
   1  -9   0 40.2402 2.71765   2
   1  -9   0 40.5907 2.98078   7
  -1   9   0 43.5224 3.18670   4
  -1   9   0 43.3567 2.71277   8
  -1   9   0 46.0694 3.15349   1
  -1   9   0 41.5246 3.33034   9
   0  -9   0 8.60845 1.40939   3
   0  -9   0 7.50632 1.05801   2
   0  -9   0 8.10751 1.36394   7
   0   9   0 10.6178 1.17468   8
   0   9   0 8.99467 1.51196   1
   0   9   0 7.60505 1.73220   9
   0   9   0 10.7372 1.58977   4
  -1  -9   0 93.9100 5.26472   3
  -1  -9   0 86.8583 5.06372   7
  -1  -9   0 90.3592 4.65263   5
   1   9   0 87.0079 4.55761   6
   1   9   0 86.8014 5.17242   1
   1   9   0 83.9608 5.54125   9
  -2  -9   0 25.0240 2.19187   3
  -2  -9   0 16.4934 2.04406   7
  -2  -9   0 23.7316 1.78333   5
   2   9   0 19.8086 2.70785   9
   2   9   0 23.2416 1.73874   6
   2   9   0 23.0751 2.60343   1
   2   9   0 20.1800 1.95253   4
  -3  -9   0 24.7100 1.98128   5
  -3  -9   0 28.1027 2.36442   7
  -3  -9   0 31.4857 2.58345   3
   3   9   0 24.3936 3.09876   9
   3   9   0 26.4329 2.03352   6
   3   9   0 27.5709 2.33924   4
   3   9   0 24.0682 2.37792   1
  -4  -9   0 13.4991 1.63746   5
  -4  -9   0 11.9293 1.79109   7
  -4  -9   0 8.82994 1.65501   3
   4   9   0 12.0461 1.53215   6
   4   9   0 11.9765 1.63344   4
   4   9   0 7.19457 1.69313   1
  -5  -9   0 4.60022 1.40831   3
  -5  -9   0 4.26912 1.18394   7
  -5  -9   0 3.93868 0.93486   5
   5   9   0 5.37232 1.45805   1
   5   9   0 6.13672 1.16118   6
  -6  -9   0 14.4605 2.17124   7
  -6  -9   0 11.1899 2.19951   3
  -6  -9   0 14.6915 1.96668   5
   6   9   0 16.5552 2.50723   1
   6   9   0 16.7358 2.15345   6
   6   9   0 15.4724 1.97899   5
  -7  -9   0 2.26116 0.88715   5
  -7  -9   0 2.12052 0.96791   7
  -7  -9   0 -0.0889 1.00668   3
   7   9   0 1.66660 0.86255   6
   7   9   0 1.91833 0.84452   5
   7   9   0 0.49210 1.37580   1
   6 -10   0 3.95295 1.44487   7
   6 -10   0 6.30089 1.61855   2
   6 -10   0 5.99919 1.36621   3
  -6  10   0 6.94050 1.54442   8
  -6  10   0 4.41061 1.39789   4
  -6  10   0 7.52684 1.80952   2
   5 -10   0 0.23304 0.76258   3
   5 -10   0 -0.5526 0.41959   2
   5 -10   0 -0.0735 0.59199   7
  -5  10   0 -0.0466 0.48223   8
  -5  10   0 -0.0018 0.66896   4
  -5  10   0 0.26550 0.56073   2
   4 -10   0 0.73444 0.81119   7
   4 -10   0 -0.5871 0.61647   3
   4 -10   0 -0.3836 0.35535   2
  -4  10   0 -0.0795 0.46256   2
  -4  10   0 0.23980 0.47953   8
  -4  10   0 0.63069 0.65014   4
   3 -10   0 30.3235 2.42524   2
   3 -10   0 29.5246 2.47515   3
   3 -10   0 25.7763 2.89501   7
  -3  10   0 23.6987 2.16572   1
  -3  10   0 24.5332 2.48283   4
  -3  10   0 25.7008 2.24346   8
   2 -10   0 19.6201 2.46923   7
   2 -10   0 26.1027 2.26895   3
   2 -10   0 23.7937 2.04846   2
  -2  10   0 22.5132 2.36725   9
  -2  10   0 23.0230 2.19996   1
  -2  10   0 20.5872 2.12893   8
  -2  10   0 26.2153 2.40406   4
   1 -10   0 109.030 6.06926   7
   1 -10   0 100.554 5.96428   3
   1 -10   0 109.630 5.62533   2
  -1  10   0 100.436 6.08270   4
  -1  10   0 99.4559 5.47751   8
  -1  10   0 103.478 5.98255   1
  -1  10   0 100.462 6.28108   9
   0 -10   0 17.7198 2.16865   7
   0 -10   0 19.5747 2.29269   3
   0  10   0 16.5764 2.12478   4
   0  10   0 16.7647 2.41552   9
   0  10   0 16.3835 2.16399   1
  -1 -10   0 25.5588 2.36570   3
  -1 -10   0 27.0056 2.38262   7
   1  10   0 28.7475 2.50955   4
   1  10   0 23.2557 2.66796   9
   1  10   0 26.9014 2.68534   1
  -2 -10   0 27.0955 2.93782   3
  -2 -10   0 23.2289 2.25225   7
  -2 -10   0 31.1182 2.14705   5
   2  10   0 30.9335 2.69765   1
   2  10   0 25.4066 1.99608   6
   2  10   0 27.4064 2.48011   4
  -3 -10   0 0.90986 0.54709   5
  -3 -10   0 -0.6174 0.59028   7
  -3 -10   0 -0.4791 0.42035   3
   3  10   0 -1.0071 0.64629   4
   3  10   0 0.75201 1.27086   1
   3  10   0 0.37153 0.54757   6
  -4 -10   0 3.66089 1.31485   3
  -4 -10   0 5.18684 1.08174   5
  -4 -10   0 3.84587 1.14359   7
   4  10   0 6.19544 1.53772   1
   4  10   0 3.00789 0.95741   6
  -5 -10   0 6.76767 1.64265   3
  -5 -10   0 7.72631 1.63927   7
  -5 -10   0 7.54843 1.40077   5
   5  10   0 7.32065 1.95505   1
   5  10   0 8.24490 1.50823   6
  -6 -10   0 7.24432 1.46036   5
  -6 -10   0 3.09916 1.31568   7
  -6 -10   0 3.57121 1.30526   3
   6  10   0 4.35738 1.57469   1
   6  10   0 3.52529 1.09190   5
   6  10   0 5.92783 1.39091   6
   5 -11   0 -0.1044 0.52815   2
   5 -11   0 0.55701 0.84001   7
   5 -11   0 0.80777 0.81033   3
  -5  11   0 -0.2313 0.53636   8
  -5  11   0 -0.0343 0.68248   2
  -5  11   0 0.52569 0.71700   4
   4 -11   0 6.72398 1.65955   7
   4 -11   0 7.63371 1.42598   2
   4 -11   0 8.17877 1.57575   3
  -4  11   0 4.84013 1.36714   4
  -4  11   0 6.19585 1.31999   8
   3 -11   0 23.6379 2.55067   2
   3 -11   0 21.8561 2.64064   3
   3 -11   0 21.8883 2.76964   7
  -3  11   0 23.2919 2.46682   8
  -3  11   0 23.1757 2.90682   4
   2 -11   0 2.47725 0.93315   7
   2 -11   0 1.50252 0.77088   2
   2 -11   0 2.04710 0.81279   3
  -2  11   0 1.59049 0.76234   8
  -2  11   0 3.16813 0.97172   1
  -2  11   0 2.57392 1.09078   4
   1 -11   0 22.0365 2.63440   7
   1 -11   0 24.9152 2.75579   3
  -1  11   0 26.8370 2.59354   1
  -1  11   0 25.7841 2.54330   4
   0 -11   0 1.07799 0.83446   3
   0 -11   0 0.78066 0.79605   7
   0  11   0 1.01397 0.80023   4
   0  11   0 -0.1265 1.13992   1
  -1 -11   0 0.41506 0.76691   3
  -1 -11   0 -0.4655 0.57087   7
   1  11   0 -0.7367 1.15214   1
   1  11   0 -0.1318 0.76275   4
  -2 -11   0 4.63262 1.24203   7
  -2 -11   0 5.52506 1.34936   3
   2  11   0 5.29574 1.77251   1
   2  11   0 7.62348 1.52030   4
  -3 -11   0 23.0694 2.06082   5
  -3 -11   0 24.0762 2.73900   7
  -3 -11   0 28.4389 3.21496   3
   3  11   0 23.1479 2.93412   1
   3  11   0 26.3568 2.40501   4
   3  11   0 23.2510 1.99551   6
  -4 -11   0 14.9926 2.40427   3
  -4 -11   0 13.2284 2.14960   7
  -4 -11   0 14.6280 1.84191   5
   4  11   0 11.1796 2.21208   1
   4  11   0 14.0950 1.88003   6
  -5 -11   0 0.35261 0.70029   7
  -5 -11   0 1.90640 0.87321   5
  -5 -11   0 1.35606 0.96763   3
   5  11   0 4.04749 1.07779   6
   5  11   0 -0.0782 1.11320   1
  -6 -11   0 1.17696 0.80404   5
  -6 -11   0 -0.1119 0.90148   7
   6  11   0 1.16245 0.81645   6
   6  11   0 2.95866 0.93243   5
   4 -12   0 -0.9756 0.88983   7
   4 -12   0 1.57725 0.86774   2
   4 -12   0 -0.2812 0.89860   3
  -4  12   0 2.08876 1.16319   4
  -4  12   0 0.68665 0.92355   8
   3 -12   0 13.6557 2.30699   7
   3 -12   0 11.6539 2.01589   3
  -3  12   0 11.3347 1.75347   8
  -3  12   0 15.1419 2.42094   4
   2 -12   0 12.2500 1.98840   3
   2 -12   0 8.54421 1.77937   7
  -2  12   0 10.0341 2.04217   4
  -2  12   0 13.2236 1.98171   1
   1 -12   0 15.9473 2.31956   3
   1 -12   0 20.5988 2.61797   7
  -1  12   0 14.1142 2.29111   1
  -1  12   0 18.1203 2.51191   4
   0 -12   0 35.9195 3.01149   7
   0 -12   0 29.0493 3.25167   3
   0  12   0 32.2826 3.01155   4
   0  12   0 31.5184 3.19374   1
  -1 -12   0 0.19487 0.69790   7
  -1 -12   0 -0.2559 0.73351   3
   1  12   0 -2.1672 0.68809   1
   1  12   0 0.49497 0.61549   4
  -2 -12   0 29.1444 3.20516   7
  -2 -12   0 28.2024 3.33038   3
   2  12   0 29.2461 3.42722   1
   2  12   0 35.9819 3.05356   4
  -3 -12   0 3.63900 1.14139   7
  -3 -12   0 2.56405 1.08600   3
   3  12   0 4.44507 1.38074   4
   3  12   0 2.64142 1.82757   1
  -4 -12   0 31.1116 3.34825   7
  -4 -12   0 26.3484 3.37429   3
   4  12   0 29.8594 2.49366   6
   4  12   0 25.9163 3.52398   1
   3 -13   0 2.54724 1.32407   3
   2 -13   0 6.16341 1.62565   3
   2 -13   0 4.57804 1.54871   7
  -2  13   0 5.91969 1.55070   4
   1 -13   0 1.32917 0.88586   3
   1 -13   0 1.80742 0.98620   7
  -1  13   0 -0.0176 1.15814   1
  -1  13   0 2.18762 1.21380   4
   0 -13   0 11.9328 2.14004   3
   0 -13   0 15.2237 2.33960   7
   0  13   0 13.0738 2.12420   4
   0  13   0 11.7131 2.14296   1
  -1 -13   0 22.9618 2.95145   7
   1  13   0 19.7895 3.01895   1
  -2 -13   0 0.22972 1.05921   3
  -2 -13   0 1.31911 0.90937   7
   2  13   0 -2.4328 1.49854   1
   2  13   0 2.46976 1.09999   4
  -3 -13   0 5.66915 1.54660   7
  -3 -13   0 2.67077 1.41959   3
   2  13  -1 1.55235 1.53558   1
   2  13  -1 2.20385 1.35498   4
  -2 -13   1 2.53499 1.20850   3
  -2 -13   1 2.30241 1.16108   7
   1  13  -1 23.4335 3.03683   4
   1  13  -1 21.3747 3.02830   1
  -1 -13   1 21.4310 3.06310   3
  -1 -13   1 27.7151 3.07843   7
   0  13  -1 49.1640 4.02130   4
   0  13  -1 49.4585 4.07549   1
   0 -13   1 50.5756 4.01923   7
   0 -13   1 49.5557 4.15689   3
  -1  13  -1 3.47307 1.38241   4
  -1  13  -1 -0.6273 1.18639   1
   1 -13   1 0.85877 1.01977   7
   1 -13   1 1.36391 1.14357   3
  -2  13  -1 3.74678 1.37958   4
   2 -13   1 0.44963 0.97812   7
   2 -13   1 1.60770 1.26897   3
   3 -13   1 0.14445 0.80739   3
   4  12  -1 2.69716 0.91283   6
   4  12  -1 1.61744 1.43931   1
  -4 -12   1 3.55681 1.14964   5
  -4 -12   1 0.96418 1.28725   3
   3  12  -1 2.35303 1.33467   4
   3  12  -1 2.48750 1.49140   1
  -3 -12   1 2.08664 1.26270   3
  -3 -12   1 0.47053 0.69188   7
   2  12  -1 6.57482 1.64031   4
   2  12  -1 5.37795 2.08205   1
  -2 -12   1 12.3885 2.23077   3
  -2 -12   1 10.0732 1.76910   7
   1  12  -1 9.17926 1.73473   4
   1  12  -1 6.46117 1.76661   1
  -1 -12   1 8.96338 1.94199   3
  -1 -12   1 7.12716 1.47935   7
   0  12  -1 9.68623 2.13088   1
   0  12  -1 11.6260 2.06927   4
   0 -12   1 8.36372 1.63632   7
   0 -12   1 7.17215 1.62221   3
  -1  12  -1 3.98369 1.55186   1
  -1  12  -1 5.05319 1.37000   4
   1 -12   1 4.20735 1.33692   3
   1 -12   1 6.20360 1.38308   7
  -2  12  -1 16.0511 2.43253   4
   2 -12   1 16.6989 2.40900   3
   2 -12   1 16.4701 2.35408   7
  -3  12  -1 6.04438 1.58418   4
  -3  12  -1 4.53806 1.19509   8
   3 -12   1 4.36836 1.23340   3
   3 -12   1 4.96453 1.47301   7
  -4  12  -1 4.78551 1.39164   4
  -4  12  -1 2.96695 1.15231   8
   4 -12   1 4.70159 1.41190   3
   4 -12   1 2.53613 1.33428   7
   5  11  -1 -0.0312 0.52487   6
   5  11  -1 -1.2220 1.37652   1
  -5 -11   1 0.38114 1.02719   3
  -5 -11   1 0.89419 0.86457   5
   4  11  -1 5.29593 1.65450   1
   4  11  -1 6.70076 1.26683   6
  -4 -11   1 9.31259 1.53645   5
  -4 -11   1 5.09932 1.66749   3
  -4 -11   1 7.33352 1.50669   7
   3  11  -1 3.73167 1.36960   4
   3  11  -1 3.04515 0.86947   6
   3  11  -1 2.02852 1.25740   1
  -3 -11   1 1.49713 0.86495   7
  -3 -11   1 4.17869 1.30710   3
  -3 -11   1 3.27924 0.96182   5
   2  11  -1 34.1611 2.95992   4
   2  11  -1 31.2817 3.54223   1
  -2 -11   1 39.0612 3.32587   3
  -2 -11   1 39.8551 3.00156   5
  -2 -11   1 31.4129 2.85182   7
   1  11  -1 13.8017 2.12872   4
   1  11  -1 9.78389 2.08827   1
  -1 -11   1 9.23757 1.84371   3
  -1 -11   1 13.0679 1.86898   7
   0  11  -1 73.6758 4.96831   1
   0  11  -1 75.5385 5.03365   4
   0 -11   1 76.8188 5.07677   3
   0 -11   1 86.4309 5.06210   7
  -1  11  -1 -1.9468 0.78661   1
  -1  11  -1 -0.4216 0.48085   4
   1 -11   1 0.48127 0.73820   3
   1 -11   1 0.29146 0.69360   7
  -2  11  -1 95.4438 5.38587   8
  -2  11  -1 95.4852 5.70248   1
  -2  11  -1 98.8082 6.05261   4
   2 -11   1 97.2875 5.87914   7
   2 -11   1 86.4138 5.76429   3
  -3  11  -1 0.24172 0.73731   4
  -3  11  -1 0.06014 0.59311   8
   3 -11   1 0.22147 0.55933   3
   3 -11   1 0.42283 0.87080   7
   3 -11   1 -0.1801 0.49311   2
  -4  11  -1 0.57530 0.72651   4
  -4  11  -1 0.06484 0.53750   8
  -4  11  -1 1.10371 0.72180   2
   4 -11   1 0.02342 0.50578   2
   4 -11   1 0.12112 0.84731   7
   4 -11   1 0.74855 0.88367   3
  -5  11  -1 12.1330 1.85731   8
  -5  11  -1 8.90448 1.89659   2
  -5  11  -1 14.4792 2.37836   4
   5 -11   1 9.43296 1.95263   3
   5 -11   1 11.4455 2.13532   7
   5 -11   1 8.35710 1.71967   2
   6  10  -1 -0.3452 1.31878   1
   6  10  -1 0.93452 0.66882   6
  -6 -10   1 0.11938 0.56934   5
  -6 -10   1 -0.2164 0.74414   3
   5  10  -1 0.53528 1.06031   1
   5  10  -1 2.44023 0.93574   6
  -5 -10   1 1.11523 0.66504   5
  -5 -10   1 0.94141 1.11950   3
  -5 -10   1 1.19124 0.84884   7
   4  10  -1 0.88854 0.65422   6
   4  10  -1 -1.5295 0.83294   4
   4  10  -1 -2.1834 0.95790   1
  -4 -10   1 0.26955 0.59160   5
  -4 -10   1 -0.0315 0.42952   7
  -4 -10   1 -0.1621 0.75780   3
   3  10  -1 -0.7555 0.82984   4
   3  10  -1 0.32546 1.18798   1
   3  10  -1 -0.4617 0.39325   6
  -3 -10   1 -0.6360 0.52577   7
  -3 -10   1 0.28035 0.58808   3
  -3 -10   1 0.12163 0.60862   5
   2  10  -1 3.34894 1.22118   1
   2  10  -1 1.91584 0.64387   6
   2  10  -1 1.92291 0.92418   4
  -2 -10   1 2.62439 0.78053   5
  -2 -10   1 1.95675 0.75913   7
  -2 -10   1 2.29571 0.87622   3
   1  10  -1 -0.3612 0.76136   1
   1  10  -1 -1.4541 1.29072   9
   1  10  -1 0.77708 0.89104   4
  -1 -10   1 -0.4934 0.60219   3
  -1 -10   1 0.79722 0.51540   5
  -1 -10   1 -0.0187 0.57388   7
   0  10  -1 -0.2292 1.18035   9
   0  10  -1 0.75610 0.87760   4
   0  10  -1 0.51828 1.15647   1
   0 -10   1 1.46566 0.75999   3
   0 -10   1 0.40579 0.46911   7
  -1  10  -1 9.94980 1.70334   4
  -1  10  -1 8.64124 1.59081   1
  -1  10  -1 9.44142 1.30205   8
  -1  10  -1 9.08046 1.92428   9
   1 -10   1 8.87143 1.53776   3
   1 -10   1 8.38202 1.45496   7
  -2  10  -1 40.1902 3.29404   9
  -2  10  -1 36.8649 2.88162   1
  -2  10  -1 42.8849 3.27860   4
  -2  10  -1 39.0293 2.74847   8
   2 -10   1 41.4049 3.17176   7
   2 -10   1 39.2550 3.07832   3
   2 -10   1 38.5859 2.75754   2
  -3  10  -1 8.19805 1.36053   8
  -3  10  -1 7.96847 1.59597   4
  -3  10  -1 5.11378 1.24930   2
   3 -10   1 5.42766 1.25007   3
   3 -10   1 7.57111 1.57044   7
   3 -10   1 7.58315 1.34596   2
  -4  10  -1 7.44657 1.57016   2
  -4  10  -1 9.31577 1.54112   8
  -4  10  -1 9.64064 1.83868   4
   4 -10   1 8.59580 1.69198   3
   4 -10   1 8.67361 1.66154   7
   4 -10   1 8.38175 1.49268   2
  -5  10  -1 18.0464 2.60254   2
  -5  10  -1 21.6697 2.49792   8
  -5  10  -1 21.8916 2.83884   4
   5 -10   1 25.4270 2.88216   3
   5 -10   1 17.7049 2.65128   7
   5 -10   1 26.9293 2.84969   2
  -6  10  -1 1.47443 0.91795   2
  -6  10  -1 1.97570 0.89329   8
  -6  10  -1 1.37430 0.95076   4
   6 -10   1 1.51069 0.89484   7
   6 -10   1 2.06164 0.99963   3
   6 -10   1 2.63562 0.99449   2
   7   9  -1 0.92076 0.83287   6
   7   9  -1 -0.4856 0.91829   1
   7   9  -1 0.54515 0.53628   5
  -7  -9   1 0.73781 1.15461   3
  -7  -9   1 1.42334 0.81032   5
   6   9  -1 0.25951 0.68957   6
   6   9  -1 -0.0371 0.80866   1
  -6  -9   1 -0.2083 0.69734   5
  -6  -9   1 0.07956 0.98044   3
   5   9  -1 9.75441 1.50354   6
   5   9  -1 10.5715 1.90539   1
  -5  -9   1 11.7686 2.07726   3
  -5  -9   1 9.32089 1.65702   7
  -5  -9   1 9.65096 1.55595   5
   4   9  -1 21.7122 2.44374   4
   4   9  -1 24.0497 2.03074   6
   4   9  -1 21.8902 2.74855   1
  -4  -9   1 23.8419 2.03023   5
  -4  -9   1 17.6793 2.24658   7
  -4  -9   1 27.6606 3.06313   3
   3   9  -1 7.90614 1.55999   4
   3   9  -1 7.15677 1.61304   1
   3   9  -1 13.5198 1.55520   6
  -3  -9   1 12.9149 1.60464   5
  -3  -9   1 12.8622 1.73433   7
  -3  -9   1 8.85960 1.63209   3
   2   9  -1 18.7471 2.24630   1
   2   9  -1 15.5977 2.32599   9
   2   9  -1 21.5647 1.62455   6
   2   9  -1 16.9000 2.07694   4
  -2  -9   1 17.0381 2.17660   3
  -2  -9   1 15.5583 1.92653   7
  -2  -9   1 19.2100 1.61319   5
   1   9  -1 37.4091 2.75723   4
   1   9  -1 33.4284 2.15465   6
   1   9  -1 28.4743 2.81814   9
   1   9  -1 30.8314 2.63112   1
  -1  -9   1 34.2370 2.57211   7
  -1  -9   1 36.1087 2.34799   5
  -1  -9   1 37.2749 2.84553   3
   0   9  -1 5.85519 1.45175   9
   0   9  -1 6.17444 1.25551   4
   0   9  -1 7.29653 0.99526   8
   0   9  -1 6.38694 1.31844   1
   0  -9   1 6.51784 1.29640   3
   0  -9   1 6.87885 1.27046   7
   0  -9   1 7.23327 1.03670   5
  -1   9  -1 40.3822 3.01006   4
  -1   9  -1 34.4196 2.34389   8
  -1   9  -1 36.1360 3.09419   9
  -1   9  -1 32.8212 2.74376   1
   1  -9   1 36.7257 2.40220   2
   1  -9   1 40.9225 2.92754   3
   1  -9   1 34.0800 2.69030   7
  -2   9  -1 13.1143 1.71555   1
  -2   9  -1 11.1440 1.42635   8
  -2   9  -1 9.57642 1.70059   4
  -2   9  -1 12.6753 1.65725   2
  -2   9  -1 10.2331 1.75203   9
   2  -9   1 12.2016 1.51646   2
   2  -9   1 9.88039 1.57262   3
   2  -9   1 10.8163 1.65634   7
  -3   9  -1 31.8074 2.52337   2
  -3   9  -1 25.7568 2.17740   8
  -3   9  -1 26.8710 2.18823   1
  -3   9  -1 26.8417 2.45248   4
   3  -9   1 29.9891 2.26211   2
   3  -9   1 21.7171 2.48169   3
   3  -9   1 27.4775 2.45356   7
  -4   9  -1 5.81324 1.35906   2
  -4   9  -1 6.88896 1.44224   4
  -4   9  -1 5.51871 1.21296   8
   4  -9   1 5.65342 1.23772   2
   4  -9   1 5.68117 1.29533   7
   4  -9   1 5.01573 1.18273   3
  -5   9  -1 0.54252 0.51793   8
  -5   9  -1 0.61563 0.80310   2
  -5   9  -1 0.87393 0.71810   4
   5  -9   1 0.57891 0.70336   2
   5  -9   1 -0.0017 0.56638   7
   5  -9   1 0.01477 0.44558   3
  -6   9  -1 3.46048 1.12942   4
  -6   9  -1 4.62448 1.33960   2
  -6   9  -1 4.15878 1.11209   8
   6  -9   1 5.25112 1.36319   7
   6  -9   1 3.96348 1.14709   2
   6  -9   1 2.49093 1.07188   3
  -7   9  -1 -0.8875 0.59777   2
  -7   9  -1 -0.5770 0.64697   8
  -7   9  -1 2.63806 1.03019   4
   7  -9   1 1.10698 0.80585   3
   7  -9   1 1.10278 0.88684   7
   7  -9   1 0.83321 0.71008   2
   7   8  -1 -1.3716 1.05344   1
   7   8  -1 1.45668 0.84507   5
   7   8  -1 0.23894 0.70361   6
  -7  -8   1 1.23010 0.88374   5
  -7  -8   1 1.23991 0.96392   3
   6   8  -1 1.28648 0.74758   6
   6   8  -1 0.46249 0.82263   1
  -6  -8   1 0.93288 0.79093   7
  -6  -8   1 0.24277 0.75208   3
  -6  -8   1 1.79883 0.87740   5
   5   8  -1 0.88595 0.81527   1
   5   8  -1 -0.4726 0.50340   6
  -5  -8   1 1.39572 0.62983   5
  -5  -8   1 -0.1448 0.77557   3
  -5  -8   1 0.37790 0.52059   7
   4   8  -1 8.77940 1.28274   6
   4   8  -1 6.31767 1.68858   9
   4   8  -1 9.21519 1.54412   4
   4   8  -1 12.1188 1.85986   1
  -4  -8   1 8.13266 1.54844   3
  -4  -8   1 8.54645 1.35483   5
  -4  -8   1 8.12612 1.42798   7
   3   8  -1 29.2535 2.94320   9
   3   8  -1 34.7292 2.33581   6
   3   8  -1 33.2774 2.73891   1
   3   8  -1 35.3225 2.56781   4
  -3  -8   1 34.6078 2.74499   3
  -3  -8   1 34.1761 2.39659   5
  -3  -8   1 31.2439 2.43761   7
   2   8  -1 -0.0303 0.54184   4
   2   8  -1 0.18876 0.68588   9
   2   8  -1 -0.3998 0.55008   1
   2   8  -1 -0.0826 0.29256   6
  -2  -8   1 -0.2460 0.35640   7
  -2  -8   1 -0.2486 0.40154   3
  -2  -8   1 0.04929 0.22805   5
   1   8  -1 2.08243 0.81733   4
   1   8  -1 0.52804 0.74021   9
   1   8  -1 0.84105 0.39341   6
   1   8  -1 1.84552 0.47689   8
   1   8  -1 0.93899 0.88205   1
  -1  -8   1 1.37162 0.59223   3
  -1  -8   1 1.14278 0.47418   5
  -1  -8   1 1.61528 0.58573   7
   0   8  -1 35.8519 2.16060   6
   0   8  -1 43.6258 3.22765   9
   0   8  -1 38.9141 2.30604   8
   0   8  -1 37.2293 2.81276   1
   0   8  -1 39.5065 2.87745   4
   0  -8   1 35.7931 2.59392   7
   0  -8   1 36.7179 2.74632   3
   0  -8   1 39.4657 2.28071   2
   0  -8   1 39.3639 2.37539   5
  -1   8  -1 17.9315 2.11359   4
  -1   8  -1 20.0464 2.14439   9
  -1   8  -1 17.9693 1.45480   8
  -1   8  -1 16.8893 1.95653   1
   1  -8   1 15.9892 1.86131   7
   1  -8   1 17.2380 1.33508   5
   1  -8   1 18.0459 1.44596   2
   1  -8   1 20.2324 1.78250   3
  -2   8  -1 669.015 30.0520   4
  -2   8  -1 652.778 29.9495   9
  -2   8  -1 644.654 29.6328   1
  -2   8  -1 667.160 29.7806   2
  -2   8  -1 622.619 29.4836   8
   2  -8   1 632.883 29.5325   2
   2  -8   1 665.024 29.9016   7
   2  -8   1 680.235 29.9410   3
  -3   8  -1 23.3935 2.01232   9
  -3   8  -1 18.6061 2.22437   4
  -3   8  -1 18.8779 2.18523   2
  -3   8  -1 21.5390 1.76826   1
  -3   8  -1 18.8725 1.96533   8
   3  -8   1 18.8829 2.16017   7
   3  -8   1 18.8880 2.12553   3
   3  -8   1 20.0860 1.79750   2
  -4   8  -1 4.62343 1.05644   8
  -4   8  -1 2.63726 0.99950   2
  -4   8  -1 4.19071 1.09212   4
   4  -8   1 4.52603 1.09451   3
   4  -8   1 3.50589 1.03809   7
   4  -8   1 3.91890 0.99882   2
  -5   8  -1 9.73868 1.72933   2
  -5   8  -1 6.99507 1.46021   4
  -5   8  -1 8.45823 1.40027   8
   5  -8   1 9.97660 1.59291   2
   5  -8   1 6.50045 1.37524   7
   5  -8   1 6.85522 1.30542   3
  -6   8  -1 13.3708 1.95937   8
  -6   8  -1 16.6372 2.31412   4
  -6   8  -1 17.0118 2.43862   2
   6  -8   1 13.9572 2.04971   3
   6  -8   1 11.4094 1.87053   2
   6  -8   1 14.4730 2.22685   7
  -7   8  -1 3.48445 1.40212   2
  -7   8  -1 2.87617 0.98479   8
  -7   8  -1 3.10677 1.03495   4
   7  -8   1 1.47220 0.90409   7
   7  -8   1 2.10890 1.11964   2
   7  -8   1 3.77696 1.20741   3
  -8   8  -1 13.3734 2.43716   8
  -8   8  -1 17.1561 3.06668   2
   8  -8   1 10.9761 2.10654   3
   8  -8   1 12.3129 2.40594   2
   8   7  -1 4.50598 1.73059   1
   8   7  -1 3.92161 1.16768   5
   8   7  -1 6.13401 1.40523   6
  -8  -7   1 5.15005 1.50425   3
  -8  -7   1 4.06404 1.10861   5
   7   7  -1 65.0556 4.40910   1
   7   7  -1 58.5936 4.02243   6
   7   7  -1 62.6952 4.08642   5
  -7  -7   1 49.0674 4.04732   7
  -7  -7   1 59.3962 4.03234   5
  -7  -7   1 55.9415 4.42379   3
   6   7  -1 1.11251 0.59256   6
   6   7  -1 2.16356 0.86520   1
  -6  -7   1 0.87944 0.55348   5
  -6  -7   1 0.07666 0.63104   7
  -6  -7   1 0.44459 0.68490   3
   5   7  -1 0.07020 0.63287   9
   5   7  -1 -0.0924 0.50208   1
   5   7  -1 -0.1841 0.64434   4
   5   7  -1 0.17836 0.43457   6
  -5  -7   1 0.15705 0.60466   7
  -5  -7   1 -0.3352 0.60995   3
  -5  -7   1 0.02187 0.32362   5
   4   7  -1 7.10536 1.47487   9
   4   7  -1 6.53482 1.25635   4
   4   7  -1 7.35251 1.18851   6
   4   7  -1 8.27174 1.49340   1
  -4  -7   1 6.98810 1.15331   5
  -4  -7   1 6.70315 1.19035   7
  -4  -7   1 7.20091 1.45697   3
   3   7  -1 5.93990 1.27655   1
   3   7  -1 5.35335 1.28062   9
   3   7  -1 5.15595 0.88417   6
   3   7  -1 6.08955 1.15000   4
  -3  -7   1 3.00006 0.75900   7
  -3  -7   1 4.74804 0.92746   5
  -3  -7   1 5.46901 0.95749   6
  -3  -7   1 4.40896 1.02965   3
   2   7  -1 0.80673 0.68423   9
   2   7  -1 1.73364 0.53594   6
   2   7  -1 2.66309 0.80698   1
   2   7  -1 2.19462 0.83953   4
  -2  -7   1 0.94452 0.44222   7
  -2  -7   1 0.92432 0.58738   3
  -2  -7   1 0.87611 0.40050   5
   1   7  -1 7.93321 1.22898   4
   1   7  -1 6.62560 1.23532   1
   1   7  -1 8.00908 0.69197   8
   1   7  -1 6.46325 0.84224   6
   1   7  -1 5.32636 1.28089   9
  -1  -7   1 6.11933 0.89436   5
  -1  -7   1 6.13965 0.99210   7
  -1  -7   1 6.03828 1.09188   3
  -1  -7   1 8.05200 0.66569   2
   0   7  -1 8.24020 0.91136   8
   0   7  -1 7.38758 0.70356   6
   0   7  -1 10.9043 1.41623   4
   0   7  -1 7.68180 1.19381   1
   0   7  -1 7.86139 1.44393   9
   0  -7   1 8.09454 1.19465   3
   0  -7   1 7.61715 1.10101   7
   0  -7   1 6.66807 0.81239   2
   0  -7   1 6.20158 0.86463   5
  -1   7  -1 211.165 10.7931   9
  -1   7  -1 224.275 10.3404   8
  -1   7  -1 220.914 10.5812   1
  -1   7  -1 219.669 9.95764   6
  -1   7  -1 219.833 10.4687   2
  -1   7  -1 220.777 10.7857   4
   1  -7   1 219.177 10.2241   5
   1  -7   1 224.822 10.7213   3
   1  -7   1 221.251 10.3325   2
   1  -7   1 220.896 10.6352   7
  -2   7  -1 16.5266 1.52704   2
  -2   7  -1 14.7300 1.41050   1
  -2   7  -1 19.3552 1.48708   8
  -2   7  -1 16.2930 1.71580   9
  -2   7  -1 14.9401 1.81377   4
   2  -7   1 15.8098 1.77108   3
   2  -7   1 17.0092 1.55653   7
   2  -7   1 17.2148 1.23051   5
   2  -7   1 17.9395 1.46170   2
  -3   7  -1 79.2748 4.69369   4
  -3   7  -1 73.3453 4.46192   9
  -3   7  -1 75.6713 4.34023   8
  -3   7  -1 75.1116 4.27766   1
  -3   7  -1 81.1265 4.62958   2
   3  -7   1 76.3896 4.54202   3
   3  -7   1 82.9619 4.22353   5
   3  -7   1 85.4200 4.69958   7
   3  -7   1 85.3888 4.50797   2
  -4   7  -1 104.153 5.59134   4
  -4   7  -1 87.5979 5.16240   8
  -4   7  -1 95.7224 5.48539   2
   4  -7   1 97.2009 5.39803   3
   4  -7   1 91.0834 5.24533   2
   4  -7   1 93.5306 5.43877   7
  -5   7  -1 18.7830 2.02742   8
  -5   7  -1 18.0711 2.26332   4
  -5   7  -1 14.9002 2.10562   2
   5  -7   1 16.7211 2.01469   2
   5  -7   1 17.3518 2.13438   7
   5  -7   1 18.0963 2.07279   3
  -6   7  -1 7.14423 1.32601   8
  -6   7  -1 8.49001 1.62493   2
  -6   7  -1 9.42298 1.62006   4
   6  -7   1 10.0842 1.66030   3
   6  -7   1 7.57750 1.52188   7
   6  -7   1 10.0307 1.66028   2
  -7   7  -1 5.12685 1.44360   2
  -7   7  -1 8.38671 1.65422   4
  -7   7  -1 4.53533 1.21625   8
   7  -7   1 5.92148 1.35974   3
   7  -7   1 4.65686 1.31624   2
   7  -7   1 7.02182 1.63490   7
  -8   7  -1 1.59723 1.16635   2
  -8   7  -1 0.08183 0.81136   8
   8  -7   1 0.21149 0.87425   2
   8  -7   1 0.36870 0.75427   7
   8  -7   1 -0.0695 0.58828   3
   8   6  -1 21.3081 2.52866   5
   8   6  -1 26.3638 2.35692   6
   8   6  -1 22.6857 2.79443   1
  -8  -6   1 22.9324 3.14028   3
  -8  -6   1 19.2496 2.43524   5
   7   6  -1 40.6076 3.14070   1
   7   6  -1 37.4479 2.86318   6
   7   6  -1 32.4979 2.68660   5
  -7  -6   1 28.2327 3.19493   7
  -7  -6   1 34.8624 2.76062   5
  -7  -6   1 31.0210 3.51788   3
   6   6  -1 4.58763 1.16454   1
   6   6  -1 6.20793 1.19767   6
  -6  -6   1 4.01413 1.04784   5
  -6  -6   1 2.00689 0.86656   3
  -6  -6   1 3.21272 1.06340   7
   5   6  -1 -0.0480 0.54104   4
   5   6  -1 -0.0258 0.43487   1
   5   6  -1 -0.1273 0.33282   6
   5   6  -1 0.66015 0.73180   9
  -5  -6   1 0.03324 0.62393   3
  -5  -6   1 -0.3823 0.28049   6
  -5  -6   1 0.14471 0.49527   7
  -5  -6   1 -0.3677 0.25612   5
   4   6  -1 306.087 14.6311   6
   4   6  -1 322.813 14.8894   1
   4   6  -1 328.365 14.6350   4
   4   6  -1 328.808 15.2954   9
  -4  -6   1 288.901 14.7382   7
  -4  -6   1 315.679 14.6861   6
  -4  -6   1 294.031 15.0067   3
  -4  -6   1 303.887 14.6501   5
   3   6  -1 18.7188 1.67092   1
   3   6  -1 17.9827 1.52930   6
   3   6  -1 19.4489 1.66000   4
   3   6  -1 18.7141 1.85205   9
  -3  -6   1 19.7418 1.57983   6
  -3  -6   1 16.4416 1.91887   3
  -3  -6   1 18.6228 1.53337   5
  -3  -6   1 20.5887 1.65838   7
   2   6  -1 1.15794 0.25814   8
   2   6  -1 1.06130 0.55140   1
   2   6  -1 1.65140 0.79896   9
   2   6  -1 2.06185 0.73224   4
   2   6  -1 2.25779 0.52550   6
  -2  -6   1 1.54702 0.49599   6
  -2  -6   1 1.40223 0.49090   5
  -2  -6   1 1.74032 0.56691   3
  -2  -6   1 1.78484 0.54032   7
  -2  -6   1 1.47695 0.28265   2
   1   6  -1 166.312 7.44823   8
   1   6  -1 150.456 7.90781   4
   1   6  -1 160.417 7.63159   6
   1   6  -1 161.745 7.97220   1
   1   6  -1 159.450 8.19662   9
  -1  -6   1 161.501 8.04402   3
  -1  -6   1 164.721 7.66709   6
  -1  -6   1 168.760 7.88195   7
  -1  -6   1 162.281 7.74529   5
  -1  -6   1 161.343 7.38810   2
   0   6  -1 5.41773 0.64146   6
   0   6  -1 5.90341 1.07734   9
   0   6  -1 8.11763 1.19546   4
   0   6  -1 7.62763 1.06346   1
   0   6  -1 5.23599 0.66873   8
   0  -6   1 6.29021 0.94781   3
   0  -6   1 4.94061 0.82252   7
   0  -6   1 6.69038 0.81166   5
   0  -6   1 6.38355 0.71314   2
  -1   6  -1 41.2943 1.99511   6
  -1   6  -1 41.8835 2.39505   2
  -1   6  -1 38.7611 2.56585   4
  -1   6  -1 38.6945 2.46456   1
  -1   6  -1 39.4033 2.27018   8
  -1   6  -1 34.9411 2.52948   9
   1  -6   1 37.5453 2.25097   2
   1  -6   1 40.3884 2.21345   5
   1  -6   1 37.7592 2.43830   7
   1  -6   1 39.1791 2.50160   3
  -2   6  -1 77.2899 4.44685   9
  -2   6  -1 82.9587 4.30456   1
  -2   6  -1 82.3057 4.42505   2
  -2   6  -1 79.8296 4.24796   8
  -2   6  -1 82.6960 4.55136   4
   2  -6   1 83.0053 4.46560   3
   2  -6   1 83.2196 4.30407   2
   2  -6   1 81.1500 4.06059   5
  -3   6  -1 46.7864 2.95500   2
  -3   6  -1 47.0300 2.78037   8
  -3   6  -1 43.1288 2.78512   9
  -3   6  -1 41.2204 2.60546   1
  -3   6  -1 39.4504 2.86980   4
   3  -6   1 42.7248 2.86877   7
   3  -6   1 44.6018 2.78225   2
   3  -6   1 48.4705 2.48755   5
   3  -6   1 49.2502 2.94146   3
  -4   6  -1 5.23627 1.08951   2
  -4   6  -1 4.63858 0.89327   9
  -4   6  -1 3.56060 0.71831   1
  -4   6  -1 4.05137 0.96627   4
  -4   6  -1 3.68714 0.86287   8
   4  -6   1 2.99754 0.58977   5
   4  -6   1 5.16338 1.02215   3
   4  -6   1 2.83428 0.77214   7
  -5   6  -1 27.4556 2.38605   4
  -5   6  -1 28.6809 2.49133   2
  -5   6  -1 29.8561 2.26920   8
   5  -6   1 33.4818 2.43609   3
   5  -6   1 29.4651 2.47802   7
  -6   6  -1 4.85545 1.04410   8
  -6   6  -1 4.33498 1.19479   2
  -6   6  -1 2.54818 0.84438   4
   6  -6   1 4.09232 1.15911   7
   6  -6   1 4.46323 1.09937   3
  -7   6  -1 10.1879 1.78142   2
  -7   6  -1 7.40826 1.40260   8
  -7   6  -1 5.41406 1.32596   4
   7  -6   1 6.44602 1.35046   2
   7  -6   1 9.09764 1.67053   7
   7  -6   1 7.46409 1.47707   3
  -8   6  -1 -0.3459 0.82125   2
  -8   6  -1 0.31931 0.54383   8
   8  -6   1 0.97526 0.84371   7
   8  -6   1 0.48701 0.61604   2
   8  -6   1 -0.1848 0.58615   3
  -9   6  -1 9.69080 1.85865   8
   9  -6   1 9.07697 1.93527   3
   9   5  -1 15.6843 2.14704   6
  -9  -5   1 9.98557 2.16753   3
   8   5  -1 7.84205 1.54218   5
   8   5  -1 9.88785 1.82212   1
   8   5  -1 6.16612 1.30080   6
  -8  -5   1 5.66770 1.44703   7
  -8  -5   1 7.59059 1.48353   5
  -8  -5   1 6.30231 1.55009   3
   7   5  -1 9.36936 1.54344   6
   7   5  -1 8.89129 1.59395   1
   7   5  -1 6.01214 1.19974   5
  -7  -5   1 8.49512 1.43330   5
  -7  -5   1 7.30627 1.50614   7
  -7  -5   1 4.67631 1.29222   3
   6   5  -1 30.6046 2.45785   1
   6   5  -1 29.2428 2.32718   6
   6   5  -1 33.8497 2.88064   9
  -6  -5   1 32.6856 2.44003   6
  -6  -5   1 27.1731 2.48020   7
  -6  -5   1 28.7050 2.36790   5
  -6  -5   1 29.6105 2.72293   3
   5   5  -1 0.52582 0.53578   6
   5   5  -1 1.67972 0.78979   9
   5   5  -1 -0.4375 0.47746   1
   5   5  -1 0.70833 0.48519   4
  -5  -5   1 1.23194 0.55156   5
  -5  -5   1 0.58767 0.53565   7
  -5  -5   1 1.30734 0.61851   6
  -5  -5   1 0.87951 0.61644   3
   4   5  -1 30.6629 2.14917   1
   4   5  -1 24.1129 2.24026   9
   4   5  -1 23.2201 1.91263   6
   4   5  -1 30.1176 1.98937   4
  -4  -5   1 25.6163 2.05932   7
  -4  -5   1 28.7645 2.25370   3
  -4  -5   1 25.6035 1.96837   6
  -4  -5   1 28.7405 2.01803   5
   3   5  -1 40.5844 2.54076   6
   3   5  -1 45.9035 2.74704   1
   3   5  -1 42.3493 2.56332   4
   3   5  -1 44.5148 2.96107   9
  -3  -5   1 42.9329 2.57765   5
  -3  -5   1 38.6350 2.57182   7
  -3  -5   1 43.0012 2.57886   6
  -3  -5   1 41.8420 2.06403   2
  -3  -5   1 33.8166 2.62341   3
   2   5  -1 75.7242 3.47943   8
   2   5  -1 77.6688 3.93183   6
   2   5  -1 75.8541 4.30746   9
   2   5  -1 82.7235 4.14641   1
   2   5  -1 74.5417 4.01658   4
  -2  -5   1 80.1618 4.01756   7
  -2  -5   1 75.0658 3.92168   6
  -2  -5   1 71.2103 4.14128   3
  -2  -5   1 71.1199 3.45459   2
  -2  -5   1 69.9674 3.91258   5
   1   5  -1 74.8680 3.51506   8
   1   5  -1 72.3772 4.13349   9
   1   5  -1 71.4288 3.91992   4
   1   5  -1 70.7686 3.70483   6
   1   5  -1 75.9626 3.95283   1
  -1  -5   1 72.9064 3.78646   5
  -1  -5   1 71.6169 3.71861   6
  -1  -5   1 75.3546 3.85356   7
  -1  -5   1 73.6100 4.00387   3
  -1  -5   1 77.3469 3.47444   2
   0   5  -1 7.46851 0.62878   8
   0   5  -1 6.79941 1.00331   4
   0   5  -1 6.20914 0.97403   9
   0   5  -1 5.49809 0.62446   6
   0   5  -1 7.39534 0.93630   1
   0  -5   1 6.26599 0.86945   3
   0  -5   1 6.58053 0.84218   7
   0  -5   1 8.16542 0.84332   5
   0  -5   1 6.62632 0.60095   6
   0  -5   1 7.36943 0.61022   2
  -1   5  -1 53.5993 2.66791   6
  -1   5  -1 55.1189 3.04254   1
  -1   5  -1 55.7620 3.23091   9
  -1   5  -1 58.3618 3.23337   4
  -1   5  -1 59.4656 3.07020   2
  -1   5  -1 58.0328 2.95974   8
   1  -5   1 56.1201 2.94936   2
   1  -5   1 55.1081 2.88521   5
   1  -5   1 55.8583 3.11702   7
   1  -5   1 57.4208 3.16466   3
  -2   5  -1 4.02732 0.76787   9
  -2   5  -1 3.97534 0.68397   1
  -2   5  -1 4.51230 0.83457   4
  -2   5  -1 4.22923 0.72789   2
  -2   5  -1 3.69902 0.64463   8
   2  -5   1 3.50371 0.62691   2
   2  -5   1 4.77384 0.80114   7
   2  -5   1 4.28168 0.56084   5
   2  -5   1 4.39646 0.76348   3
   2  -5   1 4.57743 0.74340   9
  -3   5  -1 86.4268 4.30587   8
  -3   5  -1 81.3561 4.43351   2
  -3   5  -1 79.7626 4.43036   4
  -3   5  -1 77.3225 4.10390   1
  -3   5  -1 80.2715 4.28407   9
   3  -5   1 83.0938 4.38206   3
   3  -5   1 83.9096 4.00635   5
   3  -5   1 78.7084 4.41728   7
   3  -5   1 75.2781 4.17555   9
  -4   5  -1 143.915 7.50149   9
  -4   5  -1 157.289 7.75897   4
  -4   5  -1 152.992 7.55563   8
  -4   5  -1 137.378 7.67134   2
  -4   5  -1 150.103 7.34291   1
   4  -5   1 158.639 7.23409   5
   4  -5   1 156.209 7.68718   3
   4  -5   1 160.355 7.82204   7
  -5   5  -1 95.0530 5.27721   8
  -5   5  -1 94.6249 5.47352   4
  -5   5  -1 96.3312 5.54159   2
   5  -5   1 103.403 4.98967   5
   5  -5   1 95.2031 5.53938   7
   5  -5   1 101.705 5.48126   3
  -6   5  -1 6.31892 1.16563   8
  -6   5  -1 8.44662 1.48332   4
  -6   5  -1 8.68447 1.55490   2
  -6   5  -1 6.69811 1.55863   7
   6  -5   1 8.92615 1.43097   3
   6  -5   1 4.60520 1.23513   7
  -7   5  -1 0.41485 0.60902   4
  -7   5  -1 0.94530 0.67152   2
  -7   5  -1 -0.0426 0.87377   7
  -7   5  -1 0.46809 0.40996   8
   7  -5   1 -0.7285 0.52738   3
   7  -5   1 -0.2622 0.68198   7
  -8   5  -1 16.1863 2.34304   2
  -8   5  -1 16.1154 2.59222   7
  -8   5  -1 14.7309 1.99640   8
   8  -5   1 16.7370 2.27445   3
   8  -5   1 15.1506 2.29693   7
  -9   5  -1 1.20866 0.88971   8
  -9   5  -1 2.11689 1.26970   2
  -9   5  -1 0.94265 0.96383   7
   9  -5   1 -0.3583 0.85758   3
   9  -5   1 0.24781 0.69731   7
   9  -5   1 1.29247 0.93728   2
   9   4  -1 32.0201 2.88964   5
   9   4  -1 36.2927 2.88497   6
  -9  -4   1 25.4319 3.37186   3
  -9  -4   1 30.9291 2.80332   5
   8   4  -1 4.43753 1.15469   1
   8   4  -1 5.30901 1.29628   5
   8   4  -1 6.03994 1.26317   6
  -8  -4   1 5.91493 1.20435   5
  -8  -4   1 7.96032 1.63890   7
  -8  -4   1 4.02433 1.42168   3
   7   4  -1 6.92059 1.30111   5
   7   4  -1 11.8075 1.73855   1
   7   4  -1 8.33686 1.37244   6
   7   4  -1 9.85046 1.80395   9
  -7  -4   1 8.89382 1.76051   3
  -7  -4   1 8.10802 1.52939   7
  -7  -4   1 9.26132 1.42561   5
   6   4  -1 25.6443 2.36089   9
   6   4  -1 22.0824 1.89950   6
   6   4  -1 25.8625 2.12513   1
  -6  -4   1 22.2936 2.54958   3
  -6  -4   1 20.5023 1.90366   5
  -6  -4   1 21.1000 1.88115   6
  -6  -4   1 21.0407 2.01751   7
   5   4  -1 0.73745 0.46315   1
   5   4  -1 -0.1357 0.40894   6
   5   4  -1 0.60783 0.43878   4
   5   4  -1 0.14458 0.38306   9
  -5  -4   1 0.65119 0.43730   7
  -5  -4   1 -0.5688 0.31518   6
  -5  -4   1 0.37598 0.44680   5
  -5  -4   1 1.30345 0.62620   3
   4   4  -1 0.40026 0.38824   1
   4   4  -1 0.13664 0.46209   9
   4   4  -1 0.04577 0.30330   4
   4   4  -1 0.35409 0.33155   6
  -4  -4   1 0.65731 0.40373   5
  -4  -4   1 0.45480 0.32532   6
  -4  -4   1 0.24760 0.35566   7
  -4  -4   1 1.02618 0.49059   3
  -4  -4   1 0.46745 0.25123   2
   3   4  -1 236.119 10.0804   4
   3   4  -1 216.343 9.46554   8
   3   4  -1 212.935 10.0644   6
   3   4  -1 213.717 10.1666   1
   3   4  -1 224.711 10.4802   9
  -3  -4   1 212.345 10.3098   3
  -3  -4   1 203.679 10.0457   5
  -3  -4   1 197.898 10.0845   7
  -3  -4   1 212.837 10.0683   6
  -3  -4   1 204.548 9.58054   2
   2   4  -1 266.062 11.8346   4
   2   4  -1 260.083 12.1353   9
   2   4  -1 261.579 11.9092   1
   2   4  -1 260.252 11.3384   8
   2   4  -1 254.480 11.7762   6
  -2  -4   1 249.665 11.7930   7
  -2  -4   1 251.788 11.3302   2
  -2  -4   1 259.424 11.7931   6
  -2  -4   1 250.517 11.9804   3
  -2  -4   1 245.605 11.7838   5
   1   4  -1 158.244 7.01937   8
   1   4  -1 150.422 7.23452   6
   1   4  -1 151.532 7.38094   4
   1   4  -1 159.487 7.60846   9
   1   4  -1 156.526 7.40176   1
  -1  -4   1 157.967 7.26188   6
  -1  -4   1 154.097 7.46975   3
  -1  -4   1 153.613 7.29851   7
  -1  -4   1 157.606 6.96126   2
   0   4  -1 5.27133 0.56080   2
   0   4  -1 4.56903 0.68036   1
   0   4  -1 5.01735 0.77676   9
   0   4  -1 4.48904 0.69981   4
   0   4  -1 4.02081 0.48586   8
   0   4  -1 4.53245 0.50745   6
   0  -4   1 4.78105 0.57247   5
   0  -4   1 4.57499 0.49031   2
   0  -4   1 5.01244 0.64302   7
   0  -4   1 4.41511 0.49973   6
   0  -4   1 3.89561 0.62031   3
   0  -4   1 5.72598 0.79418   9
  -1   4  -1 36.9622 2.13392   4
  -1   4  -1 33.4063 1.94837   1
  -1   4  -1 33.0270 1.88650   8
  -1   4  -1 35.0755 1.68448   6
  -1   4  -1 32.7296 2.08109   9
  -1   4  -1 34.9743 1.98267   2
   1  -4   1 36.8493 1.93381   2
   1  -4   1 36.8099 1.70000   6
   1  -4   1 32.8551 2.03001   3
   1  -4   1 30.0728 1.97569   7
   1  -4   1 35.8236 2.05384   9
   1  -4   1 35.3036 1.87403   5
  -2   4  -1 -0.3001 0.31094   9
  -2   4  -1 0.02376 0.25371   2
  -2   4  -1 0.82879 0.37744   4
  -2   4  -1 0.19359 0.18279   8
  -2   4  -1 0.20377 0.31664   1
   2  -4   1 0.08411 0.16554   5
   2  -4   1 0.09811 0.19783   3
   2  -4   1 0.32716 0.29002   9
   2  -4   1 0.88609 0.34530   7
  -3   4  -1 14.4016 1.22623   8
  -3   4  -1 17.8105 1.27969   9
  -3   4  -1 16.0178 1.15251   1
  -3   4  -1 15.2491 1.32887   2
  -3   4  -1 18.7123 1.40474   4
   3  -4   1 17.1876 1.33928   3
   3  -4   1 15.1742 1.23011   9
   3  -4   1 15.7193 1.09824   5
   3  -4   1 17.0997 1.39096   7
  -4   4  -1 19.1125 1.83621   7
  -4   4  -1 17.9713 1.48574   9
  -4   4  -1 22.1545 1.71511   4
  -4   4  -1 20.6929 1.70385   2
  -4   4  -1 21.3223 1.43677   1
  -4   4  -1 18.6784 1.51385   8
   4  -4   1 21.6231 1.70387   3
   4  -4   1 22.7846 1.43909   5
   4  -4   1 22.0314 1.78479   7
   4  -4   1 21.5692 1.53739   9
  -5   4  -1 227.866 11.6296   8
  -5   4  -1 235.497 11.9165   2
  -5   4  -1 246.101 12.2358   7
  -5   4  -1 238.182 11.8483   4
   5  -4   1 242.756 11.9650   7
   5  -4   1 265.570 11.9667   3
   5  -4   1 260.675 11.4594   5
  -6   4  -1 28.2378 2.64526   7
  -6   4  -1 29.0737 2.24964   8
  -6   4  -1 31.2801 2.52686   2
  -6   4  -1 26.2249 2.32185   4
   6  -4   1 32.7417 2.50594   3
   6  -4   1 33.7975 2.14478   5
   6  -4   1 27.0772 2.42738   7
  -7   4  -1 -0.0741 0.34500   8
  -7   4  -1 0.40046 0.62372   4
  -7   4  -1 0.09323 0.64088   2
  -7   4  -1 0.76406 0.82715   7
   7  -4   1 1.45229 0.72482   3
   7  -4   1 1.02864 0.81484   7
   7  -4   1 -0.2718 0.51839   5
  -8   4  -1 2.73965 0.90556   8
  -8   4  -1 1.50684 0.94214   7
  -8   4  -1 1.78048 0.88856   2
   8  -4   1 1.79402 0.95034   3
   8  -4   1 1.67459 0.85794   7
  -9   4  -1 2.08748 0.98799   8
  -9   4  -1 2.00896 1.22811   7
  -9   4  -1 0.56301 0.77262   2
   9  -4   1 0.84921 0.92866   7
   9  -4   1 0.98160 1.01242   3
   9   3  -1 13.0029 1.80793   6
   9   3  -1 7.96388 1.60363   5
   9   3  -1 7.99502 1.75075   3
  -9  -3   1 7.36974 1.51104   5
  -9  -3   1 8.34345 1.89289   3
  -9  -3   1 7.01859 1.59281   7
   8   3  -1 0.28292 0.44077   5
   8   3  -1 0.53032 0.43379   6
   8   3  -1 0.31777 0.60562   1
  -8  -3   1 -0.0471 0.76194   7
  -8  -3   1 -0.9170 0.63983   3
  -8  -3   1 0.24556 0.45618   5
   7   3  -1 3.12245 1.09837   9
   7   3  -1 4.51385 1.00654   5
   7   3  -1 5.01911 1.10535   1
   7   3  -1 3.23772 0.84853   6
  -7  -3   1 2.39980 0.77560   6
  -7  -3   1 2.56295 0.93041   7
  -7  -3   1 2.93862 0.80686   5
  -7  -3   1 0.29837 0.75106   3
   6   3  -1 13.4449 1.58811   5
   6   3  -1 10.0307 1.51517   4
   6   3  -1 9.89194 1.54336   9
   6   3  -1 10.3634 1.40853   6
   6   3  -1 10.7653 1.48776   1
  -6  -3   1 12.6955 1.53751   6
  -6  -3   1 8.32330 1.43992   7
  -6  -3   1 10.8681 1.42526   5
  -6  -3   1 9.54746 1.61003   3
   5   3  -1 4.81881 0.92817   1
   5   3  -1 6.40432 0.98944   4
   5   3  -1 4.89346 0.93861   6
   5   3  -1 5.91897 1.12322   9
  -5  -3   1 5.56411 0.95711   6
  -5  -3   1 4.63436 0.93691   7
  -5  -3   1 5.71537 0.80416   2
  -5  -3   1 5.55496 0.95168   5
  -5  -3   1 4.78357 1.08862   3
   4   3  -1 0.33100 0.32799   6
   4   3  -1 0.42349 0.22069   8
   4   3  -1 0.98743 0.41334   1
   4   3  -1 0.28516 0.43837   9
   4   3  -1 0.30746 0.29197   4
  -4  -3   1 0.32637 0.29956   6
  -4  -3   1 0.33260 0.24098   2
  -4  -3   1 0.11174 0.26694   7
  -4  -3   1 0.68610 0.37138   5
  -4  -3   1 0.25332 0.43670   3
   3   3  -1 411.024 18.4583   6
   3   3  -1 410.544 18.5274   1
   3   3  -1 418.301 18.4250   4
   3   3  -1 417.488 18.0061   8
   3   3  -1 423.508 18.8092   9
  -3  -3   1 389.861 18.4298   5
  -3  -3   1 396.426 18.0778   2
  -3  -3   1 416.245 18.4693   6
  -3  -3   1 395.438 18.6478   3
  -3  -3   1 388.894 18.4975   7
   2   3  -1 48.5559 2.23411   8
   2   3  -1 52.0180 2.61553   4
   2   3  -1 47.4042 2.63582   1
   2   3  -1 48.7710 2.81816   9
   2   3  -1 45.7055 2.55550   6
  -2  -3   1 47.2272 2.57411   6
  -2  -3   1 47.5888 2.23441   2
  -2  -3   1 43.9798 2.55308   7
  -2  -3   1 46.0523 2.69136   3
  -2  -3   1 48.4745 2.60488   5
   1   3  -1 3258.18 137.707   9
   1   3  -1 3161.05 137.500   4
   1   3  -1 3078.42 137.504   1
   1   3  -1 3432.74 137.843   8
  -1  -3   1 2902.97 137.417   5
  -1  -3   1 3237.69 137.722   7
  -1  -3   1 3077.09 137.563   3
  -1  -3   1 2960.07 137.655   9
   0   3  -1 143.072 6.60038   1
   0   3  -1 141.668 6.45245   6
   0   3  -1 150.952 6.75059   9
   0   3  -1 139.164 6.43038   8
   0   3  -1 147.182 6.44828   2
   0   3  -1 137.232 6.65073   4
   0  -3   1 144.302 6.71407   9
   0  -3   1 139.372 6.53089   5
   0  -3   1 138.428 6.64705   3
   0  -3   1 146.044 6.46635   6
   0  -3   1 134.866 6.54616   7
   0  -3   1 140.071 6.39603   2
  -1   3  -1 0.39259 0.25694   1
  -1   3  -1 0.18890 0.13980   8
  -1   3  -1 0.37961 0.20353   2
  -1   3  -1 0.31437 0.30977   9
  -1   3  -1 0.31814 0.09740   6
  -1   3  -1 1.38294 0.37321   4
   1  -3   1 0.18543 0.08597   6
   1  -3   1 0.13425 0.18243   9
   1  -3   1 0.33215 0.16557   5
   1  -3   1 0.12700 0.14896   3
   1  -3   1 0.55021 0.24803   7
  -2   3  -1 9.54896 0.71491   1
  -2   3  -1 8.88924 0.75953   9
  -2   3  -1 8.72695 0.80991   4
  -2   3  -1 8.01166 0.71738   8
  -2   3  -1 8.82747 0.95561   2
  -2   3  -1 9.67534 1.09356   7
   2  -3   1 11.6949 0.73563   5
   2  -3   1 9.66722 0.84145   3
   2  -3   1 8.23848 0.79694   7
   2  -3   1 8.69351 0.73216   9
  -3   3  -1 7.51099 1.08165   7
  -3   3  -1 6.92311 0.91648   4
  -3   3  -1 6.42891 0.88246   2
  -3   3  -1 6.01404 0.66144   9
  -3   3  -1 6.71679 0.82031   8
  -3   3  -1 7.25660 0.64281   1
   3  -3   1 7.36395 0.74785   9
   3  -3   1 6.88846 0.88095   3
   3  -3   1 7.93455 1.00144   7
   3  -3   1 7.53839 0.66788   5
   3  -3   1 7.79666 0.42790   6
  -4   3  -1 42.9770 2.64788   4
  -4   3  -1 43.5703 2.72072   2
  -4   3  -1 46.5952 2.58594   8
  -4   3  -1 41.8727 2.87366   7
  -4   3  -1 38.7664 2.43596   9
  -4   3  -1 38.0813 2.30728   1
   4  -3   1 48.3335 2.47054   9
   4  -3   1 42.2791 2.40711   5
   4  -3   1 45.7157 2.12031   6
   4  -3   1 43.0486 2.68719   3
   4  -3   1 46.3691 2.80643   7
  -5   3  -1 69.4479 3.80339   4
  -5   3  -1 62.3340 3.77861   2
  -5   3  -1 65.5799 4.05849   7
  -5   3  -1 64.5302 3.59186   8
  -5   3  -1 59.6934 3.30703   1
  -5   3  -1 62.9327 3.46202   9
   5  -3   1 55.8068 3.36720   9
   5  -3   1 73.1403 3.52572   5
   5  -3   1 58.8642 3.77547   7
   5  -3   1 64.1889 3.80299   3
  -6   3  -1 51.0593 3.68477   7
  -6   3  -1 52.8410 3.39256   4
  -6   3  -1 48.1300 3.13124   8
  -6   3  -1 51.1329 3.43503   2
   6  -3   1 57.4935 3.15953   5
   6  -3   1 51.8292 3.44934   3
   6  -3   1 49.9857 3.46867   7
  -7   3  -1 0.29787 0.47320   7
  -7   3  -1 1.34861 0.69254   2
  -7   3  -1 0.14155 0.45143   8
   7  -3   1 -0.3200 0.39211   3
   7  -3   1 0.30874 0.53219   5
   7  -3   1 0.59337 0.54670   7
  -8   3  -1 1.68121 0.89080   2
  -8   3  -1 1.21104 0.92740   7
  -8   3  -1 2.17506 0.80789   8
   8  -3   1 1.00782 0.65120   5
   8  -3   1 1.31843 0.85339   7
   8  -3   1 1.19839 0.86392   3
  -9   3  -1 9.43541 1.53297   8
  -9   3  -1 6.52663 1.82891   7
  -9   3  -1 9.45311 1.79370   2
   9  -3   1 4.14398 1.41770   7
   9  -3   1 7.57453 1.56523   3
   9   2  -1 1.17498 0.87664   3
   9   2  -1 1.51093 0.66012   6
   9   2  -1 1.98900 0.92462   5
  -9  -2   1 1.46438 0.91562   3
  -9  -2   1 0.47107 0.75285   7
  -9  -2   1 1.57216 0.83042   5
   8   2  -1 21.3789 2.38033   5
   8   2  -1 27.4152 2.20956   6
  -8  -2   1 22.5232 2.39512   5
  -8  -2   1 24.0723 2.94823   3
  -8  -2   1 20.8308 2.70740   7
   7   2  -1 29.4575 2.23905   6
   7   2  -1 25.9382 2.15352   5
   7   2  -1 28.1016 2.53803   9
   7   2  -1 29.6213 2.29976   1
  -7  -2   1 30.0693 2.27105   6
  -7  -2   1 23.9491 2.79575   3
  -7  -2   1 22.7346 2.65105   7
  -7  -2   1 27.4215 2.18656   5
   6   2  -1 61.2447 3.75359   4
   6   2  -1 67.8483 3.88519   1
   6   2  -1 71.8627 4.25213   9
   6   2  -1 62.2560 3.76421   5
   6   2  -1 63.1840 3.75495   6
  -6  -2   1 62.7165 3.66232   2
  -6  -2   1 69.0544 3.83042   6
  -6  -2   1 58.3683 4.08098   3
  -6  -2   1 63.4921 3.77751   5
  -6  -2   1 59.4612 3.98915   7
   5   2  -1 53.2812 3.11948   6
   5   2  -1 53.9537 3.42115   9
   5   2  -1 53.4821 3.14648   4
   5   2  -1 57.1914 3.21559   1
   5   2  -1 50.7157 2.79936   8
  -5  -2   1 52.3632 3.42295   3
  -5  -2   1 54.5497 2.99592   2
  -5  -2   1 50.8370 3.07305   5
  -5  -2   1 45.6058 3.18415   7
  -5  -2   1 51.4644 3.09033   6
  -5  -2   1 50.6690 2.83382   8
   4   2  -1 3.97643 0.73394   6
   4   2  -1 3.09550 0.62682   1
   4   2  -1 3.39887 0.50089   8
   4   2  -1 3.10805 0.73449   9
   4   2  -1 3.78174 0.69562   4
  -4  -2   1 3.95219 0.69005   5
  -4  -2   1 3.13293 0.66291   1
  -4  -2   1 4.09210 0.61940   2
  -4  -2   1 2.97388 0.71738   7
  -4  -2   1 4.60396 0.76105   6
  -4  -2   1 3.98676 0.82215   3
  -4  -2   1 3.22593 0.49746   8
   3   2  -1 26.8019 1.77996   6
   3   2  -1 30.1573 1.58450   8
   3   2  -1 28.6837 1.84924   1
   3   2  -1 30.5354 2.06026   9
   3   2  -1 27.6016 1.80884   4
  -3  -2   1 30.5033 1.82726   5
  -3  -2   1 28.5589 1.86465   7
  -3  -2   1 28.7687 1.62746   2
  -3  -2   1 29.6180 1.82796   6
  -3  -2   1 24.7915 1.89281   3
  -3  -2   1 31.9072 1.62337   8
  -3  -2   1 33.6964 1.97305   1
   2   2  -1 117.336 5.47689   1
   2   2  -1 114.522 5.15280   8
   2   2  -1 107.990 5.40232   4
   2   2  -1 105.574 5.36747   6
   2   2  -1 112.081 5.72763   9
   2   2  -1 121.124 5.67503   9
  -2  -2   1 110.537 5.39665   5
  -2  -2   1 130.739 5.58198   1
  -2  -2   1 112.101 5.14618   2
  -2  -2   1 112.597 5.40083   6
  -2  -2   1 109.290 5.50052   3
  -2  -2   1 106.142 5.39003   7
   1   2  -1 9999.99 432.386   9
  -1  -2   1 9731.82 431.058   6
  -1  -2   1 9738.30 431.381   3
   0   2  -1 163.700 7.13087   9
   0   2  -1 152.698 6.88463   2
   0   2  -1 155.194 7.07553   4
   0   2  -1 161.152 7.02963   1
   0   2  -1 151.451 6.91052   8
   0  -2   1 143.993 6.93607   6
   0  -2   1 153.568 7.06513   3
   0  -2   1 156.195 6.97961   7
   0  -2   1 152.279 7.00057   5
  -1   2  -1 176.018 8.12185   2
  -1   2  -1 188.676 8.10261   9
  -1   2  -1 173.959 8.16089   4
  -1   2  -1 185.814 8.08238   8
  -1   2  -1 177.343 8.02079   1
   1  -2   1 178.698 8.07164   9
   1  -2   1 173.273 7.90049   6
   1  -2   1 174.416 8.13901   7
   1  -2   1 177.240 8.04835   5
   1  -2   1 184.481 8.17330   3
  -2   2  -1 4.24444 0.58859   2
  -2   2  -1 5.13962 0.57983   8
  -2   2  -1 3.76613 0.42662   9
  -2   2  -1 4.67467 0.60324   4
  -2   2  -1 5.72494 0.73514   7
  -2   2  -1 4.55684 0.40573   1
   2  -2   1 4.43076 0.59798   3
   2  -2   1 6.30454 0.33275   6
   2  -2   1 5.14788 0.46602   5
   2  -2   1 3.71030 0.56801   7
   2  -2   1 5.25727 0.48305   9
  -3   2  -1 5.55598 0.88592   7
  -3   2  -1 6.55782 0.77878   4
  -3   2  -1 6.23196 0.71932   8
  -3   2  -1 4.52382 0.46520   1
  -3   2  -1 5.71969 0.56136   9
  -3   2  -1 6.51819 0.84451   2
   3  -2   1 6.60239 0.57497   9
   3  -2   1 6.26456 0.82589   3
   3  -2   1 4.71577 0.59602   5
   3  -2   1 5.81634 0.41548   6
   3  -2   1 4.53971 0.72758   7
  -4   2  -1 146.419 7.09616   8
  -4   2  -1 144.063 7.48563   7
  -4   2  -1 139.278 6.86420   1
  -4   2  -1 143.339 7.02070   9
  -4   2  -1 153.665 7.23780   4
  -4   2  -1 151.833 7.32900   2
  -4   2  -1 155.700 7.48866   3
   4  -2   1 149.967 7.36176   7
   4  -2   1 152.158 6.78050   6
   4  -2   1 160.132 7.04821   9
   4  -2   1 155.601 7.05868   5
   4  -2   1 133.601 6.95407   9
   4  -2   1 144.675 7.32703   3
  -5   2  -1 59.0789 3.58105   2
  -5   2  -1 62.1283 3.38121   8
  -5   2  -1 61.8516 3.52921   4
  -5   2  -1 62.6632 3.83046   7
  -5   2  -1 59.1659 3.11316   1
  -5   2  -1 61.6036 3.31307   9
  -5   2  -1 58.5374 3.73167   3
   5  -2   1 66.7335 3.73653   3
   5  -2   1 64.9175 3.34404   9
   5  -2   1 52.4878 3.03242   1
   5  -2   1 58.3272 3.59443   7
   5  -2   1 56.8725 3.22264   9
   5  -2   1 61.3410 3.04528   6
   5  -2   1 61.9696 3.32289   5
  -6   2  -1 97.4861 5.18307   8
  -6   2  -1 90.8183 5.32248   4
  -6   2  -1 94.4199 5.44047   2
  -6   2  -1 105.709 5.80064   3
  -6   2  -1 91.9890 5.66238   7
   6  -2   1 106.381 5.22104   5
   6  -2   1 98.3689 4.83187   6
   6  -2   1 98.8133 5.56811   3
   6  -2   1 99.9935 5.55214   7
  -7   2  -1 19.2378 2.47375   7
  -7   2  -1 21.5556 2.61876   3
  -7   2  -1 20.9913 2.39165   2
  -7   2  -1 25.0951 1.91121   8
   7  -2   1 17.7072 2.23769   7
   7  -2   1 21.2744 1.82030   5
   7  -2   1 20.2158 2.37914   3
  -8   2  -1 6.95880 1.55690   7
  -8   2  -1 5.91853 1.13740   8
  -8   2  -1 5.28721 1.27842   2
   8  -2   1 5.86242 1.31906   7
   8  -2   1 4.08296 1.26676   3
   8  -2   1 5.14759 1.07910   5
  -9   2  -1 26.7463 3.43301   7
  -9   2  -1 36.1998 3.17698   2
   9  -2   1 35.1635 2.76363   5
   9  -2   1 31.2354 3.42247   3
   9  -2   1 34.9176 3.04904   7
 -10   2  -1 17.7736 2.91649   7
 -10   2  -1 17.6535 2.65627   2
  10  -2   1 12.5727 2.40981   7
  10  -2   1 14.7900 2.51726   3
   9   1  -1 0.10475 0.50047   7
   9   1  -1 0.28448 0.91108   3
   9   1  -1 0.74932 0.60432   5
  -9  -1   1 0.71645 0.74166   7
  -9  -1   1 1.10087 1.04228   3
  -9  -1   1 1.01366 0.62483   5
   8   1  -1 49.6664 3.89666   3
   8   1  -1 61.7836 3.64941   6
   8   1  -1 54.5899 3.60146   5
  -8  -1   1 54.0596 4.00415   7
  -8  -1   1 53.4104 3.61423   5
  -8  -1   1 55.3954 4.11925   3
   7   1  -1 11.9500 1.86281   3
   7   1  -1 16.1680 2.10750   9
   7   1  -1 16.1267 1.81905   6
   7   1  -1 20.8150 1.80142   5
   7   1  -1 17.4387 1.68570   1
  -7  -1   1 19.6161 1.69917   6
  -7  -1   1 18.6258 2.02612   2
  -7  -1   1 20.5483 1.76769   5
  -7  -1   1 18.6149 2.25621   7
  -7  -1   1 13.6099 2.02821   3
   6   1  -1 53.7402 3.44776   4
   6   1  -1 60.2829 3.21346   8
   6   1  -1 56.9916 3.38246   5
   6   1  -1 58.3847 3.43659   1
   6   1  -1 57.2060 3.70446   9
   6   1  -1 57.5826 3.33345   6
  -6  -1   1 46.3225 3.20773   5
  -6  -1   1 56.6679 3.31685   6
  -6  -1   1 49.2778 3.64379   3
  -6  -1   1 55.0703 3.63875   7
  -6  -1   1 55.2522 3.36273   2
  -6  -1   1 53.7069 3.52360   4
  -6  -1   1 59.9714 3.53559   1
  -6  -1   1 59.6701 3.24814   8
   5   1  -1 3.18058 0.67123   5
   5   1  -1 3.04514 0.72655   4
   5   1  -1 3.15753 0.64463   6
   5   1  -1 2.92610 0.71039   1
   5   1  -1 2.47101 0.73859   9
  -5  -1   1 3.82813 0.70862   6
  -5  -1   1 1.81886 0.62710   4
  -5  -1   1 3.06332 0.73582   1
  -5  -1   1 1.57188 0.54764   7
  -5  -1   1 3.03607 0.57731   8
  -5  -1   1 2.81709 0.76793   3
  -5  -1   1 2.97913 0.68169   5
  -5  -1   1 3.49258 0.71100   2
   4   1  -1 61.8642 3.65245   9
   4   1  -1 58.8527 3.44211   4
   4   1  -1 63.3924 3.43416   1
   4   1  -1 60.4193 3.33262   6
  -4  -1   1 62.2969 3.30807   2
  -4  -1   1 55.0222 3.45820   7
  -4  -1   1 65.8329 3.23944   8
  -4  -1   1 62.2913 3.46252   1
  -4  -1   1 60.8993 3.51521   4
  -4  -1   1 68.3214 3.40097   6
  -4  -1   1 59.8174 3.57997   3
  -4  -1   1 63.2395 3.35042   5
   3   1  -1 51.8094 2.90574   1
   3   1  -1 56.1301 2.86158   6
   3   1  -1 52.6350 2.94786   4
   3   1  -1 56.3134 2.71896   8
   3   1  -1 45.2219 3.05707   9
   3   1  -1 55.9823 3.14735   9
  -3  -1   1 53.4842 2.96420   7
  -3  -1   1 45.3922 3.02031   9
  -3  -1   1 52.0701 2.98254   4
  -3  -1   1 56.1741 2.73978   8
  -3  -1   1 55.4738 2.78715   2
  -3  -1   1 59.1723 2.89098   6
  -3  -1   1 58.1566 3.00711   1
  -3  -1   1 54.7160 3.04883   3
  -3  -1   1 53.0128 2.83814   5
   2   1  -1 143.760 6.97026   1
   2   1  -1 141.136 6.98253   4
   2   1  -1 152.218 6.77602   8
   2   1  -1 138.650 7.16006   9
   2   1  -1 152.357 7.17385   9
  -2  -1   1 156.883 6.80737   2
  -2  -1   1 142.171 6.93663   7
  -2  -1   1 160.781 7.06422   3
  -2  -1   1 151.480 7.05367   4
  -2  -1   1 147.324 7.00903   1
  -2  -1   1 156.902 6.80455   8
  -2  -1   1 152.550 6.91896   5
  -2  -1   1 165.212 6.95816   6
  -2  -1   1 128.009 7.07355   9
   1   1  -1 1328.75 58.4589   9
   1   1  -1 1276.75 58.3263   4
   1   1  -1 1271.45 58.3175   1
   1   1  -1 1371.80 58.5142   9
   1   1  -1 1337.67 58.1634   8
  -1  -1   1 1396.48 58.3247   3
  -1  -1   1 1362.65 58.2333   7
  -1  -1   1 1358.43 58.3609   1
  -1  -1   1 1326.01 58.2698   5
  -1  -1   1 1203.99 58.4128   9
  -1  -1   1 1376.68 58.2876   6
   0   1  -1 187.177 8.34003   9
   0   1  -1 184.038 8.15265   2
   0   1  -1 198.407 8.31642   4
   0   1  -1 178.620 8.26433   1
   0   1  -1 185.145 8.20736   8
   0  -1   1 183.777 8.19019   7
   0  -1   1 195.473 8.29573   1
   0  -1   1 172.649 8.32427   9
   0  -1   1 185.859 8.27088   5
   0  -1   1 180.475 8.24404   6
   0  -1   1 186.195 8.27691   3
  -1   1  -1 3227.06 134.068   7
  -1   1  -1 2709.67 133.690   8
  -1   1  -1 2723.01 133.671   9
  -1   1  -1 3133.51 133.989   2
   1  -1   1 3169.91 133.701   6
   1  -1   1 3328.02 134.145   7
  -2   1  -1 1332.52 56.9428   3
  -2   1  -1 1323.80 56.7366   4
  -2   1  -1 1234.79 56.7077   8
  -2   1  -1 1237.87 56.8127   2
  -2   1  -1 1348.03 56.7994   1
  -2   1  -1 1306.26 56.9680   7
   2  -1   1 1247.43 56.8656   3
   2  -1   1 1306.43 56.7208   5
  -3   1  -1 40.7669 2.09861   4
  -3   1  -1 38.0042 1.98038   9
  -3   1  -1 34.9788 1.86836   1
  -3   1  -1 37.6265 2.15870   2
  -3   1  -1 37.3186 2.29578   7
  -3   1  -1 38.3753 2.27871   3
  -3   1  -1 36.1992 2.00644   8
   3  -1   1 39.5811 1.88729   6
   3  -1   1 36.9240 2.21230   3
   3  -1   1 37.9731 2.02876   5
   3  -1   1 35.1440 1.97984   9
   3  -1   1 35.7816 1.94131   9
  -4   1  -1 189.005 8.48758   8
  -4   1  -1 183.193 8.58313   4
  -4   1  -1 176.905 8.66169   2
  -4   1  -1 186.928 8.89642   3
  -4   1  -1 183.619 8.31393   1
  -4   1  -1 187.863 8.94146   7
   4  -1   1 166.354 8.25213   1
   4  -1   1 193.712 8.32158   6
   4  -1   1 181.250 8.79756   3
   4  -1   1 183.095 8.48979   5
   4  -1   1 174.101 8.40064   9
   4  -1   1 174.183 8.50061   9
  -5   1  -1 30.0030 2.07334   4
  -5   1  -1 31.2847 2.17064   2
  -5   1  -1 32.0961 1.84765   1
  -5   1  -1 35.7603 2.45067   3
  -5   1  -1 32.4537 1.99689   8
  -5   1  -1 30.9794 2.39061   7
   5  -1   1 29.1176 1.78257   1
   5  -1   1 32.3641 1.96286   9
   5  -1   1 31.1160 1.99860   5
   5  -1   1 31.9297 1.83797   6
   5  -1   1 28.6839 2.22497   3
   5  -1   1 30.4638 2.05474   9
  -6   1  -1 14.3625 1.90079   7
  -6   1  -1 13.6596 1.37759   4
  -6   1  -1 15.9845 1.79752   2
  -6   1  -1 15.5670 1.29939   8
  -6   1  -1 13.2044 1.83060   3
   6  -1   1 14.8554 1.17140   6
   6  -1   1 13.4214 1.78951   3
   6  -1   1 15.0541 1.37017   5
   6  -1   1 15.4851 1.30967   9
  -7   1  -1 24.5081 2.74821   3
  -7   1  -1 24.8276 2.15421   2
  -7   1  -1 19.4110 2.49835   7
  -7   1  -1 24.1537 1.89883   8
   7  -1   1 24.7424 1.75704   6
   7  -1   1 26.5852 2.04387   5
   7  -1   1 26.5212 2.38987   3
  -8   1  -1 152.834 7.50002   8
  -8   1  -1 153.018 8.37404   7
  -8   1  -1 153.414 8.37012   3
  -8   1  -1 136.957 7.82678   2
   8  -1   1 129.686 7.93459   3
   8  -1   1 132.817 7.86666   7
   8  -1   1 148.650 7.58672   5
  -9   1  -1 1.29871 0.95013   2
  -9   1  -1 5.43810 1.60603   3
  -9   1  -1 3.64136 1.25047   7
   9  -1   1 2.07076 0.92428   7
   9  -1   1 5.40806 1.56795   3
   9  -1   1 5.02085 1.14277   5
 -10   1  -1 16.5923 2.67883   7
 -10   1  -1 9.68193 2.08268   3
 -10   1  -1 11.0349 2.06380   2
  10  -1   1 9.90765 1.75446   5
  10  -1   1 9.76348 2.06899   7
  10  -1   1 11.5748 2.12489   3
   9   0  -1 0.33016 0.62475   5
   9   0  -1 0.67464 0.78635   7
   9   0  -1 0.70581 0.86526   3
  -9   0   1 -0.1519 0.83837   7
  -9   0   1 0.02687 0.92295   3
   8   0  -1 -0.1934 0.47960   3
   8   0  -1 0.19222 0.53901   5
   8   0  -1 0.12695 0.44973   6
   8   0  -1 -0.2190 0.62808   7
  -8   0   1 -0.1938 0.66476   7
  -8   0   1 0.49969 0.56479   5
  -8   0   1 -0.3542 0.47213   3
  -8   0   1 0.11865 0.60517   2
   7   0  -1 67.2271 4.19665   5
   7   0  -1 76.1225 4.30158   1
   7   0  -1 71.2915 4.62307   3
   7   0  -1 70.8378 4.13296   6
  -7   0   1 77.7489 4.82522   3
  -7   0   1 68.6282 4.61263   7
  -7   0   1 75.9170 4.44793   2
  -7   0   1 80.3603 4.25302   6
  -7   0   1 72.1724 4.18335   8
  -7   0   1 71.6792 4.23643   5
   6   0  -1 90.8864 5.37453   3
   6   0  -1 100.468 5.48088   9
   6   0  -1 88.4005 5.22923   4
   6   0  -1 94.5227 4.97665   6
   6   0  -1 94.0988 5.04831   5
   6   0  -1 96.3171 5.12532   1
  -6   0   1 93.8244 5.36544   4
  -6   0   1 95.3139 5.50858   3
  -6   0   1 97.3279 5.21688   2
  -6   0   1 88.6480 5.38818   7
  -6   0   1 102.877 5.24308   1
  -6   0   1 93.4936 4.96452   6
  -6   0   1 93.8357 4.98635   8
  -6   0   1 93.3949 5.03178   5
   5   0  -1 3.32886 0.70587   1
   5   0  -1 4.34953 0.73734   6
   5   0  -1 3.23826 0.81046   9
   5   0  -1 3.81529 0.70551   5
   5   0  -1 3.14504 0.74493   4
  -5   0   1 3.53961 0.81452   7
  -5   0   1 5.02622 0.78842   6
  -5   0   1 3.68488 0.67914   5
  -5   0   1 4.37771 0.72243   8
  -5   0   1 4.34134 0.81202   2
  -5   0   1 6.03017 1.11847   3
  -5   0   1 4.29005 0.81734   1
  -5   0   1 5.39155 0.99523   4
   4   0  -1 2.89734 0.61500   1
   4   0  -1 4.09761 0.62744   6
   4   0  -1 3.67272 0.60216   5
   4   0  -1 3.68350 0.75289   9
  -4   0   1 3.68422 0.70006   1
  -4   0   1 2.82715 0.60944   2
  -4   0   1 2.29276 0.63609   7
  -4   0   1 3.61624 0.61710   6
  -4   0   1 3.10209 0.72601   3
  -4   0   1 4.16440 0.64861   5
  -4   0   1 4.20406 0.86649   9
  -4   0   1 3.06651 0.55983   8
  -4   0   1 2.21621 0.61133   4
   3   0  -1 15.5229 1.35649   9
   3   0  -1 14.8351 1.31223   9
  -3   0   1 16.1252 1.10092   6
  -3   0   1 17.6457 1.42105   9
  -3   0   1 15.2443 1.23795   7
  -3   0   1 16.8913 1.25002   1
  -3   0   1 19.4185 1.15887   8
  -3   0   1 18.2245 1.34799   4
  -3   0   1 15.8983 1.15444   2
  -3   0   1 16.0158 1.25986   3
  -3   0   1 15.3953 1.09891   5
   2   0  -1 212.395 10.5741   9
   2   0  -1 211.302 10.5520   9
  -2   0   1 235.090 10.4484   3
  -2   0   1 224.233 10.2950   6
  -2   0   1 226.922 10.5082   4
  -2   0   1 233.368 10.4246   7
  -2   0   1 247.253 10.3138   8
  -2   0   1 226.746 10.6266   9
  -2   0   1 228.397 10.3251   2
  -2   0   1 224.969 10.4467   1
  -2   0   1 238.211 10.3019   5
   1   0  -1 146.171 6.42090   8
   1   0  -1 145.833 6.39642   2
   1   0  -1 133.532 6.62257   9
   1   0  -1 131.209 6.62393   9
  -1   0   1 149.866 6.42290   5
  -1   0   1 132.606 6.52950   1
  -1   0   1 145.345 6.43357   8
  -1   0   1 146.374 6.43018   2
  -1   0   1 145.097 6.58833   4
  -1   0   1 146.311 6.44831   7
  -1   0   1 142.501 6.43997   6
  -1   0   1 147.217 6.46554   3
  -1   0   1 137.790 6.65319   9
   0   0  -1 70.1401 3.69634   9
   0   0  -1 77.0776 3.66414   4
   0   0  -1 81.9840 3.61311   8
   0   0  -1 82.5308 3.58548   2
   0   0   1 78.1325 3.66596   1
   0   0   1 86.4201 3.55491   3
   0   0   1 77.6261 3.72183   9
   0   0   1 80.6583 3.63378   6
   0   0   1 84.0719 3.60302   5
   0   0   1 80.5073 3.68337   4
  -1   0  -1 411.789 18.4360   2
  -1   0  -1 438.828 18.5099   3
  -1   0  -1 387.758 18.3245   4
  -1   0  -1 421.479 18.3782   8
  -1   0  -1 415.732 18.5059   7
   1   0   1 424.955 18.4249   5
   1   0   1 433.858 18.3903   6
   1   0   1 411.439 18.4789   3
  -2   0  -1 1519.61 68.6194   2
  -2   0  -1 1612.38 68.7868   3
  -2   0  -1 1521.22 68.5005   8
  -2   0  -1 1579.99 68.7882   7
  -2   0  -1 1611.89 69.0381   9
  -2   0  -1 1561.14 68.5822   5
   2   0   1 1569.00 68.5820   5
   2   0   1 1499.62 68.7192   3
   2   0   1 1601.44 68.8020   6
  -3   0  -1 37.4854 2.27124   3
  -3   0  -1 37.2476 2.27322   7
  -3   0  -1 36.8063 2.03425   5
  -3   0  -1 37.6042 1.96011   8
  -3   0  -1 38.6190 2.01145   4
  -3   0  -1 40.9907 1.94273   1
  -3   0  -1 40.5865 2.13701   2
  -3   0  -1 31.2287 1.98960   9
   3   0   1 38.8390 1.96265   6
   3   0   1 39.0643 2.05368   5
   3   0   1 38.2977 1.99031   9
   3   0   1 37.8669 1.89803   1
   3   0   1 38.3459 2.23917   3
   3   0   1 34.6197 2.03782   9
  -4   0  -1 173.466 8.18833   5
  -4   0  -1 192.617 8.08210   1
  -4   0  -1 163.658 8.14345   4
  -4   0  -1 172.735 8.55114   3
  -4   0  -1 168.760 8.27664   2
  -4   0  -1 170.560 8.54093   7
  -4   0  -1 179.209 8.08930   8
   4   0   1 178.592 8.15370   9
   4   0   1 175.767 8.00739   1
   4   0   1 174.051 8.29014   9
   4   0   1 160.467 8.42750   3
   4   0   1 174.005 8.06079   6
   4   0   1 175.795 8.19420   5
  -5   0  -1 7.88647 1.22239   7
  -5   0  -1 8.17533 0.92851   8
  -5   0  -1 7.76044 1.24329   3
  -5   0  -1 7.78278 0.98561   5
  -5   0  -1 8.21491 1.00929   4
  -5   0  -1 7.78183 1.05904   2
   5   0   1 6.22835 0.89932   5
   5   0   1 6.57905 0.99154   9
   5   0   1 8.45533 0.92895   6
   5   0   1 9.38757 0.80034   1
   5   0   1 6.78878 1.14394   3
   5   0   1 8.52664 0.87335   9
  -6   0  -1 15.0468 1.93507   7
  -6   0  -1 15.0293 1.37116   4
  -6   0  -1 15.2930 1.27213   8
  -6   0  -1 17.2499 2.02071   3
  -6   0  -1 14.8535 1.36108   5
  -6   0  -1 15.9591 1.78225   2
   6   0   1 15.9350 1.27071   6
   6   0   1 17.8789 1.42259   9
   6   0   1 12.4083 1.46521   5
   6   0   1 13.7784 1.17780   1
   6   0   1 14.6276 1.86374   3
  -7   0  -1 2.86247 0.95575   3
  -7   0  -1 2.37990 0.65583   8
  -7   0  -1 2.13884 0.79955   2
  -7   0  -1 3.81116 1.08203   7
   7   0   1 2.36909 0.63898   5
   7   0   1 3.60007 1.02944   3
   7   0   1 3.26987 0.73062   6
  -8   0  -1 14.2810 2.26455   7
  -8   0  -1 13.2918 2.20270   3
  -8   0  -1 11.9346 1.80267   2
   8   0   1 14.5429 1.63083   6
   8   0   1 14.4254 2.16479   3
   8   0   1 15.0455 1.85356   5
  -9   0  -1 1.61960 0.92170   2
  -9   0  -1 1.13460 0.82349   3
  -9   0  -1 0.23813 0.90029   7
   9   0   1 0.96221 0.68617   5
   9   0   1 0.02113 0.79922   3
 -10   0  -1 -0.4660 0.79037   2
 -10   0  -1 1.13190 0.94440   3
 -10   0  -1 -0.2244 0.94441   7
  10   0   1 0.71561 0.87539   3
  10   0   1 1.24891 1.16623   7
  10   0   1 -0.3015 0.73571   5
   9  -1  -1 0.41260 0.56561   2
   9  -1  -1 0.24359 0.85621   7
   9  -1  -1 -0.1955 0.79514   3
  -9   1   1 0.88258 0.86577   2
  -9   1   1 0.52893 0.94337   7
  -9   1   1 0.29969 0.85296   3
   8  -1  -1 44.5598 3.54724   3
   8  -1  -1 43.8424 3.38673   7
   8  -1  -1 53.8242 3.30860   5
  -8   1   1 45.7175 3.62466   7
  -8   1   1 46.5196 3.72380   3
  -8   1   1 44.8671 3.41985   2
   7  -1  -1 1.49327 0.55937   6
   7  -1  -1 1.62991 0.79648   7
   7  -1  -1 2.54059 0.90867   4
   7  -1  -1 2.05698 0.63789   5
   7  -1  -1 0.67324 0.69355   3
  -7   1   1 0.70637 0.41504   5
  -7   1   1 0.60202 0.66438   7
  -7   1   1 1.65357 0.90867   3
  -7   1   1 1.39553 0.61966   8
  -7   1   1 2.84171 0.71333   6
  -7   1   1 1.54748 0.68831   2
   6  -1  -1 0.97614 0.44681   6
   6  -1  -1 1.14385 0.59403   3
   6  -1  -1 2.72709 0.64193   5
   6  -1  -1 2.79508 0.79754   7
   6  -1  -1 1.95546 0.59637   1
   6  -1  -1 2.45930 0.81425   9
  -6   1   1 2.18983 0.82657   7
  -6   1   1 1.74487 0.53175   5
  -6   1   1 1.18743 0.64378   4
  -6   1   1 0.56085 0.46960   3
  -6   1   1 0.69125 0.51453   1
  -6   1   1 1.50005 0.57015   8
  -6   1   1 1.80470 0.67978   2
  -6   1   1 2.25921 0.56137   6
   5  -1  -1 1.04170 0.38438   6
   5  -1  -1 -0.0604 0.25037   7
   5  -1  -1 0.73978 0.39365   1
   5  -1  -1 0.78563 0.47935   3
   5  -1  -1 0.12257 0.37702   9
   5  -1  -1 0.66974 0.32729   5
  -5   1   1 0.28375 0.23693   5
  -5   1   1 0.62662 0.34470   8
  -5   1   1 0.20066 0.27475   6
  -5   1   1 0.97692 0.52593   4
  -5   1   1 0.15383 0.31931   7
  -5   1   1 0.05149 0.34326   1
  -5   1   1 0.15575 0.43374   3
  -5   1   1 0.08042 0.36192   9
  -5   1   1 0.35362 0.34222   2
   4  -1  -1 86.5434 4.35214   6
   4  -1  -1 83.7198 4.75959   9
   4  -1  -1 84.8413 4.64487   3
   4  -1  -1 92.2298 4.41817   5
  -4   1   1 82.2934 4.72279   4
  -4   1   1 90.5670 4.75244   3
  -4   1   1 91.1310 4.49670   8
  -4   1   1 83.5229 4.80833   9
  -4   1   1 91.1202 4.37601   6
  -4   1   1 85.2925 4.59197   2
  -4   1   1 91.9812 4.79720   7
  -4   1   1 91.6135 4.41452   5
  -4   1   1 88.8110 4.60918   1
   3  -1  -1 45.1994 2.83883   9
   3  -1  -1 46.8074 2.65790   7
   3  -1  -1 45.5968 2.67183   3
   3  -1  -1 48.1881 2.49224   5
   3  -1  -1 44.4660 2.80658   9
  -3   1   1 50.8515 2.51773   5
  -3   1   1 47.1460 2.80728   4
  -3   1   1 51.1670 2.50812   6
  -3   1   1 48.3434 2.70699   1
  -3   1   1 49.7842 2.76313   3
  -3   1   1 50.0524 2.70063   2
  -3   1   1 52.0372 2.61932   8
  -3   1   1 48.1720 2.76995   7
  -3   1   1 45.5913 2.85686   9
   2  -1  -1 3.38189 0.62205   9
   2  -1  -1 4.59106 0.56250   3
   2  -1  -1 4.74226 0.57529   7
  -2   1   1 3.58616 0.56339   1
  -2   1   1 4.29388 0.65096   4
  -2   1   1 4.23848 0.58123   2
  -2   1   1 4.04978 0.68097   9
  -2   1   1 5.65487 0.59766   8
  -2   1   1 4.10693 0.55339   3
  -2   1   1 4.12134 0.45367   6
  -2   1   1 5.20484 0.42960   5
  -2   1   1 4.58783 0.62097   7
   1  -1  -1 322.034 14.4665   2
   1  -1  -1 321.014 14.6646   9
   1  -1  -1 324.805 14.4156   3
   1  -1  -1 322.194 14.4615   7
  -1   1   1 329.199 14.4783   8
  -1   1   1 317.949 14.5637   1
  -1   1   1 306.027 14.6596   9
  -1   1   1 325.613 14.6098   4
  -1   1   1 337.916 14.3373   5
  -1   1   1 334.946 14.5280   2
  -1   1   1 334.653 14.5291   7
  -1   1   1 341.882 14.4454   3
  -1   1   1 311.269 14.3902   6
   0  -1  -1 330.523 14.7329   3
   0  -1  -1 318.178 14.7972   8
   0  -1  -1 325.835 14.8084   7
   0  -1  -1 325.438 14.8213   2
   0   1   1 344.610 14.8063   6
   0   1   1 341.283 14.8823   4
   0   1   1 327.660 14.8117   8
   0   1   1 344.040 14.9577   9
   0   1   1 361.432 14.9005   1
   0   1   1 338.468 14.7071   5
  -1  -1  -1 92.0730 4.38343   7
  -1  -1  -1 88.5087 4.29671   2
  -1  -1  -1 93.5806 4.36235   9
  -1  -1  -1 101.583 4.20831   8
  -1  -1  -1 96.2849 4.38773   3
  -1  -1  -1 93.6648 4.30026   5
   1   1   1 92.6637 4.29567   5
   1   1   1 94.0378 4.30115   6
   1   1   1 91.5225 4.30608   1
   1   1   1 102.353 4.20451   4
   1   1   1 92.0119 4.36272   9
  -2  -1  -1 2060.92 95.8601   7
  -2  -1  -1 2051.07 95.6773   2
  -2  -1  -1 2340.42 96.1090   8
  -2  -1  -1 2463.42 96.4763   9
  -2  -1  -1 2050.74 95.6964   5
  -2  -1  -1 2113.04 95.8742   3
   2   1   1 2090.92 95.6964   5
   2   1   1 1947.29 95.6413   6
   2   1   1 2557.87 96.1323   4
  -3  -1  -1 460.142 20.6276   5
  -3  -1  -1 459.260 20.4566   4
  -3  -1  -1 467.302 20.9026   3
  -3  -1  -1 464.817 20.8899   7
  -3  -1  -1 453.258 20.6087   2
  -3  -1  -1 469.158 20.4194   8
  -3  -1  -1 441.424 20.6641   9
   3   1   1 492.026 20.6548   9
   3   1   1 438.524 20.4239   4
   3   1   1 442.389 20.5414   6
   3   1   1 474.655 20.6350   5
   3   1   1 476.675 20.5149   1
  -4  -1  -1 8.70907 0.75891   4
  -4  -1  -1 9.76074 1.22749   3
  -4  -1  -1 8.01472 0.92659   2
  -4  -1  -1 7.59579 0.91719   5
  -4  -1  -1 7.92974 1.14574   7
  -4  -1  -1 9.51624 0.72152   8
   4   1   1 9.15034 0.85093   9
   4   1   1 8.21567 0.72101   4
   4   1   1 9.28813 0.76072   1
   4   1   1 9.67202 0.97588   9
   4   1   1 9.78950 1.01744   5
   4   1   1 9.33157 0.81113   6
  -5  -1  -1 97.7505 5.07098   5
  -5  -1  -1 95.8314 5.10119   2
  -5  -1  -1 96.9627 4.93541   4
  -5  -1  -1 102.327 4.85546   8
  -5  -1  -1 100.492 5.50501   3
  -5  -1  -1 96.1511 5.44184   7
   5   1   1 96.8755 4.95523   6
   5   1   1 105.434 4.93964   1
   5   1   1 96.4295 5.06002   5
   5   1   1 94.8894 4.88429   4
   5   1   1 104.351 5.12629   9
  -6  -1  -1 3.28989 0.77736   2
  -6  -1  -1 2.11388 0.61874   5
  -6  -1  -1 1.40272 0.74279   3
  -6  -1  -1 2.43435 0.54493   8
  -6  -1  -1 1.58553 0.66662   7
   6   1   1 2.14880 0.53481   6
   6   1   1 2.99001 0.63468   1
   6   1   1 3.35077 0.75590   9
   6   1   1 1.86803 0.57228   5
  -7  -1  -1 4.45994 0.95477   2
  -7  -1  -1 5.76683 1.29576   3
  -7  -1  -1 4.53812 1.14114   7
  -7  -1  -1 4.31210 0.91915   5
   7   1   1 2.96137 0.82338   5
   7   1   1 3.41640 1.02524   3
   7   1   1 4.92776 0.89448   6
  -8  -1  -1 46.8925 3.64808   3
  -8  -1  -1 40.8129 3.15672   2
  -8  -1  -1 41.4824 3.48655   7
   8   1   1 47.6939 2.99827   6
   8   1   1 45.3324 3.12655   5
   8   1   1 44.0466 3.48960   3
  -9  -1  -1 9.54510 1.87354   3
  -9  -1  -1 5.79877 1.35029   2
  -9  -1  -1 7.67234 1.80873   7
   9   1   1 10.8234 1.96249   3
   9   1   1 9.83560 1.55587   5
 -10  -1  -1 0.12573 1.09753   7
 -10  -1  -1 1.01884 1.13444   3
  10   1   1 1.89920 0.94610   5
  10   1   1 1.91581 1.24451   3
   9  -2  -1 44.1051 3.60540   7
   9  -2  -1 45.3502 3.54524   3
   9  -2  -1 46.4133 3.45560   2
  -9   2   1 38.6645 3.65138   7
  -9   2   1 38.4855 3.44508   2
   8  -2  -1 0.48065 0.63787   2
   8  -2  -1 -0.6746 0.63640   7
   8  -2  -1 0.03459 0.68398   3
  -8   2   1 0.55619 0.85906   7
  -8   2   1 0.39883 0.57839   8
  -8   2   1 -0.3898 0.40004   2
  -8   2   1 -0.2116 0.73335   3
   7  -2  -1 7.53084 1.18805   5
   7  -2  -1 7.29727 1.36065   7
   7  -2  -1 5.87310 1.31609   3
  -7   2   1 9.34441 1.65220   3
  -7   2   1 9.14381 1.35033   8
  -7   2   1 7.07991 1.43755   4
  -7   2   1 9.24172 1.67546   7
  -7   2   1 6.68139 1.29790   2
   6  -2  -1 2.44803 0.65207   5
   6  -2  -1 2.56430 0.59374   6
   6  -2  -1 2.34554 0.76688   9
   6  -2  -1 1.17020 0.57377   7
   6  -2  -1 2.72828 0.77230   3
   6  -2  -1 2.34813 0.64042   1
  -6   2   1 1.60260 0.66315   7
  -6   2   1 1.97490 0.51043   6
  -6   2   1 3.22406 0.78889   1
  -6   2   1 2.34226 0.81530   4
  -6   2   1 2.10549 0.73428   9
  -6   2   1 2.34736 0.74222   2
  -6   2   1 2.33762 0.63941   8
  -6   2   1 2.45033 0.79148   3
   5  -2  -1 4.69678 0.91395   7
   5  -2  -1 5.55099 0.79402   5
   5  -2  -1 5.08204 0.96786   3
   5  -2  -1 7.33342 1.16136   9
   5  -2  -1 5.50255 0.76202   6
  -5   2   1 4.29678 0.98403   9
  -5   2   1 6.24264 1.15328   7
  -5   2   1 5.09251 1.03311   3
  -5   2   1 6.22095 0.78220   6
  -5   2   1 4.33733 0.94329   2
  -5   2   1 5.95431 0.94190   8
  -5   2   1 5.95189 0.81467   5
  -5   2   1 3.94053 0.92299   4
  -5   2   1 5.18392 0.90298   1
   4  -2  -1 6.66853 0.75464   5
   4  -2  -1 5.41018 0.94903   9
   4  -2  -1 4.25339 0.77930   7
   4  -2  -1 5.27166 0.64774   6
   4  -2  -1 6.10743 0.92810   3
  -4   2   1 5.92295 0.72191   5
  -4   2   1 5.21044 0.84215   1
  -4   2   1 6.42974 0.96719   2
  -4   2   1 5.85877 1.00012   9
  -4   2   1 5.62893 0.96129   4
  -4   2   1 6.03729 0.68969   6
  -4   2   1 5.20184 0.77277   8
  -4   2   1 5.54369 0.92620   3
  -4   2   1 5.90189 0.99496   7
   3  -2  -1 280.203 11.7987   5
   3  -2  -1 264.494 12.2735   9
   3  -2  -1 256.848 12.0843   7
   3  -2  -1 267.218 12.0520   3
  -3   2   1 259.593 12.1249   2
  -3   2   1 277.871 11.7932   5
  -3   2   1 262.284 12.2325   7
  -3   2   1 266.015 12.0012   8
  -3   2   1 228.882 12.0106   1
  -3   2   1 276.714 12.1441   3
  -3   2   1 258.450 12.2396   4
  -3   2   1 234.808 12.2252   9
  -3   2   1 259.905 11.7403   6
   2  -2  -1 21.3396 1.33105   3
   2  -2  -1 23.6412 1.17966   5
   2  -2  -1 23.1047 1.54177   9
   2  -2  -1 21.5849 1.36672   2
   2  -2  -1 23.2270 1.41440   7
  -2   2   1 20.0135 1.52163   9
  -2   2   1 20.9428 1.41750   2
  -2   2   1 20.8375 1.34729   8
  -2   2   1 26.7290 1.56176   7
  -2   2   1 23.8469 1.17822   5
  -2   2   1 20.3134 1.16709   6
  -2   2   1 21.8437 1.50203   4
  -2   2   1 18.7762 1.38462   1
   1  -2  -1 136.956 6.03228   9
   1  -2  -1 117.019 5.79962   7
   1  -2  -1 120.314 5.80177   2
   1  -2  -1 135.229 5.54690   5
   1  -2  -1 126.285 5.72154   3
  -1   2   1 116.993 5.63982   6
  -1   2   1 120.854 5.86671   2
  -1   2   1 125.466 5.88851   1
  -1   2   1 125.842 5.92498   4
  -1   2   1 127.577 6.01305   9
  -1   2   1 124.308 5.79722   8
   0  -2  -1 582.380 24.6079   9
   0  -2  -1 541.014 24.3756   3
   0  -2  -1 529.078 24.4449   7
   0  -2  -1 547.290 24.2463   5
   0  -2  -1 530.894 24.4152   2
   0   2   1 547.981 24.5794   9
   0   2   1 575.721 24.4925   4
   0   2   1 576.119 24.4991   1
   0   2   1 540.251 24.3415   6
   0   2   1 565.596 24.3902   8
  -1  -2  -1 40.4413 1.91700   5
  -1  -2  -1 40.4726 2.02370   7
  -1  -2  -1 39.5481 2.00836   3
  -1  -2  -1 36.0977 2.05425   9
  -1  -2  -1 37.9721 1.90158   2
  -1  -2  -1 36.9800 1.78379   8
   1   2   1 36.7443 1.98989   1
   1   2   1 38.6845 2.09116   9
   1   2   1 41.2232 1.94023   6
   1   2   1 40.7354 1.91243   4
  -2  -2  -1 156.741 7.30325   3
  -2  -2  -1 158.570 7.14388   5
  -2  -2  -1 156.608 6.83766   8
  -2  -2  -1 169.182 7.29887   9
  -2  -2  -1 146.046 7.25998   7
  -2  -2  -1 155.259 7.06882   2
   2   2   1 152.601 7.11577   5
   2   2   1 155.674 6.95770   4
   2   2   1 152.351 7.25027   9
   2   2   1 150.558 7.10508   6
   2   2   1 151.805 7.13412   1
  -3  -2  -1 4.06805 0.54638   2
  -3  -2  -1 3.97718 0.31794   8
  -3  -2  -1 3.42388 0.66138   3
  -3  -2  -1 4.24473 0.70959   7
  -3  -2  -1 3.33144 0.54290   5
   3   2   1 3.56244 0.55063   5
   3   2   1 3.38468 0.52527   6
   3   2   1 3.66675 0.36153   4
   3   2   1 3.84408 0.54106   1
   3   2   1 3.36534 0.58352   9
  -4  -2  -1 50.3133 3.20329   3
  -4  -2  -1 56.3863 2.66948   8
  -4  -2  -1 53.4410 2.97277   5
  -4  -2  -1 52.9946 3.33874   9
  -4  -2  -1 49.6008 2.87234   2
  -4  -2  -1 50.5451 3.18794   7
   4   2   1 55.8539 2.90743   1
   4   2   1 53.1105 2.70588   4
   4   2   1 62.0674 3.13728   9
   4   2   1 51.7852 2.94663   5
   4   2   1 55.3090 2.93218   6
  -5  -2  -1 33.6937 2.58253   3
  -5  -2  -1 36.8374 2.00327   8
  -5  -2  -1 33.4515 2.56370   7
  -5  -2  -1 38.0667 2.35030   5
  -5  -2  -1 33.8186 2.23056   2
   5   2   1 39.4608 2.24875   1
   5   2   1 34.5899 2.21082   6
   5   2   1 31.9217 2.24687   5
   5   2   1 40.2297 2.45178   9
   5   2   1 37.2091 2.05641   4
  -6  -2  -1 16.4731 1.70965   5
  -6  -2  -1 15.4247 1.61816   2
  -6  -2  -1 13.7947 1.85554   3
  -6  -2  -1 12.4266 1.80538   7
   6   2   1 16.7782 1.51376   9
   6   2   1 14.1871 1.57636   5
   6   2   1 14.1037 1.28250   1
   6   2   1 12.8985 1.44604   6
  -7  -2  -1 0.06951 0.60506   3
  -7  -2  -1 0.11898 0.37170   5
  -7  -2  -1 -0.0363 0.42131   2
  -7  -2  -1 -0.5373 0.49890   7
   7   2   1 0.35334 0.40537   5
   7   2   1 0.74630 0.51326   1
   7   2   1 0.18618 0.34636   6
  -8  -2  -1 3.33282 0.91455   5
  -8  -2  -1 2.50328 0.85007   2
  -8  -2  -1 2.65788 1.00215   7
  -8  -2  -1 1.57579 1.05385   3
   8   2   1 1.86984 0.71658   6
   8   2   1 0.22989 0.56800   5
   8   2   1 1.90568 0.93839   3
  -9  -2  -1 0.83526 1.02078   3
  -9  -2  -1 0.31043 0.67024   7
   9   2   1 0.10748 0.67527   5
   9   2   1 -0.0530 0.50044   6
   9   2   1 0.98790 0.97851   3
 -10  -2  -1 6.86312 1.82999   3
 -10  -2  -1 5.70207 1.76423   7
  10   2   1 5.11834 1.59684   3
  10   2   1 6.52569 1.45150   5
   9  -3  -1 26.3442 3.10283   7
   9  -3  -1 25.2683 2.89496   2
   9  -3  -1 28.8359 3.14667   3
  -9   3   1 24.6977 3.23663   7
  -9   3   1 23.7567 2.67564   8
  -9   3   1 22.3105 2.97494   2
   8  -3  -1 11.9260 1.83967   7
   8  -3  -1 6.86287 1.38744   2
   8  -3  -1 6.71836 1.49918   3
  -8   3   1 6.38363 1.31236   8
  -8   3   1 9.60901 1.79906   7
  -8   3   1 7.09578 1.47386   2
   7  -3  -1 65.6919 4.10622   3
   7  -3  -1 58.8459 4.02725   7
   7  -3  -1 63.3867 3.98684   2
  -7   3   1 56.4897 4.19266   7
  -7   3   1 59.4348 4.08267   2
  -7   3   1 64.9506 3.92377   8
  -7   3   1 61.2843 4.23952   4
   6  -3  -1 32.6068 2.05269   5
   6  -3  -1 30.7842 2.31836   3
   6  -3  -1 25.0140 2.22182   7
  -6   3   1 30.4373 2.52514   7
  -6   3   1 25.7293 2.08517   8
  -6   3   1 25.7107 2.31805   2
  -6   3   1 26.9980 2.43708   4
   5  -3  -1 18.4983 1.75850   9
   5  -3  -1 19.5635 1.26827   6
   5  -3  -1 17.8626 1.58276   3
   5  -3  -1 18.3675 1.36514   5
   5  -3  -1 18.6546 1.66984   7
  -5   3   1 16.6646 1.54658   1
  -5   3   1 18.2206 1.24373   6
  -5   3   1 17.9438 1.74034   9
  -5   3   1 16.4700 1.73065   8
  -5   3   1 16.3766 1.98536   4
  -5   3   1 22.7174 1.93229   7
  -5   3   1 18.2458 1.66852   2
   4  -3  -1 26.2267 1.90492   7
   4  -3  -1 28.2732 1.87630   3
   4  -3  -1 25.3886 1.47226   6
   4  -3  -1 29.1159 1.61566   5
  -4   3   1 25.0589 1.46980   6
  -4   3   1 24.1058 1.96197   4
  -4   3   1 26.4504 1.94765   2
  -4   3   1 22.2617 1.95252   9
  -4   3   1 23.5990 1.74602   8
  -4   3   1 29.2505 2.11131   7
  -4   3   1 24.0556 1.81457   1
   3  -3  -1 36.4300 1.83328   5
   3  -3  -1 38.9888 2.32702   9
   3  -3  -1 28.7410 2.03313   2
   3  -3  -1 33.5268 2.15241   7
   3  -3  -1 37.3658 2.11657   3
  -3   3   1 32.7669 2.13435   1
  -3   3   1 36.7494 2.32410   4
  -3   3   1 30.6037 2.25703   9
  -3   3   1 33.3410 2.19467   2
  -3   3   1 33.7603 2.07374   8
  -3   3   1 34.4239 1.76162   6
  -3   3   1 32.5300 2.25775   7
   2  -3  -1 0.05469 0.16812   3
   2  -3  -1 0.87426 0.34966   9
   2  -3  -1 0.50926 0.15768   5
   2  -3  -1 0.23767 0.19776   2
   2  -3  -1 0.14448 0.21143   7
  -2   3   1 0.34012 0.22226   1
  -2   3   1 0.25448 0.29042   4
  -2   3   1 0.46317 0.15065   6
  -2   3   1 0.72353 0.27761   8
  -2   3   1 0.23346 0.23093   2
  -2   3   1 0.38959 0.30426   9
   1  -3  -1 650.280 29.2794   7
   1  -3  -1 649.392 28.8800   5
   1  -3  -1 716.737 29.4911   9
   1  -3  -1 667.870 29.1694   3
   1  -3  -1 643.953 29.2406   2
  -1   3   1 655.650 29.2153   8
  -1   3   1 664.460 29.3737   4
  -1   3   1 670.444 29.3119   1
  -1   3   1 646.283 29.3270   2
  -1   3   1 625.555 28.9907   6
  -1   3   1 667.633 29.4561   9
   0  -3  -1 275.025 12.8734   9
   0  -3  -1 282.198 12.6680   3
   0  -3  -1 279.377 12.7370   7
   0  -3  -1 276.380 12.6577   2
   0  -3  -1 284.050 12.4692   5
   0   3   1 278.136 12.5411   6
   0   3   1 281.436 12.7550   1
   0   3   1 287.064 12.8982   9
   0   3   1 290.013 12.6154   8
   0   3   1 288.448 12.7632   4
  -1  -3  -1 106.841 5.01359   2
  -1  -3  -1 112.348 5.18660   7
  -1  -3  -1 105.889 5.15388   3
  -1  -3  -1 111.206 5.02026   5
   1   3   1 107.609 5.18601   1
   1   3   1 111.675 4.89923   8
   1   3   1 106.426 5.31462   9
   1   3   1 109.066 5.08756   4
   1   3   1 104.814 5.02127   6
  -2  -3  -1 126.814 5.90672   2
  -2  -3  -1 126.358 6.16604   7
  -2  -3  -1 124.977 6.18079   3
  -2  -3  -1 132.976 6.03173   5
   2   3   1 123.922 6.23074   9
   2   3   1 127.986 6.09380   1
   2   3   1 135.490 6.02811   6
   2   3   1 127.332 5.91263   4
  -3  -3  -1 6.44251 0.68040   2
  -3  -3  -1 5.33280 0.84240   3
  -3  -3  -1 5.57603 0.72659   5
  -3  -3  -1 5.95588 0.86152   7
   3   3   1 5.95739 0.85283   9
   3   3   1 7.04329 0.84824   1
   3   3   1 6.10937 0.54926   4
   3   3   1 6.89649 0.78174   6
  -4  -3  -1 19.1325 1.65929   7
  -4  -3  -1 17.9466 1.32430   2
  -4  -3  -1 19.7231 1.67027   3
  -4  -3  -1 19.8787 1.46538   5
  -4  -3  -1 22.6425 1.09899   8
   4   3   1 20.3358 1.46745   1
   4   3   1 22.5497 1.25813   4
   4   3   1 17.5012 1.40177   6
   4   3   1 18.8357 1.42985   5
   4   3   1 21.7513 1.65069   9
  -5  -3  -1 62.0511 3.86130   3
  -5  -3  -1 59.1191 3.47068   5
  -5  -3  -1 55.0052 3.71214   7
  -5  -3  -1 58.9094 3.34708   2
   5   3   1 65.4913 3.70354   9
   5   3   1 64.5739 3.46874   1
   5   3   1 58.4874 3.40752   6
   5   3   1 56.0340 3.42562   5
   5   3   1 69.0211 3.17844   4
  -6  -3  -1 11.7370 1.75070   3
  -6  -3  -1 12.1016 1.44639   5
  -6  -3  -1 10.5736 1.66399   7
  -6  -3  -1 10.7396 1.33125   2
   6   3   1 11.7666 1.55805   9
   6   3   1 12.3639 1.42959   6
   6   3   1 13.7911 1.25469   1
   6   3   1 14.9011 1.61120   5
  -7  -3  -1 1.07792 0.78628   7
  -7  -3  -1 0.86932 0.58525   5
  -7  -3  -1 -0.2359 0.37135   2
  -7  -3  -1 0.30461 0.51432   3
   7   3   1 0.51360 0.39492   6
   7   3   1 0.20182 0.61566   9
   7   3   1 0.35524 0.48141   1
   7   3   1 -0.4125 0.43673   5
  -8  -3  -1 -0.0973 0.73617   3
  -8  -3  -1 -0.0895 0.51187   5
  -8  -3  -1 -0.0787 0.73948   7
   8   3   1 0.48032 0.58122   6
   8   3   1 1.26357 0.72236   5
  -9  -3  -1 35.2214 3.84317   3
  -9  -3  -1 36.9667 2.96169   5
  -9  -3  -1 33.8130 3.78391   7
   9   3   1 31.1574 3.58368   3
   9   3   1 40.9982 3.09038   5
   9   3   1 37.9728 2.83388   6
   9  -4  -1 2.45337 1.06307   7
   9  -4  -1 1.18615 1.06508   3
   9  -4  -1 0.61920 0.97562   2
  -9   4   1 4.18980 1.43545   7
  -9   4   1 1.31672 1.06160   2
  -9   4   1 2.85538 1.06811   8
   8  -4  -1 3.32260 1.06387   7
   8  -4  -1 5.02137 1.19482   3
   8  -4  -1 6.72362 1.45267   2
  -8   4   1 5.14099 1.49250   7
  -8   4   1 6.54241 1.45934   2
  -8   4   1 4.34088 1.05618   8
   7  -4  -1 -0.0126 0.60627   3
   7  -4  -1 0.28829 0.61022   2
   7  -4  -1 0.70995 0.60882   7
  -7   4   1 -0.1253 0.32912   8
  -7   4   1 -0.7223 0.57908   2
  -7   4   1 0.68746 0.77619   4
  -7   4   1 0.23234 0.65493   7
   6  -4  -1 11.1847 1.61990   7
   6  -4  -1 11.0582 1.54035   3
   6  -4  -1 7.19568 1.25181   2
  -6   4   1 8.61806 1.49782   2
  -6   4   1 8.33623 1.54771   7
  -6   4   1 7.19243 1.43191   4
  -6   4   1 6.18906 1.19650   8
   5  -4  -1 53.0342 2.71384   5
   5  -4  -1 48.9895 3.18741   7
   5  -4  -1 49.8899 3.05677   3
   5  -4  -1 48.3596 3.08354   2
  -5   4   1 43.4104 2.93602   1
  -5   4   1 43.5910 2.91389   8
  -5   4   1 46.8344 3.20407   2
  -5   4   1 41.0968 3.13583   4
  -5   4   1 44.4166 3.17222   9
  -5   4   1 48.1006 3.37891   7
   4  -4  -1 172.976 8.59058   2
   4  -4  -1 176.381 7.94859   6
   4  -4  -1 190.611 8.14044   5
   4  -4  -1 177.019 8.68757   7
   4  -4  -1 192.546 8.59448   3
  -4   4   1 162.479 8.75667   4
  -4   4   1 169.901 8.51010   8
  -4   4   1 170.428 8.56316   1
  -4   4   1 174.607 8.75049   2
  -4   4   1 174.197 8.01105   6
  -4   4   1 161.469 8.77583   9
   3  -4  -1 189.203 8.50191   3
   3  -4  -1 198.798 8.10244   5
   3  -4  -1 175.464 8.55976   2
   3  -4  -1 177.827 8.62559   7
  -3   4   1 172.215 8.72120   4
  -3   4   1 164.212 8.53520   1
  -3   4   1 183.384 8.73143   2
  -3   4   1 167.515 8.76663   9
  -3   4   1 175.363 8.50117   8
  -3   4   1 172.637 7.97513   6
   2  -4  -1 -0.1181 0.40815   9
   2  -4  -1 0.26051 0.23379   3
   2  -4  -1 -0.0016 0.09863   5
   2  -4  -1 0.59129 0.29310   2
   2  -4  -1 -0.0499 0.17554   7
  -2   4   1 0.04379 0.09331   6
  -2   4   1 0.07470 0.22087   4
  -2   4   1 -0.0301 0.18050   2
  -2   4   1 -0.3294 0.18734   1
  -2   4   1 -0.1957 0.19030   9
  -2   4   1 -0.0865 0.21899   8
   1  -4  -1 278.546 12.3881   3
   1  -4  -1 269.950 12.0205   5
   1  -4  -1 288.044 12.6934   9
   1  -4  -1 261.295 12.4068   2
   1  -4  -1 267.800 12.4907   7
  -1   4   1 262.626 12.5117   2
  -1   4   1 270.520 12.6523   9
  -1   4   1 277.138 12.1208   6
  -1   4   1 275.340 12.5789   4
  -1   4   1 271.847 12.4868   1
  -1   4   1 271.899 12.3818   8
   0  -4  -1 115.262 5.69080   2
   0  -4  -1 124.772 5.50971   5
   0  -4  -1 120.647 5.76075   3
   0  -4  -1 126.266 6.01776   9
   0  -4  -1 120.932 5.82778   7
   0   4   1 121.739 5.84928   4
   0   4   1 117.713 5.82636   1
   0   4   1 118.082 5.55663   6
   0   4   1 125.167 5.65582   8
   0   4   1 119.929 6.00369   9
  -1  -4  -1 2.89566 0.54161   7
  -1  -4  -1 2.01879 0.35909   5
  -1  -4  -1 1.84244 0.34522   2
  -1  -4  -1 2.33459 0.46705   3
   1   4   1 2.36121 0.58588   9
   1   4   1 3.37794 0.45472   6
   1   4   1 1.88599 0.28551   8
   1   4   1 3.00063 0.64832   1
   1   4   1 3.42394 0.55625   4
  -2  -4  -1 8.07516 0.69523   5
  -2  -4  -1 7.52288 0.38233   8
  -2  -4  -1 7.19949 0.59498   2
  -2  -4  -1 7.03006 0.93444   3
  -2  -4  -1 7.43585 0.91055   7
   2   4   1 9.01605 0.99652   1
   2   4   1 6.95002 0.66129   6
   2   4   1 7.00791 1.05970   9
   2   4   1 8.39944 0.74340   4
  -3  -4  -1 66.6514 3.79266   3
  -3  -4  -1 68.0709 3.56657   5
  -3  -4  -1 61.0614 3.69613   7
  -3  -4  -1 68.2879 3.37861   2
   3   4   1 77.2864 3.61984   6
   3   4   1 74.7778 3.92357   9
   3   4   1 65.8539 3.38993   4
   3   4   1 61.6204 3.58369   1
  -4  -4  -1 19.2563 1.49332   5
  -4  -4  -1 17.7185 1.63596   7
  -4  -4  -1 20.4986 1.33963   2
  -4  -4  -1 19.1463 1.67776   3
   4   4   1 18.4104 1.27656   4
   4   4   1 19.4911 1.45436   6
   4   4   1 21.3778 1.76034   9
   4   4   1 21.0480 1.54372   1
  -5  -4  -1 9.05959 1.07110   2
  -5  -4  -1 10.3724 1.30005   5
  -5  -4  -1 10.3134 1.48434   7
  -5  -4  -1 8.30627 1.37435   3
   5   4   1 11.9897 1.16246   1
   5   4   1 10.7437 0.91452   4
   5   4   1 9.57452 1.24468   6
   5   4   1 10.4806 1.27574   5
   5   4   1 9.94858 1.38220   9
  -6  -4  -1 61.1669 4.21068   7
  -6  -4  -1 59.3437 4.22215   3
  -6  -4  -1 65.0387 3.73591   2
  -6  -4  -1 71.0968 4.01394   5
   6   4   1 71.6090 3.96122   1
   6   4   1 73.0435 4.28146   9
   6   4   1 67.8743 3.89778   6
   6   4   1 64.9795 3.93529   5
  -7  -4  -1 19.6565 2.19980   5
  -7  -4  -1 19.6759 2.56660   3
  -7  -4  -1 20.9158 2.56024   7
   7   4   1 24.6599 2.29882   9
   7   4   1 21.1881 2.22054   5
   7   4   1 21.7839 1.86789   6
   7   4   1 21.6784 1.95114   1
  -8  -4  -1 0.62270 0.70856   5
  -8  -4  -1 -0.4174 0.71787   7
  -8  -4  -1 0.11341 0.85590   3
   8   4   1 1.45708 0.77241   5
   8   4   1 0.12895 0.59794   6
  -9  -4  -1 0.00670 0.64032   5
  -9  -4  -1 -0.8303 0.82979   3
  -9  -4  -1 0.11538 0.91285   7
   9   4   1 0.43451 0.76040   5
   9   4   1 0.55333 0.58374   6
   9  -5  -1 -0.0048 0.72905   7
   9  -5  -1 -0.3876 0.84511   2
  -9   5   1 0.51847 1.16937   2
  -9   5   1 0.95249 0.88281   8
   8  -5  -1 0.83391 0.82645   7
   8  -5  -1 0.46137 0.64958   3
   8  -5  -1 0.45389 0.85734   2
  -8   5   1 0.78691 0.93088   2
  -8   5   1 0.73815 0.75971   8
   7  -5  -1 2.16907 0.82166   3
   7  -5  -1 5.70186 1.30622   2
   7  -5  -1 3.38121 1.13947   7
  -7   5   1 4.09200 1.23571   4
  -7   5   1 6.29112 1.47690   2
  -7   5   1 5.15103 1.22266   8
   6  -5  -1 5.52281 1.23886   7
   6  -5  -1 5.93131 1.16898   2
   6  -5  -1 5.07063 1.08116   3
  -6   5   1 4.73506 0.99531   8
  -6   5   1 4.81443 1.20075   4
  -6   5   1 7.21761 1.38115   2
   5  -5  -1 1.19841 0.64996   3
   5  -5  -1 1.19613 0.58597   2
   5  -5  -1 2.37613 0.83528   7
  -5   5   1 0.32453 0.49774   8
  -5   5   1 2.89999 0.76652   1
  -5   5   1 2.04372 0.72330   9
  -5   5   1 -0.0028 0.51352   4
  -5   5   1 1.26900 0.63931   2
   4  -5  -1 14.5306 1.70677   7
   4  -5  -1 19.0278 1.58784   2
   4  -5  -1 18.7639 1.52790   3
  -4   5   1 15.9024 1.66691   8
  -4   5   1 18.2054 1.74238   4
  -4   5   1 15.6107 1.48646   1
  -4   5   1 14.0445 1.57507   9
  -4   5   1 17.0580 1.96347   2
   3  -5  -1 82.2029 4.56327   7
   3  -5  -1 88.0031 4.44316   3
   3  -5  -1 88.8975 3.95012   5
   3  -5  -1 84.8069 4.52290   2
  -3   5   1 80.5264 4.65491   4
  -3   5   1 82.2316 4.51410   1
  -3   5   1 77.9145 4.67797   9
  -3   5   1 83.1359 4.64691   2
  -3   5   1 82.4793 4.44080   8
   2  -5  -1 7.85087 1.03635   7
   2  -5  -1 7.90615 0.51898   5
   2  -5  -1 9.78283 1.10761   2
   2  -5  -1 8.18386 0.94834   3
  -2   5   1 7.00438 1.05467   4
  -2   5   1 7.33769 1.05538   2
  -2   5   1 7.54505 0.51165   6
  -2   5   1 8.18089 1.03185   1
  -2   5   1 7.98810 1.14407   9
  -2   5   1 7.36237 0.94651   8
   1  -5  -1 204.629 9.57215   2
   1  -5  -1 199.528 9.12949   5
   1  -5  -1 211.056 9.58105   3
   1  -5  -1 199.307 9.66557   7
  -1   5   1 201.244 9.84029   9
  -1   5   1 204.501 9.21035   6
  -1   5   1 210.133 9.71601   2
  -1   5   1 207.095 9.65840   1
  -1   5   1 203.335 9.50822   8
  -1   5   1 208.617 9.76709   4
   0  -5  -1 82.1057 4.11118   3
   0  -5  -1 76.7606 3.98084   2
   0  -5  -1 81.1096 3.78368   5
   0  -5  -1 77.9475 4.14004   7
   0   5   1 82.4553 4.19421   4
   0   5   1 79.8318 3.83071   6
   0   5   1 81.0032 4.38464   9
   0   5   1 82.7398 3.93921   8
   0   5   1 75.9079 4.16319   1
  -1  -5  -1 12.0305 0.90308   5
  -1  -5  -1 13.5365 0.93953   2
  -1  -5  -1 10.7521 1.03949   7
  -1  -5  -1 13.8330 1.11208   3
   1   5   1 13.1689 1.08044   4
   1   5   1 13.9092 0.85144   8
   1   5   1 11.5054 1.25303   9
   1   5   1 12.9863 1.25002   1
   1   5   1 12.8596 0.91404   6
  -2  -5  -1 0.60562 0.38340   3
  -2  -5  -1 0.52979 0.12711   8
  -2  -5  -1 0.76089 0.24787   2
  -2  -5  -1 1.01827 0.32277   5
  -2  -5  -1 1.58762 0.46679   7
   2   5   1 1.62391 0.60916   9
   2   5   1 0.99049 0.31471   6
   2   5   1 0.77344 0.15682   8
   2   5   1 1.34619 0.45839   4
   2   5   1 0.70159 0.56514   1
  -3  -5  -1 1.37569 0.49521   3
  -3  -5  -1 1.56507 0.52007   7
  -3  -5  -1 1.07758 0.41164   5
  -3  -5  -1 1.37284 0.33110   2
   3   5   1 1.21901 0.72118   9
   3   5   1 2.81723 0.58773   6
   3   5   1 1.33162 0.52667   1
   3   5   1 2.39090 0.55776   4
  -4  -5  -1 30.4190 2.25360   7
  -4  -5  -1 26.9886 1.96268   5
  -4  -5  -1 27.9204 1.73672   2
  -4  -5  -1 29.1725 2.26779   3
   4   5   1 30.0685 2.30403   9
   4   5   1 28.9323 1.95752   6
   4   5   1 29.4004 1.85098   4
   4   5   1 29.9179 2.09428   1
  -5  -5  -1 51.3878 3.09918   5
  -5  -5  -1 42.5477 3.25839   7
  -5  -5  -1 48.5237 3.41428   3
  -5  -5  -1 47.0199 2.77797   2
   5   5   1 52.9557 3.09749   5
   5   5   1 49.5972 3.37421   9
   5   5   1 52.1617 3.07687   6
   5   5   1 54.2565 3.20463   1
  -6  -5  -1 34.0592 2.48744   5
  -6  -5  -1 32.3778 2.78598   3
  -6  -5  -1 31.0005 2.75957   7
   6   5   1 36.0796 2.87614   9
   6   5   1 36.7863 2.58798   1
   6   5   1 35.0574 2.50431   5
   6   5   1 39.0522 2.55690   6
  -7  -5  -1 0.91763 0.83584   7
  -7  -5  -1 3.51769 0.95912   5
  -7  -5  -1 3.74835 1.11735   3
   7   5   1 2.30764 0.91488   1
   7   5   1 3.03601 0.89069   6
   7   5   1 2.42461 1.01163   9
   7   5   1 3.22010 0.94875   5
  -8  -5  -1 1.28194 1.05637   3
  -8  -5  -1 0.99003 0.82315   7
  -8  -5  -1 0.16727 0.70414   5
   8   5   1 0.86766 0.61646   6
   8   5   1 -0.5523 0.51205   1
   8   5   1 1.32825 0.78674   5
  -9  -5  -1 4.70684 1.26788   5
  -9  -5  -1 6.36588 1.76175   7
  -9  -5  -1 3.17018 1.26882   3
   9   5   1 1.20649 0.95435   5
   9   5   1 4.75573 1.13805   6
   8  -6  -1 13.8423 2.26074   7
   8  -6  -1 19.2109 2.53659   2
   8  -6  -1 13.7415 2.25163   3
  -8   6   1 15.9820 2.52065   2
  -8   6   1 17.0667 2.26415   8
   7  -6  -1 7.61759 1.49288   3
   7  -6  -1 12.1410 1.81956   2
   7  -6  -1 6.85479 1.56476   7
  -7   6   1 8.50338 1.51863   8
  -7   6   1 9.00571 1.74836   2
  -7   6   1 6.96572 1.70933   4
   6  -6  -1 8.25522 1.50931   7
   6  -6  -1 7.85807 1.30972   3
   6  -6  -1 5.14243 1.15561   2
  -6   6   1 7.03990 1.50897   4
  -6   6   1 5.25728 1.39822   2
  -6   6   1 6.88701 1.27045   8
   5  -6  -1 40.4311 2.84441   7
   5  -6  -1 32.9628 2.58250   2
   5  -6  -1 36.8252 2.60830   3
  -5   6   1 31.3846 2.68954   2
  -5   6   1 32.2423 2.75086   4
  -5   6   1 38.5230 2.67146   8
   4  -6  -1 185.613 9.03043   7
   4  -6  -1 192.027 8.80938   3
   4  -6  -1 181.580 8.90511   2
  -4   6   1 163.878 9.01188   4
  -4   6   1 179.653 9.09161   2
  -4   6   1 166.923 8.77348   1
  -4   6   1 166.393 9.06468   9
  -4   6   1 177.206 8.78558   8
   3  -6  -1 67.0515 3.74087   7
   3  -6  -1 59.0786 3.54619   2
   3  -6  -1 63.7672 3.52267   3
  -3   6   1 61.8978 3.80078   4
  -3   6   1 58.8326 3.49241   8
  -3   6   1 57.4495 3.73692   9
  -3   6   1 60.1447 3.56911   1
  -3   6   1 56.5276 3.65446   2
   2  -6  -1 38.2101 2.37706   2
   2  -6  -1 33.8112 2.41239   7
   2  -6  -1 38.0719 2.34703   3
   2  -6  -1 37.4849 1.82025   5
  -2   6   1 39.2037 2.57415   4
  -2   6   1 36.8323 2.40910   1
  -2   6   1 30.7640 2.21823   8
  -2   6   1 37.3911 2.08957   6
  -2   6   1 39.0894 2.51486   2
  -2   6   1 36.2305 2.54734   9
   1  -6  -1 4.26152 0.77183   3
   1  -6  -1 4.15346 0.71066   2
   1  -6  -1 4.91221 0.48557   5
   1  -6  -1 3.23168 0.70578   7
  -1   6   1 4.72160 0.73078   8
  -1   6   1 5.04729 0.88917   4
  -1   6   1 4.94467 0.97960   9
  -1   6   1 4.74831 0.54623   6
  -1   6   1 3.90746 0.79718   1
   0  -6  -1 46.2184 2.64626   3
   0  -6  -1 44.0050 2.66629   7
   0  -6  -1 45.7875 2.27560   5
   0  -6  -1 40.7216 2.44791   2
   0   6   1 44.4354 2.70871   1
   0   6   1 42.7339 2.69965   4
   0   6   1 43.5636 2.30953   6
   0   6   1 42.3740 2.91622   9
   0   6   1 44.3557 2.41377   8
  -1  -6  -1 0.20581 0.20151   5
  -1  -6  -1 0.04625 0.30613   7
  -1  -6  -1 -0.0403 0.16918   2
  -1  -6  -1 -0.1075 0.26941   3
   1   6   1 0.43286 0.37430   4
   1   6   1 0.29006 0.20958   8
   1   6   1 0.78309 0.59927   9
   1   6   1 0.43232 0.64088   1
   1   6   1 0.31851 0.21450   6
  -2  -6  -1 64.8998 3.71320   3
  -2  -6  -1 64.7083 3.64964   7
  -2  -6  -1 63.7813 3.38830   5
  -2  -6  -1 61.5263 3.22736   2
   2   6   1 66.6232 3.55537   4
   2   6   1 68.6285 3.74055   1
   2   6   1 60.3848 3.86736   9
   2   6   1 63.1767 3.37706   6
  -3  -6  -1 43.2586 2.32742   2
  -3  -6  -1 40.7078 2.83348   3
  -3  -6  -1 42.7968 2.56126   5
  -3  -6  -1 42.8028 2.78981   7
   3   6   1 44.3224 2.59921   4
   3   6   1 42.4591 2.84892   1
   3   6   1 45.0258 3.13013   9
   3   6   1 42.3991 2.56356   6
  -4  -6  -1 13.1962 1.44059   5
  -4  -6  -1 14.2226 1.76844   3
  -4  -6  -1 12.6817 1.02726   2
  -4  -6  -1 14.8404 1.75869   7
   4   6   1 13.0694 1.58715   1
   4   6   1 13.4143 1.86859   9
   4   6   1 14.3631 1.27214   6
   4   6   1 12.5592 1.22430   4
  -5  -6  -1 1.78255 0.59687   5
  -5  -6  -1 2.58553 0.83075   3
  -5  -6  -1 1.54859 0.73782   7
   5   6   1 1.83769 0.58347   5
   5   6   1 1.65351 0.96086   9
   5   6   1 2.30681 0.67207   6
   5   6   1 2.94220 0.86272   1
  -6  -6  -1 4.97571 1.22092   7
  -6  -6  -1 3.17490 0.81946   5
  -6  -6  -1 2.94032 1.01252   3
   6   6   1 3.37137 0.84108   5
   6   6   1 3.01103 0.88656   6
   6   6   1 3.37354 1.20119   9
   6   6   1 3.20614 1.06126   1
  -7  -6  -1 0.73195 0.80293   7
  -7  -6  -1 0.48455 0.64429   3
  -7  -6  -1 0.27362 0.48146   5
   7   6   1 1.22907 0.63921   5
   7   6   1 -1.2628 0.85161   9
   7   6   1 0.40711 0.62179   6
   7   6   1 0.20286 0.63302   1
  -8  -6  -1 -0.4407 0.50093   7
  -8  -6  -1 0.08346 0.64599   3
  -8  -6  -1 -0.1150 0.45182   5
   8   6   1 0.53113 0.71377   6
   8   6   1 -0.1197 0.98343   1
   8   6   1 0.02779 0.49870   5
  -9  -6  -1 38.4253 3.56782   7
  -9  -6  -1 34.1301 4.05777   3
  -9  -6  -1 38.9369 3.18576   5
   9   6   1 44.2307 3.38454   6
   9   6   1 38.9070 3.18881   5
   8  -7  -1 0.59263 0.75578   2
   8  -7  -1 1.17567 0.85185   7
  -8   7   1 1.31425 0.95255   2
  -8   7   1 0.77867 0.70028   8
  -8   7   1 1.49354 1.00553   4
   7  -7  -1 0.81025 0.75082   7
   7  -7  -1 0.74759 0.81142   2
   7  -7  -1 0.40070 0.73586   3
  -7   7   1 0.75176 0.91565   4
  -7   7   1 1.02075 0.84091   8
  -7   7   1 -0.8816 0.78481   2
   6  -7  -1 28.0227 2.63647   7
   6  -7  -1 34.7458 2.62787   3
   6  -7  -1 28.8727 2.54475   2
  -6   7   1 28.0824 2.45764   8
  -6   7   1 30.8892 2.85383   4
  -6   7   1 26.0559 3.00777   2
   5  -7  -1 1.42591 0.77468   7
   5  -7  -1 1.06002 0.56302   3
   5  -7  -1 1.55370 0.81335   2
  -5   7   1 0.81509 0.64395   4
  -5   7   1 0.57992 0.74721   2
  -5   7   1 1.38459 0.61872   8
   4  -7  -1 156.291 8.44817   7
   4  -7  -1 180.262 8.36435   3
   4  -7  -1 164.141 8.39184   2
  -4   7   1 164.296 8.60393   2
  -4   7   1 156.298 8.28778   1
  -4   7   1 165.189 8.66883   9
  -4   7   1 153.991 8.57121   4
  -4   7   1 162.239 8.28771   8
   3  -7  -1 4.30824 0.86687   3
   3  -7  -1 3.49676 0.96740   7
   3  -7  -1 4.08099 0.93095   2
  -3   7   1 3.71584 0.90403   4
  -3   7   1 3.36745 0.83488   1
  -3   7   1 4.74935 1.07422   2
  -3   7   1 4.10707 0.96060   9
  -3   7   1 5.24439 0.94964   8
   2  -7  -1 179.143 8.54783   2
   2  -7  -1 162.428 8.61298   7
   2  -7  -1 179.441 8.54418   3
  -2   7   1 170.192 8.42804   8
  -2   7   1 177.553 8.86719   9
  -2   7   1 169.503 8.56417   1
  -2   7   1 173.162 8.69737   2
  -2   7   1 171.937 8.77640   4
   1  -7  -1 164.183 7.74948   3
   1  -7  -1 148.529 7.57563   2
   1  -7  -1 163.976 7.86624   7
   1  -7  -1 151.271 7.09308   5
  -1   7   1 159.882 7.79205   1
  -1   7   1 158.229 8.06627   9
  -1   7   1 153.195 7.51917   8
  -1   7   1 148.432 7.14532   6
  -1   7   1 154.865 7.88608   4
   0  -7  -1 8.05680 1.10320   3
   0  -7  -1 6.32406 0.72553   5
   0  -7  -1 9.73443 1.25875   7
   0  -7  -1 7.25091 0.92595   2
   0   7   1 6.59229 1.26685   9
   0   7   1 9.77064 1.27918   4
   0   7   1 9.12778 1.36723   1
   0   7   1 7.78734 0.91391   8
   0   7   1 9.26693 0.80880   6
  -1  -7  -1 195.449 9.10122   2
  -1  -7  -1 191.640 9.04143   5
  -1  -7  -1 191.509 9.48491   3
  -1  -7  -1 190.152 9.47022   7
   1   7   1 209.413 9.63746   1
   1   7   1 192.751 9.81418   9
   1   7   1 198.005 9.46327   4
   1   7   1 189.698 8.94808   8
   1   7   1 191.524 9.05849   6
  -2  -7  -1 128.405 6.66345   3
  -2  -7  -1 125.149 6.23800   5
  -2  -7  -1 137.011 6.67956   7
  -2  -7  -1 122.501 6.07568   2
   2   7   1 126.168 6.47330   4
   2   7   1 126.355 6.93109   9
   2   7   1 136.764 6.76247   1
   2   7   1 121.372 6.22410   6
  -3  -7  -1 90.1806 4.78275   5
  -3  -7  -1 93.8492 5.23302   3
  -3  -7  -1 93.1385 5.12592   7
  -3  -7  -1 85.9171 4.47305   2
   3   7   1 93.4456 5.44267   9
   3   7   1 92.7301 5.13919   1
   3   7   1 92.8526 4.79665   6
   3   7   1 91.9128 4.87072   4
  -4  -7  -1 0.91488 0.51749   7
  -4  -7  -1 1.11558 0.58816   3
  -4  -7  -1 0.06378 0.29505   5
   4   7   1 -0.3515 0.71083   1
   4   7   1 0.65422 0.43553   6
   4   7   1 -0.2990 0.92113   9
   4   7   1 0.84918 0.66777   4
  -5  -7  -1 8.13346 1.51219   3
  -5  -7  -1 8.02456 1.21402   5
  -5  -7  -1 6.54021 1.26725   7
   5   7   1 5.29790 1.52308   9
   5   7   1 7.04485 1.16755   6
   5   7   1 7.38691 1.14111   5
   5   7   1 6.92545 1.44233   1
  -6  -7  -1 30.4439 2.75984   7
  -6  -7  -1 29.6157 2.41967   5
  -6  -7  -1 32.8909 2.90537   3
   6   7   1 32.9107 3.04409   9
   6   7   1 29.5998 2.72776   1
   6   7   1 34.7189 2.54026   5
   6   7   1 39.4147 2.70565   6
  -7  -7  -1 6.55597 1.32716   5
  -7  -7  -1 5.48387 1.38382   7
  -7  -7  -1 4.77528 1.36475   3
   7   7   1 5.93711 1.23871   5
   7   7   1 5.98578 1.54283   1
   7   7   1 6.63561 1.30083   6
  -8  -7  -1 8.29844 1.87521   7
  -8  -7  -1 2.05894 1.06779   3
  -8  -7  -1 3.39108 1.15005   5
   8   7   1 4.38058 1.37500   1
   8   7   1 5.97768 1.33602   6
   8   7   1 4.89998 1.25401   5
   7  -8  -1 8.59936 1.78098   7
   7  -8  -1 8.88668 1.69886   2
  -7   8   1 6.74393 1.71338   4
  -7   8   1 7.94560 1.57455   8
  -7   8   1 8.46761 1.79863   2
   6  -8  -1 2.23591 0.97046   3
   6  -8  -1 2.13250 0.91225   2
   6  -8  -1 1.73794 0.88190   7
  -6   8   1 1.34671 0.81758   2
  -6   8   1 2.80797 1.10028   4
  -6   8   1 3.20130 1.08473   8
   5  -8  -1 3.77994 1.02699   2
   5  -8  -1 4.59410 1.09603   3
   5  -8  -1 2.47618 0.93235   7
  -5   8   1 3.82901 1.18808   4
  -5   8   1 1.86887 0.77959   8
  -5   8   1 3.10100 1.03471   2
   4  -8  -1 72.6665 4.13563   3
   4  -8  -1 70.8723 4.18713   2
   4  -8  -1 60.7599 4.18862   7
  -4   8   1 66.6619 4.41282   4
  -4   8   1 63.2499 4.02172   1
  -4   8   1 56.8436 3.87838   8
  -4   8   1 62.9117 4.25068   2
   3  -8  -1 20.2562 2.13876   2
   3  -8  -1 17.8621 2.11014   7
   3  -8  -1 18.7203 1.76894   3
  -3   8   1 21.6710 1.83264   8
  -3   8   1 20.2347 1.93666   9
  -3   8   1 21.9119 2.09816   4
  -3   8   1 15.6544 1.90343   1
  -3   8   1 18.7360 2.19338   2
   2  -8  -1 108.289 5.93291   7
   2  -8  -1 110.092 5.74839   2
   2  -8  -1 112.508 5.81513   3
  -2   8   1 106.388 5.63129   8
  -2   8   1 106.086 6.01669   4
  -2   8   1 103.521 6.05250   9
  -2   8   1 104.329 5.78174   1
   1  -8  -1 16.6747 1.49367   2
   1  -8  -1 16.1135 1.82442   7
   1  -8  -1 17.7834 1.61760   3
  -1   8   1 17.5249 1.41972   8
  -1   8   1 16.7859 1.65648   1
  -1   8   1 18.5045 1.75095   4
  -1   8   1 17.3117 1.83856   9
   0  -8  -1 229.043 10.9597   2
   0  -8  -1 234.080 11.3298   7
   0  -8  -1 230.010 11.2677   3
   0  -8  -1 231.334 10.6517   5
   0   8   1 246.441 11.4451   4
   0   8   1 221.684 11.2892   1
   0   8   1 245.793 10.9033   8
   0   8   1 226.462 10.6963   6
   0   8   1 228.517 11.6602   9
  -1  -8  -1 53.5561 3.38963   3
  -1  -8  -1 53.0076 2.93921   5
  -1  -8  -1 50.3266 2.96919   2
  -1  -8  -1 52.4291 3.36120   7
   1   8   1 52.1882 2.96225   6
   1   8   1 55.5089 2.88666   8
   1   8   1 55.6493 3.89138   9
   1   8   1 54.4033 3.58438   1
   1   8   1 56.2067 3.40504   4
  -2  -8  -1 82.3929 4.81861   7
  -2  -8  -1 83.8422 4.43432   5
  -2  -8  -1 85.5484 4.29937   2
  -2  -8  -1 85.4733 4.92967   3
   2   8   1 90.6212 4.81859   4
   2   8   1 80.3740 4.41979   6
   2   8   1 85.0925 5.32078   9
   2   8   1 85.3282 4.93732   1
  -3  -8  -1 17.6512 2.02950   7
  -3  -8  -1 21.2372 2.25568   3
  -3  -8  -1 19.7330 1.55000   5
   3   8   1 17.2018 2.05380   1
   3   8   1 16.2204 1.63560   4
   3   8   1 16.9437 1.45189   6
   3   8   1 14.2661 2.23400   9
  -4  -8  -1 10.6646 1.61664   7
  -4  -8  -1 11.0944 1.74593   3
  -4  -8  -1 12.2178 1.48418   5
   4   8   1 10.2639 1.42087   6
   4   8   1 11.6148 1.74330   1
   4   8   1 11.8996 1.51576   4
   4   8   1 11.6024 1.98520   9
  -5  -8  -1 5.06068 1.00392   5
  -5  -8  -1 3.59258 1.16924   3
  -5  -8  -1 4.76651 1.21126   7
   5   8   1 4.82582 0.95422   5
   5   8   1 3.90195 1.36173   1
   5   8   1 5.13553 1.02817   6
  -6  -8  -1 0.26039 0.61358   7
  -6  -8  -1 0.19536 0.57093   3
  -6  -8  -1 -0.2217 0.34782   5
   6   8   1 -0.3563 0.39050   5
   6   8   1 -1.5090 0.49392   1
   6   8   1 -0.6475 0.57198   6
  -7  -8  -1 0.14479 0.76626   7
  -7  -8  -1 -0.1504 0.53727   5
  -7  -8  -1 -0.0562 0.61908   3
   7   8   1 -0.8001 0.56757   5
   7   8   1 -0.5036 0.73224   1
   7   8   1 0.02028 0.51523   6
  -8  -8  -1 1.34328 0.94501   5
  -8  -8  -1 0.67007 0.85754   3
  -8  -8  -1 1.41194 1.07103   7
   8   8   1 -1.8460 1.27174   1
   8   8   1 1.07217 0.99434   6
   8   8   1 1.18231 0.91707   5
   7  -9  -1 5.70642 1.54550   2
   7  -9  -1 3.54358 1.46114   7
  -7   9   1 5.24712 1.55124   4
  -7   9   1 4.79122 1.27425   8
  -7   9   1 1.81830 1.31981   2
   6  -9  -1 2.68073 1.04021   3
   6  -9  -1 1.93603 0.96730   7
   6  -9  -1 1.76434 1.05388   2
  -6   9   1 2.06330 0.88878   4
  -6   9   1 2.50014 0.87543   8
  -6   9   1 1.33344 1.05245   2
   5  -9  -1 0.78227 0.68344   3
   5  -9  -1 1.27837 0.69949   2
   5  -9  -1 1.20934 0.75886   7
  -5   9   1 1.15518 0.77796   4
  -5   9   1 1.06835 0.63802   8
  -5   9   1 1.53807 0.80764   2
   4  -9  -1 1.36908 0.74305   3
   4  -9  -1 2.55428 0.90714   2
   4  -9  -1 0.92032 0.68825   7
  -4   9   1 1.47434 0.64579   8
  -4   9   1 1.62753 0.82578   2
  -4   9   1 1.80225 0.99798   4
   3  -9  -1 45.1017 3.26878   2
   3  -9  -1 51.8185 3.54656   7
   3  -9  -1 47.0772 3.27094   3
  -3   9   1 50.5257 3.56134   9
  -3   9   1 51.3736 3.68401   4
  -3   9   1 47.6685 3.30421   1
  -3   9   1 47.9592 3.21031   8
   2  -9  -1 62.8999 3.87451   2
   2  -9  -1 57.0822 3.97157   7
   2  -9  -1 63.0943 3.95569   3
  -2   9   1 62.3881 3.75822   8
  -2   9   1 62.2555 4.15535   4
  -2   9   1 67.6605 4.32705   9
  -2   9   1 67.1317 4.02469   1
   1  -9  -1 80.9097 4.53751   2
   1  -9  -1 82.3658 4.76361   3
   1  -9  -1 78.2557 4.79173   7
  -1   9   1 82.0560 5.13071   9
  -1   9   1 78.8814 4.43372   8
  -1   9   1 85.0378 4.87748   1
  -1   9   1 81.7260 4.94316   4
   0  -9  -1 98.6068 5.36201   3
   0  -9  -1 93.3484 5.32903   7
   0  -9  -1 97.6925 4.98482   2
   0   9   1 95.7929 5.40183   4
   0   9   1 90.4109 4.82369   8
   0   9   1 88.3579 5.30490   1
   0   9   1 87.8719 5.67457   9
  -1  -9  -1 33.9849 2.27554   2
  -1  -9  -1 35.2914 2.24583   5
  -1  -9  -1 36.1837 2.74818   7
  -1  -9  -1 42.7338 2.89376   3
   1   9   1 36.6108 2.94936   1
   1   9   1 40.7574 2.79757   4
   1   9   1 35.2765 2.28457   6
   1   9   1 36.7753 3.25152   9
  -2  -9  -1 5.49735 0.87489   5
  -2  -9  -1 2.80878 0.83939   7
  -2  -9  -1 5.31828 1.12733   3
   2   9   1 4.13697 0.97678   4
   2   9   1 5.43495 0.93043   6
   2   9   1 3.63243 1.32350   9
   2   9   1 4.28064 1.18868   1
  -3  -9  -1 41.9961 3.25564   3
  -3  -9  -1 44.6009 2.81625   5
  -3  -9  -1 47.2564 3.25670   7
   3   9   1 46.8377 2.88634   6
   3   9   1 37.3862 3.13045   1
   3   9   1 42.9542 3.57173   9
   3   9   1 46.3009 3.08637   4
  -4  -9  -1 0.20344 0.71870   3
  -4  -9  -1 -0.4450 0.58521   7
  -4  -9  -1 -0.3200 0.42876   5
   4   9   1 -1.4641 0.41182   6
   4   9   1 -0.7218 0.63555   1
   4   9   1 0.05793 0.67870   4
  -5  -9  -1 19.1541 2.46572   7
  -5  -9  -1 15.2546 2.26440   3
  -5  -9  -1 20.3401 2.12020   5
   5   9   1 16.2175 1.88804   5
   5   9   1 21.4261 2.61321   1
   5   9   1 19.8958 2.16334   6
  -6  -9  -1 -0.0688 0.56986   7
  -6  -9  -1 0.22011 0.42057   5
  -6  -9  -1 -0.0301 0.62964   3
   6   9   1 1.35903 0.65217   5
   6   9   1 -0.4182 1.13661   1
   6   9   1 0.34351 0.85535   6
  -7  -9  -1 0.63354 0.83355   3
  -7  -9  -1 3.63798 1.11865   5
  -7  -9  -1 2.77227 1.24004   7
   7   9   1 1.19058 1.51263   1
   7   9   1 1.65226 0.88286   6
   7   9   1 4.45947 1.24625   5
   6 -10  -1 1.41509 0.84676   2
   6 -10  -1 0.93310 0.79178   7
  -6  10   1 0.61006 0.83771   2
  -6  10   1 2.33945 1.12387   4
  -6  10   1 1.72758 1.01682   8
   5 -10  -1 2.72632 1.10808   3
   5 -10  -1 3.15415 1.16360   2
   5 -10  -1 4.28009 1.36705   7
  -5  10   1 2.73232 1.10124   4
  -5  10   1 5.11523 1.51520   2
  -5  10   1 5.11586 1.31286   8
   4 -10  -1 0.01290 0.48560   3
   4 -10  -1 0.15272 0.61657   2
   4 -10  -1 -0.6231 0.45206   7
  -4  10   1 1.22189 0.75750   8
  -4  10   1 0.65375 0.77341   4
   3 -10  -1 0.28202 0.63542   3
   3 -10  -1 0.52034 0.61726   7
   3 -10  -1 0.18656 0.42529   2
  -3  10   1 -0.2314 0.41942   4
  -3  10   1 -0.2133 0.38029   8
  -3  10   1 0.81292 0.52001   1
   2 -10  -1 24.8779 2.21560   2
   2 -10  -1 25.5712 2.34208   3
   2 -10  -1 29.7221 2.59049   7
  -2  10   1 24.5483 2.08616   8
  -2  10   1 28.9146 2.63653   9
  -2  10   1 25.8357 2.54075   4
  -2  10   1 31.0937 2.46207   1
   1 -10  -1 6.87873 1.12895   2
   1 -10  -1 3.92425 1.06762   7
   1 -10  -1 4.82105 1.10801   3
  -1  10   1 5.55895 1.01055   8
  -1  10   1 5.80703 1.26309   4
  -1  10   1 5.43577 1.26582   1
  -1  10   1 5.87192 1.39690   9
   0 -10  -1 67.9152 4.27425   7
   0 -10  -1 63.6162 3.77087   2
   0 -10  -1 63.4966 4.17367   3
   0  10   1 68.7091 4.30790   4
   0  10   1 65.1911 4.67890   9
   0  10   1 61.5080 4.27603   1
  -1 -10  -1 8.95842 1.58900   7
  -1 -10  -1 13.0802 1.87586   3
   1  10   1 15.0505 1.92964   4
   1  10   1 13.7272 2.00121   1
   1  10   1 11.7984 2.24573   9
  -2 -10  -1 0.64203 0.61473   3
  -2 -10  -1 1.54203 0.86367   7
   2  10   1 1.27723 1.26259   1
   2  10   1 1.56464 0.78935   4
   2  10   1 1.31634 0.67363   6
  -3 -10  -1 33.4312 2.84700   3
  -3 -10  -1 31.2046 2.66389   7
  -3 -10  -1 29.6981 2.22308   5
   3  10   1 33.0236 2.59108   4
   3  10   1 30.5179 2.98214   1
   3  10   1 27.9150 2.20332   6
  -4 -10  -1 0.06675 0.39630   5
  -4 -10  -1 0.36597 0.63732   3
  -4 -10  -1 -0.2057 0.48859   7
   4  10   1 -0.4997 1.18417   1
   4  10   1 -0.8594 0.29770   6
  -5 -10  -1 -0.6370 0.70542   3
  -5 -10  -1 0.62280 0.75683   7
  -5 -10  -1 0.05214 0.60823   5
   5  10   1 -2.4348 1.07567   1
   5  10   1 0.54462 0.54953   5
   5  10   1 -1.6583 0.60972   6
  -6 -10  -1 1.21652 0.77568   5
  -6 -10  -1 4.66202 1.41432   7
  -6 -10  -1 1.32523 1.10624   3
   6  10   1 0.64706 0.74242   5
   6  10   1 2.99428 1.15927   6
   6  10   1 0.52480 1.11844   1
  -7 -10  -1 4.22142 1.32340   7
  -7 -10  -1 3.81908 1.09450   5
   7  10   1 1.82918 1.37186   1
   7  10   1 4.14217 1.23653   6
   7  10   1 1.49133 0.86087   5
   5 -11  -1 -0.4197 0.82787   7
   5 -11  -1 0.51505 0.81988   2
  -5  11   1 1.21219 0.92195   4
  -5  11   1 1.04681 0.90159   8
   4 -11  -1 55.4112 4.11332   7
   4 -11  -1 54.1022 3.90268   3
   4 -11  -1 51.0446 3.82711   2
  -4  11   1 49.3433 3.68040   8
  -4  11   1 49.6236 4.17047   4
   3 -11  -1 6.15392 1.29574   2
   3 -11  -1 4.98338 1.26920   3
   3 -11  -1 4.80737 1.33255   7
  -3  11   1 6.47660 1.27183   1
  -3  11   1 7.12877 1.56917   4
  -3  11   1 5.64595 1.24190   8
   2 -11  -1 1.71301 0.84190   3
   2 -11  -1 -1.0384 0.63081   7
   2 -11  -1 -0.4967 0.46302   2
  -2  11   1 0.07069 0.49372   4
  -2  11   1 0.65481 0.61055   8
  -2  11   1 0.37081 0.59590   1
   1 -11  -1 39.6802 3.09502   7
   1 -11  -1 38.5190 3.03564   3
   1 -11  -1 34.1074 2.63548   2
  -1  11   1 34.2494 3.00225   4
  -1  11   1 39.7885 3.15883   1
  -1  11   1 33.7078 2.62444   8
   0 -11  -1 9.24410 1.69600   3
   0 -11  -1 10.9719 1.81309   7
   0  11   1 10.5793 1.98163   1
   0  11   1 9.80576 1.68197   4
  -1 -11  -1 0.15401 0.53464   7
  -1 -11  -1 0.74113 0.66843   3
   1  11   1 1.83113 0.82250   4
   1  11   1 1.15685 1.02068   1
  -2 -11  -1 -0.2673 0.68054   3
  -2 -11  -1 0.04480 0.53835   7
   2  11   1 1.21782 0.80093   4
   2  11   1 -0.8820 0.83041   1
  -3 -11  -1 12.0998 1.88027   7
  -3 -11  -1 8.90139 1.71590   3
   3  11   1 8.94986 1.90699   1
   3  11   1 8.29075 1.39628   6
   3  11   1 8.32424 1.61401   4
  -4 -11  -1 5.57946 1.40765   7
  -4 -11  -1 6.35980 1.48751   3
  -4 -11  -1 4.56742 1.07441   5
   4  11   1 5.22405 1.26810   6
   4  11   1 4.69917 1.59970   1
  -5 -11  -1 0.94670 0.79046   7
  -5 -11  -1 0.90455 1.05955   3
  -5 -11  -1 0.49828 0.68770   5
   5  11   1 0.71803 0.70232   5
   5  11   1 -0.1003 0.64151   6
   5  11   1 -1.2814 0.96092   1
  -6 -11  -1 10.4519 1.75670   5
  -6 -11  -1 12.7058 2.41492   3
  -6 -11  -1 14.6986 2.41345   7
   6  11   1 10.0294 2.46464   1
   6  11   1 10.6383 1.84696   6
   6  11   1 10.8149 1.73054   5
   4 -12  -1 23.3356 2.79203   2
   4 -12  -1 26.6177 3.19665   7
  -4  12   1 19.6050 2.88566   4
  -4  12   1 21.6228 2.61547   8
   3 -12  -1 19.4112 2.51196   3
   3 -12  -1 17.6404 2.28338   2
   3 -12  -1 15.7428 2.46470   7
  -3  12   1 12.9914 1.96065   8
  -3  12   1 16.8474 2.58612   4
   2 -12  -1 2.41630 0.97785   3
   2 -12  -1 0.61019 0.75119   7
  -2  12   1 3.62603 1.24587   4
  -2  12   1 1.66682 0.68664   1
  -2  12   1 0.47149 0.75646   8
   1 -12  -1 54.1870 4.06441   3
   1 -12  -1 66.9442 4.49007   7
  -1  12   1 58.3180 4.28344   1
  -1  12   1 56.5001 4.31911   4
   0 -12  -1 12.7346 2.04684   7
   0 -12  -1 9.97781 1.76734   3
   0  12   1 9.35882 1.69730   4
   0  12   1 8.61928 1.95592   1
  -1 -12  -1 1.14116 0.74506   3
  -1 -12  -1 1.94539 0.81969   7
   1  12   1 0.63147 1.02851   1
   1  12   1 2.40028 1.01956   4
  -2 -12  -1 18.5596 2.52753   7
  -2 -12  -1 21.7532 2.71049   3
   2  12   1 20.7400 2.54286   4
   2  12   1 15.8228 2.51113   1
  -3 -12  -1 1.14926 0.96771   3
  -3 -12  -1 1.65202 1.03013   7
   3  12   1 1.53631 1.04405   4
   3  12   1 1.77176 1.73067   1
  -4 -12  -1 0.43804 0.64434   7
  -4 -12  -1 0.29193 1.05453   3
   4  12   1 -0.7467 0.57304   6
   4  12   1 1.00337 1.69682   1
  -5 -12  -1 9.24743 2.16896   3
  -5 -12  -1 13.2329 2.31608   7
   5  12   1 21.5299 2.53809   6
   2 -13  -1 6.82710 1.51345   3
   2 -13  -1 7.29395 1.76854   7
  -2  13   1 7.93959 1.50223   1
  -2  13   1 8.78462 1.90206   4
   1 -13  -1 3.51683 1.28202   3
   1 -13  -1 3.88636 1.20929   7
  -1  13   1 3.33647 1.25468   4
  -1  13   1 3.66000 1.35149   1
   0 -13  -1 12.0078 2.08881   7
   0 -13  -1 13.0013 2.17102   3
   0  13   1 13.0716 2.15586   4
   0  13   1 13.3605 2.41635   1
  -1 -13  -1 35.6522 3.27073   3
  -1 -13  -1 37.0450 3.29367   7
   1  13   1 37.7538 3.31356   4
   1  13   1 37.1203 4.07343   1
  -2 -13  -1 0.99690 1.10784   7
  -2 -13  -1 1.99214 0.99723   3
   2  13   1 3.39836 1.11384   4
   2  13   1 -2.3135 1.36070   1
  -3 -13  -1 19.4264 2.66495   7
  -3 -13  -1 24.1475 3.06878   3
   3  13   1 20.2238 3.04701   1
   1  13  -2 4.05520 1.73710   1
   1  13  -2 4.60355 1.64982   4
  -1 -13   2 5.66933 1.60724   3
  -1 -13   2 8.12845 1.77292   7
   0  13  -2 0.91791 1.60944   1
   0  13  -2 -0.1490 0.73956   4
   0 -13   2 0.86579 0.92957   7
   0 -13   2 0.27785 1.11803   3
  -1  13  -2 12.1406 2.27927   4
  -1  13  -2 11.2492 2.15790   1
   1 -13   2 12.4944 2.08457   7
   1 -13   2 11.0071 2.27815   3
   2 -13   2 0.08473 0.74089   3
   2 -13   2 1.72454 0.94974   7
   4  12  -2 6.26334 1.29590   6
  -4 -12   2 4.63677 1.32600   5
   3  12  -2 2.04210 1.38551   4
   3  12  -2 -1.8558 1.46824   1
  -3 -12   2 -0.7524 0.95337   3
  -3 -12   2 0.07093 0.78541   5
   2  12  -2 5.10797 2.05463   1
   2  12  -2 8.80386 1.97758   4
  -2 -12   2 6.90251 1.48584   7
  -2 -12   2 13.4774 2.36419   3
   1  12  -2 1.37358 1.66265   1
   1  12  -2 3.61176 1.24268   4
  -1 -12   2 2.17682 1.03460   7
  -1 -12   2 3.96361 1.27817   3
   0  12  -2 -0.0608 1.07042   4
   0  12  -2 -3.3847 1.09102   1
   0 -12   2 0.06837 0.71001   3
   0 -12   2 -0.0213 0.50929   7
  -1  12  -2 63.5762 4.79911   1
  -1  12  -2 67.9263 5.01113   4
   1 -12   2 74.7412 4.85747   7
   1 -12   2 74.4848 5.06493   3
  -2  12  -2 10.2192 2.03605   4
   2 -12   2 5.20581 1.53079   7
   2 -12   2 11.6822 2.15644   3
  -3  12  -2 4.71839 1.52233   4
  -3  12  -2 3.40595 1.07707   8
   3 -12   2 1.97999 1.06407   7
   3 -12   2 3.64834 1.23928   3
  -4  12  -2 6.89334 1.65410   4
  -4  12  -2 4.37576 1.25906   8
   4 -12   2 3.56705 1.33081   3
   4 -12   2 5.95281 1.72589   7
   5  11  -2 0.56205 0.74709   6
   5  11  -2 -2.0266 0.97684   1
  -5 -11   2 0.17613 0.80553   5
   4  11  -2 -2.2554 1.72778   4
   4  11  -2 -0.3032 0.59239   6
   4  11  -2 -0.7055 1.42685   1
  -4 -11   2 2.09175 1.16606   3
  -4 -11   2 2.05309 0.85645   5
   3  11  -2 4.01387 1.58158   4
   3  11  -2 6.52362 1.98526   1
   3  11  -2 6.91769 1.25677   6
  -3 -11   2 5.93333 1.51592   3
  -3 -11   2 6.16682 1.24387   5
   2  11  -2 2.34494 1.25288   1
   2  11  -2 1.54179 1.21721   4
  -2 -11   2 0.00165 0.65633   7
  -2 -11   2 0.86546 0.68151   5
  -2 -11   2 3.03112 1.22110   3
   1  11  -2 12.9503 2.07615   4
   1  11  -2 16.9861 2.57137   1
  -1 -11   2 17.4109 2.12312   7
  -1 -11   2 10.6591 1.91626   3
   0  11  -2 26.3872 2.61436   4
   0  11  -2 26.8478 2.64982   1
   0 -11   2 23.8767 2.68635   7
   0 -11   2 26.8383 3.02629   3
  -1  11  -2 39.1009 3.26300   4
  -1  11  -2 33.8025 2.98508   1
   1 -11   2 36.6432 2.96490   7
   1 -11   2 37.9502 3.25604   3
  -2  11  -2 0.82695 0.82486   4
  -2  11  -2 0.81424 0.65508   8
  -2  11  -2 0.04521 1.02873   1
   2 -11   2 0.92673 0.92285   3
   2 -11   2 -0.1643 0.74166   7
  -3  11  -2 7.98556 1.37736   8
  -3  11  -2 10.6643 1.97468   4
   3 -11   2 7.90041 1.70731   7
   3 -11   2 13.2122 2.03642   3
  -4  11  -2 7.59676 1.49603   8
  -4  11  -2 10.3260 1.89923   2
  -4  11  -2 9.12460 1.82773   4
   4 -11   2 8.97669 1.85765   7
   4 -11   2 8.68541 1.75857   3
   4 -11   2 5.64934 1.39450   2
  -5  11  -2 1.00123 0.70598   4
  -5  11  -2 2.00183 0.79082   8
  -5  11  -2 0.61775 0.96429   2
   5 -11   2 1.22106 0.88103   2
   5 -11   2 -0.3710 0.98302   7
   5 -11   2 1.08081 0.81856   3
   6  10  -2 2.66517 1.06761   6
   6  10  -2 -0.3552 1.54345   1
  -6 -10   2 0.73488 0.66852   5
  -6 -10   2 1.52436 1.21631   3
   5  10  -2 4.16109 1.70845   1
   5  10  -2 5.50927 1.24423   6
  -5 -10   2 1.19274 1.18570   3
  -5 -10   2 4.93742 1.27217   5
   4  10  -2 5.44728 1.54563   1
   4  10  -2 9.03533 1.48118   6
   4  10  -2 7.21465 1.75459   4
  -4 -10   2 7.94475 1.74390   3
  -4 -10   2 14.2262 1.87719   5
   3  10  -2 7.49536 1.26453   6
   3  10  -2 6.95758 1.69394   4
   3  10  -2 6.10449 1.73616   1
  -3 -10   2 7.33859 1.27710   5
  -3 -10   2 9.44324 1.86570   3
  -3 -10   2 8.20086 1.46760   7
   2  10  -2 1.52996 0.60714   6
   2  10  -2 -0.6450 0.93336   4
   2  10  -2 -0.0016 0.79577   1
  -2 -10   2 0.27065 0.58892   3
  -2 -10   2 0.91835 0.60178   7
  -2 -10   2 1.55580 0.65016   5
   1  10  -2 8.87026 1.72144   4
   1  10  -2 9.99242 1.78843   1
  -1 -10   2 6.71551 1.27611   7
  -1 -10   2 7.66955 1.58471   3
  -1 -10   2 6.52309 1.16986   5
   0  10  -2 12.8658 2.24770   9
   0  10  -2 16.1057 2.27305   4
   0  10  -2 14.5443 2.21820   1
   0 -10   2 18.2303 2.36697   3
   0 -10   2 15.0286 1.94706   7
   0 -10   2 14.4209 1.67268   5
  -1  10  -2 98.8461 6.38085   4
  -1  10  -2 115.969 6.36393   1
  -1  10  -2 104.172 5.76205   8
  -1  10  -2 111.766 6.69510   9
   1 -10   2 109.143 6.43494   3
   1 -10   2 120.467 6.37242   7
  -2  10  -2 3.76196 1.38497   9
  -2  10  -2 0.71931 0.93670   1
  -2  10  -2 3.32183 0.93732   8
  -2  10  -2 4.12480 1.22072   4
   2 -10   2 2.58889 1.01780   7
   2 -10   2 3.27742 1.00905   3
  -3  10  -2 12.9790 1.72094   8
  -3  10  -2 13.0284 2.07806   4
  -3  10  -2 13.6422 1.92322   2
   3 -10   2 12.3449 1.88652   3
   3 -10   2 9.01370 1.72841   7
   3 -10   2 10.6131 1.58513   2
  -4  10  -2 8.89603 1.65602   2
  -4  10  -2 8.20728 1.48821   8
  -4  10  -2 7.63288 1.60519   4
   4 -10   2 5.02248 1.39749   3
   4 -10   2 5.53711 1.22084   2
   4 -10   2 5.38556 1.34755   7
  -5  10  -2 2.65961 1.01069   8
  -5  10  -2 7.04833 1.64898   2
  -5  10  -2 3.92714 1.22883   4
   5 -10   2 5.93916 1.53226   3
   5 -10   2 5.66090 1.41093   2
   5 -10   2 5.71749 1.53315   7
  -6  10  -2 2.92187 1.14912   2
  -6  10  -2 4.42187 1.27562   4
  -6  10  -2 2.32088 0.89657   8
   6 -10   2 5.44549 1.38194   3
   6 -10   2 5.19375 1.25455   2
   6 -10   2 3.46621 1.23481   7
   6   9  -2 -1.2045 1.11022   1
   6   9  -2 0.94455 0.69002   6
  -6  -9   2 -0.1104 0.63303   3
  -6  -9   2 0.52914 0.78388   5
   5   9  -2 74.7860 5.03901   1
   5   9  -2 73.2044 4.49815   6
  -5  -9   2 60.9318 4.80477   3
  -5  -9   2 69.8366 4.47661   5
   4   9  -2 10.5010 1.85713   1
   4   9  -2 11.8913 1.67124   6
   4   9  -2 11.3072 1.81980   4
  -4  -9   2 13.9859 1.86155   5
  -4  -9   2 12.1308 1.77948   7
  -4  -9   2 15.4815 2.22259   3
   3   9  -2 0.80849 0.96036   1
   3   9  -2 -0.4996 0.58306   4
   3   9  -2 0.19803 0.49084   6
  -3  -9   2 0.02612 0.39816   5
  -3  -9   2 0.66515 0.52660   7
  -3  -9   2 0.55787 0.74362   3
   2   9  -2 9.62615 1.69154   1
   2   9  -2 7.54124 1.61012   4
   2   9  -2 6.48616 1.71913   9
   2   9  -2 11.1030 1.34998   6
  -2  -9   2 9.02231 1.29984   5
  -2  -9   2 8.62113 1.67836   3
  -2  -9   2 10.4325 1.51045   7
   1   9  -2 29.3410 1.98384   6
   1   9  -2 30.3889 2.64389   4
   1   9  -2 25.0790 2.35732   1
   1   9  -2 31.5411 2.96030   9
  -1  -9   2 24.9146 2.08078   5
  -1  -9   2 28.6901 2.27416   7
  -1  -9   2 31.9025 2.64010   3
   0   9  -2 67.0010 4.37154   1
   0   9  -2 65.8466 4.69258   9
   0   9  -2 73.8674 3.85564   8
   0   9  -2 68.6518 4.49675   4
   0  -9   2 76.0303 4.31166   7
   0  -9   2 66.1542 4.42609   3
   0  -9   2 71.5492 3.98823   5
  -1   9  -2 9.34405 1.21119   8
  -1   9  -2 7.99728 1.49949   4
  -1   9  -2 8.76497 1.46106   1
  -1   9  -2 5.48302 1.61872   9
   1  -9   2 8.59545 1.38549   7
   1  -9   2 5.07675 1.27821   3
   1  -9   2 8.22869 1.10131   5
  -2   9  -2 17.9211 2.12291   1
  -2   9  -2 17.9613 1.85927   8
  -2   9  -2 16.7546 2.26493   9
  -2   9  -2 23.0917 1.90789   2
  -2   9  -2 19.3123 2.35640   4
   2  -9   2 17.7357 1.85432   2
   2  -9   2 20.2917 2.23889   7
   2  -9   2 18.4475 2.22197   3
  -3   9  -2 50.2954 3.63056   4
  -3   9  -2 50.6106 3.47132   2
  -3   9  -2 48.5098 3.24919   8
   3  -9   2 51.0870 3.58534   7
   3  -9   2 51.3168 3.30496   2
   3  -9   2 46.0556 3.46861   3
  -4   9  -2 0.67887 0.60710   2
  -4   9  -2 0.63803 0.62835   4
  -4   9  -2 0.11712 0.46894   8
   4  -9   2 0.41093 0.63109   7
   4  -9   2 0.50224 0.58184   3
   4  -9   2 0.67526 0.54449   2
  -5   9  -2 0.22234 0.55172   2
  -5   9  -2 0.77944 0.69870   8
  -5   9  -2 0.80616 0.62189   4
   5  -9   2 0.80104 0.58673   3
   5  -9   2 1.05181 0.63832   2
   5  -9   2 0.47869 0.58269   7
  -6   9  -2 9.55878 1.94496   2
  -6   9  -2 10.3032 1.70118   8
  -6   9  -2 9.31991 1.73964   4
   6  -9   2 8.92302 1.74530   3
   6  -9   2 8.50849 1.68646   2
   6  -9   2 10.3110 1.93787   7
  -7   9  -2 0.14423 0.80090   8
  -7   9  -2 0.96646 0.84358   4
  -7   9  -2 -0.1139 0.95331   2
   7  -9   2 0.11885 0.70460   3
   7  -9   2 -0.1147 0.95516   7
   7  -9   2 0.24072 0.81281   2
   7   8  -2 0.26253 0.95802   1
   7   8  -2 1.69127 0.82954   6
  -7  -8   2 1.68563 1.05134   3
  -7  -8   2 0.06269 0.85100   5
   6   8  -2 -1.2353 0.85080   1
   6   8  -2 2.12050 0.92942   6
  -6  -8   2 0.97427 0.87277   3
  -6  -8   2 0.58341 0.57767   5
   5   8  -2 112.167 6.41398   1
   5   8  -2 120.286 6.14564   6
  -5  -8   2 87.2749 6.29426   7
  -5  -8   2 101.567 5.95559   5
  -5  -8   2 98.2743 6.41451   3
   4   8  -2 14.5029 2.07226   1
   4   8  -2 10.4980 1.71926   4
   4   8  -2 13.0875 1.68294   6
  -4  -8   2 11.8873 1.64422   5
  -4  -8   2 12.9701 1.72027   7
  -4  -8   2 15.1219 1.82386   6
  -4  -8   2 11.8036 1.96506   3
   3   8  -2 7.86867 1.66701   9
   3   8  -2 5.92713 1.40917   4
   3   8  -2 8.39122 1.24853   6
   3   8  -2 8.09948 1.58371   1
  -3  -8   2 7.50226 1.24205   7
  -3  -8   2 6.61831 1.15782   5
  -3  -8   2 8.48652 1.58845   3
  -3  -8   2 6.94816 1.18993   6
   2   8  -2 2.91279 0.70853   6
   2   8  -2 2.42014 0.88337   4
   2   8  -2 0.89867 0.70234   1
   2   8  -2 0.48555 0.88787   9
  -2  -8   2 0.64975 0.48890   7
  -2  -8   2 1.08073 0.61478   3
  -2  -8   2 2.12719 0.65618   5
  -2  -8   2 1.87869 0.62510   6
   1   8  -2 4.14710 1.30905   9
   1   8  -2 3.26875 0.65030   6
   1   8  -2 4.28861 1.05769   1
   1   8  -2 3.01694 0.96495   4
  -1  -8   2 2.85560 0.86178   3
  -1  -8   2 2.45739 0.71916   5
  -1  -8   2 4.60634 0.79999   6
  -1  -8   2 3.11035 0.77775   7
   0   8  -2 53.3866 3.01670   8
   0   8  -2 56.7750 3.63072   4
   0   8  -2 55.7966 3.85319   9
   0   8  -2 55.4735 3.54937   1
   0   8  -2 53.3055 2.93867   6
   0  -8   2 51.3582 3.13821   5
   0  -8   2 54.5032 3.34417   7
   0  -8   2 54.3201 3.59307   3
  -1   8  -2 4.82692 1.16722   1
  -1   8  -2 4.22402 1.17672   4
  -1   8  -2 1.57914 0.54126   8
  -1   8  -2 0.47040 0.96924   9
   1  -8   2 3.40954 0.70318   2
   1  -8   2 2.45099 0.77611   3
   1  -8   2 2.11234 0.68743   7
   1  -8   2 2.80930 0.64089   5
  -2   8  -2 22.1966 2.20169   9
  -2   8  -2 22.8003 1.91373   2
  -2   8  -2 20.5973 1.95423   1
  -2   8  -2 26.5694 2.24595   4
  -2   8  -2 21.6113 1.79594   8
   2  -8   2 24.9723 1.84305   2
   2  -8   2 24.4482 2.09657   3
   2  -8   2 26.8155 2.13651   7
   2  -8   2 23.3435 1.70787   5
  -3   8  -2 0.10772 0.47210   4
  -3   8  -2 0.29976 0.62354   9
  -3   8  -2 -0.3380 0.29684   8
  -3   8  -2 0.30377 0.49373   2
  -3   8  -2 0.34449 0.48102   1
   3  -8   2 0.97906 0.53285   2
   3  -8   2 0.62588 0.68415   3
   3  -8   2 0.39535 0.50655   7
  -4   8  -2 60.9778 4.17601   2
  -4   8  -2 68.9827 4.36931   4
  -4   8  -2 65.7724 4.01665   8
   4  -8   2 63.6650 4.03147   2
   4  -8   2 60.8566 4.15923   3
   4  -8   2 72.1340 4.37082   7
  -5   8  -2 43.2227 3.33151   4
  -5   8  -2 41.7281 3.08111   8
  -5   8  -2 40.1501 3.27709   2
   5  -8   2 44.5581 3.19518   2
   5  -8   2 46.3481 3.46404   7
   5  -8   2 50.6110 3.48712   3
  -6   8  -2 13.5812 1.89317   8
  -6   8  -2 11.3022 1.95546   2
  -6   8  -2 13.4807 2.03747   4
   6  -8   2 12.2375 1.86448   2
   6  -8   2 12.3173 1.91997   3
   6  -8   2 8.97820 1.73147   7
  -7   8  -2 0.27135 0.64858   2
  -7   8  -2 2.08818 0.96579   4
  -7   8  -2 -0.0087 0.53469   8
   7  -8   2 -0.0347 0.80678   7
   7  -8   2 -0.2884 0.68331   3
   7  -8   2 -0.0404 0.61924   2
  -8   8  -2 4.38964 1.56376   2
  -8   8  -2 4.47224 1.40415   8
   8  -8   2 5.82430 1.60306   7
   8  -8   2 3.01970 1.07122   3
   8  -8   2 2.95130 1.32619   2
  -8  -7   2 10.1258 2.39086   3
   7   7  -2 0.71903 0.80122   6
   7   7  -2 0.64693 0.78109   1
  -7  -7   2 -0.4238 0.71678   5
  -7  -7   2 -0.3641 0.57643   3
   6   7  -2 2.81565 1.03115   6
   6   7  -2 1.74961 1.04889   1
  -6  -7   2 5.15254 1.47664   3
  -6  -7   2 2.63103 0.86888   5
   5   7  -2 0.59811 0.63721   1
   5   7  -2 0.27420 0.82026   4
   5   7  -2 3.02063 0.86251   6
  -5  -7   2 1.84272 0.86469   3
  -5  -7   2 2.27542 0.80468   6
  -5  -7   2 2.96875 0.84468   5
  -5  -7   2 1.82956 0.77871   7
   4   7  -2 70.9248 4.10333   4
   4   7  -2 67.5036 3.96460   6
   4   7  -2 67.1926 4.52499   9
   4   7  -2 61.5295 4.13947   1
  -4  -7   2 58.8370 3.90205   7
  -4  -7   2 58.6655 4.19456   3
  -4  -7   2 63.1596 3.95673   5
  -4  -7   2 68.1227 3.98328   6
   3   7  -2 56.2248 3.61771   1
   3   7  -2 62.3017 3.67279   4
   3   7  -2 50.2961 3.31024   6
   3   7  -2 55.0924 3.89443   9
  -3  -7   2 54.2161 3.69850   3
  -3  -7   2 51.8787 3.36934   7
  -3  -7   2 61.2902 3.47932   6
  -3  -7   2 53.2543 3.40366   5
   2   7  -2 1.53975 0.74749   9
   2   7  -2 1.46697 0.85935   4
   2   7  -2 0.65045 0.35973   6
   2   7  -2 1.86516 0.86815   1
  -2  -7   2 1.01408 0.41349   6
  -2  -7   2 1.75160 0.56334   5
  -2  -7   2 1.64964 0.64201   3
  -2  -7   2 1.71155 0.61362   7
   1   7  -2 9.11621 1.56911   9
   1   7  -2 9.63105 0.83163   8
   1   7  -2 11.4990 1.51199   4
   1   7  -2 10.4866 1.15372   6
   1   7  -2 11.0736 1.51372   1
  -1  -7   2 10.2923 1.47877   3
  -1  -7   2 11.1092 1.33085   7
  -1  -7   2 9.87363 1.13674   6
  -1  -7   2 10.3217 1.25833   5
   0   7  -2 18.3963 1.97445   9
   0   7  -2 20.4314 1.39169   8
   0   7  -2 21.0943 1.85175   4
   0   7  -2 18.9102 1.33832   6
   0   7  -2 20.1356 1.80475   1
   0  -7   2 22.3569 1.33667   2
   0  -7   2 17.7467 1.32958   6
   0  -7   2 20.1782 1.50687   5
   0  -7   2 18.3442 1.69920   3
   0  -7   2 19.7006 1.57614   7
  -1   7  -2 8.21843 1.44196   9
  -1   7  -2 7.71337 1.29931   4
  -1   7  -2 9.31602 1.10790   2
  -1   7  -2 6.63553 0.62991   6
  -1   7  -2 7.28165 0.94521   8
  -1   7  -2 7.10403 1.23202   1
   1  -7   2 8.62300 1.05251   5
   1  -7   2 8.37823 1.16744   7
   1  -7   2 7.50687 0.92851   2
   1  -7   2 7.09679 1.21039   3
  -2   7  -2 0.09533 0.36194   8
  -2   7  -2 -0.2320 0.54495   1
  -2   7  -2 0.80702 0.77376   4
  -2   7  -2 0.09512 0.39791   2
  -2   7  -2 -0.6368 0.62018   9
   2  -7   2 0.26962 0.34589   7
   2  -7   2 -0.0560 0.32093   3
   2  -7   2 0.13798 0.31481   5
   2  -7   2 0.28628 0.36483   2
  -3   7  -2 257.143 12.6135   1
  -3   7  -2 276.300 13.1666   4
  -3   7  -2 264.684 12.7838   8
  -3   7  -2 266.845 12.8705   9
  -3   7  -2 279.347 13.0575   2
   3  -7   2 269.521 12.8319   2
   3  -7   2 278.290 12.5698   5
   3  -7   2 276.063 13.1017   3
   3  -7   2 268.074 13.0506   7
  -4   7  -2 284.582 14.0503   4
  -4   7  -2 286.890 14.0441   2
  -4   7  -2 265.670 13.7023   8
   4  -7   2 293.733 13.8635   2
   4  -7   2 312.093 14.1161   3
   4  -7   2 297.102 14.1016   7
   4  -7   2 288.152 13.7127   5
  -5   7  -2 33.7656 2.74752   2
  -5   7  -2 31.6605 2.42691   8
  -5   7  -2 30.0550 2.54221   4
   5  -7   2 30.8882 2.60814   7
   5  -7   2 31.4477 2.61942   3
  -6   7  -2 10.6251 1.79585   2
  -6   7  -2 9.95253 1.64266   4
  -6   7  -2 7.64965 1.34222   8
   6  -7   2 7.44384 1.57668   7
   6  -7   2 4.99228 1.20879   3
  -7   7  -2 21.9515 2.75789   2
  -7   7  -2 23.6977 2.78224   4
  -7   7  -2 19.2975 2.37341   8
   7  -7   2 23.2326 2.69486   3
   7  -7   2 21.0144 2.72125   7
   7  -7   2 22.5644 2.63165   2
  -8   7  -2 1.14870 0.76460   8
  -8   7  -2 0.89829 1.03907   2
   8  -7   2 0.85620 1.08509   7
   8  -7   2 1.16408 0.86024   3
   8  -7   2 0.94558 0.92870   2
   8   6  -2 14.3111 2.28372   1
   8   6  -2 15.4776 2.22527   6
   8   6  -2 12.4346 1.99496   5
  -8  -6   2 12.7015 1.94702   5
  -8  -6   2 11.5000 2.25222   3
   7   6  -2 83.6081 5.00335   6
   7   6  -2 80.5969 5.11905   1
  -7  -6   2 71.4941 4.80493   5
  -7  -6   2 73.3734 5.26153   3
   6   6  -2 2.08710 1.01496   1
   6   6  -2 0.79009 0.56301   6
  -6  -6   2 0.84739 0.62414   6
  -6  -6   2 1.75805 0.70621   5
  -6  -6   2 0.44900 0.63964   7
  -6  -6   2 1.16239 0.72609   3
   5   6  -2 11.6925 1.58316   4
   5   6  -2 10.7005 1.64448   1
   5   6  -2 9.14717 1.40864   6
   5   6  -2 11.1860 1.90987   9
  -5  -6   2 9.76437 1.44545   5
  -5  -6   2 9.05519 1.44595   7
  -5  -6   2 8.88445 1.40148   6
  -5  -6   2 10.4422 1.71056   3
   4   6  -2 148.080 7.83329   9
   4   6  -2 139.558 7.38170   1
   4   6  -2 156.030 7.31396   4
   4   6  -2 141.710 7.23315   6
  -4  -6   2 125.344 7.13105   7
  -4  -6   2 135.433 7.52051   3
  -4  -6   2 133.543 7.17158   5
  -4  -6   2 134.412 7.17851   6
   3   6  -2 113.039 5.75580   4
   3   6  -2 101.614 5.57849   6
   3   6  -2 115.671 6.23607   9
   3   6  -2 115.379 5.89157   1
  -3  -6   2 99.7110 5.55619   7
  -3  -6   2 106.817 5.64016   5
  -3  -6   2 104.828 5.60519   6
  -3  -6   2 97.5723 5.84726   3
   2   6  -2 5.93862 1.19393   9
   2   6  -2 1.18196 0.30656   8
   2   6  -2 5.25027 0.92865   1
   2   6  -2 1.49214 0.55446   6
   2   6  -2 1.15899 0.69390   4
  -2  -6   2 0.89033 0.41869   5
  -2  -6   2 1.56143 0.53306   6
  -2  -6   2 1.82143 0.68733   3
  -2  -6   2 1.27082 0.47779   7
   1   6  -2 70.1353 4.08610   1
   1   6  -2 80.2033 3.67195   8
   1   6  -2 71.1522 4.18111   4
   1   6  -2 73.1472 3.87696   6
   1   6  -2 75.8206 4.41003   9
  -1  -6   2 72.5931 3.48522   2
  -1  -6   2 74.4856 3.98933   5
  -1  -6   2 75.3347 3.89816   6
  -1  -6   2 76.3125 3.98479   7
  -1  -6   2 72.4005 4.21414   3
   0   6  -2 1.42535 0.36939   8
   0   6  -2 0.86535 0.30543   6
   0   6  -2 1.20311 0.58331   9
   0   6  -2 2.30682 0.83345   4
   0   6  -2 1.31417 0.52722   1
   0  -6   2 0.88782 0.43919   3
   0  -6   2 0.89468 0.42151   7
   0  -6   2 1.00499 0.28584   2
   0  -6   2 0.68508 0.32107   5
   0  -6   2 0.87694 0.33827   6
  -1   6  -2 10.4799 1.45054   4
  -1   6  -2 11.2681 1.48097   9
  -1   6  -2 11.7256 0.83810   6
  -1   6  -2 12.6455 1.39831   1
  -1   6  -2 12.7686 1.04373   8
  -1   6  -2 12.4708 1.07018   2
   1  -6   2 11.9666 0.98155   2
   1  -6   2 12.0919 1.13790   7
   1  -6   2 12.9711 1.08067   5
   1  -6   2 11.8389 1.41382   3
   1  -6   2 13.1242 0.87124   6
  -2   6  -2 89.9694 4.48775   1
  -2   6  -2 86.6795 4.57801   2
  -2   6  -2 82.5294 4.41779   8
  -2   6  -2 83.3784 4.76122   4
  -2   6  -2 81.7271 4.61420   9
   2  -6   2 85.8137 4.36751   5
   2  -6   2 86.6116 4.45636   2
   2  -6   2 87.5947 4.72704   3
  -3   6  -2 0.53124 0.46780   1
  -3   6  -2 0.67964 0.51045   9
  -3   6  -2 0.47255 0.33903   8
  -3   6  -2 -0.0222 0.36574   2
  -3   6  -2 0.64495 0.47376   4
   3  -6   2 0.15884 0.27818   3
   3  -6   2 0.43486 0.32928   5
   3  -6   2 -0.0073 0.40925   7
  -4   6  -2 18.6367 1.70323   4
  -4   6  -2 17.3215 1.77205   8
  -4   6  -2 14.8100 1.88245   2
   4  -6   2 17.5476 1.36483   5
   4  -6   2 18.3771 1.67821   3
   4  -6   2 16.5230 1.91208   7
  -5   6  -2 5.79114 1.14750   4
  -5   6  -2 6.14137 1.08013   8
  -5   6  -2 7.15234 1.31395   2
   5  -6   2 6.22356 1.23059   3
   5  -6   2 6.67341 0.97419   5
   5  -6   2 7.45346 1.36384   7
  -6   6  -2 2.11962 0.81205   4
  -6   6  -2 3.30173 0.95606   8
  -6   6  -2 2.88240 1.02218   2
   6  -6   2 2.25126 0.82579   3
   6  -6   2 0.91334 0.64229   7
  -7   6  -2 4.80457 1.21842   4
  -7   6  -2 4.49156 1.19768   8
  -7   6  -2 6.75513 1.46638   2
   7  -6   2 4.96564 1.37506   7
   7  -6   2 9.62843 1.61372   3
  -8   6  -2 2.13526 0.96294   2
  -8   6  -2 1.05623 0.69352   8
   8  -6   2 0.07481 0.58273   7
   8  -6   2 1.12935 0.99708   3
  -9   6  -2 3.18746 1.03172   8
  -9   6  -2 4.51905 1.63826   2
   9  -6   2 1.83693 1.14345   2
   9  -6   2 2.43440 1.41452   7
   9  -6   2 3.62274 1.42771   3
   8   5  -2 9.00020 1.65968   5
   8   5  -2 10.2861 1.89303   1
   8   5  -2 10.4959 1.74735   6
  -8  -5   2 7.00032 1.47368   5
  -8  -5   2 7.02846 1.78381   3
   7   5  -2 19.6491 2.35196   5
   7   5  -2 25.8461 2.35908   6
   7   5  -2 29.7441 2.55042   1
  -7  -5   2 25.7042 2.37987   6
  -7  -5   2 23.8818 2.95032   3
  -7  -5   2 22.6511 2.50795   5
   6   5  -2 1.04735 0.62579   6
   6   5  -2 0.81009 0.72805   9
   6   5  -2 2.09530 0.79784   1
  -6  -5   2 1.14226 0.59445   5
  -6  -5   2 0.31678 0.69500   3
  -6  -5   2 0.15994 0.52943   7
  -6  -5   2 1.31904 0.64792   6
   5   5  -2 10.8765 1.65513   1
   5   5  -2 9.13342 1.40964   6
   5   5  -2 15.7727 1.48029   4
   5   5  -2 12.9187 1.94305   9
  -5  -5   2 11.3761 1.55848   6
  -5  -5   2 10.8889 1.74143   3
  -5  -5   2 12.6044 1.61224   5
  -5  -5   2 12.1772 1.66221   7
   4   5  -2 85.1108 4.72510   6
   4   5  -2 87.5545 4.90862   1
   4   5  -2 97.4869 4.80421   4
   4   5  -2 93.3661 5.28375   9
  -4  -5   2 82.9907 4.69743   6
  -4  -5   2 80.0804 4.95136   3
  -4  -5   2 72.5261 4.61541   7
  -4  -5   2 82.7969 4.69977   5
   3   5  -2 21.1200 1.66608   4
   3   5  -2 18.7046 1.57876   6
   3   5  -2 18.9221 1.88140   9
   3   5  -2 20.5752 1.69645   1
  -3  -5   2 17.4995 1.92364   3
  -3  -5   2 20.2690 1.60719   6
  -3  -5   2 17.4307 1.50091   7
  -3  -5   2 19.7100 1.60110   5
   2   5  -2 1043.50 45.2804   9
   2   5  -2 1057.34 44.9784   1
   2   5  -2 1049.11 44.9190   4
   2   5  -2 1005.11 44.7619   6
   2   5  -2 988.356 44.2674   8
  -2  -5   2 970.296 44.6874   7
  -2  -5   2 1013.05 45.0507   3
  -2  -5   2 956.966 44.7815   5
  -2  -5   2 983.988 44.7475   6
   1   5  -2 34.0481 2.10082   6
   1   5  -2 37.2854 1.91713   8
   1   5  -2 36.1079 2.31876   4
   1   5  -2 37.0520 2.28951   1
   1   5  -2 38.1752 2.50027   9
  -1  -5   2 33.7478 2.09454   7
  -1  -5   2 36.3460 1.69507   2
  -1  -5   2 36.8507 2.21410   5
  -1  -5   2 36.0481 2.35283   3
  -1  -5   2 34.4452 2.11305   6
   0   5  -2 10.7573 1.11596   9
   0   5  -2 10.5307 1.26047   4
   0   5  -2 11.6266 0.84250   8
   0   5  -2 10.4969 1.03554   1
   0   5  -2 9.61535 0.80970   6
   0   5  -2 10.5810 0.78969   2
   0  -5   2 11.4585 0.86888   6
   0  -5   2 10.3367 0.73996   2
   0  -5   2 10.1388 0.91392   5
   0  -5   2 11.4054 0.96528   7
   0  -5   2 12.2195 1.10266   3
  -1   5  -2 116.069 5.74028   1
  -1   5  -2 113.775 5.90895   9
  -1   5  -2 125.007 5.71422   2
  -1   5  -2 111.918 5.92041   4
  -1   5  -2 114.995 5.42195   6
  -1   5  -2 115.352 5.62045   8
   1  -5   2 118.073 5.92722   3
   1  -5   2 117.294 5.68888   5
   1  -5   2 113.221 5.42205   6
   1  -5   2 121.988 5.81848   7
   1  -5   2 121.818 5.60948   2
  -2   5  -2 10.6097 0.96980   1
  -2   5  -2 9.47693 1.00408   8
  -2   5  -2 9.03359 1.24017   4
  -2   5  -2 9.01564 1.13691   9
  -2   5  -2 10.4155 1.15868   2
  -2   5  -2 8.49789 0.52952   6
   2  -5   2 8.98267 0.80480   5
   2  -5   2 8.55017 1.08756   7
   2  -5   2 8.72138 1.13557   3
   2  -5   2 9.50126 0.89711   9
  -3   5  -2 18.9743 1.27278   1
  -3   5  -2 15.7767 1.49611   4
  -3   5  -2 15.6500 1.31022   9
  -3   5  -2 16.1528 1.34198   8
  -3   5  -2 15.3746 1.39175   2
   3  -5   2 14.6842 1.37924   3
   3  -5   2 17.2239 1.46394   7
   3  -5   2 16.2091 1.22100   5
   3  -5   2 17.7619 1.25958   9
  -4   5  -2 2.51782 0.54629   9
  -4   5  -2 1.68236 0.42888   1
  -4   5  -2 1.27671 0.62511   2
  -4   5  -2 2.17976 0.56977   8
  -4   5  -2 1.53171 0.57188   4
   4  -5   2 1.55270 0.65663   7
   4  -5   2 2.29647 0.53585   5
   4  -5   2 2.55495 0.72837   3
  -5   5  -2 148.339 8.10270   2
  -5   5  -2 148.819 7.98487   4
  -5   5  -2 160.229 8.48841   7
  -5   5  -2 155.035 7.90297   8
   5  -5   2 163.727 8.13700   3
   5  -5   2 158.518 8.19395   7
   5  -5   2 164.082 7.66312   5
  -6   5  -2 3.79971 0.88561   8
  -6   5  -2 4.34626 1.06479   4
  -6   5  -2 5.39862 1.23410   2
  -6   5  -2 2.58308 0.99936   7
   6  -5   2 3.67896 1.01137   7
   6  -5   2 4.67242 0.88385   5
   6  -5   2 3.65400 0.94929   3
  -7   5  -2 0.35477 0.50827   8
  -7   5  -2 -0.1216 0.83622   7
  -7   5  -2 -0.2663 0.43276   2
  -7   5  -2 0.30888 0.59254   4
   7  -5   2 0.37553 0.73255   7
   7  -5   2 -0.7178 0.24712   3
  -8   5  -2 23.2757 2.90957   2
  -8   5  -2 17.5053 2.29503   8
  -8   5  -2 31.3814 3.59075   7
   8  -5   2 24.4896 2.82073   3
   8  -5   2 26.6307 3.01316   7
  -9   5  -2 2.56202 1.26562   2
  -9   5  -2 1.59253 1.33051   7
  -9   5  -2 0.99334 0.67818   8
   9  -5   2 3.29700 1.24742   7
   9  -5   2 3.30560 1.36479   3
   8   4  -2 2.95911 0.94974   6
   8   4  -2 3.06243 1.22617   1
   8   4  -2 4.14963 1.06487   5
  -8  -4   2 2.58768 0.91610   5
  -8  -4   2 1.75265 1.09141   3
   7   4  -2 109.624 6.31215   5
   7   4  -2 114.285 6.36832   6
   7   4  -2 123.437 6.61397   1
  -7  -4   2 117.734 6.39694   5
  -7  -4   2 106.037 6.47705   7
  -7  -4   2 118.270 6.41750   6
  -7  -4   2 105.129 6.74475   3
   6   4  -2 29.3006 2.69835   9
   6   4  -2 26.0635 2.19226   4
   6   4  -2 29.4902 2.26748   6
   6   4  -2 31.3597 2.41780   1
  -6  -4   2 22.1538 2.17361   7
  -6  -4   2 24.4809 2.15992   5
  -6  -4   2 20.7013 2.55108   3
  -6  -4   2 28.7642 2.23585   6
   5   4  -2 1.19318 0.54214   6
   5   4  -2 3.29342 0.80802   4
   5   4  -2 2.65826 0.94841   9
   5   4  -2 1.89228 0.72004   1
  -5  -4   2 1.81818 0.68341   7
  -5  -4   2 1.98032 0.85091   3
  -5  -4   2 1.78309 0.62955   6
  -5  -4   2 2.40883 0.73223   5
   4   4  -2 4.40590 0.84716   4
   4   4  -2 4.48772 1.09200   9
   4   4  -2 2.16515 0.74518   1
   4   4  -2 4.17601 0.83590   6
  -4  -4   2 3.14574 0.77947   5
  -4  -4   2 3.01970 0.75206   7
  -4  -4   2 5.32823 1.08329   3
  -4  -4   2 2.70816 0.68192   6
   3   4  -2 62.5894 3.48577   6
   3   4  -2 66.0837 3.63279   1
   3   4  -2 66.0944 3.52331   4
   3   4  -2 61.0148 3.82042   9
   3   4  -2 63.7758 2.97448   8
  -3  -4   2 62.8099 3.48735   5
  -3  -4   2 56.5244 3.41749   6
  -3  -4   2 59.3182 3.62644   3
  -3  -4   2 57.0989 3.38558   7
  -3  -4   2 60.2608 2.87542   2
   2   4  -2 1783.33 74.5828   4
   2   4  -2 1658.81 74.4479   6
   2   4  -2 1690.07 74.8691   9
   2   4  -2 1733.46 74.0287   8
   2   4  -2 1736.85 74.6167   1
  -2  -4   2 1674.60 74.4605   6
  -2  -4   2 1665.12 74.6522   3
  -2  -4   2 1638.26 74.4789   5
  -2  -4   2 1620.16 74.3519   7
   1   4  -2 161.445 7.87542   9
   1   4  -2 169.844 7.69963   1
   1   4  -2 165.433 7.71094   4
   1   4  -2 164.905 7.28512   8
  -1  -4   2 156.147 7.45728   7
  -1  -4   2 150.509 7.50598   6
  -1  -4   2 154.731 7.57642   5
  -1  -4   2 156.838 7.71611   3
   0   4  -2 3.49902 0.46420   8
   0   4  -2 2.98574 0.54267   1
   0   4  -2 3.76287 0.43847   2
   0   4  -2 3.84173 0.69393   9
   0   4  -2 3.62700 0.66154   4
   0  -4   2 3.95917 0.56285   7
   0  -4   2 3.88422 0.40361   2
   0  -4   2 4.81824 0.57744   6
   0  -4   2 3.59539 0.59303   5
   0  -4   2 2.42072 0.52409   3
   0  -4   2 3.50391 0.64803   9
  -1   4  -2 303.142 14.1362   9
  -1   4  -2 322.612 13.9984   2
  -1   4  -2 283.783 14.1580   4
  -1   4  -2 305.005 13.9861   1
  -1   4  -2 309.502 13.9429   8
   1  -4   2 358.645 14.2148   9
   1  -4   2 310.307 13.7811   6
   1  -4   2 311.624 14.1850   3
   1  -4   2 298.774 13.9887   5
   1  -4   2 287.045 14.0217   7
  -2   4  -2 2.68038 0.55372   2
  -2   4  -2 2.63422 0.55984   9
  -2   4  -2 2.60242 0.50353   1
  -2   4  -2 2.58990 0.48754   8
  -2   4  -2 2.84659 0.66832   4
   2  -4   2 2.54337 0.23459   6
   2  -4   2 2.32826 0.54938   7
   2  -4   2 3.37479 0.52427   5
   2  -4   2 2.95353 0.59723   3
   2  -4   2 2.73653 0.47371   9
  -3   4  -2 110.460 5.54206   9
  -3   4  -2 113.944 5.85172   2
  -3   4  -2 118.447 5.84954   4
  -3   4  -2 114.536 5.69406   8
  -3   4  -2 120.853 5.46791   1
  -3   4  -2 116.673 6.06436   7
   3  -4   2 120.922 5.91298   7
   3  -4   2 113.167 5.46972   9
   3  -4   2 110.826 5.82635   3
   3  -4   2 116.045 5.58591   5
  -4   4  -2 -0.0604 0.22097   4
  -4   4  -2 0.10260 0.20530   1
  -4   4  -2 -0.0826 0.24331   8
  -4   4  -2 0.37644 0.37995   7
  -4   4  -2 0.28420 0.21647   9
  -4   4  -2 0.04671 0.27850   2
   4  -4   2 -0.3713 0.23672   5
   4  -4   2 -0.1484 0.22433   9
   4  -4   2 -0.1507 0.23288   3
   4  -4   2 0.56115 0.42253   7
  -5   4  -2 8.66061 1.38593   2
  -5   4  -2 12.9869 1.43879   8
  -5   4  -2 11.8830 1.48786   4
  -5   4  -2 13.5763 1.82961   7
   5  -4   2 13.3298 1.61596   3
   5  -4   2 10.5035 1.52267   7
   5  -4   2 13.9013 1.35882   5
  -6   4  -2 30.1173 2.46467   2
  -6   4  -2 29.5842 2.34816   4
  -6   4  -2 35.9406 2.41253   8
  -6   4  -2 26.6373 2.55037   7
   6  -4   2 26.9332 2.41031   7
   6  -4   2 34.5947 2.60782   3
   6  -4   2 31.4328 2.17085   5
  -7   4  -2 10.7670 1.56663   8
  -7   4  -2 11.4425 1.94916   7
  -7   4  -2 14.9975 2.11121   2
   7  -4   2 10.9125 1.71582   3
   7  -4   2 14.3917 1.64402   5
   7  -4   2 12.7018 1.91129   7
  -8   4  -2 21.5051 2.94256   7
  -8   4  -2 27.7042 2.35350   8
  -8   4  -2 21.5102 2.76209   2
   8  -4   2 31.5317 2.69576   3
   8  -4   2 25.4751 2.97388   7
  -9   4  -2 18.2806 2.90070   7
  -9   4  -2 23.2427 2.52591   8
  -9   4  -2 22.1044 2.89562   2
   9  -4   2 27.7625 3.05888   3
   9  -4   2 23.8515 2.98731   7
   9   3  -2 17.3703 2.61355   3
   9   3  -2 18.8852 2.40994   5
   9   3  -2 22.1255 2.54790   6
  -9  -3   2 13.7688 2.45329   3
  -9  -3   2 21.0525 2.49745   5
   8   3  -2 7.82849 1.42398   5
   8   3  -2 8.93988 1.50371   6
   8   3  -2 8.77483 1.67221   1
  -8  -3   2 8.76536 1.86132   3
  -8  -3   2 8.26740 1.42480   5
   7   3  -2 -0.6990 0.55130   1
   7   3  -2 -0.1471 0.37159   6
   7   3  -2 -0.1211 0.76817   9
   7   3  -2 0.80881 0.64821   5
  -7  -3   2 0.39671 0.75912   3
  -7  -3   2 0.12263 0.40358   6
  -7  -3   2 0.84643 0.71492   7
  -7  -3   2 -0.1625 0.34414   5
   6   3  -2 0.79227 0.51970   6
   6   3  -2 0.07224 0.46553   4
   6   3  -2 0.45324 0.54845   9
   6   3  -2 1.53773 0.72230   1
  -6  -3   2 0.48967 0.51605   7
  -6  -3   2 1.21185 0.57339   6
  -6  -3   2 1.23804 0.62693   5
  -6  -3   2 0.55174 0.67337   3
   5   3  -2 -0.0293 0.33353   9
   5   3  -2 0.36945 0.43570   1
   5   3  -2 -0.2040 0.23175   4
   5   3  -2 0.05738 0.35978   6
  -5  -3   2 -0.4050 0.23880   3
  -5  -3   2 0.65287 0.49268   5
  -5  -3   2 0.15923 0.42851   7
  -5  -3   2 -0.2330 0.26195   6
   4   3  -2 45.3739 2.78267   4
   4   3  -2 44.4874 2.83966   1
   4   3  -2 41.9017 2.67685   6
   4   3  -2 49.3338 3.16476   9
   4   3  -2 46.5677 2.35831   8
  -4  -3   2 43.0532 2.68167   5
  -4  -3   2 39.8762 2.66572   7
  -4  -3   2 43.8948 2.70518   6
  -4  -3   2 37.4998 2.77530   3
  -4  -3   2 41.7621 2.32760   2
   3   3  -2 34.1448 2.21056   6
   3   3  -2 36.6686 2.53973   9
   3   3  -2 36.9023 1.90155   8
   3   3  -2 34.9942 2.25257   4
   3   3  -2 33.2642 2.27521   1
  -3  -3   2 33.7553 2.18227   5
  -3  -3   2 38.2936 2.27858   6
  -3  -3   2 37.4979 2.37936   3
  -3  -3   2 33.4897 2.16482   7
  -3  -3   2 35.7830 1.83640   2
   2   3  -2 281.785 12.7811   1
   2   3  -2 280.168 12.7388   4
   2   3  -2 281.148 12.3158   8
   2   3  -2 269.653 12.0963   2
   2   3  -2 285.001 13.0371   9
  -2  -3   2 274.337 12.6565   6
  -2  -3   2 260.284 12.5269   7
  -2  -3   2 280.536 12.7953   3
  -2  -3   2 268.362 12.6536   5
   1   3  -2 2.14999 0.44796   1
   1   3  -2 1.55967 0.42563   4
   1   3  -2 1.52173 0.26713   8
   1   3  -2 2.59146 0.58404   9
  -1  -3   2 1.35709 0.43421   9
  -1  -3   2 1.37951 0.36026   6
  -1  -3   2 2.07477 0.41896   5
  -1  -3   2 1.79159 0.33573   7
  -1  -3   2 1.33892 0.37986   3
   0   3  -2 1126.21 46.8452   2
   0   3  -2 1109.68 47.2745   9
   0   3  -2 1082.56 46.9303   8
   0   3  -2 1092.07 47.1047   1
   0   3  -2 1116.61 47.2165   4
   0  -3   2 1043.56 46.9708   7
   0  -3   2 987.183 47.2168   9
   0  -3   2 1038.97 46.9935   6
   0  -3   2 1049.90 47.1638   3
   0  -3   2 1031.45 47.0824   5
  -1   3  -2 75.5321 3.53841   8
  -1   3  -2 75.3114 3.52707   1
  -1   3  -2 71.5258 3.53499   2
  -1   3  -2 75.7596 3.64098   9
  -1   3  -2 72.3015 3.69843   4
   1  -3   2 67.7662 3.39477   6
   1  -3   2 72.6666 3.61426   9
   1  -3   2 70.3081 3.57153   7
   1  -3   2 71.4542 3.56551   5
   1  -3   2 72.7778 3.67759   3
  -2   3  -2 44.5946 2.39772   4
  -2   3  -2 42.3185 2.18036   9
  -2   3  -2 42.6897 2.09950   1
  -2   3  -2 40.8305 2.31717   2
  -2   3  -2 39.9203 2.22764   8
  -2   3  -2 41.7026 2.46038   7
   2  -3   2 40.5357 2.34971   3
   2  -3   2 40.4117 2.20652   5
   2  -3   2 40.0864 1.95793   6
   2  -3   2 41.4012 2.13375   9
   2  -3   2 40.1238 2.33343   7
  -3   3  -2 224.435 11.2042   7
  -3   3  -2 225.609 10.8718   8
  -3   3  -2 230.644 11.0382   2
  -3   3  -2 238.257 10.6848   9
  -3   3  -2 242.378 10.6078   1
  -3   3  -2 244.112 10.9822   4
   3  -3   2 230.264 11.0765   7
   3  -3   2 242.282 10.8256   5
   3  -3   2 236.932 11.0659   3
   3  -3   2 235.225 10.4712   6
   3  -3   2 242.561 10.5986   9
  -4   3  -2 1.59871 0.63557   7
  -4   3  -2 1.57431 0.28780   1
  -4   3  -2 1.75681 0.51333   4
  -4   3  -2 1.83808 0.48141   8
  -4   3  -2 1.08680 0.27918   9
  -4   3  -2 1.75386 0.53697   2
   4  -3   2 0.45391 0.45029   7
   4  -3   2 1.73048 0.31114   6
   4  -3   2 1.11365 0.31002   9
   4  -3   2 1.30416 0.52091   3
   4  -3   2 1.65968 0.45993   5
  -5   3  -2 7.39910 1.07719   4
  -5   3  -2 5.34493 1.00064   2
  -5   3  -2 5.36614 0.90106   8
  -5   3  -2 3.95350 0.94083   7
   5  -3   2 5.34556 0.99076   3
   5  -3   2 4.44545 0.61159   9
   5  -3   2 5.92776 1.03506   7
   5  -3   2 6.06190 0.88905   5
   5  -3   2 7.01055 0.76606   6
  -6   3  -2 30.8217 2.26638   4
  -6   3  -2 30.8955 2.40597   2
  -6   3  -2 26.2514 2.51976   7
  -6   3  -2 29.3497 2.13091   8
   6  -3   2 30.3804 2.40204   3
   6  -3   2 30.7536 2.13186   5
   6  -3   2 29.0544 2.43187   7
  -7   3  -2 236.974 12.7433   7
  -7   3  -2 238.507 12.0145   8
  -7   3  -2 242.477 12.4527   2
   7  -3   2 257.743 12.5664   3
   7  -3   2 244.224 12.4955   7
   7  -3   2 271.927 12.0636   5
  -8   3  -2 27.6339 2.57108   2
  -8   3  -2 28.9986 3.41157   7
  -8   3  -2 27.1600 2.30142   8
   8  -3   2 29.4176 2.66058   3
   8  -3   2 27.9511 3.08825   7
   8  -3   2 27.6718 2.24347   5
  -9   3  -2 3.11079 1.23050   2
  -9   3  -2 3.34432 1.33440   7
  -9   3  -2 3.06193 0.95502   8
   9  -3   2 3.37268 1.24526   3
   9  -3   2 2.48449 1.25708   7
 -10   3  -2 12.5481 2.78272   2
  10  -3   2 20.6687 2.89760   3
   9   2  -2 2.91958 1.13364   3
   9   2  -2 5.27664 1.21937   6
   9   2  -2 3.54995 1.18959   5
  -9  -2   2 2.89984 1.09505   5
  -9  -2   2 3.95315 1.24520   3
   8   2  -2 24.5322 2.28225   5
   8   2  -2 32.2376 2.47611   6
  -8  -2   2 30.8946 2.45376   5
  -8  -2   2 30.2467 2.44096   6
  -8  -2   2 24.6710 3.06335   3
  -8  -2   2 26.5368 2.96677   7
   7   2  -2 16.7961 2.04068   1
   7   2  -2 15.4801 1.86934   5
   7   2  -2 15.1802 1.82326   6
   7   2  -2 14.7002 2.19146   9
  -7  -2   2 13.2736 1.71361   6
  -7  -2   2 11.4219 1.79916   7
  -7  -2   2 11.2574 1.55236   5
  -7  -2   2 8.77889 1.63309   3
   6   2  -2 4.46002 1.24545   9
   6   2  -2 4.69238 0.95633   6
   6   2  -2 3.71810 0.99589   1
   6   2  -2 5.93956 1.11886   4
  -6  -2   2 5.56173 1.05275   5
  -6  -2   2 4.56715 0.91309   6
  -6  -2   2 5.78262 1.22784   3
  -6  -2   2 3.44623 0.91379   7
   5   2  -2 145.734 6.82800   8
   5   2  -2 140.082 7.11762   6
   5   2  -2 145.798 7.30169   1
   5   2  -2 142.375 7.28465   4
   5   2  -2 150.600 7.69920   9
  -5  -2   2 139.303 7.41400   3
  -5  -2   2 125.066 7.13144   7
  -5  -2   2 132.406 6.85417   2
  -5  -2   2 132.323 7.05649   6
  -5  -2   2 146.547 6.88505   8
  -5  -2   2 134.203 7.05266   5
  -5  -2   2 158.096 7.46530   1
   4   2  -2 1.24216 0.60713   9
   4   2  -2 0.66436 0.39498   6
   4   2  -2 1.04519 0.45484   4
   4   2  -2 2.04862 0.42292   8
   4   2  -2 1.11913 0.47586   1
  -4  -2   2 1.22950 0.54330   1
  -4  -2   2 1.42273 0.39236   2
  -4  -2   2 0.94598 0.47935   3
  -4  -2   2 0.55291 0.41065   6
  -4  -2   2 1.02056 0.44378   7
  -4  -2   2 1.26191 0.39818   8
  -4  -2   2 0.80030 0.35822   5
   3   2  -2 119.965 6.23598   4
   3   2  -2 126.250 6.54694   9
   3   2  -2 129.762 5.89438   8
   3   2  -2 125.429 6.27013   1
  -3  -2   2 123.663 5.84410   2
  -3  -2   2 122.156 6.12992   6
  -3  -2   2 138.822 6.39867   1
  -3  -2   2 123.936 6.27544   3
  -3  -2   2 123.376 6.11062   5
  -3  -2   2 118.097 6.08101   7
   2   2  -2 34.9807 1.84896   8
   2   2  -2 34.8101 2.12680   4
   2   2  -2 38.9813 2.19950   1
   2   2  -2 36.1688 2.33209   9
   2   2  -2 35.4477 1.72112   2
  -2  -2   2 35.6434 2.11754   3
  -2  -2   2 32.5968 2.02680   6
  -2  -2   2 32.3685 2.01481   5
  -2  -2   2 36.7130 2.20047   1
  -2  -2   2 36.6237 1.75900   2
  -2  -2   2 34.4700 1.95484   7
   1   2  -2 42.1341 2.43392   9
   1   2  -2 41.3335 2.03790   8
   1   2  -2 38.3358 2.23981   1
   1   2  -2 40.7358 2.27477   4
  -1  -2   2 38.8391 2.18258   5
  -1  -2   2 45.6653 2.34326   1
  -1  -2   2 37.5127 2.37639   9
  -1  -2   2 42.3128 2.05271   7
  -1  -2   2 42.8814 2.24284   3
  -1  -2   2 40.2866 2.19116   6
   0   2  -2 243.161 10.8483   8
   0   2  -2 236.998 10.9651   1
   0   2  -2 251.248 11.1215   9
   0   2  -2 256.663 11.0613   4
   0   2  -2 245.594 10.7384   2
   0  -2   2 213.857 11.0539   9
   0  -2   2 240.831 10.9277   6
   0  -2   2 262.381 11.0353   1
   0  -2   2 235.459 10.9791   3
   0  -2   2 243.888 10.8129   7
   0  -2   2 241.561 10.9767   5
  -1   2  -2 3.17710 0.41157   9
  -1   2  -2 3.59402 0.49745   4
  -1   2  -2 2.99402 0.35672   1
  -1   2  -2 2.83041 0.38495   2
  -1   2  -2 3.81095 0.42142   8
   1  -2   2 2.21547 0.39013   3
   1  -2   2 2.66007 0.38868   7
   1  -2   2 3.00494 0.35727   6
   1  -2   2 3.31302 0.44275   5
   1  -2   2 2.32763 0.36996   9
  -2   2  -2 247.426 11.3377   4
  -2   2  -2 239.455 11.3612   2
  -2   2  -2 260.324 11.5378   7
  -2   2  -2 247.599 11.2878   8
  -2   2  -2 248.154 11.0524   1
  -2   2  -2 246.302 11.0966   9
   2  -2   2 251.055 11.2902   5
   2  -2   2 251.288 11.4285   3
   2  -2   2 254.509 11.0934   9
   2  -2   2 243.130 11.4022   7
   2  -2   2 257.666 11.1122   6
  -3   2  -2 171.804 7.46190   4
  -3   2  -2 142.787 7.03851   1
  -3   2  -2 165.912 7.43415   8
  -3   2  -2 159.996 7.57146   2
  -3   2  -2 156.256 7.73344   7
  -3   2  -2 144.399 7.07947   9
   3  -2   2 156.803 7.60539   3
   3  -2   2 155.759 7.60418   7
   3  -2   2 169.094 7.17523   6
   3  -2   2 164.276 7.40710   5
   3  -2   2 161.503 7.04031   9
  -4   2  -2 72.5523 3.81619   8
  -4   2  -2 80.1833 3.88645   4
  -4   2  -2 70.8433 3.39987   1
  -4   2  -2 75.6203 4.04095   2
  -4   2  -2 76.6242 4.25310   7
   4  -2   2 79.7839 3.46373   9
   4  -2   2 75.7773 4.09306   3
   4  -2   2 68.7293 3.43671   9
   4  -2   2 66.1054 3.37202   1
   4  -2   2 79.3174 3.84605   5
   4  -2   2 79.4505 3.56641   6
   4  -2   2 67.5022 4.00724   7
  -5   2  -2 101.327 5.28836   8
  -5   2  -2 103.259 5.81017   7
  -5   2  -2 98.5015 5.52621   2
  -5   2  -2 110.259 5.40748   4
   5  -2   2 110.555 4.99645   9
   5  -2   2 94.5219 5.54218   7
   5  -2   2 107.464 5.00537   6
   5  -2   2 108.065 5.33146   5
   5  -2   2 102.437 4.89846   9
   5  -2   2 104.639 5.65263   3
  -6   2  -2 13.1940 1.30115   4
  -6   2  -2 13.9320 1.72550   2
  -6   2  -2 12.4552 1.40699   8
  -6   2  -2 11.2509 1.74013   7
   6  -2   2 14.8960 1.80494   3
   6  -2   2 11.5884 1.37384   5
   6  -2   2 12.8280 1.05952   6
   6  -2   2 9.00385 1.43564   7
  -7   2  -2 42.8862 3.39930   7
  -7   2  -2 41.3101 2.83273   8
  -7   2  -2 42.5748 3.14469   2
   7  -2   2 44.4197 3.23336   7
   7  -2   2 41.8339 3.25433   3
   7  -2   2 49.1074 2.99755   5
  -8   2  -2 2.79510 1.06098   7
  -8   2  -2 2.74766 0.76808   8
  -8   2  -2 3.40478 1.15313   2
   8  -2   2 1.40491 0.75016   3
   8  -2   2 2.35586 0.91455   7
   8  -2   2 2.21983 0.76971   5
  -9   2  -2 1.40882 0.66230   8
  -9   2  -2 1.38772 0.88715   2
  -9   2  -2 1.32564 0.91461   7
   9  -2   2 1.75682 0.93696   7
   9  -2   2 0.22505 0.54367   5
   9  -2   2 2.66538 1.06324   3
 -10   2  -2 11.2345 2.13044   2
 -10   2  -2 13.0399 2.50463   7
  10  -2   2 10.3194 1.99978   3
  10  -2   2 14.0221 2.42907   7
   9   1  -2 9.85698 1.94210   3
   9   1  -2 11.9502 1.81432   5
  -9  -1   2 9.98371 2.10461   3
  -9  -1   2 11.8946 1.75610   5
   8   1  -2 0.85682 0.68305   6
   8   1  -2 0.83985 0.69516   5
   8   1  -2 1.54519 0.84489   3
  -8  -1   2 1.70703 0.79416   6
  -8  -1   2 1.60860 0.87494   7
  -8  -1   2 0.64903 0.69936   5
  -8  -1   2 0.42231 0.66509   3
   7   1  -2 0.38632 0.48451   2
   7   1  -2 1.36230 0.85927   9
   7   1  -2 0.32424 0.49072   1
   7   1  -2 1.25519 0.60271   6
   7   1  -2 1.18596 0.52461   5
  -7  -1   2 1.48603 0.77927   1
  -7  -1   2 1.13386 0.83083   3
  -7  -1   2 2.03758 0.65553   6
  -7  -1   2 0.76202 0.58784   5
  -7  -1   2 0.56520 0.56308   7
   6   1  -2 0.13443 0.41885   6
   6   1  -2 0.11715 0.40609   8
   6   1  -2 -0.6517 0.46593   9
   6   1  -2 0.13355 0.45106   1
   6   1  -2 -0.3389 0.38990   4
   6   1  -2 0.22174 0.29275   5
  -6  -1   2 -0.1493 0.24107   5
  -6  -1   2 -0.1154 0.35583   6
  -6  -1   2 -0.2548 0.27963   7
  -6  -1   2 -0.5898 0.27665   8
  -6  -1   2 0.03499 0.33019   2
  -6  -1   2 -0.0887 0.48769   3
  -6  -1   2 0.20307 0.51791   1
  -6  -1   2 0.29617 0.53880   4
   5   1  -2 0.59396 0.38899   6
   5   1  -2 0.99380 0.55200   4
   5   1  -2 0.49413 0.35617   8
   5   1  -2 0.85379 0.50404   1
   5   1  -2 0.82999 0.61324   9
  -5  -1   2 0.48480 0.50798   4
  -5  -1   2 0.60861 0.38241   6
  -5  -1   2 0.45469 0.33766   7
  -5  -1   2 0.20992 0.27590   2
  -5  -1   2 0.36517 0.30810   8
  -5  -1   2 -0.5115 0.37012   3
  -5  -1   2 1.14492 0.57090   1
  -5  -1   2 0.57529 0.32962   5
   4   1  -2 142.209 6.65949   8
   4   1  -2 139.142 7.30055   9
   4   1  -2 137.056 6.79499   6
   4   1  -2 128.175 6.91407   1
   4   1  -2 132.891 7.01462   4
  -4  -1   2 143.427 6.70659   8
  -4  -1   2 143.953 6.83113   6
  -4  -1   2 141.145 6.71813   2
  -4  -1   2 141.791 6.79417   5
  -4  -1   2 131.249 6.86514   7
  -4  -1   2 142.366 7.05923   1
  -4  -1   2 140.983 7.14164   4
  -4  -1   2 137.837 7.03867   3
   3   1  -2 0.17169 0.25381   4
   3   1  -2 0.24193 0.20625   8
   3   1  -2 0.17056 0.23488   1
   3   1  -2 0.43571 0.32093   9
  -3  -1   2 0.39423 0.22154   8
  -3  -1   2 -0.0392 0.22963   5
  -3  -1   2 0.26031 0.28246   7
  -3  -1   2 0.46537 0.23039   2
  -3  -1   2 0.24768 0.24281   3
  -3  -1   2 0.17527 0.25060   6
  -3  -1   2 0.25189 0.25872   4
  -3  -1   2 0.14293 0.37443   9
  -3  -1   2 -0.0844 0.17393   1
   2   1  -2 299.272 15.4665   9
   2   1  -2 338.090 14.9262   2
   2   1  -2 307.784 15.2442   1
   2   1  -2 338.384 15.0259   8
   2   1  -2 342.802 15.5627   9
   2   1  -2 319.816 15.3135   4
  -2  -1   2 333.377 15.3366   1
  -2  -1   2 339.146 14.9767   2
  -2  -1   2 337.852 15.0776   7
  -2  -1   2 369.911 15.7111   9
  -2  -1   2 343.052 15.0637   8
  -2  -1   2 343.194 15.4171   4
  -2  -1   2 344.790 15.1395   5
  -2  -1   2 334.566 15.1608   6
  -2  -1   2 342.732 15.2136   3
   1   1  -2 152.659 7.29709   9
   1   1  -2 145.918 7.12646   4
   1   1  -2 154.458 6.77998   2
   1   1  -2 136.278 7.06592   1
   1   1  -2 153.956 6.91649   8
  -1  -1   2 147.691 7.13240   1
  -1  -1   2 149.749 7.01444   6
  -1  -1   2 150.642 6.83340   7
  -1  -1   2 164.430 7.39643   9
  -1  -1   2 161.981 7.00360   3
  -1  -1   2 153.284 6.99302   5
   0   1  -2 174.961 8.44705   1
   0   1  -2 173.800 8.58337   9
   0   1  -2 190.576 8.51472   4
   0   1  -2 190.235 8.60401   9
   0   1  -2 189.068 8.36738   8
   0   1  -2 192.266 8.27494   2
   0  -1   2 201.428 8.66931   9
   0  -1   2 181.708 8.43143   6
   0  -1   2 195.454 8.22107   7
   0  -1   2 164.576 8.53668   9
   0  -1   2 195.639 8.44746   5
   0  -1   2 180.278 8.47981   1
   0  -1   2 192.832 8.39684   3
  -1   1  -2 119.027 5.02181   4
  -1   1  -2 100.419 4.87455   1
  -1   1  -2 99.6971 4.96503   9
  -1   1  -2 108.485 4.96707   2
  -1   1  -2 110.936 4.96206   8
  -1   1  -2 106.702 4.94764   9
  -1   1  -2 116.564 5.03414   7
   1  -1   2 96.0546 4.94287   9
   1  -1   2 113.449 5.01003   5
   1  -1   2 108.868 4.95523   6
   1  -1   2 115.499 5.02846   3
   1  -1   2 105.487 4.89321   1
  -2   1  -2 7.07345 0.55075   4
  -2   1  -2 5.88337 0.50005   8
  -2   1  -2 7.07673 0.77980   7
  -2   1  -2 5.12498 0.60174   2
   2  -1   2 5.89505 0.52720   5
   2  -1   2 4.21573 0.60483   3
   2  -1   2 6.16775 0.49019   6
  -3   1  -2 53.6983 2.50793   4
  -3   1  -2 50.6489 2.68186   2
  -3   1  -2 45.7851 2.79772   7
  -3   1  -2 45.6534 2.48949   8
  -3   1  -2 51.4854 2.84146   3
   3  -1   2 45.7346 2.71936   3
   3  -1   2 50.2126 2.20092   9
   3  -1   2 48.3932 2.39896   6
   3  -1   2 46.6460 2.55039   5
   3  -1   2 49.3012 2.18451   9
   3  -1   2 45.9823 2.16435   1
  -4   1  -2 219.179 10.6230   7
  -4   1  -2 221.801 10.5900   3
  -4   1  -2 216.271 10.3635   2
  -4   1  -2 233.295 10.1696   4
  -4   1  -2 207.595 10.1129   8
   4  -1   2 212.968 10.4759   3
   4  -1   2 217.215 9.97849   6
   4  -1   2 222.923 10.2180   5
   4  -1   2 210.834 9.92740   9
   4  -1   2 222.299 9.78376   1
   4  -1   2 232.279 9.85818   9
  -5   1  -2 2.73546 0.59441   4
  -5   1  -2 1.90257 0.72339   3
  -5   1  -2 2.83635 0.56020   8
  -5   1  -2 3.97259 0.80241   2
  -5   1  -2 2.65799 0.82599   7
   5  -1   2 2.54263 0.74731   3
   5  -1   2 2.75873 0.49777   6
   5  -1   2 3.00532 0.39606   1
   5  -1   2 3.22642 0.65876   5
   5  -1   2 3.47384 0.47642   9
   5  -1   2 2.87716 0.50016   9
  -6   1  -2 0.32185 0.31841   4
  -6   1  -2 -0.4184 0.45634   3
  -6   1  -2 0.15495 0.36776   2
  -6   1  -2 -0.2320 0.52054   7
  -6   1  -2 0.34339 0.39289   8
   6  -1   2 0.04928 0.47361   3
   6  -1   2 -0.0347 0.38198   5
   6  -1   2 -0.1912 0.25684   6
  -7   1  -2 38.7145 3.20328   7
  -7   1  -2 43.9338 3.31571   3
  -7   1  -2 43.4014 3.05077   2
  -7   1  -2 42.5882 2.69273   8
   7  -1   2 42.1411 2.82249   5
   7  -1   2 43.4065 2.57182   6
   7  -1   2 36.9431 3.04009   3
  -8   1  -2 0.19044 0.50744   2
  -8   1  -2 0.16426 0.53967   3
  -8   1  -2 1.00466 0.87833   7
  -8   1  -2 -0.1824 0.42352   8
   8  -1   2 -0.1407 0.46751   3
   8  -1   2 0.17707 0.57228   5
  -9   1  -2 -0.1009 0.51411   2
  -9   1  -2 -0.2980 0.45913   7
  -9   1  -2 0.30464 0.85189   3
   9  -1   2 0.18537 0.63452   3
   9  -1   2 1.15078 0.76364   7
   9  -1   2 -0.0618 0.63718   5
 -10   1  -2 6.62841 1.71354   2
 -10   1  -2 4.50669 1.71320   7
  10  -1   2 9.80335 2.01755   7
  10  -1   2 5.52694 1.67883   3
  10  -1   2 4.17530 1.26131   5
   9   0  -2 3.96712 1.24590   7
   9   0  -2 3.83973 1.36471   3
   9   0  -2 4.33202 1.20225   5
  -9   0   2 6.11209 1.47799   5
  -9   0   2 6.58998 1.67417   3
  -9   0   2 4.56836 1.46238   7
   8   0  -2 53.2104 3.79929   7
   8   0  -2 46.9162 3.84441   3
   8   0  -2 57.5792 3.57213   6
   8   0  -2 57.0091 3.63426   5
   8   0  -2 52.6835 3.63505   2
  -8   0   2 45.1551 3.79882   7
  -8   0   2 57.7931 4.18317   3
  -8   0   2 57.2556 3.59415   5
  -8   0   2 59.0425 3.75450   6
   7   0  -2 5.48618 1.00448   6
   7   0  -2 3.07671 0.80785   2
   7   0  -2 4.16430 0.89803   8
   7   0  -2 4.40023 0.97138   5
   7   0  -2 3.86362 0.94900   1
   7   0  -2 3.85817 1.11344   3
   7   0  -2 4.03201 1.14755   4
   7   0  -2 3.89497 1.01364   7
   7   0  -2 3.96113 1.33771   9
  -7   0   2 4.15223 1.13806   7
  -7   0   2 4.68018 1.08592   2
  -7   0   2 5.07579 1.26096   3
  -7   0   2 5.44893 1.07215   8
  -7   0   2 5.27807 1.00702   5
  -7   0   2 6.80678 1.29399   1
  -7   0   2 4.24179 0.87424   6
   6   0  -2 2.01905 0.84498   9
   6   0  -2 0.67192 0.56694   4
   6   0  -2 1.61010 0.56391   8
   6   0  -2 1.79724 0.79052   3
   6   0  -2 1.64392 0.54250   5
   6   0  -2 1.76804 0.54780   6
   6   0  -2 1.54469 0.69243   1
  -6   0   2 0.50585 0.54148   3
  -6   0   2 1.71868 0.53759   6
  -6   0   2 2.21711 0.78204   1
  -6   0   2 1.18610 0.47956   5
  -6   0   2 2.03365 0.67918   2
  -6   0   2 2.55390 0.88701   4
  -6   0   2 2.12382 0.66387   8
  -6   0   2 1.79373 0.72951   7
   5   0  -2 21.5744 1.88729   4
   5   0  -2 20.4122 1.58183   5
   5   0  -2 21.6660 1.76160   1
   5   0  -2 21.8004 1.58064   8
   5   0  -2 21.1773 1.60475   6
   5   0  -2 19.2831 1.90162   9
  -5   0   2 22.4763 1.63382   5
  -5   0   2 22.3605 1.82671   1
  -5   0   2 22.9563 1.70913   2
  -5   0   2 22.1202 1.62263   8
  -5   0   2 20.7802 1.92064   4
  -5   0   2 22.2810 1.62363   6
  -5   0   2 21.3688 1.88457   3
  -5   0   2 18.6827 1.70971   7
  -5   0   2 23.2273 2.15848   9
   4   0  -2 185.318 9.49285   4
   4   0  -2 194.876 9.73628   9
   4   0  -2 169.406 9.28284   1
   4   0  -2 198.929 9.14847   8
  -4   0   2 193.507 9.22675   2
  -4   0   2 185.485 9.32995   7
  -4   0   2 205.245 9.66661   4
  -4   0   2 203.173 9.16795   5
  -4   0   2 190.624 9.44702   1
  -4   0   2 208.759 9.91579   9
  -4   0   2 198.277 9.45757   3
  -4   0   2 192.635 9.16885   6
  -4   0   2 200.473 9.19119   8
   3   0  -2 13.6910 1.00782   2
   3   0  -2 13.1680 1.34627   9
   3   0  -2 14.3776 1.28894   4
   3   0  -2 14.5156 1.05740   8
  -3   0   2 16.4271 1.12401   2
  -3   0   2 13.5862 1.16805   3
  -3   0   2 14.2497 1.25173   1
  -3   0   2 13.0366 1.37432   9
  -3   0   2 13.4392 1.12385   7
  -3   0   2 13.8023 1.03965   5
  -3   0   2 13.6369 1.07394   6
  -3   0   2 15.2895 1.09868   8
  -3   0   2 14.3948 1.32224   4
   2   0  -2 421.297 18.3717   8
   2   0  -2 380.304 18.6088   4
   2   0  -2 421.822 18.3184   2
   2   0  -2 389.938 18.7893   9
   2   0  -2 382.001 18.7758   9
  -2   0   2 397.951 18.8513   9
  -2   0   2 409.915 18.7034   4
  -2   0   2 433.771 18.3651   5
  -2   0   2 414.504 18.3991   7
  -2   0   2 435.785 18.4712   3
  -2   0   2 420.210 18.3829   2
  -2   0   2 418.916 18.4148   6
  -2   0   2 404.250 18.6245   1
  -2   0   2 421.501 18.4022   8
   1   0  -2 121.038 6.25368   9
   1   0  -2 129.722 5.95172   8
   1   0  -2 127.795 5.87647   2
   1   0  -2 124.423 6.15020   4
   1   0  -2 122.362 6.26587   9
   1   0  -2 135.320 5.83468   7
  -1   0   2 129.157 5.99438   6
  -1   0   2 136.473 5.91956   3
  -1   0   2 142.697 5.88388   7
  -1   0   2 126.098 6.18692   4
  -1   0   2 122.929 6.13062   1
  -1   0   2 130.171 5.92266   5
  -1   0   2 131.110 5.98148   8
  -1   0   2 126.564 6.31214   9
   0   0  -2 23.8079 1.03206   7
   0   0  -2 22.0901 1.14244   2
   0   0  -2 21.3479 1.28867   4
   0   0  -2 22.2768 1.19016   8
   0   0  -2 22.6886 1.39070   9
   0   0   2 22.2314 1.17135   5
   0   0   2 21.2069 1.22748   6
   0   0   2 22.3165 1.31343   4
   0   0   2 22.4729 1.08558   3
   0   0   2 21.9186 1.29042   1
   0   0   2 21.0523 1.36919   9
  -1   0  -2 915.626 41.0897   4
  -1   0  -2 910.115 41.1330   2
  -1   0  -2 944.093 41.0958   8
  -1   0  -2 947.772 41.1578   9
  -1   0  -2 959.153 41.1724   7
   1   0   2 957.032 41.1318   5
   1   0   2 909.245 41.1014   1
   1   0   2 905.687 41.1666   9
   1   0   2 936.900 41.1339   3
   1   0   2 980.550 41.1527   6
  -2   0  -2 1214.62 53.9522   7
  -2   0  -2 1367.22 53.9928   4
  -2   0  -2 1186.78 53.8078   2
  -2   0  -2 1189.58 53.6837   8
  -2   0  -2 1209.00 53.9272   3
   2   0   2 1232.87 53.7104   6
   2   0   2 1160.08 53.8756   3
   2   0   2 1231.50 53.7808   5
  -3   0  -2 442.813 20.0459   7
  -3   0  -2 428.260 19.8079   2
  -3   0  -2 476.034 19.5598   4
  -3   0  -2 451.313 20.0314   3
  -3   0  -2 408.280 19.5349   9
  -3   0  -2 450.115 19.6310   8
   3   0   2 444.134 19.5105   9
   3   0   2 464.267 19.5941   9
   3   0   2 427.971 19.6136   6
   3   0   2 450.324 19.7588   5
   3   0   2 431.011 19.9497   3
   3   0   2 426.051 19.4478   1
  -4   0  -2 406.337 17.7616   4
  -4   0  -2 408.914 18.3385   3
  -4   0  -2 392.724 18.0302   2
  -4   0  -2 393.689 17.7823   8
  -4   0  -2 405.964 18.3607   7
  -4   0  -2 357.163 17.7547   9
   4   0   2 368.657 17.7895   9
   4   0   2 411.636 17.9614   5
   4   0   2 386.184 18.2189   3
   4   0   2 413.631 17.6049   1
   4   0   2 407.825 17.7816   6
   4   0   2 412.181 17.6979   9
  -5   0  -2 0.58250 0.30639   4
  -5   0  -2 1.58208 0.59906   3
  -5   0  -2 0.94713 0.56451   7
  -5   0  -2 1.74444 0.43462   8
  -5   0  -2 0.88392 0.41090   2
   5   0   2 0.74704 0.30519   9
   5   0   2 0.66191 0.30445   9
   5   0   2 1.07739 0.49823   3
   5   0   2 1.12324 0.38397   6
   5   0   2 1.29727 0.32573   1
   5   0   2 1.05387 0.39518   5
  -6   0  -2 -0.1357 0.26365   2
  -6   0  -2 0.05113 0.28440   8
  -6   0  -2 0.01624 0.38082   3
  -6   0  -2 0.01365 0.35174   7
   6   0   2 -0.2595 0.30430   3
   6   0   2 0.02503 0.40427   5
   6   0   2 0.04601 0.28760   9
   6   0   2 0.01855 0.32375   6
  -7   0  -2 -0.2374 0.37248   3
  -7   0  -2 0.76721 0.61425   2
  -7   0  -2 0.67161 0.60975   7
  -7   0  -2 0.93327 0.44486   8
   7   0   2 -0.0641 0.42038   3
   7   0   2 0.37141 0.50740   5
   7   0   2 0.43969 0.39454   6
  -8   0  -2 18.9768 2.65760   7
  -8   0  -2 23.6051 2.89866   3
  -8   0  -2 21.6926 2.44197   2
   8   0   2 19.9247 1.73132   6
   8   0   2 16.5721 2.32292   3
   8   0   2 20.6890 2.17103   5
  -9   0  -2 1.92336 1.17570   7
  -9   0  -2 3.51264 1.35991   3
  -9   0  -2 3.33102 1.02880   2
   9   0   2 2.47263 0.99046   5
   9   0   2 2.66651 1.02660   3
 -10   0  -2 -0.5550 1.00533   7
 -10   0  -2 0.93980 0.95762   2
 -10   0  -2 -0.1388 0.95749   3
  10   0   2 0.47104 0.62517   5
  10   0   2 0.26053 1.08045   3
  10   0   2 1.43565 1.05660   7
   9  -1  -2 -0.7698 0.56787   7
   9  -1  -2 -1.0806 0.84492   3
  -9   1   2 0.83258 0.74314   7
  -9   1   2 -0.0548 0.94367   3
   8  -1  -2 -0.2577 0.56739   2
   8  -1  -2 1.03827 0.83999   7
   8  -1  -2 0.78389 0.65722   5
   8  -1  -2 0.90393 0.77054   3
  -8   1   2 0.43461 0.56179   5
  -8   1   2 -0.6136 0.75863   3
  -8   1   2 1.68382 0.99255   7
  -8   1   2 -0.2845 0.66194   2
   7  -1  -2 13.5661 1.86226   3
   7  -1  -2 11.4389 1.84162   4
   7  -1  -2 13.0898 1.84589   7
   7  -1  -2 17.6969 1.71873   1
   7  -1  -2 15.9983 1.78621   8
   7  -1  -2 13.8278 1.62339   5
   7  -1  -2 13.8949 1.59564   6
   7  -1  -2 16.0291 1.84815   2
  -7   1   2 14.0795 1.88371   2
  -7   1   2 12.9478 1.55229   5
  -7   1   2 16.8394 2.17571   7
  -7   1   2 15.1419 1.80046   8
  -7   1   2 14.6927 2.00743   3
  -7   1   2 12.8810 2.03623   4
  -7   1   2 15.9916 1.42607   6
   6  -1  -2 6.21148 1.13541   1
   6  -1  -2 7.45393 1.24171   7
   6  -1  -2 8.54280 1.10564   6
   6  -1  -2 6.37371 1.29762   4
   6  -1  -2 6.68166 1.34025   9
   6  -1  -2 9.27606 1.40137   3
   6  -1  -2 6.31802 1.08227   2
   6  -1  -2 9.31212 1.20652   5
  -6   1   2 7.47759 1.08992   5
  -6   1   2 4.93762 1.17193   7
  -6   1   2 9.00351 1.51960   4
  -6   1   2 6.42546 0.97638   6
  -6   1   2 5.99009 1.05614   8
  -6   1   2 6.23758 1.37629   9
  -6   1   2 5.54778 1.09726   2
  -6   1   2 9.20543 1.46273   3
  -6   1   2 6.32995 1.21270   1
   5  -1  -2 6.63323 0.99522   2
   5  -1  -2 6.41171 1.05980   3
   5  -1  -2 7.75488 0.99991   6
   5  -1  -2 7.05789 1.28285   9
   5  -1  -2 8.74798 1.17613   7
   5  -1  -2 7.01543 0.97165   5
  -5   1   2 8.49044 1.27093   3
  -5   1   2 6.89088 1.16103   7
  -5   1   2 6.97153 1.33238   9
  -5   1   2 8.59235 1.18554   2
  -5   1   2 7.45005 0.99065   6
  -5   1   2 7.07476 1.18460   1
  -5   1   2 4.65787 1.04640   4
  -5   1   2 8.46755 1.00499   5
  -5   1   2 7.22891 1.03952   8
   4  -1  -2 7.83343 1.02765   7
   4  -1  -2 8.59818 0.90049   5
   4  -1  -2 5.85854 1.12233   9
   4  -1  -2 6.52384 0.98421   3
   4  -1  -2 7.16471 0.93012   2
  -4   1   2 7.44500 1.08369   3
  -4   1   2 9.56172 1.14961   2
  -4   1   2 7.55291 1.19529   4
  -4   1   2 9.10199 0.94328   5
  -4   1   2 8.69135 1.33895   9
  -4   1   2 7.84838 1.14046   1
  -4   1   2 8.47583 1.04366   8
  -4   1   2 6.12643 0.99945   7
  -4   1   2 6.50709 0.84851   6
   3  -1  -2 0.35800 0.27782   3
   3  -1  -2 0.04351 0.22705   7
   3  -1  -2 0.14556 0.22337   2
   3  -1  -2 0.23094 0.26766   9
  -3   1   2 -0.0651 0.20909   4
  -3   1   2 -0.1801 0.18088   1
  -3   1   2 0.31224 0.22514   8
  -3   1   2 0.18321 0.27393   3
  -3   1   2 0.29469 0.26664   7
  -3   1   2 -0.1282 0.16991   6
  -3   1   2 0.25681 0.35248   9
  -3   1   2 0.12263 0.20595   2
  -3   1   2 -0.0975 0.14748   5
   2  -1  -2 180.859 8.30814   7
   2  -1  -2 177.856 8.28784   3
   2  -1  -2 176.229 8.72742   9
   2  -1  -2 188.736 8.33998   2
  -2   1   2 184.174 8.37104   8
  -2   1   2 179.861 8.28247   6
  -2   1   2 187.014 8.34030   3
  -2   1   2 167.600 8.72353   9
  -2   1   2 171.500 8.61257   4
  -2   1   2 185.230 8.40394   7
  -2   1   2 169.793 8.53100   1
  -2   1   2 189.713 8.21132   5
  -2   1   2 184.751 8.41089   2
   1  -1  -2 1165.33 51.4299   9
   1  -1  -2 1150.86 50.9884   7
   1  -1  -2 1142.30 51.0528   2
   1  -1  -2 1143.73 50.9251   3
   1  -1  -2 1182.20 51.0890   8
  -1   1   2 1181.72 51.1334   2
  -1   1   2 1114.28 51.4306   9
  -1   1   2 1235.53 50.9405   5
  -1   1   2 1118.24 51.2621   1
  -1   1   2 1217.32 50.9520   3
  -1   1   2 1130.23 51.3099   4
  -1   1   2 1183.99 51.1142   8
  -1   1   2 1134.97 51.0585   6
   0  -1  -2 39.9415 2.00531   2
   0  -1  -2 39.2438 2.20722   9
   0  -1  -2 41.3016 1.94220   7
   0  -1  -2 37.8833 1.99467   8
   0   1   2 42.7237 1.91411   5
   0   1   2 38.6378 2.12415   1
   0   1   2 42.6458 2.04523   6
   0   1   2 39.0781 2.23783   9
   0   1   2 40.8244 2.03258   8
   0   1   2 40.9870 2.14204   4
  -1  -1  -2 60.8933 2.99449   7
  -1  -1  -2 59.6528 2.95316   3
  -1  -1  -2 72.2937 3.10865   9
  -1  -1  -2 59.1677 2.95534   2
  -1  -1  -2 58.8393 2.89163   8
   1   1   2 61.6209 2.97395   6
   1   1   2 66.0182 3.00151   1
   1   1   2 58.3125 2.91736   4
   1   1   2 62.5969 2.92212   5
   1   1   2 63.2379 3.06907   9
  -2  -1  -2 1876.08 85.1217   2
  -2  -1  -2 1954.09 85.2672   3
  -2  -1  -2 1941.31 85.2921   7
   2   1   2 1915.94 85.0948   5
   2   1   2 1877.72 85.0680   6
   2   1   2 2087.08 86.1437   9
  -3  -1  -2 0.77817 0.31723   3
  -3  -1  -2 0.63628 0.26984   2
  -3  -1  -2 0.66109 0.23194   9
  -3  -1  -2 0.42060 0.20985   5
  -3  -1  -2 0.35201 0.27813   7
  -3  -1  -2 1.42932 0.24996   8
   3   1   2 0.43198 0.07841   4
   3   1   2 0.26841 0.18830   5
   3   1   2 0.13245 0.16643   6
   3   1   2 0.72092 0.27257   9
   3   1   2 0.61765 0.22014   1
  -4  -1  -2 7.03546 0.84138   5
  -4  -1  -2 7.53076 0.74783   9
  -4  -1  -2 6.97856 0.88427   2
  -4  -1  -2 8.73141 1.18245   7
  -4  -1  -2 6.20356 0.50354   4
  -4  -1  -2 6.47476 0.67261   8
  -4  -1  -2 6.64373 1.02462   3
   4   1   2 6.67716 0.76388   6
   4   1   2 5.77674 0.48255   4
   4   1   2 8.20819 0.74063   9
   4   1   2 6.09091 0.80111   5
   4   1   2 7.49861 0.63666   1
  -5  -1  -2 23.9037 2.04347   3
  -5  -1  -2 25.0883 2.07945   7
  -5  -1  -2 28.1997 1.63734   8
  -5  -1  -2 28.1190 1.91147   2
  -5  -1  -2 26.5033 1.54539   4
  -5  -1  -2 22.2797 1.74417   5
   5   1   2 24.3680 1.80976   9
   5   1   2 27.6770 1.74226   6
   5   1   2 28.8486 1.62393   1
   5   1   2 29.0715 1.76515   9
   5   1   2 25.8188 1.81655   5
   5   1   2 25.0824 1.50009   4
  -6  -1  -2 18.4708 2.15586   3
  -6  -1  -2 21.0735 1.69636   2
  -6  -1  -2 17.7001 2.15379   7
  -6  -1  -2 19.6403 1.38802   8
  -6  -1  -2 19.9090 1.59397   5
   6   1   2 19.7166 1.38355   1
   6   1   2 21.0467 1.55043   9
   6   1   2 18.8337 1.56820   5
   6   1   2 16.3844 2.02021   3
   6   1   2 17.0977 1.44687   6
  -7  -1  -2 2.80762 0.78680   2
  -7  -1  -2 3.08083 0.96906   7
  -7  -1  -2 3.04862 0.97288   3
   7   1   2 1.85239 0.66432   6
   7   1   2 2.96663 0.90871   3
   7   1   2 3.15875 0.79104   5
  -8  -1  -2 4.21882 1.27222   7
  -8  -1  -2 5.71949 1.23016   2
  -8  -1  -2 5.48664 1.45146   3
   8   1   2 3.90928 0.97723   5
   8   1   2 4.27862 0.98167   6
   8   1   2 3.99047 1.13178   3
  -9  -1  -2 3.30938 1.02471   2
  -9  -1  -2 2.24581 1.21881   3
  -9  -1  -2 3.53346 1.18125   7
   9   1   2 3.42674 1.33586   3
   9   1   2 3.03864 1.03414   5
   9   1   2 3.69057 1.04078   6
 -10  -1  -2 3.13182 1.17260   2
 -10  -1  -2 1.45899 1.28003   7
 -10  -1  -2 2.28122 1.14172   3
  10   1   2 2.87167 1.19894   3
  10   1   2 4.90181 1.29900   5
   9  -2  -2 10.8884 1.84766   7
   9  -2  -2 9.26179 1.67936   2
  -9   2   2 6.19257 1.54546   7
  -9   2   2 10.9685 1.92102   2
   8  -2  -2 50.3300 3.63300   2
   8  -2  -2 59.4649 4.01586   3
   8  -2  -2 51.1592 3.57293   8
   8  -2  -2 49.4020 3.72290   7
  -8   2   2 57.3538 4.13169   3
  -8   2   2 54.2602 3.67791   8
  -8   2   2 54.1139 3.87460   2
  -8   2   2 54.6026 4.04523   7
   7  -2  -2 107.754 5.40942   5
   7  -2  -2 89.2647 5.58171   7
   7  -2  -2 99.9791 5.77419   3
   7  -2  -2 93.9064 5.54208   2
  -7   2   2 95.0478 5.48716   8
  -7   2   2 103.871 5.40810   5
  -7   2   2 108.016 6.05197   7
  -7   2   2 89.2398 5.64442   2
  -7   2   2 92.5962 5.97224   4
  -7   2   2 106.450 6.00368   3
   6  -2  -2 64.3122 4.27766   9
   6  -2  -2 62.5583 3.90658   2
   6  -2  -2 62.0454 3.97377   7
   6  -2  -2 70.2232 3.73025   5
   6  -2  -2 66.8509 3.64295   6
   6  -2  -2 69.6181 4.10080   3
  -6   2   2 67.1112 3.69032   5
  -6   2   2 65.0247 4.20778   7
  -6   2   2 62.8811 3.97708   1
  -6   2   2 64.2499 4.13303   3
  -6   2   2 69.4126 4.43731   9
  -6   2   2 64.4692 4.06635   2
  -6   2   2 64.1495 3.61343   6
  -6   2   2 64.8484 3.88905   8
  -6   2   2 58.6413 4.23040   4
   5  -2  -2 6.82507 0.89495   5
   5  -2  -2 6.59242 0.85040   6
   5  -2  -2 4.60038 0.93560   7
   5  -2  -2 5.29978 1.12357   9
   5  -2  -2 5.51613 0.94475   2
   5  -2  -2 4.19215 0.83116   3
  -5   2   2 5.23803 1.01815   3
  -5   2   2 5.07383 0.77535   6
  -5   2   2 4.93655 0.76954   5
  -5   2   2 3.96171 1.02353   9
  -5   2   2 3.55768 0.85149   1
  -5   2   2 4.73257 0.94294   2
  -5   2   2 5.17422 0.91434   8
  -5   2   2 4.54851 1.02863   7
  -5   2   2 3.27243 0.91595   4
   4  -2  -2 74.4978 4.02657   3
   4  -2  -2 71.1246 4.36574   9
   4  -2  -2 66.6184 3.94697   2
   4  -2  -2 82.0638 3.81273   5
   4  -2  -2 70.1594 4.00909   7
  -4   2   2 75.0460 3.78710   6
  -4   2   2 81.9809 3.80879   5
  -4   2   2 73.4828 4.17976   1
  -4   2   2 74.6518 4.13977   2
  -4   2   2 68.8068 4.37668   9
  -4   2   2 78.9545 4.14453   3
  -4   2   2 74.7856 4.19958   7
  -4   2   2 74.6768 4.01079   8
  -4   2   2 66.9835 4.27590   4
   3  -2  -2 6.83133 0.88711   2
   3  -2  -2 6.37941 0.85669   7
   3  -2  -2 7.05416 0.84162   3
   3  -2  -2 7.39170 0.62877   5
  -3   2   2 6.30293 0.71378   6
  -3   2   2 7.37817 0.89696   3
  -3   2   2 7.15296 0.89430   8
  -3   2   2 6.33850 0.92933   7
  -3   2   2 5.32674 0.95846   4
  -3   2   2 7.20859 0.60892   5
  -3   2   2 6.22062 0.90958   2
  -3   2   2 6.31260 0.96629   1
  -3   2   2 6.73154 1.12395   9
   2  -2  -2 99.4005 4.62926   3
   2  -2  -2 92.6559 4.72463   2
   2  -2  -2 100.141 4.73869   7
   2  -2  -2 100.547 5.10803   9
  -2   2   2 94.7652 4.82413   2
  -2   2   2 86.6765 4.86946   1
  -2   2   2 97.0807 4.59554   6
  -2   2   2 89.0883 5.07632   9
  -2   2   2 97.6682 5.01679   4
  -2   2   2 100.318 4.77158   8
  -2   2   2 104.080 4.48430   5
   1  -2  -2 21.6893 1.50792   9
   1  -2  -2 20.4298 1.22255   7
   1  -2  -2 21.1413 1.27512   2
   1  -2  -2 21.8235 1.10793   3
  -1   2   2 20.4256 1.39485   1
  -1   2   2 18.7142 1.24207   8
  -1   2   2 21.6219 1.43617   4
  -1   2   2 19.1884 1.18058   6
  -1   2   2 21.1505 1.01464   5
  -1   2   2 20.5597 1.33617   2
  -1   2   2 20.2462 1.51043   9
   0  -2  -2 35.3542 1.86532   2
   0  -2  -2 35.7048 1.83266   8
   0  -2  -2 34.6947 1.69968   3
   0  -2  -2 35.4349 1.84845   7
   0   2   2 36.6361 1.65198   5
   0   2   2 35.8169 2.09184   9
   0   2   2 35.5140 1.84054   6
   0   2   2 35.3952 1.97735   1
   0   2   2 34.8336 1.95542   4
   0   2   2 36.9965 1.86109   8
  -1  -2  -2 12.0553 0.73081   8
  -1  -2  -2 14.2178 1.01403   9
  -1  -2  -2 12.0806 0.80488   3
  -1  -2  -2 13.0028 0.86226   7
  -1  -2  -2 11.5561 0.79536   2
   1   2   2 11.9701 0.79161   4
   1   2   2 13.8548 0.95768   1
   1   2   2 12.3503 0.73731   5
   1   2   2 13.7577 0.99693   9
   1   2   2 12.7545 0.83309   6
  -2  -2  -2 302.479 13.6476   3
  -2  -2  -2 311.297 13.2742   8
  -2  -2  -2 291.037 13.4829   2
  -2  -2  -2 320.405 13.6314   9
  -2  -2  -2 305.310 13.6821   7
  -2  -2  -2 293.797 13.4671   5
   2   2   2 290.112 13.4749   6
   2   2   2 290.619 13.4573   5
   2   2   2 328.051 13.2789   4
   2   2   2 290.309 13.4877   1
   2   2   2 280.322 13.5835   9
  -3  -2  -2 153.126 7.14232   5
  -3  -2  -2 154.162 6.83646   8
  -3  -2  -2 147.506 7.36157   3
  -3  -2  -2 147.171 7.38297   7
  -3  -2  -2 162.611 7.23401   9
  -3  -2  -2 151.107 7.12192   2
   3   2   2 145.931 7.11262   5
   3   2   2 146.575 7.05494   1
   3   2   2 153.801 7.20777   9
   3   2   2 158.350 6.72983   4
   3   2   2 149.703 7.08917   6
  -4  -2  -2 9.13564 1.25636   7
  -4  -2  -2 10.7789 0.94789   5
  -4  -2  -2 9.92150 1.26567   3
  -4  -2  -2 9.36886 0.69063   8
  -4  -2  -2 9.78189 0.92153   2
   4   2   2 11.4337 0.90194   1
   4   2   2 11.0261 0.59572   4
   4   2   2 9.27312 0.88770   6
   4   2   2 11.3672 1.03242   9
   4   2   2 9.40545 1.02715   5
  -5  -2  -2 167.350 8.86505   7
  -5  -2  -2 164.727 8.82116   3
  -5  -2  -2 164.043 8.42225   2
  -5  -2  -2 179.832 8.49840   5
   5   2   2 177.107 8.47958   5
   5   2   2 193.228 8.53667   9
   5   2   2 176.312 7.92557   4
   5   2   2 176.045 8.37496   6
   5   2   2 177.444 8.28159   1
  -6  -2  -2 10.7859 1.64545   7
  -6  -2  -2 12.1050 1.41440   2
  -6  -2  -2 11.7477 0.94495   8
  -6  -2  -2 10.5635 1.62047   3
  -6  -2  -2 9.73957 1.29374   5
   6   2   2 9.84287 1.28608   9
   6   2   2 8.96997 1.18144   6
   6   2   2 9.31814 1.12120   1
   6   2   2 9.71097 1.25267   5
  -7  -2  -2 10.4997 1.48293   5
  -7  -2  -2 12.9726 1.64120   2
  -7  -2  -2 12.7416 1.94683   3
  -7  -2  -2 11.6197 1.87945   7
   7   2   2 14.8059 1.36079   6
   7   2   2 13.6671 1.67443   5
  -8  -2  -2 13.4170 2.21167   7
  -8  -2  -2 11.8327 1.71003   2
  -8  -2  -2 15.5158 2.23624   3
   8   2   2 12.8028 2.01190   3
   8   2   2 13.8323 1.83466   5
   8   2   2 12.9775 1.59353   6
  -9  -2  -2 0.21558 0.69780   2
  -9  -2  -2 -0.4297 0.60691   3
  -9  -2  -2 0.22260 0.55156   7
   9   2   2 -0.8282 0.61064   6
   9   2   2 -0.1505 0.57092   3
   9   2   2 0.40451 0.59644   5
 -10  -2  -2 46.0323 4.25123   7
 -10  -2  -2 50.1717 4.26090   3
  10   2   2 50.2141 3.74677   5
  10   2   2 48.2802 4.10562   3
   9  -3  -2 -0.1220 0.74807   8
   9  -3  -2 -0.5912 0.55227   2
   9  -3  -2 1.43582 0.93232   7
  -9   3   2 -0.2421 0.90245   7
  -9   3   2 0.01453 0.87593   2
   8  -3  -2 12.8084 1.97940   3
   8  -3  -2 12.2972 1.97240   7
   8  -3  -2 12.8980 1.91719   2
  -8   3   2 16.1387 2.07532   8
  -8   3   2 14.3023 2.18287   2
  -8   3   2 15.6780 2.39033   7
   7  -3  -2 84.0628 5.06227   7
   7  -3  -2 81.1999 4.95409   3
   7  -3  -2 83.0526 4.96172   2
  -7   3   2 79.9983 5.35912   4
  -7   3   2 86.9706 4.93360   8
  -7   3   2 82.7194 5.31141   7
  -7   3   2 79.2367 5.08279   2
   6  -3  -2 0.89633 0.61876   2
   6  -3  -2 0.91312 0.57944   3
   6  -3  -2 0.48344 0.65224   9
   6  -3  -2 1.13501 0.67333   7
   6  -3  -2 0.42952 0.42581   5
  -6   3   2 0.23690 0.61120   4
  -6   3   2 0.18741 0.51534   8
  -6   3   2 1.17516 0.74242   9
  -6   3   2 -0.5651 0.46836   2
  -6   3   2 -0.0275 0.44573   1
  -6   3   2 1.39392 0.76764   7
   5  -3  -2 38.6918 2.58873   3
   5  -3  -2 44.0649 2.31153   6
   5  -3  -2 32.8825 2.77625   9
   5  -3  -2 38.0174 2.60260   2
   5  -3  -2 46.5560 2.38696   5
   5  -3  -2 40.6931 2.70875   7
  -5   3   2 33.3941 2.84221   9
  -5   3   2 31.3419 2.63770   7
  -5   3   2 38.1516 2.55773   8
  -5   3   2 36.6420 2.66329   1
  -5   3   2 33.4672 2.80731   4
  -5   3   2 42.8178 2.29080   6
  -5   3   2 36.9147 2.69103   2
   4  -3  -2 65.0250 3.18396   5
   4  -3  -2 59.9484 3.53054   7
   4  -3  -2 60.4614 3.52655   2
   4  -3  -2 62.6746 3.46338   3
  -4   3   2 67.0353 3.18820   5
  -4   3   2 63.8348 3.52099   8
  -4   3   2 56.9256 3.76041   4
  -4   3   2 62.1318 3.72683   7
  -4   3   2 59.3501 3.63312   2
  -4   3   2 59.0189 3.61334   1
  -4   3   2 56.9453 3.85163   9
  -4   3   2 60.2848 3.15722   6
   3  -3  -2 24.3978 1.26318   5
   3  -3  -2 20.1918 1.51214   2
   3  -3  -2 20.0100 1.41675   3
   3  -3  -2 20.5979 1.52454   7
  -3   3   2 22.6387 1.23680   5
  -3   3   2 19.8227 1.26791   6
  -3   3   2 21.4730 1.52869   8
  -3   3   2 19.6959 1.78626   9
  -3   3   2 20.6114 1.71781   4
  -3   3   2 19.5226 1.62255   1
  -3   3   2 19.4501 1.58066   2
   2  -3  -2 705.866 27.9275   9
   2  -3  -2 669.627 27.0110   5
   2  -3  -2 602.154 27.4270   7
   2  -3  -2 590.292 27.4348   2
   2  -3  -2 647.780 27.2752   3
  -2   3   2 582.468 27.5924   1
  -2   3   2 590.285 27.5474   2
  -2   3   2 579.453 27.8157   9
  -2   3   2 621.330 27.4482   8
  -2   3   2 586.001 27.1636   6
  -2   3   2 577.321 27.6547   4
   1  -3  -2 220.534 10.5938   2
   1  -3  -2 230.681 10.4095   3
   1  -3  -2 255.795 10.9983   9
  -1   3   2 233.664 10.7997   4
  -1   3   2 231.235 10.4378   6
  -1   3   2 231.505 10.9414   9
  -1   3   2 225.524 10.5843   8
  -1   3   2 219.771 10.7304   1
  -1   3   2 236.558 10.7324   2
   0  -3  -2 23.1168 1.29340   3
   0  -3  -2 26.4204 1.68979   9
   0  -3  -2 22.9199 1.39369   2
   0  -3  -2 25.8618 1.45664   7
   0   3   2 23.7822 1.52571   1
   0   3   2 23.5063 1.63832   9
   0   3   2 23.2416 1.47527   4
   0   3   2 21.8670 1.34558   8
   0   3   2 24.4818 1.34415   6
   0   3   2 22.9346 1.11985   5
  -1  -3  -2 8.49032 0.59619   8
  -1  -3  -2 8.80198 0.59773   5
  -1  -3  -2 9.13893 0.76642   7
  -1  -3  -2 9.38310 0.72036   3
  -1  -3  -2 9.02575 0.68765   2
   1   3   2 9.45234 0.62612   8
   1   3   2 8.60314 0.58937   5
   1   3   2 9.15759 0.72002   6
   1   3   2 9.32311 0.97133   9
   1   3   2 10.0199 0.73147   4
   1   3   2 9.14368 0.80526   1
  -2  -3  -2 136.063 6.67725   3
  -2  -3  -2 134.400 6.49436   5
  -2  -3  -2 139.356 6.71964   7
  -2  -3  -2 141.055 6.26283   8
  -2  -3  -2 132.405 6.49356   2
   2   3   2 134.610 6.75111   9
   2   3   2 149.921 6.41996   4
   2   3   2 132.419 6.60816   1
   2   3   2 136.824 6.49003   5
   2   3   2 164.914 6.61237   6
  -3  -3  -2 112.029 5.24884   9
  -3  -3  -2 103.906 5.03510   5
  -3  -3  -2 95.4952 5.21304   3
  -3  -3  -2 108.570 4.62192   8
  -3  -3  -2 97.8457 5.24865   7
  -3  -3  -2 102.059 4.97426   2
   3   3   2 100.975 5.00832   5
   3   3   2 101.315 5.04676   1
   3   3   2 107.009 5.03358   6
   3   3   2 101.927 4.72303   4
   3   3   2 98.9802 5.19661   9
  -4  -3  -2 17.0906 0.92491   8
  -4  -3  -2 15.2778 1.20939   2
  -4  -3  -2 15.3026 1.69680   7
  -4  -3  -2 12.9311 1.55753   3
  -4  -3  -2 16.7015 1.28575   5
   4   3   2 18.4044 1.31821   5
   4   3   2 18.5156 1.29453   1
   4   3   2 16.2090 0.95367   4
   4   3   2 16.9226 1.25846   6
   4   3   2 19.2502 1.48804   9
  -5  -3  -2 39.9708 1.96860   8
  -5  -3  -2 32.8571 2.25807   2
  -5  -3  -2 39.4889 2.74489   7
  -5  -3  -2 32.7876 2.58058   3
  -5  -3  -2 34.0193 2.32280   5
   5   3   2 37.3620 2.31118   1
   5   3   2 41.4848 2.56161   9
   5   3   2 39.8633 2.41136   5
   5   3   2 36.1507 2.30098   6
  -6  -3  -2 0.85524 0.49041   2
  -6  -3  -2 -0.3672 0.52973   7
  -6  -3  -2 0.27875 0.46864   5
  -6  -3  -2 -0.0422 0.52147   3
   6   3   2 0.22448 0.53132   9
   6   3   2 0.52664 0.50106   5
   6   3   2 0.62336 0.44693   1
   6   3   2 0.39068 0.37807   6
  -7  -3  -2 3.06891 0.78256   5
  -7  -3  -2 0.91069 0.66137   3
  -7  -3  -2 1.67704 0.61601   2
  -7  -3  -2 2.31929 0.97182   7
   7   3   2 1.54448 0.69719   1
   7   3   2 2.02256 0.64745   6
   7   3   2 2.19671 0.70732   5
  -8  -3  -2 26.8557 3.19574   3
  -8  -3  -2 33.8076 2.57481   2
  -8  -3  -2 31.7833 2.51968   5
  -8  -3  -2 28.8020 3.34258   7
   8   3   2 30.6462 2.37747   6
   8   3   2 30.7903 2.52847   5
  -9  -3  -2 1.29930 0.88162   7
  -9  -3  -2 0.96743 0.80040   3
   9   3   2 0.37064 0.56152   5
   9   3   2 0.90174 0.80254   3
   9   3   2 0.56410 0.63557   6
 -10  -3  -2 17.2204 2.81505   7
 -10  -3  -2 15.1517 2.58717   3
  10   3   2 14.4730 2.16312   5
  10   3   2 13.9936 2.42334   3
  10   3   2 15.2035 2.14394   6
   9  -4  -2 10.4065 1.94504   2
   9  -4  -2 11.3270 1.93984   8
  -9   4   2 10.5528 2.07189   2
   8  -4  -2 -0.0956 0.74374   7
   8  -4  -2 1.30261 0.88540   2
  -8   4   2 -0.7839 0.71039   2
  -8   4   2 0.10105 0.70847   8
   7  -4  -2 16.1796 1.94572   3
   7  -4  -2 11.0645 1.69024   7
   7  -4  -2 15.0479 1.96154   2
  -7   4   2 8.46979 1.43311   8
  -7   4   2 9.44476 1.85123   4
  -7   4   2 9.81857 1.73666   2
   6  -4  -2 17.1146 2.11628   7
   6  -4  -2 16.8781 2.06234   2
   6  -4  -2 16.8651 1.93655   3
  -6   4   2 19.0991 2.10272   8
  -6   4   2 19.9204 2.34478   2
  -6   4   2 21.9732 2.62876   4
   5  -4  -2 159.789 8.07284   2
   5  -4  -2 168.867 8.16269   7
   5  -4  -2 175.367 8.01727   3
  -5   4   2 151.130 8.42148   9
  -5   4   2 141.206 8.00352   1
  -5   4   2 152.345 8.39092   4
  -5   4   2 154.647 8.21227   2
  -5   4   2 159.270 8.00391   8
   4  -4  -2 19.3628 1.64292   2
   4  -4  -2 19.5023 1.66222   7
   4  -4  -2 25.8544 1.68274   3
   4  -4  -2 21.6241 1.32111   5
  -4   4   2 20.0673 1.66979   8
  -4   4   2 18.6657 1.72036   1
  -4   4   2 19.9478 1.27776   6
  -4   4   2 21.8144 1.81919   2
  -4   4   2 20.9622 1.98053   9
  -4   4   2 15.3951 1.98280   4
   3  -4  -2 32.4712 2.25373   7
   3  -4  -2 37.5448 2.33959   2
   3  -4  -2 38.6875 1.82597   5
   3  -4  -2 37.0219 2.15257   3
  -3   4   2 34.9633 2.39254   2
  -3   4   2 35.8951 2.60247   9
  -3   4   2 33.0368 2.36731   1
  -3   4   2 32.7119 1.86667   6
  -3   4   2 34.3726 2.46933   4
  -3   4   2 35.1261 2.24910   8
   2  -4  -2 64.2262 3.45537   7
   2  -4  -2 63.4452 3.43634   2
   2  -4  -2 69.3105 3.28443   3
   2  -4  -2 68.5038 2.85507   5
  -2   4   2 56.7731 3.06615   6
  -2   4   2 59.8973 3.58428   4
  -2   4   2 62.8128 3.39831   8
  -2   4   2 61.7164 3.53829   1
  -2   4   2 60.5686 3.71897   9
  -2   4   2 61.7565 3.53155   2
   1  -4  -2 74.5211 3.59579   3
   1  -4  -2 69.5733 3.74573   7
   1  -4  -2 75.6866 3.76960   2
  -1   4   2 71.7337 3.85158   1
  -1   4   2 75.9995 3.73481   8
  -1   4   2 70.1071 3.88394   4
  -1   4   2 73.4397 3.51411   6
  -1   4   2 70.9139 4.01901   9
   0  -4  -2 0.60322 0.28186   2
   0  -4  -2 0.51153 0.11981   5
   0  -4  -2 0.56422 0.26214   7
   0  -4  -2 0.78577 0.46525   9
   0  -4  -2 0.35531 0.17652   3
   0   4   2 0.46900 0.11866   5
   0   4   2 0.46602 0.31716   1
   0   4   2 0.58047 0.30890   4
   0   4   2 0.64024 0.22234   8
   0   4   2 0.81391 0.28121   6
   0   4   2 0.33912 0.34919   9
  -1  -4  -2 304.038 13.9738   2
  -1  -4  -2 310.158 13.8225   8
  -1  -4  -2 317.166 14.0572   3
  -1  -4  -2 299.473 14.1132   7
  -1  -4  -2 308.357 13.8176   5
   1   4   2 312.815 14.1581   1
   1   4   2 309.311 13.8429   8
   1   4   2 332.016 14.0758   4
   1   4   2 313.957 14.3488   9
   1   4   2 297.174 13.7938   5
   1   4   2 304.745 13.9298   6
  -2  -4  -2 9.81486 0.78528   2
  -2  -4  -2 9.85070 0.92956   7
  -2  -4  -2 10.2904 0.59770   8
  -2  -4  -2 8.74867 0.76170   5
  -2  -4  -2 11.3462 0.95675   3
   2   4   2 10.5951 0.79244   5
   2   4   2 10.2724 0.80092   4
   2   4   2 10.4450 0.97605   1
   2   4   2 9.40296 1.22309   9
   2   4   2 9.91569 0.81807   6
  -3  -4  -2 43.5514 2.78000   7
  -3  -4  -2 42.0657 2.74136   3
  -3  -4  -2 45.8902 2.48835   2
  -3  -4  -2 45.4164 2.55934   5
   3   4   2 46.4914 2.38188   4
   3   4   2 49.6910 2.71236   1
   3   4   2 47.8204 2.59509   6
   3   4   2 47.7081 2.89776   9
   3   4   2 46.2203 2.55240   5
  -4  -4  -2 80.3089 3.95151   5
  -4  -4  -2 65.3405 4.09435   3
  -4  -4  -2 77.3242 3.79547   2
  -4  -4  -2 74.7061 4.22485   7
   4   4   2 67.8695 3.88577   1
   4   4   2 77.3902 4.19510   9
   4   4   2 70.8110 3.85035   5
   4   4   2 69.3923 3.50072   4
   4   4   2 72.1594 3.85698   6
  -5  -4  -2 4.43153 0.82715   5
  -5  -4  -2 3.59548 0.87230   3
  -5  -4  -2 3.32416 0.65170   2
  -5  -4  -2 3.16701 0.85495   7
   5   4   2 2.72193 0.69727   5
   5   4   2 3.36983 0.88713   9
   5   4   2 3.63601 0.73372   6
   5   4   2 4.25061 0.80185   1
  -6  -4  -2 1.03844 0.50208   5
  -6  -4  -2 -0.0146 0.37903   3
  -6  -4  -2 0.60649 0.51576   7
  -6  -4  -2 -0.0205 0.32830   2
   6   4   2 1.33893 0.53359   5
   6   4   2 1.48661 0.66064   1
   6   4   2 0.39721 0.38913   6
   6   4   2 0.39072 0.63375   9
  -7  -4  -2 0.91632 0.77711   3
  -7  -4  -2 1.30319 0.90905   7
  -7  -4  -2 1.57952 0.78200   5
  -7  -4  -2 2.11156 0.69586   2
   7   4   2 3.35482 0.90887   1
   7   4   2 2.34152 0.72145   6
   7   4   2 1.57481 0.74218   5
   7   4   2 1.49601 0.91255   9
  -8  -4  -2 11.3591 2.01429   7
  -8  -4  -2 8.96648 1.43603   5
  -8  -4  -2 6.83873 1.55281   3
   8   4   2 8.00313 1.37698   6
   8   4   2 8.13171 1.39092   5
  -9  -4  -2 4.84125 1.60055   3
  -9  -4  -2 3.03661 0.89260   5
  -9  -4  -2 3.84547 1.34375   7
   9   4   2 2.75173 0.92680   5
   9   4   2 3.60019 1.07588   6
   8  -5  -2 7.37791 1.63207   7
   8  -5  -2 7.51610 1.60487   2
  -8   5   2 11.1117 2.06786   2
  -8   5   2 7.11812 1.43341   8
   7  -5  -2 3.01183 0.99768   3
   7  -5  -2 3.19989 1.12963   7
   7  -5  -2 6.03195 1.30687   2
  -7   5   2 2.54538 0.92023   8
  -7   5   2 4.33182 1.21423   2
  -7   5   2 3.44643 1.20135   4
   6  -5  -2 1.75506 0.75028   3
   6  -5  -2 1.39186 0.68203   7
   6  -5  -2 2.91959 0.94333   2
  -6   5   2 2.24160 0.97566   2
  -6   5   2 1.10033 0.60550   8
  -6   5   2 2.52917 1.06721   4
   5  -5  -2 111.320 6.07619   2
   5  -5  -2 119.672 6.21190   7
   5  -5  -2 123.649 5.98021   3
  -5   5   2 99.3521 6.12674   2
  -5   5   2 111.260 6.00020   8
  -5   5   2 108.671 6.43088   9
  -5   5   2 105.148 6.36485   4
  -5   5   2 106.855 6.07648   1
   4  -5  -2 55.8872 3.07110   3
   4  -5  -2 50.7752 3.21132   7
   4  -5  -2 48.7648 3.17216   2
  -4   5   2 44.7560 3.31593   4
  -4   5   2 53.4765 3.59903   9
  -4   5   2 46.4787 3.20165   1
  -4   5   2 48.0866 3.30812   2
  -4   5   2 51.1569 3.13525   8
   3  -5  -2 146.515 6.69544   3
   3  -5  -2 140.496 6.92692   7
   3  -5  -2 134.757 6.85959   2
  -3   5   2 129.168 6.76647   8
  -3   5   2 131.508 6.98996   2
  -3   5   2 138.292 7.13577   4
  -3   5   2 129.505 6.23039   6
  -3   5   2 136.045 7.26607   9
  -3   5   2 136.074 6.98145   1
   2  -5  -2 69.8299 3.73716   2
   2  -5  -2 72.2182 3.57201   3
   2  -5  -2 67.2769 3.74239   7
  -2   5   2 64.8854 3.27822   6
  -2   5   2 68.2015 3.67105   8
  -2   5   2 67.5047 4.02961   9
  -2   5   2 67.5202 3.91587   4
  -2   5   2 66.6784 3.83495   2
  -2   5   2 64.7884 3.78409   1
   1  -5  -2 243.351 11.7520   7
   1  -5  -2 257.160 11.5801   3
   1  -5  -2 256.468 11.7246   2
  -1   5   2 241.177 11.8669   4
  -1   5   2 251.979 11.6482   8
  -1   5   2 260.228 11.3880   6
  -1   5   2 256.521 11.8519   1
  -1   5   2 249.006 12.0486   9
   0  -5  -2 470.522 21.2087   3
   0  -5  -2 456.257 21.2249   2
   0  -5  -2 458.701 20.8206   5
   0  -5  -2 467.036 21.3588   7
   0   5   2 465.683 21.1397   8
   0   5   2 468.735 21.3949   4
   0   5   2 517.058 21.7211   9
   0   5   2 494.385 21.4414   1
   0   5   2 458.223 21.0322   6
  -1  -5  -2 68.9745 3.50563   3
  -1  -5  -2 70.1169 3.59186   7
  -1  -5  -2 64.9369 3.36712   2
  -1  -5  -2 59.2617 3.17112   5
   1   5   2 65.2005 3.32252   6
   1   5   2 66.3522 3.81613   9
   1   5   2 68.0006 3.64006   1
   1   5   2 68.3576 3.50685   4
   1   5   2 62.9934 3.21641   8
  -2  -5  -2 102.394 4.88202   2
  -2  -5  -2 98.1531 5.12595   3
  -2  -5  -2 97.6494 4.85378   5
  -2  -5  -2 102.014 5.17861   7
  -2  -5  -2 98.5686 4.59432   8
   2   5   2 104.342 4.94782   6
   2   5   2 97.1298 5.13420   1
   2   5   2 106.705 4.97368   4
   2   5   2 95.8782 5.32669   9
  -3  -5  -2 14.8386 1.12310   5
  -3  -5  -2 14.1943 1.30766   7
  -3  -5  -2 12.1769 0.99825   2
  -3  -5  -2 12.3128 1.42374   3
   3   5   2 14.8443 1.31194   1
   3   5   2 11.8045 1.53291   9
   3   5   2 14.7571 1.07352   4
   3   5   2 13.0875 1.06381   5
   3   5   2 14.4015 1.14207   6
  -4  -5  -2 19.4314 1.56822   5
  -4  -5  -2 20.3910 1.81355   3
  -4  -5  -2 19.6738 1.80041   7
  -4  -5  -2 24.0219 1.55197   2
   4   5   2 24.5043 1.66123   5
   4   5   2 21.8208 2.01776   9
   4   5   2 23.8803 1.47089   4
   4   5   2 23.1531 1.65115   6
   4   5   2 24.3379 1.80811   1
  -5  -5  -2 192.678 9.12342   2
  -5  -5  -2 196.995 9.36016   5
  -5  -5  -2 179.541 9.70296   7
  -5  -5  -2 187.268 9.74023   3
   5   5   2 205.504 9.78037   9
   5   5   2 186.579 9.29137   5
   5   5   2 191.861 9.40254   1
   5   5   2 189.969 9.29565   6
  -6  -5  -2 2.72326 0.67946   2
  -6  -5  -2 0.76542 0.58702   3
  -6  -5  -2 3.67384 1.04799   7
  -6  -5  -2 0.89796 0.44790   5
   6   5   2 3.63193 0.87483   1
   6   5   2 2.77925 1.03780   9
   6   5   2 2.35455 0.68743   5
   6   5   2 2.45419 0.77226   6
  -7  -5  -2 33.1942 2.51580   5
  -7  -5  -2 26.3168 3.03652   3
  -7  -5  -2 31.7782 2.82953   7
   7   5   2 32.4639 2.45907   1
   7   5   2 30.7950 2.46378   5
   7   5   2 29.6287 2.73283   9
   7   5   2 32.9597 2.43757   6
  -8  -5  -2 0.41033 0.63580   3
  -8  -5  -2 -0.0933 0.63995   5
  -8  -5  -2 0.88735 0.90192   7
   8   5   2 0.27810 0.69710   5
   8   5   2 -0.7551 0.44015   6
  -9  -5  -2 2.43138 1.32211   7
  -9  -5  -2 4.73994 1.60317   3
  -9  -5  -2 3.67267 1.06107   5
   9   5   2 5.45331 1.27062   6
   9   5   2 2.38962 0.94382   5
   8  -6  -2 0.65618 0.72101   7
   8  -6  -2 1.57712 1.08965   2
  -8   6   2 2.10595 1.10571   4
  -8   6   2 0.59227 0.85551   8
  -8   6   2 0.02583 0.86386   2
   7  -6  -2 5.53472 1.31584   2
   7  -6  -2 3.21332 1.03486   7
  -7   6   2 4.07012 1.19069   2
  -7   6   2 5.36769 1.25636   8
  -7   6   2 3.93241 1.21801   4
   6  -6  -2 14.8121 2.07969   7
   6  -6  -2 16.4985 1.88613   3
   6  -6  -2 15.1420 1.97767   2
  -6   6   2 20.3712 2.47661   2
  -6   6   2 17.3463 2.06156   8
  -6   6   2 9.92428 1.90002   4
   5  -6  -2 157.534 7.26486   3
   5  -6  -2 140.058 7.43133   7
   5  -6  -2 134.844 7.33670   2
  -5   6   2 130.919 7.50312   2
  -5   6   2 134.226 7.26072   8
  -5   6   2 124.459 7.56600   4
  -5   6   2 132.683 7.35072   1
  -5   6   2 144.137 8.36999   9
   4  -6  -2 0.54100 0.48277   7
   4  -6  -2 1.39815 0.49382   3
   4  -6  -2 0.72078 0.47390   2
  -4   6   2 1.31808 0.66753   1
  -4   6   2 1.10414 0.53155   8
  -4   6   2 1.00191 0.58359   2
  -4   6   2 0.88768 0.57012   4
  -4   6   2 2.81544 0.88889   9
   3  -6  -2 248.125 11.0391   3
   3  -6  -2 225.724 11.1850   2
   3  -6  -2 241.817 11.3121   7
  -3   6   2 231.685 11.4868   4
  -3   6   2 218.810 11.5455   9
  -3   6   2 230.133 11.1281   8
  -3   6   2 233.305 11.4066   2
  -3   6   2 228.071 11.2994   1
   2  -6  -2 33.3504 2.12736   2
   2  -6  -2 29.9440 2.11111   7
   2  -6  -2 31.0225 1.92819   3
  -2   6   2 26.8733 1.55556   6
  -2   6   2 25.5996 1.89139   8
  -2   6   2 26.9962 2.11633   2
  -2   6   2 29.1760 2.09434   1
  -2   6   2 24.3473 2.17193   9
  -2   6   2 30.4102 2.22599   4
   1  -6  -2 4.73754 0.75160   3
   1  -6  -2 5.69087 0.88938   7
   1  -6  -2 5.04823 0.27540   5
   1  -6  -2 6.04305 0.88664   2
  -1   6   2 4.65220 0.58978   6
  -1   6   2 5.04049 0.93748   1
  -1   6   2 3.43787 0.66492   8
  -1   6   2 4.07381 0.91644   9
  -1   6   2 5.24272 0.94143   4
   0  -6  -2 223.393 10.7669   2
   0  -6  -2 227.939 10.8010   3
   0  -6  -2 234.925 10.9754   7
   0  -6  -2 223.934 10.3323   5
   0   6   2 235.465 10.6850   8
   0   6   2 240.109 11.0246   1
   0   6   2 231.938 11.2417   9
   0   6   2 234.635 11.0001   4
   0   6   2 229.557 10.5542   6
  -1  -6  -2 13.5327 0.93460   5
  -1  -6  -2 12.4540 1.39041   7
  -1  -6  -2 13.8873 1.09022   2
  -1  -6  -2 13.4405 1.16937   3
   1   6   2 12.7511 0.95470   8
   1   6   2 14.2151 1.35239   1
   1   6   2 15.0823 1.26402   4
   1   6   2 11.5851 1.60635   9
   1   6   2 12.9637 1.05478   6
  -2  -6  -2 43.9732 2.44006   5
  -2  -6  -2 40.2709 2.67002   3
  -2  -6  -2 45.0831 2.78914   7
  -2  -6  -2 43.3662 2.18726   8
  -2  -6  -2 45.8959 2.47168   2
   2   6   2 44.6550 2.51087   6
   2   6   2 44.0680 2.79686   1
   2   6   2 42.1632 2.19990   8
   2   6   2 47.2315 2.63361   4
   2   6   2 44.5888 3.01850   9
  -3  -6  -2 36.0032 2.14039   2
  -3  -6  -2 36.5452 2.22895   5
  -3  -6  -2 34.6601 2.47847   3
  -3  -6  -2 37.8745 2.56509   7
   3   6   2 38.8618 2.26370   4
   3   6   2 36.3880 2.71491   9
   3   6   2 36.8014 2.28994   6
   3   6   2 36.8599 2.20697   5
   3   6   2 36.7932 2.51560   1
  -4  -6  -2 16.5057 1.42596   5
  -4  -6  -2 17.1784 1.94159   7
  -4  -6  -2 16.1685 1.26459   2
  -4  -6  -2 15.7746 1.87409   3
   4   6   2 19.5761 1.36994   4
   4   6   2 17.1177 1.47765   6
   4   6   2 16.0311 1.84759   1
   4   6   2 17.1670 1.81873   9
   4   6   2 17.7062 1.44328   5
  -5  -6  -2 23.4075 1.63501   2
  -5  -6  -2 22.9109 1.79663   5
  -5  -6  -2 21.9855 2.42838   7
  -5  -6  -2 18.2287 2.22204   3
   5   6   2 22.2044 1.93497   1
   5   6   2 21.3129 2.12537   9
   5   6   2 23.9408 1.82987   6
   5   6   2 22.1603 1.76269   5
  -6  -6  -2 17.3269 2.29611   7
  -6  -6  -2 17.3824 2.28513   3
  -6  -6  -2 19.8159 2.07144   5
   6   6   2 20.3975 1.77299   6
   6   6   2 18.5277 2.42954   9
   6   6   2 20.8283 2.27652   1
   6   6   2 20.1172 2.07272   5
  -7  -6  -2 3.57470 1.15960   3
  -7  -6  -2 2.39630 1.09343   7
  -7  -6  -2 3.15588 0.88481   5
   7   6   2 2.68519 1.13429   1
   7   6   2 3.18764 0.97365   6
   7   6   2 1.87902 0.74365   5
   7   6   2 1.69035 1.30094   9
  -8  -6  -2 -0.0166 0.82261   7
  -8  -6  -2 -0.7791 0.49116   5
  -8  -6  -2 1.34811 0.98337   3
   8   6   2 1.00867 0.82488   5
   8   6   2 -1.5858 0.77265   1
   8   6   2 -0.6052 0.72816   6
  -9  -6  -2 23.2163 3.14011   3
  -9  -6  -2 21.4831 2.57568   5
  -9  -6  -2 24.3089 3.16777   7
   9   6   2 27.6592 2.90471   5
   9   6   2 22.4938 2.74695   6
   8  -7  -2 4.86246 1.43861   7
  -8   7   2 5.09522 1.42530   4
   7  -7  -2 1.30956 0.83223   2
   7  -7  -2 1.68681 0.77411   7
  -7   7   2 2.23219 1.12213   4
  -7   7   2 1.06470 1.02710   2
  -7   7   2 2.10440 0.87032   8
   6  -7  -2 0.27530 0.60628   7
   6  -7  -2 1.52685 0.77446   2
   6  -7  -2 1.43029 0.78739   3
  -6   7   2 -0.1437 0.50579   2
  -6   7   2 1.04724 0.62215   8
  -6   7   2 0.84640 0.84846   4
   5  -7  -2 0.56749 0.63354   2
   5  -7  -2 0.57588 0.58287   3
   5  -7  -2 1.23356 0.78552   7
  -5   7   2 0.22580 0.66420   2
  -5   7   2 0.10587 0.44894   4
  -5   7   2 0.14823 0.56430   8
   4  -7  -2 92.0022 4.66399   3
   4  -7  -2 84.4759 4.82347   2
   4  -7  -2 80.0813 4.80857   7
  -4   7   2 77.7423 4.63049   8
  -4   7   2 86.0298 5.03960   2
  -4   7   2 71.9886 4.68745   1
  -4   7   2 76.0090 5.01433   9
  -4   7   2 76.4456 4.96541   4
   3  -7  -2 81.3648 4.29159   3
   3  -7  -2 74.2362 4.40062   2
   3  -7  -2 81.4937 4.59423   7
  -3   7   2 73.9933 4.32297   8
  -3   7   2 73.0790 4.56284   2
  -3   7   2 69.8416 4.58748   4
  -3   7   2 77.3062 4.51038   1
  -3   7   2 78.8765 4.81316   9
   2  -7  -2 25.6887 1.98179   7
   2  -7  -2 18.8356 1.67940   2
   2  -7  -2 23.4282 1.73282   3
  -2   7   2 21.6315 2.03036   9
  -2   7   2 22.3525 1.72423   8
  -2   7   2 22.6374 2.01869   4
  -2   7   2 20.8714 1.85820   1
   1  -7  -2 3.08171 0.77880   7
   1  -7  -2 1.98756 0.60196   2
   1  -7  -2 1.96697 0.57268   3
  -1   7   2 3.11368 0.68437   8
  -1   7   2 1.29952 0.69320   1
  -1   7   2 2.37804 0.85525   9
  -1   7   2 1.46523 0.58884   4
  -1   7   2 1.65012 0.41184   6
   0  -7  -2 80.9928 4.34679   7
   0  -7  -2 77.6859 4.09678   2
   0  -7  -2 74.7790 3.63007   5
   0  -7  -2 72.6744 4.12405   3
   0   7   2 73.7435 4.53530   9
   0   7   2 77.6757 3.97398   8
   0   7   2 80.5141 4.37338   1
   0   7   2 73.3694 3.83749   6
   0   7   2 77.0659 4.31757   4
  -1  -7  -2 198.941 9.81048   3
  -1  -7  -2 198.651 9.34392   5
  -1  -7  -2 202.839 9.92005   7
  -1  -7  -2 206.205 9.60472   2
   1   7   2 200.255 10.2272   9
   1   7   2 203.862 9.51112   6
   1   7   2 204.243 9.41763   8
   1   7   2 214.514 10.0182   1
   1   7   2 203.270 9.85034   4
  -2  -7  -2 357.294 15.9988   5
  -2  -7  -2 368.019 16.5312   7
  -2  -7  -2 360.160 16.4689   3
  -2  -7  -2 348.660 16.0185   2
   2   7   2 368.175 16.2994   4
   2   7   2 344.898 15.7770   8
   2   7   2 335.462 16.4457   1
   2   7   2 347.455 16.0788   6
   2   7   2 338.465 16.7731   9
  -3  -7  -2 11.1140 0.98475   2
  -3  -7  -2 11.6566 1.55060   7
  -3  -7  -2 10.2024 1.48342   3
  -3  -7  -2 10.4171 1.20064   5
   3   7   2 12.1288 1.81876   9
   3   7   2 12.5134 1.21388   4
   3   7   2 10.4841 1.27032   6
   3   7   2 11.8089 1.70638   1
  -4  -7  -2 49.6332 3.06301   5
  -4  -7  -2 51.5550 3.48428   7
  -4  -7  -2 55.2169 2.92905   2
  -4  -7  -2 52.1935 3.48295   3
   4   7   2 50.4331 3.04301   5
   4   7   2 54.6548 3.03101   4
   4   7   2 53.4385 3.49735   1
   4   7   2 43.9189 3.61631   9
   4   7   2 51.4504 3.11560   6
  -5  -7  -2 13.9183 1.61299   5
  -5  -7  -2 16.4145 2.03624   7
  -5  -7  -2 12.1764 1.82650   3
   5   7   2 11.9057 1.49821   5
   5   7   2 14.0659 1.94394   1
   5   7   2 12.5123 2.08552   9
   5   7   2 13.1745 1.58719   6
  -6  -7  -2 2.00300 0.88393   7
  -6  -7  -2 2.28691 0.71877   5
  -6  -7  -2 3.98875 1.20432   3
   6   7   2 3.49034 1.09725   1
   6   7   2 3.07538 0.84643   6
   6   7   2 0.19045 1.16489   9
   6   7   2 2.50751 0.75152   5
  -7  -7  -2 -0.2274 0.75867   3
  -7  -7  -2 -0.0984 0.54408   7
  -7  -7  -2 -0.4181 0.54401   5
   7   7   2 0.09623 0.60959   5
   7   7   2 -0.5717 0.40094   6
   7   7   2 -2.1053 0.76837   1
  -8  -7  -2 18.9509 2.82619   3
  -8  -7  -2 22.1595 2.53507   5
  -8  -7  -2 19.2454 2.82802   7
   8   7   2 17.8953 2.28307   5
   8   7   2 18.8337 2.62973   1
   8   7   2 21.6960 2.49915   6
  -9  -7  -2 14.6256 2.53909   7
   7  -8  -2 4.90936 1.42738   7
   7  -8  -2 2.54901 1.15818   2
  -7   8   2 2.99562 1.03264   8
  -7   8   2 1.94271 1.18035   2
  -7   8   2 3.13123 1.35393   4
   6  -8  -2 4.55244 1.24568   2
   6  -8  -2 2.13693 0.92428   7
  -6   8   2 2.92815 1.13400   4
  -6   8   2 2.53687 0.90608   8
  -6   8   2 0.08602 0.89766   2
   5  -8  -2 0.79210 0.56275   2
   5  -8  -2 0.70178 0.57819   7
   5  -8  -2 1.07538 0.71199   3
  -5   8   2 0.20846 0.49030   4
  -5   8   2 0.98574 0.68855   2
  -5   8   2 0.87524 0.58717   8
   4  -8  -2 -0.3394 0.57797   7
   4  -8  -2 -0.1425 0.37351   2
   4  -8  -2 0.09512 0.39023   3
  -4   8   2 0.72917 0.51478   1
  -4   8   2 -0.2706 0.45947   2
  -4   8   2 1.36720 0.57641   9
  -4   8   2 -0.0518 0.61954   4
  -4   8   2 0.67828 0.54737   8
   3  -8  -2 32.3171 2.56164   7
   3  -8  -2 34.1341 2.33600   3
   3  -8  -2 27.0972 2.34018   2
  -3   8   2 30.6292 2.61329   9
  -3   8   2 31.3801 2.38013   8
  -3   8   2 29.2295 2.61110   4
  -3   8   2 30.1845 2.43435   1
   2  -8  -2 14.7382 1.80708   7
   2  -8  -2 13.6402 1.54706   3
   2  -8  -2 15.0544 1.73136   2
  -2   8   2 11.3861 1.55759   1
  -2   8   2 11.1354 1.64064   4
  -2   8   2 12.2396 1.77299   9
  -2   8   2 11.4556 1.47216   8
   1  -8  -2 38.9866 2.67168   7
   1  -8  -2 37.0149 2.49045   3
   1  -8  -2 36.7530 2.46117   2
  -1   8   2 34.3283 2.69218   4
  -1   8   2 36.0285 2.68142   1
  -1   8   2 34.6381 2.81612   9
  -1   8   2 37.9593 2.39839   8
   0  -8  -2 1.90701 0.59636   2
   0  -8  -2 1.08465 0.62207   7
   0  -8  -2 1.43776 0.58860   3
   0   8   2 3.77502 0.95894   1
   0   8   2 1.42515 0.48026   8
   0   8   2 2.43162 0.91458   9
   0   8   2 2.08897 0.55311   6
   0   8   2 1.69636 0.65998   4
  -1  -8  -2 51.2783 3.17049   3
  -1  -8  -2 54.6782 3.30874   7
  -1  -8  -2 47.0688 2.87514   2
  -1  -8  -2 50.5792 2.68003   5
   1   8   2 47.6552 2.71780   8
   1   8   2 47.1712 2.81798   6
   1   8   2 51.6676 3.71483   9
   1   8   2 50.1452 3.31922   1
   1   8   2 49.6599 3.16836   4
  -2  -8  -2 20.1529 2.14154   3
  -2  -8  -2 21.8072 1.89421   7
  -2  -8  -2 20.2726 1.49449   5
  -2  -8  -2 23.4907 1.58893   2
   2   8   2 20.3987 1.79256   4
   2   8   2 23.3400 2.49267   9
   2   8   2 23.8987 2.09108   1
   2   8   2 19.0398 1.59354   6
  -3  -8  -2 0.54649 0.48907   3
  -3  -8  -2 0.07669 0.41494   7
  -3  -8  -2 0.35591 0.39176   5
  -3  -8  -2 -0.0026 0.32227   2
   3   8   2 0.54717 0.51354   4
   3   8   2 0.50560 0.50696   6
   3   8   2 0.52732 0.98223   1
   3   8   2 -0.2994 1.06100   9
  -4  -8  -2 15.5513 2.03270   7
  -4  -8  -2 14.5700 1.94033   3
  -4  -8  -2 15.1561 1.63471   5
   4   8   2 16.3424 2.08422   1
   4   8   2 15.2368 1.66318   6
   4   8   2 11.5238 2.13137   9
   4   8   2 18.2613 2.05290   4
   4   8   2 15.0142 1.36702   5
  -5  -8  -2 2.09227 0.85634   7
  -5  -8  -2 3.71051 1.11852   3
  -5  -8  -2 2.82546 0.79632   5
   5   8   2 1.47282 0.78138   6
   5   8   2 2.26881 1.01451   1
   5   8   2 -1.0252 1.10300   9
   5   8   2 2.94549 0.81393   5
  -6  -8  -2 11.9454 1.97948   7
  -6  -8  -2 10.7339 1.90196   3
  -6  -8  -2 14.3754 1.75459   5
   6   8   2 11.9756 1.61091   5
   6   8   2 11.8329 2.02659   1
   6   8   2 9.53742 1.59337   6
  -7  -8  -2 1.19449 0.96778   7
  -7  -8  -2 2.59021 1.16885   3
  -7  -8  -2 0.54149 0.66902   5
   7   8   2 0.06679 0.83078   1
   7   8   2 1.87813 0.81801   6
   7   8   2 0.57364 0.75719   5
  -8  -8  -2 -1.1285 0.84590   3
  -8  -8  -2 -0.1334 0.66632   7
  -8  -8  -2 0.15892 0.54321   5
   8   8   2 -0.2833 0.44685   5
   8   8   2 -0.3285 0.97017   6
   8   8   2 -2.6863 1.11565   1
   6  -9  -2 22.4957 2.81442   7
   6  -9  -2 24.4477 2.82464   2
  -6   9   2 23.6724 2.95861   2
  -6   9   2 18.0367 2.73701   4
  -6   9   2 20.6118 2.56041   8
   5  -9  -2 32.6288 2.92798   2
   5  -9  -2 34.4761 3.00203   7
  -5   9   2 36.7152 3.22036   2
  -5   9   2 32.1193 3.14118   4
  -5   9   2 39.8990 3.01009   8
   4  -9  -2 3.40349 1.09392   7
   4  -9  -2 5.32163 1.15289   3
   4  -9  -2 3.57966 1.08767   2
  -4   9   2 3.64875 1.06330   8
  -4   9   2 3.97103 1.19229   4
  -4   9   2 5.37824 1.15265   1
   3  -9  -2 2.24993 0.94994   7
   3  -9  -2 1.95535 0.71082   2
   3  -9  -2 2.50456 0.85530   3
  -3   9   2 4.05411 0.93725   9
  -3   9   2 3.86144 1.12710   4
  -3   9   2 2.82429 0.83318   1
  -3   9   2 2.11918 0.70113   8
   2  -9  -2 80.8515 4.34079   3
   2  -9  -2 76.1824 4.32107   2
   2  -9  -2 68.2604 4.41569   7
  -2   9   2 68.9365 4.35596   1
  -2   9   2 68.3748 4.10278   8
  -2   9   2 67.0179 4.55386   9
  -2   9   2 64.2821 4.43862   4
   1  -9  -2 21.4138 1.90494   3
   1  -9  -2 21.4904 1.86291   2
   1  -9  -2 20.7488 2.29821   7
  -1   9   2 21.3881 2.12892   4
  -1   9   2 22.8246 1.80349   8
  -1   9   2 24.4336 2.31539   9
  -1   9   2 23.3077 2.14318   1
   0  -9  -2 1.46020 0.72907   7
   0  -9  -2 1.43622 0.59790   2
   0  -9  -2 1.04154 0.59349   3
   0   9   2 1.63184 0.76799   4
   0   9   2 1.26138 0.45542   8
   0   9   2 2.76941 1.17460   9
   0   9   2 1.37187 0.95794   1
  -1  -9  -2 73.5069 4.57148   7
  -1  -9  -2 77.5274 4.53990   3
  -1  -9  -2 75.5278 4.17333   2
   1   9   2 73.8032 4.68946   1
   1   9   2 76.9515 4.56064   4
   1   9   2 78.3572 5.07980   9
   1   9   2 77.0230 4.10368   6
  -2  -9  -2 156.877 7.80349   2
  -2  -9  -2 161.004 7.75806   5
  -2  -9  -2 162.091 8.39967   3
  -2  -9  -2 162.400 8.42951   7
   2   9   2 163.841 8.48474   1
   2   9   2 161.421 8.23453   4
   2   9   2 160.296 8.87467   9
   2   9   2 157.534 7.88744   6
  -3  -9  -2 24.1525 2.23437   3
  -3  -9  -2 22.2510 1.74831   5
  -3  -9  -2 24.7037 2.26413   7
   3   9   2 21.8755 2.51640   1
   3   9   2 24.0381 1.91795   6
   3   9   2 17.5877 2.62983   9
   3   9   2 25.0262 2.02217   4
  -4  -9  -2 10.2185 1.34709   5
  -4  -9  -2 9.40596 1.63728   3
  -4  -9  -2 12.3468 1.83704   7
   4   9   2 8.05885 1.39466   6
   4   9   2 9.16376 1.27498   5
   4   9   2 9.14061 1.70955   1
  -5  -9  -2 23.7395 1.98929   5
  -5  -9  -2 22.9939 2.68569   7
  -5  -9  -2 17.4168 2.41232   3
   5   9   2 18.9822 2.49261   1
   5   9   2 21.9490 2.05297   6
   5   9   2 21.4976 1.91690   5
  -6  -9  -2 8.25960 1.69353   7
  -6  -9  -2 8.54205 1.73722   3
  -6  -9  -2 7.76607 1.31647   5
   6   9   2 8.05312 1.34143   5
   6   9   2 6.35980 1.44495   6
   6   9   2 8.00871 1.92583   1
  -7  -9  -2 -0.5669 0.90893   3
  -7  -9  -2 1.13988 0.96982   7
  -7  -9  -2 0.34208 0.65137   5
   7   9   2 -0.0019 0.61595   5
   7   9   2 -1.7183 1.29449   1
   7   9   2 -1.5541 0.40993   6
  -8  -9  -2 2.37314 1.27964   7
  -8  -9  -2 4.16037 1.19191   5
   8   9   2 4.47420 1.18693   5
   8   9   2 1.50540 1.73856   1
   6 -10  -2 0.90341 0.83663   7
   6 -10  -2 0.13580 0.88112   2
  -6  10   2 1.26533 0.94885   4
  -6  10   2 0.84783 0.79612   8
   5 -10  -2 5.74004 1.35108   2
   5 -10  -2 11.0255 1.89500   7
  -5  10   2 8.69233 1.57744   8
  -5  10   2 9.69910 1.93418   4
   4 -10  -2 3.91587 1.24210   7
   4 -10  -2 2.90166 0.95009   2
  -4  10   2 4.73871 1.06988   8
  -4  10   2 5.50840 1.45957   4
   3 -10  -2 1.47192 0.88939   7
   3 -10  -2 3.37890 1.02193   3
   3 -10  -2 2.64674 0.90410   2
  -3  10   2 4.38683 1.02719   1
  -3  10   2 3.52382 1.19002   4
  -3  10   2 3.01903 0.86957   8
  -3  10   2 4.89114 1.02220   9
   2 -10  -2 21.3760 2.30475   3
   2 -10  -2 20.0409 2.36862   7
   2 -10  -2 20.2113 2.26213   2
  -2  10   2 21.5032 2.17618   9
  -2  10   2 21.0350 2.55395   4
  -2  10   2 18.4446 2.28679   1
  -2  10   2 18.0165 2.02738   8
   1 -10  -2 45.2586 2.97079   2
   1 -10  -2 46.2507 3.24372   7
   1 -10  -2 38.7968 2.95201   3
  -1  10   2 40.7379 2.77975   8
  -1  10   2 42.1868 3.21977   4
  -1  10   2 38.5877 3.33824   9
  -1  10   2 40.8697 3.18166   1
   0 -10  -2 0.24370 0.45561   2
   0 -10  -2 0.07613 0.57403   7
   0 -10  -2 0.09620 0.53183   3
   0  10   2 0.55443 0.71608   1
   0  10   2 -0.1071 0.60690   9
   0  10   2 0.68109 0.57355   4
  -1 -10  -2 1.73858 0.77429   3
  -1 -10  -2 0.27059 0.50203   7
  -1 -10  -2 1.49525 0.57852   2
   1  10   2 0.97857 0.98018   9
   1  10   2 1.04467 1.07441   1
   1  10   2 2.91896 0.82625   4
  -2 -10  -2 91.7768 5.35309   3
  -2 -10  -2 89.3213 5.35889   7
   2  10   2 91.6590 4.85451   6
   2  10   2 82.2598 5.33256   1
   2  10   2 85.8845 5.15489   4
  -3 -10  -2 4.07746 1.18868   3
  -3 -10  -2 4.63616 0.90693   5
  -3 -10  -2 5.45435 1.38918   7
   3  10   2 6.74625 1.54660   1
   3  10   2 7.18167 1.28012   4
   3  10   2 4.69026 0.98827   6
  -4 -10  -2 21.4033 1.85604   5
  -4 -10  -2 21.9265 2.63414   3
  -4 -10  -2 21.4829 2.70879   7
   4  10   2 20.0003 2.16798   6
   4  10   2 19.5034 2.73062   1
   4  10   2 21.7244 1.84344   5
  -5 -10  -2 0.16958 0.60431   3
  -5 -10  -2 0.20915 0.52101   5
  -5 -10  -2 0.19513 0.79133   7
   5  10   2 -0.2705 0.48601   5
   5  10   2 -3.7001 0.90515   1
   5  10   2 -0.1932 0.54344   6
  -6 -10  -2 1.34435 1.01288   7
  -6 -10  -2 0.90671 0.88039   3
  -6 -10  -2 0.39491 0.60152   5
   6  10   2 -1.0751 0.92777   1
   6  10   2 -0.3924 0.56335   5
   6  10   2 -0.7062 0.82496   6
  -7 -10  -2 41.3750 3.81275   7
  -7 -10  -2 48.5120 3.51142   5
  -7 -10  -2 50.4010 4.15955   3
   7  10   2 39.7224 3.76623   1
   7  10   2 46.1903 3.43129   5
   7  10   2 44.8624 3.49837   6
   5 -11  -2 40.2968 3.47130   7
   5 -11  -2 38.7244 3.31724   2
  -5  11   2 30.1760 3.75075   4
  -5  11   2 33.3285 3.43760   8
   4 -11  -2 0.49006 0.98101   7
   4 -11  -2 0.01843 0.67208   2
  -4  11   2 -0.1700 0.43806   8
  -4  11   2 0.94236 0.93275   4
   3 -11  -2 2.93390 1.04689   3
   3 -11  -2 2.04264 1.12459   7
   3 -11  -2 4.02072 1.12056   2
  -3  11   2 3.14085 1.21986   4
  -3  11   2 2.11646 0.85899   8
  -3  11   2 3.23853 0.96523   1
   2 -11  -2 31.1230 2.80213   7
   2 -11  -2 30.8533 2.58958   3
   2 -11  -2 27.8401 2.45310   2
  -2  11   2 26.9587 2.29619   8
  -2  11   2 26.1006 3.13786   4
  -2  11   2 29.5648 2.61723   1
   1 -11  -2 0.56443 0.59933   2
   1 -11  -2 -0.7819 0.46244   3
   1 -11  -2 0.56891 0.79278   7
  -1  11   2 0.46916 0.53027   8
  -1  11   2 1.31214 0.73426   4
  -1  11   2 1.01617 0.68761   1
   0 -11  -2 52.2660 3.72159   3
   0 -11  -2 57.0057 3.94656   7
   0 -11  -2 48.3025 3.62493   2
   0  11   2 56.9794 3.94450   1
   0  11   2 52.5130 3.85197   4
  -1 -11  -2 1.74193 0.73496   3
  -1 -11  -2 0.99450 0.69279   7
   1  11   2 2.99186 0.91496   4
   1  11   2 3.29301 1.36339   1
  -2 -11  -2 0.81741 0.74378   7
  -2 -11  -2 0.22550 0.67350   3
   2  11   2 1.64070 0.78943   4
   2  11   2 0.78120 0.97742   1
  -3 -11  -2 0.35526 0.88252   7
  -3 -11  -2 0.11334 0.78602   3
   3  11   2 -0.4259 0.58010   4
   3  11   2 -1.7604 0.51801   6
   3  11   2 0.12181 0.99900   1
  -4 -11  -2 0.33073 0.65041   3
  -4 -11  -2 0.07101 0.74475   7
   4  11   2 -0.4109 0.55069   6
   4  11   2 -0.9672 0.93868   1
  -5 -11  -2 -0.0806 0.64701   3
  -5 -11  -2 0.59109 0.77170   7
  -5 -11  -2 2.53581 0.89611   5
   5  11   2 1.67634 1.31475   1
   5  11   2 1.36418 0.76922   5
   5  11   2 2.13824 0.97042   6
  -6 -11  -2 2.72963 1.03211   7
  -6 -11  -2 4.27889 1.12657   5
  -6 -11  -2 2.23256 1.21121   3
   6  11   2 1.16562 0.97836   6
   6  11   2 -0.0626 1.70104   1
   6  11   2 3.04679 0.98539   5
   4 -12  -2 0.03615 0.80120   2
   4 -12  -2 1.44688 1.09123   7
  -4  12   2 -0.0962 0.61342   8
  -4  12   2 0.73086 0.83239   4
   3 -12  -2 19.8239 2.67312   7
   3 -12  -2 14.4181 2.06029   2
  -3  12   2 15.7122 2.16740   8
  -3  12   2 18.7434 2.72679   4
   2 -12  -2 46.1896 3.47122   3
   2 -12  -2 45.5552 3.65881   7
   2 -12  -2 45.1637 3.32336   2
  -2  12   2 43.0629 3.45226   1
  -2  12   2 41.6088 3.15108   8
  -2  12   2 46.5283 3.80159   4
   1 -12  -2 19.1965 2.41665   3
   1 -12  -2 15.3141 2.27486   7
  -1  12   2 18.4589 2.57000   4
  -1  12   2 20.5826 2.64298   1
   0 -12  -2 30.1219 3.23981   7
   0 -12  -2 26.8260 2.97817   3
   0  12   2 35.8178 3.02525   4
   0  12   2 28.1831 2.78759   1
  -1 -12  -2 1.05226 0.73040   7
  -1 -12  -2 1.68210 0.86860   3
   1  12   2 1.44289 0.70356   4
   1  12   2 0.04503 1.12095   1
  -2 -12  -2 0.14104 0.78842   7
  -2 -12  -2 0.80473 0.72072   3
   2  12   2 2.59216 0.96512   4
   2  12   2 0.12008 0.98861   1
  -3 -12  -2 6.49421 1.54953   7
  -3 -12  -2 9.07340 1.74450   3
   3  12   2 7.04996 2.16368   1
  -4 -12  -2 3.57683 1.41751   7
  -4 -12  -2 2.74350 1.06460   3
   4  12   2 2.48427 1.48832   1
   4  12   2 1.51884 1.20760   6
  -5 -12  -2 0.07465 0.76358   3
  -5 -12  -2 0.23376 0.67945   7
   5  12   2 -2.2597 0.82262   6
   5  12   2 -2.8019 1.41722   1
   2 -13  -2 10.0556 2.06982   7
  -2  13   2 13.2114 2.31252   4
  -2  13   2 14.8586 2.13384   1
   1 -13  -2 1.23227 1.10554   3
   1 -13  -2 3.70375 1.18907   7
  -1  13   2 4.19075 1.23987   1
  -1  13   2 3.96160 1.28176   4
   0 -13  -2 16.6282 2.32946   3
   0 -13  -2 12.4430 2.12803   7
   0  13   2 14.4803 2.28741   4
   0  13   2 13.7789 2.32373   1
  -1 -13  -2 4.20102 1.36227   3
  -1 -13  -2 3.30273 1.14491   7
   1  13   2 1.63923 1.39597   1
   1  13   2 3.62171 1.08515   4
  -2 -13  -2 2.77597 1.16795   7
  -2 -13  -2 5.35153 1.52301   3
   2  13   2 3.27366 1.71886   1
   2  13   2 3.74180 1.05442   4
  -3 -13  -2 2.69539 1.39812   3
  -3 -13  -2 1.17316 1.06588   7
   3  13   2 0.58930 1.62450   1
   0  13  -3 32.5852 4.32565   4
   0  13  -3 30.6414 3.77862   1
   1 -13   3 9.45331 1.94306   7
   1 -13   3 9.95733 2.52174   3
   3  12  -3 -0.6906 0.91775   4
   3  12  -3 -0.3270 1.10629   1
  -3 -12   3 -0.3121 0.63724   5
   2  12  -3 7.08331 1.76114   4
   2  12  -3 9.65324 2.11256   1
  -2 -12   3 6.11340 1.80434   3
   1  12  -3 -1.9356 0.92095   1
   1  12  -3 -0.7578 0.78901   4
  -1 -12   3 1.85664 0.97397   3
   0  12  -3 14.2351 2.32563   1
   0  12  -3 15.0552 2.51998   4
   0 -12   3 11.8283 2.15301   3
   0 -12   3 12.0193 1.97650   7
  -1  12  -3 15.0266 2.56718   1
  -1  12  -3 12.0875 2.35507   4
   1 -12   3 19.1009 2.68285   3
   1 -12   3 16.7589 2.25033   7
  -2  12  -3 0.42491 1.11170   4
   2 -12   3 1.31895 1.15081   3
   2 -12   3 -0.9537 0.67944   7
  -3  12  -3 0.52257 0.83831   8
  -3  12  -3 -0.3518 0.81199   4
   3 -12   3 0.16664 0.77871   3
   3 -12   3 -0.9311 0.50883   7
  -4  12  -3 -0.0370 0.86880   8
  -4  12  -3 0.89476 0.83086   4
   4 -12   3 -0.6414 0.82810   7
   4 -12   3 0.80386 0.94134   3
   4  11  -3 -1.0993 1.34283   1
   4  11  -3 1.05859 0.73926   6
   4  11  -3 0.87376 1.08818   4
  -4 -11   3 -0.0747 1.12985   3
  -4 -11   3 0.61225 0.66682   5
   3  11  -3 2.31908 0.83245   6
   3  11  -3 1.04472 1.19099   1
   3  11  -3 -0.4222 1.19987   4
  -3 -11   3 1.39961 0.96687   3
  -3 -11   3 1.30595 0.89129   5
   2  11  -3 11.7474 2.17136   1
   2  11  -3 14.5815 2.24916   4
  -2 -11   3 17.6520 2.62940   3
  -2 -11   3 14.2579 1.90181   5
   1  11  -3 31.9118 3.01645   4
   1  11  -3 31.0138 2.98748   1
  -1 -11   3 34.5770 2.74002   7
  -1 -11   3 29.7988 2.54639   5
  -1 -11   3 32.0060 3.53296   3
   0  11  -3 3.74558 1.38858   1
   0  11  -3 6.60475 1.59268   4
   0 -11   3 6.93798 1.38864   7
   0 -11   3 4.88413 1.39718   3
  -1  11  -3 0.47439 0.95389   1
  -1  11  -3 1.76868 0.93312   4
   1 -11   3 0.04212 0.63897   3
   1 -11   3 1.03035 0.87158   7
  -2  11  -3 66.6719 4.61063   4
  -2  11  -3 57.8799 3.84158   8
   2 -11   3 66.5629 4.56341   3
   2 -11   3 55.2187 4.09432   7
  -3  11  -3 3.00095 1.31990   4
  -3  11  -3 5.12502 1.20970   8
   3 -11   3 3.14288 1.13299   3
   3 -11   3 1.51366 0.82867   7
  -4  11  -3 6.01012 1.40062   8
  -4  11  -3 8.25161 1.81720   4
   4 -11   3 4.79721 1.42136   7
   4 -11   3 6.06186 1.52278   3
  -5  11  -3 6.88459 1.62720   4
  -5  11  -3 10.7436 2.08213   2
  -5  11  -3 5.51160 1.34485   8
   5 -11   3 7.82602 1.71262   3
   5 -11   3 9.91613 1.99083   7
   5  10  -3 1.63522 1.23563   1
   5  10  -3 5.84858 1.32333   6
  -5 -10   3 1.37146 0.91775   5
  -5 -10   3 -0.1202 0.99492   3
   4  10  -3 11.0907 2.31975   1
   4  10  -3 11.0649 1.72202   6
   4  10  -3 10.7164 2.14785   4
  -4 -10   3 9.68941 1.99056   3
  -4 -10   3 9.58495 1.63168   5
   3  10  -3 23.6146 2.89938   1
   3  10  -3 21.3621 2.03526   6
   3  10  -3 21.4136 2.82667   4
  -3 -10   3 25.0104 3.09985   3
  -3 -10   3 23.4541 2.53766   5
   2  10  -3 -0.0238 1.06223   4
   2  10  -3 2.71485 0.73155   6
   2  10  -3 1.98315 1.04296   1
  -2 -10   3 1.78568 0.67863   5
  -2 -10   3 2.18716 0.97242   3
   1  10  -3 32.2493 3.06399   4
   1  10  -3 33.5518 2.90618   1
  -1 -10   3 38.2271 2.71855   5
  -1 -10   3 35.1176 3.09141   3
  -1 -10   3 30.6921 2.55935   7
   0  10  -3 -1.3499 0.75548   9
   0  10  -3 -0.7484 0.67746   1
   0  10  -3 -0.8650 0.59436   4
   0 -10   3 0.81748 0.65250   7
   0 -10   3 1.14071 0.65109   5
   0 -10   3 1.17575 0.73127   3
  -1  10  -3 0.46099 0.45103   8
  -1  10  -3 -0.3048 1.03661   1
  -1  10  -3 -1.0160 0.81347   9
  -1  10  -3 1.32622 1.05649   4
   1 -10   3 -0.1526 0.41059   7
   1 -10   3 0.32161 0.76095   3
  -2  10  -3 30.6434 2.29146   8
  -2  10  -3 27.8703 2.65747   4
  -2  10  -3 26.6635 2.37413   1
   2 -10   3 24.9150 2.84085   3
   2 -10   3 24.2351 2.29442   7
  -3  10  -3 1.11120 1.05205   4
  -3  10  -3 0.59700 0.65180   8
   3 -10   3 0.95812 0.67777   7
   3 -10   3 -0.5548 0.65960   3
  -4  10  -3 -0.3205 0.72544   2
  -4  10  -3 0.38917 0.47701   8
  -4  10  -3 0.72020 0.73478   4
   4 -10   3 -0.1472 0.51967   3
   4 -10   3 -0.0610 0.67556   7
   4 -10   3 -0.7105 0.54278   2
  -5  10  -3 0.19604 0.73548   8
  -5  10  -3 1.94640 0.95044   2
  -5  10  -3 0.56610 0.58486   4
   5 -10   3 0.58317 0.59142   2
   5 -10   3 1.61293 1.02694   7
   5 -10   3 1.20289 0.98581   3
  -6  10  -3 5.36861 1.31526   4
  -6  10  -3 1.32764 1.18858   2
  -6  10  -3 2.69937 1.03525   8
   6 -10   3 3.04053 1.07857   3
   6 -10   3 1.25389 0.97528   2
   6 -10   3 3.23319 1.17613   7
   6   9  -3 6.34130 1.47543   6
   6   9  -3 2.87464 1.39847   1
  -6  -9   3 4.96320 1.37116   5
  -6  -9   3 3.42508 1.45879   3
   5   9  -3 39.6127 3.06540   6
   5   9  -3 37.4424 3.32047   1
  -5  -9   3 35.3373 2.98217   5
  -5  -9   3 28.8650 3.51188   3
   4   9  -3 47.8852 3.69250   4
   4   9  -3 57.9386 4.04278   1
   4   9  -3 51.7810 3.51340   6
  -4  -9   3 49.7766 3.96858   3
  -4  -9   3 49.3350 3.54869   5
  -4  -9   3 50.0211 3.51787   6
   3   9  -3 8.22292 1.63480   1
   3   9  -3 8.48610 1.34122   6
   3   9  -3 5.34778 1.36360   4
  -3  -9   3 7.60497 1.37047   5
  -3  -9   3 5.46451 1.46477   3
  -3  -9   3 5.71863 1.20818   6
   2   9  -3 26.3839 2.40367   1
   2   9  -3 20.6703 2.58774   4
   2   9  -3 25.0345 1.97148   6
  -2  -9   3 24.1529 2.12167   5
  -2  -9   3 24.9604 2.09322   7
  -2  -9   3 24.3812 1.96971   6
  -2  -9   3 25.7628 2.89790   3
   1   9  -3 14.2632 2.30741   9
   1   9  -3 16.2210 2.09275   1
   1   9  -3 16.9667 2.21517   4
   1   9  -3 14.8773 1.38434   6
  -1  -9   3 14.7408 1.76734   7
  -1  -9   3 14.1889 2.11195   3
  -1  -9   3 19.4274 1.96178   5
  -1  -9   3 15.6325 1.45416   6
   0   9  -3 4.57176 1.18948   4
   0   9  -3 4.35919 1.28732   9
   0   9  -3 3.61649 1.08621   1
   0   9  -3 2.76592 0.70151   8
   0  -9   3 3.82854 0.89152   5
   0  -9   3 4.41835 1.00497   7
   0  -9   3 3.46581 1.02645   3
  -1   9  -3 47.4490 3.54729   4
  -1   9  -3 45.9331 3.70005   9
  -1   9  -3 51.0562 3.06239   8
  -1   9  -3 46.7103 3.41218   1
   1  -9   3 54.4405 3.41088   7
   1  -9   3 51.2866 3.58244   3
   1  -9   3 49.5471 3.11300   5
  -2   9  -3 71.9918 4.87485   4
  -2   9  -3 76.4959 4.88312   9
  -2   9  -3 78.9635 4.61510   1
  -2   9  -3 76.2467 4.37575   8
   2  -9   3 79.2255 4.91256   3
   2  -9   3 77.0853 4.64884   7
   2  -9   3 76.9601 4.33101   5
  -3   9  -3 73.2057 4.80006   4
  -3   9  -3 69.4911 4.41492   2
  -3   9  -3 66.8005 4.20382   8
   3  -9   3 68.8854 4.21723   2
   3  -9   3 79.2791 4.78766   3
   3  -9   3 77.0421 4.64755   7
  -4   9  -3 0.41669 0.66327   8
  -4   9  -3 0.57790 0.82148   4
  -4   9  -3 0.73714 0.76256   2
   4  -9   3 2.12446 0.97750   3
   4  -9   3 0.94169 0.68915   2
   4  -9   3 0.98001 0.68032   7
  -5   9  -3 -0.9679 0.64170   2
  -5   9  -3 -0.0457 0.42369   8
  -5   9  -3 1.10832 0.76132   4
   5  -9   3 -0.3044 0.59687   2
   5  -9   3 0.20452 0.63110   7
   5  -9   3 -0.5995 0.64469   3
  -6   9  -3 9.31473 1.59582   8
  -6   9  -3 8.21589 1.62969   4
  -6   9  -3 10.0158 1.93112   2
   6  -9   3 7.13579 1.62266   3
   6  -9   3 8.00937 1.66903   2
   6  -9   3 10.4923 1.98213   7
  -7   9  -3 3.04244 1.44557   2
  -7   9  -3 4.77804 1.39018   8
  -7   9  -3 3.63885 1.21602   4
   7  -9   3 3.37824 1.28798   2
   7  -9   3 6.54261 1.67004   3
   7  -9   3 3.59831 1.46161   7
   7   8  -3 -0.3804 1.22032   1
  -7  -8   3 0.64527 0.95513   3
   6   8  -3 0.73299 0.90078   1
   6   8  -3 1.00455 0.72177   6
  -6  -8   3 0.76890 0.80793   3
  -6  -8   3 2.51168 0.90723   5
  -6  -8   3 1.83532 0.83296   6
   5   8  -3 73.3313 4.74956   1
   5   8  -3 62.9151 4.25028   6
   5   8  -3 62.8987 4.40732   4
  -5  -8   3 64.7475 4.31665   5
  -5  -8   3 57.8319 4.60613   3
  -5  -8   3 73.8405 4.45061   6
   4   8  -3 39.4949 2.83979   6
   4   8  -3 36.0492 3.02575   1
   4   8  -3 36.0140 3.02419   4
  -4  -8   3 39.1140 3.26648   3
  -4  -8   3 34.5380 2.71562   6
  -4  -8   3 37.1171 2.86802   5
   3   8  -3 36.4970 2.48205   6
   3   8  -3 25.7507 2.55210   1
   3   8  -3 25.0988 2.54267   4
  -3  -8   3 34.7503 2.55136   5
  -3  -8   3 31.3121 2.78121   3
  -3  -8   3 32.6946 2.39098   6
  -3  -8   3 29.8592 2.33416   7
   2   8  -3 29.4056 2.37422   1
   2   8  -3 25.4060 2.61400   9
   2   8  -3 26.5010 2.33204   4
   2   8  -3 25.3472 2.00328   6
  -2  -8   3 26.2226 2.05020   7
  -2  -8   3 24.9186 2.11603   5
  -2  -8   3 26.0209 2.41296   3
  -2  -8   3 24.7406 1.99729   6
   1   8  -3 1.35075 0.82371   9
   1   8  -3 0.49940 0.70188   4
   1   8  -3 1.02012 0.85226   1
   1   8  -3 1.97146 0.58615   6
  -1  -8   3 2.06431 0.63754   5
  -1  -8   3 2.01210 0.61424   6
  -1  -8   3 1.37726 0.68087   3
  -1  -8   3 2.37050 0.65706   7
   0   8  -3 4.95024 1.05721   1
   0   8  -3 4.89091 1.33578   9
   0   8  -3 4.66090 1.14887   4
   0   8  -3 5.32891 0.80864   6
   0   8  -3 5.66185 0.84625   8
   0  -8   3 5.40678 0.82960   6
   0  -8   3 5.65446 0.97888   7
   0  -8   3 4.80463 0.92179   5
   0  -8   3 5.61745 1.19646   3
  -1   8  -3 15.3983 2.11381   9
  -1   8  -3 16.1181 2.05136   4
  -1   8  -3 15.3860 1.33635   8
  -1   8  -3 16.4826 1.92345   1
   1  -8   3 15.9995 1.99344   3
   1  -8   3 18.5239 1.54746   5
   1  -8   3 15.8237 1.77769   7
  -2   8  -3 8.14090 1.45814   4
  -2   8  -3 6.40491 1.06513   8
  -2   8  -3 8.08546 1.23053   2
  -2   8  -3 7.45784 1.22735   1
  -2   8  -3 6.46419 1.42431   9
   2  -8   3 5.65459 1.07198   7
   2  -8   3 7.14457 1.07122   2
   2  -8   3 7.77766 1.12341   5
   2  -8   3 8.02545 1.44257   3
  -3   8  -3 20.4783 2.40711   4
  -3   8  -3 17.4919 1.99746   2
  -3   8  -3 18.5503 1.64924   8
   3  -8   3 18.2766 1.68175   2
   3  -8   3 19.1729 1.59651   5
   3  -8   3 16.2010 2.05423   3
   3  -8   3 17.3012 2.01297   7
  -4   8  -3 194.724 10.0954   8
  -4   8  -3 213.896 10.5781   4
  -4   8  -3 199.425 10.3665   2
   4  -8   3 197.744 10.4375   3
   4  -8   3 208.337 10.4663   7
   4  -8   3 207.085 10.1906   2
  -5   8  -3 19.1023 2.23752   8
  -5   8  -3 21.7443 2.55684   4
  -5   8  -3 20.2790 2.48946   2
   5  -8   3 19.5760 2.38901   3
   5  -8   3 22.2104 2.40837   2
   5  -8   3 25.4300 2.73438   7
  -6   8  -3 16.9755 2.39622   2
  -6   8  -3 20.1607 2.46253   4
  -6   8  -3 14.0162 2.04492   8
   6  -8   3 17.6497 2.22261   2
   6  -8   3 23.0925 2.65102   3
   6  -8   3 19.9153 2.54557   7
  -7   8  -3 6.10023 1.61928   2
  -7   8  -3 10.4908 1.85962   4
  -7   8  -3 12.4474 1.95354   8
   7  -8   3 11.0049 1.99555   7
   7  -8   3 8.37390 1.72440   3
   7  -8   3 10.3861 1.82621   2
  -8   8  -3 5.20995 1.53251   2
  -8   8  -3 7.32781 1.71484   8
   8  -8   3 7.24817 1.86887   7
   8  -8   3 6.52583 1.51107   2
   8  -8   3 7.63365 1.68466   3
   7   7  -3 0.74162 0.84346   6
   7   7  -3 -0.4342 0.68717   1
  -7  -7   3 -0.5800 0.50158   3
  -7  -7   3 0.56360 0.76625   5
   6   7  -3 5.84453 1.48083   1
   6   7  -3 5.52851 1.29012   6
  -6  -7   3 5.16010 1.45678   3
  -6  -7   3 6.09914 1.31773   6
  -6  -7   3 3.95622 1.18356   5
   5   7  -3 67.2977 4.08712   4
   5   7  -3 59.8286 3.93932   6
   5   7  -3 54.3934 4.00344   1
  -5  -7   3 60.1828 3.89098   5
  -5  -7   3 53.3457 3.80484   6
  -5  -7   3 51.3755 4.04827   3
   4   7  -3 9.43915 1.42839   6
   4   7  -3 7.99277 1.50868   4
   4   7  -3 8.51363 1.53094   1
  -4  -7   3 8.87214 1.58073   3
  -4  -7   3 10.3594 1.51346   6
  -4  -7   3 7.06889 1.33485   5
   3   7  -3 351.181 16.8500   4
   3   7  -3 376.789 17.4791   9
   3   7  -3 370.540 17.0029   1
   3   7  -3 342.505 16.6290   6
  -3  -7   3 355.453 16.7371   5
  -3  -7   3 343.630 17.0475   3
  -3  -7   3 331.849 16.5080   7
  -3  -7   3 364.890 16.6977   6
   2   7  -3 13.5515 1.76087   1
   2   7  -3 15.0094 1.41463   6
   2   7  -3 14.7974 1.82991   4
   2   7  -3 14.3133 1.94843   9
  -2  -7   3 14.3717 1.54852   7
  -2  -7   3 12.6030 1.50465   6
  -2  -7   3 18.9292 2.11389   3
  -2  -7   3 13.9754 1.65482   5
   1   7  -3 3.21104 1.04238   4
   1   7  -3 2.80133 0.81188   1
   1   7  -3 3.08403 0.99414   9
   1   7  -3 1.79385 0.55695   6
   1   7  -3 2.86275 0.52859   8
  -1  -7   3 1.75279 0.63878   5
  -1  -7   3 2.11399 0.59599   7
  -1  -7   3 1.28962 0.68897   3
  -1  -7   3 2.98795 0.68310   6
   0   7  -3 0.65108 0.62646   4
   0   7  -3 0.52611 0.70467   9
   0   7  -3 1.78138 0.73999   1
   0   7  -3 0.66226 0.34673   6
   0   7  -3 0.55815 0.32413   8
   0  -7   3 0.42474 0.32533   7
   0  -7   3 0.64876 0.39949   6
   0  -7   3 0.61916 0.52189   3
   0  -7   3 0.11337 0.36925   5
  -1   7  -3 20.2083 1.90256   9
  -1   7  -3 18.3216 1.76330   1
  -1   7  -3 21.4540 1.56886   2
  -1   7  -3 22.3471 1.59007   8
  -1   7  -3 20.5628 1.37465   6
  -1   7  -3 25.5760 2.07591   4
   1  -7   3 21.7593 1.39368   6
   1  -7   3 17.9856 1.55593   5
   1  -7   3 19.5660 1.80917   3
   1  -7   3 24.2987 1.52330   2
   1  -7   3 22.2438 1.74250   7
  -2   7  -3 20.6307 2.02073   9
  -2   7  -3 23.2239 2.17599   4
  -2   7  -3 21.5765 1.84934   1
  -2   7  -3 24.9027 1.77501   8
  -2   7  -3 23.3680 1.80235   2
   2  -7   3 21.9868 1.85132   7
   2  -7   3 23.6141 2.02836   3
   2  -7   3 24.4006 1.71445   2
   2  -7   3 23.7862 1.75533   5
  -3   7  -3 -0.1465 0.64951   4
  -3   7  -3 0.55196 0.52332   8
  -3   7  -3 -0.0090 0.42621   2
  -3   7  -3 0.14703 0.68243   9
  -3   7  -3 0.23180 0.59192   1
   3  -7   3 -0.2474 0.34682   5
   3  -7   3 0.55232 0.49838   7
   3  -7   3 0.37035 0.52736   3
  -4   7  -3 0.16172 0.39241   2
  -4   7  -3 0.93861 0.62484   4
  -4   7  -3 -0.1330 0.47899   8
   4  -7   3 -0.4842 0.48937   7
   4  -7   3 0.15096 0.40301   5
   4  -7   3 -0.9123 0.48398   3
  -5   7  -3 25.0627 2.19021   4
  -5   7  -3 20.8428 2.26604   8
  -5   7  -3 24.9296 2.65256   2
   5  -7   3 21.9551 2.47049   7
   5  -7   3 23.0594 2.52122   3
  -6   7  -3 0.93801 0.72027   8
  -6   7  -3 0.85219 0.53866   4
  -6   7  -3 0.40702 0.52846   2
   6  -7   3 0.04941 0.49250   7
   6  -7   3 0.78226 0.80482   3
  -7   7  -3 12.3756 1.92294   4
  -7   7  -3 9.94599 1.90303   2
  -7   7  -3 9.02617 1.58843   8
   7  -7   3 9.98994 1.92589   7
   7  -7   3 13.3559 2.05920   3
  -8   7  -3 22.5545 2.68966   8
  -8   7  -3 27.1764 3.26664   2
   8  -7   3 29.9286 3.24224   3
   8  -7   3 23.2989 3.05121   7
   8   6  -3 10.8409 2.04445   1
  -8  -6   3 9.28400 2.08301   3
   7   6  -3 4.46464 1.33292   1
   7   6  -3 4.41202 1.18001   6
  -7  -6   3 4.26704 1.21059   6
  -7  -6   3 4.43557 1.27480   5
  -7  -6   3 3.47209 1.28622   3
   6   6  -3 20.9526 2.62533   1
   6   6  -3 25.0831 2.35637   6
  -6  -6   3 22.9521 2.52948   5
  -6  -6   3 22.2783 2.78954   3
  -6  -6   3 29.8566 2.48970   6
   5   6  -3 51.7423 3.45229   4
   5   6  -3 48.3665 3.35596   6
   5   6  -3 51.0514 3.63714   1
  -5  -6   3 48.8215 3.34675   5
  -5  -6   3 44.0952 3.52801   3
  -5  -6   3 48.2329 3.34511   6
   4   6  -3 9.84366 1.72566   9
   4   6  -3 6.10272 1.22785   1
   4   6  -3 6.93456 1.28108   6
   4   6  -3 8.33947 1.33681   4
  -4  -6   3 5.69179 1.23229   3
  -4  -6   3 8.82954 1.37414   5
  -4  -6   3 5.88752 1.19319   6
  -4  -6   3 6.04897 1.11321   7
   3   6  -3 331.363 14.4990   4
   3   6  -3 330.074 15.0210   9
   3   6  -3 285.507 14.2022   6
   3   6  -3 321.945 14.5589   1
  -3  -6   3 300.654 14.2501   6
  -3  -6   3 292.018 14.2635   5
  -3  -6   3 278.316 14.4811   3
  -3  -6   3 271.767 14.0287   7
   2   6  -3 43.0809 2.87185   1
   2   6  -3 47.4712 3.18379   9
   2   6  -3 37.1650 2.56815   6
   2   6  -3 43.6923 2.25021   8
   2   6  -3 41.7455 2.82471   4
  -2  -6   3 43.2513 2.66957   6
  -2  -6   3 40.4166 2.71889   5
  -2  -6   3 40.7292 2.53561   7
  -2  -6   3 39.0583 2.86176   3
   1   6  -3 4.24213 0.72514   6
   1   6  -3 4.51055 0.61725   8
   1   6  -3 5.04041 1.03061   9
   1   6  -3 3.85705 0.80235   1
   1   6  -3 4.88309 1.06825   4
  -1  -6   3 4.09713 0.70500   7
  -1  -6   3 4.61487 0.94228   3
  -1  -6   3 3.53950 0.73279   5
  -1  -6   3 3.28647 0.65350   6
   0   6  -3 107.452 5.64902   9
   0   6  -3 102.794 5.01539   8
   0   6  -3 99.0015 5.51783   4
   0   6  -3 100.328 5.32155   1
   0   6  -3 100.885 5.06574   6
   0  -6   3 111.888 5.13259   6
   0  -6   3 92.4826 5.21563   5
   0  -6   3 101.468 5.17456   7
   0  -6   3 101.592 5.50094   3
   0  -6   3 103.306 4.80621   2
  -1   6  -3 61.7795 3.66611   4
  -1   6  -3 63.9945 3.09517   6
  -1   6  -3 60.0761 3.23909   8
  -1   6  -3 58.7581 3.21095   2
  -1   6  -3 61.4557 3.42550   1
  -1   6  -3 62.2575 3.65424   9
   1  -6   3 62.0238 3.39897   5
   1  -6   3 57.5534 3.05735   6
   1  -6   3 52.8168 3.48520   3
   1  -6   3 57.8969 3.36075   7
   1  -6   3 60.2989 3.13476   2
  -2   6  -3 58.5057 3.61632   9
  -2   6  -3 61.1925 3.45379   1
  -2   6  -3 62.2008 3.52078   2
  -2   6  -3 63.6956 3.45651   8
  -2   6  -3 66.8618 3.83665   4
   2  -6   3 65.7625 3.49864   5
   2  -6   3 60.5530 3.57250   7
   2  -6   3 63.7773 3.04420   6
   2  -6   3 62.0700 3.72253   3
  -3   6  -3 2.73214 0.67302   1
  -3   6  -3 2.75267 0.75145   2
  -3   6  -3 2.26915 0.78152   9
  -3   6  -3 3.54728 0.98942   4
  -3   6  -3 0.92143 0.51539   8
   3  -6   3 1.56196 0.61485   7
   3  -6   3 2.51400 0.70160   3
   3  -6   3 2.88673 0.61250   5
  -4   6  -3 137.536 7.42608   2
  -4   6  -3 147.891 7.49363   4
  -4   6  -3 142.596 7.25735   8
   4  -6   3 145.904 7.52995   3
   4  -6   3 149.154 7.10928   5
   4  -6   3 134.837 7.42774   7
  -5   6  -3 135.556 7.73437   2
  -5   6  -3 140.021 7.53586   8
  -5   6  -3 146.432 7.71417   4
   5  -6   3 155.185 7.92482   7
   5  -6   3 146.244 7.79448   3
   5  -6   3 156.637 7.36545   5
  -6   6  -3 32.4343 2.55740   4
  -6   6  -3 27.7577 2.31789   8
  -6   6  -3 29.6575 2.63213   2
   6  -6   3 28.5428 2.56479   3
   6  -6   3 29.7438 2.65670   7
   6  -6   3 30.0584 2.20120   5
  -7   6  -3 50.0403 3.47554   8
  -7   6  -3 48.7447 3.54977   4
  -7   6  -3 42.9086 3.64463   2
   7  -6   3 48.9844 3.69079   3
   7  -6   3 55.5171 3.88729   7
  -8   6  -3 5.08891 1.24515   8
  -8   6  -3 4.96167 1.36819   2
   8  -6   3 4.96574 1.37723   7
   8  -6   3 4.30617 1.24882   3
  -9   6  -3 10.9648 2.22137   2
  -9   6  -3 11.8058 1.88432   8
   9  -6   3 7.98264 1.87853   7
   9  -6   3 7.63831 1.82604   3
   8   5  -3 -0.3368 0.75443   1
   8   5  -3 0.42888 0.61758   6
   8   5  -3 0.11264 0.79265   5
  -8  -5   3 -0.0040 0.58202   6
  -8  -5   3 1.04879 0.85310   5
  -8  -5   3 0.68504 0.99497   3
   7   5  -3 3.27577 1.22700   1
   7   5  -3 1.17251 0.73152   6
  -7  -5   3 2.49790 0.93584   6
  -7  -5   3 2.20527 1.11162   3
  -7  -5   3 1.46260 0.89872   5
   6   5  -3 34.5101 2.86322   6
   6   5  -3 39.6607 3.28769   4
   6   5  -3 42.9711 3.22270   1
  -6  -5   3 37.3671 2.90847   6
  -6  -5   3 39.5493 2.89023   5
  -6  -5   3 32.2425 3.05085   3
   5   5  -3 182.438 9.68624   6
   5   5  -3 211.467 9.85456   4
   5   5  -3 205.669 10.0244   1
   5   5  -3 222.704 10.6573   9
  -5  -5   3 172.969 9.57810   5
  -5  -5   3 175.674 9.93228   3
  -5  -5   3 177.832 9.64172   6
   4   5  -3 0.09426 0.39353   6
   4   5  -3 0.70577 0.65519   1
   4   5  -3 1.69481 0.86632   9
   4   5  -3 0.19892 0.52497   4
  -4  -5   3 0.27190 0.39356   6
  -4  -5   3 0.78736 0.63269   3
  -4  -5   3 0.05293 0.45934   5
  -4  -5   3 0.39030 0.38165   7
   3   5  -3 30.6973 2.27867   6
   3   5  -3 39.8651 2.90796   9
   3   5  -3 35.2600 2.52797   1
   3   5  -3 40.3058 2.56650   4
  -3  -5   3 34.1014 2.34677   6
  -3  -5   3 28.4603 2.12690   7
  -3  -5   3 35.0625 2.37960   5
  -3  -5   3 31.5228 2.47714   3
   2   5  -3 2.81641 0.78429   1
   2   5  -3 1.51020 0.54522   6
   2   5  -3 1.54306 0.62789   4
   2   5  -3 2.77253 0.78980   9
   2   5  -3 1.53033 0.37298   8
  -2  -5   3 1.30998 0.51759   5
  -2  -5   3 1.34347 0.52161   6
  -2  -5   3 1.72881 0.59693   3
  -2  -5   3 1.46692 0.45172   7
   1   5  -3 210.537 9.84874   4
   1   5  -3 200.506 9.27511   8
   1   5  -3 214.562 9.78437   1
   1   5  -3 224.868 10.1300   9
  -1  -5   3 194.701 9.41785   7
  -1  -5   3 190.799 9.62787   5
  -1  -5   3 190.983 9.53296   6
  -1  -5   3 197.409 9.80719   3
   0   5  -3 65.2887 3.03593   2
   0   5  -3 58.2520 3.52431   4
   0   5  -3 69.4987 3.49859   1
   0   5  -3 65.2082 3.66662   9
   0   5  -3 57.6380 3.14180   8
   0  -5   3 61.4921 3.25087   6
   0  -5   3 61.5931 3.54836   3
   0  -5   3 55.9580 3.35034   5
   0  -5   3 59.4747 3.24187   7
   0  -5   3 62.9352 2.97113   2
  -1   5  -3 155.677 8.13400   4
  -1   5  -3 159.399 7.80461   8
  -1   5  -3 161.341 8.10415   9
  -1   5  -3 166.416 7.92813   1
  -1   5  -3 194.613 7.89276   2
   1  -5   3 169.413 8.16531   3
   1  -5   3 155.627 7.92966   5
   1  -5   3 167.890 7.93639   7
   1  -5   3 166.061 7.70030   6
  -2   5  -3 59.7020 3.29061   8
  -2   5  -3 66.8573 3.29091   1
  -2   5  -3 63.2025 3.42315   9
  -2   5  -3 58.8278 3.57044   4
  -2   5  -3 62.0794 3.38214   2
   2  -5   3 60.2730 2.95925   6
   2  -5   3 60.9566 3.53814   3
   2  -5   3 56.9677 3.30654   9
   2  -5   3 61.5740 3.42006   7
   2  -5   3 61.7542 3.33254   5
  -3   5  -3 3.67097 0.64893   1
  -3   5  -3 4.99256 1.03343   4
  -3   5  -3 3.81454 0.69698   8
  -3   5  -3 3.92998 0.76336   9
  -3   5  -3 5.37550 0.91609   2
   3  -5   3 3.31744 0.74487   3
   3  -5   3 3.66944 0.75790   7
   3  -5   3 3.23366 0.63545   5
   3  -5   3 3.86053 0.64400   9
  -4   5  -3 34.1550 2.36193   8
  -4   5  -3 32.7768 2.45972   2
  -4   5  -3 31.7529 2.43279   4
   4  -5   3 40.4017 2.34594   5
   4  -5   3 38.7258 2.61958   3
   4  -5   3 40.2124 2.62112   7
  -5   5  -3 0.78347 0.55036   4
  -5   5  -3 1.41216 0.61565   8
  -5   5  -3 1.19679 0.72979   2
  -5   5  -3 2.23509 0.96510   7
   5  -5   3 2.21638 0.64741   5
   5  -5   3 0.91800 0.66939   7
   5  -5   3 3.06558 0.82886   3
  -6   5  -3 197.643 10.7556   7
  -6   5  -3 199.056 10.4246   2
  -6   5  -3 206.746 10.2346   4
  -6   5  -3 199.776 10.0997   8
   6  -5   3 203.451 9.89209   5
   6  -5   3 204.706 10.4881   7
   6  -5   3 212.612 10.4602   3
  -7   5  -3 9.90407 1.89600   7
  -7   5  -3 16.9771 2.25819   2
  -7   5  -3 11.3080 1.71308   8
   7  -5   3 14.1667 2.04773   3
   7  -5   3 13.0875 1.95892   7
   7  -5   3 11.0200 1.53003   5
  -8   5  -3 1.62573 1.02001   7
  -8   5  -3 4.76887 1.41262   2
  -8   5  -3 2.50445 0.88813   8
   8  -5   3 3.21528 1.13093   7
   8  -5   3 4.83639 1.26047   3
  -9   5  -3 38.8342 4.39186   7
  -9   5  -3 37.1442 3.48122   2
  -9   5  -3 38.5144 3.17350   8
   9  -5   3 38.8085 3.58871   7
   9  -5   3 42.8087 3.54715   3
   8   4  -3 0.52287 0.62045   5
   8   4  -3 0.94031 0.76017   1
   8   4  -3 1.46496 0.93765   6
  -8  -4   3 0.07762 0.72490   6
  -8  -4   3 0.30205 0.91086   3
  -8  -4   3 -0.2369 0.48919   5
   7   4  -3 9.23947 1.63898   6
   7   4  -3 13.0093 1.98597   1
  -7  -4   3 5.76248 1.54432   3
  -7  -4   3 9.85393 1.56768   5
  -7  -4   3 8.56275 1.52805   6
   6   4  -3 27.4183 2.47095   1
   6   4  -3 33.0034 2.49247   4
   6   4  -3 25.4207 2.68523   9
   6   4  -3 25.2151 2.21117   6
  -6  -4   3 22.8294 2.08542   5
  -6  -4   3 21.5465 2.62275   3
  -6  -4   3 24.4301 2.16419   6
   5   4  -3 111.542 5.89634   1
   5   4  -3 111.003 5.74376   4
   5   4  -3 100.408 5.57365   6
   5   4  -3 110.072 6.25892   9
  -5  -4   3 93.8178 5.48717   6
  -5  -4   3 92.7607 5.44587   5
  -5  -4   3 90.7822 5.40615   7
  -5  -4   3 93.0031 5.74325   3
   4   4  -3 96.6766 5.11055   1
   4   4  -3 85.8072 4.80430   6
   4   4  -3 102.939 5.56085   9
   4   4  -3 96.0046 4.98726   4
  -4  -4   3 82.4383 4.75819   6
  -4  -4   3 78.0873 4.89096   3
  -4  -4   3 73.8312 4.56518   7
  -4  -4   3 81.3160 4.74596   5
   3   4  -3 11.3760 0.82795   8
   3   4  -3 9.13373 1.22215   6
   3   4  -3 11.2567 1.41184   4
   3   4  -3 10.1585 1.51991   9
   3   4  -3 9.44374 1.39127   1
  -3  -4   3 9.98657 1.25956   5
  -3  -4   3 12.4317 1.49733   3
  -3  -4   3 12.3757 1.38928   6
  -3  -4   3 10.9222 1.21360   7
   2   4  -3 17.3007 1.63751   9
   2   4  -3 14.0232 0.94725   8
   2   4  -3 13.5698 1.31734   4
   2   4  -3 13.6292 1.29366   1
  -2  -4   3 13.8219 1.09091   7
  -2  -4   3 13.0429 1.49561   3
  -2  -4   3 11.9642 1.32406   5
  -2  -4   3 15.7459 1.26860   6
   1   4  -3 123.580 6.16139   4
   1   4  -3 121.727 6.09628   1
   1   4  -3 123.943 5.72114   8
   1   4  -3 124.683 6.35498   9
  -1  -4   3 121.366 5.78123   7
  -1  -4   3 126.807 6.07376   5
  -1  -4   3 117.695 6.10659   3
  -1  -4   3 117.694 5.96829   6
   0   4  -3 4.46073 0.69436   1
   0   4  -3 6.00599 0.89039   9
   0   4  -3 5.14949 0.86191   4
   0   4  -3 4.40402 0.45678   2
   0   4  -3 5.11988 0.59653   8
   0  -4   3 3.29695 0.67995   3
   0  -4   3 4.05240 0.59296   6
   0  -4   3 3.44454 0.63022   5
   0  -4   3 4.07892 0.56186   7
  -1   4  -3 46.9097 2.55933   8
  -1   4  -3 50.9049 2.62859   1
  -1   4  -3 45.6510 2.82056   4
  -1   4  -3 50.3543 2.78027   9
  -1   4  -3 49.9682 2.56148   2
   1  -4   3 43.4561 2.64586   5
   1  -4   3 44.9572 2.72617   9
   1  -4   3 51.2291 2.63457   7
   1  -4   3 46.8639 2.49189   6
   1  -4   3 53.6324 2.84778   3
  -2   4  -3 267.449 12.2338   1
  -2   4  -3 278.652 12.4688   2
  -2   4  -3 259.075 12.3492   9
  -2   4  -3 260.971 12.3581   8
  -2   4  -3 264.478 12.5773   4
   2  -4   3 264.281 12.0892   6
   2  -4   3 292.276 12.5302   7
   2  -4   3 292.037 12.6557   3
   2  -4   3 261.354 12.3918   5
   2  -4   3 265.567 12.3551   9
  -3   4  -3 112.937 5.28091   1
  -3   4  -3 109.235 5.71646   2
  -3   4  -3 112.323 5.59686   8
  -3   4  -3 111.435 5.37902   9
  -3   4  -3 116.806 5.96149   7
  -3   4  -3 112.477 5.73108   4
   3  -4   3 120.984 5.81114   7
   3  -4   3 111.172 5.13309   6
   3  -4   3 111.446 5.34562   9
   3  -4   3 115.111 5.81367   3
   3  -4   3 110.248 5.55049   5
  -4   4  -3 1.93352 0.59053   2
  -4   4  -3 2.58915 0.40105   9
  -4   4  -3 1.82202 0.52736   8
  -4   4  -3 2.09773 0.74166   7
  -4   4  -3 3.46418 0.77965   4
   4  -4   3 2.33082 0.63539   7
   4  -4   3 2.47355 0.35929   9
   4  -4   3 2.23755 0.53957   5
   4  -4   3 3.10113 0.71417   3
  -5   4  -3 2.88151 0.87273   7
  -5   4  -3 3.57571 0.88321   2
  -5   4  -3 4.09791 0.86739   4
  -5   4  -3 4.52970 0.90381   8
   5  -4   3 4.16448 0.95556   7
   5  -4   3 5.53437 0.90321   5
   5  -4   3 5.07443 1.01858   3
  -6   4  -3 159.857 8.31290   7
  -6   4  -3 150.021 7.60780   4
  -6   4  -3 140.350 7.79265   2
  -6   4  -3 129.028 7.40700   8
   6  -4   3 138.953 7.82235   7
   6  -4   3 152.441 7.89026   3
   6  -4   3 162.798 7.48518   5
  -7   4  -3 0.43166 0.63322   7
  -7   4  -3 0.87201 0.73315   2
  -7   4  -3 0.78934 0.49202   8
   7  -4   3 1.39850 0.73619   5
   7  -4   3 1.11810 0.72346   7
   7  -4   3 0.48854 0.71429   3
  -8   4  -3 0.55179 0.83285   2
  -8   4  -3 0.21969 0.94845   7
  -8   4  -3 0.46818 0.50786   8
   8  -4   3 -0.1408 0.75733   7
   8  -4   3 0.48838 0.85445   3
   8  -4   3 0.36717 0.56586   5
  -9   4  -3 6.97938 1.42807   8
  -9   4  -3 6.79418 1.64969   2
  -9   4  -3 5.77028 1.74704   7
   9  -4   3 7.45211 1.73925   7
   9  -4   3 6.39900 1.65692   3
   8   3  -3 4.74699 1.40437   1
   8   3  -3 7.00893 1.51102   5
   8   3  -3 4.71744 1.20371   6
  -8  -3   3 4.23230 1.19129   6
  -8  -3   3 5.78851 1.30100   5
  -8  -3   3 6.72806 1.59925   3
   7   3  -3 0.40384 0.65854   6
   7   3  -3 0.34484 0.77650   1
   7   3  -3 0.45341 0.44579   5
  -7  -3   3 1.10235 0.85635   3
  -7  -3   3 -0.0879 0.39023   5
  -7  -3   3 -0.3635 0.52557   6
   6   3  -3 14.2094 1.87464   4
   6   3  -3 14.3028 2.19602   9
   6   3  -3 11.3445 1.63350   6
   6   3  -3 11.2253 1.73115   1
  -6  -3   3 11.4080 1.81387   3
  -6  -3   3 11.5969 1.63273   7
  -6  -3   3 9.41909 1.44822   5
  -6  -3   3 10.9333 1.55537   6
   5   3  -3 -0.2457 0.48105   9
   5   3  -3 -0.0920 0.32163   6
   5   3  -3 -0.1902 0.47506   1
   5   3  -3 -0.1888 0.43166   4
  -5  -3   3 -0.3184 0.35410   7
  -5  -3   3 0.38913 0.63352   3
  -5  -3   3 -0.0189 0.32080   6
  -5  -3   3 -0.0826 0.40411   5
   4   3  -3 -0.2024 0.34594   4
   4   3  -3 0.04939 0.40572   6
   4   3  -3 0.69577 0.63722   9
   4   3  -3 0.96976 0.35582   8
   4   3  -3 1.12891 0.63032   1
  -4  -3   3 0.33930 0.47060   3
  -4  -3   3 0.23289 0.30314   7
  -4  -3   3 1.09344 0.46597   5
  -4  -3   3 0.98536 0.66841   1
  -4  -3   3 0.01886 0.42429   6
   3   3  -3 70.1562 4.25029   9
   3   3  -3 70.3057 3.94665   1
   3   3  -3 69.1735 3.43237   8
   3   3  -3 64.4675 3.85947   4
   3   3  -3 68.0826 3.18997   2
  -3  -3   3 65.2557 3.72513   5
  -3  -3   3 63.9872 3.83198   3
  -3  -3   3 64.9150 3.58712   7
  -3  -3   3 73.9484 4.05009   1
  -3  -3   3 67.7739 3.76841   6
   2   3  -3 230.756 11.3396   9
   2   3  -3 234.035 11.0584   1
   2   3  -3 242.001 10.5963   8
   2   3  -3 237.769 11.0707   4
  -2  -3   3 254.376 11.1910   1
  -2  -3   3 233.356 10.9082   5
  -2  -3   3 212.201 10.6288   7
  -2  -3   3 220.601 10.9374   3
  -2  -3   3 234.594 10.9212   6
   1   3  -3 31.9440 1.73183   8
   1   3  -3 32.8166 2.03719   1
   1   3  -3 34.7116 2.24323   9
   1   3  -3 30.9323 2.01865   4
  -1  -3   3 30.7697 1.91261   6
  -1  -3   3 32.3371 2.07252   1
  -1  -3   3 31.5257 1.94785   5
  -1  -3   3 29.9411 1.68961   7
  -1  -3   3 32.5957 1.98633   3
   0   3  -3 32.6575 2.13885   9
   0   3  -3 35.0901 1.62884   2
   0   3  -3 35.1863 2.11830   9
   0   3  -3 31.5828 1.75915   8
   0   3  -3 35.1040 2.03548   4
   0   3  -3 31.6854 1.91358   1
   0  -3   3 29.2851 2.02662   9
   0  -3   3 32.2408 1.93830   5
   0  -3   3 31.3565 1.69676   7
   0  -3   3 31.8778 1.85373   6
   0  -3   3 29.4729 1.90073   3
  -1   3  -3 431.112 18.2424   1
  -1   3  -3 434.659 18.3977   9
  -1   3  -3 414.943 18.4437   4
  -1   3  -3 410.088 18.1837   2
  -1   3  -3 397.487 18.2099   8
   1  -3   3 413.612 18.2158   7
   1  -3   3 396.737 18.3819   3
   1  -3   3 406.595 18.1908   6
   1  -3   3 362.966 18.3303   9
   1  -3   3 406.442 18.3335   5
  -2   3  -3 255.904 12.2123   4
  -2   3  -3 267.955 12.1617   2
  -2   3  -3 266.186 12.0988   8
  -2   3  -3 271.055 11.9077   1
  -2   3  -3 269.013 12.0053   9
  -2   3  -3 271.542 12.3197   7
   2  -3   3 247.912 11.9935   9
   2  -3   3 275.351 12.1988   7
   2  -3   3 261.820 12.1292   5
   2  -3   3 271.612 12.2735   3
   2  -3   3 263.808 11.9132   6
  -3   3  -3 36.0654 2.07790   8
  -3   3  -3 37.0246 1.74175   1
  -3   3  -3 34.6023 2.17777   2
  -3   3  -3 32.9050 2.27251   7
  -3   3  -3 37.1379 1.80178   9
  -3   3  -3 34.3824 2.11376   4
   3  -3   3 35.2635 1.80647   6
   3  -3   3 33.8741 2.18479   7
   3  -3   3 36.0652 2.07505   5
   3  -3   3 36.0233 2.24698   3
   3  -3   3 30.4439 1.74291   9
  -4   3  -3 2.82564 0.67453   2
  -4   3  -3 3.29971 0.61868   8
  -4   3  -3 2.44894 0.59808   4
  -4   3  -3 1.48709 0.57477   7
   4  -3   3 2.10220 0.59640   7
   4  -3   3 4.29020 0.47167   6
   4  -3   3 2.65299 0.65148   3
   4  -3   3 3.23291 0.61506   5
  -5   3  -3 6.32683 0.97403   4
  -5   3  -3 8.57242 1.23713   2
  -5   3  -3 7.04774 1.02206   8
  -5   3  -3 8.01667 1.38845   7
   5  -3   3 7.23399 1.12098   3
   5  -3   3 5.97329 1.08734   7
   5  -3   3 6.34460 0.86611   6
   5  -3   3 6.90764 1.00389   5
  -6   3  -3 7.48855 1.46063   7
  -6   3  -3 10.7996 1.39068   4
  -6   3  -3 11.3921 1.40353   8
  -6   3  -3 12.9684 1.70327   2
   6  -3   3 9.84585 1.46953   3
   6  -3   3 9.17711 1.46127   7
   6  -3   3 12.5750 1.42595   5
  -7   3  -3 27.5985 2.16701   8
  -7   3  -3 28.0871 2.53374   2
  -7   3  -3 25.7286 2.96920   7
   7  -3   3 31.6844 2.61078   7
   7  -3   3 29.3771 2.19557   5
   7  -3   3 27.3797 2.51240   3
  -8   3  -3 11.8210 2.07509   7
  -8   3  -3 8.28992 1.63243   2
  -8   3  -3 8.38122 1.41941   8
   8  -3   3 10.6934 1.84329   7
   8  -3   3 8.95619 1.74055   3
   8  -3   3 11.5989 1.60054   5
  -9   3  -3 14.3858 1.92293   8
  -9   3  -3 16.7338 2.61066   7
  -9   3  -3 14.5894 2.27584   2
   9  -3   3 18.4154 2.53581   3
   9  -3   3 12.9302 2.18185   7
   9  -3   3 12.1872 1.84565   5
 -10   3  -3 0.13234 0.99047   2
  10  -3   3 0.76977 1.15419   3
   8   2  -3 21.0678 2.55065   5
   8   2  -3 33.9279 2.86317   1
   8   2  -3 27.0413 2.49189   6
  -8  -2   3 24.0406 2.65126   5
  -8  -2   3 28.7792 3.24659   3
  -8  -2   3 31.8960 2.59054   6
   7   2  -3 0.88115 0.57008   5
   7   2  -3 0.37170 0.59735   1
   7   2  -3 0.24577 0.44871   6
  -7  -2   3 -0.0921 0.50445   6
  -7  -2   3 -0.1066 0.46065   3
  -7  -2   3 1.42587 0.63974   5
   6   2  -3 0.01528 0.53553   4
   6   2  -3 0.24181 0.49419   6
   6   2  -3 0.60420 0.63853   9
   6   2  -3 -0.1326 0.48322   1
  -6  -2   3 0.24056 0.40350   5
  -6  -2   3 -0.5436 0.39045   7
  -6  -2   3 0.47539 0.46616   6
  -6  -2   3 0.32128 0.45594   3
  -6  -2   3 0.18540 0.49669   1
   5   2  -3 1.36371 0.73630   1
   5   2  -3 0.61764 0.39320   2
   5   2  -3 1.08209 0.57691   4
   5   2  -3 0.56345 0.48383   6
   5   2  -3 -0.3222 0.29245   8
   5   2  -3 0.01610 0.55117   9
  -5  -2   3 0.25599 0.52652   3
  -5  -2   3 0.52965 0.49450   6
  -5  -2   3 0.87195 0.52141   7
  -5  -2   3 0.35656 0.44360   5
  -5  -2   3 -0.2896 0.47166   1
   4   2  -3 13.7012 1.00900   2
   4   2  -3 12.3616 1.23307   8
   4   2  -3 11.0009 1.45326   1
   4   2  -3 14.2618 1.87664   9
   4   2  -3 11.9974 1.55987   4
  -4  -2   3 15.2218 1.48128   1
  -4  -2   3 11.8104 1.36385   5
  -4  -2   3 12.3264 1.16561   7
  -4  -2   3 13.6563 1.60266   3
  -4  -2   3 12.2445 1.02071   2
  -4  -2   3 13.4491 1.25665   6
   3   2  -3 418.979 19.5474   1
   3   2  -3 398.378 19.5281   4
   3   2  -3 430.915 19.0952   8
   3   2  -3 437.698 19.9585   9
   3   2  -3 429.718 18.9007   2
  -3  -2   3 427.482 19.4438   3
  -3  -2   3 402.465 19.1434   7
  -3  -2   3 425.200 19.3170   5
  -3  -2   3 462.500 19.7089   1
  -3  -2   3 419.925 18.9580   2
  -3  -2   3 419.692 19.3533   6
   2   2  -3 0.38628 0.15389   2
   2   2  -3 0.38660 0.29825   1
   2   2  -3 0.02627 0.24414   9
   2   2  -3 0.03040 0.24075   4
   2   2  -3 0.10897 0.16108   8
  -2  -2   3 0.20643 0.23219   6
  -2  -2   3 0.09128 0.17705   7
  -2  -2   3 0.12683 0.17679   3
  -2  -2   3 -0.1589 0.18065   1
  -2  -2   3 -0.0483 0.17082   5
   1   2  -3 6.60031 0.97271   9
   1   2  -3 5.75615 0.79606   1
   1   2  -3 5.20744 0.57569   8
   1   2  -3 5.11726 0.33847   2
   1   2  -3 5.01282 0.88751   9
   1   2  -3 6.27481 0.83958   4
  -1  -2   3 5.11289 0.68862   6
  -1  -2   3 4.06974 0.76645   9
  -1  -2   3 5.34993 0.67877   3
  -1  -2   3 4.71943 0.41363   7
  -1  -2   3 5.96979 0.74510   5
  -1  -2   3 5.40336 0.77499   1
   0   2  -3 37.1530 1.74901   2
   0   2  -3 37.9595 2.10620   4
   0   2  -3 34.4223 2.15976   9
   0   2  -3 35.8996 2.02565   1
   0   2  -3 37.3843 1.89889   8
   0   2  -3 30.2039 2.11756   9
   0  -2   3 37.1033 2.00228   6
   0  -2   3 29.4263 2.07356   9
   0  -2   3 37.6690 2.06978   1
   0  -2   3 34.9436 1.96387   3
   0  -2   3 38.8089 1.74510   7
   0  -2   3 36.5634 2.01781   5
  -1   2  -3 17.8022 1.26334   9
  -1   2  -3 20.0062 1.25558   9
  -1   2  -3 18.5106 1.12197   2
  -1   2  -3 17.6084 1.12518   1
  -1   2  -3 19.8054 1.16821   8
  -1   2  -3 18.7214 1.25599   4
   1  -2   3 20.9846 1.13828   7
   1  -2   3 17.3045 1.19614   3
   1  -2   3 19.5094 1.18371   6
   1  -2   3 17.1528 1.22546   9
   1  -2   3 20.2581 1.25732   5
   1  -2   3 22.5086 1.21531   1
  -2   2  -3 162.040 8.10381   9
  -2   2  -3 183.112 8.23871   8
  -2   2  -3 197.042 8.08407   9
  -2   2  -3 194.619 8.00941   1
  -2   2  -3 165.725 8.24818   2
  -2   2  -3 184.810 8.41871   7
  -2   2  -3 177.075 8.28698   4
   2  -2   3 181.472 8.31153   7
   2  -2   3 175.518 8.27005   5
   2  -2   3 186.790 8.37586   3
   2  -2   3 153.926 8.06930   9
   2  -2   3 182.367 8.14238   6
  -3   2  -3 235.991 10.7639   8
  -3   2  -3 233.533 11.0792   7
  -3   2  -3 221.211 10.8629   2
  -3   2  -3 226.311 10.7356   4
   3  -2   3 242.386 10.7981   5
   3  -2   3 244.536 10.5926   6
   3  -2   3 239.275 10.9743   3
   3  -2   3 231.518 10.9406   7
  -4   2  -3 13.7302 1.10523   8
  -4   2  -3 14.0572 1.61810   7
  -4   2  -3 13.2473 1.19966   2
  -4   2  -3 13.4853 1.06763   4
   4  -2   3 12.9522 1.42640   3
   4  -2   3 15.2126 1.00219   6
   4  -2   3 11.2521 1.04176   5
  -5   2  -3 -0.1982 0.24612   4
  -5   2  -3 -0.0884 0.18817   8
  -5   2  -3 -0.1252 0.29444   7
  -5   2  -3 -0.3636 0.30347   2
   5  -2   3 -0.1430 0.28078   6
   5  -2   3 -0.1840 0.31570   5
   5  -2   3 0.13605 0.31508   3
  -6   2  -3 1.31672 0.65553   2
  -6   2  -3 0.67537 0.46212   8
  -6   2  -3 1.21947 0.73005   7
  -6   2  -3 0.93274 0.44909   4
   6  -2   3 0.92785 0.56770   5
   6  -2   3 0.41620 0.46852   6
   6  -2   3 0.94330 0.63308   3
  -7   2  -3 69.1680 4.45115   2
  -7   2  -3 71.3741 4.76368   7
  -7   2  -3 75.6157 4.15358   8
   7  -2   3 64.1199 4.40609   7
   7  -2   3 69.1856 4.54808   3
   7  -2   3 73.6891 4.16078   5
  -8   2  -3 1.84376 0.92553   2
  -8   2  -3 3.44077 0.86952   8
  -8   2  -3 2.37129 1.05679   7
   8  -2   3 2.10833 0.85225   3
   8  -2   3 2.09272 0.76344   5
   8  -2   3 3.54075 1.06560   7
  -9   2  -3 1.25579 0.64827   8
  -9   2  -3 0.09228 1.02391   7
  -9   2  -3 0.17840 0.79522   2
   9  -2   3 1.67161 0.89402   5
   9  -2   3 1.25723 1.03163   3
   9  -2   3 -0.3231 0.87625   7
 -10   2  -3 13.1787 2.51326   7
 -10   2  -3 9.69239 2.00502   2
  10  -2   3 8.88956 2.02297   3
  10  -2   3 8.46360 1.91849   7
  10  -2   3 10.7466 1.87351   5
   9   1  -3 11.0381 1.79003   5
  -9  -1   3 9.43656 1.66372   5
   8   1  -3 23.2633 2.05111   6
   8   1  -3 22.1745 2.35365   5
   8   1  -3 16.0941 2.34235   3
  -8  -1   3 16.0377 2.03550   6
  -8  -1   3 18.2949 2.12359   5
  -8  -1   3 17.4181 2.44323   3
   7   1  -3 14.0610 1.92919   1
   7   1  -3 12.5095 1.71190   6
   7   1  -3 16.5189 1.91432   5
   7   1  -3 13.2527 2.19552   9
   7   1  -3 11.6074 1.63149   7
  -7  -1   3 11.7724 1.62438   5
  -7  -1   3 8.22720 1.69187   3
  -7  -1   3 10.8779 1.74508   7
  -7  -1   3 12.5968 1.66772   6
  -7  -1   3 17.9671 2.20917   1
   6   1  -3 0.00019 0.43900   6
   6   1  -3 -0.0577 0.64936   9
   6   1  -3 0.14116 0.40661   8
   6   1  -3 0.37248 0.40431   2
   6   1  -3 0.35983 0.53525   1
   6   1  -3 0.60777 0.61541   4
  -6  -1   3 0.25683 0.60315   4
  -6  -1   3 0.39201 0.48561   7
  -6  -1   3 0.14895 0.62757   1
  -6  -1   3 0.00946 0.45161   5
  -6  -1   3 0.19083 0.46375   6
  -6  -1   3 0.26218 0.41218   2
  -6  -1   3 0.03302 0.41144   8
  -6  -1   3 0.32188 0.49611   3
   5   1  -3 68.7356 3.80872   6
   5   1  -3 60.9913 4.00969   4
   5   1  -3 63.9070 4.31957   9
   5   1  -3 67.8647 3.63112   8
   5   1  -3 65.6294 3.54117   2
   5   1  -3 60.9799 3.93687   1
  -5  -1   3 63.6332 3.93912   3
  -5  -1   3 67.6639 4.10196   1
  -5  -1   3 67.6639 3.71452   5
  -5  -1   3 57.0056 4.04235   4
  -5  -1   3 63.6127 3.62242   2
  -5  -1   3 65.5036 3.76920   6
  -5  -1   3 65.1863 3.65671   8
  -5  -1   3 59.8612 3.73531   7
   4   1  -3 2.73445 0.82233   9
   4   1  -3 3.41540 0.66087   8
   4   1  -3 4.61585 0.94382   4
   4   1  -3 4.14304 0.65057   2
   4   1  -3 3.66565 0.87615   1
  -4  -1   3 4.50043 0.96957   4
  -4  -1   3 3.90889 1.01138   9
  -4  -1   3 3.54946 0.89445   1
  -4  -1   3 3.67234 0.76208   6
  -4  -1   3 4.07162 0.84816   3
  -4  -1   3 4.39582 0.76864   5
  -4  -1   3 3.09617 0.67288   7
  -4  -1   3 4.33371 0.72647   2
  -4  -1   3 4.49885 0.74227   8
   3   1  -3 1.17463 0.56521   9
   3   1  -3 0.76490 0.32594   8
   3   1  -3 0.11754 0.29591   4
   3   1  -3 0.67589 0.25079   2
   3   1  -3 -0.2504 0.29821   1
  -3  -1   3 0.87052 0.51012   1
  -3  -1   3 1.16864 0.49259   4
  -3  -1   3 0.54945 0.35719   6
  -3  -1   3 0.52926 0.44901   9
  -3  -1   3 0.86328 0.35810   5
  -3  -1   3 1.44766 0.42762   8
  -3  -1   3 0.52731 0.25126   2
  -3  -1   3 0.30881 0.26174   7
  -3  -1   3 0.78709 0.39314   3
   2   1  -3 778.485 36.4995   4
   2   1  -3 874.965 36.8708   9
   2   1  -3 801.719 35.9567   2
   2   1  -3 816.771 36.1354   8
   2   1  -3 728.029 36.3748   1
  -2  -1   3 806.102 36.5175   1
  -2  -1   3 832.470 36.2939   6
  -2  -1   3 786.400 36.0237   7
  -2  -1   3 901.504 36.9972   9
  -2  -1   3 823.039 36.2391   3
  -2  -1   3 804.773 36.2027   5
  -2  -1   3 846.426 36.6531   4
   1   1  -3 16.0132 1.05182   8
   1   1  -3 13.9042 1.31036   9
   1   1  -3 16.0831 0.91619   2
   1   1  -3 13.4774 1.18856   4
  -1  -1   3 16.0970 1.30340   4
  -1  -1   3 17.5004 1.13718   5
  -1  -1   3 18.0671 1.17874   6
  -1  -1   3 16.0576 0.87375   7
  -1  -1   3 17.1524 1.27905   1
  -1  -1   3 18.4112 1.47582   9
  -1  -1   3 18.9523 1.10578   3
   0   1  -3 20.7402 1.50914   9
   0   1  -3 21.3347 1.26366   8
   0   1  -3 20.4615 1.39392   4
   0   1  -3 23.2996 1.17114   2
   0   1  -3 21.3562 1.50851   9
   0  -1   3 23.8223 1.26407   3
   0  -1   3 20.8647 1.39295   1
   0  -1   3 20.4606 1.32626   6
   0  -1   3 23.2235 1.33860   5
   0  -1   3 23.6285 1.58378   9
  -1   1  -3 111.419 4.88289   7
  -1   1  -3 98.8408 5.00310   9
  -1   1  -3 106.973 4.89772   8
  -1   1  -3 102.704 4.87372   2
  -1   1  -3 95.8921 5.01355   9
  -1   1  -3 111.164 4.99645   4
   1  -1   3 110.750 4.97185   5
   1  -1   3 98.4651 4.90313   1
   1  -1   3 102.076 5.04086   9
   1  -1   3 103.956 4.94624   6
   1  -1   3 111.406 4.93005   3
  -2   1  -3 185.929 8.62480   9
  -2   1  -3 195.043 8.93976   7
  -2   1  -3 194.464 8.83809   2
  -2   1  -3 172.297 8.52742   1
  -2   1  -3 200.429 8.76967   8
  -2   1  -3 195.033 8.74653   4
  -2   1  -3 183.868 8.59639   9
   2  -1   3 192.441 8.81121   5
   2  -1   3 202.787 8.89825   3
   2  -1   3 185.839 8.54673   1
   2  -1   3 212.022 8.77637   6
  -3   1  -3 173.138 8.53824   2
  -3   1  -3 182.299 8.32252   4
  -3   1  -3 201.985 8.45175   8
  -3   1  -3 179.521 8.73688   7
   3  -1   3 178.155 8.46459   5
   3  -1   3 169.400 8.59400   3
   3  -1   3 189.518 8.35090   6
  -4   1  -3 473.696 20.8920   3
  -4   1  -3 497.868 20.3236   4
  -4   1  -3 437.888 20.5950   2
  -4   1  -3 434.509 20.8520   7
  -4   1  -3 428.521 20.3550   8
   4  -1   3 454.294 20.4752   5
   4  -1   3 452.179 20.2679   6
   4  -1   3 450.821 20.7462   3
  -5   1  -3 32.2825 1.90561   4
  -5   1  -3 25.9535 2.08530   2
  -5   1  -3 32.1949 2.41608   7
  -5   1  -3 27.5543 1.89510   8
  -5   1  -3 35.7370 2.46366   3
   5  -1   3 29.5551 2.23870   3
   5  -1   3 26.4624 1.94762   5
   5  -1   3 32.2349 1.48622   9
   5  -1   3 33.1017 1.87741   6
   5  -1   3 30.8813 1.46958   9
  -6   1  -3 18.5119 1.50141   8
  -6   1  -3 17.4485 2.17691   7
  -6   1  -3 20.8476 1.78071   2
  -6   1  -3 21.1656 2.27612   3
   6  -1   3 18.2464 1.40666   6
   6  -1   3 21.7278 1.69261   5
   6  -1   3 17.3779 2.02306   3
  -7   1  -3 -0.3343 0.38255   7
  -7   1  -3 0.13425 0.29460   8
  -7   1  -3 -0.7073 0.39047   2
  -7   1  -3 0.06746 0.60058   3
   7  -1   3 -0.0737 0.44983   6
   7  -1   3 0.12061 0.49283   5
   7  -1   3 -0.1843 0.35184   3
  -8   1  -3 11.8241 1.52323   8
  -8   1  -3 13.1892 1.89916   2
  -8   1  -3 9.11031 1.91132   7
  -8   1  -3 10.4036 1.90737   3
   8  -1   3 14.8991 2.09474   3
   8  -1   3 11.3150 1.61260   5
  -9   1  -3 23.2539 2.81461   2
  -9   1  -3 23.0834 3.10657   7
  -9   1  -3 25.9355 3.19793   3
   9  -1   3 20.5927 2.39533   5
   9  -1   3 20.3145 2.70788   7
   9  -1   3 24.3137 2.93149   3
 -10   1  -3 10.3263 2.32658   7
 -10   1  -3 10.8085 2.01323   2
  10  -1   3 9.38394 1.91350   3
  10  -1   3 9.41950 1.72851   5
  10  -1   3 9.18274 1.99620   7
   8   0  -3 9.59964 1.51738   6
   8   0  -3 5.92996 1.46575   3
   8   0  -3 8.03406 1.44545   5
  -8   0   3 6.86436 1.56626   3
  -8   0   3 4.79616 1.24563   6
  -8   0   3 5.94692 1.22258   5
   7   0  -3 34.5935 2.50940   5
   7   0  -3 38.0455 2.86946   1
   7   0  -3 38.5620 3.28774   9
   7   0  -3 28.7694 2.75661   4
   7   0  -3 36.9136 2.57659   6
   7   0  -3 33.6733 2.52881   8
   7   0  -3 34.5809 2.81763   3
   7   0  -3 32.3378 2.56860   7
   7   0  -3 32.1798 2.47364   2
  -7   0   3 31.6789 2.96699   4
  -7   0   3 34.6565 2.48707   5
  -7   0   3 29.8259 2.77731   3
  -7   0   3 33.3619 2.50428   6
  -7   0   3 32.1410 2.78606   2
  -7   0   3 28.3018 2.63008   7
  -7   0   3 40.5748 2.99886   1
   6   0  -3 0.67115 0.76063   9
   6   0  -3 1.55895 0.59718   5
   6   0  -3 1.04414 0.49666   6
   6   0  -3 1.93388 0.62738   8
   6   0  -3 0.60665 0.46950   2
   6   0  -3 1.09548 0.65627   3
   6   0  -3 1.86010 0.74117   1
   6   0  -3 0.61597 0.63332   4
   6   0  -3 1.20805 0.62629   7
  -6   0   3 1.24853 0.59097   5
  -6   0   3 1.11965 0.58254   8
  -6   0   3 0.35148 0.75284   4
  -6   0   3 1.40593 0.61897   6
  -6   0   3 2.89500 0.91159   3
  -6   0   3 1.46760 0.66331   7
  -6   0   3 1.29026 0.76254   1
  -6   0   3 2.07875 0.70785   2
   5   0  -3 3.99393 0.74281   8
   5   0  -3 2.49361 0.85689   4
   5   0  -3 1.59825 0.69991   9
   5   0  -3 3.42003 0.86795   1
   5   0  -3 1.93700 0.58423   2
   5   0  -3 2.47784 0.67486   7
  -5   0   3 3.63249 1.10806   9
  -5   0   3 1.41349 0.54616   2
  -5   0   3 3.10471 0.68159   5
  -5   0   3 2.62969 0.85463   4
  -5   0   3 1.97273 0.69642   1
  -5   0   3 1.63125 0.57265   6
  -5   0   3 2.09418 0.75507   3
  -5   0   3 3.33715 0.71646   8
  -5   0   3 1.83217 0.63743   7
   4   0  -3 11.4830 1.02951   2
   4   0  -3 12.2579 1.27506   8
   4   0  -3 11.3977 1.68585   9
   4   0  -3 12.0138 1.58362   4
   4   0  -3 10.0189 1.14610   7
  -4   0   3 8.89102 1.08474   5
  -4   0   3 12.1544 1.31371   2
  -4   0   3 13.3038 1.14753   6
  -4   0   3 12.4787 1.42418   3
  -4   0   3 13.2688 1.68860   4
  -4   0   3 11.4868 1.25604   8
  -4   0   3 12.5771 1.81665   9
  -4   0   3 13.2525 1.61015   1
  -4   0   3 11.8766 1.33887   7
   3   0  -3 31.5820 2.45510   4
   3   0  -3 35.9625 2.68810   9
   3   0  -3 36.3015 2.12582   2
   3   0  -3 36.2171 2.19826   8
   3   0  -3 34.5256 2.10534   7
  -3   0   3 37.4440 2.77637   9
  -3   0   3 37.2537 2.60180   4
  -3   0   3 40.2141 2.29707   6
  -3   0   3 36.6795 2.49478   1
  -3   0   3 37.4978 2.22279   7
  -3   0   3 40.8764 2.29647   8
  -3   0   3 38.0444 2.21657   2
  -3   0   3 40.0277 2.21518   5
  -3   0   3 43.8170 2.38710   3
   2   0  -3 11.2729 0.81557   7
   2   0  -3 11.9281 0.93732   8
   2   0  -3 11.4454 1.23346   9
   2   0  -3 13.3976 0.89290   2
   2   0  -3 9.61939 1.23830   4
  -2   0   3 13.1396 0.95959   3
  -2   0   3 12.7023 0.93659   2
  -2   0   3 13.0913 0.99859   8
  -2   0   3 10.8774 1.09349   1
  -2   0   3 13.1400 0.90436   7
  -2   0   3 12.0907 1.20241   4
  -2   0   3 11.0632 0.89496   5
  -2   0   3 11.2802 0.96645   6
  -2   0   3 11.7885 1.27219   9
   1   0  -3 0.99258 0.40346   4
   1   0  -3 1.20400 0.26220   2
   1   0  -3 1.83600 0.23447   7
   1   0  -3 1.70211 0.35649   8
   1   0  -3 1.41846 0.45539   9
  -1   0   3 1.65086 0.55013   9
  -1   0   3 1.23444 0.33607   6
  -1   0   3 0.93123 0.35893   1
  -1   0   3 1.77557 0.30017   3
  -1   0   3 1.58768 0.47137   4
  -1   0   3 1.71265 0.34578   5
   0   0  -3 27.9686 1.70309   4
   0   0  -3 31.4633 1.32686   7
   0   0  -3 27.9277 1.48456   2
   0   0  -3 27.0460 1.54571   8
   0   0  -3 24.4788 1.76560   9
   0   0   3 27.7019 1.70550   1
   0   0   3 25.4730 1.60195   6
   0   0   3 27.3402 1.72868   4
   0   0   3 27.3129 1.83136   9
   0   0   3 30.9440 1.41614   3
   0   0   3 28.6646 1.53836   5
  -1   0  -3 9.75671 0.68212   2
  -1   0  -3 9.28731 0.66223   8
  -1   0  -3 9.26852 0.79845   9
  -1   0  -3 10.6046 0.68412   7
  -1   0  -3 8.67685 0.70027   4
   1   0   3 11.6532 0.67200   3
   1   0   3 9.83588 0.83132   9
   1   0   3 8.27773 0.73409   6
   1   0   3 9.62001 0.69179   5
   1   0   3 9.14984 0.73436   1
  -2   0  -3 13.6305 0.97399   2
  -2   0  -3 14.4987 1.06198   7
  -2   0  -3 14.7142 1.04889   3
  -2   0  -3 14.7322 0.83793   4
  -2   0  -3 16.0297 0.90284   9
  -2   0  -3 13.5158 0.88057   8
   2   0   3 13.1078 0.98231   3
   2   0   3 13.5330 0.84313   1
   2   0   3 12.7215 0.88751   9
   2   0   3 14.6294 0.95521   6
   2   0   3 15.0512 0.96795   5
  -3   0  -3 39.9291 2.10900   8
  -3   0  -3 34.3728 2.20533   2
  -3   0  -3 43.5995 1.94788   9
  -3   0  -3 42.7434 1.97397   4
  -3   0  -3 37.0411 2.39848   7
  -3   0  -3 40.4403 2.40267   3
   3   0   3 39.5619 1.96401   9
   3   0   3 38.9861 2.12789   6
   3   0   3 36.9160 2.31415   3
   3   0   3 42.4324 1.92696   1
   3   0   3 37.8184 2.18880   5
  -4   0  -3 23.6135 1.46206   8
  -4   0  -3 27.7266 1.37104   4
  -4   0  -3 25.6401 1.69839   2
  -4   0  -3 22.8086 1.82074   7
  -4   0  -3 22.5818 1.78851   3
  -4   0  -3 22.0765 1.30649   9
   4   0   3 24.4787 1.25163   1
   4   0   3 24.8367 1.60087   5
   4   0   3 21.2987 1.71113   3
   4   0   3 24.9557 1.32221   9
   4   0   3 22.9893 1.48652   6
   4   0   3 22.7200 1.32950   9
  -5   0  -3 44.5632 2.38731   8
  -5   0  -3 41.3052 2.23172   4
  -5   0  -3 46.4526 2.94870   3
  -5   0  -3 43.3815 2.65627   2
  -5   0  -3 38.1074 2.83766   7
   5   0   3 42.1064 2.10043   1
   5   0   3 40.8752 2.36972   6
   5   0   3 40.1045 2.76443   3
   5   0   3 41.2637 2.18287   9
   5   0   3 41.8144 2.28064   9
   5   0   3 38.5442 2.48113   5
  -6   0  -3 71.0218 3.66640   8
  -6   0  -3 72.6673 4.37179   3
  -6   0  -3 62.2507 4.24725   7
  -6   0  -3 63.3292 3.93094   2
   6   0   3 71.2381 3.88876   5
   6   0   3 63.1288 4.13626   3
   6   0   3 67.1123 3.62973   6
  -7   0  -3 12.0049 1.65070   2
  -7   0  -3 11.4115 1.31752   8
  -7   0  -3 7.59935 1.55810   7
  -7   0  -3 10.2916 1.68172   3
   7   0   3 12.1438 1.75869   3
   7   0   3 10.8202 1.43351   5
   7   0   3 12.6227 1.38351   6
  -8   0  -3 1.86244 0.90486   3
  -8   0  -3 2.97598 1.07193   7
  -8   0  -3 0.96340 0.78239   2
   8   0   3 1.42355 0.74377   3
   8   0   3 2.70510 0.91484   5
   8   0   3 2.22499 0.77935   6
  -9   0  -3 54.4567 4.22691   3
  -9   0  -3 45.3629 3.65009   2
  -9   0  -3 48.3002 4.12863   7
   9   0   3 46.2548 3.86404   3
   9   0   3 49.2268 3.47338   5
 -10   0  -3 3.19800 1.36843   3
 -10   0  -3 3.82049 1.57293   7
 -10   0  -3 4.96668 1.34764   2
  10   0   3 5.98038 1.57931   3
  10   0   3 5.69205 1.42364   5
   8  -1  -3 -0.4397 0.57894   2
   8  -1  -3 -0.0799 0.69066   3
   8  -1  -3 0.32232 0.79650   7
  -8   1   3 0.23296 0.76793   7
   7  -1  -3 2.31573 0.74024   8
   7  -1  -3 1.58007 0.72383   5
   7  -1  -3 1.37915 0.60375   6
   7  -1  -3 0.85954 0.74417   7
   7  -1  -3 1.54982 0.77881   4
   7  -1  -3 1.36699 0.77167   3
   7  -1  -3 1.30912 0.68309   1
   7  -1  -3 1.63534 0.73661   2
  -7   1   3 1.32740 0.83381   7
  -7   1   3 0.74241 0.71431   2
  -7   1   3 1.46247 0.60978   5
  -7   1   3 1.03067 0.74604   1
  -7   1   3 2.18047 0.71898   6
  -7   1   3 1.94779 0.75833   8
  -7   1   3 0.83815 0.59317   3
  -7   1   3 0.82466 0.60781   4
   6  -1  -3 146.656 7.77844   3
   6  -1  -3 142.856 7.62551   7
   6  -1  -3 141.130 8.05346   4
   6  -1  -3 147.301 7.57014   8
   6  -1  -3 155.678 7.50308   5
   6  -1  -3 150.820 7.51784   6
   6  -1  -3 144.731 8.27058   9
   6  -1  -3 141.072 7.54433   2
   6  -1  -3 144.526 7.82891   1
  -6   1   3 141.891 7.69906   2
  -6   1   3 146.511 7.47619   6
  -6   1   3 149.002 7.89749   3
  -6   1   3 151.395 7.65523   8
  -6   1   3 151.195 8.26641   4
  -6   1   3 146.826 7.84991   7
  -6   1   3 155.213 8.01141   1
  -6   1   3 155.389 7.48814   5
  -6   1   3 166.793 8.65694   9
   5  -1  -3 27.6062 1.83433   5
   5  -1  -3 24.8264 1.86111   2
   5  -1  -3 26.5057 1.93647   8
   5  -1  -3 24.5172 1.89821   7
   5  -1  -3 23.1316 2.30953   9
   5  -1  -3 23.3356 2.15650   4
   5  -1  -3 30.2177 2.11740   3
  -5   1   3 26.1050 1.96058   8
  -5   1   3 24.4699 2.40155   9
  -5   1   3 26.8440 2.32667   4
  -5   1   3 26.4152 2.06812   7
  -5   1   3 21.3145 2.04561   1
  -5   1   3 24.1106 1.81359   6
  -5   1   3 25.7118 2.06155   3
  -5   1   3 23.1772 1.90630   2
  -5   1   3 26.9696 1.81357   5
   4  -1  -3 101.522 5.25674   2
   4  -1  -3 109.148 5.33124   8
   4  -1  -3 96.9125 5.22525   7
   4  -1  -3 105.122 5.35260   3
   4  -1  -3 99.8344 5.88309   9
  -4   1   3 100.565 5.61769   1
  -4   1   3 102.743 5.99856   9
  -4   1   3 107.795 5.36358   8
  -4   1   3 106.646 5.25767   6
  -4   1   3 97.1614 5.74535   4
  -4   1   3 100.987 5.36848   2
  -4   1   3 103.733 5.40830   7
  -4   1   3 107.057 5.15692   5
  -4   1   3 103.424 5.39432   3
   3  -1  -3 237.068 11.0675   7
   3  -1  -3 240.225 11.1127   2
   3  -1  -3 243.752 11.1687   8
   3  -1  -3 231.046 11.7308   9
  -3   1   3 235.170 11.0986   6
  -3   1   3 244.221 11.6598   4
  -3   1   3 243.155 11.2077   8
  -3   1   3 238.477 11.5036   1
  -3   1   3 244.920 11.1676   3
  -3   1   3 249.656 11.0088   5
  -3   1   3 240.309 11.8529   9
  -3   1   3 234.809 11.1745   7
  -3   1   3 233.789 11.2016   2
   2  -1  -3 230.194 10.4693   7
   2  -1  -3 233.046 10.5583   2
   2  -1  -3 228.134 10.6089   8
  -2   1   3 239.664 10.5138   3
  -2   1   3 228.380 10.6467   8
  -2   1   3 230.172 10.6492   2
  -2   1   3 226.528 11.0000   4
  -2   1   3 220.515 10.8941   1
  -2   1   3 224.985 10.5848   6
  -2   1   3 215.039 11.1360   9
  -2   1   3 242.365 10.4622   5
  -2   1   3 238.933 10.5796   7
   1  -1  -3 11.3268 0.84286   8
   1  -1  -3 10.7120 0.70147   7
   1  -1  -3 12.4658 0.83169   2
   1  -1  -3 10.4268 1.09542   9
  -1   1   3 10.2496 1.00292   4
  -1   1   3 10.5435 0.83979   6
  -1   1   3 10.8535 0.85816   8
  -1   1   3 10.1547 1.00334   1
  -1   1   3 10.6729 1.13341   9
  -1   1   3 11.5030 0.68048   3
  -1   1   3 11.0325 0.73432   5
   0  -1  -3 112.644 5.11347   7
   0  -1  -3 108.915 5.26418   8
   0  -1  -3 115.105 5.61098   9
   0  -1  -3 114.744 5.24853   2
   0   1   3 116.442 5.16698   5
   0   1   3 109.402 5.46843   4
   0   1   3 111.113 5.46904   1
   0   1   3 109.178 5.62875   9
   0   1   3 113.653 5.33350   6
  -1  -1  -3 86.1711 4.20017   2
  -1  -1  -3 89.8411 4.11926   3
  -1  -1  -3 101.285 4.46220   9
  -1  -1  -3 87.0758 4.16976   8
  -1  -1  -3 81.0687 4.21216   4
  -1  -1  -3 89.3134 4.19324   7
   1   1   3 87.0820 4.41843   9
   1   1   3 87.5672 4.26128   4
   1   1   3 93.1352 4.15648   5
   1   1   3 86.3242 4.29597   1
   1   1   3 87.9027 4.09781   3
   1   1   3 88.2715 4.25702   6
  -2  -1  -3 43.1811 2.10440   9
  -2  -1  -3 38.7580 2.12862   3
  -2  -1  -3 35.4738 1.84918   4
  -2  -1  -3 36.8005 2.06992   2
  -2  -1  -3 39.5011 1.94705   8
  -2  -1  -3 36.2863 2.15135   7
   2   1   3 40.9406 2.09422   6
   2   1   3 38.2840 2.02797   5
   2   1   3 41.0900 2.01962   1
   2   1   3 33.9198 2.05241   3
   2   1   3 39.5507 2.10211   9
  -3  -1  -3 403.723 18.2988   7
  -3  -1  -3 428.032 17.9039   9
  -3  -1  -3 389.390 18.2221   3
  -3  -1  -3 396.958 18.0626   2
  -3  -1  -3 404.545 17.8248   8
   3   1   3 376.033 17.9332   6
   3   1   3 406.371 17.8140   1
   3   1   3 396.826 18.0033   5
   3   1   3 403.699 17.9046   9
  -4  -1  -3 846.636 34.5496   8
  -4  -1  -3 807.032 34.6130   9
  -4  -1  -3 787.904 35.1263   3
  -4  -1  -3 782.207 35.1703   7
  -4  -1  -3 796.761 34.8590   2
   4   1   3 769.628 34.7586   5
   4   1   3 752.194 34.4519   1
   4   1   3 756.498 34.5577   9
   4   1   3 745.970 35.0029   3
   4   1   3 768.206 34.6551   6
  -5  -1  -3 162.021 8.21459   3
  -5  -1  -3 168.708 7.53532   8
  -5  -1  -3 159.626 7.88094   2
  -5  -1  -3 151.934 7.61219   9
  -5  -1  -3 154.946 8.22145   7
   5   1   3 153.152 7.75719   5
   5   1   3 158.512 7.42474   1
   5   1   3 161.633 7.56167   9
   5   1   3 159.141 7.64912   6
   5   1   3 157.379 8.10388   3
   5   1   3 175.736 7.76455   9
  -6  -1  -3 3.07282 0.74751   2
  -6  -1  -3 4.07088 0.66392   8
  -6  -1  -3 2.98625 0.87297   3
  -6  -1  -3 4.23809 1.03889   7
   6   1   3 2.93087 0.65636   9
   6   1   3 2.04925 0.60821   5
   6   1   3 4.25219 0.73589   6
   6   1   3 3.20239 0.84177   3
  -7  -1  -3 21.3625 2.55804   7
  -7  -1  -3 19.5602 2.47291   3
  -7  -1  -3 20.2052 1.56106   8
  -7  -1  -3 20.2285 1.86469   2
   7   1   3 21.1557 2.42799   3
   7   1   3 22.7578 1.88462   5
   7   1   3 19.8573 1.69170   6
  -8  -1  -3 2.25164 0.82294   2
  -8  -1  -3 1.38478 0.90691   3
  -8  -1  -3 -0.3763 0.69928   7
   8   1   3 1.95513 0.82822   5
   8   1   3 1.04666 0.88725   3
   8   1   3 0.79153 0.67498   6
  -9  -1  -3 11.4245 2.09465   3
  -9  -1  -3 11.2503 1.90843   2
  -9  -1  -3 13.9830 2.42546   7
   9   1   3 11.7663 2.40585   6
   9   1   3 9.79278 1.88571   3
   9   1   3 14.7337 1.92576   5
 -10  -1  -3 3.50748 1.23410   2
 -10  -1  -3 2.21569 1.35405   3
 -10  -1  -3 1.51627 1.39094   7
  10   1   3 1.35295 0.91017   5
  10   1   3 1.22565 1.09185   3
   8  -2  -3 5.87656 1.30082   8
   8  -2  -3 4.94787 1.17569   2
   8  -2  -3 4.11271 1.17321   7
  -8   2   3 3.88368 1.28627   7
  -8   2   3 3.88602 1.18932   2
  -8   2   3 2.10601 0.92832   8
   7  -2  -3 1.21804 0.74991   4
   7  -2  -3 2.38952 0.93545   3
   7  -2  -3 2.55794 0.99395   1
   7  -2  -3 0.66446 0.63627   8
   7  -2  -3 1.42367 0.65748   7
   7  -2  -3 1.79416 0.67490   2
  -7   2   3 2.80649 1.02745   3
  -7   2   3 0.81861 0.83659   4
  -7   2   3 1.54546 0.77552   2
  -7   2   3 1.33364 0.75575   8
  -7   2   3 1.87524 0.75655   7
   6  -2  -3 13.7878 1.28432   6
   6  -2  -3 12.0831 1.62300   3
   6  -2  -3 10.8048 1.83971   9
   6  -2  -3 13.1803 1.45752   5
   6  -2  -3 13.5493 1.69437   2
   6  -2  -3 13.9550 1.63430   8
   6  -2  -3 10.8057 1.56600   7
  -6   2   3 15.0652 1.72081   8
  -6   2   3 10.4687 1.86094   4
  -6   2   3 11.5832 1.37276   6
  -6   2   3 11.0039 1.67449   7
  -6   2   3 7.63309 1.41768   2
  -6   2   3 10.9436 1.89159   9
  -6   2   3 11.7762 1.73340   1
  -6   2   3 15.0479 1.86108   3
  -6   2   3 12.6327 1.40181   5
   5  -2  -3 9.06541 1.06879   5
   5  -2  -3 7.00720 1.10515   8
   5  -2  -3 8.70672 1.23878   7
   5  -2  -3 7.87518 1.16842   3
   5  -2  -3 6.81609 1.14605   2
   5  -2  -3 7.68613 1.46486   9
  -5   2   3 8.62617 1.58857   9
  -5   2   3 9.03354 1.37409   2
  -5   2   3 5.79961 1.03547   8
  -5   2   3 6.38279 0.95083   6
  -5   2   3 7.55001 1.21109   3
  -5   2   3 5.11595 1.16976   1
  -5   2   3 8.19570 1.29908   7
  -5   2   3 8.37357 1.00772   5
  -5   2   3 7.10650 1.44513   4
   4  -2  -3 10.5055 1.22435   7
   4  -2  -3 9.66691 1.16505   8
   4  -2  -3 9.50235 1.21812   2
   4  -2  -3 6.34634 1.28619   9
   4  -2  -3 9.65296 1.15566   3
   4  -2  -3 9.42476 0.85084   5
  -4   2   3 10.0369 0.87033   5
  -4   2   3 8.89161 1.38252   1
  -4   2   3 10.0994 1.31162   7
  -4   2   3 9.01336 1.54453   9
  -4   2   3 9.43613 1.24363   2
  -4   2   3 10.5466 1.23275   3
  -4   2   3 9.48374 1.21591   8
  -4   2   3 10.2595 1.08976   6
  -4   2   3 6.70205 1.28946   4
   3  -2  -3 21.7634 1.50227   3
   3  -2  -3 22.5864 1.61485   8
   3  -2  -3 25.1478 1.65457   2
   3  -2  -3 23.8265 1.60138   7
  -3   2   3 21.4265 1.90128   4
  -3   2   3 23.9141 1.41217   5
  -3   2   3 21.2996 1.97732   9
  -3   2   3 28.2428 1.66067   3
  -3   2   3 22.9126 1.52100   6
  -3   2   3 24.9842 1.74067   2
  -3   2   3 22.2017 1.62526   8
  -3   2   3 19.3673 1.76707   1
  -3   2   3 22.8481 1.69552   7
   2  -2  -3 1.64854 0.39835   7
   2  -2  -3 1.77911 0.42406   8
   2  -2  -3 1.49592 0.31767   3
   2  -2  -3 1.65895 0.39556   2
  -2   2   3 1.68308 0.39446   6
  -2   2   3 1.86723 0.46560   2
  -2   2   3 1.61975 0.53378   4
  -2   2   3 1.70220 0.63766   9
  -2   2   3 2.39410 0.35262   5
  -2   2   3 2.26112 0.40432   3
  -2   2   3 1.32269 0.52338   1
  -2   2   3 2.27510 0.49606   8
   1  -2  -3 123.480 5.94508   2
   1  -2  -3 130.585 6.40385   9
   1  -2  -3 123.824 5.84294   7
   1  -2  -3 131.098 5.63724   3
   1  -2  -3 127.407 5.96862   8
  -1   2   3 123.182 5.67361   5
  -1   2   3 123.901 6.21310   1
  -1   2   3 124.500 6.42930   9
  -1   2   3 124.717 5.99112   8
  -1   2   3 125.228 6.25345   4
  -1   2   3 119.327 5.91357   6
   0  -2  -3 105.671 5.15837   8
   0  -2  -3 105.952 5.17654   2
   0  -2  -3 114.254 4.86897   3
   0  -2  -3 109.858 5.10849   7
   0   2   3 113.643 5.21250   6
   0   2   3 103.495 5.35306   4
   0   2   3 111.747 5.57554   9
   0   2   3 102.888 5.17974   8
   0   2   3 109.116 5.39161   1
   0   2   3 114.761 4.97231   5
  -1  -2  -3 329.729 15.8019   2
  -1  -2  -3 347.873 15.7052   3
  -1  -2  -3 348.602 15.8196   7
  -1  -2  -3 409.302 16.1624   9
  -1  -2  -3 329.329 15.7250   8
   1   2   3 350.741 15.8303   6
   1   2   3 355.835 16.0736   9
   1   2   3 349.949 15.6745   5
   1   2   3 344.634 15.8576   4
   1   2   3 369.062 15.9473   1
  -2  -2  -3 209.456 9.60210   7
  -2  -2  -3 203.629 9.26768   8
  -2  -2  -3 199.083 9.50716   3
  -2  -2  -3 208.210 9.46823   2
  -2  -2  -3 213.675 9.58239   9
   2   2   3 228.340 9.49051   1
   2   2   3 199.539 9.37200   5
   2   2   3 196.104 9.26228   4
   2   2   3 205.658 9.57139   9
   2   2   3 202.317 9.44234   6
  -3  -2  -3 19.7961 1.49419   3
  -3  -2  -3 16.9521 1.44480   7
  -3  -2  -3 20.2147 1.35351   2
  -3  -2  -3 22.7093 1.39921   9
  -3  -2  -3 19.9830 1.12579   8
   3   2   3 19.4296 1.30197   5
   3   2   3 22.4664 1.44792   9
   3   2   3 21.1781 1.31696   1
   3   2   3 19.5769 1.34170   6
  -4  -2  -3 711.425 31.7789   7
  -4  -2  -3 691.893 31.6915   3
  -4  -2  -3 717.232 31.4180   2
  -4  -2  -3 715.459 31.0223   8
   4   2   3 713.621 31.3635   5
   4   2   3 699.793 31.2963   6
   4   2   3 688.830 31.1748   1
   4   2   3 685.995 31.3213   9
  -5  -2  -3 46.2428 3.23437   7
  -5  -2  -3 47.7605 2.91993   2
  -5  -2  -3 53.7784 2.59350   8
  -5  -2  -3 49.6275 3.22772   3
  -5  -2  -3 48.6979 2.86988   9
   5   2   3 47.9234 2.81409   6
   5   2   3 48.2000 2.69118   1
   5   2   3 49.3810 2.90482   5
   5   2   3 50.8058 2.88630   9
  -6  -2  -3 6.10807 1.21404   3
  -6  -2  -3 5.93269 0.99953   2
  -6  -2  -3 5.82064 0.74826   8
  -6  -2  -3 4.16206 1.09535   7
   6   2   3 5.11482 0.89503   5
   6   2   3 5.40457 0.87851   6
   6   2   3 5.88273 0.88122   1
   6   2   3 6.67947 1.04939   9
  -7  -2  -3 0.62654 0.69245   7
  -7  -2  -3 1.02962 0.79779   3
  -7  -2  -3 0.34723 0.51831   2
   7   2   3 -0.4683 0.27781   5
   7   2   3 0.02070 0.52958   6
   7   2   3 0.74317 0.72739   3
  -8  -2  -3 0.28860 0.63133   3
  -8  -2  -3 -0.4465 0.48439   2
  -8  -2  -3 0.76743 0.64077   7
   8   2   3 -0.1945 0.42736   6
   8   2   3 -0.0513 0.40382   5
   8   2   3 0.06370 0.43912   3
  -9  -2  -3 29.3432 3.37302   3
  -9  -2  -3 28.5170 2.58993   2
  -9  -2  -3 23.8296 3.09324   7
   9   2   3 28.2015 2.42261   5
   9   2   3 25.2094 2.24614   6
   9   2   3 25.5068 3.07722   3
 -10  -2  -3 2.83623 1.66569   2
 -10  -2  -3 2.84159 1.50729   3
 -10  -2  -3 2.53201 1.34931   7
  10   2   3 3.51152 1.46988   3
  10   2   3 3.80830 1.25103   5
   8  -3  -3 42.8720 3.32901   2
   8  -3  -3 37.4454 3.09854   8
   8  -3  -3 45.7786 3.36337   7
  -8   3   3 43.6864 3.51430   2
  -8   3   3 41.1228 3.47494   7
  -8   3   3 44.1789 3.31817   8
   7  -3  -3 18.0108 2.52397   3
   7  -3  -3 13.9347 1.80616   8
   7  -3  -3 13.3621 1.90274   7
   7  -3  -3 16.0501 2.01615   2
  -7   3   3 13.0085 1.78628   8
  -7   3   3 13.1949 2.02136   2
  -7   3   3 13.3669 2.11567   7
  -7   3   3 11.6043 2.06076   4
   6  -3  -3 181.091 10.1847   9
   6  -3  -3 192.461 9.70103   7
   6  -3  -3 196.220 9.73194   2
   6  -3  -3 198.423 9.64364   3
  -6   3   3 192.404 10.3266   4
  -6   3   3 200.052 10.4612   9
  -6   3   3 189.841 9.66804   8
  -6   3   3 189.361 9.87992   1
  -6   3   3 195.404 9.98683   7
  -6   3   3 183.343 9.82977   2
   5  -3  -3 150.965 8.90768   9
   5  -3  -3 162.881 8.43604   7
   5  -3  -3 175.463 8.53798   2
   5  -3  -3 185.227 8.10200   5
   5  -3  -3 174.181 8.39304   3
  -5   3   3 163.855 8.44951   8
  -5   3   3 160.636 8.67834   1
  -5   3   3 172.506 8.30997   5
  -5   3   3 164.558 9.12929   9
  -5   3   3 174.567 8.74769   7
  -5   3   3 169.872 8.09830   6
  -5   3   3 174.298 8.70434   2
  -5   3   3 158.811 8.95296   4
   4  -3  -3 104.807 4.76873   5
   4  -3  -3 99.6661 5.01252   3
   4  -3  -3 92.1051 5.11435   2
   4  -3  -3 95.3888 5.10652   7
  -4   3   3 96.1181 5.41499   1
  -4   3   3 97.3479 4.84626   6
  -4   3   3 92.5667 5.25433   2
  -4   3   3 87.1798 5.47463   4
  -4   3   3 95.4827 5.14889   8
  -4   3   3 92.8063 5.70920   9
  -4   3   3 103.830 4.75852   5
   3  -3  -3 74.3953 3.73893   3
   3  -3  -3 70.8176 3.93588   2
   3  -3  -3 72.4297 3.89650   7
   3  -3  -3 81.2676 3.56344   5
  -3   3   3 60.8511 4.05647   1
  -3   3   3 65.7546 4.36820   9
  -3   3   3 72.1785 4.30347   4
  -3   3   3 75.4596 4.10509   2
  -3   3   3 67.0246 3.90367   8
  -3   3   3 81.2008 3.56137   5
  -3   3   3 70.8479 3.69272   6
   2  -3  -3 82.1823 3.67290   3
   2  -3  -3 74.9748 3.86082   7
   2  -3  -3 73.8085 3.91940   2
  -2   3   3 72.5516 3.92121   8
  -2   3   3 67.2260 4.15568   4
  -2   3   3 71.3208 3.73664   6
  -2   3   3 73.9454 4.03832   2
  -2   3   3 74.3716 4.17079   1
  -2   3   3 73.4831 4.40528   9
  -2   3   3 79.7232 3.49369   5
   1  -3  -3 239.444 10.7534   7
   1  -3  -3 241.985 10.4817   3
   1  -3  -3 224.771 10.7947   2
   1  -3  -3 235.247 10.7928   8
  -1   3   3 228.242 10.6929   6
  -1   3   3 224.664 11.0488   4
  -1   3   3 222.526 11.2373   9
  -1   3   3 254.712 10.3490   5
  -1   3   3 234.023 11.0576   1
  -1   3   3 231.711 10.8143   8
   0  -3  -3 166.595 7.71957   7
   0  -3  -3 168.643 7.48449   3
   0  -3  -3 161.526 7.68524   8
   0  -3  -3 162.846 7.74683   2
   0   3   3 167.890 7.39456   5
   0   3   3 160.763 7.91358   1
   0   3   3 168.997 7.92707   4
   0   3   3 171.005 7.70029   6
   0   3   3 166.765 7.73093   8
   0   3   3 166.094 8.11610   9
  -1  -3  -3 15.2048 1.05146   7
  -1  -3  -3 14.9631 0.94659   3
  -1  -3  -3 14.5379 1.02159   2
  -1  -3  -3 12.9176 0.89798   8
   1   3   3 14.5759 1.21518   9
   1   3   3 13.3936 1.08181   1
   1   3   3 14.3720 0.85324   5
   1   3   3 15.7294 1.03138   6
   1   3   3 14.4434 1.04110   4
  -2  -3  -3 73.0541 3.76468   7
  -2  -3  -3 70.3527 3.40097   8
  -2  -3  -3 72.4976 3.68587   3
  -2  -3  -3 66.4641 3.78846   9
  -2  -3  -3 69.2531 3.59582   2
   2   3   3 75.1593 3.86511   9
   2   3   3 67.5711 3.49239   5
   2   3   3 76.0972 3.51060   4
   2   3   3 75.0197 3.63475   6
   2   3   3 76.8309 3.71171   1
  -3  -3  -3 27.9980 1.89959   3
  -3  -3  -3 27.5185 1.74823   2
  -3  -3  -3 32.3134 1.94260   9
  -3  -3  -3 27.8214 1.96072   7
  -3  -3  -3 30.0752 1.46890   8
  -3  -3  -3 27.3768 1.70505   5
   3   3   3 26.6148 1.68564   5
   3   3   3 28.7693 1.94941   9
   3   3   3 30.8547 1.83773   1
   3   3   3 29.7307 1.45782   4
   3   3   3 25.8019 1.71662   6
  -4  -3  -3 15.1007 0.89487   8
  -4  -3  -3 17.1252 1.26873   2
  -4  -3  -3 14.9426 1.22225   5
  -4  -3  -3 13.6354 1.55457   3
  -4  -3  -3 16.2996 1.47732   7
   4   3   3 14.2644 1.18978   5
   4   3   3 15.3407 1.24849   1
   4   3   3 14.4599 1.35198   9
   4   3   3 17.0642 1.24522   6
  -5  -3  -3 44.6715 3.17575   3
  -5  -3  -3 48.4616 3.27437   7
  -5  -3  -3 53.9785 2.50335   8
  -5  -3  -3 48.4530 2.90763   2
  -5  -3  -3 50.6888 2.94870   5
   5   3   3 49.1684 2.86629   6
   5   3   3 50.0626 3.02889   9
   5   3   3 47.4040 2.80881   1
   5   3   3 47.1457 2.89187   5
  -6  -3  -3 44.0000 2.81270   2
  -6  -3  -3 41.4760 2.77051   5
  -6  -3  -3 40.6281 3.18269   7
  -6  -3  -3 41.0115 3.11771   3
   6   3   3 44.4177 2.89287   9
   6   3   3 45.7187 2.83548   5
   6   3   3 46.9409 2.72383   1
   6   3   3 45.6598 2.80303   6
  -7  -3  -3 3.05320 1.02128   3
  -7  -3  -3 4.64344 1.18917   7
  -7  -3  -3 2.84387 0.79631   5
  -7  -3  -3 3.01390 0.78633   2
   7   3   3 2.59389 0.75948   5
   7   3   3 2.52782 0.71383   6
  -8  -3  -3 13.2924 1.81910   2
  -8  -3  -3 13.1115 2.09892   3
  -8  -3  -3 14.3075 2.19029   7
   8   3   3 8.67909 1.73452   3
   8   3   3 12.6693 1.67581   6
   8   3   3 14.5423 1.88300   5
  -9  -3  -3 41.7193 3.17409   2
  -9  -3  -3 40.2167 3.58035   7
  -9  -3  -3 40.1333 3.54022   3
   9   3   3 33.2630 3.67677   3
   9   3   3 39.2941 3.07080   5
   9   3   3 36.2775 2.95323   6
 -10  -3  -3 8.22081 2.04707   7
 -10  -3  -3 3.94458 1.47670   3
  10   3   3 5.43011 1.56502   6
  10   3   3 8.13896 1.58227   5
  10   3   3 6.54459 1.69641   3
   8  -4  -3 0.48015 0.69004   8
   8  -4  -3 0.42477 0.68670   7
   8  -4  -3 0.38134 0.55007   2
  -8   4   3 -0.1423 0.71721   8
  -8   4   3 -0.5115 0.48146   2
   7  -4  -3 30.6462 2.56370   8
   7  -4  -3 32.6153 2.74419   2
   7  -4  -3 30.7818 2.69077   7
  -7   4   3 33.4449 2.66333   8
  -7   4   3 33.5872 2.89650   2
  -7   4   3 30.2878 3.06431   4
   6  -4  -3 47.3901 2.96206   3
   6  -4  -3 50.2849 3.15378   7
   6  -4  -3 39.6005 2.93829   2
   6  -4  -3 35.1354 3.64392   9
  -6   4   3 35.1499 3.20933   4
  -6   4   3 38.3039 3.04697   1
  -6   4   3 37.9699 2.92452   8
  -6   4   3 42.0138 3.14681   2
   5  -4  -3 25.6062 1.94378   3
   5  -4  -3 25.8791 2.13688   2
   5  -4  -3 26.9335 2.13541   7
  -5   4   3 23.8992 2.19687   2
  -5   4   3 22.8257 1.98556   8
  -5   4   3 28.2105 2.59480   9
  -5   4   3 22.3853 2.67846   4
  -5   4   3 24.9459 2.19597   1
   4  -4  -3 187.376 9.10552   7
   4  -4  -3 203.068 8.92582   3
   4  -4  -3 187.005 9.14481   2
  -4   4   3 185.041 9.57733   4
  -4   4   3 177.586 9.70626   9
  -4   4   3 183.095 8.63785   6
  -4   4   3 168.667 9.28393   1
  -4   4   3 176.156 9.06390   8
  -4   4   3 193.017 9.35146   2
   3  -4  -3 56.4977 3.37230   2
   3  -4  -3 61.0516 3.13674   3
   3  -4  -3 62.2173 3.39963   7
   3  -4  -3 65.2742 2.83683   5
  -3   4   3 50.8337 3.50375   1
  -3   4   3 57.3313 3.86313   9
  -3   4   3 52.8076 3.60499   4
  -3   4   3 57.3741 3.52261   2
  -3   4   3 58.1478 3.03917   6
  -3   4   3 53.6219 3.31613   8
   2  -4  -3 0.45981 0.09256   5
   2  -4  -3 0.22493 0.21643   7
   2  -4  -3 0.06013 0.21418   2
   2  -4  -3 0.21664 0.20355   3
  -2   4   3 0.14831 0.28119   2
  -2   4   3 0.32154 0.20686   6
  -2   4   3 0.07436 0.26412   9
  -2   4   3 0.36448 0.34163   8
  -2   4   3 0.46181 0.35769   1
  -2   4   3 -0.1371 0.21096   4
   1  -4  -3 721.510 31.9819   7
   1  -4  -3 732.309 31.6915   3
   1  -4  -3 732.916 32.0307   2
  -1   4   3 716.895 32.2335   1
  -1   4   3 699.017 32.4550   9
  -1   4   3 711.707 31.9798   8
  -1   4   3 687.565 32.2206   4
  -1   4   3 735.029 31.8165   6
   0  -4  -3 193.235 9.10018   7
   0  -4  -3 195.903 9.09695   2
   0  -4  -3 190.306 8.99223   8
   0  -4  -3 199.980 8.87696   3
   0   4   3 201.502 9.26820   4
   0   4   3 198.396 8.97378   6
   0   4   3 197.304 9.27493   1
   0   4   3 190.500 8.61448   5
   0   4   3 189.730 9.01984   8
   0   4   3 192.131 9.45370   9
  -1  -4  -3 982.699 43.7677   2
  -1  -4  -3 1000.09 43.8671   7
  -1  -4  -3 1002.37 43.6976   3
  -1  -4  -3 960.849 43.5980   8
   1   4   3 1012.35 43.9383   1
   1   4   3 1035.41 43.8522   4
   1   4   3 964.204 43.4721   5
   1   4   3 972.618 43.6368   8
   1   4   3 978.614 43.7037   6
  -2  -4  -3 56.9823 3.10803   7
  -2  -4  -3 53.0425 2.79377   5
  -2  -4  -3 55.3260 3.00477   3
  -2  -4  -3 56.2466 2.69628   8
  -2  -4  -3 52.5192 2.89758   2
   2   4   3 54.2496 3.24576   9
   2   4   3 58.7852 3.11575   1
   2   4   3 59.4214 2.96261   6
   2   4   3 58.8741 2.88128   4
   2   4   3 49.0883 2.75814   5
  -3  -4  -3 219.355 11.0303   3
  -3  -4  -3 234.458 11.1543   7
  -3  -4  -3 226.755 10.7899   5
  -3  -4  -3 233.933 10.8331   2
  -3  -4  -3 240.873 10.4229   8
   3   4   3 223.784 10.7691   5
   3   4   3 233.048 10.8619   6
   3   4   3 248.379 11.2193   9
   3   4   3 229.664 10.9467   1
   3   4   3 250.666 10.6136   4
  -4  -4  -3 31.8913 1.53166   8
  -4  -4  -3 28.7223 1.97224   5
  -4  -4  -3 28.1876 2.19538   3
  -4  -4  -3 32.9393 2.33063   7
  -4  -4  -3 28.8564 1.93311   2
   4   4   3 33.4205 2.04502   6
   4   4   3 31.0930 2.10856   1
   4   4   3 33.5451 1.62337   4
   4   4   3 31.1029 1.99165   5
   4   4   3 31.0029 2.28972   9
  -5  -4  -3 31.1901 2.13287   2
  -5  -4  -3 30.9702 2.47058   3
  -5  -4  -3 31.8991 2.51400   7
  -5  -4  -3 34.1240 2.21679   5
   5   4   3 33.7952 2.46906   9
   5   4   3 32.8181 2.17957   6
   5   4   3 34.7074 2.21386   5
   5   4   3 33.0669 2.24947   1
  -6  -4  -3 20.3960 1.67216   5
  -6  -4  -3 19.3804 1.61520   2
  -6  -4  -3 17.5682 2.16267   3
  -6  -4  -3 19.2089 2.29084   7
   6   4   3 17.2877 1.83834   9
   6   4   3 19.3335 1.67840   1
   6   4   3 17.3849 1.57330   5
   6   4   3 17.8947 1.62921   6
  -7  -4  -3 0.82276 0.62590   2
  -7  -4  -3 -0.3401 0.55316   3
  -7  -4  -3 0.57418 0.77315   7
  -7  -4  -3 0.10845 0.34006   5
   7   4   3 -0.1541 0.59497   6
   7   4   3 -0.3098 0.60262   1
   7   4   3 0.32015 0.39055   5
  -8  -4  -3 64.1355 4.66956   3
  -8  -4  -3 63.0975 4.74556   7
  -8  -4  -3 66.8591 4.19547   5
  -8  -4  -3 67.5394 4.19741   2
   8   4   3 68.6947 4.20547   6
   8   4   3 67.6037 4.21345   5
  -9  -4  -3 14.3607 2.50267   7
  -9  -4  -3 15.1886 2.42517   3
   9   4   3 19.6134 2.64888   3
   9   4   3 15.9258 2.07724   6
   9   4   3 15.0982 2.12987   5
 -10  -4  -3 0.70472 0.90291   7
  10   4   3 -2.5407 0.83527   6
   8  -5  -3 1.72488 0.97917   8
   8  -5  -3 0.19157 0.77179   7
   8  -5  -3 0.38543 0.66387   2
  -8   5   3 2.78326 1.33014   4
  -8   5   3 0.70644 0.78276   2
  -8   5   3 0.54735 0.83127   8
   7  -5  -3 0.54612 0.68091   2
   7  -5  -3 0.08068 0.50932   7
  -7   5   3 0.40322 0.76221   2
  -7   5   3 -0.1478 0.40718   8
  -7   5   3 2.21880 1.08343   4
   6  -5  -3 9.73764 1.59265   7
   6  -5  -3 8.91620 1.52983   2
  -6   5   3 10.0913 1.73145   2
  -6   5   3 8.01780 1.41750   8
  -6   5   3 11.2797 1.89777   4
   5  -5  -3 17.1238 1.97057   7
   5  -5  -3 20.3516 1.68727   3
   5  -5  -3 18.8426 2.12219   2
  -5   5   3 17.2814 2.18340   2
  -5   5   3 18.2906 2.22066   1
  -5   5   3 16.5487 2.32695   9
  -5   5   3 15.4937 1.87455   8
  -5   5   3 15.5040 2.26355   4
   4  -5  -3 200.281 8.74898   3
   4  -5  -3 179.164 8.99946   2
   4  -5  -3 183.799 9.00861   7
  -4   5   3 170.980 9.53508   9
  -4   5   3 166.316 9.30874   4
  -4   5   3 179.850 9.19247   2
  -4   5   3 186.078 9.00439   8
  -4   5   3 166.293 9.13713   1
   3  -5  -3 31.0059 2.11592   7
   3  -5  -3 27.5369 2.08758   2
   3  -5  -3 34.9502 1.93969   3
  -3   5   3 29.6083 2.08234   8
  -3   5   3 23.9407 2.35567   9
  -3   5   3 25.8233 2.19980   1
  -3   5   3 25.3606 2.15487   2
  -3   5   3 29.3337 1.70290   6
  -3   5   3 27.2707 2.33198   4
   2  -5  -3 2.28755 0.57297   2
   2  -5  -3 1.88446 0.54500   7
   2  -5  -3 1.99567 0.44069   3
  -2   5   3 1.57063 0.53753   8
  -2   5   3 0.86644 0.46439   1
  -2   5   3 1.00978 0.32813   6
  -2   5   3 1.19356 0.55667   9
  -2   5   3 1.38021 0.56842   4
   1  -5  -3 52.5650 2.58202   3
   1  -5  -3 48.6675 2.80418   2
   1  -5  -3 43.9124 2.74977   7
  -1   5   3 48.7862 3.15847   9
  -1   5   3 45.0404 2.70924   8
  -1   5   3 47.7183 2.93574   1
  -1   5   3 44.0358 2.90422   4
  -1   5   3 49.1375 2.55416   6
   0  -5  -3 88.3096 4.65961   7
   0  -5  -3 89.8802 4.49872   8
   0  -5  -3 91.9615 4.45699   3
   0  -5  -3 93.2474 4.63033   2
   0   5   3 92.1208 4.78174   4
   0   5   3 89.7461 4.44323   6
   0   5   3 88.2935 4.07606   5
   0   5   3 92.2235 4.53991   8
   0   5   3 90.9141 4.99316   9
   0   5   3 91.9141 4.80846   1
  -1  -5  -3 93.3864 4.62780   3
  -1  -5  -3 93.5743 4.78509   7
  -1  -5  -3 90.0663 4.33164   5
  -1  -5  -3 94.0703 4.48262   8
  -1  -5  -3 93.9350 4.66050   2
   1   5   3 87.3161 4.31535   5
   1   5   3 103.298 4.93376   1
   1   5   3 93.3377 4.58775   6
   1   5   3 88.9100 4.49200   8
   1   5   3 94.9923 4.74452   4
   1   5   3 91.1622 5.04558   9
  -2  -5  -3 60.0947 3.23340   2
  -2  -5  -3 58.5823 3.09219   5
  -2  -5  -3 59.7300 3.34476   3
  -2  -5  -3 62.4660 2.99237   8
  -2  -5  -3 59.1875 3.43082   7
   2   5   3 60.3967 3.44246   1
   2   5   3 63.0511 3.10699   5
   2   5   3 61.4712 3.64944   9
   2   5   3 59.9235 3.23943   6
   2   5   3 66.2415 3.27657   4
  -3  -5  -3 176.388 8.72466   5
  -3  -5  -3 196.724 8.32405   8
  -3  -5  -3 177.190 8.74869   2
  -3  -5  -3 181.532 9.04474   3
  -3  -5  -3 194.215 9.18034   7
   3   5   3 185.579 8.73557   5
   3   5   3 195.729 8.66546   4
   3   5   3 185.740 9.25604   9
   3   5   3 181.120 8.98076   1
   3   5   3 188.563 8.85339   6
  -4  -5  -3 8.56385 1.25035   3
  -4  -5  -3 8.94239 1.07056   5
  -4  -5  -3 8.09162 1.24799   7
  -4  -5  -3 9.78319 1.05553   2
   4   5   3 9.06710 1.05782   5
   4   5   3 6.26506 1.18037   9
   4   5   3 8.06621 1.05351   6
   4   5   3 9.42645 1.30991   1
   4   5   3 8.03763 0.70497   4
  -5  -5  -3 45.7136 3.24288   3
  -5  -5  -3 50.1408 2.98619   5
  -5  -5  -3 50.4763 2.90914   2
  -5  -5  -3 44.4495 3.27902   7
   5   5   3 46.7886 2.92482   5
   5   5   3 52.3626 3.16051   1
   5   5   3 51.6334 3.01144   6
   5   5   3 46.1464 3.30431   9
  -6  -5  -3 6.50235 1.04071   2
  -6  -5  -3 6.15355 1.32962   7
  -6  -5  -3 7.31557 1.36961   3
  -6  -5  -3 5.93976 1.02517   5
   6   5   3 4.68858 1.01238   6
   6   5   3 7.09072 1.25344   1
   6   5   3 6.30989 1.07573   5
   6   5   3 5.43488 1.36980   9
  -7  -5  -3 92.4214 6.02175   7
  -7  -5  -3 99.4298 5.39123   2
  -7  -5  -3 82.6385 5.81453   3
  -7  -5  -3 96.5224 5.47794   5
   7   5   3 104.855 5.55134   1
   7   5   3 105.680 5.53588   6
   7   5   3 97.2222 5.47934   5
   7   5   3 99.4319 5.83712   9
  -8  -5  -3 50.0111 3.99826   3
  -8  -5  -3 58.0105 3.70727   5
  -8  -5  -3 47.6712 4.06425   7
   8   5   3 51.8257 3.59362   5
   8   5   3 52.3264 3.61300   6
  -9  -5  -3 0.09811 0.94798   3
  -9  -5  -3 -0.0131 0.91638   7
   9   5   3 -0.2337 0.71908   5
   9   5   3 -0.5971 0.58138   6
   8  -6  -3 14.1121 2.10349   8
   8  -6  -3 12.5029 2.12866   7
   8  -6  -3 10.9854 2.01279   2
  -8   6   3 10.8546 2.04108   2
  -8   6   3 13.4056 2.34388   4
  -8   6   3 11.4218 1.90222   8
   7  -6  -3 13.0160 2.09356   7
   7  -6  -3 10.1365 1.79049   2
  -7   6   3 12.7200 1.89346   8
  -7   6   3 8.39209 1.79996   4
  -7   6   3 16.2876 2.38973   2
   6  -6  -3 45.0141 3.17196   7
   6  -6  -3 37.9544 2.95927   2
  -6   6   3 38.4379 3.14722   2
  -6   6   3 33.9060 2.87836   8
  -6   6   3 32.0101 3.17504   4
   5  -6  -3 27.6595 2.29540   2
   5  -6  -3 22.4191 2.12069   3
   5  -6  -3 25.1557 2.22086   7
  -5   6   3 19.6465 2.59089   4
  -5   6   3 25.0092 2.27604   1
  -5   6   3 24.8742 2.48588   9
  -5   6   3 23.0786 2.72208   2
  -5   6   3 21.4889 2.38245   8
   4  -6  -3 13.2460 1.67995   7
   4  -6  -3 10.0467 1.46137   2
   4  -6  -3 12.4900 1.38665   3
  -4   6   3 10.1543 1.60565   1
  -4   6   3 11.2389 1.84529   9
  -4   6   3 11.4884 1.77981   4
  -4   6   3 10.4795 1.62917   2
  -4   6   3 10.6850 1.48143   8
   3  -6  -3 0.06784 0.31017   2
   3  -6  -3 0.86848 0.41570   3
   3  -6  -3 0.04698 0.46649   7
  -3   6   3 1.38596 0.64320   9
  -3   6   3 0.63583 0.56240   1
  -3   6   3 1.35435 0.59017   2
  -3   6   3 0.46783 0.50321   4
  -3   6   3 0.82927 0.53280   8
   2  -6  -3 69.8528 3.92686   2
   2  -6  -3 69.9887 3.64900   3
   2  -6  -3 69.2419 3.93683   7
  -2   6   3 68.7890 4.16095   4
  -2   6   3 71.1631 3.88420   8
  -2   6   3 67.5909 3.47048   6
  -2   6   3 64.9707 4.02987   1
  -2   6   3 67.1016 4.29741   9
   1  -6  -3 -0.0607 0.23642   7
   1  -6  -3 0.00089 0.21622   3
   1  -6  -3 0.16338 0.32908   2
  -1   6   3 0.11671 0.22266   8
  -1   6   3 0.00673 0.17985   6
  -1   6   3 -0.4764 0.30415   4
  -1   6   3 -0.2198 0.28480   1
  -1   6   3 -0.3454 0.20120   9
   0  -6  -3 5.44257 0.86263   7
   0  -6  -3 4.40718 0.74472   2
   0  -6  -3 5.18087 0.73368   3
   0   6   3 4.53502 0.68977   8
   0   6   3 3.34376 0.85829   9
   0   6   3 4.11801 0.80089   4
   0   6   3 4.32028 0.32341   5
   0   6   3 3.73162 0.62586   6
   0   6   3 4.25869 0.92686   1
  -1  -6  -3 50.6277 3.09802   7
  -1  -6  -3 49.6793 2.76222   8
  -1  -6  -3 53.5318 2.64291   5
  -1  -6  -3 54.9823 2.98509   2
  -1  -6  -3 51.0970 2.96759   3
   1   6   3 54.0085 2.83181   8
   1   6   3 54.0403 2.91471   6
   1   6   3 54.2048 3.21411   1
   1   6   3 54.8713 3.11602   4
   1   6   3 53.1950 3.40720   9
   1   6   3 52.7736 2.62596   5
  -2  -6  -3 18.0153 1.55224   7
  -2  -6  -3 18.7485 1.35408   2
  -2  -6  -3 17.1113 1.09405   8
  -2  -6  -3 18.5224 1.45838   3
  -2  -6  -3 18.8496 1.23486   5
   2   6   3 16.4911 1.34893   4
   2   6   3 18.0674 1.39662   6
   2   6   3 18.3465 1.77004   9
   2   6   3 17.8411 1.59832   1
   2   6   3 16.5789 1.17083   5
  -3  -6  -3 8.63950 0.99692   5
  -3  -6  -3 10.2144 1.36950   7
  -3  -6  -3 8.31386 0.98890   2
  -3  -6  -3 8.00378 1.19707   3
   3   6   3 10.6232 1.50056   1
   3   6   3 10.6487 1.59900   9
   3   6   3 10.3491 0.92709   4
   3   6   3 8.34795 1.04833   6
   3   6   3 9.16726 1.02852   5
  -4  -6  -3 -0.1663 0.41097   7
  -4  -6  -3 0.02382 0.25260   2
  -4  -6  -3 0.66411 0.33113   5
  -4  -6  -3 -0.0294 0.28704   3
   4   6   3 -0.1201 0.19028   5
   4   6   3 0.06194 0.61579   9
   4   6   3 1.15995 0.66040   1
   4   6   3 0.31745 0.31282   4
   4   6   3 0.21301 0.33785   6
  -5  -6  -3 6.53954 1.25786   3
  -5  -6  -3 8.01318 1.12963   5
  -5  -6  -3 8.95030 1.47980   7
  -5  -6  -3 9.10491 1.13096   2
   5   6   3 7.73580 1.16149   6
   5   6   3 8.54281 1.61923   9
   5   6   3 7.90720 1.12756   5
   5   6   3 7.88803 1.42262   1
  -6  -6  -3 5.29815 1.20734   3
  -6  -6  -3 6.17605 1.02790   2
  -6  -6  -3 4.36185 1.17495   7
  -6  -6  -3 5.90515 1.05415   5
   6   6   3 4.27797 1.20146   1
   6   6   3 3.28987 1.29742   9
   6   6   3 5.11251 1.03467   6
   6   6   3 5.75967 1.03133   5
  -7  -6  -3 0.40663 0.57317   3
  -7  -6  -3 1.39033 0.62980   5
  -7  -6  -3 1.53330 0.98080   7
   7   6   3 0.67586 0.62654   6
   7   6   3 1.19645 0.59993   5
   7   6   3 1.01182 0.98946   1
   7   6   3 -2.6144 0.81488   9
  -8  -6  -3 0.08118 0.59212   7
  -8  -6  -3 0.33698 0.58145   5
  -8  -6  -3 0.87595 1.00917   3
   8   6   3 -1.2615 0.69337   6
   8   6   3 -0.3404 0.61017   5
  -9  -6  -3 1.23986 1.00055   7
  -9  -6  -3 0.07012 0.51792   5
  -9  -6  -3 -0.5251 0.58941   3
   9   6   3 -1.5835 0.86997   6
   9   6   3 0.07090 0.59356   5
   7  -7  -3 24.3233 2.82174   2
   7  -7  -3 17.4114 2.51019   7
  -7   7   3 20.5425 2.88966   2
  -7   7   3 19.6794 2.89029   4
  -7   7   3 17.7283 2.43302   8
   6  -7  -3 2.47818 0.94864   2
   6  -7  -3 2.11451 0.84055   7
  -6   7   3 2.09782 0.98903   8
  -6   7   3 2.18296 0.96780   4
  -6   7   3 4.01919 1.35298   2
   5  -7  -3 4.91560 1.14217   7
   5  -7  -3 4.55060 1.15312   2
  -5   7   3 2.35588 0.98153   2
  -5   7   3 4.57780 1.32325   4
  -5   7   3 3.02929 0.99522   8
  -5   7   3 5.43303 1.22962   1
   4  -7  -3 9.80460 1.53061   7
   4  -7  -3 8.12349 1.41451   2
   4  -7  -3 7.97510 1.19421   3
  -4   7   3 8.38513 1.47913   1
  -4   7   3 10.2884 1.48148   8
  -4   7   3 7.17003 1.48434   4
  -4   7   3 10.8385 1.81965   9
  -4   7   3 5.70939 1.37630   2
   3  -7  -3 107.307 5.65810   7
   3  -7  -3 98.4130 5.51296   2
   3  -7  -3 104.786 5.25168   3
  -3   7   3 107.010 5.53780   8
  -3   7   3 97.5288 5.96728   9
  -3   7   3 89.2487 5.57195   1
  -3   7   3 92.3885 5.76431   4
   2  -7  -3 26.5889 2.02486   2
   2  -7  -3 25.7022 1.81883   3
   2  -7  -3 23.5245 2.03745   7
  -2   7   3 22.2443 2.21557   9
  -2   7   3 24.8308 2.13624   1
  -2   7   3 29.3972 2.31021   4
  -2   7   3 28.6777 2.03824   8
   1  -7  -3 0.40404 0.32641   3
   1  -7  -3 0.53495 0.47868   7
   1  -7  -3 -0.2898 0.26947   2
  -1   7   3 -0.4373 0.29633   1
  -1   7   3 -0.4890 0.35828   4
  -1   7   3 -0.1182 0.30806   9
  -1   7   3 0.19958 0.35777   8
  -1   7   3 -0.1147 0.19932   6
   0  -7  -3 13.4826 1.44396   2
   0  -7  -3 14.7792 1.21493   3
   0  -7  -3 16.7758 1.43889   7
   0   7   3 13.9704 1.65214   1
   0   7   3 13.6159 1.17479   8
   0   7   3 13.6522 1.66038   4
   0   7   3 10.9585 1.06487   6
   0   7   3 11.9821 1.76381   9
  -1  -7  -3 1.28142 0.50797   7
  -1  -7  -3 1.29747 0.48669   3
  -1  -7  -3 1.67992 0.35544   5
  -1  -7  -3 1.45461 0.45115   2
  -1  -7  -3 2.17451 0.47319   8
   1   7   3 1.76484 0.46795   8
   1   7   3 1.88077 0.34970   5
   1   7   3 4.13832 0.76800   6
   1   7   3 1.17998 0.48783   4
   1   7   3 2.73646 0.78297   1
   1   7   3 1.80968 0.96898   9
  -2  -7  -3 2.81095 0.67759   3
  -2  -7  -3 2.11186 0.40595   8
  -2  -7  -3 2.51200 0.69596   7
  -2  -7  -3 3.28805 0.55265   5
  -2  -7  -3 2.82973 0.62804   2
   2   7   3 3.55020 0.56330   5
   2   7   3 2.87007 0.49767   8
   2   7   3 3.25095 1.06238   1
   2   7   3 1.26863 1.02635   9
   2   7   3 3.40934 0.69342   6
   2   7   3 2.01720 0.62119   4
  -3  -7  -3 0.05850 0.44738   3
  -3  -7  -3 -0.1507 0.31816   7
  -3  -7  -3 0.70333 0.32342   5
  -3  -7  -3 0.76471 0.39262   2
   3   7   3 1.30265 1.03448   9
   3   7   3 0.53393 0.65877   1
   3   7   3 0.58774 0.31604   5
   3   7   3 0.88479 0.45281   4
   3   7   3 0.55888 0.54023   6
  -4  -7  -3 66.6667 4.06317   7
  -4  -7  -3 62.9912 3.46773   2
  -4  -7  -3 60.8573 3.90675   3
  -4  -7  -3 62.5382 3.54899   5
   4   7   3 59.3805 4.19005   9
   4   7   3 63.6550 3.90733   1
   4   7   3 65.8213 3.69683   6
   4   7   3 57.4077 3.47008   5
  -5  -7  -3 43.8615 2.84870   5
  -5  -7  -3 42.6634 2.67213   2
  -5  -7  -3 41.0324 3.19826   3
  -5  -7  -3 42.7769 3.29472   7
   5   7   3 44.1025 2.83821   5
   5   7   3 41.3682 3.45689   9
   5   7   3 47.1968 2.94453   6
   5   7   3 45.2552 3.22293   1
  -6  -7  -3 8.67351 1.65577   3
  -6  -7  -3 12.3067 2.00025   7
  -6  -7  -3 10.7103 1.49869   5
   6   7   3 10.5770 1.49253   5
   6   7   3 10.4132 1.80448   1
   6   7   3 7.62034 1.82738   9
   6   7   3 11.6050 1.62592   6
  -7  -7  -3 6.15487 1.22949   5
  -7  -7  -3 6.08689 1.45676   7
  -7  -7  -3 4.74051 1.36403   3
   7   7   3 6.76469 1.44261   6
   7   7   3 5.16430 1.52393   1
   7   7   3 5.94090 1.14315   5
  -8  -7  -3 12.3255 2.23314   3
  -8  -7  -3 16.7477 2.61022   7
  -8  -7  -3 15.7864 2.03070   5
   8   7   3 15.7955 2.00032   5
   8   7   3 14.6008 2.04324   6
   8   7   3 12.2100 2.50232   1
  -9  -7  -3 0.55070 0.76831   5
  -9  -7  -3 0.62271 1.12695   3
  -9  -7  -3 -1.0355 0.92759   7
   9   7   3 -1.7107 0.96366   6
   9   7   3 0.08745 0.90831   5
   7  -8  -3 0.35873 0.97471   7
   7  -8  -3 0.09436 0.85010   2
  -7   8   3 1.53004 1.06002   2
  -7   8   3 1.09894 0.98000   4
  -7   8   3 -0.8241 0.70398   8
   6  -8  -3 3.53771 1.19397   2
   6  -8  -3 5.14484 1.23974   7
  -6   8   3 3.69216 1.27056   4
  -6   8   3 3.87460 1.21045   8
  -6   8   3 4.04976 1.35946   2
   5  -8  -3 3.64920 1.06138   7
   5  -8  -3 1.52590 0.76659   2
  -5   8   3 1.88507 1.05226   4
  -5   8   3 2.50079 0.99474   8
  -5   8   3 4.72162 1.23679   2
   4  -8  -3 0.44906 0.65280   7
   4  -8  -3 0.27410 0.46282   2
  -4   8   3 1.57576 0.63355   9
  -4   8   3 1.10906 0.61217   8
  -4   8   3 0.74844 0.51188   1
  -4   8   3 0.09993 0.49171   4
   3  -8  -3 16.6519 1.77079   3
   3  -8  -3 18.2421 2.16237   7
   3  -8  -3 18.4643 2.03953   2
  -3   8   3 18.1410 2.04361   8
  -3   8   3 19.7261 2.05147   9
  -3   8   3 18.7361 2.23376   1
  -3   8   3 14.6061 2.13432   4
   2  -8  -3 34.7288 2.59853   2
   2  -8  -3 37.9258 2.45207   3
   2  -8  -3 37.1869 2.74406   7
  -2   8   3 31.5307 2.71476   4
  -2   8   3 38.2230 2.55561   8
  -2   8   3 34.1683 2.69034   1
  -2   8   3 38.8016 3.00365   9
   1  -8  -3 0.16001 0.40029   3
   1  -8  -3 0.09341 0.34028   2
   1  -8  -3 0.91770 0.51405   7
  -1   8   3 0.08036 0.40527   8
  -1   8   3 1.29863 0.62013   4
  -1   8   3 0.82674 0.64733   9
  -1   8   3 0.17245 0.56224   1
   0  -8  -3 0.84869 0.48133   7
   0  -8  -3 0.92614 0.48556   2
   0  -8  -3 0.88483 0.49633   3
   0   8   3 0.20895 0.42820   6
   0   8   3 0.47034 0.68981   1
   0   8   3 -0.0978 0.75395   9
   0   8   3 0.29348 0.42480   4
   0   8   3 1.24482 0.49521   8
  -1  -8  -3 10.7648 1.09316   8
  -1  -8  -3 12.3647 1.37191   2
  -1  -8  -3 11.8891 1.52263   7
   1   8   3 9.59937 1.06687   8
   1   8   3 9.26408 1.35027   4
   1   8   3 10.4977 1.69708   9
   1   8   3 10.9323 1.23883   6
   1   8   3 9.32252 1.47593   1
  -2  -8  -3 7.88559 1.30724   7
  -2  -8  -3 9.32464 1.01005   5
  -2  -8  -3 8.29817 1.10751   2
  -2  -8  -3 10.2362 1.40529   3
   2   8   3 10.9734 1.58907   1
   2   8   3 12.3772 1.87018   9
   2   8   3 9.34576 0.98696   5
   2   8   3 9.87883 1.35464   4
   2   8   3 10.3542 1.29134   6
  -3  -8  -3 117.992 6.05437   2
  -3  -8  -3 116.812 6.59774   7
  -3  -8  -3 116.294 6.01328   5
  -3  -8  -3 110.856 6.45555   3
   3   8   3 118.892 5.99839   5
   3   8   3 119.488 6.18921   6
   3   8   3 129.226 6.67494   1
   3   8   3 128.812 7.07029   9
   3   8   3 129.752 6.28766   4
  -4  -8  -3 72.8629 3.92967   2
  -4  -8  -3 72.0120 4.02194   5
  -4  -8  -3 71.8333 4.48266   3
  -4  -8  -3 72.1614 4.54517   7
   4   8   3 69.0183 4.12850   6
   4   8   3 73.5363 4.01379   5
   4   8   3 73.2172 4.47967   1
   4   8   3 68.1523 4.82017   9
  -5  -8  -3 5.98785 1.33066   3
  -5  -8  -3 6.32753 1.08629   5
  -5  -8  -3 4.64838 1.18003   7
   5   8   3 6.09460 1.01802   5
   5   8   3 5.56998 1.51348   1
   5   8   3 6.28920 1.24581   6
   5   8   3 4.23691 1.63550   9
  -6  -8  -3 49.6767 3.98320   3
  -6  -8  -3 62.2231 4.27756   7
  -6  -8  -3 58.2438 3.64567   5
   6   8   3 59.9203 3.66639   5
   6   8   3 47.6065 3.74540   1
   6   8   3 58.3636 3.70005   6
  -7  -8  -3 21.9607 2.43035   5
  -7  -8  -3 20.2549 2.77254   7
  -7  -8  -3 19.3314 2.75907   3
   7   8   3 20.1934 2.33484   6
   7   8   3 21.6626 2.35440   5
   7   8   3 20.2365 2.72029   1
  -8  -8  -3 23.3662 3.18806   7
  -8  -8  -3 17.2121 2.19657   5
  -8  -8  -3 16.2168 2.59031   3
   8   8   3 15.9056 2.62641   1
   8   8   3 17.1498 2.46091   6
   8   8   3 20.8416 2.38666   5
   6  -9  -3 10.8817 1.92149   2
   6  -9  -3 15.7906 2.27641   7
  -6   9   3 11.1269 1.95181   8
  -6   9   3 12.6149 2.38319   4
   5  -9  -3 6.03044 1.39329   7
   5  -9  -3 7.40442 1.56039   2
  -5   9   3 9.34365 1.90598   4
  -5   9   3 6.86156 1.40869   8
   4  -9  -3 5.36335 1.19926   2
   4  -9  -3 4.46266 1.24515   7
  -4   9   3 5.06308 1.18316   1
  -4   9   3 4.30434 1.07173   8
  -4   9   3 4.30328 1.34195   4
   3  -9  -3 2.93643 0.94195   2
   3  -9  -3 2.56652 1.05171   7
  -3   9   3 5.33844 1.18826   9
  -3   9   3 3.73535 1.09651   4
  -3   9   3 2.44328 0.79956   8
  -3   9   3 4.39059 1.07494   1
   2  -9  -3 -0.1183 0.46334   2
   2  -9  -3 0.35880 0.46692   3
   2  -9  -3 0.24600 0.45863   7
  -2   9   3 0.71733 0.39312   9
  -2   9   3 -0.2926 0.29373   8
  -2   9   3 0.77117 0.48315   1
  -2   9   3 -0.1225 0.37986   4
   1  -9  -3 90.4994 5.10441   7
   1  -9  -3 84.5606 4.76410   3
   1  -9  -3 85.8897 4.86568   2
  -1   9   3 89.9749 4.76625   8
  -1   9   3 87.9733 5.20273   4
  -1   9   3 74.3161 4.93348   1
  -1   9   3 84.2385 5.35440   9
   0  -9  -3 1.98416 0.71189   7
   0  -9  -3 1.37626 0.62305   2
   0  -9  -3 1.55081 0.67813   3
   0   9   3 1.60408 0.67583   4
   0   9   3 1.95450 0.58296   8
   0   9   3 1.99726 0.96791   1
   0   9   3 2.38354 1.05035   9
  -1  -9  -3 62.4643 4.01947   7
  -1  -9  -3 69.5933 3.96329   3
  -1  -9  -3 59.5300 3.66125   2
   1   9   3 65.8567 4.00898   4
   1   9   3 60.5399 4.34675   9
   1   9   3 69.4300 4.27039   1
   1   9   3 62.1764 3.59255   6
  -2  -9  -3 21.8707 1.94825   3
  -2  -9  -3 21.1896 2.35874   7
  -2  -9  -3 20.8541 1.70758   2
   2   9   3 20.0387 2.67457   9
   2   9   3 22.3351 2.16472   1
   2   9   3 25.1785 2.01520   4
   2   9   3 22.0580 1.81614   6
  -3  -9  -3 10.6691 1.20365   5
  -3  -9  -3 8.64673 1.14680   2
  -3  -9  -3 9.80025 1.55870   7
  -3  -9  -3 13.2582 1.77927   3
   3   9   3 7.45229 1.05089   5
   3   9   3 12.2407 1.48094   4
   3   9   3 9.21384 1.29423   6
   3   9   3 9.66823 1.80824   1
   3   9   3 7.40224 1.86089   9
  -4  -9  -3 40.8402 3.10756   7
  -4  -9  -3 32.2054 2.80931   3
  -4  -9  -3 32.7567 2.37120   5
   4   9   3 33.4442 2.86529   1
   4   9   3 35.9666 2.63175   6
   4   9   3 36.2406 2.41716   5
  -5  -9  -3 21.6927 1.89707   5
  -5  -9  -3 18.7790 2.56155   7
  -5  -9  -3 20.1266 2.55351   3
   5   9   3 23.0370 2.13379   6
   5   9   3 22.6532 1.88903   5
   5   9   3 19.5105 2.47424   1
  -6  -9  -3 47.8672 3.77195   7
  -6  -9  -3 45.9835 3.13069   5
  -6  -9  -3 40.9887 3.54597   3
   6   9   3 39.0946 2.96304   5
   6   9   3 46.3446 3.22936   6
   6   9   3 38.3457 3.34318   1
  -7  -9  -3 -0.9259 0.55811   5
  -7  -9  -3 0.22406 0.72390   7
  -7  -9  -3 1.12390 1.10318   3
   7   9   3 0.62487 0.67657   5
   7   9   3 -0.8370 0.60208   6
  -8  -9  -3 3.15318 1.40531   7
  -8  -9  -3 2.44111 0.94152   5
  -8  -9  -3 5.19000 1.56422   3
   8   9   3 2.50045 0.91444   5
   8   9   3 2.01353 1.22718   6
   8   9   3 -1.4626 1.52412   1
   6 -10  -3 43.9439 4.77128   7
   5 -10  -3 4.70234 1.39544   2
   5 -10  -3 4.72380 1.31503   7
  -5  10   3 3.53384 1.04897   8
  -5  10   3 5.08075 1.57195   4
   4 -10  -3 26.1476 3.02500   7
   4 -10  -3 25.6123 2.83120   2
  -4  10   3 24.0905 3.27710   1
  -4  10   3 26.9389 3.22733   4
  -4  10   3 28.2566 2.86292   8
   3 -10  -3 20.7250 2.54661   7
   3 -10  -3 20.7080 2.35636   2
  -3  10   3 21.0072 2.49598   1
  -3  10   3 15.3299 2.37966   4
  -3  10   3 23.1259 2.42920   8
   2 -10  -3 0.81448 0.61235   3
   2 -10  -3 0.16473 0.40634   2
   2 -10  -3 -0.1107 0.64190   7
  -2  10   3 0.53812 0.60453   4
  -2  10   3 0.41346 0.53610   8
  -2  10   3 1.13387 0.59860   1
   1 -10  -3 2.66128 1.01460   7
   1 -10  -3 1.59658 0.63135   2
   1 -10  -3 2.76795 0.85159   3
  -1  10   3 3.41952 0.98308   9
  -1  10   3 1.43032 0.62447   8
  -1  10   3 2.59802 0.87669   1
  -1  10   3 1.03808 0.62903   4
   0 -10  -3 12.3311 1.74904   7
   0 -10  -3 9.86596 1.43664   2
   0 -10  -3 11.8626 1.62666   3
   0  10   3 10.9073 1.69957   4
   0  10   3 10.3130 1.93252   9
   0  10   3 10.1032 1.31345   8
   0  10   3 7.89411 1.53178   1
  -1 -10  -3 -0.8607 0.50161   7
  -1 -10  -3 0.08383 0.52530   3
  -1 -10  -3 0.35360 0.43234   2
   1  10   3 -0.4741 0.52693   1
   1  10   3 0.28374 0.57073   4
  -2 -10  -3 100.290 5.90429   3
  -2 -10  -3 110.561 6.17413   7
  -2 -10  -3 102.611 5.53607   2
   2  10   3 108.344 5.91621   4
   2  10   3 99.4169 6.15634   1
   2  10   3 103.493 5.56347   6
  -3 -10  -3 1.07806 0.72658   7
  -3 -10  -3 1.99769 0.90358   3
   3  10   3 2.13556 0.66933   4
   3  10   3 2.59024 1.33382   1
   3  10   3 1.01407 0.64400   6
  -4 -10  -3 28.9115 2.11051   5
  -4 -10  -3 25.3570 2.83306   3
  -4 -10  -3 27.4628 2.99324   7
   4  10   3 24.1619 2.03774   5
   4  10   3 23.9638 2.25987   6
   4  10   3 28.4202 2.69930   1
  -5 -10  -3 10.3778 1.91741   3
  -5 -10  -3 13.9360 2.17854   7
  -5 -10  -3 16.7803 1.86699   5
   5  10   3 13.2705 2.19106   1
   5  10   3 12.7991 1.66705   5
   5  10   3 13.9264 1.94602   6
  -6 -10  -3 11.9698 2.22034   7
  -6 -10  -3 12.2061 2.13872   3
  -6 -10  -3 13.7597 1.85890   5
   6  10   3 13.2740 1.78959   5
   6  10   3 16.1810 2.48093   1
   6  10   3 16.7618 2.14191   6
  -7 -10  -3 -0.2758 1.02308   7
  -7 -10  -3 1.87708 1.09987   3
  -7 -10  -3 -0.6704 0.67005   5
   7  10   3 1.22560 1.31506   1
   7  10   3 1.08587 0.82716   5
   7  10   3 -1.3922 0.95630   6
   5 -11  -3 0.30725 1.06478   7
   5 -11  -3 0.47763 0.74485   2
  -5  11   3 0.59191 0.68738   8
   4 -11  -3 0.89886 0.72472   2
   4 -11  -3 -0.9017 0.47413   7
  -4  11   3 -0.4221 0.72657   8
  -4  11   3 0.20136 0.69071   4
   3 -11  -3 22.7874 2.59712   2
   3 -11  -3 18.9345 2.54898   7
  -3  11   3 18.8346 2.70947   4
  -3  11   3 20.5989 2.53806   1
  -3  11   3 16.7281 2.16483   8
   2 -11  -3 1.71970 0.81001   2
   2 -11  -3 2.43780 0.96925   7
  -2  11   3 1.04877 0.74112   4
  -2  11   3 1.92577 0.82823   8
  -2  11   3 1.43497 0.63950   1
   1 -11  -3 0.85895 0.68521   2
   1 -11  -3 1.28485 0.73955   3
   1 -11  -3 1.49134 0.73282   7
  -1  11   3 1.92948 0.81419   4
  -1  11   3 0.82295 0.65637   8
  -1  11   3 2.56904 0.89997   1
   0 -11  -3 0.72567 0.63593   2
   0 -11  -3 1.91924 0.84828   7
   0 -11  -3 0.96311 0.73883   3
   0  11   3 2.31622 1.04669   1
   0  11   3 1.67406 0.81330   4
  -1 -11  -3 4.96133 1.18880   3
  -1 -11  -3 3.07599 0.96553   2
  -1 -11  -3 3.92250 1.09595   7
   1  11   3 8.26893 1.48642   4
   1  11   3 8.80669 1.82000   1
  -2 -11  -3 2.24976 1.01894   7
  -2 -11  -3 1.35692 0.77669   3
   2  11   3 1.16740 1.21261   1
   2  11   3 1.08703 0.69901   4
  -3 -11  -3 2.20633 0.99332   3
  -3 -11  -3 4.24269 1.26327   7
   3  11   3 1.17456 0.91573   6
   3  11   3 2.47517 1.52571   1
  -4 -11  -3 4.59773 1.33675   7
  -4 -11  -3 6.13714 1.45809   3
   4  11   3 5.71477 1.42268   6
   4  11   3 7.49814 1.77539   1
  -5 -11  -3 0.54440 0.71733   3
  -5 -11  -3 -0.9211 0.76365   7
   5  11   3 -1.4429 0.83694   6
   5  11   3 -0.5574 0.99938   1
  -6 -11  -3 9.81774 1.63974   5
  -6 -11  -3 8.99069 1.96462   7
  -6 -11  -3 11.9671 2.18693   3
   6  11   3 9.22723 1.73410   6
   6  11   3 9.68019 2.37717   1
   6  11   3 10.6330 1.60527   5
   4 -12  -3 0.88185 0.89760   2
  -4  12   3 -0.4317 0.50863   8
   3 -12  -3 5.24823 1.55029   7
   3 -12  -3 4.95439 1.23211   2
  -3  12   3 5.94198 1.58345   4
  -3  12   3 9.30809 1.62009   1
  -3  12   3 5.97432 1.32249   8
   2 -12  -3 43.6653 3.68184   7
   2 -12  -3 41.5385 3.25339   2
  -2  12   3 43.4652 3.50552   1
  -2  12   3 42.9212 3.70841   4
  -2  12   3 45.1367 3.29856   8
   1 -12  -3 43.7084 3.50208   7
   1 -12  -3 39.2625 3.10563   2
  -1  12   3 43.5875 3.62265   4
  -1  12   3 41.2361 3.40291   1
   0 -12  -3 10.2636 1.85141   7
   0 -12  -3 11.6584 1.84446   3
   0  12   3 10.0542 1.83685   1
   0  12   3 11.2213 1.93062   4
  -1 -12  -3 0.63147 0.64467   7
  -1 -12  -3 0.30123 0.61851   3
   1  12   3 1.69536 0.76350   4
   1  12   3 1.40726 1.09280   1
  -2 -12  -3 8.56634 1.61262   3
  -2 -12  -3 7.00025 1.59063   7
   2  12   3 9.03863 2.04483   1
   2  12   3 11.2432 1.83610   4
  -3 -12  -3 10.8052 2.07630   7
  -3 -12  -3 12.0463 2.02664   3
   3  12   3 9.78862 2.26640   1
  -4 -12  -3 11.9933 2.14240   3
  -4 -12  -3 15.0949 2.35927   7
   4  12   3 13.2231 2.38565   1
   4  12   3 13.6488 2.07118   6
  -5 -12  -3 2.65713 1.36817   7
  -5 -12  -3 1.16399 1.15323   3
   5  12   3 0.26408 1.27256   1
   5  12   3 0.04241 1.16890   6
   2 -13  -3 9.62868 2.22604   7
   2 -13  -3 8.34657 1.60661   2
  -2  13   3 8.32236 1.95791   4
  -2  13   3 10.4819 1.77015   1
   1 -13  -3 0.19231 0.82345   7
  -1  13   3 3.70582 1.03762   1
  -1  13   3 1.40287 0.78638   4
   0 -13  -3 1.24353 0.83584   7
   0  13   3 0.53170 0.88481   1
   0  13   3 0.94092 0.91268   4
  -1 -13  -3 4.82981 1.38871   7
  -1 -13  -3 3.40588 1.35157   3
   1  13   3 6.43694 1.45003   4
   1  13   3 3.88322 1.52758   1
  -2 -13  -3 0.29284 0.72310   7
  -2 -13  -3 -0.0204 0.87940   3
   2  13   3 2.60564 1.04707   4
   2  13   3 0.55169 1.34059   1
  -3 -13  -3 4.42327 1.37861   7
  -3 -13  -3 3.07636 1.29809   3
   3  13   3 1.46611 1.57129   1
  -4 -13  -3 21.4498 3.01804   3
   2  12  -4 65.6807 5.09305   1
   2  12  -4 62.5692 5.19221   4
  -2 -12   4 84.7590 6.54275   3
  -2 -12   4 72.8468 4.75339   5
   1  12  -4 -1.8128 1.51919   1
   1  12  -4 1.70384 1.59122   4
  -1 -12   4 0.00375 1.05549   3
   0  12  -4 -1.3701 0.77787   4
   0  12  -4 -3.4158 1.28275   1
   0 -12   4 0.87680 1.19670   3
  -1  12  -4 6.10368 1.67772   4
   1 -12   4 7.36852 1.81420   3
  -2  12  -4 19.6261 2.85362   4
   2 -12   4 21.7832 2.93581   3
   2 -12   4 14.0845 2.24570   7
  -3  12  -4 8.14268 1.83781   4
  -3  12  -4 6.60008 1.46768   8
   3 -12   4 4.62214 1.64089   3
   3 -12   4 7.73772 1.71816   7
  -4  12  -4 7.46612 1.61440   8
   4 -12   4 11.7560 2.10095   7
   4  11  -4 0.90479 0.60448   6
   4  11  -4 -2.4059 1.24752   4
  -4 -11   4 0.37771 0.72043   5
   3  11  -4 0.31755 1.13642   1
   3  11  -4 -2.0704 1.18073   4
   3  11  -4 1.53462 0.78273   6
  -3 -11   4 0.30764 0.77873   3
  -3 -11   4 1.98571 0.97120   5
   2  11  -4 -1.2114 0.77451   1
   2  11  -4 -1.0411 1.20383   4
  -2 -11   4 0.00377 0.60190   5
  -2 -11   4 -0.5040 0.58481   3
   1  11  -4 3.11488 1.57176   4
   1  11  -4 1.33797 1.38659   1
  -1 -11   4 6.99715 1.40067   5
  -1 -11   4 6.14603 1.68926   3
   0  11  -4 53.7987 4.33321   1
   0  11  -4 57.0609 4.43177   4
   0 -11   4 66.8847 4.71808   3
   0 -11   4 61.1865 3.99167   5
  -1  11  -4 47.7940 3.90085   4
  -1  11  -4 37.7164 3.41285   1
   1 -11   4 54.6978 3.61992   7
   1 -11   4 51.0885 3.93760   3
  -2  11  -4 11.9584 1.74635   8
  -2  11  -4 10.4185 2.14550   4
   2 -11   4 14.0050 2.26676   3
   2 -11   4 9.64570 1.78739   7
  -3  11  -4 31.5237 3.01511   4
  -3  11  -4 27.4732 2.44681   8
   3 -11   4 22.7653 2.99900   3
   3 -11   4 25.9843 2.96832   7
  -4  11  -4 26.2415 3.31103   4
  -4  11  -4 22.4819 2.63907   8
   4 -11   4 28.2981 3.36032   3
   4 -11   4 23.4337 2.84081   7
  -5  11  -4 1.39493 0.84475   4
  -5  11  -4 0.40263 0.66057   8
   5 -11   4 -0.5955 0.85447   7
   5 -11   4 0.18105 1.03071   3
   5  10  -4 8.49786 1.62098   6
  -5 -10   4 7.63091 1.90189   3
  -5 -10   4 8.06624 1.68730   5
   4  10  -4 22.6622 3.04861   1
   4  10  -4 23.2888 2.16437   6
   4  10  -4 19.5054 2.82065   4
  -4 -10   4 19.1935 2.44723   5
  -4 -10   4 19.3552 2.41189   6
  -4 -10   4 14.3813 2.63764   3
   3  10  -4 2.08322 1.15830   4
   3  10  -4 4.00783 1.09688   6
   3  10  -4 3.95842 1.57873   1
  -3 -10   4 4.67598 1.20559   6
  -3 -10   4 4.28403 1.17424   5
  -3 -10   4 3.63982 1.25780   3
   2  10  -4 0.68370 1.10622   1
   2  10  -4 0.66702 0.58201   6
   2  10  -4 -1.4309 0.68331   4
  -2 -10   4 1.30552 0.80141   5
  -2 -10   4 -0.7393 0.50249   6
  -2 -10   4 -0.3407 0.82756   3
   1  10  -4 17.0058 2.31643   1
   1  10  -4 15.8064 2.44774   4
  -1 -10   4 19.6736 2.17902   5
  -1 -10   4 13.3436 2.18852   3
   0  10  -4 0.95770 1.15636   4
   0  10  -4 0.68518 1.11329   1
   0 -10   4 3.66266 1.12059   3
   0 -10   4 1.72407 0.77959   5
   0 -10   4 2.26562 0.94328   7
  -1  10  -4 0.85686 0.93211   1
  -1  10  -4 1.42233 1.24825   4
  -1  10  -4 2.08925 0.76968   8
  -1  10  -4 -2.4390 1.00481   9
   1 -10   4 1.71006 0.75848   5
   1 -10   4 2.72995 0.85561   7
   1 -10   4 2.31994 0.94685   3
  -2  10  -4 4.89045 1.41292   4
  -2  10  -4 4.00309 0.95777   8
   2 -10   4 4.97861 1.42300   3
   2 -10   4 9.05171 1.55163   7
  -3  10  -4 33.2845 2.68324   8
  -3  10  -4 38.2553 3.34936   4
   3 -10   4 32.9554 2.88918   7
   3 -10   4 36.6661 3.19427   3
  -4  10  -4 0.31415 0.85910   4
  -4  10  -4 0.96771 0.63843   8
   4 -10   4 0.80062 0.78577   3
   4 -10   4 1.95082 0.98815   7
  -5  10  -4 14.6534 2.22288   2
  -5  10  -4 15.1905 2.08151   8
  -5  10  -4 9.91554 1.88990   4
   5 -10   4 16.2220 2.13038   2
   5 -10   4 18.3132 2.54132   7
   5 -10   4 16.8661 2.42761   3
  -6  10  -4 5.62319 1.48411   4
  -6  10  -4 4.00756 1.49996   2
  -6  10  -4 4.24864 1.17573   8
   6 -10   4 4.59051 1.42132   7
   6 -10   4 5.26316 1.45875   2
   6 -10   4 6.22486 1.64551   3
   5   9  -4 0.46523 0.87738   1
   5   9  -4 1.22173 0.83586   6
  -5  -9   4 0.81075 0.76770   3
  -5  -9   4 1.71071 1.01213   6
  -5  -9   4 2.66761 0.96578   5
   4   9  -4 128.735 7.09205   6
   4   9  -4 120.207 7.34060   4
   4   9  -4 136.908 7.62256   1
  -4  -9   4 120.661 7.08532   5
  -4  -9   4 124.728 7.07069   6
   3   9  -4 2.39797 0.87908   6
   3   9  -4 0.50054 1.03738   1
   3   9  -4 1.41902 1.22169   4
  -3  -9   4 1.42855 0.91729   3
  -3  -9   4 2.87681 0.92974   5
  -3  -9   4 1.94915 0.80410   6
   2   9  -4 1.11216 0.93631   1
   2   9  -4 1.48348 1.14965   4
   2   9  -4 1.09818 0.53960   6
  -2  -9   4 0.11776 0.39356   6
  -2  -9   4 -0.0989 0.60182   5
  -2  -9   4 1.15116 0.80602   3
   1   9  -4 16.0341 2.05747   1
   1   9  -4 16.0411 1.48003   6
   1   9  -4 10.8250 2.43913   9
   1   9  -4 9.49406 1.91955   4
  -1  -9   4 17.7665 2.29664   3
  -1  -9   4 15.2348 1.68070   6
  -1  -9   4 13.9966 1.82180   5
   0   9  -4 9.81229 1.96905   9
   0   9  -4 9.86878 1.64156   1
   0   9  -4 11.3760 1.97749   4
   0  -9   4 14.2818 1.65869   7
   0  -9   4 9.43002 1.45107   5
   0  -9   4 15.2402 2.07952   3
  -1   9  -4 0.76554 0.75744   1
  -1   9  -4 0.47657 0.44607   8
  -1   9  -4 -0.2972 0.90320   4
  -1   9  -4 -1.7190 0.87960   9
   1  -9   4 0.64831 0.48194   5
   1  -9   4 0.43479 0.59814   7
   1  -9   4 0.09936 0.63847   3
  -2   9  -4 0.06395 0.91327   1
  -2   9  -4 2.37176 0.70133   8
  -2   9  -4 1.99153 0.97589   4
   2  -9   4 2.38332 0.78290   5
   2  -9   4 3.33707 1.01839   3
   2  -9   4 3.81864 1.09363   7
  -3   9  -4 51.3790 3.44125   8
  -3   9  -4 56.2410 3.94818   4
   3  -9   4 57.4499 3.72054   7
   3  -9   4 49.2213 3.74752   3
   3  -9   4 51.0599 3.69941   5
  -4   9  -4 2.87812 0.83932   8
  -4   9  -4 6.02091 1.33269   2
  -4   9  -4 6.27279 1.51759   4
   4  -9   4 4.58872 1.09375   2
   4  -9   4 4.94504 1.18822   7
   4  -9   4 3.09034 1.09171   3
  -5   9  -4 0.44774 0.79033   2
  -5   9  -4 0.79866 0.80509   4
  -5   9  -4 1.43914 0.70539   8
   5  -9   4 -0.0260 0.56868   7
   5  -9   4 1.18211 0.77348   2
   5  -9   4 1.50496 0.83498   3
  -6   9  -4 45.7567 3.60268   8
  -6   9  -4 49.0337 3.80217   4
  -6   9  -4 46.5123 3.80370   2
   6  -9   4 50.7283 3.68305   2
   6  -9   4 49.5326 3.89862   3
   6  -9   4 53.3288 4.02861   7
  -7   9  -4 8.16324 1.84944   2
  -7   9  -4 10.4347 1.94239   8
  -7   9  -4 15.2281 2.27704   4
   7  -9   4 12.6345 2.16135   3
   7  -9   4 8.52490 1.65622   2
   7  -9   4 8.76090 1.94026   7
   6   8  -4 -0.2155 0.82961   1
   6   8  -4 2.39109 0.96135   6
  -6  -8   4 1.03490 0.76804   6
  -6  -8   4 2.52796 0.94698   5
  -6  -8   4 0.24432 0.79631   3
   5   8  -4 12.9770 2.12701   1
   5   8  -4 11.6044 1.90189   6
   5   8  -4 7.65746 1.79132   4
  -5  -8   4 10.8264 1.82071   5
  -5  -8   4 10.9991 2.07460   3
  -5  -8   4 11.4857 1.84922   6
   4   8  -4 61.8699 4.30231   1
   4   8  -4 60.4083 4.17645   4
   4   8  -4 62.4480 4.04869   6
  -4  -8   4 56.6515 4.26920   3
  -4  -8   4 57.7538 3.96639   6
  -4  -8   4 58.9708 4.03675   5
   3   8  -4 0.73140 0.82775   4
   3   8  -4 2.14426 0.83555   6
   3   8  -4 1.43619 0.76614   1
  -3  -8   4 0.70431 0.68623   3
  -3  -8   4 1.62199 0.72177   6
  -3  -8   4 1.78098 0.82712   5
   2   8  -4 7.70844 1.48417   4
   2   8  -4 8.52666 1.48969   1
   2   8  -4 9.68532 1.80356   9
   2   8  -4 7.52788 1.23899   6
  -2  -8   4 8.32336 1.31967   6
  -2  -8   4 8.87049 1.46477   5
  -2  -8   4 6.18432 1.38996   3
   1   8  -4 27.2365 2.40452   1
   1   8  -4 28.6547 2.62182   9
   1   8  -4 26.2094 2.03208   6
   1   8  -4 29.6439 2.54798   4
  -1  -8   4 29.1207 2.55836   3
  -1  -8   4 28.4209 2.09901   7
  -1  -8   4 31.9553 2.33419   5
  -1  -8   4 27.4076 2.05176   6
   0   8  -4 19.6257 2.17000   9
   0   8  -4 19.2575 1.93738   1
   0   8  -4 19.2154 2.29701   4
   0   8  -4 21.2334 1.56644   8
   0   8  -4 18.1472 1.54878   6
   0  -8   4 21.9044 1.60681   6
   0  -8   4 18.6655 1.64294   7
   0  -8   4 20.6411 2.34716   3
   0  -8   4 20.8814 1.82549   5
  -1   8  -4 42.9787 3.11208   1
  -1   8  -4 49.4148 2.88608   8
  -1   8  -4 42.2256 3.30449   4
  -1   8  -4 48.7848 3.50678   9
   1  -8   4 48.7822 3.38029   3
   1  -8   4 47.8876 3.05200   7
   1  -8   4 49.5107 3.10602   5
  -2   8  -4 0.55872 0.50081   8
  -2   8  -4 0.69922 0.73690   4
  -2   8  -4 -0.5030 0.79203   9
  -2   8  -4 0.30190 0.58476   1
   2  -8   4 0.74005 0.56357   3
   2  -8   4 1.34839 0.57923   5
   2  -8   4 -0.0683 0.45731   7
  -3   8  -4 24.4857 2.30825   4
  -3   8  -4 23.2449 1.97648   8
  -3   8  -4 22.0858 2.00729   2
   3  -8   4 22.3997 2.54535   3
   3  -8   4 23.2782 1.94817   5
   3  -8   4 25.9980 1.97557   2
   3  -8   4 23.5738 2.12332   7
  -4   8  -4 6.90839 1.48304   4
  -4   8  -4 2.71244 0.92767   8
  -4   8  -4 5.80539 1.26136   2
   4  -8   4 6.38562 1.09417   5
   4  -8   4 5.46969 1.20304   3
   4  -8   4 4.97528 1.22338   7
  -5   8  -4 30.3941 2.70512   2
  -5   8  -4 30.5650 2.55097   8
  -5   8  -4 31.9486 2.70806   4
   5  -8   4 31.3755 2.74212   7
   5  -8   4 28.6291 2.72878   3
  -6   8  -4 0.39294 0.79264   2
  -6   8  -4 -0.5002 0.62764   8
  -6   8  -4 1.83329 0.85669   4
   6  -8   4 0.61436 0.81041   3
   6  -8   4 0.05124 0.53764   7
  -7   8  -4 28.7011 2.99575   8
  -7   8  -4 27.7831 2.69291   4
  -7   8  -4 22.4024 2.97227   2
   7  -8   4 32.9656 3.47321   3
   7  -8   4 27.3093 3.15265   7
  -8   8  -4 6.55784 1.92981   8
  -8   8  -4 6.29092 1.80841   2
   8  -8   4 7.87986 2.00601   7
   8  -8   4 11.4845 2.20170   3
   7   7  -4 2.34300 1.17271   1
  -7  -7   4 1.15176 1.02043   3
   6   7  -4 0.88559 0.79027   1
   6   7  -4 1.71621 0.94791   6
  -6  -7   4 1.00495 0.82606   3
  -6  -7   4 1.40501 0.86629   5
  -6  -7   4 4.39256 1.18044   6
   5   7  -4 2.99334 1.28534   1
   5   7  -4 5.13931 1.40789   4
   5   7  -4 5.91367 1.29302   6
  -5  -7   4 3.08538 1.04935   6
  -5  -7   4 3.54920 1.19635   3
  -5  -7   4 3.90150 1.05576   5
   4   7  -4 1.15914 0.77972   4
   4   7  -4 0.40958 0.67654   6
   4   7  -4 2.30787 1.04574   1
  -4  -7   4 0.17096 0.74980   3
  -4  -7   4 2.01539 0.82369   6
  -4  -7   4 1.51508 0.67510   5
   3   7  -4 1.24007 0.61995   6
   3   7  -4 2.78388 0.99403   1
   3   7  -4 0.86770 0.85977   9
   3   7  -4 0.98431 0.69404   4
  -3  -7   4 0.11392 0.40428   6
  -3  -7   4 1.46916 0.75079   3
  -3  -7   4 0.47582 0.59137   5
   2   7  -4 27.6824 2.55027   9
   2   7  -4 27.4447 2.10481   6
   2   7  -4 27.5458 2.45981   4
   2   7  -4 31.4703 2.45768   1
  -2  -7   4 26.8774 2.09404   6
  -2  -7   4 22.7925 2.55348   3
  -2  -7   4 28.2695 2.22069   5
   1   7  -4 10.4512 1.29145   6
   1   7  -4 12.5913 1.78879   4
   1   7  -4 10.4495 1.52131   1
   1   7  -4 12.2350 1.08072   8
   1   7  -4 13.3640 1.87892   9
  -1  -7   4 12.1660 1.68184   3
  -1  -7   4 10.1297 1.27389   7
  -1  -7   4 13.8523 1.63211   5
  -1  -7   4 11.6494 1.35583   6
   0   7  -4 42.6899 2.83178   1
   0   7  -4 46.6909 3.20324   9
   0   7  -4 42.2232 3.03896   4
   0   7  -4 42.6255 2.48246   8
   0   7  -4 39.4372 2.52278   6
   0  -7   4 41.3505 2.78456   5
   0  -7   4 44.2595 3.02144   3
   0  -7   4 42.6004 2.60578   7
   0  -7   4 39.0314 2.52343   6
  -1   7  -4 27.6981 2.36349   4
  -1   7  -4 30.1738 2.34281   9
  -1   7  -4 26.8865 1.87136   8
  -1   7  -4 27.9803 2.15316   1
  -1   7  -4 24.4272 1.71764   6
   1  -7   4 26.6089 1.75986   6
   1  -7   4 29.8864 2.05616   7
   1  -7   4 28.2969 2.31564   3
   1  -7   4 31.7452 2.18121   5
  -2   7  -4 3.36234 0.75565   8
  -2   7  -4 5.18666 1.18430   4
  -2   7  -4 5.29611 0.91288   2
  -2   7  -4 5.89275 1.07396   1
  -2   7  -4 4.30767 1.11798   9
   2  -7   4 2.86023 0.82729   3
   2  -7   4 5.54270 0.97239   5
   2  -7   4 2.53129 0.74524   7
  -3   7  -4 14.2764 1.61990   8
  -3   7  -4 12.0719 1.73781   4
  -3   7  -4 11.6123 1.55156   2
   3  -7   4 15.2769 1.90284   3
   3  -7   4 12.3337 1.45355   5
   3  -7   4 16.3043 1.82393   7
  -4   7  -4 5.74448 1.19307   2
  -4   7  -4 5.65522 1.03929   8
  -4   7  -4 6.11830 1.35571   4
   4  -7   4 7.78898 1.41014   3
   4  -7   4 7.83362 1.35986   7
   4  -7   4 5.27980 0.98719   5
  -5   7  -4 131.128 7.13857   8
  -5   7  -4 135.842 7.39834   4
  -5   7  -4 133.890 7.40450   2
   5  -7   4 127.412 7.38039   3
   5  -7   4 136.243 7.44817   7
   5  -7   4 142.736 7.01242   5
  -6   7  -4 102.514 5.86921   4
  -6   7  -4 86.2332 5.55753   8
  -6   7  -4 100.040 6.00670   2
   6  -7   4 98.0908 5.93203   3
   6  -7   4 102.575 6.00264   7
  -7   7  -4 35.7051 3.08170   2
  -7   7  -4 28.1781 2.97486   8
  -7   7  -4 31.3113 2.77536   4
   7  -7   4 35.6243 3.17889   7
   7  -7   4 31.4033 2.89844   3
  -8   7  -4 14.3766 2.40761   2
  -8   7  -4 18.7219 2.41123   8
   8  -7   4 22.9083 2.80093   3
   8  -7   4 13.6345 2.33505   7
   7   6  -4 23.1191 2.84085   6
   7   6  -4 38.2055 3.22897   1
  -7  -6   4 26.8114 2.99977   5
  -7  -6   4 24.4923 3.18528   3
  -7  -6   4 28.2514 2.66030   6
   6   6  -4 -0.1067 0.56635   1
   6   6  -4 -0.2710 0.49740   6
  -6  -6   4 0.70780 0.64964   3
  -6  -6   4 0.54008 0.64126   6
  -6  -6   4 0.87982 0.83750   5
   5   6  -4 0.56938 0.69615   6
   5   6  -4 0.45911 0.61598   1
   5   6  -4 1.01685 0.81824   4
  -5  -6   4 0.92809 0.73141   5
  -5  -6   4 0.13890 0.56777   6
  -5  -6   4 0.62860 0.83460   3
   4   6  -4 2.76862 0.99302   4
   4   6  -4 4.80481 1.40165   9
   4   6  -4 2.64125 0.88428   1
   4   6  -4 1.36443 0.68843   6
  -4  -6   4 1.25787 0.63359   6
  -4  -6   4 2.52833 0.87779   5
  -4  -6   4 3.17673 1.00063   3
   3   6  -4 31.2666 2.49998   4
   3   6  -4 35.8853 2.99555   9
   3   6  -4 34.3952 2.60170   1
   3   6  -4 25.6698 2.22760   6
  -3  -6   4 30.8381 2.38592   5
  -3  -6   4 31.1569 2.58864   3
  -3  -6   4 33.0029 2.40964   6
   2   6  -4 23.4912 2.01248   1
   2   6  -4 25.3594 2.13599   4
   2   6  -4 19.2764 1.72406   6
   2   6  -4 22.0304 1.43771   8
   2   6  -4 22.2556 2.13318   9
  -2  -6   4 20.3560 1.88408   3
  -2  -6   4 20.9618 1.56982   7
  -2  -6   4 17.1551 1.91490   5
  -2  -6   4 18.9370 1.72905   6
   1   6  -4 4.14780 1.03773   4
   1   6  -4 4.48868 0.91474   1
   1   6  -4 3.92896 0.99817   9
   1   6  -4 4.12047 0.66668   8
  -1  -6   4 3.31539 0.63602   7
  -1  -6   4 2.92715 0.85317   3
  -1  -6   4 5.11085 0.85327   6
  -1  -6   4 4.40639 0.86302   5
   0   6  -4 2.09146 0.64449   1
   0   6  -4 1.63448 0.70149   9
   0   6  -4 0.85045 0.60058   4
   0   6  -4 0.30056 0.33614   8
   0  -6   4 0.15315 0.37058   3
   0  -6   4 -0.1886 0.17263   6
   0  -6   4 0.35686 0.30490   7
   0  -6   4 0.45895 0.43713   5
  -1   6  -4 20.2114 1.98571   4
  -1   6  -4 21.6809 1.81551   9
  -1   6  -4 22.7105 1.72630   1
  -1   6  -4 21.3591 1.46441   2
  -1   6  -4 20.7731 1.50758   8
   1  -6   4 19.2826 1.41848   6
   1  -6   4 21.1519 1.58148   7
   1  -6   4 21.3159 1.67655   5
   1  -6   4 24.0094 1.87974   3
  -2   6  -4 44.2219 2.51641   2
  -2   6  -4 37.5503 2.40340   1
  -2   6  -4 36.4992 2.70027   4
  -2   6  -4 39.6208 2.63098   9
  -2   6  -4 35.9177 2.35102   8
   2  -6   4 39.4247 2.52141   5
   2  -6   4 37.4811 2.65395   3
   2  -6   4 36.2520 2.45582   7
   2  -6   4 38.8514 2.11463   6
  -3   6  -4 15.4020 1.58712   8
  -3   6  -4 14.3255 1.41510   9
  -3   6  -4 13.7546 1.57353   2
  -3   6  -4 14.7157 1.87694   4
  -3   6  -4 13.7707 1.31368   1
   3  -6   4 15.6164 1.38402   5
   3  -6   4 16.5467 1.85020   3
   3  -6   4 13.4924 1.60664   7
  -4   6  -4 21.5728 1.82310   8
  -4   6  -4 27.5735 2.21237   4
  -4   6  -4 21.8441 1.94133   2
   4  -6   4 24.0022 2.04156   7
   4  -6   4 22.7127 2.08154   3
   4  -6   4 23.5565 1.82885   5
  -5   6  -4 183.043 9.28401   2
  -5   6  -4 178.493 9.12287   4
  -5   6  -4 171.997 8.94165   8
   5  -6   4 186.375 9.31241   3
   5  -6   4 175.951 8.80264   5
   5  -6   4 175.110 9.22190   7
  -6   6  -4 80.3220 5.17927   2
  -6   6  -4 90.1929 5.12821   4
  -6   6  -4 83.5851 4.96076   8
   6  -6   4 88.2520 5.30480   3
   6  -6   4 79.5859 5.16858   7
   6  -6   4 86.2999 4.79715   5
  -7   6  -4 54.2338 4.01936   2
  -7   6  -4 51.4123 3.67918   8
   7  -6   4 53.8348 4.01309   7
   7  -6   4 54.3892 3.92780   3
  -8   6  -4 17.0911 2.54680   2
  -8   6  -4 19.2350 2.38329   8
   8  -6   4 24.0252 3.01702   7
   8  -6   4 20.7102 2.72295   3
  -9   6  -4 -0.5305 0.70883   2
  -9   6  -4 0.21353 0.87629   8
   9  -6   4 0.25608 1.09509   3
   9  -6   4 0.83306 1.12374   7
   7   5  -4 1.81690 1.19042   1
   7   5  -4 4.07476 1.15248   6
  -7  -5   4 2.22838 0.90168   6
  -7  -5   4 2.51919 1.01077   5
  -7  -5   4 2.73016 1.06857   3
   6   5  -4 28.0711 2.48344   6
   6   5  -4 28.8443 2.52423   4
   6   5  -4 29.2808 2.74421   1
  -6  -5   4 24.8654 2.93317   3
  -6  -5   4 23.7362 2.62769   5
  -6  -5   4 26.5861 2.40801   6
   5   5  -4 37.2222 2.77507   4
   5   5  -4 33.5857 2.63901   6
   5   5  -4 36.4971 2.93949   1
  -5  -5   4 29.8720 2.76002   3
  -5  -5   4 32.1353 2.62763   5
  -5  -5   4 28.2278 2.47938   6
   4   5  -4 61.3388 4.26030   9
   4   5  -4 61.3425 3.83803   4
   4   5  -4 56.0815 3.80364   1
   4   5  -4 52.0990 3.56505   6
  -4  -5   4 56.3769 3.62817   6
  -4  -5   4 55.6163 3.60375   5
  -4  -5   4 57.7055 3.84899   3
   3   5  -4 312.242 14.0063   4
   3   5  -4 314.701 14.5181   9
   3   5  -4 299.563 14.0022   1
   3   5  -4 269.564 13.6706   6
  -3  -5   4 278.567 13.7327   5
  -3  -5   4 271.219 13.6375   7
  -3  -5   4 284.401 13.9178   3
  -3  -5   4 279.295 13.7099   6
   2   5  -4 3.07100 0.85119   1
   2   5  -4 4.00221 0.89055   4
   2   5  -4 3.59001 0.59197   8
   2   5  -4 3.06609 0.85294   9
  -2  -5   4 5.09309 1.02984   3
  -2  -5   4 3.75752 0.77349   6
  -2  -5   4 3.73400 0.64725   7
  -2  -5   4 2.00798 0.66908   5
   1   5  -4 -0.0192 0.40614   1
   1   5  -4 0.03529 0.34969   4
   1   5  -4 0.17129 0.26408   8
   1   5  -4 0.30749 0.33725   9
  -1  -5   4 0.10425 0.23052   7
  -1  -5   4 -0.2939 0.28829   3
  -1  -5   4 0.39010 0.34215   6
  -1  -5   4 0.22450 0.30722   5
   0   5  -4 67.3419 3.86606   9
   0   5  -4 62.1275 3.33039   8
   0   5  -4 70.1141 3.67724   1
   0   5  -4 65.6573 3.09746   2
   0   5  -4 64.6490 3.77279   4
   0  -5   4 60.0163 3.58143   5
   0  -5   4 62.5761 3.46234   6
   0  -5   4 65.5297 3.72672   3
   0  -5   4 61.1648 3.31393   7
  -1   5  -4 26.2260 1.73984   8
  -1   5  -4 26.3323 1.66250   2
  -1   5  -4 26.2570 2.03714   4
  -1   5  -4 27.3608 1.82743   1
  -1   5  -4 29.7561 2.04755   9
   1  -5   4 26.1672 1.95593   3
   1  -5   4 28.1065 1.76728   7
   1  -5   4 27.2413 1.91144   5
   1  -5   4 26.6016 1.69336   6
  -2   5  -4 -0.2277 0.17864   8
  -2   5  -4 0.07400 0.43075   9
  -2   5  -4 0.35146 0.38111   1
  -2   5  -4 0.70564 0.37909   2
  -2   5  -4 2.04924 0.77612   4
   2  -5   4 0.16577 0.23835   6
   2  -5   4 0.04212 0.23367   5
   2  -5   4 -0.0487 0.17743   7
   2  -5   4 0.31001 0.32072   3
  -3   5  -4 132.472 6.81097   4
  -3   5  -4 127.508 6.27989   1
  -3   5  -4 129.939 6.43577   9
  -3   5  -4 132.608 6.59275   8
  -3   5  -4 135.971 6.72820   2
   3  -5   4 136.031 6.19073   6
   3  -5   4 144.455 6.92238   3
   3  -5   4 142.621 6.77023   7
   3  -5   4 115.649 6.38322   9
   3  -5   4 135.420 6.62303   5
  -4   5  -4 3.34865 0.79140   8
  -4   5  -4 1.64611 0.66799   4
  -4   5  -4 2.42957 0.71000   2
   4  -5   4 2.92698 0.73939   7
   4  -5   4 3.08275 0.68284   5
   4  -5   4 1.50309 0.58826   3
  -5   5  -4 1.84934 0.77958   2
  -5   5  -4 2.89091 0.79760   8
  -5   5  -4 1.96474 0.70348   4
  -5   5  -4 2.84033 1.03843   7
   5  -5   4 4.05797 0.86047   5
   5  -5   4 3.20713 0.86622   3
   5  -5   4 1.61705 0.70222   7
  -6   5  -4 1.25939 0.71096   2
  -6   5  -4 0.19919 0.47727   4
  -6   5  -4 1.69247 0.76844   7
  -6   5  -4 1.09813 0.54445   8
   6  -5   4 0.59049 0.57309   7
   6  -5   4 0.12901 0.57342   5
   6  -5   4 0.71302 0.65294   3
  -7   5  -4 2.84371 1.02398   2
  -7   5  -4 3.46894 1.13222   7
  -7   5  -4 2.90544 0.92850   8
   7  -5   4 4.42796 1.04122   5
   7  -5   4 4.49260 1.15599   7
   7  -5   4 3.17058 1.13040   3
  -8   5  -4 31.0152 2.78286   8
  -8   5  -4 34.1838 3.11811   2
  -8   5  -4 41.8644 3.64025   7
   8  -5   4 40.3496 3.25259   3
   8  -5   4 36.7021 3.19654   7
   8  -5   4 33.5159 4.13755   5
  -9   5  -4 0.48073 0.78616   2
  -9   5  -4 -0.0746 0.72879   8
  -9   5  -4 1.66770 1.32505   7
   9  -5   4 0.51732 0.75961   7
   9  -5   4 0.24710 0.69795   3
   8   4  -4 0.30166 0.83193   6
   8   4  -4 0.42467 1.02123   1
   8   4  -4 1.27999 0.72840   5
  -8  -4   4 1.38375 0.78504   5
  -8  -4   4 -0.6352 0.77580   3
  -8  -4   4 1.88930 0.86755   6
   7   4  -4 2.28594 1.17285   1
   7   4  -4 3.96889 1.10234   6
  -7  -4   4 1.93723 0.82137   5
  -7  -4   4 1.79081 1.05004   3
  -7  -4   4 2.79762 0.95828   6
   6   4  -4 5.96811 1.31792   1
   6   4  -4 5.52621 1.27443   4
   6   4  -4 7.62406 1.44681   6
  -6  -4   4 6.38576 1.41597   3
  -6  -4   4 5.55038 1.20348   6
  -6  -4   4 3.64754 0.98063   5
   5   4  -4 58.6801 3.92685   6
   5   4  -4 70.1089 4.22636   4
   5   4  -4 63.3668 4.18444   1
   5   4  -4 73.4251 4.77197   9
  -5  -4   4 61.5805 3.96381   6
  -5  -4   4 55.9611 3.80731   5
  -5  -4   4 55.4728 4.03263   3
   4   4  -4 123.660 6.66798   6
   4   4  -4 132.986 6.97121   1
   4   4  -4 128.425 7.32995   9
   4   4  -4 137.560 6.96502   4
  -4  -4   4 126.949 6.66679   5
  -4  -4   4 117.061 6.60880   6
  -4  -4   4 118.360 6.75894   3
   3   4  -4 105.375 5.74608   9
   3   4  -4 94.9255 5.23585   1
   3   4  -4 93.4934 5.20404   4
   3   4  -4 96.1998 4.57684   8
  -3  -4   4 84.6910 5.03684   3
  -3  -4   4 81.1608 4.62437   7
  -3  -4   4 89.8434 5.00813   5
  -3  -4   4 92.7176 5.02831   6
   2   4  -4 15.6749 1.51578   4
   2   4  -4 18.7744 1.85711   9
   2   4  -4 21.2283 1.28147   8
   2   4  -4 18.4384 1.61172   1
  -2  -4   4 15.3158 1.45234   6
  -2  -4   4 18.4184 1.57122   3
  -2  -4   4 16.8408 1.22537   7
  -2  -4   4 17.6948 1.49117   5
   1   4  -4 0.50457 0.51631   9
   1   4  -4 1.91250 0.39054   8
   1   4  -4 1.24787 0.53873   4
   1   4  -4 1.50488 0.54587   1
  -1  -4   4 1.32223 0.31681   7
  -1  -4   4 1.47522 0.46920   6
  -1  -4   4 1.76895 0.56230   3
  -1  -4   4 1.36931 0.46005   5
   0   4  -4 72.4971 3.97188   9
   0   4  -4 70.3922 3.51162   8
   0   4  -4 72.0989 3.88438   4
   0   4  -4 74.6719 3.28546   2
   0   4  -4 71.8262 3.74420   1
   0  -4   4 59.1900 3.34480   7
   0  -4   4 67.6397 3.76282   3
   0  -4   4 66.3050 3.72510   5
   0  -4   4 65.1022 3.60589   6
  -1   4  -4 389.520 18.0249   8
  -1   4  -4 414.272 18.1150   1
  -1   4  -4 393.682 18.3447   4
  -1   4  -4 402.115 18.3025   9
  -1   4  -4 410.003 17.9590   2
   1  -4   4 393.249 18.0290   6
   1  -4   4 396.169 18.2322   5
   1  -4   4 400.260 18.2974   3
   1  -4   4 400.536 17.9909   7
  -2   4  -4 83.1256 3.93375   1
  -2   4  -4 75.8721 4.03286   8
  -2   4  -4 77.3552 4.25082   4
  -2   4  -4 80.6996 4.07117   9
  -2   4  -4 86.6880 4.11713   2
   2  -4   4 83.8048 4.28695   3
   2  -4   4 85.7121 4.12260   7
   2  -4   4 79.1218 3.88786   6
   2  -4   4 66.0229 3.99454   9
   2  -4   4 70.6258 4.06535   5
  -3   4  -4 86.9974 4.52429   9
  -3   4  -4 93.3458 4.49067   9
  -3   4  -4 92.2355 4.87632   4
  -3   4  -4 96.3920 4.84881   2
  -3   4  -4 100.160 4.76065   8
  -3   4  -4 92.3716 4.37581   1
  -3   4  -4 95.9809 5.01645   7
   3  -4   4 97.7748 4.85851   7
   3  -4   4 92.9731 4.91106   3
   3  -4   4 91.9241 4.73769   5
   3  -4   4 78.7835 4.43593   9
   3  -4   4 89.3129 4.37429   6
  -4   4  -4 3.10762 0.65616   8
  -4   4  -4 3.38225 0.78758   2
  -4   4  -4 4.77508 0.98787   7
  -4   4  -4 3.03863 0.79607   4
   4  -4   4 2.94871 0.70421   7
   4  -4   4 3.65227 0.72980   5
   4  -4   4 3.26809 0.82168   3
  -5   4  -4 20.9149 1.70713   4
  -5   4  -4 19.3452 1.62820   8
  -5   4  -4 15.2968 1.88258   2
  -5   4  -4 23.8140 2.16558   7
   5  -4   4 20.8459 1.63779   5
   5  -4   4 20.9849 1.84250   3
   5  -4   4 19.4925 2.11373   7
  -6   4  -4 1.24505 0.58023   4
  -6   4  -4 0.61906 0.60074   7
  -6   4  -4 1.01075 0.56072   8
  -6   4  -4 0.21390 0.47937   2
   6  -4   4 1.51911 0.63944   5
   6  -4   4 0.29424 0.52187   7
   6  -4   4 2.01059 0.78267   3
  -7   4  -4 6.40318 1.49591   7
  -7   4  -4 3.01635 1.02366   2
  -7   4  -4 4.53177 1.03728   8
   7  -4   4 5.42222 1.14407   5
   7  -4   4 4.86754 1.18864   7
   7  -4   4 6.02031 1.35600   3
  -8   4  -4 0.10450 0.52247   2
  -8   4  -4 -0.0464 0.38709   8
  -8   4  -4 0.66949 0.76894   7
   8  -4   4 -0.0814 0.69274   5
   8  -4   4 1.07824 0.73932   3
   8  -4   4 0.70809 0.72006   7
  -9   4  -4 9.55330 2.09466   7
  -9   4  -4 12.8090 2.29426   2
  -9   4  -4 10.0648 1.64572   8
   9  -4   4 10.1848 2.02702   3
   9  -4   4 9.06221 1.92430   7
   9  -4   4 11.7811 2.08711   5
   8   3  -4 39.8692 3.36392   1
   8   3  -4 30.2615 2.88169   6
   8   3  -4 37.8824 3.03944   5
  -8  -3   4 33.0547 2.90374   6
  -8  -3   4 36.9239 2.98967   5
  -8  -3   4 28.2964 3.38834   3
   7   3  -4 0.43639 0.58272   6
   7   3  -4 0.36071 0.80161   1
  -7  -3   4 1.19589 0.67106   5
  -7  -3   4 0.71529 0.85398   3
  -7  -3   4 0.95823 0.61985   6
   6   3  -4 29.3460 2.55368   4
   6   3  -4 25.8468 2.42178   1
   6   3  -4 24.9194 2.27807   6
  -6  -3   4 19.7343 2.55302   3
  -6  -3   4 24.9482 2.27586   6
  -6  -3   4 28.1062 2.29029   5
   5   3  -4 2.58545 1.01787   9
   5   3  -4 3.55642 0.86475   6
   5   3  -4 1.33988 0.76424   4
   5   3  -4 3.94968 1.12698   1
  -5  -3   4 2.18819 0.91024   1
  -5  -3   4 1.35576 0.68074   5
  -5  -3   4 1.20313 0.74619   3
  -5  -3   4 2.84530 0.77839   6
   4   3  -4 2.17918 0.88571   9
   4   3  -4 2.24784 0.75801   1
   4   3  -4 1.92032 0.54386   8
   4   3  -4 1.39632 0.71925   4
  -4  -3   4 0.26054 0.49209   3
  -4  -3   4 2.80642 0.87653   1
  -4  -3   4 1.42621 0.62604   6
  -4  -3   4 1.33665 0.48298   7
  -4  -3   4 3.93486 0.85030   5
   3   3  -4 36.5303 2.84838   9
   3   3  -4 30.9879 2.04706   8
   3   3  -4 35.3698 2.54711   4
   3   3  -4 37.3166 2.62717   1
  -3  -3   4 36.1471 2.41599   6
  -3  -3   4 35.8694 2.40351   5
  -3  -3   4 41.5150 2.77362   1
  -3  -3   4 33.5867 2.40844   3
  -3  -3   4 35.2778 2.11728   7
   2   3  -4 18.3162 1.60062   1
   2   3  -4 18.9778 1.65042   4
   2   3  -4 18.1751 1.82014   9
   2   3  -4 19.3722 1.29741   8
  -2  -3   4 20.2137 1.68593   1
  -2  -3   4 16.4244 1.45935   5
  -2  -3   4 19.6107 1.51996   6
  -2  -3   4 18.0026 1.20334   7
  -2  -3   4 22.4156 1.58639   3
   1   3  -4 7.30246 1.13467   9
   1   3  -4 7.56322 0.41708   2
   1   3  -4 7.95333 1.07015   4
   1   3  -4 7.71663 0.79055   8
   1   3  -4 5.49590 0.89024   1
  -1  -3   4 7.90347 0.99821   5
  -1  -3   4 6.95087 0.55781   7
  -1  -3   4 5.32009 0.84680   6
  -1  -3   4 6.94728 0.92987   3
  -1  -3   4 7.99304 1.10353   1
   0   3  -4 0.83957 0.20653   2
   0   3  -4 0.98725 0.39379   4
   0   3  -4 0.77233 0.29673   8
   0   3  -4 0.72332 0.31829   1
   0   3  -4 0.72868 0.34857   9
   0  -3   4 1.15038 0.34756   3
   0  -3   4 0.55017 0.31909   6
   0  -3   4 0.57645 0.31624   5
   0  -3   4 1.09299 0.38455   1
   0  -3   4 0.63844 0.18249   7
  -1   3  -4 2.84291 0.62980   4
  -1   3  -4 2.21094 0.43632   1
  -1   3  -4 2.15695 0.50156   9
  -1   3  -4 3.51696 0.53921   8
  -1   3  -4 3.43656 0.47899   2
   1  -3   4 2.20559 0.53867   9
   1  -3   4 3.53979 0.47509   7
   1  -3   4 2.69719 0.48610   6
   1  -3   4 2.80909 0.53431   5
   1  -3   4 3.24171 0.57380   3
  -2   3  -4 67.1676 3.35240   2
  -2   3  -4 63.8068 3.47349   4
  -2   3  -4 69.7421 3.30233   9
  -2   3  -4 67.0121 3.46244   7
  -2   3  -4 57.1578 3.31062   9
  -2   3  -4 70.0987 3.17942   1
  -2   3  -4 58.7631 3.27423   8
   2  -3   4 62.1191 3.22263   6
   2  -3   4 61.9258 3.30596   7
   2  -3   4 56.4029 3.26707   9
   2  -3   4 65.5893 3.46615   3
   2  -3   4 63.5901 3.40046   5
  -3   3  -4 16.7734 1.27413   2
  -3   3  -4 15.8344 1.35004   7
  -3   3  -4 14.4589 1.27579   4
  -3   3  -4 14.6014 0.96004   9
  -3   3  -4 13.7858 0.97005   9
  -3   3  -4 15.7958 1.18797   8
  -3   3  -4 15.6849 0.90511   1
   3  -3   4 15.7384 1.03862   6
   3  -3   4 14.7807 1.23863   7
   3  -3   4 15.2973 1.23408   5
   3  -3   4 13.1420 0.93969   9
   3  -3   4 16.8312 1.35879   3
  -4   3  -4 83.6360 4.48523   8
  -4   3  -4 85.0019 4.51062   4
  -4   3  -4 88.0906 4.91284   7
  -4   3  -4 88.1274 4.70372   2
   4  -3   4 87.5955 4.73823   7
   4  -3   4 85.0795 4.20896   6
   4  -3   4 87.8175 4.54806   5
   4  -3   4 90.2576 4.76277   3
  -5   3  -4 52.6067 3.72299   7
  -5   3  -4 57.7401 3.33723   4
  -5   3  -4 53.1535 3.31934   8
  -5   3  -4 54.2434 3.54779   2
   5  -3   4 59.9436 3.67327   7
   5  -3   4 66.3998 3.21066   6
   5  -3   4 62.8937 3.72613   3
   5  -3   4 62.3905 3.44354   5
  -6   3  -4 21.1534 1.81912   8
  -6   3  -4 23.9638 2.65840   7
  -6   3  -4 24.5052 2.13957   2
  -6   3  -4 25.2567 1.85933   4
   6  -3   4 23.2925 2.08264   3
   6  -3   4 19.8700 2.33994   7
   6  -3   4 25.0284 1.94615   5
  -7   3  -4 3.87095 1.02816   2
  -7   3  -4 3.44315 1.13632   7
  -7   3  -4 4.55584 0.94471   8
   7  -3   4 2.82756 0.93302   7
   7  -3   4 2.38073 0.99246   3
   7  -3   4 4.45718 1.01019   5
  -8   3  -4 32.2194 3.63359   7
  -8   3  -4 28.9707 2.39352   8
  -8   3  -4 29.1593 3.17955   2
   8  -3   4 33.8322 2.53744   5
   8  -3   4 31.3231 3.27908   3
   8  -3   4 33.4789 2.98282   7
  -9   3  -4 16.5627 2.97887   7
  -9   3  -4 36.7134 3.13952   2
  -9   3  -4 31.3274 2.53923   8
   9  -3   4 32.4378 3.54451   7
   9  -3   4 30.0792 3.32352   3
   9  -3   4 32.6797 2.61280   5
 -10   3  -4 8.48390 1.94049   2
  10  -3   4 14.8329 2.83997   3
   8   2  -4 2.24084 0.83378   6
   8   2  -4 0.96854 1.02931   1
   8   2  -4 2.50357 0.96331   5
   8   2  -4 0.79586 0.80121   3
  -8  -2   4 1.06213 0.80178   5
  -8  -2   4 0.80892 0.58739   6
   7   2  -4 33.0124 2.65265   6
   7   2  -4 30.3111 2.73255   1
  -7  -2   4 31.2797 2.53469   5
  -7  -2   4 21.5453 2.71038   3
  -7  -2   4 35.2377 2.98031   1
  -7  -2   4 29.6735 2.54124   6
   6   2  -4 1.62593 0.78383   6
   6   2  -4 2.90356 1.11836   9
   6   2  -4 0.99673 0.78812   1
   6   2  -4 1.24102 0.83483   4
  -6  -2   4 1.38717 0.70132   3
  -6  -2   4 1.23257 0.69063   5
  -6  -2   4 1.40046 0.76355   1
  -6  -2   4 1.24866 0.70894   6
   5   2  -4 58.3367 3.58541   6
   5   2  -4 57.9700 3.32015   8
   5   2  -4 55.1449 3.80499   1
   5   2  -4 67.0779 4.42545   9
   5   2  -4 55.1343 3.83164   4
  -5  -2   4 52.9413 3.64844   3
  -5  -2   4 49.9855 3.44992   6
  -5  -2   4 58.7488 3.93116   1
  -5  -2   4 57.5148 3.49415   5
   4   2  -4 68.1327 4.33971   4
   4   2  -4 76.2168 3.88270   8
   4   2  -4 71.8530 4.33784   1
   4   2  -4 72.3739 4.69650   9
  -4  -2   4 66.0964 4.10704   3
  -4  -2   4 75.6165 4.45278   1
  -4  -2   4 65.4155 3.80859   7
  -4  -2   4 71.8172 4.02244   5
  -4  -2   4 73.2419 4.11499   6
   3   2  -4 109.287 5.84296   1
   3   2  -4 108.023 6.19660   9
   3   2  -4 98.3584 5.78412   4
   3   2  -4 110.936 5.09509   2
   3   2  -4 114.215 5.38940   8
  -3  -2   4 120.859 6.02493   1
  -3  -2   4 104.483 5.52298   5
  -3  -2   4 101.864 5.55493   3
  -3  -2   4 99.9612 5.22708   7
  -3  -2   4 111.036 5.63003   6
   2   2  -4 8.57963 1.22698   1
   2   2  -4 7.07181 1.09236   4
   2   2  -4 7.13641 1.26225   9
   2   2  -4 8.23752 0.59179   2
   2   2  -4 7.77807 0.87812   8
  -2  -2   4 10.5474 0.93779   3
  -2  -2   4 7.66732 0.97526   5
  -2  -2   4 8.58824 0.67243   7
  -2  -2   4 7.07766 1.14534   1
  -2  -2   4 9.94646 1.14537   6
   1   2  -4 19.4254 1.04345   2
   1   2  -4 20.3128 1.29326   8
   1   2  -4 16.9693 1.46780   4
   1   2  -4 19.4535 1.49800   1
   1   2  -4 19.1677 1.67432   9
  -1  -2   4 19.8637 1.42152   6
  -1  -2   4 20.6233 1.36386   3
  -1  -2   4 18.7918 1.00917   7
  -1  -2   4 15.7507 1.43222   1
  -1  -2   4 21.1813 1.42661   5
  -1  -2   4 21.4743 1.81377   9
   0   2  -4 5.05143 0.73416   1
   0   2  -4 5.78291 0.46962   2
   0   2  -4 6.31861 0.95297   9
   0   2  -4 4.94196 0.61535   8
   0   2  -4 4.08765 0.79236   9
   0   2  -4 7.24978 0.91333   4
   0  -2   4 5.88951 0.94677   9
   0  -2   4 5.72207 0.35952   7
   0  -2   4 4.02122 0.77128   9
   0  -2   4 6.03396 0.71409   3
   0  -2   4 5.77134 0.75894   5
   0  -2   4 4.79997 0.75071   1
   0  -2   4 5.12869 0.70058   6
  -1   2  -4 0.38823 0.25014   4
  -1   2  -4 0.72748 0.27649   1
  -1   2  -4 0.48977 0.28761   9
  -1   2  -4 0.65717 0.23105   2
  -1   2  -4 0.40402 0.26777   9
  -1   2  -4 0.53746 0.26514   8
   1  -2   4 0.29731 0.19417   6
   1  -2   4 1.03152 0.31428   3
   1  -2   4 0.71431 0.31220   9
   1  -2   4 0.48133 0.25806   1
   1  -2   4 0.35364 0.23656   5
   1  -2   4 0.51553 0.18787   7
  -2   2  -4 1.56687 0.37900   2
  -2   2  -4 2.08353 0.42185   9
  -2   2  -4 2.52718 0.42187   9
  -2   2  -4 2.54934 0.49238   4
  -2   2  -4 1.78731 0.43968   7
  -2   2  -4 1.92013 0.33089   1
  -2   2  -4 1.58361 0.37420   8
   2  -2   4 2.58509 0.45394   6
   2  -2   4 1.81828 0.45025   5
   2  -2   4 1.04369 0.33452   7
   2  -2   4 1.99048 0.43988   3
   2  -2   4 2.30599 0.37379   1
  -3   2  -4 157.361 7.43702   8
  -3   2  -4 160.981 6.98796   1
  -3   2  -4 149.191 7.07126   9
  -3   2  -4 166.906 7.03555   9
  -3   2  -4 148.184 7.51821   2
  -3   2  -4 145.487 7.39639   4
  -3   2  -4 154.791 7.68768   7
   3  -2   4 155.997 7.56566   7
   3  -2   4 163.270 7.63051   3
   3  -2   4 163.024 7.34732   6
   3  -2   4 161.816 7.51260   5
  -4   2  -4 48.3051 2.58451   8
  -4   2  -4 43.5230 2.46946   4
  -4   2  -4 42.5655 2.84044   7
  -4   2  -4 41.5424 2.66877   2
   4  -2   4 43.1367 2.73168   3
   4  -2   4 42.3324 2.36451   6
   4  -2   4 45.5741 2.60881   5
  -5   2  -4 133.593 6.38985   4
  -5   2  -4 126.891 6.46114   8
  -5   2  -4 131.313 7.04540   7
  -5   2  -4 129.862 6.75505   2
   5  -2   4 134.065 6.27924   6
   5  -2   4 123.087 6.49280   5
   5  -2   4 135.735 6.87104   3
  -6   2  -4 2.06475 0.61044   8
  -6   2  -4 1.17490 0.56697   2
  -6   2  -4 1.03662 0.63069   7
   6  -2   4 1.12211 0.59662   6
   6  -2   4 2.96275 0.82645   3
   6  -2   4 1.96867 0.68794   5
  -7   2  -4 0.41528 0.48159   8
  -7   2  -4 0.33678 0.45266   2
  -7   2  -4 0.15967 0.49386   7
   7  -2   4 -0.1024 0.57422   3
   7  -2   4 0.41050 0.49596   7
   7  -2   4 -0.1681 0.53960   5
  -8   2  -4 63.6773 3.97393   8
  -8   2  -4 62.5469 4.75759   7
  -8   2  -4 65.8534 4.49496   2
   8  -2   4 69.4187 4.64474   3
   8  -2   4 72.1102 4.24219   5
   8  -2   4 61.9852 4.48596   7
  -9   2  -4 3.64600 1.25831   2
  -9   2  -4 3.35521 1.00186   8
  -9   2  -4 5.44723 1.55660   7
   9  -2   4 4.70946 1.30872   7
   9  -2   4 7.17321 1.58877   3
   9  -2   4 5.53561 1.32487   5
 -10   2  -4 0.32226 0.83703   7
 -10   2  -4 -0.6868 0.89638   2
  10  -2   4 0.63426 0.84078   5
  10  -2   4 1.17061 0.95985   7
  10  -2   4 -0.1263 0.68809   3
   8   1  -4 13.9859 1.90848   5
   8   1  -4 16.8066 2.42619   1
   8   1  -4 14.9829 2.02231   6
  -8  -1   4 12.1804 1.85744   6
  -8  -1   4 12.6255 1.76104   5
   7   1  -4 53.1968 3.49845   6
   7   1  -4 47.5834 3.59592   1
   7   1  -4 43.5601 3.65594   4
   7   1  -4 48.8246 3.28867   5
  -7  -1   4 51.7575 3.76676   1
  -7  -1   4 49.6179 3.40495   6
  -7  -1   4 46.1395 3.61058   3
  -7  -1   4 46.0606 3.22761   5
   6   1  -4 1.51908 0.62143   8
   6   1  -4 0.75327 0.88192   9
   6   1  -4 1.49540 0.81724   1
   6   1  -4 1.95360 0.86260   4
   6   1  -4 3.34443 0.83646   6
  -6  -1   4 2.93940 1.06453   1
  -6  -1   4 2.45731 0.73240   5
  -6  -1   4 3.89721 1.29599   4
  -6  -1   4 1.63241 0.69753   6
  -6  -1   4 2.11968 0.82318   3
   5   1  -4 44.0713 2.48685   2
   5   1  -4 39.8953 2.55962   8
   5   1  -4 34.4641 3.14622   9
   5   1  -4 39.8734 3.05500   4
   5   1  -4 39.0696 2.93151   1
  -5  -1   4 39.4301 2.52456   2
  -5  -1   4 37.0690 2.58128   7
  -5  -1   4 43.7987 3.12722   1
  -5  -1   4 38.2450 2.67580   6
  -5  -1   4 35.8338 2.70689   3
  -5  -1   4 40.0313 3.17417   4
  -5  -1   4 35.0417 2.52739   5
   4   1  -4 18.1968 1.32823   2
   4   1  -4 18.6127 2.36676   9
   4   1  -4 16.5803 1.41337   8
   4   1  -4 16.5947 2.03991   4
   4   1  -4 18.1357 1.76865   1
  -4  -1   4 17.8009 1.57559   6
  -4  -1   4 17.9400 1.43907   7
  -4  -1   4 17.1994 1.36685   2
  -4  -1   4 17.9843 1.81293   1
  -4  -1   4 20.4899 2.20898   9
  -4  -1   4 17.1535 1.47606   5
  -4  -1   4 16.4890 1.55846   3
  -4  -1   4 19.7144 1.91262   4
   3   1  -4 -0.0273 0.25009   8
   3   1  -4 0.40632 0.37208   4
   3   1  -4 0.28763 0.43847   1
   3   1  -4 -0.3359 0.39728   9
   3   1  -4 -0.0089 0.20295   2
  -3  -1   4 -0.2683 0.27798   6
  -3  -1   4 0.10198 0.20110   7
  -3  -1   4 -0.0307 0.40699   1
  -3  -1   4 0.03360 0.43280   9
  -3  -1   4 -0.1464 0.27375   5
  -3  -1   4 1.04242 0.53816   4
  -3  -1   4 0.04387 0.30371   3
   2   1  -4 0.59250 0.26529   8
   2   1  -4 0.61537 0.22952   2
   2   1  -4 0.96470 0.49797   4
   2   1  -4 -0.0508 0.42618   9
  -2  -1   4 0.73935 0.52289   9
  -2  -1   4 0.23275 0.23999   3
  -2  -1   4 1.13494 0.39914   5
  -2  -1   4 0.27397 0.33835   6
  -2  -1   4 0.58950 0.21433   7
  -2  -1   4 0.41739 0.33449   1
  -2  -1   4 1.22371 0.59481   4
   1   1  -4 131.741 6.83547   4
   1   1  -4 139.777 6.52153   8
   1   1  -4 133.736 6.28660   2
   1   1  -4 124.587 6.99532   9
   1   1  -4 134.609 6.06866   7
  -1  -1   4 139.972 6.57587   5
  -1  -1   4 136.801 6.85182   1
  -1  -1   4 139.945 7.17101   9
  -1  -1   4 146.939 6.69813   6
  -1  -1   4 145.554 6.47128   3
   0   1  -4 45.4132 2.71468   4
   0   1  -4 48.6015 2.52717   8
   0   1  -4 45.7167 2.86781   9
   0   1  -4 47.4365 2.37918   2
   0  -1   4 49.2737 2.95983   9
   0  -1   4 47.7515 2.57954   5
   0  -1   4 48.7167 2.64510   6
   0  -1   4 48.6016 2.44830   3
   0  -1   4 49.1377 2.75033   1
  -1   1  -4 184.009 9.35118   9
  -1   1  -4 180.833 9.34589   9
  -1   1  -4 217.121 9.02493   7
  -1   1  -4 210.190 9.15492   8
  -1   1  -4 206.466 9.29169   4
  -1   1  -4 201.362 9.09857   2
   1  -1   4 204.898 9.25444   6
   1  -1   4 195.125 9.42361   9
   1  -1   4 190.063 9.22139   1
   1  -1   4 205.225 9.10987   3
   1  -1   4 198.255 9.20141   5
  -2   1  -4 133.119 6.17683   8
  -2   1  -4 126.663 6.17013   9
  -2   1  -4 136.956 6.30119   7
  -2   1  -4 127.527 6.21769   2
  -2   1  -4 119.919 6.16356   9
  -2   1  -4 140.768 6.21691   4
   2  -1   4 132.547 6.25383   5
   2  -1   4 130.037 6.20841   9
   2  -1   4 139.365 6.26581   3
   2  -1   4 123.655 6.06388   1
   2  -1   4 137.332 6.23900   6
  -3   1  -4 0.17673 0.09386   9
  -3   1  -4 0.23763 0.20759   2
  -3   1  -4 0.33178 0.26390   4
  -3   1  -4 0.08686 0.26291   7
  -3   1  -4 0.29941 0.14802   9
  -3   1  -4 0.12960 0.07472   1
  -3   1  -4 0.42206 0.21786   8
   3  -1   4 0.19747 0.24567   6
   3  -1   4 0.34499 0.31953   3
   3  -1   4 0.17774 0.22351   5
   3  -1   4 0.20865 0.08939   1
  -4   1  -4 3.08181 0.55187   8
  -4   1  -4 3.95917 0.73372   2
  -4   1  -4 3.68240 0.55756   4
  -4   1  -4 4.56671 0.89439   7
   4  -1   4 2.69295 0.67435   3
   4  -1   4 4.43514 0.65757   6
   4  -1   4 4.40423 0.71582   5
  -5   1  -4 12.8296 1.63501   3
  -5   1  -4 10.4340 1.54477   7
  -5   1  -4 11.8677 0.93717   4
  -5   1  -4 11.8080 1.20792   8
  -5   1  -4 10.6958 1.35142   2
   5  -1   4 9.53538 1.36762   3
   5  -1   4 10.5725 1.26101   5
   5  -1   4 13.5466 1.10646   6
  -6   1  -4 15.0327 1.85455   2
  -6   1  -4 18.0323 1.49338   8
  -6   1  -4 19.9889 2.32906   3
  -6   1  -4 20.1640 2.34493   7
   6  -1   4 18.5912 1.65585   5
   6  -1   4 21.8673 1.97929   3
   6  -1   4 20.4150 1.52968   6
  -7   1  -4 10.4677 1.29265   8
  -7   1  -4 8.59472 1.63882   3
  -7   1  -4 8.28399 1.63648   7
  -7   1  -4 7.50865 1.33636   2
   7  -1   4 8.09668 1.14312   6
   7  -1   4 10.0522 1.38675   5
   7  -1   4 10.7133 1.72018   3
  -8   1  -4 0.72176 0.53473   8
  -8   1  -4 -0.1213 0.55403   3
  -8   1  -4 0.30246 0.75058   2
  -8   1  -4 0.25094 0.61365   7
   8  -1   4 -0.5704 0.46218   5
   8  -1   4 -0.1545 0.49818   3
  -9   1  -4 4.52978 1.54235   7
  -9   1  -4 3.25437 1.07093   2
   9  -1   4 2.66656 1.04416   5
   9  -1   4 5.66659 1.48709   3
 -10   1  -4 10.9362 2.03029   2
 -10   1  -4 7.57845 1.93249   7
  10  -1   4 7.28650 1.77614   7
  10  -1   4 10.9700 1.77705   5
  10  -1   4 7.80222 1.86163   3
   8   0  -4 5.29875 1.27945   6
   7   0  -4 37.6658 2.83653   6
   7   0  -4 41.3337 3.20790   1
   7   0  -4 34.2765 3.16837   4
   7   0  -4 32.0697 2.79217   3
   7   0  -4 37.9108 2.75698   5
  -7   0   4 39.3901 3.46582   4
  -7   0   4 40.4970 3.25652   1
  -7   0   4 39.0266 2.82746   6
  -7   0   4 38.3648 2.75392   5
   6   0  -4 11.3076 1.71479   1
   6   0  -4 8.44622 1.45941   3
   6   0  -4 9.42660 1.32339   8
   6   0  -4 9.31826 1.31733   7
   6   0  -4 9.70571 1.32085   2
   6   0  -4 11.5095 1.51016   6
   6   0  -4 8.35532 1.56746   4
   6   0  -4 10.0822 1.88042   9
  -6   0   4 6.57735 1.36146   7
  -6   0   4 9.10818 1.48841   3
  -6   0   4 9.35637 1.74964   4
  -6   0   4 9.80638 1.44735   8
  -6   0   4 9.50181 1.36165   6
  -6   0   4 7.94702 1.27528   2
  -6   0   4 10.9007 1.43841   5
  -6   0   4 11.1764 1.75688   1
   5   0  -4 3.59993 0.72826   2
   5   0  -4 2.35852 0.84614   1
   5   0  -4 4.10306 0.80221   7
   5   0  -4 2.79707 0.73314   8
   5   0  -4 3.33468 1.14164   9
   5   0  -4 2.85140 1.04405   4
  -5   0   4 2.45274 0.96901   4
  -5   0   4 2.45065 0.98968   9
  -5   0   4 3.92571 0.86268   2
  -5   0   4 3.87007 0.85410   6
  -5   0   4 3.38997 0.86464   3
  -5   0   4 3.65795 1.04484   1
  -5   0   4 2.92156 0.69388   5
  -5   0   4 3.66939 0.83872   7
  -5   0   4 3.22149 0.81956   8
   4   0  -4 4.73642 1.15900   4
   4   0  -4 5.29414 0.81061   2
   4   0  -4 5.38800 0.89125   8
   4   0  -4 5.73021 0.83172   7
   4   0  -4 6.01073 1.27583   9
  -4   0   4 5.42926 0.83794   5
  -4   0   4 7.36246 0.99779   7
  -4   0   4 5.00127 0.87036   2
  -4   0   4 5.21236 0.95336   3
  -4   0   4 5.43986 1.27264   4
  -4   0   4 6.44908 1.36396   9
  -4   0   4 5.33310 0.90757   8
  -4   0   4 5.64350 1.14878   1
  -4   0   4 6.45082 0.99606   6
   3   0  -4 116.992 6.60772   9
   3   0  -4 107.478 5.62110   7
   3   0  -4 118.833 5.88719   8
   3   0  -4 106.020 6.24659   4
   3   0  -4 122.532 5.76119   2
  -3   0   4 114.242 6.29618   1
  -3   0   4 119.612 6.72316   9
  -3   0   4 118.549 5.82117   5
  -3   0   4 120.088 5.89277   3
  -3   0   4 128.094 6.01818   6
  -3   0   4 116.058 5.74893   7
  -3   0   4 124.316 5.97383   8
  -3   0   4 122.392 6.47613   4
   2   0  -4 199.889 9.09012   2
   2   0  -4 192.324 8.92993   7
   2   0  -4 181.461 9.82641   9
   2   0  -4 182.578 9.60203   4
   2   0  -4 197.645 9.24566   8
  -2   0   4 205.179 9.78937   4
  -2   0   4 199.128 9.01151   7
  -2   0   4 203.346 9.34864   6
  -2   0   4 186.136 9.59601   1
  -2   0   4 190.637 9.95259   9
  -2   0   4 214.965 9.22507   5
  -2   0   4 208.074 9.16203   3
   1   0  -4 50.7396 2.72083   8
   1   0  -4 50.4563 2.35614   7
   1   0  -4 46.5564 3.12124   9
   1   0  -4 48.0727 2.97665   4
   1   0  -4 54.2111 2.60301   2
  -1   0   4 53.8307 3.10694   4
  -1   0   4 47.8725 2.96899   1
  -1   0   4 47.4476 3.18289   9
  -1   0   4 48.8363 2.65906   5
  -1   0   4 49.4687 2.78993   6
  -1   0   4 55.4249 2.55868   3
   0   0  -4 201.045 9.45758   8
   0   0  -4 195.518 9.68159   4
   0   0  -4 205.125 9.35499   2
   0   0  -4 218.715 9.11098   7
   0   0   4 209.735 9.78704   4
   0   0   4 200.900 9.93470   9
   0   0   4 198.315 9.69926   1
   0   0   4 212.441 9.45309   5
   0   0   4 206.302 9.57909   6
   0   0   4 208.352 9.23044   3
  -1   0  -4 5.91487 0.81254   9
  -1   0  -4 5.41525 0.61417   8
  -1   0  -4 5.11516 0.70931   4
  -1   0  -4 5.59395 0.49667   7
  -1   0  -4 6.46579 0.56113   2
   1   0   4 6.20214 0.84626   9
   1   0   4 6.18752 0.67454   5
   1   0   4 6.32131 0.49031   3
   1   0   4 4.88722 0.70607   1
   1   0   4 5.56084 0.71510   6
  -2   0  -4 2.06521 0.39324   9
  -2   0  -4 1.88432 0.34287   4
  -2   0  -4 1.61963 0.38765   7
  -2   0  -4 1.74263 0.39132   2
  -2   0  -4 2.13426 0.36686   8
   2   0   4 1.76047 0.41751   9
   2   0   4 1.89462 0.36302   1
   2   0   4 1.48371 0.37332   6
   2   0   4 1.86880 0.39380   3
   2   0   4 2.07623 0.42711   5
  -3   0  -4 229.843 10.3753   3
  -3   0  -4 228.340 10.0553   8
  -3   0  -4 216.918 9.88540   4
  -3   0  -4 213.508 10.2155   2
  -3   0  -4 222.990 10.4066   7
  -3   0  -4 220.522 9.88225   9
   3   0   4 214.537 9.97710   9
   3   0   4 218.150 10.2719   3
   3   0   4 227.218 10.1719   5
   3   0   4 211.903 9.88231   1
   3   0   4 217.278 10.1088   6
  -4   0  -4 99.8145 5.53762   3
  -4   0  -4 100.176 5.36304   2
  -4   0  -4 107.497 5.64797   7
  -4   0  -4 108.193 5.15160   8
  -4   0  -4 115.855 4.93716   4
  -4   0  -4 107.567 4.85908   9
   4   0   4 103.671 5.18766   6
   4   0   4 105.013 4.84267   1
   4   0   4 98.4544 5.44989   3
   4   0   4 108.129 4.91074   9
   4   0   4 106.835 5.30278   5
  -5   0  -4 4.65740 0.95651   3
  -5   0  -4 5.20060 0.71355   8
  -5   0  -4 4.88726 0.55403   4
  -5   0  -4 4.53423 0.97385   7
  -5   0  -4 4.44652 0.83923   2
  -5   0  -4 4.35775 0.42364   9
   5   0   4 5.38928 0.44177   9
   5   0   4 3.79446 0.75716   5
   5   0   4 4.40464 0.43840   9
   5   0   4 4.37911 0.74618   6
   5   0   4 5.69392 1.02737   3
  -6   0  -4 83.6400 4.45695   2
  -6   0  -4 68.2686 4.50614   3
  -6   0  -4 71.8165 3.92867   8
  -6   0  -4 72.8359 4.63925   7
   6   0   4 75.9686 4.20190   5
   6   0   4 70.6989 4.44720   3
   6   0   4 76.0399 4.00074   6
  -7   0  -4 0.41702 0.42516   8
  -7   0  -4 0.20501 0.55862   2
  -7   0  -4 0.16374 0.64629   7
  -7   0  -4 0.34510 0.63917   3
   7   0   4 -0.4072 0.48476   6
   7   0   4 1.12262 0.73591   3
   7   0   4 0.76783 0.59883   5
  -8   0  -4 25.4781 3.02091   3
  -8   0  -4 26.1738 3.13775   7
  -8   0  -4 28.1020 2.11852   8
  -8   0  -4 29.8067 2.52877   2
   8   0   4 24.8026 2.89760   3
   8   0   4 26.7662 2.15724   6
   8   0   4 29.3680 2.37590   5
  -9   0  -4 1.73552 1.06619   7
  -9   0  -4 2.97395 1.10836   2
  -9   0  -4 2.24009 1.22753   3
   9   0   4 2.94042 0.88532   5
   9   0   4 1.83498 1.15266   3
 -10   0  -4 1.02106 0.79615   2
 -10   0  -4 1.58768 1.05121   7
 -10   0  -4 1.68127 1.35780   3
  10   0   4 -0.3233 0.59417   5
  10   0   4 1.58827 1.19145   3
   7  -1  -4 23.4592 2.01906   6
   7  -1  -4 24.8775 2.09327   8
   7  -1  -4 23.3210 2.10696   2
   7  -1  -4 18.3843 2.63555   4
   7  -1  -4 23.9592 2.32560   1
  -7   1   4 24.1217 2.56483   2
  -7   1   4 20.4066 2.85002   4
  -7   1   4 24.6594 2.14943   8
  -7   1   4 24.4187 2.07803   6
  -7   1   4 22.4794 2.71891   1
   6  -1  -4 1.51071 0.73185   1
   6  -1  -4 0.45101 0.47854   6
   6  -1  -4 1.43915 0.88254   9
   6  -1  -4 1.02423 0.76444   4
   6  -1  -4 0.40830 0.48322   5
   6  -1  -4 0.52812 0.61065   3
   6  -1  -4 0.58034 0.52954   7
   6  -1  -4 1.55877 0.66565   8
   6  -1  -4 0.62807 0.52617   2
  -6   1   4 1.68104 0.85636   1
  -6   1   4 1.30080 0.88845   4
  -6   1   4 0.76183 0.49139   5
  -6   1   4 0.75407 0.71891   9
  -6   1   4 1.55603 0.66629   6
  -6   1   4 0.50496 0.56497   8
  -6   1   4 0.56603 0.55734   7
  -6   1   4 1.01384 0.62334   2
  -6   1   4 1.20193 0.66631   3
   5  -1  -4 59.3524 4.17150   4
   5  -1  -4 59.2886 4.38139   9
   5  -1  -4 64.6635 3.71778   2
   5  -1  -4 61.0388 3.73904   3
   5  -1  -4 63.3649 3.76127   8
   5  -1  -4 64.6956 3.68697   7
  -5   1   4 63.4252 3.81912   7
  -5   1   4 66.8123 3.88266   3
  -5   1   4 64.7491 3.59328   5
  -5   1   4 63.2364 3.83353   2
  -5   1   4 66.8175 3.75020   6
  -5   1   4 62.0735 4.30219   4
  -5   1   4 66.1989 4.21237   1
  -5   1   4 62.1927 3.79786   8
  -5   1   4 64.1168 4.57506   9
   4  -1  -4 15.6132 2.16475   9
   4  -1  -4 17.9266 2.17004   4
   4  -1  -4 15.5491 1.34292   7
   4  -1  -4 18.6469 1.50026   3
   4  -1  -4 20.3153 1.51056   2
   4  -1  -4 15.8699 1.41890   8
  -4   1   4 19.0782 1.57628   2
  -4   1   4 16.3162 1.46262   8
  -4   1   4 17.2310 1.34446   5
  -4   1   4 18.7317 1.51587   3
  -4   1   4 19.0125 1.50698   6
  -4   1   4 17.1896 2.31952   9
  -4   1   4 13.9532 2.01762   4
  -4   1   4 18.2803 1.50913   7
  -4   1   4 17.3146 2.05949   1
   3  -1  -4 -0.0203 0.22131   7
   3  -1  -4 0.46090 0.42232   9
   3  -1  -4 0.02347 0.16805   2
   3  -1  -4 -0.0009 0.24653   8
  -3   1   4 0.20432 0.28395   3
  -3   1   4 0.11220 0.30302   8
  -3   1   4 -0.2232 0.25167   2
  -3   1   4 -0.0270 0.20193   5
  -3   1   4 -0.0452 0.32095   9
  -3   1   4 0.27043 0.32901   6
  -3   1   4 -0.0557 0.23309   7
  -3   1   4 -0.5310 0.32029   1
  -3   1   4 0.20106 0.43626   4
   2  -1  -4 13.1932 1.13509   8
   2  -1  -4 14.6290 0.98328   7
   2  -1  -4 13.1543 1.06217   2
  -2   1   4 13.6056 1.13293   6
  -2   1   4 15.3722 1.02563   3
  -2   1   4 14.5769 1.55277   9
  -2   1   4 16.5946 1.07634   5
  -2   1   4 12.3509 1.52183   1
  -2   1   4 14.7270 1.44352   4
  -2   1   4 12.8378 1.15542   8
   1  -1  -4 3.35935 0.39439   7
   1  -1  -4 3.43086 0.52341   2
   1  -1  -4 2.88296 0.51024   8
  -1   1   4 3.36116 0.47127   5
  -1   1   4 2.50815 0.50901   6
  -1   1   4 2.57199 0.62180   1
  -1   1   4 3.10111 0.34738   3
  -1   1   4 3.48693 0.82646   9
  -1   1   4 2.56842 0.63665   4
   0  -1  -4 0.11210 0.13065   8
   0  -1  -4 0.29656 0.28549   4
   0  -1  -4 0.12796 0.19854   9
   0  -1  -4 0.27703 0.18705   2
   0  -1  -4 0.09411 0.10602   7
   0   1   4 -0.2141 0.11636   6
   0   1   4 -0.0274 0.12649   5
   0   1   4 0.36298 0.31270   4
   0   1   4 0.04235 0.23084   9
   0   1   4 0.01340 0.04551   3
   0   1   4 -0.2296 0.15015   1
  -1  -1  -4 118.368 6.09969   4
  -1  -1  -4 122.827 6.00467   2
  -1  -1  -4 124.275 5.99855   8
  -1  -1  -4 134.081 5.96516   7
  -1  -1  -4 143.453 6.38789   9
   1   1   4 131.173 5.96844   5
   1   1   4 131.146 5.81900   3
   1   1   4 125.842 6.16299   4
   1   1   4 123.070 6.09429   6
   1   1   4 127.489 6.37292   9
   1   1   4 126.941 6.19465   1
  -2  -1  -4 87.6130 4.36507   7
  -2  -1  -4 78.6190 4.12585   4
  -2  -1  -4 95.9536 4.20847   8
  -2  -1  -4 86.1826 4.29453   2
  -2  -1  -4 88.1282 4.28190   3
  -2  -1  -4 101.258 4.43684   9
   2   1   4 83.6318 4.28539   6
   2   1   4 83.5066 4.22491   3
   2   1   4 82.9321 4.39090   9
   2   1   4 85.1746 4.27333   1
   2   1   4 87.2021 4.22803   5
  -3  -1  -4 278.866 12.6945   8
  -3  -1  -4 271.903 12.9188   2
  -3  -1  -4 284.006 13.0454   3
  -3  -1  -4 273.581 12.7388   9
  -3  -1  -4 303.370 12.4949   4
  -3  -1  -4 288.876 13.1431   7
   3   1   4 284.379 12.7119   1
   3   1   4 275.251 12.9737   3
   3   1   4 279.478 12.8417   5
   3   1   4 274.677 12.8396   6
   3   1   4 283.722 12.8279   9
  -4  -1  -4 39.4734 1.96761   9
  -4  -1  -4 30.7259 2.31833   7
  -4  -1  -4 33.7021 2.17567   2
  -4  -1  -4 34.6274 1.93881   8
  -4  -1  -4 30.9114 2.26647   3
   4   1   4 35.1708 1.97650   9
   4   1   4 35.5705 1.87791   1
   4   1   4 34.7856 2.07424   6
   4   1   4 33.2485 2.26334   3
   4   1   4 34.0378 2.10684   5
  -5  -1  -4 44.0799 3.11368   7
  -5  -1  -4 44.6738 2.53214   9
  -5  -1  -4 50.0215 2.95169   2
  -5  -1  -4 45.9834 3.09270   3
  -5  -1  -4 51.1603 2.60013   8
   5   1   4 48.9913 2.75754   6
   5   1   4 48.1985 2.45059   1
   5   1   4 49.9231 2.58450   9
   5   1   4 40.6686 2.93641   3
   5   1   4 44.5029 2.77895   5
  -6  -1  -4 148.202 7.50369   2
  -6  -1  -4 150.992 7.88489   3
  -6  -1  -4 144.415 7.90375   7
  -6  -1  -4 147.194 7.03485   8
   6   1   4 149.109 7.37571   5
   6   1   4 147.829 7.21475   6
   6   1   4 134.764 7.64527   3
  -7  -1  -4 0.70742 0.39348   8
  -7  -1  -4 0.81003 0.74350   3
  -7  -1  -4 0.17717 0.55978   2
  -7  -1  -4 1.12312 0.84726   7
   7   1   4 1.25532 0.58665   6
   7   1   4 1.38030 0.75479   3
   7   1   4 0.35315 0.38290   5
  -8  -1  -4 44.3281 3.77637   3
  -8  -1  -4 47.6797 3.93651   7
  -8  -1  -4 46.0543 3.50583   2
   8   1   4 48.0766 3.38243   5
   8   1   4 58.8868 3.33741   6
   8   1   4 54.5594 3.93080   3
  -9  -1  -4 2.01381 1.19709   7
  -9  -1  -4 2.22181 1.07016   3
  -9  -1  -4 3.57672 1.12549   2
   9   1   4 3.51108 1.03784   5
   9   1   4 2.59665 1.13287   3
 -10  -1  -4 3.09802 1.53609   3
 -10  -1  -4 3.69756 1.19649   2
 -10  -1  -4 3.49381 1.51873   7
  10   1   4 3.12684 1.32034   3
  10   1   4 3.26871 1.16816   5
   8  -2  -4 3.66318 1.16433   2
   8  -2  -4 5.34408 1.31023   8
  -8   2   4 3.53834 1.30984   8
   7  -2  -4 83.4943 5.21082   1
   7  -2  -4 78.4619 4.90438   2
   7  -2  -4 84.6242 4.99380   7
   7  -2  -4 78.0158 4.91912   8
   7  -2  -4 82.5911 5.57579   4
  -7   2   4 86.4354 5.35452   1
  -7   2   4 82.3771 5.04071   8
  -7   2   4 84.5900 5.16295   2
  -7   2   4 89.3899 5.83458   4
   6  -2  -4 23.0691 1.83931   6
   6  -2  -4 20.8807 2.21348   8
   6  -2  -4 18.9748 1.85406   7
   6  -2  -4 22.1982 2.86581   9
   6  -2  -4 24.2183 2.86226   4
   6  -2  -4 20.5231 2.41465   3
   6  -2  -4 23.1750 2.00518   2
  -6   2   4 21.1584 2.56265   1
  -6   2   4 20.9239 2.36207   2
  -6   2   4 22.4514 2.97739   9
  -6   2   4 25.5966 1.92290   6
  -6   2   4 24.6597 2.10956   8
  -6   2   4 22.7593 2.85859   4
  -6   2   4 20.1704 2.30239   7
   5  -2  -4 46.3893 2.53740   5
   5  -2  -4 44.9750 2.77114   2
   5  -2  -4 36.2058 2.65694   8
   5  -2  -4 36.4612 3.23121   9
   5  -2  -4 39.0087 2.60815   7
   5  -2  -4 38.7465 2.61435   3
  -5   2   4 39.1759 3.03086   1
  -5   2   4 38.4963 2.53251   6
  -5   2   4 39.9989 2.71670   3
  -5   2   4 36.2699 2.70364   7
  -5   2   4 41.3558 2.80758   8
  -5   2   4 33.4091 3.09055   4
  -5   2   4 40.6082 3.40274   9
  -5   2   4 40.3168 2.80818   2
  -5   2   4 42.1099 2.47721   5
   4  -2  -4 107.407 5.83769   8
   4  -2  -4 101.546 6.43027   9
   4  -2  -4 118.486 5.86728   2
   4  -2  -4 112.232 5.73325   7
   4  -2  -4 113.660 5.70116   3
  -4   2   4 123.781 5.59623   5
  -4   2   4 116.531 5.75568   6
  -4   2   4 105.082 6.35284   4
  -4   2   4 109.921 6.23965   1
  -4   2   4 120.378 6.77616   9
  -4   2   4 110.221 5.90365   8
  -4   2   4 117.674 5.80311   3
  -4   2   4 103.007 5.88509   2
   3  -2  -4 40.0242 2.28493   3
   3  -2  -4 40.2519 2.50406   8
   3  -2  -4 39.3686 2.44743   2
   3  -2  -4 37.3559 2.32688   7
  -3   2   4 41.0354 3.10762   9
  -3   2   4 43.6877 2.26497   5
  -3   2   4 40.7296 2.55153   8
  -3   2   4 40.4960 2.59271   2
  -3   2   4 38.6772 2.81867   1
  -3   2   4 36.9708 2.38461   6
  -3   2   4 39.4835 2.92340   4
  -3   2   4 45.0140 2.39417   3
   2  -2  -4 550.950 24.4715   3
   2  -2  -4 563.620 24.6474   7
   2  -2  -4 559.471 24.8136   2
   2  -2  -4 543.658 24.8499   8
  -2   2   4 508.832 25.5046   9
  -2   2   4 596.763 24.5406   3
  -2   2   4 534.160 25.3116   4
  -2   2   4 538.892 25.2414   1
  -2   2   4 547.263 24.8051   6
  -2   2   4 588.975 24.5473   5
  -2   2   4 535.080 24.8844   8
   1  -2  -4 102.039 4.75233   7
   1  -2  -4 99.4691 4.90572   2
   1  -2  -4 95.7514 4.92462   8
   1  -2  -4 106.384 4.46902   3
  -1   2   4 94.4798 5.46625   9
  -1   2   4 101.708 4.97298   6
  -1   2   4 96.1712 4.96845   8
  -1   2   4 103.402 4.68180   5
  -1   2   4 98.0900 5.28897   4
  -1   2   4 93.1092 5.21201   1
   0  -2  -4 459.285 20.3161   7
   0  -2  -4 435.583 20.4498   8
   0  -2  -4 479.610 20.4844   2
   0  -2  -4 506.183 21.0354   9
   0   2   4 432.452 20.7274   4
   0   2   4 453.661 20.5232   6
   0   2   4 428.544 20.7257   1
   0   2   4 447.021 20.9948   9
   0   2   4 469.474 20.2527   5
  -1  -2  -4 71.7307 3.50158   2
  -1  -2  -4 63.9506 3.40852   8
  -1  -2  -4 71.7438 3.44448   7
  -1  -2  -4 68.8552 3.26187   3
   1   2   4 68.6145 3.81130   9
   1   2   4 71.2129 3.33535   5
   1   2   4 67.4101 3.63760   1
   1   2   4 68.1086 3.58944   4
   1   2   4 69.3400 3.52983   6
  -2  -2  -4 797.473 35.3703   7
  -2  -2  -4 793.955 35.1205   8
  -2  -2  -4 787.190 35.2838   2
  -2  -2  -4 811.560 35.2622   3
   2   2   4 812.676 35.3245   1
   2   2   4 758.513 35.1550   4
   2   2   4 824.739 35.5021   9
   2   2   4 796.109 35.1616   5
   2   2   4 779.878 35.2808   6
  -3  -2  -4 53.7752 3.14141   7
  -3  -2  -4 52.6199 2.96706   2
  -3  -2  -4 59.1496 3.01110   9
  -3  -2  -4 52.0960 2.71372   8
  -3  -2  -4 54.2179 2.54249   4
  -3  -2  -4 57.5914 3.10829   3
   3   2   4 51.7515 2.93496   6
   3   2   4 55.8913 2.88311   1
   3   2   4 54.2850 2.89554   5
   3   2   4 56.7980 3.02347   9
  -4  -2  -4 543.256 24.9614   7
  -4  -2  -4 546.661 24.2513   8
  -4  -2  -4 563.093 24.6617   2
  -4  -2  -4 532.937 24.8436   3
   4   2   4 567.274 24.3843   1
   4   2   4 528.125 24.5053   6
   4   2   4 553.900 24.5254   9
   4   2   4 534.629 24.5358   5
  -5  -2  -4 37.4641 1.97064   8
  -5  -2  -4 27.0504 2.03033   9
  -5  -2  -4 35.1762 2.53916   3
  -5  -2  -4 37.6573 2.35454   2
  -5  -2  -4 36.8984 2.63963   7
   5   2   4 34.2897 2.23437   5
   5   2   4 37.3707 2.25244   9
   5   2   4 36.8932 2.09141   1
   5   2   4 34.8433 2.19978   6
  -6  -2  -4 84.5336 5.06439   3
  -6  -2  -4 85.7491 4.72157   2
  -6  -2  -4 88.7361 4.24611   8
  -6  -2  -4 90.0210 5.20155   7
   6   2   4 79.8341 4.45915   1
   6   2   4 82.2340 4.44676   9
   6   2   4 84.1936 4.61568   5
   6   2   4 77.0851 4.87516   3
   6   2   4 84.6711 4.51704   6
  -7  -2  -4 273.435 14.1537   3
  -7  -2  -4 311.411 13.8725   2
  -7  -2  -4 272.779 14.2522   7
   7   2   4 288.376 13.6533   5
   7   2   4 298.505 13.5263   6
   7   2   4 259.697 13.9645   3
  -8  -2  -4 55.1502 4.24453   3
  -8  -2  -4 67.3464 4.60054   7
  -8  -2  -4 65.5207 4.06558   2
   8   2   4 63.7321 3.76665   6
   8   2   4 51.3794 4.06845   3
   8   2   4 56.9438 3.79454   5
  -9  -2  -4 -0.4854 0.80594   7
  -9  -2  -4 0.28461 0.74259   3
  -9  -2  -4 0.22531 0.50788   2
   9   2   4 0.23343 0.67221   3
   9   2   4 0.74750 0.67640   5
   9   2   4 -1.4140 0.73077   6
 -10  -2  -4 14.3898 2.17248   2
 -10  -2  -4 11.8244 2.45703   7
 -10  -2  -4 16.6054 2.75050   3
  10   2   4 12.8439 1.93883   5
  10   2   4 11.7440 2.29629   3
   8  -3  -4 -0.7039 1.55918   4
   8  -3  -4 0.01351 0.56054   2
   8  -3  -4 -0.7109 0.44351   8
  -8   3   4 -0.2803 0.49153   2
  -8   3   4 0.50577 0.63459   8
   7  -3  -4 1.06736 0.76615   7
   7  -3  -4 0.99086 0.72426   4
   7  -3  -4 -0.3311 0.58529   8
   7  -3  -4 1.58759 0.82547   2
  -7   3   4 2.16613 0.92365   2
  -7   3   4 1.02750 0.80672   4
  -7   3   4 -0.0687 0.67154   8
   6  -3  -4 127.999 6.93743   2
   6  -3  -4 126.549 6.85276   7
   6  -3  -4 117.313 6.82942   8
   6  -3  -4 130.839 7.72452   9
  -6   3   4 131.834 7.81163   9
  -6   3   4 124.586 7.57724   4
  -6   3   4 133.861 7.34564   1
  -6   3   4 121.713 6.91726   8
  -6   3   4 140.520 7.25409   2
   5  -3  -4 385.432 20.6279   9
   5  -3  -4 460.829 19.7973   3
   5  -3  -4 422.762 19.9536   2
   5  -3  -4 432.765 19.8744   7
   5  -3  -4 453.774 20.0340   8
  -5   3   4 428.268 20.7111   4
  -5   3   4 414.152 20.1154   2
  -5   3   4 444.086 19.6607   6
  -5   3   4 432.226 20.9522   9
  -5   3   4 434.704 20.0310   8
  -5   3   4 407.376 20.3303   1
   4  -3  -4 0.95810 0.37872   5
   4  -3  -4 -0.0568 0.42093   2
   4  -3  -4 0.97586 0.42824   3
   4  -3  -4 0.50814 0.37059   8
   4  -3  -4 0.83074 0.46330   7
  -4   3   4 1.14102 0.59813   2
  -4   3   4 0.34088 0.29913   5
  -4   3   4 0.22081 0.48857   1
  -4   3   4 0.95085 0.48592   8
  -4   3   4 -0.4232 0.30731   4
  -4   3   4 0.39935 0.63031   9
  -4   3   4 1.04609 0.42735   6
   3  -3  -4 55.2262 3.26718   2
   3  -3  -4 58.1630 2.99372   3
   3  -3  -4 57.3889 3.18803   7
   3  -3  -4 56.7052 3.30253   8
  -3   3   4 55.2083 3.31951   8
  -3   3   4 51.6533 3.83932   9
  -3   3   4 57.9505 3.14741   6
  -3   3   4 56.8712 3.41919   2
  -3   3   4 53.5182 3.66713   4
  -3   3   4 53.2066 3.59197   1
  -3   3   4 62.0459 2.90434   5
   2  -3  -4 16.3717 1.33840   8
   2  -3  -4 16.7226 1.24071   7
   2  -3  -4 19.2515 1.08156   3
   2  -3  -4 15.7057 1.30769   2
  -2   3   4 16.9690 1.28569   6
  -2   3   4 16.2712 1.72414   9
  -2   3   4 18.8325 1.42375   8
  -2   3   4 18.4781 1.03868   5
  -2   3   4 17.3413 1.65582   4
  -2   3   4 14.3699 1.48885   1
   1  -3  -4 34.4030 1.62356   3
   1  -3  -4 33.2267 2.03394   2
   1  -3  -4 33.7261 2.03796   8
   1  -3  -4 33.2462 1.93443   7
  -1   3   4 28.8888 2.23250   1
  -1   3   4 32.7025 2.29793   4
  -1   3   4 30.9256 1.97601   6
  -1   3   4 34.1509 2.07969   8
  -1   3   4 36.2565 1.68481   5
  -1   3   4 32.2159 2.46415   9
   0  -3  -4 290.073 12.1740   3
   0  -3  -4 281.399 12.5181   7
   0  -3  -4 268.111 12.5537   8
   0  -3  -4 269.601 12.5928   2
   0   3   4 267.888 12.8399   4
   0   3   4 279.437 12.6210   8
   0   3   4 279.770 12.5985   6
   0   3   4 279.916 12.2459   5
   0   3   4 263.986 12.8447   1
   0   3   4 267.019 13.0846   9
  -1  -3  -4 9.01727 0.72228   8
  -1  -3  -4 7.84630 0.63189   3
  -1  -3  -4 8.29994 0.76032   2
  -1  -3  -4 8.27332 0.74586   7
   1   3   4 8.37432 0.61896   5
   1   3   4 7.82509 0.88532   6
   1   3   4 8.48209 0.84738   4
   1   3   4 8.24270 1.00227   1
   1   3   4 7.54673 1.06934   9
  -2  -3  -4 445.734 20.6551   2
  -2  -3  -4 458.761 20.6434   3
  -2  -3  -4 510.904 21.0220   9
  -2  -3  -4 463.354 20.7843   7
  -2  -3  -4 438.127 20.4639   8
   2   3   4 439.041 20.4874   5
   2   3   4 458.430 20.6727   6
   2   3   4 447.276 20.5778   4
   2   3   4 474.090 20.9617   9
   2   3   4 468.739 20.7609   1
  -3  -3  -4 50.7722 2.91588   2
  -3  -3  -4 57.1223 2.66245   8
  -3  -3  -4 55.6194 3.07796   9
  -3  -3  -4 52.0326 3.12454   7
  -3  -3  -4 53.7969 3.04634   3
   3   3   4 54.8985 2.94293   6
   3   3   4 54.2141 2.93761   1
   3   3   4 51.0821 2.60438   4
   3   3   4 50.4760 2.81991   5
   3   3   4 54.5934 3.10391   9
  -4  -3  -4 15.3701 1.22477   2
  -4  -3  -4 17.0455 1.52406   7
  -4  -3  -4 13.0841 0.89704   8
  -4  -3  -4 9.65686 1.32588   3
   4   3   4 14.2355 1.19776   6
   4   3   4 14.7921 1.22068   1
   4   3   4 15.8463 1.39006   9
   4   3   4 13.9329 1.13475   5
  -5  -3  -4 1.60627 0.61937   7
  -5  -3  -4 2.87037 0.42566   8
  -5  -3  -4 2.37157 0.75557   3
  -5  -3  -4 2.70871 0.69403   2
   5   3   4 2.54408 0.59671   5
   5   3   4 2.71192 0.66038   6
   5   3   4 1.63018 0.77180   9
   5   3   4 2.55574 0.67131   1
  -6  -3  -4 26.1467 2.34197   3
  -6  -3  -4 24.8253 1.97602   2
  -6  -3  -4 28.0120 2.40719   7
   6   3   4 28.7557 2.00813   6
   6   3   4 24.3162 2.09554   9
   6   3   4 25.9521 1.97366   5
   6   3   4 27.0743 1.90725   1
  -7  -3  -4 41.5405 3.36321   3
  -7  -3  -4 46.3714 3.10322   2
  -7  -3  -4 49.8350 3.64558   7
   7   3   4 47.1686 3.00855   6
   7   3   4 44.8624 3.02762   5
  -8  -3  -4 2.87135 1.07754   7
  -8  -3  -4 1.19639 0.75713   2
  -8  -3  -4 1.53265 0.82559   3
   8   3   4 1.79579 0.92519   6
   8   3   4 1.46607 0.80922   5
   8   3   4 1.55230 0.79897   3
  -9  -3  -4 45.1062 4.01126   7
  -9  -3  -4 48.5462 3.51431   2
  -9  -3  -4 48.7803 4.05282   3
   9   3   4 43.9617 3.27101   6
   9   3   4 52.1362 3.56456   5
   9   3   4 41.4481 3.66001   3
 -10  -3  -4 0.34097 0.79282   7
 -10  -3  -4 0.20679 1.03825   3
  10   3   4 -1.1930 0.69743   6
  10   3   4 -0.6769 0.87354   3
  10   3   4 0.70962 0.92094   5
   8  -4  -4 27.4830 2.93508   8
   8  -4  -4 31.3221 2.84081   2
   8  -4  -4 27.8642 3.54413   4
  -8   4   4 27.3868 2.98726   8
  -8   4   4 23.5348 3.05560   2
  -8   4   4 30.0205 4.18471   4
   7  -4  -4 20.4445 2.36614   7
   7  -4  -4 20.8529 2.41264   2
   7  -4  -4 19.8417 2.34956   8
  -7   4   4 17.6812 2.26546   8
  -7   4   4 16.6464 2.30756   2
  -7   4   4 16.4281 2.65344   4
   6  -4  -4 4.76915 1.08813   2
   6  -4  -4 5.74202 1.19013   7
   6  -4  -4 5.65630 1.21354   8
   6  -4  -4 5.43090 1.57107   9
  -6   4   4 3.07109 0.99939   2
  -6   4   4 3.71235 1.05847   8
  -6   4   4 6.69335 1.62821   4
  -6   4   4 4.39354 1.17922   1
  -6   4   4 5.18793 1.47623   9
   5  -4  -4 21.0583 1.83199   2
   5  -4  -4 19.6949 2.06349   7
   5  -4  -4 17.9151 1.96885   8
  -5   4   4 15.9168 2.36653   9
  -5   4   4 17.3753 2.18875   1
  -5   4   4 14.5993 1.83264   8
  -5   4   4 17.9655 2.15422   2
  -5   4   4 17.3052 2.40310   4
   4  -4  -4 0.98986 0.58353   8
   4  -4  -4 0.94174 0.42520   3
   4  -4  -4 2.52073 0.66211   7
   4  -4  -4 1.25306 0.53844   2
  -4   4   4 1.05793 0.71681   9
  -4   4   4 1.28492 0.64885   8
  -4   4   4 1.16365 0.57700   2
  -4   4   4 1.20170 0.68352   4
  -4   4   4 2.27761 0.56095   6
  -4   4   4 1.65904 0.78521   1
   3  -4  -4 44.2743 2.90864   8
   3  -4  -4 55.4763 2.66062   3
   3  -4  -4 48.0220 2.87743   7
   3  -4  -4 46.6295 2.94834   2
  -3   4   4 44.3347 3.47577   9
  -3   4   4 44.5932 3.22095   1
  -3   4   4 45.1957 2.67099   6
  -3   4   4 47.6763 2.99086   8
  -3   4   4 47.0178 3.31804   4
   2  -4  -4 0.04871 0.19550   2
   2  -4  -4 0.18125 0.29781   7
   2  -4  -4 0.00707 0.09827   5
   2  -4  -4 -0.0689 0.15309   3
   2  -4  -4 0.12092 0.30644   8
  -2   4   4 -0.1323 0.18088   6
  -2   4   4 -0.6178 0.34577   9
  -2   4   4 -0.0424 0.31167   8
  -2   4   4 -0.0737 0.29066   1
  -2   4   4 -0.1375 0.27398   4
  -2   4   4 0.02080 0.08484   5
   1  -4  -4 35.1953 2.15655   7
   1  -4  -4 32.6987 2.18068   2
   1  -4  -4 35.7507 1.84109   3
   1  -4  -4 35.3696 2.18953   8
  -1   4   4 32.3297 2.57244   9
  -1   4   4 35.3095 2.22154   8
  -1   4   4 31.4654 2.39806   4
  -1   4   4 35.7651 2.12649   6
  -1   4   4 40.1886 1.65506   5
  -1   4   4 38.5036 2.51429   1
   0  -4  -4 -0.0465 0.15511   2
   0  -4  -4 0.43002 0.23415   8
   0  -4  -4 0.35207 0.27503   7
   0  -4  -4 0.76225 0.21483   3
   0   4   4 0.05182 0.23742   4
   0   4   4 0.27973 0.21188   6
   0   4   4 -0.0131 0.21717   8
   0   4   4 0.32304 0.11812   5
   0   4   4 0.26673 0.34377   9
   0   4   4 0.04514 0.25436   1
  -1  -4  -4 70.1522 3.69234   2
  -1  -4  -4 71.9134 3.72541   7
  -1  -4  -4 62.3324 3.51430   8
  -1  -4  -4 71.7148 3.50659   3
   1   4   4 72.5864 3.67446   6
   1   4   4 75.4756 3.89692   1
   1   4   4 67.8861 3.35503   5
   1   4   4 70.3324 3.78091   4
   1   4   4 78.0224 4.12410   9
  -2  -4  -4 15.8476 1.31318   7
  -2  -4  -4 15.1297 1.21292   3
  -2  -4  -4 17.9891 1.11542   8
  -2  -4  -4 18.3453 1.28390   2
   2   4   4 20.0431 1.57646   9
   2   4   4 18.2968 1.43466   1
   2   4   4 17.7450 1.29350   6
   2   4   4 16.3994 1.10113   5
   2   4   4 16.5978 1.22562   4
  -3  -4  -4 83.2568 4.40527   7
  -3  -4  -4 76.4607 4.23172   3
  -3  -4  -4 76.8367 4.11464   2
  -3  -4  -4 84.4632 3.80250   8
   3   4   4 75.1672 3.98596   5
   3   4   4 78.5135 4.38271   9
   3   4   4 82.4327 4.24524   1
   3   4   4 80.2452 3.89450   4
   3   4   4 80.1083 4.15027   6
  -4  -4  -4 77.9048 4.82580   7
  -4  -4  -4 79.8079 4.74125   3
  -4  -4  -4 94.7854 4.12012   8
  -4  -4  -4 85.2211 4.56462   2
   4   4   4 90.3703 4.84645   9
   4   4   4 88.3336 4.59490   1
   4   4   4 91.1798 4.60815   6
   4   4   4 88.7191 4.51396   5
  -5  -4  -4 9.59447 1.47492   7
  -5  -4  -4 11.0919 1.29747   2
  -5  -4  -4 10.8967 1.53255   3
   5   4   4 12.1128 1.38706   1
   5   4   4 12.1159 1.41940   6
   5   4   4 12.3994 1.59507   9
   5   4   4 8.31863 1.11657   5
  -6  -4  -4 44.1981 2.75941   2
  -6  -4  -4 41.7889 3.18350   7
  -6  -4  -4 37.5635 2.94811   3
   6   4   4 38.0775 2.62115   1
   6   4   4 37.3803 2.60435   5
   6   4   4 44.8051 2.73631   6
   6   4   4 38.1047 2.83726   9
  -7  -4  -4 16.1321 1.83801   2
  -7  -4  -4 12.3938 1.99207   7
  -7  -4  -4 10.4454 1.75089   3
   7   4   4 14.0214 1.73283   6
   7   4   4 13.3410 1.65524   5
  -8  -4  -4 1.91381 0.89337   3
  -8  -4  -4 2.09984 0.87101   2
  -8  -4  -4 2.16026 1.03585   7
   8   4   4 1.58275 0.83644   5
   8   4   4 2.15701 0.81167   6
  -9  -4  -4 61.7684 4.70188   3
  -9  -4  -4 66.2723 4.98921   7
  -9  -4  -4 62.9160 4.30402   2
   9   4   4 61.3968 4.20714   5
   9   4   4 59.0414 4.54869   3
   9   4   4 63.8010 4.23347   6
 -10  -4  -4 0.77942 0.94154   7
 -10  -4  -4 1.08715 1.12923   3
  10   4   4 0.56955 0.85232   3
  10   4   4 -1.5033 1.10206   6
  10   4   4 0.92447 1.07926   5
   8  -5  -4 1.38957 1.10059   7
   8  -5  -4 0.55426 0.88187   2
   8  -5  -4 1.57346 0.85757   8
  -8   5   4 3.05295 1.30675   4
  -8   5   4 0.91563 0.71856   8
  -8   5   4 2.73833 1.05483   2
   7  -5  -4 0.84886 0.86183   2
   7  -5  -4 -0.8852 0.53524   7
   7  -5  -4 1.06173 0.68646   8
  -7   5   4 1.61772 0.89973   4
  -7   5   4 1.37819 0.98685   2
  -7   5   4 1.25041 0.79803   8
   6  -5  -4 8.12898 1.40476   8
   6  -5  -4 8.04781 1.38404   7
   6  -5  -4 4.70170 1.21468   2
  -6   5   4 6.50992 1.38250   1
  -6   5   4 5.30271 1.34773   2
  -6   5   4 4.63625 1.45712   4
  -6   5   4 4.95884 1.17483   8
   5  -5  -4 0.93825 0.56018   7
   5  -5  -4 0.74309 0.51619   2
   5  -5  -4 0.26831 0.42196   8
  -5   5   4 0.54561 0.58982   4
  -5   5   4 0.96710 0.59408   8
  -5   5   4 0.98978 0.62406   2
  -5   5   4 1.05715 0.72375   9
  -5   5   4 0.61947 0.67070   1
   4  -5  -4 32.5054 2.37689   2
   4  -5  -4 29.9035 2.28807   7
  -4   5   4 24.4103 2.47499   4
  -4   5   4 33.7476 2.55771   2
  -4   5   4 30.3505 2.78705   9
  -4   5   4 26.9561 2.27910   8
  -4   5   4 33.7150 2.67162   1
   3  -5  -4 49.1580 3.03932   7
   3  -5  -4 49.9391 3.12415   2
   3  -5  -4 54.7585 2.77151   3
  -3   5   4 49.5439 3.13788   8
  -3   5   4 44.6089 3.58069   9
  -3   5   4 48.4425 3.38892   1
  -3   5   4 49.7110 2.75866   6
  -3   5   4 43.4724 3.34453   4
   2  -5  -4 26.5602 1.59773   3
   2  -5  -4 26.6790 1.97245   2
   2  -5  -4 28.0304 1.93907   7
   2  -5  -4 30.4632 1.99145   8
  -2   5   4 27.1758 1.94750   8
  -2   5   4 26.5856 1.72570   6
  -2   5   4 22.4901 2.22509   9
  -2   5   4 26.8045 2.17085   1
  -2   5   4 25.0492 2.18743   4
   1  -5  -4 21.6146 1.58485   8
   1  -5  -4 18.9420 1.55723   2
   1  -5  -4 23.3930 1.33907   3
   1  -5  -4 23.1024 1.62171   7
  -1   5   4 20.1468 1.58344   8
  -1   5   4 18.5023 1.75042   1
  -1   5   4 20.2070 1.79860   4
  -1   5   4 23.9574 2.04724   9
  -1   5   4 22.7152 1.49319   6
   0  -5  -4 1.77120 0.38072   3
   0  -5  -4 2.51192 0.58495   7
   0  -5  -4 1.56903 0.44007   8
   0  -5  -4 1.91303 0.51155   2
   0   5   4 2.24089 0.59388   4
   0   5   4 2.12498 0.51751   8
   0   5   4 1.89852 0.59045   1
   0   5   4 1.66189 0.67071   9
   0   5   4 2.28331 0.47470   6
   0   5   4 2.38521 0.20966   5
  -1  -5  -4 137.390 6.60044   7
  -1  -5  -4 135.410 6.51807   2
  -1  -5  -4 135.211 6.34376   3
  -1  -5  -4 128.956 6.31667   8
   1   5   4 132.790 6.69793   1
   1   5   4 136.317 6.62762   4
   1   5   4 135.624 6.43225   6
   1   5   4 129.352 6.36098   8
   1   5   4 128.779 6.89702   9
   1   5   4 129.996 6.07723   5
  -2  -5  -4 29.0049 1.85861   3
  -2  -5  -4 27.2348 1.61559   8
  -2  -5  -4 29.0167 1.98389   7
  -2  -5  -4 31.7525 1.89224   2
   2   5   4 31.3025 2.05965   1
   2   5   4 28.8741 2.17353   9
   2   5   4 28.4279 1.83023   4
   2   5   4 28.6697 1.85460   6
   2   5   4 24.3386 1.57980   5
  -3  -5  -4 0.29216 0.31476   7
  -3  -5  -4 0.09781 0.19731   2
  -3  -5  -4 0.33960 0.19015   8
  -3  -5  -4 -0.1994 0.26060   3
   3   5   4 0.11312 0.24353   5
   3   5   4 -0.0428 0.65802   9
   3   5   4 0.19692 0.25160   4
   3   5   4 0.12911 0.57614   1
   3   5   4 0.45600 0.39039   6
  -4  -5  -4 46.6571 2.73958   5
  -4  -5  -4 44.3819 3.07637   7
  -4  -5  -4 44.2687 2.75513   2
  -4  -5  -4 44.0223 2.97742   3
   4   5   4 46.8190 2.82955   6
   4   5   4 48.3810 2.93379   1
   4   5   4 50.8227 3.25773   9
   4   5   4 50.3334 2.77306   5
  -5  -5  -4 40.9245 3.13910   7
  -5  -5  -4 47.3455 2.81523   5
  -5  -5  -4 48.4467 2.82697   2
  -5  -5  -4 44.4669 3.08758   3
   5   5   4 45.1172 2.87158   6
   5   5   4 41.7853 2.81563   1
   5   5   4 42.4047 2.70807   5
   5   5   4 45.4397 3.18907   9
  -6  -5  -4 18.9046 1.67955   5
  -6  -5  -4 18.7220 2.31721   7
  -6  -5  -4 20.9705 1.67547   2
  -6  -5  -4 22.0009 2.43392   3
   6   5   4 15.5174 2.07502   9
   6   5   4 18.9531 1.68270   5
   6   5   4 18.2120 1.80955   1
   6   5   4 17.1935 1.88642   6
  -7  -5  -4 4.39961 1.20394   7
  -7  -5  -4 7.63536 1.27370   2
  -7  -5  -4 7.72979 1.49919   3
   7   5   4 7.31565 1.27221   5
   7   5   4 6.17342 1.25782   6
   7   5   4 5.94045 1.31868   1
  -8  -5  -4 3.27043 1.11709   3
  -8  -5  -4 1.48058 0.88193   2
  -8  -5  -4 1.19947 0.89583   7
   8   5   4 5.61459 1.24705   6
   8   5   4 2.83061 0.96332   5
  -9  -5  -4 1.00350 0.83548   3
  -9  -5  -4 0.35744 0.74446   7
   9   5   4 1.05173 0.86941   5
   9   5   4 -1.2164 0.94169   6
   7  -6  -4 0.55683 0.84121   8
   7  -6  -4 2.01782 0.94263   7
   7  -6  -4 1.88139 0.97481   2
  -7   6   4 1.04336 1.01953   2
  -7   6   4 0.94536 0.74771   4
  -7   6   4 1.63404 0.96092   8
   6  -6  -4 0.19744 0.64003   8
   6  -6  -4 -0.6671 0.50970   2
   6  -6  -4 -0.2719 0.66619   7
  -6   6   4 1.38335 1.00379   2
  -6   6   4 -0.1708 0.65489   4
  -6   6   4 -0.0605 0.60776   8
   5  -6  -4 28.0500 2.37869   2
   5  -6  -4 27.5693 2.32532   7
  -5   6   4 29.7771 2.88514   9
  -5   6   4 25.3069 2.87160   2
  -5   6   4 25.7565 3.07886   4
  -5   6   4 28.4296 2.59135   1
  -5   6   4 24.5892 2.60625   8
   4  -6  -4 37.5858 2.67423   7
   4  -6  -4 37.5927 2.71582   2
  -4   6   4 33.2656 2.56315   8
  -4   6   4 31.2517 2.72273   1
  -4   6   4 34.9212 3.11331   9
  -4   6   4 33.1099 2.92011   4
   3  -6  -4 2.00464 0.63038   2
   3  -6  -4 1.47070 0.54319   3
   3  -6  -4 0.55688 0.45185   7
  -3   6   4 0.17665 0.53607   1
  -3   6   4 1.32998 0.57676   8
  -3   6   4 -0.2735 0.37787   4
  -3   6   4 0.45629 0.57131   9
   2  -6  -4 11.6552 0.99580   3
   2  -6  -4 9.75507 1.31426   7
   2  -6  -4 10.5310 1.40307   2
  -2   6   4 13.8356 1.76649   1
  -2   6   4 12.5926 1.47796   8
  -2   6   4 11.2769 1.62684   4
  -2   6   4 9.39808 1.63997   9
  -2   6   4 12.3024 1.03850   6
   1  -6  -4 18.8407 1.24945   3
   1  -6  -4 17.8219 1.45039   8
   1  -6  -4 16.3864 1.44477   7
   1  -6  -4 15.0356 1.42885   2
  -1   6   4 18.9570 1.88806   9
  -1   6   4 16.6950 1.67063   1
  -1   6   4 17.7754 1.30694   6
  -1   6   4 16.5770 1.43537   8
  -1   6   4 16.3872 1.61037   4
   0  -6  -4 100.367 4.79253   3
   0  -6  -4 92.0603 4.99332   2
   0  -6  -4 98.3138 5.09386   7
   0  -6  -4 98.7120 4.91243   8
   0   6   4 98.1996 5.24672   4
   0   6   4 99.0194 4.85036   6
   0   6   4 87.5308 5.17013   1
   0   6   4 97.4504 5.51694   9
   0   6   4 93.9972 4.91961   8
  -1  -6  -4 18.6230 1.40574   3
  -1  -6  -4 18.2970 1.45729   2
  -1  -6  -4 18.2971 1.33070   8
  -1  -6  -4 20.2405 1.62306   7
   1   6   4 23.0617 1.66918   4
   1   6   4 19.5906 1.84483   9
   1   6   4 19.5766 1.44113   6
   1   6   4 20.0140 1.13912   5
   1   6   4 20.4516 1.70995   1
   1   6   4 19.6268 1.39374   8
  -2  -6  -4 89.3803 4.65747   2
  -2  -6  -4 88.4557 4.36997   8
  -2  -6  -4 89.5650 4.70092   3
  -2  -6  -4 93.9023 4.91375   7
   2   6   4 89.5389 5.14096   9
   2   6   4 89.9828 4.66304   6
   2   6   4 86.9081 4.66955   4
   2   6   4 99.4999 5.02445   1
   2   6   4 84.2691 4.33436   5
  -3  -6  -4 9.03578 1.00361   5
  -3  -6  -4 7.00176 1.10077   3
  -3  -6  -4 7.94847 1.06177   2
  -3  -6  -4 7.17910 1.16183   7
  -3  -6  -4 10.3765 0.71149   8
   3   6   4 10.0249 1.17998   6
   3   6   4 10.4685 0.95434   4
   3   6   4 12.6651 1.58224   1
   3   6   4 8.31264 0.95317   5
   3   6   4 8.50064 1.40515   9
  -4  -6  -4 47.0722 2.82164   5
  -4  -6  -4 47.0519 2.86182   2
  -4  -6  -4 47.7769 3.25116   7
  -4  -6  -4 47.3997 3.15819   3
   4   6   4 49.8403 3.13707   1
   4   6   4 48.4120 3.34793   9
   4   6   4 52.9938 3.02116   6
   4   6   4 45.8202 2.77552   5
  -5  -6  -4 86.7689 5.00146   7
  -5  -6  -4 81.3291 4.34904   2
  -5  -6  -4 76.9465 4.33073   5
  -5  -6  -4 74.2395 4.67638   3
   5   6   4 75.9255 4.43003   6
   5   6   4 75.9258 4.30613   5
   5   6   4 78.0322 4.79536   9
   5   6   4 81.5197 4.61304   1
  -6  -6  -4 8.19162 1.54500   3
  -6  -6  -4 10.6128 1.38779   5
  -6  -6  -4 12.4701 1.45840   2
  -6  -6  -4 10.3782 1.82985   7
   6   6   4 7.33353 1.47074   1
   6   6   4 8.20403 1.31460   6
   6   6   4 8.27197 1.25284   5
   6   6   4 10.2953 1.71811   9
  -7  -6  -4 76.2291 4.39227   5
  -7  -6  -4 58.1254 4.53195   3
  -7  -6  -4 68.1577 4.85471   7
  -7  -6  -4 74.2184 4.27084   2
   7   6   4 76.4593 4.50538   1
   7   6   4 68.3604 4.78518   9
   7   6   4 67.6391 4.33879   6
   7   6   4 74.5692 4.36844   5
  -8  -6  -4 0.05243 0.72819   3
  -8  -6  -4 0.69755 0.96409   7
   8   6   4 -0.6051 0.58098   6
   8   6   4 -0.0828 0.59070   5
  -9  -6  -4 30.6315 3.60205   3
  -9  -6  -4 22.2477 3.21091   7
   9   6   4 24.3245 2.93671   6
   9   6   4 29.1640 2.55704   5
   7  -7  -4 16.6383 2.30632   8
   7  -7  -4 19.3265 2.57535   2
   7  -7  -4 14.5221 2.26768   7
  -7   7   4 16.9111 2.68997   4
  -7   7   4 11.6606 1.96930   8
   6  -7  -4 12.3598 1.97413   7
   6  -7  -4 11.2628 1.79395   8
   6  -7  -4 12.6512 1.93941   2
  -6   7   4 9.57030 1.68673   8
  -6   7   4 9.03916 1.95318   4
   5  -7  -4 0.47594 0.55665   2
   5  -7  -4 0.34083 0.69224   7
  -5   7   4 1.64834 0.84745   4
  -5   7   4 0.63683 0.55428   8
  -5   7   4 0.89589 0.70370   1
   4  -7  -4 7.63427 1.43176   2
   4  -7  -4 10.7020 1.61982   7
  -4   7   4 8.18788 1.37101   8
  -4   7   4 11.5174 1.90388   4
  -4   7   4 11.7386 1.81603   1
  -4   7   4 8.20205 1.66795   9
   3  -7  -4 9.57863 1.42547   2
   3  -7  -4 9.33258 1.42512   7
  -3   7   4 7.09231 1.47971   4
  -3   7   4 9.10896 1.38575   8
  -3   7   4 7.30035 1.38431   1
  -3   7   4 10.2538 1.75359   9
   2  -7  -4 60.8522 3.23940   3
   2  -7  -4 61.1508 3.63703   7
   2  -7  -4 57.2021 3.57423   2
  -2   7   4 57.4278 4.05564   9
  -2   7   4 53.3821 3.45929   8
  -2   7   4 59.2099 3.92250   4
  -2   7   4 54.2329 3.74981   1
   1  -7  -4 2.26101 0.70469   7
   1  -7  -4 1.06983 0.46410   2
   1  -7  -4 0.88937 0.38383   3
   1  -7  -4 1.29356 0.46077   8
  -1   7   4 0.64526 0.32978   6
  -1   7   4 1.18195 0.61153   9
  -1   7   4 2.11993 0.76205   1
  -1   7   4 1.30093 0.68172   4
  -1   7   4 0.69704 0.41142   8
   0  -7  -4 35.4880 2.48362   7
   0  -7  -4 36.1290 2.41103   2
   0  -7  -4 39.1687 2.34439   8
   0  -7  -4 39.6409 2.30067   3
   0   7   4 37.5852 2.25107   6
   0   7   4 37.8975 2.87818   9
   0   7   4 34.3173 2.58954   1
   0   7   4 36.7922 2.34594   8
   0   7   4 32.2444 2.53679   4
  -1  -7  -4 5.09491 0.85848   2
  -1  -7  -4 4.31133 0.92179   7
  -1  -7  -4 5.11140 0.81564   3
  -1  -7  -4 4.42862 0.70104   8
   1   7   4 4.50855 0.74846   8
   1   7   4 3.93371 1.06158   1
   1   7   4 5.56547 1.01224   4
   1   7   4 5.48880 0.89317   6
   1   7   4 4.29857 1.18893   9
  -2  -7  -4 3.85554 0.75227   2
  -2  -7  -4 3.12176 0.53243   8
  -2  -7  -4 2.40399 0.46725   5
  -2  -7  -4 3.66063 0.86426   7
  -2  -7  -4 4.63925 0.83705   3
   2   7   4 2.43663 0.46460   5
   2   7   4 2.84342 0.88926   1
   2   7   4 3.01586 0.98653   9
   2   7   4 3.62216 0.83180   6
   2   7   4 3.46229 0.78142   4
  -3  -7  -4 4.41524 0.73168   5
  -3  -7  -4 5.01250 0.85903   2
  -3  -7  -4 3.92785 0.89729   3
  -3  -7  -4 5.28569 1.07666   7
   3   7   4 6.39846 0.84624   5
   3   7   4 7.05041 1.36906   1
   3   7   4 4.28974 1.32737   9
   3   7   4 5.61684 0.94957   6
   3   7   4 5.71709 0.88496   4
  -4  -7  -4 1.06362 0.46009   2
  -4  -7  -4 0.24650 0.46025   7
  -4  -7  -4 1.11546 0.47395   5
  -4  -7  -4 1.48520 0.61566   3
   4   7   4 0.41073 0.50676   6
   4   7   4 -0.2835 0.91309   9
   4   7   4 0.45002 0.38745   5
   4   7   4 2.01208 1.01923   1
  -5  -7  -4 51.4691 3.71092   7
  -5  -7  -4 55.8670 3.23699   2
  -5  -7  -4 55.2540 3.27394   5
  -5  -7  -4 52.3314 3.61969   3
   5   7   4 51.5511 3.50159   1
   5   7   4 48.9888 3.83355   9
   5   7   4 52.5452 3.33755   6
   5   7   4 54.0965 3.24048   5
  -6  -7  -4 -0.0613 0.42218   3
  -6  -7  -4 0.03634 0.42082   5
  -6  -7  -4 -0.3123 0.39984   2
  -6  -7  -4 0.22486 0.52609   7
   6   7   4 -0.9981 0.55248   1
   6   7   4 -1.9931 1.00880   9
   6   7   4 -0.0002 0.29449   5
   6   7   4 -0.5800 0.39273   6
  -7  -7  -4 7.95089 1.69610   3
  -7  -7  -4 6.77740 1.22774   5
  -7  -7  -4 6.76701 1.68515   7
   7   7   4 8.48897 1.47790   6
   7   7   4 4.02974 1.72583   9
   7   7   4 8.91733 1.77500   1
   7   7   4 8.63882 1.38491   5
  -8  -7  -4 21.0986 2.83779   3
  -8  -7  -4 22.7989 3.05620   7
  -8  -7  -4 19.5499 2.28788   5
   8   7   4 22.8030 2.56357   6
   8   7   4 23.3102 2.47723   5
  -9  -7  -4 5.65499 1.63040   7
  -9  -7  -4 11.4835 2.31068   3
   9   7   4 3.67841 1.54173   6
   9   7   4 8.75488 1.71557   5
   6  -8  -4 0.46689 0.78540   2
   6  -8  -4 2.00066 0.93685   8
   6  -8  -4 2.97530 1.15957   7
  -6   8   4 1.59998 0.80836   8
  -6   8   4 3.39230 1.26018   4
   5  -8  -4 6.01278 1.47683   7
   5  -8  -4 5.53601 1.26540   2
  -5   8   4 4.24453 1.31949   4
  -5   8   4 5.86212 1.38735   1
  -5   8   4 4.10907 1.08634   8
   4  -8  -4 3.96891 1.05569   2
   4  -8  -4 6.21022 1.31444   7
  -4   8   4 4.87397 1.19046   8
  -4   8   4 4.35599 1.25503   4
  -4   8   4 7.36439 1.51486   1
  -4   8   4 6.97096 1.57803   9
   3  -8  -4 25.4970 2.24575   2
   3  -8  -4 26.2680 2.28583   7
  -3   8   4 22.6759 2.31478   1
  -3   8   4 29.4657 2.68334   4
  -3   8   4 28.0006 2.30076   8
  -3   8   4 30.1614 2.75558   9
   2  -8  -4 2.81716 0.77792   2
   2  -8  -4 3.53796 0.98331   7
  -2   8   4 3.58090 1.01979   1
  -2   8   4 4.87903 1.18160   9
  -2   8   4 2.50584 0.71224   8
  -2   8   4 3.64295 1.06105   4
   1  -8  -4 23.3560 1.73185   3
   1  -8  -4 24.2643 1.93769   2
   1  -8  -4 25.9741 2.11251   7
   1  -8  -4 24.9584 1.85739   8
  -1   8   4 20.8173 2.03658   1
  -1   8   4 20.3391 2.06541   4
  -1   8   4 21.8217 1.80956   8
  -1   8   4 22.8623 2.23800   9
   0  -8  -4 10.5067 1.23174   8
   0  -8  -4 8.54002 1.38676   7
   0  -8  -4 10.0480 1.24214   3
   0  -8  -4 8.21681 1.22686   2
   0   8   4 8.50512 1.13774   8
   0   8   4 8.74424 1.44365   4
   0   8   4 8.07647 1.45325   1
   0   8   4 12.3549 1.82984   9
   0   8   4 9.01286 1.09488   6
  -1  -8  -4 86.3514 4.67319   2
  -1  -8  -4 88.7041 4.95456   7
  -1  -8  -4 83.3678 4.40947   8
  -1  -8  -4 86.0993 4.66211   3
   1   8   4 86.1326 5.00616   1
   1   8   4 83.5075 4.51983   6
   1   8   4 78.8266 4.42039   8
   1   8   4 89.6507 5.34641   9
   1   8   4 89.1915 4.91457   4
  -2  -8  -4 0.00537 0.32176   2
  -2  -8  -4 -0.1132 0.33280   3
  -2  -8  -4 0.48331 0.45143   7
   2   8   4 -0.0595 0.63971   9
   2   8   4 -0.2177 0.32707   4
   2   8   4 -0.3153 0.52378   6
   2   8   4 1.22943 0.91632   1
  -3  -8  -4 21.3060 1.85483   3
  -3  -8  -4 16.5296 1.37463   5
  -3  -8  -4 17.6137 1.53381   2
  -3  -8  -4 17.4406 2.11049   7
   3   8   4 22.4543 1.70029   4
   3   8   4 20.7679 2.56991   9
   3   8   4 16.7741 1.35312   5
   3   8   4 16.2019 1.81407   6
   3   8   4 23.0294 2.05516   1
  -4  -8  -4 3.99823 1.09412   3
  -4  -8  -4 7.14433 1.08386   2
  -4  -8  -4 9.19246 1.14673   5
  -4  -8  -4 7.42377 1.38316   7
   4   8   4 5.46036 1.15349   6
   4   8   4 6.58728 0.94295   5
   4   8   4 7.38858 1.57313   9
   4   8   4 4.45360 1.19953   1
  -5  -8  -4 27.0731 2.40925   3
  -5  -8  -4 26.5955 2.00668   2
  -5  -8  -4 20.6491 2.65674   7
  -5  -8  -4 28.0771 2.08951   5
   5   8   4 30.9380 2.37100   6
   5   8   4 24.0710 1.96026   5
   5   8   4 27.1797 2.58859   1
   5   8   4 24.1729 2.99905   9
  -6  -8  -4 1.60460 0.63354   5
  -6  -8  -4 2.58498 1.01209   7
  -6  -8  -4 4.56778 1.24444   3
   6   8   4 0.59946 1.19606   1
   6   8   4 3.09119 0.79496   5
   6   8   4 1.89211 0.98477   6
  -7  -8  -4 9.61605 1.90812   3
  -7  -8  -4 11.1426 2.07730   7
  -7  -8  -4 8.72822 1.44344   5
   7   8   4 7.96187 1.67958   6
   7   8   4 6.57697 1.78927   1
   7   8   4 9.45150 1.49449   5
  -8  -8  -4 13.1255 2.23964   3
  -8  -8  -4 10.1522 1.69185   5
  -8  -8  -4 9.06137 2.01027   7
   8   8   4 7.85437 1.81145   6
   8   8   4 9.79681 1.61463   5
   6  -9  -4 7.49023 1.71198   2
   6  -9  -4 5.25014 1.35849   8
   6  -9  -4 8.89262 1.75673   7
  -6   9   4 9.27745 2.04584   4
  -6   9   4 4.26762 1.24558   8
   5  -9  -4 0.60178 0.65284   7
   5  -9  -4 -0.4489 0.46067   2
  -5   9   4 0.36903 0.78281   8
  -5   9   4 0.65503 0.75462   4
   4  -9  -4 3.82562 1.22399   7
   4  -9  -4 3.96276 1.06512   2
  -4   9   4 5.02769 1.15046   8
  -4   9   4 4.19183 1.13938   1
  -4   9   4 3.75734 1.18741   4
   3  -9  -4 1.52643 0.90216   7
   3  -9  -4 2.86044 0.97599   2
  -3   9   4 3.75415 1.08257   1
  -3   9   4 2.01953 0.74496   8
  -3   9   4 3.40966 0.93620   9
  -3   9   4 2.26313 0.92559   4
   2  -9  -4 0.45331 0.43646   7
   2  -9  -4 -0.2159 0.46815   2
  -2   9   4 0.49268 0.49061   8
  -2   9   4 0.40754 0.57014   1
  -2   9   4 0.24437 0.45163   4
   1  -9  -4 10.7228 1.47044   2
   1  -9  -4 9.48595 1.28368   8
   1  -9  -4 7.33105 1.32415   7
   1  -9  -4 10.8580 1.54324   3
  -1   9   4 7.66255 1.21248   8
  -1   9   4 9.92314 1.64350   4
  -1   9   4 10.9674 1.63051   1
  -1   9   4 9.96442 1.68909   9
   0  -9  -4 2.06673 0.61592   8
   0  -9  -4 1.96697 0.73410   2
   0  -9  -4 2.22364 0.70564   3
   0  -9  -4 2.68662 0.91325   7
   0   9   4 3.23651 1.02400   1
   0   9   4 2.47307 0.87325   4
   0   9   4 2.33143 0.66560   8
   0   9   4 3.79855 1.05766   9
  -1  -9  -4 4.56786 0.93764   3
  -1  -9  -4 6.62811 1.19497   7
  -1  -9  -4 3.77547 0.87263   2
   1   9   4 2.95161 1.09995   1
   1   9   4 3.93599 1.01644   4
   1   9   4 3.94894 0.79596   8
   1   9   4 4.54730 0.92374   6
   1   9   4 5.13059 1.27433   9
  -2  -9  -4 12.8156 1.83350   7
  -2  -9  -4 16.9571 1.55646   2
  -2  -9  -4 19.8480 1.77315   3
   2   9   4 20.9821 2.02472   1
   2   9   4 16.3450 1.53650   6
   2   9   4 17.5170 2.47102   9
   2   9   4 16.7304 1.68556   4
  -3  -9  -4 115.498 6.00087   2
  -3  -9  -4 116.150 6.56059   7
   3   9   4 111.218 6.53622   1
   3   9   4 112.093 6.83997   9
   3   9   4 119.535 6.18213   4
   3   9   4 114.706 6.07802   6
  -4  -9  -4 106.638 6.06098   3
  -4  -9  -4 108.229 6.24655   7
  -4  -9  -4 104.227 5.46685   5
  -4  -9  -4 107.768 5.60195   2
   4   9   4 102.935 5.68823   6
   4   9   4 97.2880 5.37827   5
   4   9   4 102.605 6.13685   1
  -5  -9  -4 23.4413 2.85079   7
  -5  -9  -4 23.7785 2.69685   3
  -5  -9  -4 22.0070 1.91045   5
   5   9   4 24.7590 2.13761   6
   5   9   4 23.2808 2.79538   1
   5   9   4 22.4718 1.90417   5
  -6  -9  -4 31.6541 2.91557   3
  -6  -9  -4 34.6390 3.11817   7
  -6  -9  -4 30.4710 2.48735   5
   6   9   4 32.7181 2.81356   6
   6   9   4 34.0802 2.55085   5
   6   9   4 31.6795 3.40555   1
  -7  -9  -4 5.82479 1.54576   3
  -7  -9  -4 6.82293 1.82896   7
  -7  -9  -4 6.30419 1.26014   5
   7   9   4 2.62856 1.33481   1
   7   9   4 8.19768 1.42326   5
   7   9   4 5.44319 1.36424   6
  -8  -9  -4 5.85387 1.37357   5
  -8  -9  -4 2.63127 1.42761   7
  -8  -9  -4 2.63111 1.19321   3
   8   9   4 6.92005 1.49091   5
   8   9   4 5.40198 1.53379   6
   8   9   4 5.62293 1.72374   1
   5 -10  -4 4.76068 1.44012   7
   5 -10  -4 4.58262 1.40239   2
  -5  10   4 3.15447 1.27730   8
  -5  10   4 4.08065 1.49023   4
   4 -10  -4 19.3399 2.56408   2
   4 -10  -4 27.7012 3.02505   7
  -4  10   4 25.8875 2.55747   1
  -4  10   4 26.6488 3.31526   4
  -4  10   4 28.1878 2.90783   8
   3 -10  -4 48.8608 3.60645   7
   3 -10  -4 48.7230 3.54078   2
  -3  10   4 44.2316 3.30757   8
  -3  10   4 48.2142 3.64638   1
  -3  10   4 43.3436 3.75608   4
   2 -10  -4 45.2480 3.27342   2
   2 -10  -4 48.0356 3.47536   7
  -2  10   4 46.8026 3.49149   1
  -2  10   4 40.7714 3.49745   4
  -2  10   4 41.2978 3.09792   8
   1 -10  -4 1.35007 0.60611   2
   1 -10  -4 1.10737 0.64522   7
   1 -10  -4 1.76457 0.69102   8
  -1  10   4 0.84841 0.58549   4
  -1  10   4 0.41192 0.57984   8
  -1  10   4 2.30285 0.78394   1
   0 -10  -4 33.4953 2.39475   8
   0 -10  -4 36.8146 2.65482   2
   0 -10  -4 36.9082 2.62507   3
   0 -10  -4 32.8028 2.73685   7
   0  10   4 38.7263 3.04355   1
   0  10   4 31.8489 2.41601   8
   0  10   4 35.7024 2.87536   4
  -1 -10  -4 1.84628 0.89208   7
  -1 -10  -4 0.56257 0.54577   2
  -1 -10  -4 1.85754 0.73189   3
   1  10   4 0.31553 0.58243   4
   1  10   4 1.58673 1.02500   1
  -2 -10  -4 37.4730 2.59487   2
  -2 -10  -4 32.2741 2.71613   3
  -2 -10  -4 37.2172 3.03577   7
   2  10   4 39.8885 2.89810   4
   2  10   4 38.6531 2.69437   6
   2  10   4 39.1976 3.10753   1
  -3 -10  -4 2.87473 0.90101   3
  -3 -10  -4 0.73979 0.66165   7
  -3 -10  -4 1.55536 0.70702   2
   3  10   4 0.36015 0.62912   6
   3  10   4 0.99012 0.93666   1
   3  10   4 2.95850 0.94022   4
  -4 -10  -4 98.1177 6.16152   7
  -4 -10  -4 96.7163 5.99065   3
   4  10   4 97.3253 6.14693   1
   4  10   4 108.696 5.73248   6
  -5 -10  -4 58.2963 4.35244   7
  -5 -10  -4 53.2985 4.08913   3
  -5 -10  -4 55.4189 3.53541   5
   5  10   4 58.3973 3.56896   5
   5  10   4 56.1686 3.76716   6
   5  10   4 55.5318 4.27028   1
  -6 -10  -4 0.27744 0.68348   3
  -6 -10  -4 2.44326 1.07493   7
  -6 -10  -4 2.50112 0.78883   5
   6  10   4 1.77654 0.66293   5
   6  10   4 -1.6126 1.22383   1
   6  10   4 0.47317 0.79268   6
  -7 -10  -4 3.80651 1.08916   5
  -7 -10  -4 5.00877 1.72762   7
  -7 -10  -4 1.81168 1.19158   3
   7  10   4 3.31461 1.51266   1
   7  10   4 2.88900 0.93531   5
   7  10   4 2.52479 1.17866   6
   4 -11  -4 2.15110 1.03767   2
   4 -11  -4 0.78756 0.82152   7
  -4  11   4 0.30654 0.78531   8
  -4  11   4 6.07694 1.63603   4
   3 -11  -4 28.8199 3.30811   7
   3 -11  -4 36.3910 2.93831   2
  -3  11   4 27.4767 2.93917   8
  -3  11   4 36.4658 3.35272   4
  -3  11   4 31.3606 2.92245   1
   2 -11  -4 0.21505 0.46890   8
   2 -11  -4 -0.4607 0.60682   2
   2 -11  -4 0.31503 0.60647   7
  -2  11   4 -0.5999 0.62315   4
  -2  11   4 -0.6325 0.32566   8
  -2  11   4 0.92498 0.48232   1
   1 -11  -4 0.19366 0.39353   8
   1 -11  -4 0.69400 0.64762   2
   1 -11  -4 0.26835 0.78280   7
  -1  11   4 0.22199 0.36404   1
  -1  11   4 0.04324 0.54472   8
  -1  11   4 1.05125 0.65448   4
   0 -11  -4 3.48114 1.04473   7
   0 -11  -4 4.25725 1.07951   2
   0  11   4 2.69348 0.92442   1
   0  11   4 0.78502 0.65530   4
  -1 -11  -4 18.7151 2.45845   7
  -1 -11  -4 21.8692 1.96513   2
  -1 -11  -4 20.6705 2.31797   3
   1  11   4 22.5110 2.67060   1
   1  11   4 20.2127 2.46138   4
  -2 -11  -4 0.71537 0.75033   3
  -2 -11  -4 -0.0402 0.57764   7
   2  11   4 1.17244 0.56244   4
   2  11   4 0.14731 0.72246   1
  -3 -11  -4 12.8383 1.87945   3
  -3 -11  -4 16.3539 2.30619   7
   3  11   4 11.9140 2.06122   1
   3  11   4 12.5700 1.70235   6
  -4 -11  -4 23.9183 2.96232   7
  -4 -11  -4 25.6158 2.88480   3
   4  11   4 22.5640 2.44985   6
   4  11   4 26.4752 3.22153   1
  -5 -11  -4 10.2577 2.05816   7
  -5 -11  -4 8.30720 1.70743   3
   5  11   4 6.39361 1.56023   6
   5  11   4 6.67059 1.72023   1
  -6 -11  -4 4.99949 1.49038   7
  -6 -11  -4 4.92113 1.59508   3
   6  11   4 5.61545 1.45146   6
   6  11   4 4.12466 1.94890   1
   3 -12  -4 9.46175 1.75151   2
   3 -12  -4 9.52547 1.71860   8
   3 -12  -4 11.6600 2.05450   7
  -3  12   4 5.43642 1.47891   8
  -3  12   4 9.30194 1.78477   1
  -3  12   4 12.6358 2.35396   4
   2 -12  -4 7.66895 1.62040   7
   2 -12  -4 9.04648 1.55706   8
   2 -12  -4 8.20855 1.53460   2
  -2  12   4 4.53637 1.25612   8
  -2  12   4 8.62777 1.64747   1
  -2  12   4 9.71927 2.05928   4
   1 -12  -4 0.80238 0.73543   2
   1 -12  -4 1.20921 0.87400   7
  -1  12   4 0.90953 0.54974   1
  -1  12   4 0.71126 0.61573   4
   0 -12  -4 10.7785 1.88604   7
   0 -12  -4 15.9865 2.00251   2
   0  12   4 11.2307 1.93085   1
   0  12   4 12.2489 2.05444   4
  -1 -12  -4 2.59163 1.00520   7
   1  12   4 4.53216 1.24890   4
   1  12   4 4.48292 1.49448   1
  -2 -12  -4 16.0487 2.39347   7
  -2 -12  -4 18.2184 2.39221   3
   2  12   4 15.5321 2.48712   1
   2  12   4 16.2998 2.24078   4
  -3 -12  -4 55.4965 4.24207   3
  -3 -12  -4 58.9033 4.54472   7
   3  12   4 66.4862 4.66607   1
  -4 -12  -4 -0.6078 0.49515   3
  -4 -12  -4 -0.0821 0.68713   7
   4  12   4 -1.2810 1.02414   6
   4  12   4 0.40418 1.31752   1
  -5 -12  -4 0.93076 1.00801   3
  -5 -12  -4 2.75616 1.40769   7
   5  12   4 1.49569 1.32200   1
   5  12   4 0.37723 0.87193   6
   2 -13  -4 2.18509 1.06549   2
   1 -13  -4 6.79616 1.46444   2
   1 -13  -4 5.88163 1.58195   7
  -1  13   4 6.49624 1.70030   4
  -1  13   4 9.00796 1.67954   1
   0 -13  -4 14.2632 2.37838   7
   0  13   4 16.9439 2.45876   1
   0  13   4 18.8093 2.63827   4
  -1 -13  -4 18.8553 2.56576   7
   1  13   4 15.5828 2.57291   1
   1  13   4 17.6481 2.43569   4
  -2 -13  -4 10.4179 1.96913   7
   2  13   4 8.96067 2.10364   1
  -3 -13  -4 1.57118 1.08686   3
  -3 -13  -4 2.74127 1.19616   7
   3  13   4 2.13940 1.50459   1
   1  12  -5 1.00709 1.32153   1
   1  12  -5 4.52481 2.11406   4
  -1 -12   5 3.21863 1.34326   5
   0  12  -5 19.0191 2.80796   1
   0  12  -5 19.1168 3.08017   4
   0 -12   5 23.3077 3.09732   3
  -1  12  -5 2.30625 1.62017   4
   1 -12   5 0.82812 0.82152   3
  -2  12  -5 5.68799 1.97145   4
   2 -12   5 10.3173 2.17139   3
   3  11  -5 1.24401 1.41704   4
   3  11  -5 2.04768 0.92908   6
   3  11  -5 2.11528 1.63506   1
  -3 -11   5 5.43269 1.72108   3
  -3 -11   5 1.96981 1.07823   5
   2  11  -5 26.1365 3.27441   4
   2  11  -5 22.0070 3.14629   1
  -2 -11   5 27.1346 3.42828   3
  -2 -11   5 21.2509 2.66803   5
   1  11  -5 -1.0060 1.30627   4
   1  11  -5 0.72877 1.08195   1
  -1 -11   5 0.98094 0.89257   5
  -1 -11   5 -0.1537 0.72439   3
   0  11  -5 3.55971 1.38072   1
   0  11  -5 4.62306 1.56458   4
   0 -11   5 6.58058 1.63358   3
   0 -11   5 4.76642 1.22729   5
  -1  11  -5 -1.1738 1.97157   1
  -1  11  -5 -0.7207 1.28545   4
   1 -11   5 1.22230 1.10940   3
  -2  11  -5 77.6248 5.47030   4
   2 -11   5 78.9661 5.52413   3
  -3  11  -5 1.18586 0.98799   4
  -3  11  -5 0.19923 0.76876   8
   3 -11   5 0.09057 0.86651   7
   3 -11   5 1.87838 1.07707   3
  -4  11  -5 13.8090 2.02893   8
  -4  11  -5 14.8983 2.52735   4
   4 -11   5 10.9220 2.05566   3
   4 -11   5 14.1070 2.20429   7
  -5  11  -5 4.93011 1.39236   8
  -5  11  -5 6.19458 1.69280   4
   5 -11   5 4.95404 1.56106   7
   5 -11   5 6.98334 2.06534   3
   4  10  -5 1.25697 0.76717   6
   4  10  -5 -1.8461 1.21500   4
   4  10  -5 1.12468 1.10551   1
  -4 -10   5 -0.2518 0.72525   3
  -4 -10   5 0.67703 0.70862   6
  -4 -10   5 0.19122 0.92723   5
   3  10  -5 0.88078 0.63818   6
   3  10  -5 1.95142 1.41256   1
   3  10  -5 -0.4187 1.27016   4
  -3 -10   5 -0.3943 0.87970   3
  -3 -10   5 -0.9215 0.71604   5
  -3 -10   5 -0.1631 0.50609   6
   2  10  -5 8.06124 1.86401   4
   2  10  -5 8.84164 1.49968   6
   2  10  -5 14.2691 2.39708   1
  -2 -10   5 13.2622 1.82178   6
  -2 -10   5 11.2243 2.06071   3
  -2 -10   5 12.6451 1.87046   5
   1  10  -5 3.18302 1.37396   4
   1  10  -5 0.13468 1.06187   1
  -1 -10   5 3.24243 1.09469   5
  -1 -10   5 1.61117 0.88339   3
   0  10  -5 12.1390 2.08774   1
   0  10  -5 8.63544 1.87724   4
   0 -10   5 10.1195 1.65826   5
   0 -10   5 9.02489 1.85522   3
  -1  10  -5 -1.4601 0.93370   1
  -1  10  -5 0.20325 0.84410   4
   1 -10   5 1.51299 1.01327   3
   1 -10   5 0.88926 0.69431   5
  -2  10  -5 2.60560 0.87278   8
  -2  10  -5 2.57424 1.22775   4
   2 -10   5 4.02037 1.05950   5
   2 -10   5 1.40755 0.92338   7
   2 -10   5 2.63959 1.02652   3
  -3  10  -5 4.05029 1.35385   4
  -3  10  -5 3.92104 1.09398   8
   3 -10   5 5.19461 1.51114   3
   3 -10   5 3.88075 1.18214   7
  -4  10  -5 12.2112 1.78354   8
  -4  10  -5 12.7216 2.24219   4
   4 -10   5 8.96710 1.82967   3
   4 -10   5 8.71559 1.71348   7
  -5  10  -5 14.1871 2.09981   8
  -5  10  -5 19.5291 2.68731   4
   5 -10   5 11.7492 2.02929   7
   5 -10   5 18.6161 2.63375   3
  -6  10  -5 0.13338 0.89495   8
  -6  10  -5 2.03893 0.86255   4
  -6  10  -5 0.34551 1.09793   2
   6 -10   5 1.41721 0.92842   7
   6 -10   5 0.74918 1.42646   2
   6 -10   5 -0.1876 0.72792   3
   5   9  -5 0.15295 0.65702   6
   5   9  -5 0.77783 1.10765   1
   5   9  -5 -1.9775 1.16452   4
  -5  -9   5 2.61063 1.00002   6
  -5  -9   5 1.53719 1.25213   3
  -5  -9   5 0.22838 0.71187   5
   4   9  -5 17.5069 2.24433   6
   4   9  -5 17.3140 2.71020   4
   4   9  -5 20.5812 2.79194   1
  -4  -9   5 15.1862 2.43709   3
  -4  -9   5 15.2028 2.10640   6
  -4  -9   5 14.3762 2.20859   5
   3   9  -5 6.06955 1.77923   4
   3   9  -5 9.46059 1.52968   6
   3   9  -5 7.67096 1.69253   1
  -3  -9   5 9.77173 1.75290   5
  -3  -9   5 9.80647 1.59114   6
  -3  -9   5 7.53470 1.64759   3
   2   9  -5 0.80725 0.61422   6
   2   9  -5 1.58408 1.24292   4
   2   9  -5 1.59490 0.92177   1
  -2  -9   5 1.64312 1.05344   3
  -2  -9   5 1.47272 0.74018   6
  -2  -9   5 1.90105 0.88309   5
   1   9  -5 -0.1051 0.45129   6
   1   9  -5 -1.1973 0.54885   4
   1   9  -5 -0.0010 0.87046   1
  -1  -9   5 0.14541 0.51610   6
  -1  -9   5 0.63257 0.69938   5
  -1  -9   5 -0.9320 0.59116   3
   0   9  -5 27.7425 2.69933   4
   0   9  -5 26.6126 2.67730   9
   0   9  -5 24.1386 2.45371   1
   0  -9   5 29.6372 2.71002   3
   0  -9   5 29.4876 2.42665   5
  -1   9  -5 8.85848 1.77307   4
  -1   9  -5 10.2485 1.34527   8
  -1   9  -5 7.71482 1.80777   9
  -1   9  -5 8.73073 1.54291   1
   1  -9   5 10.3424 1.73260   3
   1  -9   5 8.62699 1.45759   5
  -2   9  -5 1.62620 0.71929   8
  -2   9  -5 5.55490 1.61525   4
   2  -9   5 1.05127 0.69690   7
   2  -9   5 3.54816 1.15440   3
   2  -9   5 3.11104 0.94052   5
  -3   9  -5 3.87062 1.46581   4
  -3   9  -5 3.32643 1.00745   8
   3  -9   5 5.81067 1.22043   5
   3  -9   5 6.07942 1.45806   3
   3  -9   5 5.50867 1.24630   7
  -4   9  -5 110.824 6.46454   8
  -4   9  -5 120.369 7.05680   4
   4  -9   5 127.362 7.13253   3
   4  -9   5 115.137 6.73109   7
  -5   9  -5 2.90116 1.16763   2
  -5   9  -5 1.77027 1.05404   4
  -5   9  -5 2.64917 0.90408   8
   5  -9   5 2.75792 1.17525   3
   5  -9   5 1.30366 0.80166   2
   5  -9   5 2.12972 1.00863   7
  -6   9  -5 -0.6710 0.48951   2
  -6   9  -5 -0.4968 0.48587   8
  -6   9  -5 0.78250 0.57839   4
   6  -9   5 0.29429 0.74468   3
   6  -9   5 -0.2295 0.40519   2
   6  -9   5 0.02699 0.76988   7
  -7   9  -5 27.0886 3.06696   8
  -7   9  -5 29.1693 3.46637   2
  -7   9  -5 32.7583 3.03643   4
   7  -9   5 29.3966 3.56666   3
   7  -9   5 30.5472 3.52480   7
  -6  -8   5 7.46261 1.90318   3
   5   8  -5 0.63344 0.87294   1
   5   8  -5 -0.1808 1.12606   4
   5   8  -5 1.25925 0.91119   6
  -5  -8   5 0.02554 0.84377   6
  -5  -8   5 0.50366 0.74929   3
  -5  -8   5 0.39551 0.84094   5
   4   8  -5 1.85903 1.06851   4
   4   8  -5 2.21369 1.11686   1
   4   8  -5 4.61056 1.13544   6
  -4  -8   5 2.57035 1.02465   3
  -4  -8   5 4.90863 1.16818   6
  -4  -8   5 3.60538 1.16016   5
   3   8  -5 15.3431 1.98763   6
   3   8  -5 14.7838 2.25735   4
   3   8  -5 12.5124 2.04737   1
  -3  -8   5 14.3149 2.00952   5
  -3  -8   5 15.5543 1.97061   6
  -3  -8   5 20.1214 2.50718   3
   2   8  -5 1.16114 0.91480   4
   2   8  -5 1.30058 0.89559   1
   2   8  -5 1.62593 0.70680   6
  -2  -8   5 0.95468 0.66073   6
  -2  -8   5 0.76749 0.69693   5
  -2  -8   5 -0.2684 0.47061   3
   1   8  -5 40.3175 2.76596   6
   1   8  -5 44.0241 3.12702   1
   1   8  -5 37.5772 3.24417   4
   1   8  -5 40.3607 3.39799   9
  -1  -8   5 40.5676 3.16606   3
  -1  -8   5 43.3792 3.02787   5
  -1  -8   5 41.1370 2.78487   6
   0   8  -5 0.90769 0.48481   6
   0   8  -5 -0.7865 0.63933   9
   0   8  -5 -0.4047 0.87134   4
   0   8  -5 -0.1824 0.62584   1
   0   8  -5 -0.0232 0.39548   8
   0  -8   5 0.22954 0.41705   5
   0  -8   5 0.22319 0.43661   6
   0  -8   5 0.45773 0.69232   3
  -1   8  -5 9.96669 1.74133   4
  -1   8  -5 11.4658 1.67431   1
  -1   8  -5 9.20311 1.70678   9
  -1   8  -5 11.8631 1.39416   8
   1  -8   5 12.4631 1.65197   5
   1  -8   5 9.59344 1.34651   7
   1  -8   5 10.8127 1.75708   3
  -2   8  -5 0.52707 0.83581   1
  -2   8  -5 2.47621 1.02731   4
  -2   8  -5 2.43453 0.72332   8
   2  -8   5 1.51391 0.69229   5
   2  -8   5 0.96375 0.64118   7
   2  -8   5 1.77704 0.78604   3
  -3   8  -5 -0.5260 0.44813   8
  -3   8  -5 -0.6339 0.55412   4
   3  -8   5 -0.2502 0.64613   3
   3  -8   5 -0.1804 0.44236   7
   3  -8   5 -0.3657 0.45658   5
  -4   8  -5 72.4256 4.68476   4
  -4   8  -5 70.5556 4.34063   8
  -4   8  -5 69.5263 4.45632   2
   4  -8   5 67.7425 4.65205   3
   4  -8   5 72.4017 4.48622   7
   4  -8   5 73.3788 4.32304   5
  -5   8  -5 15.1987 2.15094   4
  -5   8  -5 15.9914 2.00134   8
  -5   8  -5 16.3565 2.22488   2
   5  -8   5 13.9810 2.06911   3
   5  -8   5 15.1051 2.10908   5
   5  -8   5 13.1160 1.96047   7
  -6   8  -5 2.22121 1.06391   2
  -6   8  -5 0.89114 0.82187   8
  -6   8  -5 0.99589 0.72939   4
   6  -8   5 0.18349 0.54855   7
   6  -8   5 0.66347 0.88824   3
  -7   8  -5 0.97699 0.87329   8
  -7   8  -5 2.03802 1.19054   2
   7  -8   5 1.07080 0.84154   3
   7  -8   5 -0.3274 0.60833   7
  -8   8  -5 4.25676 1.53916   2
   8  -8   5 6.36592 1.80680   7
   6   7  -5 -0.4756 0.72948   1
   6   7  -5 0.39403 0.83729   6
  -6  -7   5 0.10656 0.92248   3
  -6  -7   5 -0.7667 0.71143   6
  -6  -7   5 0.39288 0.62205   5
   5   7  -5 14.0817 2.36019   1
   5   7  -5 12.7343 2.13863   4
   5   7  -5 12.0674 1.93123   6
  -5  -7   5 12.8943 1.97283   6
  -5  -7   5 13.7669 2.22218   3
  -5  -7   5 11.7153 1.90882   5
   4   7  -5 6.75965 1.45895   1
   4   7  -5 9.79219 1.59856   6
   4   7  -5 10.3329 1.76385   4
  -4  -7   5 8.13065 1.49301   6
  -4  -7   5 7.89996 1.49258   5
  -4  -7   5 7.47516 1.63666   3
   3   7  -5 0.28683 0.62182   4
   3   7  -5 0.29210 0.78234   1
   3   7  -5 0.81169 0.70347   6
  -3  -7   5 0.75026 0.59364   5
  -3  -7   5 -0.7406 0.56132   3
  -3  -7   5 0.19867 0.59882   6
   2   7  -5 -0.0532 0.43555   6
   2   7  -5 -0.2343 0.42453   1
   2   7  -5 0.12886 0.73684   9
   2   7  -5 -0.3350 0.46598   4
  -2  -7   5 0.51452 0.57503   6
  -2  -7   5 0.11356 0.45581   3
  -2  -7   5 0.56066 0.63218   5
   1   7  -5 0.76033 0.45401   8
   1   7  -5 0.70506 0.43654   6
   1   7  -5 0.76180 0.56008   1
   1   7  -5 0.87398 0.70205   4
   1   7  -5 1.21120 0.79824   9
  -1  -7   5 0.33192 0.40017   6
  -1  -7   5 0.15177 0.58953   3
  -1  -7   5 1.49780 0.62734   5
   0   7  -5 2.66114 0.93369   9
   0   7  -5 3.08910 0.69294   8
   0   7  -5 2.94012 0.97696   4
   0   7  -5 2.51763 0.79092   1
   0  -7   5 2.67397 0.83400   3
   0  -7   5 3.47789 0.76156   6
   0  -7   5 2.68571 0.69953   7
   0  -7   5 5.17958 1.01873   5
  -1   7  -5 17.0153 2.12371   4
  -1   7  -5 18.6652 1.92839   9
  -1   7  -5 17.0870 1.50144   8
  -1   7  -5 18.6389 1.72603   1
   1  -7   5 20.4047 1.50614   6
   1  -7   5 19.0049 1.71163   5
   1  -7   5 18.8601 1.54919   7
   1  -7   5 18.4927 2.11425   3
  -2   7  -5 35.3916 2.32722   8
  -2   7  -5 30.0206 2.59733   4
  -2   7  -5 32.6141 2.31788   1
  -2   7  -5 31.3452 2.52886   9
   2  -7   5 32.9527 2.57653   3
   2  -7   5 32.5724 2.31164   7
   2  -7   5 33.3731 2.43880   5
  -3   7  -5 0.40400 0.52855   2
  -3   7  -5 0.83111 0.90103   4
  -3   7  -5 0.36203 0.39233   8
   3  -7   5 0.79789 0.57299   5
   3  -7   5 0.16890 0.51423   7
   3  -7   5 0.64398 0.66179   3
  -4   7  -5 4.68823 1.05428   8
  -4   7  -5 7.60923 1.33218   2
  -4   7  -5 7.91822 1.47447   4
   4  -7   5 7.17223 1.16574   5
   4  -7   5 7.45922 1.28780   7
   4  -7   5 7.88837 1.38993   3
  -5   7  -5 0.28889 0.48084   4
  -5   7  -5 -0.3807 0.32447   8
  -5   7  -5 1.10057 0.75661   2
   5  -7   5 0.58785 0.61135   3
   5  -7   5 0.27152 0.61416   7
   5  -7   5 0.37271 0.56427   5
  -6   7  -5 38.6768 3.17150   2
  -6   7  -5 34.7568 2.82721   8
  -6   7  -5 38.7578 3.01482   4
   6  -7   5 40.7930 3.22778   3
   6  -7   5 38.6262 2.80195   5
   6  -7   5 35.7504 3.06671   7
  -7   7  -5 0.44543 0.88729   2
  -7   7  -5 0.97926 0.84372   8
   7  -7   5 1.33244 0.97763   7
   7  -7   5 0.17402 0.81483   3
  -8   7  -5 12.3095 1.99447   8
  -8   7  -5 15.8349 2.57220   2
   8  -7   5 12.6751 2.13699   3
   8  -7   5 11.9922 2.16514   7
   7   6  -5 -0.2082 0.84050   1
  -7  -6   5 0.24140 0.77051   3
   6   6  -5 3.09044 1.11580   1
   6   6  -5 1.56964 0.83912   6
   6   6  -5 2.10811 1.11609   4
  -6  -6   5 2.81439 1.25430   3
  -6  -6   5 0.93562 0.69603   6
  -6  -6   5 2.19524 0.84015   5
   5   6  -5 66.5473 4.41595   4
   5   6  -5 64.3247 4.45883   1
   5   6  -5 57.2730 4.08606   6
  -5  -6   5 59.9961 4.10266   5
  -5  -6   5 64.3305 4.20292   6
  -5  -6   5 54.0296 4.22044   3
   4   6  -5 2.02170 0.84667   4
   4   6  -5 3.65102 1.06125   6
   4   6  -5 2.29245 0.97206   1
  -4  -6   5 2.18622 0.92976   5
  -4  -6   5 3.10100 1.04871   3
  -4  -6   5 0.93175 0.76916   6
   3   6  -5 11.2015 1.57920   6
   3   6  -5 11.7652 1.75997   1
   3   6  -5 10.5838 1.66629   4
   3   6  -5 10.7088 1.91323   9
  -3  -6   5 7.73397 1.45203   3
  -3  -6   5 9.59488 1.50377   5
  -3  -6   5 11.2609 1.60872   6
   2   6  -5 6.57142 1.25758   1
   2   6  -5 6.14650 1.40592   9
   2   6  -5 6.40876 1.28072   4
   2   6  -5 5.83054 0.84348   8
  -2  -6   5 5.58406 1.16698   3
  -2  -6   5 5.15456 1.11700   5
  -2  -6   5 4.97937 1.01180   6
   1   6  -5 57.5073 3.81292   9
   1   6  -5 52.1925 3.38335   1
   1   6  -5 53.4912 3.53765   4
   1   6  -5 57.2545 2.99858   8
  -1  -6   5 50.8932 3.35275   5
  -1  -6   5 49.2552 3.19000   6
  -1  -6   5 48.1738 3.36267   3
   0   6  -5 153.323 7.43512   9
   0   6  -5 134.604 6.96279   1
   0   6  -5 132.865 6.61550   8
   0   6  -5 132.798 7.20778   4
   0  -6   5 128.777 7.05966   3
   0  -6   5 134.012 6.53821   7
   0  -6   5 129.848 6.97149   5
   0  -6   5 135.257 6.79589   6
  -1   6  -5 14.7136 1.46225   8
  -1   6  -5 14.8464 1.41235   1
  -1   6  -5 15.6094 1.93993   4
  -1   6  -5 15.0886 1.58409   9
   1  -6   5 13.1408 1.22636   6
   1  -6   5 16.6982 1.85481   3
   1  -6   5 15.3506 1.26316   7
   1  -6   5 16.9923 1.51200   5
  -2   6  -5 7.68165 1.05377   2
  -2   6  -5 5.88751 0.93278   8
  -2   6  -5 6.32372 1.13715   9
  -2   6  -5 7.20535 1.31451   4
  -2   6  -5 7.94827 1.10611   1
   2  -6   5 7.69730 1.23976   3
   2  -6   5 7.47290 1.19207   5
   2  -6   5 8.87314 1.13602   7
   2  -6   5 8.15911 0.93890   6
  -3   6  -5 16.3985 1.42427   8
  -3   6  -5 14.1681 1.64238   2
  -3   6  -5 16.1034 1.92662   4
   3  -6   5 15.0851 1.82898   3
   3  -6   5 13.9885 1.64178   5
   3  -6   5 14.6069 1.67359   7
  -4   6  -5 51.5685 3.20831   8
  -4   6  -5 49.2592 3.34082   4
  -4   6  -5 49.3689 3.29359   2
   4  -6   5 46.2814 3.07675   5
   4  -6   5 52.1722 3.29772   7
   4  -6   5 50.1652 3.40346   3
  -5   6  -5 0.21296 0.66259   4
  -5   6  -5 -0.5399 0.26640   8
  -5   6  -5 0.09810 0.56436   2
   5  -6   5 0.36786 0.49107   3
   5  -6   5 -0.3133 0.56048   7
   5  -6   5 1.04148 0.55509   5
  -6   6  -5 13.6375 1.81140   8
  -6   6  -5 14.9632 1.92086   4
  -6   6  -5 18.6842 2.32537   2
   6  -6   5 15.2373 2.14875   7
   6  -6   5 17.6576 1.96865   5
   6  -6   5 16.6481 2.21736   3
  -7   6  -5 25.5462 2.94847   2
  -7   6  -5 28.0917 2.80365   8
   7  -6   5 27.0449 2.30532   5
   7  -6   5 22.4342 2.84409   7
   7  -6   5 24.4195 2.86174   3
  -8   6  -5 36.9434 3.89221   2
  -8   6  -5 35.4340 2.95453   8
   8  -6   5 37.4540 3.35576   3
   8  -6   5 32.4997 3.63853   7
  -9   6  -5 28.4095 3.18795   8
  -9   6  -5 26.6045 3.97583   2
   9  -6   5 36.0250 4.45599   7
   9  -6   5 31.9428 4.06496   3
   7   5  -5 2.72921 1.02311   6
   7   5  -5 1.64379 1.08032   1
  -7  -5   5 2.54553 0.94892   5
  -7  -5   5 3.50823 1.16155   6
  -7  -5   5 2.01170 1.19952   3
   6   5  -5 2.39435 0.92756   6
   6   5  -5 2.63844 1.04970   1
   6   5  -5 3.46046 1.19746   4
  -6  -5   5 2.93743 0.95934   5
  -6  -5   5 1.68696 0.79020   6
  -6  -5   5 2.81276 1.16628   3
   5   5  -5 -0.0586 0.43499   6
   5   5  -5 0.49507 0.73166   4
   5   5  -5 -0.1623 0.51323   1
  -5  -5   5 -0.0017 0.50798   3
  -5  -5   5 0.42516 0.71412   6
  -5  -5   5 0.13992 0.48593   5
   4   5  -5 136.496 7.23986   1
   4   5  -5 133.066 7.14649   4
   4   5  -5 123.442 8.18749   9
   4   5  -5 127.653 6.91016   6
  -4  -5   5 118.707 6.94433   3
  -4  -5   5 122.729 6.82931   5
  -4  -5   5 118.598 6.81615   6
   3   5  -5 262.508 12.9778   4
   3   5  -5 312.236 13.8097   9
   3   5  -5 264.512 13.0071   1
  -3  -5   5 234.225 12.6489   5
  -3  -5   5 277.127 12.8327   6
  -3  -5   5 229.959 12.7056   3
   2   5  -5 0.55736 0.40025   8
   2   5  -5 -0.0261 0.42883   4
   2   5  -5 1.65906 0.84710   9
   2   5  -5 0.60014 0.56223   1
  -2  -5   5 0.72069 0.53913   6
  -2  -5   5 0.27680 0.51881   5
  -2  -5   5 0.78438 0.50308   3
   1   5  -5 17.7154 1.88471   9
   1   5  -5 17.6859 1.33355   8
   1   5  -5 16.7574 1.63973   1
   1   5  -5 20.9481 1.80348   4
  -1  -5   5 17.4190 1.52402   6
  -1  -5   5 17.5784 1.58273   5
  -1  -5   5 16.5590 1.56909   3
   0   5  -5 1.72944 0.52634   8
   0   5  -5 1.83103 0.78123   4
   0   5  -5 2.90072 0.80330   9
   0   5  -5 2.11553 0.58462   1
   0  -5   5 1.80717 0.52076   6
   0  -5   5 0.83801 0.53727   5
   0  -5   5 3.26701 0.74020   3
   0  -5   5 2.14176 0.44871   7
  -1   5  -5 10.7730 1.38482   9
  -1   5  -5 11.0766 0.92295   2
  -1   5  -5 10.0286 1.18831   1
  -1   5  -5 10.6062 1.13117   8
  -1   5  -5 10.4476 1.42264   4
   1  -5   5 8.73170 1.24603   5
   1  -5   5 9.61083 1.12308   6
   1  -5   5 8.27284 1.27011   3
   1  -5   5 10.8966 1.11373   7
  -2   5  -5 21.0999 1.48016   1
  -2   5  -5 19.2548 1.47300   2
  -2   5  -5 17.7355 1.48315   8
  -2   5  -5 20.6686 1.87611   4
  -2   5  -5 20.4971 1.64058   9
   2  -5   5 19.2557 1.37255   6
   2  -5   5 19.5681 1.48989   7
   2  -5   5 18.6423 1.64301   3
   2  -5   5 17.0822 1.52985   5
  -3   5  -5 11.7053 1.01666   1
  -3   5  -5 9.27826 1.22694   8
  -3   5  -5 12.4320 1.41320   2
  -3   5  -5 10.5756 1.45149   4
  -3   5  -5 9.82525 1.13105   9
   3  -5   5 10.7345 1.34116   5
   3  -5   5 14.7918 1.66720   3
   3  -5   5 12.0226 1.38567   7
   3  -5   5 13.1288 0.97255   6
  -4   5  -5 148.186 6.97439   8
  -4   5  -5 132.602 7.04159   2
  -4   5  -5 129.249 6.99796   4
   4  -5   5 133.185 6.90105   5
   4  -5   5 131.550 7.00967   7
   4  -5   5 140.098 7.18656   3
  -5   5  -5 42.2487 3.11113   2
  -5   5  -5 40.6178 2.87620   8
  -5   5  -5 45.6720 3.01679   4
  -5   5  -5 49.4103 3.47695   7
   5  -5   5 47.1372 2.98176   5
   5  -5   5 43.7799 3.14505   7
   5  -5   5 47.7488 3.26603   3
  -6   5  -5 -0.2144 0.45614   7
  -6   5  -5 0.47387 0.56041   8
  -6   5  -5 0.04361 0.47514   4
  -6   5  -5 -0.4921 0.53168   2
   6  -5   5 0.24499 0.46519   7
   6  -5   5 0.16787 0.70645   3
   6  -5   5 -0.5700 0.45173   5
  -7   5  -5 66.3467 4.61753   2
  -7   5  -5 66.9698 4.96206   7
  -7   5  -5 71.0558 4.41500   8
   7  -5   5 71.5355 4.32511   5
   7  -5   5 70.2679 4.70792   3
   7  -5   5 72.8196 4.78186   7
  -8   5  -5 11.9464 1.85618   8
  -8   5  -5 10.5227 2.19841   7
  -8   5  -5 8.58623 1.76455   2
   8  -5   5 10.7871 1.67261   5
   8  -5   5 14.5552 2.18076   3
   8  -5   5 10.2036 1.94393   7
  -9   5  -5 3.85197 1.12678   8
  -9   5  -5 1.50058 1.13067   7
  -9   5  -5 4.07552 1.35163   2
   9  -5   5 2.13356 1.21053   3
   9  -5   5 4.04940 1.33224   7
   7   4  -5 3.05177 1.17227   1
   7   4  -5 1.84946 0.81699   6
  -7  -4   5 3.68252 1.12919   6
  -7  -4   5 2.10442 0.95483   5
  -7  -4   5 1.19153 0.82771   3
   6   4  -5 63.3617 4.36970   6
   6   4  -5 69.4432 4.75262   1
   6   4  -5 69.7858 4.64889   4
  -6  -4   5 68.1287 4.44314   6
  -6  -4   5 67.0504 4.32386   5
  -6  -4   5 58.1769 4.40064   3
   5   4  -5 33.8171 2.77748   4
   5   4  -5 32.5207 2.58642   6
   5   4  -5 30.6305 2.74110   1
  -5  -4   5 27.5781 2.40605   5
  -5  -4   5 31.5008 2.55684   6
  -5  -4   5 28.9753 2.61437   3
   4   4  -5 2.03454 0.80506   4
   4   4  -5 1.86797 0.79980   1
   4   4  -5 0.74161 0.64243   9
  -4  -4   5 0.89109 0.63142   5
  -4  -4   5 2.17271 0.86816   1
  -4  -4   5 2.80965 0.90855   3
  -4  -4   5 2.67480 0.83572   6
   3   4  -5 78.1225 4.54340   4
   3   4  -5 73.6288 3.82808   8
   3   4  -5 73.8018 4.89551   9
   3   4  -5 68.7064 4.43233   1
  -3  -4   5 69.6341 4.26895   3
  -3  -4   5 69.7749 4.25032   6
  -3  -4   5 79.7751 4.68904   1
  -3  -4   5 64.8181 4.16807   5
   2   4  -5 33.8971 2.52946   4
   2   4  -5 33.7157 2.76992   9
   2   4  -5 34.6535 2.56053   1
   2   4  -5 33.8919 2.05538   8
  -2  -4   5 29.1546 2.29651   3
  -2  -4   5 36.8803 2.68583   1
  -2  -4   5 33.4335 2.36407   6
  -2  -4   5 34.0441 2.37515   5
   1   4  -5 12.8768 1.55797   4
   1   4  -5 13.1018 1.72844   9
   1   4  -5 11.6861 1.02292   8
   1   4  -5 11.6152 1.43700   1
  -1  -4   5 9.93907 0.81013   7
  -1  -4   5 12.7106 1.40437   6
  -1  -4   5 13.5876 1.46714   3
  -1  -4   5 11.0478 1.36697   5
  -1  -4   5 16.5131 1.47385   1
   0   4  -5 3.24803 0.42497   2
   0   4  -5 2.39141 0.54247   8
   0   4  -5 3.19248 0.69441   1
   0   4  -5 2.78536 0.76426   9
   0   4  -5 3.70132 0.81720   4
   0  -4   5 3.79081 0.70760   6
   0  -4   5 3.83157 0.77192   5
   0  -4   5 3.12224 0.43695   7
   0  -4   5 3.23951 0.70580   3
  -1   4  -5 10.3898 1.11687   8
  -1   4  -5 12.0375 1.08972   1
  -1   4  -5 10.6397 1.13719   9
  -1   4  -5 11.7853 0.91999   2
  -1   4  -5 15.2968 1.41275   4
   1  -4   5 11.8570 1.34133   3
   1  -4   5 10.4155 1.29279   5
   1  -4   5 11.6938 0.91811   7
   1  -4   5 13.5742 1.09246   6
  -2   4  -5 58.5998 3.06379   9
  -2   4  -5 53.9847 2.98360   8
  -2   4  -5 55.8104 2.86358   1
  -2   4  -5 46.3870 3.05135   9
  -2   4  -5 54.0277 3.19694   4
  -2   4  -5 53.1230 2.93689   2
   2  -4   5 52.1358 3.06963   5
   2  -4   5 52.0544 3.13127   3
   2  -4   5 55.9987 2.92965   7
   2  -4   5 43.7504 2.95451   9
   2  -4   5 52.6444 2.87996   6
  -3   4  -5 10.5266 1.23506   2
  -3   4  -5 15.5719 1.20780   8
  -3   4  -5 11.1440 1.01121   9
  -3   4  -5 12.4442 1.50791   4
  -3   4  -5 11.7252 1.00561   9
  -3   4  -5 11.8401 0.89533   1
   3  -4   5 10.0764 1.19347   7
   3  -4   5 10.0549 1.31599   3
   3  -4   5 9.03119 0.92937   9
   3  -4   5 10.4373 0.91999   6
   3  -4   5 11.1649 1.31027   5
  -4   4  -5 47.1790 3.15853   2
  -4   4  -5 57.3974 3.24985   4
  -4   4  -5 49.1093 3.05561   8
  -4   4  -5 53.2677 3.43082   7
   4  -4   5 59.4768 3.40561   3
   4  -4   5 52.4181 3.24517   7
   4  -4   5 49.0021 2.77115   6
   4  -4   5 53.8092 3.17460   5
  -5   4  -5 2.26558 0.81704   2
  -5   4  -5 4.41766 1.13547   7
  -5   4  -5 3.52467 0.85946   4
  -5   4  -5 2.72612 0.75687   8
   5  -4   5 3.33416 0.91557   3
   5  -4   5 2.38892 0.69775   5
   5  -4   5 2.30710 0.79414   7
  -6   4  -5 19.2504 2.22964   2
  -6   4  -5 21.0443 2.09966   8
  -6   4  -5 18.5206 2.37178   7
  -6   4  -5 21.8783 1.77444   4
   6  -4   5 16.5796 2.11622   7
   6  -4   5 18.6411 1.71037   5
   6  -4   5 20.1324 2.24181   3
  -7   4  -5 26.4942 3.22843   7
  -7   4  -5 32.4790 2.50068   8
  -7   4  -5 30.0651 2.70840   2
   7  -4   5 33.4800 2.85846   7
   7  -4   5 31.2721 2.46928   5
   7  -4   5 28.1112 2.66588   3
  -8   4  -5 2.05899 1.04500   2
  -8   4  -5 3.81166 1.06970   8
  -8   4  -5 3.09793 1.16774   7
   8  -4   5 2.66780 0.98105   5
   8  -4   5 3.45760 1.12125   7
   8  -4   5 3.49597 1.09288   3
  -9   4  -5 11.9659 2.41347   7
  -9   4  -5 8.00842 1.55977   8
  -9   4  -5 6.96124 1.63562   2
   9  -4   5 5.49280 1.73870   7
   9  -4   5 7.41599 1.56770   5
   9  -4   5 8.42822 1.73495   3
   7   3  -5 0.90019 1.06066   1
   7   3  -5 2.20880 0.86390   6
  -7  -3   5 1.73283 0.78829   5
  -7  -3   5 2.26242 0.85504   6
   6   3  -5 1.06769 0.78546   1
   6   3  -5 0.05105 0.54882   6
   6   3  -5 1.88164 0.85828   4
  -6  -3   5 1.17441 0.70327   5
  -6  -3   5 1.72503 0.89564   3
  -6  -3   5 1.64429 0.90771   6
  -6  -3   5 0.57407 0.73709   1
   5   3  -5 0.36161 0.43724   6
   5   3  -5 0.69271 1.13998   9
   5   3  -5 -0.9931 0.71251   1
   5   3  -5 -0.3556 0.58404   4
  -5  -3   5 1.18854 0.72465   5
  -5  -3   5 0.00025 0.35299   3
  -5  -3   5 0.33949 0.73383   1
  -5  -3   5 0.64225 0.54384   6
   4   3  -5 25.1707 1.84160   8
   4   3  -5 27.3045 2.44234   1
   4   3  -5 25.3610 2.36724   4
   4   3  -5 27.9656 2.69025   9
  -4  -3   5 27.9996 2.18914   6
  -4  -3   5 24.8054 2.08424   5
  -4  -3   5 25.6786 2.17372   3
  -4  -3   5 23.8216 2.36470   1
   3   3  -5 114.627 6.59671   9
   3   3  -5 107.130 6.12790   1
   3   3  -5 116.011 6.22384   4
   3   3  -5 107.071 5.52208   8
  -3  -3   5 112.134 5.93525   6
  -3  -3   5 117.955 6.31617   1
  -3  -3   5 106.603 5.84375   3
  -3  -3   5 102.063 5.77978   5
   2   3  -5 66.1106 3.53959   8
   2   3  -5 67.3105 4.37377   9
   2   3  -5 63.6495 3.97216   1
   2   3  -5 65.9232 4.03577   4
  -2  -3   5 73.0611 4.15785   1
  -2  -3   5 67.1749 3.85409   6
  -2  -3   5 67.6633 3.82640   5
  -2  -3   5 62.8582 3.73067   3
   1   3  -5 2.40577 0.50791   8
   1   3  -5 3.29259 0.35102   2
   1   3  -5 3.94319 0.85363   1
   1   3  -5 3.49349 0.88798   9
   1   3  -5 3.55868 0.79616   4
  -1  -3   5 3.08696 0.35719   7
  -1  -3   5 2.78429 0.64127   3
  -1  -3   5 2.92425 0.78294   1
  -1  -3   5 4.60528 0.80459   6
  -1  -3   5 3.00207 0.66503   5
   0   3  -5 115.168 5.61480   4
   0   3  -5 113.212 5.78002   9
   0   3  -5 99.0206 5.39341   1
   0   3  -5 108.296 4.93550   2
   0   3  -5 107.066 5.19024   8
   0  -3   5 108.774 5.50797   1
   0  -3   5 98.4069 4.80674   7
   0  -3   5 100.379 5.34389   6
   0  -3   5 104.209 5.30936   3
   0  -3   5 105.813 5.41818   5
  -1   3  -5 8.76120 1.13781   4
  -1   3  -5 7.92155 0.92997   8
  -1   3  -5 8.72115 0.88663   1
  -1   3  -5 9.64544 0.78251   2
  -1   3  -5 10.4070 1.07410   9
   1  -3   5 10.0519 0.72476   7
   1  -3   5 10.6144 1.17549   5
   1  -3   5 9.34717 0.90880   1
   1  -3   5 7.91597 0.99401   3
   1  -3   5 8.47213 1.00711   6
  -2   3  -5 18.9216 1.44149   4
  -2   3  -5 19.2263 1.33718   9
  -2   3  -5 17.3277 1.17599   1
  -2   3  -5 16.1379 1.24298   2
  -2   3  -5 15.1499 1.22604   8
   2  -3   5 16.1432 1.33027   5
   2  -3   5 16.8328 1.34343   3
   2  -3   5 16.4846 1.25078   6
   2  -3   5 16.6425 1.20630   7
  -3   3  -5 204.730 9.99319   8
  -3   3  -5 214.142 10.2286   7
  -3   3  -5 222.564 9.74948   9
  -3   3  -5 238.100 10.1858   2
  -3   3  -5 207.992 10.1012   4
  -3   3  -5 224.793 9.64383   1
  -3   3  -5 177.108 9.76827   9
   3  -3   5 219.463 10.1031   7
   3  -3   5 216.842 10.2067   3
   3  -3   5 202.228 9.87003   6
   3  -3   5 221.891 10.1391   5
  -4   3  -5 51.7488 2.94793   8
  -4   3  -5 51.4714 2.95513   4
  -4   3  -5 52.0780 3.25377   7
  -4   3  -5 46.6086 3.02387   2
   4  -3   5 52.8117 3.12410   7
   4  -3   5 50.3989 2.73801   6
   4  -3   5 50.5325 3.11750   3
   4  -3   5 45.5812 2.92190   5
  -5   3  -5 11.2293 1.67099   7
  -5   3  -5 13.4334 1.46325   8
  -5   3  -5 12.5309 1.59492   2
  -5   3  -5 13.0713 1.30480   4
   5  -3   5 13.4554 1.08817   6
   5  -3   5 14.0222 1.72857   7
   5  -3   5 11.9470 1.55885   3
   5  -3   5 15.1616 1.55016   5
  -6   3  -5 10.2496 1.56501   2
  -6   3  -5 11.7819 1.83606   7
  -6   3  -5 12.7882 1.51656   8
   6  -3   5 12.1115 1.69854   3
   6  -3   5 7.99974 1.49770   7
   6  -3   5 11.6947 1.43225   5
  -7   3  -5 -0.2348 0.61154   7
  -7   3  -5 -0.0259 0.62400   2
  -7   3  -5 0.05531 0.34844   8
   7  -3   5 -1.0838 0.45987   5
   7  -3   5 -0.1435 0.41659   3
   7  -3   5 0.57814 0.74710   7
  -8   3  -5 0.63608 0.63746   8
  -8   3  -5 1.49064 0.91309   2
  -8   3  -5 2.03457 0.96257   7
   8  -3   5 0.49955 0.63006   7
   8  -3   5 1.56499 0.95305   3
   8  -3   5 0.58696 0.65187   5
  -9   3  -5 1.34824 0.91705   7
  -9   3  -5 0.95588 0.94537   2
  -9   3  -5 1.97391 0.92456   8
   9  -3   5 0.70249 0.85642   5
   9  -3   5 2.39524 1.06591   7
   9  -3   5 1.23870 0.99783   3
 -10   3  -5 14.4857 2.30808   8
  10  -3   5 14.9456 2.18951   5
   8   2  -5 13.0411 2.35541   1
   8   2  -5 16.2926 2.19481   6
   8   2  -5 12.2744 1.87914   5
  -8  -2   5 12.9665 1.89860   5
  -8  -2   5 18.8102 2.35771   6
   7   2  -5 4.27636 1.34372   1
   7   2  -5 3.83170 1.07873   6
   7   2  -5 2.92868 1.25554   4
  -7  -2   5 2.61608 1.24543   1
  -7  -2   5 3.54943 1.00090   6
  -7  -2   5 3.18916 0.91600   5
   6   2  -5 37.0626 3.28579   4
   6   2  -5 36.8609 2.97037   6
   6   2  -5 43.2537 3.42277   1
  -6  -2   5 37.2740 3.07247   3
  -6  -2   5 45.2242 3.17108   6
  -6  -2   5 46.3178 3.58848   1
  -6  -2   5 41.2193 2.96790   5
   5   2  -5 6.09090 1.58074   9
   5   2  -5 2.18204 0.84627   4
   5   2  -5 2.99790 0.76087   8
   5   2  -5 3.63261 1.05539   1
  -5  -2   5 6.03645 1.32138   1
  -5  -2   5 3.55316 0.86110   5
  -5  -2   5 3.23243 0.95150   3
  -5  -2   5 3.11573 0.91482   6
   4   2  -5 24.0927 1.82228   8
   4   2  -5 22.8394 2.17744   1
   4   2  -5 24.3672 2.50458   9
   4   2  -5 22.9425 2.20225   4
  -4  -2   5 26.1887 1.97636   5
  -4  -2   5 27.5601 2.11247   3
  -4  -2   5 25.1926 2.07846   6
  -4  -2   5 24.3215 2.25641   1
   3   2  -5 -0.2129 0.31516   1
   3   2  -5 0.10412 0.38141   4
   3   2  -5 0.23488 0.25048   8
   3   2  -5 0.50760 0.29833   2
   3   2  -5 0.51840 0.63324   9
  -3  -2   5 0.09872 0.38551   5
  -3  -2   5 0.86344 0.56186   1
  -3  -2   5 1.52871 0.56204   3
  -3  -2   5 -0.0487 0.38464   6
   2   2  -5 20.5631 1.76556   4
   2   2  -5 17.4004 1.34574   8
   2   2  -5 19.7613 1.97082   9
   2   2  -5 17.7906 1.08085   2
   2   2  -5 16.2173 1.58661   1
  -2  -2   5 16.0227 1.39388   5
  -2  -2   5 18.5940 1.70274   1
  -2  -2   5 16.1774 1.05502   7
  -2  -2   5 18.4296 1.42736   3
  -2  -2   5 18.4794 1.52241   6
  -2  -2   5 18.0615 2.00096   9
   1   2  -5 4.79634 1.02380   9
   1   2  -5 4.50019 0.88055   4
   1   2  -5 4.48013 0.87023   1
   1   2  -5 5.65648 0.76003   8
   1   2  -5 4.65470 0.50711   2
  -1  -2   5 5.40370 0.84460   6
  -1  -2   5 6.22846 0.89777   5
  -1  -2   5 4.54221 0.70407   3
  -1  -2   5 4.64430 0.89773   1
  -1  -2   5 4.21875 1.02452   9
   0   2  -5 23.0334 1.88660   9
   0   2  -5 19.4564 1.60162   1
   0   2  -5 23.6589 1.32777   2
   0   2  -5 23.9003 1.76466   4
   0   2  -5 22.1001 1.46500   8
   0  -2   5 21.1675 1.60179   6
   0  -2   5 22.5904 1.71400   1
   0  -2   5 24.0220 1.64568   5
   0  -2   5 22.9716 1.48185   3
   0  -2   5 23.1240 1.95489   9
  -1   2  -5 4.22379 0.64366   8
  -1   2  -5 4.34839 0.70682   1
  -1   2  -5 5.18048 0.84784   9
  -1   2  -5 4.58414 0.76982   4
  -1   2  -5 4.37252 0.83220   9
  -1   2  -5 4.80059 0.61658   2
   1  -2   5 6.32870 0.47302   7
   1  -2   5 5.82095 0.72850   3
   1  -2   5 4.78295 0.74487   5
   1  -2   5 4.72954 0.74011   6
   1  -2   5 5.33841 0.78575   1
   1  -2   5 6.48048 1.00179   9
  -2   2  -5 125.913 5.88601   7
  -2   2  -5 124.179 5.86963   8
  -2   2  -5 123.873 5.87735   2
  -2   2  -5 118.459 5.91041   9
  -2   2  -5 116.383 5.73553   1
  -2   2  -5 127.043 5.99430   4
  -2   2  -5 101.707 5.88677   9
   2  -2   5 127.898 5.95516   3
   2  -2   5 122.120 5.96938   5
   2  -2   5 122.841 5.78588   1
   2  -2   5 129.916 5.80808   7
   2  -2   5 114.690 5.88105   6
  -3   2  -5 -0.0035 0.34062   4
  -3   2  -5 -0.0069 0.17710   2
  -3   2  -5 -0.0538 0.12853   1
  -3   2  -5 0.27314 0.16768   9
  -3   2  -5 0.28649 0.34363   7
  -3   2  -5 -0.0220 0.19511   8
  -3   2  -5 0.09601 0.14389   9
   3  -2   5 0.67899 0.31360   5
   3  -2   5 0.26497 0.24579   6
   3  -2   5 -0.2146 0.18353   3
   3  -2   5 -0.1738 0.20006   7
  -4   2  -5 10.7856 1.14749   8
  -4   2  -5 10.6930 1.07082   4
  -4   2  -5 9.65055 1.34735   7
  -4   2  -5 8.42484 1.12952   2
   4  -2   5 10.9518 0.95140   6
   4  -2   5 12.8684 1.34514   5
   4  -2   5 9.95601 1.22366   3
  -5   2  -5 10.2486 1.24311   8
  -5   2  -5 10.6244 1.03760   4
  -5   2  -5 9.21172 1.33742   2
  -5   2  -5 11.2343 1.62873   7
   5  -2   5 11.1544 1.44159   3
   5  -2   5 10.3616 1.26711   5
   5  -2   5 11.2272 1.01491   6
  -6   2  -5 5.99173 1.26945   7
  -6   2  -5 4.35472 0.99403   2
  -6   2  -5 6.49762 1.03505   8
   6  -2   5 4.77483 0.92248   5
   6  -2   5 5.95114 1.24608   3
   6  -2   5 5.54090 0.88541   6
  -7   2  -5 31.0689 2.51344   2
  -7   2  -5 26.2077 2.10275   8
  -7   2  -5 28.0988 3.11142   7
   7  -2   5 25.5772 2.39844   3
   7  -2   5 28.1468 2.21265   5
  -8   2  -5 0.21578 0.75362   2
  -8   2  -5 -0.0048 0.37778   8
  -8   2  -5 0.15473 0.85041   7
   8  -2   5 0.18402 0.69953   5
   8  -2   5 0.34177 0.78090   7
   8  -2   5 -0.2556 0.52514   3
  -9   2  -5 16.8184 2.07547   8
  -9   2  -5 18.7846 2.85480   7
  -9   2  -5 15.4925 2.39978   2
   9  -2   5 19.7528 2.59933   3
   9  -2   5 13.9494 2.34923   7
   9  -2   5 15.4347 2.09202   5
 -10   2  -5 0.01795 1.19080   7
 -10   2  -5 0.59972 0.86310   2
  10  -2   5 -0.7927 0.89147   3
  10  -2   5 -0.1004 0.88573   5
  10  -2   5 0.23498 0.98104   7
   8   1  -5 14.3177 2.36780   1
   8   1  -5 6.55845 1.46164   5
   8   1  -5 11.9026 1.97687   6
  -8  -1   5 12.9143 2.31389   1
  -8  -1   5 11.6464 1.85601   6
   7   1  -5 12.6857 1.86135   6
   7   1  -5 12.1007 2.11386   4
   7   1  -5 12.9746 1.73462   5
   7   1  -5 13.2186 2.19374   1
  -7  -1   5 11.6852 1.82628   6
  -7  -1   5 11.5200 1.61831   5
  -7  -1   5 14.7978 2.32671   1
   6   1  -5 1.14136 0.63513   6
   6   1  -5 0.67077 0.67920   1
   6   1  -5 -0.5889 0.58218   4
  -6  -1   5 1.43924 0.77254   1
  -6  -1   5 0.89238 0.67795   6
  -6  -1   5 0.59973 0.58991   5
   5   1  -5 13.8797 2.13599   4
   5   1  -5 17.2780 1.80783   8
   5   1  -5 15.7710 2.15430   1
   5   1  -5 19.3582 2.64160   9
  -5  -1   5 19.3071 2.57274   4
  -5  -1   5 18.6478 1.64278   5
  -5  -1   5 19.3489 1.80650   6
  -5  -1   5 19.3892 2.38105   1
  -5  -1   5 17.8525 2.00801   3
   4   1  -5 3.77565 0.77843   8
   4   1  -5 4.67359 1.12988   4
   4   1  -5 5.29191 1.15553   1
   4   1  -5 4.77717 0.76560   2
   4   1  -5 3.83465 1.12365   9
  -4  -1   5 7.10733 1.56749   9
  -4  -1   5 4.65773 1.12682   1
  -4  -1   5 5.72236 1.33420   4
  -4  -1   5 4.27976 0.91276   6
  -4  -1   5 3.45395 0.82287   3
  -4  -1   5 3.96305 0.79755   5
   3   1  -5 81.0069 3.99025   2
   3   1  -5 75.7677 4.61748   1
   3   1  -5 76.3253 3.86241   7
   3   1  -5 79.0537 4.76155   4
   3   1  -5 80.1745 4.24754   8
   3   1  -5 79.4283 5.05271   9
  -3  -1   5 84.3885 4.47130   6
  -3  -1   5 80.5283 5.18187   9
  -3  -1   5 74.1930 3.92613   7
  -3  -1   5 81.5317 4.29896   5
  -3  -1   5 79.0001 4.26546   3
  -3  -1   5 74.3084 4.67774   1
  -3  -1   5 81.8048 4.91670   4
   2   1  -5 16.6092 1.08834   2
   2   1  -5 14.5552 1.78449   4
   2   1  -5 15.5603 1.27140   8
   2   1  -5 15.7512 1.76323   9
   2   1  -5 16.1250 0.91469   7
  -2  -1   5 16.3680 0.96084   7
  -2  -1   5 13.1428 1.15898   3
  -2  -1   5 15.9449 1.37651   6
  -2  -1   5 17.8117 1.74968   4
  -2  -1   5 16.1722 1.32205   5
  -2  -1   5 15.0032 2.04866   9
  -2  -1   5 13.8985 1.74163   1
   1   1  -5 96.6327 5.67443   9
   1   1  -5 103.328 4.84430   2
   1   1  -5 102.027 5.08444   8
   1   1  -5 100.115 5.46697   4
  -1  -1   5 105.680 4.97383   3
  -1  -1   5 102.167 5.13952   5
  -1  -1   5 104.561 5.83217   9
  -1  -1   5 98.9716 5.22413   6
  -1  -1   5 103.566 5.48816   1
   0   1  -5 136.582 6.67909   4
   0   1  -5 123.485 6.81316   9
   0   1  -5 129.599 6.32600   8
   0   1  -5 135.430 6.16558   2
   0  -1   5 135.454 6.52024   6
   0  -1   5 122.523 6.58523   1
   0  -1   5 131.896 6.40296   5
   0  -1   5 135.563 6.20075   3
   0  -1   5 136.434 6.97491   9
  -1   1  -5 156.249 6.76278   7
  -1   1  -5 150.575 7.21106   4
  -1   1  -5 156.816 7.03151   8
  -1   1  -5 135.345 7.31085   9
  -1   1  -5 150.584 6.94603   2
   1  -1   5 144.144 7.13685   6
   1  -1   5 156.797 7.11028   5
   1  -1   5 139.851 7.14578   1
   1  -1   5 150.863 6.92081   3
   1  -1   5 139.678 7.37846   9
  -2   1  -5 105.702 5.73346   9
  -2   1  -5 122.025 5.69396   7
  -2   1  -5 114.156 5.78873   9
  -2   1  -5 111.074 5.66655   2
  -2   1  -5 124.762 5.68685   8
  -2   1  -5 127.825 5.75461   4
   2  -1   5 123.384 5.68575   3
   2  -1   5 112.305 5.81281   9
   2  -1   5 111.283 5.63141   1
   2  -1   5 123.668 5.76449   5
   2  -1   5 117.709 5.75208   6
  -3   1  -5 75.5228 3.92020   9
  -3   1  -5 88.9991 4.13518   8
  -3   1  -5 77.3006 4.27496   7
  -3   1  -5 85.1651 4.24698   2
  -3   1  -5 83.1949 3.93234   9
  -3   1  -5 85.7997 4.05883   4
   3  -1   5 79.7685 3.96495   9
   3  -1   5 82.1863 4.18977   5
   3  -1   5 80.3907 4.20231   3
   3  -1   5 76.4439 4.09331   6
   3  -1   5 75.0513 3.82565   1
  -4   1  -5 56.1222 3.34099   7
  -4   1  -5 53.6223 2.81344   4
  -4   1  -5 53.7459 2.93141   8
  -4   1  -5 47.7903 3.05066   2
   4  -1   5 55.0648 2.93600   6
   4  -1   5 48.8088 2.98521   5
   4  -1   5 56.8913 3.19723   3
  -5   1  -5 4.04790 0.61115   4
  -5   1  -5 2.96972 0.77530   2
  -5   1  -5 3.30349 0.62833   8
  -5   1  -5 3.40277 0.85964   7
   5  -1   5 4.44758 0.76095   6
   5  -1   5 5.03483 0.95056   3
   5  -1   5 4.05811 0.77671   5
  -6   1  -5 107.841 6.23679   7
  -6   1  -5 113.468 5.98223   2
  -6   1  -5 107.856 5.53357   8
   6  -1   5 108.188 5.69835   5
   6  -1   5 105.477 5.45961   6
   6  -1   5 103.061 5.96000   3
  -7   1  -5 89.0839 5.68454   7
  -7   1  -5 92.5679 4.88783   8
  -7   1  -5 85.0940 5.24692   2
   7  -1   5 89.6043 4.79408   6
   7  -1   5 92.9741 5.07932   5
   7  -1   5 86.3357 5.36605   3
  -8   1  -5 0.15916 0.82746   7
  -8   1  -5 0.53394 0.45298   8
  -8   1  -5 1.03415 0.74475   2
   8  -1   5 -0.1926 0.47969   5
   8  -1   5 0.69283 0.62899   3
  -9   1  -5 1.70100 0.95307   7
  -9   1  -5 -0.0312 0.52087   2
   9  -1   5 0.42101 0.58559   5
   9  -1   5 1.04697 0.95831   3
 -10   1  -5 0.43971 1.00434   2
 -10   1  -5 0.56313 1.13124   7
  10  -1   5 -0.1708 0.94071   7
  10  -1   5 -0.2081 0.90199   5
  10  -1   5 0.09332 1.03671   3
   8   0  -5 23.8861 3.44896   1
   8   0  -5 23.9533 3.10397   6
   7   0  -5 1.66429 0.98620   1
   7   0  -5 2.12047 0.83817   5
   7   0  -5 -0.0644 0.84670   4
   7   0  -5 2.48373 0.83267   6
  -7   0   5 0.38234 0.67306   5
  -7   0   5 2.10416 0.98512   1
  -7   0   5 1.05705 1.06407   4
  -7   0   5 1.11887 0.63904   6
   6   0  -5 117.365 6.81862   8
   6   0  -5 125.995 7.59369   4
   6   0  -5 126.946 7.40470   1
  -6   0   5 148.804 7.77297   1
  -6   0   5 133.094 7.02887   6
  -6   0   5 126.995 7.74033   4
  -6   0   5 134.227 6.86108   5
   5   0  -5 25.1958 2.40344   1
   5   0  -5 30.4061 2.65379   4
   5   0  -5 27.4662 1.99745   2
   5   0  -5 30.4442 2.87059   9
   5   0  -5 23.9884 2.05329   8
  -5   0   5 26.2390 2.61139   4
  -5   0   5 27.9211 2.57079   1
  -5   0   5 25.7940 2.77926   9
  -5   0   5 26.5133 2.17650   3
  -5   0   5 32.4937 2.33603   6
  -5   0   5 27.2538 2.05984   5
   4   0  -5 4.23365 0.76302   2
   4   0  -5 4.42840 1.13322   4
   4   0  -5 4.43494 0.87136   8
   4   0  -5 4.90357 0.75486   7
   4   0  -5 3.70229 1.08783   9
  -4   0   5 6.42113 1.53905   9
  -4   0   5 3.96383 0.77890   7
  -4   0   5 4.69105 1.15586   1
  -4   0   5 4.99142 0.86876   5
  -4   0   5 5.47067 1.25182   4
  -4   0   5 5.40933 1.03111   6
  -4   0   5 5.34826 0.91895   3
   3   0  -5 107.347 5.30413   7
   3   0  -5 109.196 6.20545   4
   3   0  -5 111.431 5.68594   8
   3   0  -5 108.021 6.48068   9
   3   0  -5 112.476 5.49670   2
  -3   0   5 117.506 5.83602   6
  -3   0   5 119.505 6.73686   9
  -3   0   5 116.937 5.63493   5
  -3   0   5 115.451 5.60983   3
  -3   0   5 104.409 5.38403   7
  -3   0   5 104.056 6.12678   1
  -3   0   5 103.766 6.23409   4
   2   0  -5 5.43989 0.82695   8
   2   0  -5 6.79310 1.19647   4
   2   0  -5 6.24292 0.75175   2
   2   0  -5 6.33857 0.53047   7
   2   0  -5 5.97283 1.20469   9
  -2   0   5 4.77822 1.13515   9
  -2   0   5 6.93324 1.22287   4
  -2   0   5 6.83191 0.97174   6
  -2   0   5 8.41467 0.87830   3
  -2   0   5 7.75646 0.92779   5
  -2   0   5 5.83706 1.07842   1
   1   0  -5 6.01495 1.17489   9
   1   0  -5 6.86894 0.41642   7
   1   0  -5 5.10334 0.77922   8
   1   0  -5 8.86766 1.21967   4
  -1   0   5 6.50631 1.06875   1
  -1   0   5 6.35745 0.58078   3
  -1   0   5 8.15996 1.02532   6
  -1   0   5 6.31363 1.09120   4
  -1   0   5 6.59368 0.84213   5
  -1   0   5 5.90375 1.19344   9
   0   0  -5 249.242 12.5365   4
   0   0  -5 254.366 12.1166   2
   0   0  -5 282.083 11.7964   7
   0   0  -5 254.388 12.2515   8
   0   0   5 270.360 12.2581   5
   0   0   5 269.766 11.9738   3
   0   0   5 271.677 12.9291   9
   0   0   5 295.706 12.7032   1
   0   0   5 253.094 12.3878   6
   0   0   5 274.173 12.6984   4
  -1   0  -5 781.686 32.0907   7
  -1   0  -5 684.355 32.4289   4
  -1   0  -5 743.781 32.2426   2
  -1   0  -5 716.243 32.2651   8
   1   0   5 733.245 32.2826   5
   1   0   5 739.601 32.0618   3
   1   0   5 695.067 32.4736   1
   1   0   5 709.042 32.7388   9
   1   0   5 733.631 32.4326   6
  -2   0  -5 77.9807 3.79330   4
  -2   0  -5 70.8253 3.87617   9
  -2   0  -5 73.2817 3.80228   2
  -2   0  -5 74.8062 3.80207   7
  -2   0  -5 76.9457 3.75285   8
   2   0   5 74.1595 3.86397   6
   2   0   5 71.0583 3.97017   9
   2   0   5 81.3335 3.74352   3
   2   0   5 72.4836 3.77919   5
   2   0   5 71.2046 3.80181   1
  -3   0  -5 291.742 12.3928   4
  -3   0  -5 273.697 12.4849   8
  -3   0  -5 308.208 12.4885   9
  -3   0  -5 264.317 12.6429   2
  -3   0  -5 273.029 12.7838   7
   3   0   5 256.899 12.5232   9
   3   0   5 272.733 12.6373   3
   3   0   5 269.678 12.5876   6
   3   0   5 259.112 12.3885   1
   3   0   5 265.630 12.5641   5
  -4   0  -5 2.08007 0.41332   4
  -4   0  -5 1.93149 0.45177   8
  -4   0  -5 2.13583 0.35073   9
  -4   0  -5 2.29321 0.68149   3
  -4   0  -5 2.54178 0.67645   7
  -4   0  -5 1.97023 0.53333   2
   4   0   5 2.29959 0.34815   1
   4   0   5 1.65934 0.48085   5
   4   0   5 1.82287 0.35207   9
   4   0   5 1.67445 0.47881   6
   4   0   5 2.42460 0.61949   3
  -5   0  -5 0.44472 0.43129   3
  -5   0  -5 0.03655 0.34393   7
  -5   0  -5 0.58684 0.37331   2
  -5   0  -5 0.45293 0.27297   8
   5   0   5 0.77420 0.40807   5
   5   0   5 0.10945 0.33873   3
   5   0   5 0.50048 0.50939   6
   5   0   5 0.30622 0.14461   9
  -6   0  -5 74.7953 4.69541   7
  -6   0  -5 70.9183 4.52674   3
  -6   0  -5 72.1976 3.92486   8
  -6   0  -5 71.6070 4.29770   2
   6   0   5 64.0955 4.31734   3
   6   0   5 79.8111 4.23810   5
   6   0   5 77.5450 4.06489   6
  -7   0  -5 41.8577 2.52333   8
  -7   0  -5 37.3295 2.84161   2
  -7   0  -5 37.5354 3.14348   7
  -7   0  -5 35.7777 3.03308   3
   7   0   5 38.3894 2.59847   6
   7   0   5 37.2323 2.97200   3
   7   0   5 39.0198 2.70356   5
  -8   0  -5 0.00815 0.49966   2
  -8   0  -5 0.40775 0.52510   8
  -8   0  -5 -0.5251 0.45423   7
  -8   0  -5 -0.1022 0.73982   3
   8   0   5 0.73063 0.53452   5
   8   0   5 -1.0139 0.60537   6
   8   0   5 -0.0617 0.78169   3
  -9   0  -5 18.2262 2.78031   7
  -9   0  -5 18.8166 2.75925   3
  -9   0  -5 16.0423 2.37855   2
   9   0   5 17.4349 2.18465   5
   9   0   5 18.1576 2.59186   3
 -10   0  -5 0.11816 1.01857   7
 -10   0  -5 1.21299 0.83336   2
  10   0   5 -1.0198 0.71834   5
  10   0   5 0.62880 1.06726   3
   7  -1  -5 4.46729 1.07000   6
   7  -1  -5 3.75832 1.10142   1
   7  -1  -5 2.63099 1.06365   4
   7  -1  -5 2.68654 1.04315   8
  -7   1   5 2.40820 0.88750   6
  -7   1   5 2.50153 0.99300   8
  -7   1   5 0.92223 1.08012   4
  -7   1   5 3.63921 1.19700   1
   6  -1  -5 120.312 7.98267   9
   6  -1  -5 94.9559 6.54683   4
   6  -1  -5 110.707 6.52054   1
   6  -1  -5 110.172 6.08894   8
   6  -1  -5 114.620 6.03605   2
   6  -1  -5 114.577 5.89913   5
  -6   1   5 112.670 6.05018   6
  -6   1   5 102.113 6.77172   4
  -6   1   5 105.242 7.85088   9
  -6   1   5 101.725 6.07267   8
  -6   1   5 120.079 7.15515   5
  -6   1   5 118.124 6.74197   1
   5  -1  -5 4.56149 0.96423   8
   5  -1  -5 5.07542 1.41483   9
   5  -1  -5 6.03598 1.02822   2
   5  -1  -5 4.25658 1.15413   4
  -5   1   5 6.72508 1.01617   5
  -5   1   5 3.85499 0.99819   8
  -5   1   5 4.32637 1.30927   4
  -5   1   5 4.50722 1.23509   1
  -5   1   5 6.74512 1.58681   9
  -5   1   5 4.57593 0.96013   6
   4  -1  -5 0.38955 0.40374   7
   4  -1  -5 -0.1291 0.34610   3
   4  -1  -5 0.01195 0.30185   2
   4  -1  -5 0.66334 0.42217   8
   4  -1  -5 -0.5955 0.50821   4
   4  -1  -5 0.27556 0.65998   9
  -4   1   5 0.80838 0.40777   5
  -4   1   5 0.71584 0.44078   6
  -4   1   5 0.42763 0.74180   9
  -4   1   5 0.80424 0.49634   3
  -4   1   5 0.34421 0.59885   1
  -4   1   5 0.93243 0.43944   8
  -4   1   5 0.64299 0.74814   4
   3  -1  -5 0.58329 0.33684   2
   3  -1  -5 1.25415 0.61010   4
   3  -1  -5 0.43501 0.50431   9
   3  -1  -5 0.56682 0.31046   7
   3  -1  -5 1.26846 0.45524   8
  -3   1   5 0.30445 0.42548   1
  -3   1   5 0.61474 0.37959   3
  -3   1   5 1.31106 0.42840   5
  -3   1   5 0.53429 0.36921   8
  -3   1   5 0.64816 0.45546   6
  -3   1   5 0.59426 0.50022   4
  -3   1   5 1.21446 0.82482   9
   2  -1  -5 -0.0557 0.15137   7
   2  -1  -5 -0.0171 0.34597   4
   2  -1  -5 -0.1681 0.18351   2
   2  -1  -5 -0.2029 0.16370   8
  -2   1   5 0.15396 0.20461   3
  -2   1   5 -0.1237 0.28659   1
  -2   1   5 0.00722 0.31679   9
  -2   1   5 0.00286 0.29453   6
  -2   1   5 0.28313 0.23141   5
  -2   1   5 0.04619 0.43404   4
   1  -1  -5 273.993 12.3606   7
   1  -1  -5 266.284 13.1590   4
   1  -1  -5 273.878 12.6442   2
   1  -1  -5 272.979 12.7763   8
  -1   1   5 277.918 12.8856   6
  -1   1   5 275.694 13.2030   1
  -1   1   5 274.753 13.2590   4
  -1   1   5 286.897 12.6350   5
  -1   1   5 269.985 13.5203   9
  -1   1   5 291.514 12.3377   3
   0  -1  -5 112.059 5.42557   2
   0  -1  -5 108.280 5.48810   8
   0  -1  -5 118.194 5.18194   7
   0  -1  -5 100.111 5.70875   4
   0   1   5 121.126 5.04438   3
   0   1   5 109.473 6.07505   9
   0   1   5 111.902 5.84705   4
   0   1   5 117.373 5.65031   6
   0   1   5 113.448 5.38987   5
   0   1   5 106.217 5.79070   1
  -1  -1  -5 782.230 36.6580   4
  -1  -1  -5 840.707 36.3551   7
  -1  -1  -5 837.386 36.9229   9
  -1  -1  -5 810.721 36.4721   2
  -1  -1  -5 811.412 36.4875   8
   1   1   5 877.344 36.1841   3
   1   1   5 795.181 36.7401   1
   1   1   5 834.349 36.4259   5
   1   1   5 815.599 36.7427   4
   1   1   5 840.779 36.6465   6
   1   1   5 804.960 37.0016   9
  -2  -1  -5 0.22206 0.20788   2
  -2  -1  -5 -0.0483 0.11430   8
  -2  -1  -5 0.33250 0.20415   4
  -2  -1  -5 -0.1439 0.18720   7
   2   1   5 0.08834 0.24506   5
   2   1   5 -0.2684 0.25220   6
   2   1   5 -0.1613 0.20352   9
   2   1   5 0.07506 0.17838   1
   2   1   5 0.29956 0.19446   3
  -3  -1  -5 110.147 4.91381   9
  -3  -1  -5 94.5736 4.92730   2
  -3  -1  -5 98.5450 5.07258   7
  -3  -1  -5 97.6366 4.73340   8
  -3  -1  -5 101.451 4.60547   4
  -3  -1  -5 93.3173 4.93368   3
   3   1   5 97.3118 4.79509   1
   3   1   5 94.5271 4.92569   9
   3   1   5 93.7060 4.81524   5
   3   1   5 89.6089 4.85821   3
   3   1   5 98.9941 4.90365   6
  -4  -1  -5 35.8299 2.29987   2
  -4  -1  -5 36.1218 2.47233   7
  -4  -1  -5 37.3655 2.41537   3
  -4  -1  -5 34.6809 2.02126   8
  -4  -1  -5 34.5070 2.00326   9
  -4  -1  -5 35.9639 1.75139   4
   4   1   5 34.1813 2.30441   3
   4   1   5 35.7852 2.19562   6
   4   1   5 36.8064 2.00118   1
   4   1   5 38.0206 2.12653   9
   4   1   5 32.8554 2.17330   5
  -5  -1  -5 194.295 10.3013   3
  -5  -1  -5 223.398 9.78575   8
  -5  -1  -5 207.645 10.4836   7
  -5  -1  -5 210.418 10.1592   2
   5   1   5 215.884 9.70398   9
   5   1   5 218.862 9.58792   1
   5   1   5 203.517 9.98359   5
   5   1   5 195.349 10.2219   3
   5   1   5 209.204 9.93869   6
  -6  -1  -5 505.875 23.5823   3
  -6  -1  -5 520.133 23.7488   7
  -6  -1  -5 509.763 22.7352   8
  -6  -1  -5 512.705 23.2784   2
   6   1   5 471.717 23.3667   3
   6   1   5 491.652 23.0442   5
   6   1   5 518.431 22.9513   6
  -7  -1  -5 9.15070 1.48811   2
  -7  -1  -5 11.2482 1.24300   8
  -7  -1  -5 7.16507 1.52982   7
  -7  -1  -5 10.0611 1.66463   3
   7   1   5 10.5030 1.42089   5
   7   1   5 7.96919 1.45415   3
   7   1   5 8.78401 1.31066   6
  -8  -1  -5 184.334 9.98741   3
  -8  -1  -5 180.324 9.57262   2
  -8  -1  -5 190.902 10.1905   7
   8   1   5 180.536 9.11329   6
   8   1   5 180.767 9.79884   3
   8   1   5 177.995 9.29738   5
  -9  -1  -5 1.28358 0.98574   3
  -9  -1  -5 0.79340 0.79975   7
  -9  -1  -5 1.89739 0.99616   2
   9   1   5 1.93804 0.91472   5
   9   1   5 1.30779 0.83748   3
 -10  -1  -5 1.76397 1.22331   3
 -10  -1  -5 2.30426 1.17989   7
 -10  -1  -5 0.31555 0.67794   2
  10   1   5 0.91929 0.77643   5
  10   1   5 1.14081 0.97112   3
   7  -2  -5 2.53569 0.85663   8
   7  -2  -5 1.09351 0.76048   1
   7  -2  -5 2.40798 1.16590   4
   7  -2  -5 2.60793 0.90456   2
  -7   2   5 3.52623 1.32667   4
  -7   2   5 2.14006 0.82575   8
  -7   2   5 3.37451 1.20416   1
   6  -2  -5 1.32101 0.94983   4
   6  -2  -5 2.96042 1.37589   9
   6  -2  -5 2.28509 0.75119   8
   6  -2  -5 3.49318 0.88020   2
  -6   2   5 1.97926 0.73762   8
  -6   2   5 2.26860 1.10370   4
  -6   2   5 3.03753 1.08353   1
  -6   2   5 3.66725 0.94009   2
  -6   2   5 1.81171 0.69438   6
  -6   2   5 3.27505 1.26698   9
   5  -2  -5 0.71764 0.55414   8
   5  -2  -5 0.48574 0.43628   7
   5  -2  -5 1.17355 0.82760   9
   5  -2  -5 0.67444 0.71450   4
   5  -2  -5 -0.0140 0.42826   2
  -5   2   5 0.10413 0.45602   6
  -5   2   5 1.22029 0.83126   4
  -5   2   5 0.85969 0.70618   9
  -5   2   5 0.68919 0.70672   1
  -5   2   5 1.23331 0.70624   8
   4  -2  -5 226.683 12.6474   9
   4  -2  -5 249.378 11.5856   7
   4  -2  -5 257.514 11.9065   8
   4  -2  -5 253.197 11.7961   2
  -4   2   5 251.464 12.9473   9
  -4   2   5 241.988 12.3769   1
  -4   2   5 224.833 12.4404   4
  -4   2   5 247.052 11.9257   8
  -4   2   5 247.600 11.7443   6
  -4   2   5 257.696 11.4966   5
   3  -2  -5 19.6217 1.62516   8
   3  -2  -5 20.1117 1.41810   7
   3  -2  -5 17.8139 1.28882   3
   3  -2  -5 16.6916 1.47439   2
  -3   2   5 21.6047 2.20905   9
  -3   2   5 18.8041 1.52661   6
  -3   2   5 21.0182 1.71475   8
  -3   2   5 19.9520 1.35600   5
  -3   2   5 20.1712 1.37880   3
  -3   2   5 20.5211 2.00856   4
  -3   2   5 17.2512 2.13373   1
   2  -2  -5 74.2611 3.94829   2
   2  -2  -5 71.2741 3.70852   7
   2  -2  -5 76.8144 3.55686   3
   2  -2  -5 75.8673 4.04314   8
  -2   2   5 74.5707 4.02388   6
  -2   2   5 69.5940 4.37075   1
  -2   2   5 75.3492 4.51127   4
  -2   2   5 77.1089 3.73649   5
  -2   2   5 72.6550 4.06252   8
  -2   2   5 71.8495 4.72510   9
   1  -2  -5 -0.0612 0.17148   7
   1  -2  -5 0.56918 0.31204   8
   1  -2  -5 0.12703 0.18945   2
  -1   2   5 0.08764 0.26812   9
  -1   2   5 -0.3140 0.20649   4
  -1   2   5 0.05329 0.29481   1
  -1   2   5 -0.2747 0.20587   6
  -1   2   5 -0.2247 0.14328   5
   0  -2  -5 36.8161 2.14182   8
   0  -2  -5 37.6479 1.94336   7
   0  -2  -5 35.9455 2.09847   2
   0   2   5 35.1805 2.59975   9
   0   2   5 36.0717 2.43024   4
   0   2   5 36.4516 1.94730   5
   0   2   5 33.8517 2.39419   1
   0   2   5 34.0866 2.18489   6
  -1  -2  -5 0.52124 0.25201   7
  -1  -2  -5 0.91436 0.34391   2
  -1  -2  -5 0.91541 0.30896   8
   1   2   5 1.03611 0.39593   4
   1   2   5 0.67594 0.36714   1
   1   2   5 0.92064 0.18711   3
   1   2   5 0.80319 0.26735   5
   1   2   5 0.20492 0.30527   9
   1   2   5 1.38112 0.40562   6
  -2  -2  -5 2.71965 0.50036   4
  -2  -2  -5 3.70434 0.77503   9
  -2  -2  -5 2.22169 0.51410   7
  -2  -2  -5 2.51300 0.53229   2
  -2  -2  -5 2.57508 0.45289   8
  -2  -2  -5 2.63879 0.46171   3
   2   2   5 3.14254 0.49334   5
   2   2   5 2.87836 0.54503   4
   2   2   5 2.63702 0.57804   1
   2   2   5 2.58608 0.58899   6
   2   2   5 2.68186 0.64637   9
   2   2   5 2.95292 0.48021   3
  -3  -2  -5 446.032 18.8663   8
  -3  -2  -5 418.963 19.1184   3
  -3  -2  -5 422.596 19.1142   2
  -3  -2  -5 432.534 19.2995   7
  -3  -2  -5 392.285 18.7059   4
   3   2   5 443.603 19.0562   1
   3   2   5 414.306 19.0665   6
   3   2   5 398.731 19.0335   3
   3   2   5 414.243 18.9581   5
   3   2   5 429.234 19.2169   9
  -4  -2  -5 25.8443 1.95175   3
  -4  -2  -5 29.5061 2.15225   7
  -4  -2  -5 27.7869 1.92634   2
  -4  -2  -5 28.7029 1.64220   8
   4   2   5 26.7502 1.81086   5
   4   2   5 26.4231 1.91619   3
   4   2   5 27.2747 1.71655   1
   4   2   5 26.8044 1.84183   6
   4   2   5 27.7077 1.84413   9
  -5  -2  -5 5.34277 1.07414   7
  -5  -2  -5 5.97530 0.98189   2
  -5  -2  -5 7.52046 0.82572   8
  -5  -2  -5 5.95520 1.10083   3
   5   2   5 6.41548 1.11192   3
   5   2   5 6.07005 1.01465   6
   5   2   5 6.69652 0.96259   5
   5   2   5 7.57511 0.89938   1
   5   2   5 8.22540 1.02556   9
  -6  -2  -5 37.5718 2.92745   7
  -6  -2  -5 32.8160 2.75709   3
  -6  -2  -5 36.5863 2.15562   8
  -6  -2  -5 37.9520 2.61426   2
   6   2   5 40.4369 2.50692   6
   6   2   5 32.5766 2.68274   3
   6   2   5 37.7765 2.50013   5
  -7  -2  -5 82.9144 4.98343   2
  -7  -2  -5 89.5260 5.41782   3
  -7  -2  -5 82.5524 5.42517   7
   7   2   5 87.8143 4.80700   6
   7   2   5 82.7425 5.21424   3
   7   2   5 86.0248 4.85917   5
  -8  -2  -5 83.6473 5.59468   7
  -8  -2  -5 91.7229 5.20524   2
  -8  -2  -5 82.5056 5.48016   3
   8   2   5 80.0793 4.87830   5
   8   2   5 76.5923 5.27011   3
   8   2   5 84.2305 4.80548   6
  -9  -2  -5 8.80219 1.59937   2
  -9  -2  -5 8.90346 1.86280   3
  -9  -2  -5 10.6521 2.08462   7
   9   2   5 8.94774 1.71151   6
   9   2   5 11.1634 1.97396   3
   9   2   5 12.4744 1.75153   5
 -10  -2  -5 5.71332 1.43886   2
 -10  -2  -5 5.06270 1.67384   3
 -10  -2  -5 5.01650 1.59304   7
  10   2   5 3.34339 1.27705   5
  10   2   5 6.29169 1.74381   3
   8  -3  -5 0.84083 0.88560   4
   8  -3  -5 0.83988 0.90044   8
  -8   3   5 2.08657 1.03090   8
  -8   3   5 0.98351 1.00049   4
   7  -3  -5 1.53766 0.76205   8
   7  -3  -5 2.35117 1.01231   4
   7  -3  -5 1.02904 0.74961   2
  -7   3   5 2.09610 0.91917   8
  -7   3   5 2.88548 1.29914   4
  -7   3   5 3.17204 1.16767   1
   6  -3  -5 19.2136 2.63433   4
   6  -3  -5 20.1691 2.12126   7
   6  -3  -5 16.4567 2.07069   2
   6  -3  -5 18.6339 2.19142   8
  -6   3   5 17.0594 2.43453   1
  -6   3   5 18.5063 2.65880   4
  -6   3   5 17.0466 2.12694   8
  -6   3   5 16.8514 2.16056   2
   5  -3  -5 14.2777 1.69293   7
   5  -3  -5 13.6825 2.30951   9
   5  -3  -5 13.7288 1.76963   2
   5  -3  -5 18.5612 2.00320   8
  -5   3   5 17.2425 1.53639   6
  -5   3   5 17.8995 2.51506   4
  -5   3   5 15.4654 2.42015   9
  -5   3   5 16.6645 2.23923   1
  -5   3   5 15.2732 1.88882   8
   4  -3  -5 13.6553 1.64793   2
   4  -3  -5 17.2422 1.46611   7
   4  -3  -5 19.1519 1.92441   8
  -4   3   5 14.1236 1.73652   8
  -4   3   5 17.7166 1.48631   6
  -4   3   5 13.9767 2.03622   1
  -4   3   5 16.8769 2.43433   9
  -4   3   5 13.6292 2.10020   4
   3  -3  -5 226.617 10.7288   7
   3  -3  -5 233.155 11.0216   8
   3  -3  -5 224.617 10.9346   2
  -3   3   5 212.227 11.8019   9
  -3   3   5 244.436 10.4918   5
  -3   3   5 210.181 11.3810   1
  -3   3   5 233.942 11.6441   4
  -3   3   5 227.686 11.0530   8
  -3   3   5 237.056 10.8757   6
   2  -3  -5 0.03984 0.22238   7
   2  -3  -5 0.10828 0.34164   8
   2  -3  -5 -0.2720 0.15857   2
   2  -3  -5 -0.0941 0.12520   3
  -2   3   5 0.20685 0.50725   9
  -2   3   5 -0.1898 0.44701   1
  -2   3   5 -0.0355 0.19164   6
  -2   3   5 0.09981 0.38124   4
  -2   3   5 -0.0768 0.15838   5
  -2   3   5 -0.1974 0.21956   8
   1  -3  -5 37.1297 2.24594   8
   1  -3  -5 35.7163 2.19965   2
   1  -3  -5 35.1822 2.04281   7
  -1   3   5 37.8736 1.88725   5
  -1   3   5 32.4994 2.48250   4
  -1   3   5 36.1108 2.23108   6
  -1   3   5 35.4571 2.26367   8
  -1   3   5 33.4975 2.71513   9
  -1   3   5 33.7821 2.53155   1
   0  -3  -5 58.0355 3.07189   2
   0  -3  -5 55.0335 2.91115   7
   0  -3  -5 56.4617 3.05190   8
   0   3   5 52.5658 3.31093   4
   0   3   5 58.6783 2.76075   5
   0   3   5 55.9986 3.09201   6
   0   3   5 49.4471 3.47821   9
   0   3   5 57.0220 3.38250   1
  -1  -3  -5 150.081 6.90372   7
  -1  -3  -5 137.466 6.85728   8
  -1  -3  -5 146.053 6.96574   2
  -1  -3  -5 149.364 6.59401   3
   1   3   5 146.115 6.68501   5
   1   3   5 144.874 7.20283   1
   1   3   5 137.196 7.38771   9
   1   3   5 142.664 7.12884   4
   1   3   5 146.267 6.99122   6
  -2  -3  -5 4.92200 0.72043   2
  -2  -3  -5 4.45955 0.70590   7
  -2  -3  -5 3.69474 0.55139   8
  -2  -3  -5 4.87980 0.64070   3
   2   3   5 5.33446 0.76441   6
   2   3   5 4.13710 0.79554   9
   2   3   5 3.96013 0.67366   4
   2   3   5 5.20627 0.60450   5
   2   3   5 4.23152 0.74389   1
  -3  -3  -5 18.1108 1.42287   7
  -3  -3  -5 16.2958 1.28546   3
  -3  -3  -5 16.9230 1.07083   8
  -3  -3  -5 14.0519 1.20372   2
   3   3   5 15.2136 1.37222   9
   3   3   5 13.2543 1.08260   5
   3   3   5 15.7148 1.32527   6
   3   3   5 14.4981 1.03137   4
   3   3   5 16.5800 1.26524   1
  -4  -3  -5 53.6960 3.35126   3
  -4  -3  -5 58.4960 2.91284   8
  -4  -3  -5 54.1172 3.49778   7
  -4  -3  -5 54.6356 3.24759   2
   4   3   5 59.6315 3.36355   9
   4   3   5 62.4939 3.21844   1
   4   3   5 57.6236 3.17395   5
   4   3   5 54.8646 3.24972   6
  -5  -3  -5 23.5913 1.99289   3
  -5  -3  -5 23.4852 2.13008   7
  -5  -3  -5 23.7990 1.47580   8
  -5  -3  -5 25.2249 1.89277   2
   5   3   5 23.1320 1.74649   5
   5   3   5 22.1821 1.77713   6
   5   3   5 26.7435 1.92798   9
   5   3   5 25.6076 1.74675   1
  -6  -3  -5 222.765 11.2563   7
  -6  -3  -5 220.977 11.0995   3
  -6  -3  -5 227.102 10.7632   2
   6   3   5 212.987 10.5533   6
   6   3   5 222.939 10.5739   9
   6   3   5 211.055 10.5860   5
   6   3   5 218.505 10.3309   1
  -7  -3  -5 1.43349 0.64397   2
  -7  -3  -5 0.09069 0.44695   3
  -7  -3  -5 0.16597 0.51884   7
   7   3   5 0.73683 0.59681   5
   7   3   5 0.88909 0.59309   3
   7   3   5 -0.2047 0.62454   6
  -8  -3  -5 2.77623 1.21806   7
  -8  -3  -5 3.00283 1.05195   3
  -8  -3  -5 3.10061 1.06576   2
   8   3   5 4.30091 1.01783   5
   8   3   5 3.94236 1.03157   6
   8   3   5 4.60083 1.22297   3
  -9  -3  -5 1.01642 0.87505   7
  -9  -3  -5 1.10147 0.66990   2
  -9  -3  -5 0.54658 0.73101   3
   9   3   5 1.80054 0.93619   5
   9   3   5 0.32902 1.05201   6
   9   3   5 0.54499 0.66486   3
 -10  -3  -5 2.12235 0.93889   2
 -10  -3  -5 1.54227 1.31183   7
 -10  -3  -5 0.14443 1.14542   3
  10   3   5 1.43178 1.24013   3
  10   3   5 -3.3294 0.95125   6
  10   3   5 2.14343 1.01764   5
   7  -4  -5 2.36037 0.94104   8
   7  -4  -5 1.00191 0.75543   2
  -7   4   5 1.71735 1.17017   4
  -7   4   5 1.38303 0.84266   8
   6  -4  -5 20.4543 2.22663   7
   6  -4  -5 18.2124 2.22778   2
   6  -4  -5 20.1983 2.31050   8
  -6   4   5 21.0184 2.67081   1
  -6   4   5 18.2394 2.27703   8
  -6   4   5 16.7003 2.67144   4
   5  -4  -5 23.7945 2.02071   2
   5  -4  -5 20.6180 1.85507   7
   5  -4  -5 19.5968 2.23237   8
  -5   4   5 20.2195 2.24871   8
  -5   4   5 20.0127 2.73858   4
  -5   4   5 18.4570 2.46153   1
  -5   4   5 21.4138 3.01126   9
   4  -4  -5 46.9848 3.00905   7
   4  -4  -5 47.9194 3.17857   8
   4  -4  -5 45.2612 3.09275   2
  -4   4   5 46.8314 3.81991   9
  -4   4   5 50.5198 2.93689   6
  -4   4   5 48.5241 3.65666   4
  -4   4   5 45.6212 3.46148   1
  -4   4   5 47.6201 3.21207   8
   3  -4  -5 165.699 8.18606   2
   3  -4  -5 163.779 8.17529   8
   3  -4  -5 165.918 7.99104   7
  -3   4   5 159.547 9.02145   9
  -3   4   5 171.714 7.97855   6
  -3   4   5 153.425 8.56122   1
  -3   4   5 156.083 8.67538   4
  -3   4   5 161.090 8.20825   8
   2  -4  -5 52.7754 3.12911   8
   2  -4  -5 54.6334 3.14653   2
   2  -4  -5 55.2612 3.00541   7
  -2   4   5 42.6887 3.55354   9
  -2   4   5 52.8620 3.02322   6
  -2   4   5 52.0698 3.16158   8
  -2   4   5 49.3904 3.43961   1
  -2   4   5 54.4501 3.59163   4
   1  -4  -5 112.513 4.89469   3
   1  -4  -5 107.086 5.36799   7
   1  -4  -5 105.712 5.50550   2
   1  -4  -5 111.845 5.53230   8
  -1   4   5 100.008 5.83757   4
  -1   4   5 113.962 4.93854   5
  -1   4   5 100.913 6.11627   9
  -1   4   5 106.873 5.89181   1
  -1   4   5 104.906 5.43561   6
  -1   4   5 107.880 5.55389   8
   0  -4  -5 17.8263 1.30134   7
   0  -4  -5 20.5534 1.42598   2
   0  -4  -5 15.1841 1.27612   8
   0  -4  -5 18.5769 0.95939   3
   0   4   5 16.3276 1.32773   6
   0   4   5 17.1192 1.36104   8
   0   4   5 15.1593 1.49299   4
   0   4   5 14.9004 1.48114   1
   0   4   5 17.1319 1.73402   9
   0   4   5 18.3135 1.00814   5
  -1  -4  -5 29.6530 1.83954   8
  -1  -4  -5 29.8626 1.91437   7
  -1  -4  -5 29.9035 1.94478   2
  -1  -4  -5 29.9012 1.66119   3
   1   4   5 29.3060 1.90709   6
   1   4   5 31.9991 2.09175   4
   1   4   5 31.6711 1.63744   5
   1   4   5 29.6899 2.29233   9
   1   4   5 27.0864 2.07329   1
  -2  -4  -5 102.824 4.94453   3
  -2  -4  -5 98.3224 5.05287   2
  -2  -4  -5 99.4255 4.86563   8
  -2  -4  -5 95.6106 5.10538   7
   2   4   5 98.1592 4.78788   5
   2   4   5 101.638 5.44093   9
   2   4   5 98.7043 5.20085   1
   2   4   5 101.169 5.06817   4
   2   4   5 103.095 5.09682   6
  -3  -4  -5 7.06216 0.92699   2
  -3  -4  -5 5.97567 0.98750   7
  -3  -4  -5 3.62237 0.70663   3
  -3  -4  -5 5.28662 0.62797   8
   3   4   5 5.00011 0.67516   4
   3   4   5 4.88843 0.70199   5
   3   4   5 5.65047 0.86075   6
   3   4   5 6.48633 0.99134   1
   3   4   5 5.69950 1.02629   9
  -4  -4  -5 151.356 8.18500   7
  -4  -4  -5 151.865 7.87476   2
  -4  -4  -5 169.264 7.46163   8
  -4  -4  -5 155.259 8.04746   3
   4   4   5 164.123 7.91842   6
   4   4   5 180.824 7.98212   1
   4   4   5 152.621 7.74537   5
   4   4   5 165.108 8.13676   9
  -5  -4  -5 23.1348 1.96745   3
  -5  -4  -5 21.5521 1.77088   2
  -5  -4  -5 22.4249 2.11214   7
   5   4   5 20.7458 1.66347   5
   5   4   5 24.6900 1.83355   1
   5   4   5 23.0054 1.99671   9
   5   4   5 25.2816 1.92748   6
  -6  -4  -5 0.03421 0.35614   7
  -6  -4  -5 0.09221 0.31097   2
  -6  -4  -5 -0.0095 0.52876   3
   6   4   5 -1.1635 0.52629   9
   6   4   5 0.94030 0.58009   6
   6   4   5 -0.1193 0.28126   5
   6   4   5 -0.7554 0.49135   1
  -7  -4  -5 -0.2825 0.63649   7
  -7  -4  -5 -0.3175 0.44029   2
  -7  -4  -5 0.27822 0.64245   3
   7   4   5 0.11606 0.40388   5
   7   4   5 0.19010 0.75917   6
  -8  -4  -5 8.44059 1.72423   3
  -8  -4  -5 9.56249 1.95155   7
  -8  -4  -5 11.4632 1.69935   2
   8   4   5 9.39460 1.62182   6
   8   4   5 8.50396 1.62909   3
   8   4   5 10.9729 1.67998   5
  -9  -4  -5 17.3300 2.64122   3
  -9  -4  -5 18.1620 2.80291   7
  -9  -4  -5 21.6940 2.51737   2
   9   4   5 21.4524 2.51204   5
   9   4   5 22.2502 2.84707   3
   9   4   5 25.2704 2.31342   6
 -10  -4  -5 1.01736 1.25329   7
 -10  -4  -5 -0.0466 1.07103   3
  10   4   5 1.08107 1.13979   5
  10   4   5 -2.5809 0.91786   6
  10   4   5 0.65125 0.99686   3
   7  -5  -5 0.79798 0.72260   2
   7  -5  -5 0.55968 0.80395   8
  -7   5   5 0.19582 0.90534   4
  -7   5   5 0.23636 0.72105   8
   6  -5  -5 -0.1714 0.47239   7
   6  -5  -5 0.57502 0.53897   2
   6  -5  -5 0.53091 0.73590   8
  -6   5   5 0.82747 0.85978   4
  -6   5   5 -0.3605 0.63982   8
  -6   5   5 1.61953 0.89560   1
   5  -5  -5 26.3136 2.26095   2
   5  -5  -5 21.0308 1.93347   7
   5  -5  -5 20.8708 2.33230   8
  -5   5   5 23.1615 2.95502   4
  -5   5   5 22.2689 2.98121   9
  -5   5   5 19.6448 2.28582   8
  -5   5   5 23.4238 2.82639   1
   4  -5  -5 27.5526 2.17808   7
   4  -5  -5 30.2011 2.37856   2
   4  -5  -5 29.8752 2.34734   8
  -4   5   5 29.4735 2.76980   4
  -4   5   5 29.4002 2.90274   9
  -4   5   5 23.1977 2.47204   8
  -4   5   5 26.4841 2.55295   1
   3  -5  -5 2.48675 0.71029   8
   3  -5  -5 1.55681 0.60954   2
   3  -5  -5 1.02709 0.48824   7
  -3   5   5 1.23129 0.74912   9
  -3   5   5 1.28329 0.58057   8
  -3   5   5 1.59257 0.77779   1
  -3   5   5 1.62014 0.49372   6
  -3   5   5 0.06659 0.43357   4
   2  -5  -5 12.9945 1.50762   2
   2  -5  -5 12.9440 1.49082   8
   2  -5  -5 13.9156 1.27158   7
  -2   5   5 11.3765 1.88359   9
  -2   5   5 12.3318 1.73697   4
  -2   5   5 11.6293 1.11099   6
  -2   5   5 9.18692 1.32535   8
  -2   5   5 12.6101 1.78099   1
   1  -5  -5 53.6026 2.64472   3
   1  -5  -5 58.7898 3.22967   2
   1  -5  -5 56.9729 3.11868   7
   1  -5  -5 51.2385 3.08691   8
  -1   5   5 50.8167 3.44569   4
  -1   5   5 46.1771 3.59570   9
  -1   5   5 46.8731 3.37522   1
  -1   5   5 55.1675 3.04211   6
  -1   5   5 55.8873 3.19133   8
   0  -5  -5 71.9468 3.99351   2
   0  -5  -5 74.4292 3.95743   7
   0  -5  -5 76.8716 3.57092   3
   0  -5  -5 75.1121 3.93564   8
   0   5   5 64.9766 4.15796   4
   0   5   5 68.5951 4.44794   9
   0   5   5 77.7271 4.00508   8
   0   5   5 75.7044 3.92905   6
   0   5   5 69.4524 4.24849   1
   0   5   5 75.1747 3.39275   5
  -1  -5  -5 21.1656 1.68508   2
  -1  -5  -5 23.9870 1.74278   7
  -1  -5  -5 25.6340 1.53463   3
  -1  -5  -5 27.3574 1.67514   8
   1   5   5 23.8053 1.85179   4
   1   5   5 24.9902 1.37790   5
   1   5   5 26.7841 2.14316   9
   1   5   5 23.7935 1.93316   1
   1   5   5 26.0184 1.76494   6
  -2  -5  -5 12.5512 1.02519   8
  -2  -5  -5 13.7351 1.13516   3
  -2  -5  -5 13.1057 1.24735   7
  -2  -5  -5 14.8268 1.22705   2
   2   5   5 15.9080 1.59642   9
   2   5   5 14.5108 1.00639   5
   2   5   5 16.1457 1.47778   1
   2   5   5 13.5821 1.22663   6
   2   5   5 14.9857 1.26646   4
  -3  -5  -5 210.101 9.53780   8
  -3  -5  -5 208.665 10.1664   7
  -3  -5  -5 203.515 9.94452   3
  -3  -5  -5 206.522 9.91488   2
   3   5   5 203.712 9.72390   4
   3   5   5 205.621 9.92629   6
   3   5   5 208.977 9.67983   5
   3   5   5 209.350 10.3083   9
   3   5   5 217.553 10.0982   1
  -4  -5  -5 60.8717 2.91195   8
  -4  -5  -5 56.9252 3.66172   7
  -4  -5  -5 58.5409 3.54532   3
  -4  -5  -5 60.7117 3.39906   2
   4   5   5 63.0472 3.78871   9
   4   5   5 53.5437 3.18760   5
   4   5   5 59.8486 3.42231   6
   4   5   5 52.5187 3.41437   1
  -5  -5  -5 0.08033 0.35915   3
  -5  -5  -5 0.13506 0.42098   7
  -5  -5  -5 0.19736 0.33734   2
   5   5   5 0.77792 0.72687   1
   5   5   5 0.38202 0.75762   9
   5   5   5 -0.0224 0.42248   6
   5   5   5 -0.1100 0.21739   5
  -6  -5  -5 5.53292 1.03240   2
  -6  -5  -5 6.70418 1.37793   3
  -6  -5  -5 6.71595 1.39135   7
   6   5   5 7.02290 1.20254   6
   6   5   5 4.03178 1.22697   9
   6   5   5 5.57411 1.03823   5
   6   5   5 6.38141 1.12370   1
  -7  -5  -5 65.6120 3.99812   2
  -7  -5  -5 61.9553 4.53845   7
  -7  -5  -5 60.5112 4.33454   3
   7   5   5 65.8525 3.95131   5
   7   5   5 62.3753 4.01229   6
  -8  -5  -5 17.2893 2.51313   3
  -8  -5  -5 20.2643 2.28818   2
  -8  -5  -5 12.3122 2.33016   7
   8   5   5 16.8423 2.11991   5
   8   5   5 19.2534 2.29802   6
  -9  -5  -5 28.8881 3.41889   3
  -9  -5  -5 31.2327 3.74263   7
   9   5   5 30.0897 2.67127   5
   9   5   5 28.2347 3.02440   6
   9   5   5 23.9044 3.10170   3
   7  -6  -5 24.3757 2.77497   7
   7  -6  -5 27.5460 2.94365   8
   7  -6  -5 29.7391 3.14129   2
  -7   6   5 19.0765 3.04499   4
  -7   6   5 25.3297 2.91588   8
   6  -6  -5 6.11408 1.27454   7
   6  -6  -5 5.75741 1.33356   2
   6  -6  -5 5.52975 1.23175   8
  -6   6   5 3.58397 1.22998   4
  -6   6   5 5.60196 1.60074   1
  -6   6   5 6.07797 1.36851   8
   5  -6  -5 -0.2934 0.39269   7
   5  -6  -5 -0.1469 0.40209   8
   5  -6  -5 0.61804 0.50298   2
  -5   6   5 1.60888 1.03483   9
  -5   6   5 0.11845 0.53967   4
  -5   6   5 1.20032 0.78605   1
  -5   6   5 0.61649 0.71673   8
   4  -6  -5 0.92573 0.55254   8
   4  -6  -5 2.66627 0.87132   7
   4  -6  -5 2.16743 0.80488   2
  -4   6   5 2.30920 0.97432   4
  -4   6   5 2.79084 1.03030   1
  -4   6   5 2.12842 0.93535   9
  -4   6   5 1.08190 0.61119   8
   3  -6  -5 7.63355 1.21787   8
   3  -6  -5 7.11630 1.22566   2
   3  -6  -5 7.27931 1.20040   7
  -3   6   5 8.70988 1.34477   8
  -3   6   5 5.36132 1.31765   4
  -3   6   5 5.24497 1.34995   9
  -3   6   5 7.22124 1.48514   1
   2  -6  -5 7.24388 1.16191   8
   2  -6  -5 6.56529 1.06275   7
   2  -6  -5 5.92761 1.13333   2
  -2   6   5 7.38376 1.51240   9
  -2   6   5 9.49863 1.28834   8
  -2   6   5 6.56896 1.34466   1
  -2   6   5 9.60894 1.11689   6
  -2   6   5 6.59801 1.31595   4
   1  -6  -5 7.86159 1.09545   8
   1  -6  -5 8.70479 1.19466   2
   1  -6  -5 7.41889 1.14090   7
  -1   6   5 7.93633 1.48761   9
  -1   6   5 8.21084 1.42160   4
  -1   6   5 6.86156 1.06401   8
  -1   6   5 9.15336 1.09605   6
  -1   6   5 9.49324 1.48905   1
   0  -6  -5 48.5171 2.90060   2
   0  -6  -5 50.5693 2.54614   3
   0  -6  -5 45.7850 2.76807   8
   0  -6  -5 48.5151 2.90617   7
   0   6   5 44.7631 2.71726   6
   0   6   5 43.6791 2.78131   8
   0   6   5 45.5633 3.13882   1
   0   6   5 44.6015 3.05138   4
   0   6   5 46.3027 3.36453   9
  -1  -6  -5 -0.2028 0.30097   7
  -1  -6  -5 0.09901 0.22870   8
  -1  -6  -5 0.21390 0.25875   3
  -1  -6  -5 -0.2566 0.14893   2
   1   6   5 -0.5629 0.23127   1
   1   6   5 0.00116 0.37594   6
   1   6   5 0.01429 0.17765   5
   1   6   5 -0.2877 0.42330   9
   1   6   5 -0.2158 0.20490   4
   1   6   5 0.17768 0.31147   8
  -2  -6  -5 0.48470 0.46156   7
  -2  -6  -5 0.04037 0.24707   8
  -2  -6  -5 0.14843 0.28592   3
  -2  -6  -5 0.09807 0.32633   2
   2   6   5 0.27339 0.22782   5
   2   6   5 0.58327 0.39282   4
   2   6   5 0.09549 0.56660   9
   2   6   5 1.41540 0.73729   1
   2   6   5 1.15953 0.59521   6
  -3  -6  -5 68.5487 3.82534   3
  -3  -6  -5 63.7978 3.70628   2
  -3  -6  -5 68.9695 4.04145   7
   3   6   5 59.0656 3.43552   5
   3   6   5 67.9308 3.64814   4
   3   6   5 69.9911 4.02294   1
   3   6   5 69.2208 3.79580   6
   3   6   5 69.9798 4.26415   9
  -4  -6  -5 38.4535 2.78822   7
  -4  -6  -5 39.3078 2.47792   2
  -4  -6  -5 37.6189 2.61953   3
   4   6   5 33.6477 2.26619   5
   4   6   5 40.5556 2.68994   1
   4   6   5 36.2792 2.55760   6
   4   6   5 36.5559 2.82062   9
  -5  -6  -5 0.17786 0.57252   7
  -5  -6  -5 1.69326 0.70660   3
  -5  -6  -5 0.33871 0.45226   2
   5   6   5 0.08108 0.72546   1
   5   6   5 0.56022 0.70678   9
   5   6   5 0.37468 0.43316   5
   5   6   5 0.53272 0.54275   6
  -6  -6  -5 5.38888 1.02436   2
  -6  -6  -5 5.08967 1.23481   3
  -6  -6  -5 3.03356 1.01250   7
   6   6   5 6.30441 1.07456   5
   6   6   5 3.41310 0.94407   6
   6   6   5 3.36767 0.97066   1
   6   6   5 2.64087 1.20744   9
  -7  -6  -5 9.79216 1.91472   7
  -7  -6  -5 10.2635 1.78073   3
  -7  -6  -5 8.35209 1.34640   2
   7   6   5 8.09390 1.55469   1
   7   6   5 8.13769 1.29076   5
   7   6   5 11.1720 1.74215   6
  -8  -6  -5 19.1263 2.45469   2
  -8  -6  -5 16.4086 2.54534   7
  -8  -6  -5 18.0033 2.59660   3
   8   6   5 18.5665 2.14732   5
   8   6   5 14.5730 2.15717   6
  -9  -6  -5 0.48882 0.78184   7
  -9  -6  -5 -0.2651 0.95177   3
   9   6   5 -1.5786 0.92086   6
   9   6   5 -0.0950 0.54142   5
   6  -7  -5 14.6632 2.05524   7
   6  -7  -5 10.7880 1.90026   2
   6  -7  -5 14.5708 2.14160   8
  -6   7   5 11.8636 2.30704   4
  -6   7   5 12.4907 2.05324   8
   5  -7  -5 1.25421 0.80169   7
   5  -7  -5 -0.1522 0.45134   8
   5  -7  -5 1.25500 0.69615   2
  -5   7   5 2.18906 1.09643   4
  -5   7   5 0.93587 0.60956   1
  -5   7   5 0.17246 0.53945   8
   4  -7  -5 10.3863 1.64631   8
   4  -7  -5 9.02051 1.54674   2
   4  -7  -5 11.5816 1.68939   7
  -4   7   5 11.7974 1.91234   1
  -4   7   5 6.75436 1.39190   8
  -4   7   5 15.8689 2.34516   4
  -4   7   5 12.1610 2.12954   9
   3  -7  -5 20.2297 2.18062   8
   3  -7  -5 21.4066 1.92225   2
   3  -7  -5 20.7845 2.19529   7
  -3   7   5 15.3111 2.27504   4
  -3   7   5 21.7117 2.39894   9
  -3   7   5 16.2338 2.21510   1
  -3   7   5 16.3741 2.05270   8
   2  -7  -5 23.3443 1.91996   8
   2  -7  -5 25.0623 2.04550   7
   2  -7  -5 23.5028 1.98031   2
  -2   7   5 21.0526 2.10047   1
  -2   7   5 20.8982 1.88729   8
  -2   7   5 22.9456 2.64940   4
  -2   7   5 25.1324 2.46095   9
   1  -7  -5 0.58665 0.47502   8
   1  -7  -5 -0.4184 0.33431   7
   1  -7  -5 0.51442 0.39325   2
  -1   7   5 -0.2665 0.39805   8
  -1   7   5 0.61654 0.33803   6
  -1   7   5 -0.5963 0.19463   1
  -1   7   5 0.21058 0.41788   9
  -1   7   5 -0.0530 0.40301   4
   0  -7  -5 8.50710 0.98888   3
   0  -7  -5 7.81268 1.16488   2
   0  -7  -5 7.52875 1.05793   8
   0  -7  -5 10.2710 1.34387   7
   0   7   5 7.32946 1.08481   8
   0   7   5 5.96756 0.94095   6
   0   7   5 7.74075 1.31993   4
   0   7   5 8.20348 1.48852   9
   0   7   5 8.12429 1.40560   1
  -1  -7  -5 109.744 5.69934   2
  -1  -7  -5 107.653 5.46939   3
  -1  -7  -5 105.999 5.45463   8
  -1  -7  -5 110.813 5.83201   7
   1   7   5 114.544 5.93369   4
   1   7   5 113.389 6.02398   1
   1   7   5 104.414 5.53759   6
   1   7   5 107.029 6.23892   9
   1   7   5 105.171 5.50444   8
  -2  -7  -5 14.7013 1.16594   8
  -2  -7  -5 14.7336 1.35145   2
  -2  -7  -5 15.8288 1.38454   3
  -2  -7  -5 12.1837 1.59204   7
   2   7   5 16.9466 2.17102   9
   2   7   5 17.1025 1.44303   6
   2   7   5 17.4268 1.68992   1
   2   7   5 14.8468 1.43219   4
   2   7   5 15.6289 1.08984   5
  -3  -7  -5 1.89255 0.65430   3
  -3  -7  -5 2.93633 0.88946   7
  -3  -7  -5 1.60766 0.54797   2
   3   7   5 2.41117 0.83743   1
   3   7   5 2.72575 0.95035   9
   3   7   5 2.47157 0.64842   4
   3   7   5 1.98534 0.50868   5
   3   7   5 3.01222 0.77231   6
  -4  -7  -5 41.0868 2.69490   2
  -4  -7  -5 40.4594 2.86245   3
  -4  -7  -5 41.1769 3.05173   7
   4   7   5 39.6999 2.51021   5
   4   7   5 41.9224 2.84396   6
   4   7   5 42.8839 2.97179   1
   4   7   5 42.9861 3.31787   9
  -5  -7  -5 11.2729 1.64942   3
  -5  -7  -5 10.5167 1.73856   7
  -5  -7  -5 11.4949 1.43493   2
   5   7   5 15.2669 1.77378   6
   5   7   5 11.3846 1.85742   9
   5   7   5 10.4696 1.72862   1
   5   7   5 13.5586 1.46783   5
  -6  -7  -5 1.46704 0.98722   7
  -6  -7  -5 1.75758 0.68813   2
  -6  -7  -5 3.10544 1.05182   3
   6   7   5 0.26276 0.93325   1
   6   7   5 3.19818 0.80030   5
   6   7   5 1.25217 0.97351   9
   6   7   5 0.90816 0.69937   6
  -7  -7  -5 7.50791 1.55033   3
  -7  -7  -5 8.57998 1.78727   7
  -7  -7  -5 7.05141 1.41788   2
   7   7   5 6.71409 1.50797   6
   7   7   5 8.12545 1.35482   5
   7   7   5 6.83667 1.62655   1
  -8  -7  -5 39.6328 3.54874   3
  -8  -7  -5 46.8641 4.05222   7
   8   7   5 44.3462 3.52514   6
   8   7   5 43.3452 3.24750   5
  -9  -7  -5 38.8092 4.42976   3
  -9  -7  -5 47.8973 4.39998   7
   9   7   5 49.2414 3.77536   6
   9   7   5 52.4736 3.73445   5
   6  -8  -5 1.39834 1.03220   8
   6  -8  -5 0.02425 0.80115   2
   6  -8  -5 1.39477 0.99004   7
  -6   8   5 2.49936 1.16500   4
  -6   8   5 0.20640 0.89775   8
   5  -8  -5 18.6937 2.40162   7
   5  -8  -5 20.6030 2.43705   8
   5  -8  -5 16.5495 2.22997   2
  -5   8   5 19.1531 2.84106   4
  -5   8   5 18.1723 2.56228   1
  -5   8   5 17.4988 2.37074   8
   4  -8  -5 30.6212 2.70765   2
   4  -8  -5 32.7609 2.69418   8
   4  -8  -5 31.2180 2.61804   7
  -4   8   5 28.4520 3.38280   4
  -4   8   5 26.2573 2.85252   8
  -4   8   5 35.5029 3.04077   1
   3  -8  -5 1.51606 0.69783   7
   3  -8  -5 2.76908 0.87549   2
   3  -8  -5 2.22836 0.79637   8
  -3   8   5 1.31912 0.76139   8
  -3   8   5 0.96303 0.81148   4
  -3   8   5 1.77812 0.85402   1
  -3   8   5 1.45242 0.72026   9
   2  -8  -5 -0.2407 0.53889   7
   2  -8  -5 0.42280 0.41516   8
   2  -8  -5 0.18812 0.38139   2
  -2   8   5 0.78223 0.72143   4
  -2   8   5 0.99772 0.57514   9
  -2   8   5 0.45135 0.47297   8
  -2   8   5 -0.1464 0.32685   1
   1  -8  -5 85.5331 4.70075   8
   1  -8  -5 89.3423 4.91860   7
   1  -8  -5 82.7690 4.81098   2
  -1   8   5 81.1300 5.35716   9
  -1   8   5 80.7283 5.06029   1
  -1   8   5 79.1738 5.06909   4
  -1   8   5 85.5732 4.74881   8
   0  -8  -5 1.53619 0.59503   2
   0  -8  -5 1.81574 0.72348   7
   0  -8  -5 1.71871 0.55211   8
   0   8   5 2.31576 0.83612   4
   0   8   5 1.69129 0.56718   8
   0   8   5 1.37412 0.79725   1
   0   8   5 2.66960 0.91438   9
   0   8   5 1.70513 0.52914   6
  -1  -8  -5 61.8041 3.64954   2
  -1  -8  -5 56.9487 3.76918   7
  -1  -8  -5 65.3562 3.45948   8
   1   8   5 56.7314 4.11054   9
   1   8   5 61.8179 3.47791   8
   1   8   5 61.3624 3.83638   4
   1   8   5 61.1262 3.97095   1
   1   8   5 59.9421 3.49986   6
  -2  -8  -5 2.76334 0.73492   3
  -2  -8  -5 1.78340 0.79149   7
  -2  -8  -5 2.38581 0.68047   2
   2   8   5 2.17553 0.75464   6
   2   8   5 2.41363 0.72668   4
   2   8   5 2.70090 0.99272   1
   2   8   5 2.96975 1.13579   9
  -3  -8  -5 8.48335 1.25754   2
  -3  -8  -5 10.9375 1.52055   3
  -3  -8  -5 10.0797 1.54683   7
   3   8   5 12.8250 1.92819   9
   3   8   5 10.5376 1.64713   1
   3   8   5 12.1187 1.46595   4
   3   8   5 13.6371 1.59528   6
   3   8   5 11.4194 1.02907   5
  -4  -8  -5 56.0661 3.29029   2
  -4  -8  -5 46.8845 3.40090   3
  -4  -8  -5 58.7313 3.80213   7
   4   8   5 49.1892 2.98141   5
   4   8   5 48.4392 3.76370   9
   4   8   5 49.6053 3.34350   6
   4   8   5 54.9068 3.62195   1
  -5  -8  -5 52.5400 3.78099   7
  -5  -8  -5 54.2721 3.25901   2
  -5  -8  -5 45.7474 3.49058   3
   5   8   5 53.4755 3.38483   6
   5   8   5 49.8743 3.62978   1
   5   8   5 45.4065 3.84709   9
   5   8   5 46.9924 3.06093   5
  -6  -8  -5 4.16302 0.97085   2
  -6  -8  -5 6.07785 1.34765   3
  -6  -8  -5 6.33134 1.52476   7
   6   8   5 5.53460 1.23068   6
   6   8   5 5.56866 1.55475   1
   6   8   5 6.07659 1.11451   5
  -7  -8  -5 16.1377 2.43308   7
  -7  -8  -5 11.3284 2.03105   3
   7   8   5 15.8278 2.05729   6
   7   8   5 16.6085 2.24684   1
   7   8   5 12.3815 1.74138   5
  -8  -8  -5 4.97846 1.44217   3
  -8  -8  -5 5.22076 1.69166   7
   8   8   5 4.71609 1.12261   5
   8   8   5 4.65509 1.34911   6
   5  -9  -5 1.43970 0.87400   8
   5  -9  -5 1.10865 1.02316   7
   5  -9  -5 1.93090 0.87247   2
  -5   9   5 0.49517 0.91507   8
  -5   9   5 1.37908 1.04771   4
   4  -9  -5 16.0232 2.21146   7
   4  -9  -5 13.7069 2.02896   8
   4  -9  -5 19.1975 2.38327   2
  -4   9   5 13.3466 2.39207   4
  -4   9   5 18.2891 2.50180   1
  -4   9   5 18.1573 2.30823   8
   3  -9  -5 4.54332 1.13578   2
   3  -9  -5 5.68857 1.35356   7
   3  -9  -5 8.01209 1.42633   8
  -3   9   5 6.73365 1.49514   1
  -3   9   5 5.18735 1.36817   4
  -3   9   5 6.60840 1.39864   8
   2  -9  -5 9.89505 1.49572   8
   2  -9  -5 12.3971 1.80086   7
   2  -9  -5 10.2307 1.58192   2
  -2   9   5 12.4080 1.91572   1
  -2   9   5 11.1786 1.85584   4
  -2   9   5 13.5517 1.76587   8
   1  -9  -5 1.33534 0.69096   2
   1  -9  -5 1.80888 0.64069   8
   1  -9  -5 2.72860 0.82374   7
  -1   9   5 3.50652 1.05385   1
  -1   9   5 3.39037 0.96672   9
  -1   9   5 0.83509 0.63149   4
  -1   9   5 3.43279 0.85484   8
   0  -9  -5 31.4412 2.50497   2
   0  -9  -5 36.1696 2.43456   8
   0  -9  -5 36.4360 2.71628   7
   0   9   5 39.7671 3.17579   9
   0   9   5 35.7792 2.44695   8
   0   9   5 32.3904 2.77975   4
   0   9   5 30.8830 2.70290   1
  -1  -9  -5 1.19994 0.69644   7
  -1  -9  -5 1.30292 0.54282   8
  -1  -9  -5 1.35946 0.65325   2
  -1  -9  -5 1.32986 0.58277   3
   1   9   5 1.01288 0.68237   4
   1   9   5 1.27504 0.59186   8
   1   9   5 2.45476 0.94337   9
   1   9   5 2.47076 0.74212   6
   1   9   5 1.40997 0.74122   1
  -2  -9  -5 49.3564 3.19763   2
  -2  -9  -5 51.4672 3.54363   7
  -2  -9  -5 50.8716 3.23141   3
   2   9   5 45.6549 3.53163   1
   2   9   5 48.9702 3.33245   4
   2   9   5 50.3470 3.18690   6
   2   9   5 52.6387 3.96298   9
  -3  -9  -5 2.82697 0.79464   2
  -3  -9  -5 5.46720 1.12873   3
  -3  -9  -5 6.57219 1.39760   7
   3   9   5 5.10890 1.05419   4
   3   9   5 3.89635 1.09523   6
   3   9   5 3.38270 1.26030   1
   3   9   5 4.65495 1.32902   9
  -4  -9  -5 59.3929 4.22508   7
  -4  -9  -5 64.8627 4.13787   3
  -4  -9  -5 63.7643 3.78999   2
   4   9   5 63.0887 3.89244   6
   4   9   5 58.5734 4.21268   1
  -5  -9  -5 103.372 6.32548   3
  -5  -9  -5 108.891 6.62074   7
   5   9   5 110.156 5.78089   5
   5   9   5 109.003 6.12007   6
   5   9   5 110.322 6.38413   1
  -6  -9  -5 135.030 8.20990   3
  -6  -9  -5 154.128 8.72290   7
   6   9   5 145.301 8.23506   1
   6   9   5 152.040 7.72655   5
   6   9   5 153.019 8.00463   6
  -7  -9  -5 1.51366 0.97641   7
  -7  -9  -5 1.25368 0.99272   3
   7   9   5 -0.4759 1.22956   1
   7   9   5 0.09334 1.10252   6
   7   9   5 0.93892 0.57084   5
  -8  -9  -5 0.11497 1.16084   7
  -8  -9  -5 0.94890 0.88121   3
   8   9   5 -1.3035 0.74632   6
   8   9   5 0.67922 0.80477   5
   5 -10  -5 102.823 5.99087   8
   5 -10  -5 91.9060 6.54844   2
  -5  10   5 78.1242 5.59636   8
  -5  10   5 80.4851 6.62720   4
   4 -10  -5 54.0381 3.83151   2
   4 -10  -5 46.8237 3.75773   7
   4 -10  -5 47.1994 3.60034   8
  -4  10   5 47.6578 3.89326   1
  -4  10   5 46.1779 3.62809   8
  -4  10   5 41.7807 3.88186   4
   3 -10  -5 12.3991 1.81272   8
   3 -10  -5 11.2624 1.79047   2
   3 -10  -5 10.7589 1.73180   7
  -3  10   5 7.70838 1.51602   8
  -3  10   5 10.3357 1.87233   1
  -3  10   5 8.79106 1.82161   4
   2 -10  -5 19.8170 2.27464   2
   2 -10  -5 15.7236 1.95617   8
   2 -10  -5 18.0007 2.27682   7
  -2  10   5 17.4590 2.37896   1
  -2  10   5 20.2095 2.65575   4
  -2  10   5 14.2793 1.89749   8
   1 -10  -5 4.07112 1.03942   2
   1 -10  -5 5.08958 1.17070   7
   1 -10  -5 2.86168 0.85970   8
  -1  10   5 4.08277 1.11825   1
  -1  10   5 4.90521 1.07608   8
  -1  10   5 3.42257 1.17060   4
   0 -10  -5 -0.1602 0.43307   7
   0 -10  -5 0.24571 0.42491   8
   0 -10  -5 -0.0069 0.52465   2
   0  10   5 0.67211 0.52201   8
   0  10   5 -0.9146 0.41905   4
   0  10   5 0.67519 0.51990   1
  -1 -10  -5 42.1831 3.24439   7
  -1 -10  -5 40.9818 2.96733   2
   1  10   5 43.9850 3.26215   4
   1  10   5 49.7682 3.56957   1
  -2 -10  -5 112.031 6.51829   7
  -2 -10  -5 110.504 6.05566   2
  -2 -10  -5 109.882 6.15108   3
   2  10   5 108.467 6.26937   4
   2  10   5 115.449 6.59786   1
   2  10   5 113.222 5.99106   6
  -3 -10  -5 5.24149 1.07593   2
  -3 -10  -5 4.59869 1.26229   7
  -3 -10  -5 4.23501 1.01249   3
   3  10   5 3.27078 0.94857   6
   3  10   5 5.57332 1.32076   1
  -4 -10  -5 2.69989 0.88692   3
  -4 -10  -5 1.63953 0.86815   7
   4  10   5 0.79548 0.75703   6
   4  10   5 2.12533 1.11523   1
  -5 -10  -5 9.48233 1.74718   3
  -5 -10  -5 8.64429 1.82056   7
   5  10   5 8.78007 1.74776   6
   5  10   5 11.0614 1.99918   1
  -6 -10  -5 21.7036 2.94338   7
  -6 -10  -5 26.3091 3.07785   3
   6  10   5 23.2448 2.87052   1
   6  10   5 22.2335 2.67795   6
   6  10   5 20.0395 2.14841   5
  -7 -10  -5 33.1774 3.74500   3
  -7 -10  -5 44.3369 4.01627   7
   7  10   5 39.4046 3.26359   6
   7  10   5 39.2946 3.68808   1
   7  10   5 37.2034 2.89400   5
   4 -11  -5 6.12818 1.43138   2
   4 -11  -5 6.04364 1.47425   7
   4 -11  -5 3.36363 1.05614   8
  -4  11   5 3.99285 1.20378   8
  -4  11   5 3.18239 1.57772   4
  -4  11   5 4.55611 1.43610   1
   3 -11  -5 36.8468 3.24335   7
   3 -11  -5 33.6654 2.84737   8
   3 -11  -5 38.3170 3.10462   2
  -3  11   5 33.8878 3.31762   4
  -3  11   5 35.8041 2.95400   8
  -3  11   5 30.9277 3.05187   1
   2 -11  -5 3.11408 1.00748   2
   2 -11  -5 2.25376 0.92589   8
   2 -11  -5 3.53462 1.23306   7
  -2  11   5 1.42428 0.81989   8
  -2  11   5 1.38807 0.86124   4
  -2  11   5 4.25219 1.20165   1
   1 -11  -5 10.3244 1.67918   2
   1 -11  -5 8.34185 1.38833   8
   1 -11  -5 13.2142 2.00700   7
  -1  11   5 12.9170 2.02112   1
  -1  11   5 10.3703 1.59489   8
  -1  11   5 9.20031 1.79259   4
   0 -11  -5 4.19556 1.20700   7
   0 -11  -5 7.40248 1.32761   2
   0  11   5 6.15985 1.40186   1
   0  11   5 6.73325 1.45014   4
  -1 -11  -5 0.76999 0.64890   2
  -1 -11  -5 0.66055 0.63128   7
   1  11   5 1.08811 0.63754   4
   1  11   5 1.96029 0.95146   1
  -2 -11  -5 3.76807 1.03037   2
  -2 -11  -5 5.86766 1.37888   7
   2  11   5 9.36900 1.57259   4
   2  11   5 7.40779 1.58815   1
  -3 -11  -5 47.0290 3.75048   7
  -3 -11  -5 51.3567 3.57456   3
   3  11   5 40.8512 3.21243   6
   3  11   5 47.3308 3.81713   1
  -4 -11  -5 19.0741 2.60023   7
  -4 -11  -5 15.8491 2.23963   3
   4  11   5 20.5963 2.65519   1
   4  11   5 15.4389 2.14748   6
  -5 -11  -5 39.7287 3.52991   7
  -5 -11  -5 35.1423 3.23671   3
   5  11   5 38.3035 3.07679   6
   5  11   5 39.9333 3.63743   1
  -6 -11  -5 35.2459 3.94748   7
  -6 -11  -5 29.1272 3.38412   3
   6  11   5 36.2323 3.57352   1
   6  11   5 30.6887 2.87255   6
   3 -12  -5 4.20445 1.29037   2
   3 -12  -5 2.30089 1.38389   7
   3 -12  -5 4.84311 1.33259   8
  -3  12   5 8.34734 1.62709   1
  -3  12   5 5.59783 1.46364   8
   2 -12  -5 0.59305 0.62564   2
   2 -12  -5 1.55340 0.81768   8
   2 -12  -5 0.79788 0.80237   7
  -2  12   5 0.77412 0.77623   4
  -2  12   5 2.19781 0.81974   1
  -2  12   5 1.17204 0.90806   8
   1 -12  -5 15.3987 2.12063   2
   1 -12  -5 16.2772 2.31789   7
  -1  12   5 15.5633 2.35527   1
  -1  12   5 15.9323 2.49168   4
   0 -12  -5 3.59696 1.08993   2
   0 -12  -5 3.72042 1.25898   7
   0  12   5 4.93251 1.37551   4
   0  12   5 6.73252 1.52073   1
  -1 -12  -5 2.63627 0.94782   2
  -1 -12  -5 2.41870 1.07950   7
   1  12   5 2.05137 0.95807   4
   1  12   5 4.07238 1.18073   1
  -2 -12  -5 1.06702 0.98932   7
   2  12   5 1.19416 0.89637   1
   2  12   5 1.09457 0.81472   4
  -3 -12  -5 62.2816 4.72777   7
   3  12   5 64.8402 4.71966   1
  -4 -12  -5 22.3582 2.91005   7
  -4 -12  -5 12.3964 2.22433   3
   4  12   5 19.7783 2.47481   6
   4  12   5 21.1203 2.96114   1
  -5 -12  -5 12.6359 2.27840   7
  -5 -12  -5 9.77819 1.86741   3
   5  12   5 10.1347 2.29569   1
   5  12   5 9.66550 1.83599   6
   1 -13  -5 3.17552 1.15161   2
  -1  13   5 2.72568 1.18083   4
  -1  13   5 6.96539 1.46653   1
   0 -13  -5 17.9373 2.37201   2
   0 -13  -5 25.8349 3.17239   7
   0  13   5 23.6714 2.98247   1
   0  13   5 22.1425 2.98413   4
  -1 -13  -5 2.26025 1.14657   7
   1  13   5 2.70269 1.05989   4
   1  13   5 4.04797 1.16577   1
  -2 -13  -5 19.0714 2.75708   7
   2  13   5 19.1497 2.81498   1
  -3 -13  -5 3.36264 1.43241   7
   3  13   5 2.53407 1.62044   1
   2  11  -6 -2.1976 1.19867   1
   2  11  -6 -2.1512 0.97810   4
  -2 -11   6 0.15859 0.96511   5
  -2 -11   6 1.04665 1.05990   3
   1  11  -6 -0.5503 1.24020   1
   1  11  -6 0.22095 1.24355   4
  -1 -11   6 0.79794 1.15418   3
  -1 -11   6 1.23374 1.10911   5
   0  11  -6 39.1474 4.29128   4
   0  11  -6 35.2191 3.53381   1
   0 -11   6 40.7225 3.75161   3
   0 -11   6 41.6988 3.36440   5
  -1  11  -6 -1.2224 1.31792   4
   1 -11   6 0.26896 0.93397   3
   1 -11   6 1.81014 0.97244   5
  -2  11  -6 4.11581 1.76041   4
   2 -11   6 2.01292 1.24060   3
  -3  11  -6 32.9835 3.84379   4
  -3  11  -6 24.3781 2.72683   8
   3 -11   6 34.0986 3.71157   3
  -4  11  -6 5.30924 1.66143   4
  -4  11  -6 2.15984 1.09641   8
   4 -11   6 3.70567 1.58908   3
   3  10  -6 -0.0291 0.47509   6
   3  10  -6 0.79099 1.35531   1
   3  10  -6 -1.3590 0.96804   4
  -3 -10   6 0.64263 0.85009   3
  -3 -10   6 0.00428 0.55611   6
  -3 -10   6 0.88671 0.75492   5
   2  10  -6 12.9600 2.37349   1
   2  10  -6 18.3669 2.18897   6
   2  10  -6 15.8930 2.74960   4
  -2 -10   6 18.4481 2.78052   3
  -2 -10   6 20.9253 2.65018   5
  -2 -10   6 17.4844 2.19034   6
   1  10  -6 10.1798 2.09402   1
   1  10  -6 13.8239 2.41008   4
  -1 -10   6 13.5954 2.25504   3
  -1 -10   6 12.0471 1.94817   5
   0  10  -6 -0.0754 1.11493   1
   0  10  -6 -0.5878 1.29797   4
   0 -10   6 0.79018 1.03050   3
   0 -10   6 -0.4608 0.46627   5
  -1  10  -6 1.28633 1.44926   4
  -1  10  -6 2.42888 1.37880   1
   1 -10   6 3.03415 1.02533   5
   1 -10   6 2.27072 1.04353   3
  -2  10  -6 2.17296 0.90115   8
  -2  10  -6 1.38255 1.45023   4
   2 -10   6 2.45774 1.07180   3
   2 -10   6 2.42917 0.95174   5
  -3  10  -6 29.3410 2.67040   8
  -3  10  -6 38.5584 3.42322   4
   3 -10   6 33.1896 3.53655   5
   3 -10   6 42.1855 3.46296   3
  -4  10  -6 -0.0445 0.71764   4
  -4  10  -6 -0.2840 0.61344   8
   4 -10   6 0.22453 0.91173   3
  -5  10  -6 4.82570 1.21871   8
  -5  10  -6 5.21638 1.47471   4
   5 -10   6 6.10952 1.73604   3
   5 -10   6 3.97279 1.40104   7
  -6  10  -6 13.4605 2.20613   4
   6 -10   6 14.6441 2.36570   7
   4   9  -6 33.4935 3.24006   1
   4   9  -6 28.0943 3.53511   4
   4   9  -6 31.1387 2.82154   6
  -4  -9   6 29.7269 3.25944   5
  -4  -9   6 28.3724 3.51877   3
  -4  -9   6 31.8367 2.86834   6
   3   9  -6 -0.4571 0.71933   6
   3   9  -6 0.41780 1.07890   1
   3   9  -6 -1.1978 1.08139   4
  -3  -9   6 0.96872 0.81146   5
  -3  -9   6 -0.3570 0.61896   6
  -3  -9   6 0.28222 0.89709   3
   2   9  -6 1.08806 0.82173   6
   2   9  -6 3.28138 1.16126   1
   2   9  -6 0.62815 1.25488   4
  -2  -9   6 2.66471 0.98605   6
  -2  -9   6 3.52998 1.15222   3
  -2  -9   6 4.56947 1.15974   5
   1   9  -6 24.6982 2.37218   1
   1   9  -6 17.9379 2.08838   6
   1   9  -6 20.6201 2.85263   4
  -1  -9   6 23.4225 2.80379   3
  -1  -9   6 20.4805 2.44568   5
  -1  -9   6 18.9795 2.14823   6
   0   9  -6 9.12901 2.05378   4
   0   9  -6 7.50359 1.58614   1
   0  -9   6 10.3242 1.86842   3
   0  -9   6 5.42173 1.27744   5
  -1   9  -6 -0.5914 0.77097   1
  -1   9  -6 -0.2020 1.07911   9
  -1   9  -6 1.54333 0.67665   8
  -1   9  -6 -2.7268 0.84726   4
   1  -9   6 1.47353 0.82050   5
   1  -9   6 1.63819 0.85581   3
  -2   9  -6 1.54370 0.73612   8
  -2   9  -6 -1.0210 0.69790   4
   2  -9   6 -0.3390 0.76480   3
   2  -9   6 0.30256 0.64093   5
  -3   9  -6 -1.7860 0.87290   4
  -3   9  -6 2.09958 0.79225   8
   3  -9   6 -0.3428 0.56242   5
   3  -9   6 0.24352 0.59924   3
  -4   9  -6 -0.4622 0.55824   8
  -4   9  -6 -0.8075 0.89142   4
   4  -9   6 1.42351 0.84482   7
   4  -9   6 0.29165 0.94506   3
   4  -9   6 -0.1707 0.60183   5
  -5   9  -6 1.66617 0.80170   8
  -5   9  -6 1.56329 0.91297   4
   5  -9   6 1.27836 1.04248   3
   5  -9   6 1.46351 0.85032   7
  -6   9  -6 12.5640 2.10442   4
  -6   9  -6 10.5513 1.97004   2
  -6   9  -6 11.0369 1.79455   8
   6  -9   6 12.0151 2.15331   3
   6  -9   6 13.0790 2.07799   7
  -7   9  -6 0.20380 0.78523   2
   7  -9   6 0.70931 1.03201   7
   5   8  -6 -0.0938 0.86031   6
   5   8  -6 1.26291 1.11000   1
   5   8  -6 2.01347 1.21553   4
  -5  -8   6 1.17453 1.01182   6
  -5  -8   6 1.58152 0.86003   5
  -5  -8   6 0.04015 0.93535   3
   4   8  -6 23.7490 3.03911   4
   4   8  -6 24.6791 2.83468   6
   4   8  -6 28.8871 2.83384   1
  -4  -8   6 24.3167 2.77241   6
  -4  -8   6 24.9914 2.86287   5
  -4  -8   6 21.6013 2.88243   3
   3   8  -6 13.1049 2.05774   1
   3   8  -6 10.9296 1.96141   4
   3   8  -6 12.2418 1.84270   6
  -3  -8   6 11.5061 1.83026   5
  -3  -8   6 14.7193 2.03557   6
  -3  -8   6 8.79696 1.71702   3
   2   8  -6 12.1011 1.72304   6
   2   8  -6 10.6295 1.79926   1
   2   8  -6 6.36339 1.55207   4
  -2  -8   6 9.26237 1.72901   3
  -2  -8   6 8.93589 1.59147   5
  -2  -8   6 11.0915 1.68807   6
   1   8  -6 13.3182 1.72040   6
   1   8  -6 11.7958 1.98800   4
   1   8  -6 16.8645 2.23988   1
  -1  -8   6 17.6683 1.97683   6
  -1  -8   6 11.9099 1.74226   5
  -1  -8   6 14.5842 2.09083   3
   0   8  -6 2.84180 1.15425   4
   0   8  -6 3.63231 1.02696   1
   0   8  -6 4.66940 0.90188   6
   0   8  -6 3.90707 0.86123   8
   0   8  -6 2.13191 1.03577   9
   0  -8   6 5.23895 1.30194   3
   0  -8   6 4.97758 1.00734   6
   0  -8   6 6.01385 1.28371   5
  -1   8  -6 9.54976 1.29991   8
  -1   8  -6 8.12755 1.69754   9
  -1   8  -6 8.16972 1.73929   4
  -1   8  -6 10.3411 1.59026   1
   1  -8   6 10.4887 1.54447   5
   1  -8   6 10.9989 1.80404   3
  -2   8  -6 23.6444 1.96084   8
  -2   8  -6 23.2923 2.70624   4
   2  -8   6 24.2414 2.13437   5
   2  -8   6 20.7928 2.54859   3
  -3   8  -6 26.4272 2.32182   8
  -3   8  -6 30.6943 2.79771   4
   3  -8   6 33.5035 2.52140   7
   3  -8   6 32.2663 2.57274   5
   3  -8   6 34.0299 2.88819   3
  -4   8  -6 -0.9452 0.86887   4
  -4   8  -6 -0.5154 0.53413   8
   4  -8   6 0.36613 0.65697   7
   4  -8   6 -0.4378 0.57632   5
   4  -8   6 0.03018 0.81305   3
  -5   8  -6 0.14220 0.58053   4
  -5   8  -6 1.27495 0.79949   8
  -5   8  -6 -0.1327 0.67573   2
   5  -8   6 0.15193 0.58710   3
   5  -8   6 -0.0536 0.65676   7
   5  -8   6 0.20114 0.65214   5
  -6   8  -6 -0.8174 0.71938   2
  -6   8  -6 0.25072 0.76119   4
  -6   8  -6 0.77793 0.83505   8
   6  -8   6 1.00734 0.86280   7
   6  -8   6 0.64213 0.94162   3
  -7   8  -6 10.4651 2.06313   2
  -7   8  -6 11.0095 1.86550   8
   7  -8   6 9.62390 1.92740   3
   7  -8   6 9.27643 1.89908   7
  -6  -7   6 0.32914 0.97191   3
   5   7  -6 14.1907 2.14071   6
   5   7  -6 18.6978 2.67895   1
   5   7  -6 12.5808 2.15217   4
  -5  -7   6 12.3762 2.03825   5
  -5  -7   6 11.3757 2.03543   3
  -5  -7   6 13.7963 2.10586   6
   4   7  -6 11.4657 2.10553   1
   4   7  -6 9.36573 1.68715   6
   4   7  -6 8.85371 1.88640   4
  -4  -7   6 11.2858 1.86738   6
  -4  -7   6 8.44412 1.77149   3
  -4  -7   6 10.3793 1.79682   5
   3   7  -6 0.94890 0.94175   1
   3   7  -6 1.30035 0.87417   6
   3   7  -6 2.39558 1.05235   4
  -3  -7   6 0.94043 0.87277   5
  -3  -7   6 2.03877 0.89610   3
  -3  -7   6 2.36154 0.94093   6
   2   7  -6 1.41609 0.63689   6
   2   7  -6 0.91600 0.83880   1
   2   7  -6 1.19041 0.78918   4
  -2  -7   6 -0.2485 0.34924   6
  -2  -7   6 -0.1817 0.61211   3
  -2  -7   6 0.90803 0.63944   5
   1   7  -6 -0.3820 0.65068   9
   1   7  -6 -0.4552 0.54761   1
   1   7  -6 -0.0124 0.42026   8
   1   7  -6 -0.4256 0.73985   4
  -1  -7   6 0.07823 0.54010   5
  -1  -7   6 -0.0375 0.40849   3
  -1  -7   6 -0.5580 0.37322   6
   0   7  -6 -0.3334 0.41256   8
   0   7  -6 0.44149 0.45797   1
   0   7  -6 0.26019 0.66065   9
   0   7  -6 -1.4942 0.67630   4
   0  -7   6 -0.0158 0.54299   3
   0  -7   6 0.13273 0.41513   5
   0  -7   6 -0.1624 0.43373   6
  -1   7  -6 10.6917 1.32710   8
  -1   7  -6 10.5555 1.66626   4
  -1   7  -6 9.82087 1.63127   9
  -1   7  -6 7.90348 1.31485   1
   1  -7   6 9.62088 1.54637   3
   1  -7   6 10.8347 1.54071   5
   1  -7   6 7.05920 1.08304   6
  -2   7  -6 22.7650 2.31751   4
  -2   7  -6 27.4339 2.31475   9
  -2   7  -6 26.9170 2.09339   1
  -2   7  -6 27.8779 2.08734   8
   2  -7   6 25.9035 2.20936   5
   2  -7   6 27.1841 2.00727   7
   2  -7   6 24.8600 2.26427   3
  -3   7  -6 191.188 9.63140   2
  -3   7  -6 186.915 9.11853   8
  -3   7  -6 172.334 9.49111   4
   3  -7   6 171.895 9.19876   5
   3  -7   6 177.351 9.49472   3
   3  -7   6 193.815 9.18850   7
  -4   7  -6 2.39010 1.00555   4
  -4   7  -6 3.43790 0.95957   8
  -4   7  -6 4.29356 1.07822   2
   4  -7   6 2.49818 0.75432   5
   4  -7   6 3.63352 0.97792   7
   4  -7   6 2.03747 0.94876   3
  -5   7  -6 5.63087 1.18932   8
  -5   7  -6 5.67362 1.26452   2
  -5   7  -6 8.77266 1.53426   4
   5  -7   6 10.0019 1.50026   5
   5  -7   6 7.30361 1.47633   3
   5  -7   6 7.71151 1.47999   7
  -6   7  -6 6.11092 1.24615   8
  -6   7  -6 6.08610 1.45552   2
  -6   7  -6 5.07338 1.18555   4
   6  -7   6 3.34487 1.12786   7
   6  -7   6 5.29967 1.09309   5
   6  -7   6 3.89715 1.17071   3
  -7   7  -6 15.5694 2.29118   2
  -7   7  -6 15.6562 2.15431   8
   7  -7   6 15.5560 2.35960   7
   7  -7   6 16.5685 2.40974   3
  -8   7  -6 78.0717 5.16511   8
  -8   7  -6 79.5540 5.55037   2
   8  -7   6 77.6772 5.52299   3
   8  -7   6 79.5662 5.48580   7
   6   6  -6 2.83842 1.12123   6
   6   6  -6 1.63565 1.28368   1
   6   6  -6 2.89863 1.31555   4
  -6  -6   6 0.90400 0.71684   6
  -6  -6   6 1.21047 0.83510   3
  -6  -6   6 1.67014 1.04306   5
   5   6  -6 12.4568 2.23822   1
   5   6  -6 9.24308 1.87861   4
   5   6  -6 11.6532 1.94691   6
  -5  -6   6 11.6638 1.87958   6
  -5  -6   6 7.64734 1.64400   5
  -5  -6   6 10.7113 1.91674   3
   4   6  -6 4.50349 1.29235   4
   4   6  -6 3.27411 1.13149   1
   4   6  -6 4.79275 1.27423   6
  -4  -6   6 2.78108 0.93503   3
  -4  -6   6 3.13222 0.99937   5
  -4  -6   6 2.29484 0.98229   6
   3   6  -6 2.69485 1.08514   1
   3   6  -6 2.25401 0.92219   4
  -3  -6   6 3.25551 1.04900   3
  -3  -6   6 1.09089 0.74031   6
  -3  -6   6 3.13953 1.02952   5
   2   6  -6 18.7192 2.52117   9
   2   6  -6 20.1665 1.96828   1
   2   6  -6 19.9107 2.33973   4
  -2  -6   6 18.6271 2.16232   3
  -2  -6   6 14.7255 1.93994   5
  -2  -6   6 13.9151 1.85919   6
   1   6  -6 3.42170 0.73497   8
   1   6  -6 2.01644 0.93522   9
   1   6  -6 4.03849 1.03611   1
   1   6  -6 2.45269 0.89383   4
  -1  -6   6 4.36739 0.99396   5
  -1  -6   6 3.24163 0.88332   6
  -1  -6   6 2.28357 0.77327   3
   0   6  -6 0.17457 0.44265   8
   0   6  -6 0.43873 0.43720   1
   0   6  -6 0.43965 0.62279   9
   0   6  -6 0.68859 0.62739   4
   0  -6   6 0.32061 0.40995   3
   0  -6   6 1.22929 0.55925   5
   0  -6   6 0.34132 0.39048   6
  -1   6  -6 11.9811 1.36773   8
  -1   6  -6 12.0682 1.69044   9
  -1   6  -6 11.5274 1.48624   1
  -1   6  -6 10.6230 1.70090   4
   1  -6   6 11.0338 1.51084   5
   1  -6   6 12.3577 1.40690   6
   1  -6   6 14.0697 1.69550   3
  -2   6  -6 1.01947 0.70910   4
  -2   6  -6 -0.2314 0.26521   8
  -2   6  -6 -0.0919 0.38748   1
  -2   6  -6 0.17942 0.38176   2
  -2   6  -6 -0.0844 0.46360   9
   2  -6   6 -0.2115 0.26786   6
   2  -6   6 -0.2482 0.45214   3
   2  -6   6 0.28516 0.42024   5
   2  -6   6 0.22177 0.40580   7
  -3   6  -6 28.8456 2.16576   2
  -3   6  -6 30.6439 2.21025   8
  -3   6  -6 28.8351 2.52376   4
   3  -6   6 31.1946 2.18786   7
   3  -6   6 27.3015 2.23190   5
   3  -6   6 24.9934 2.28980   3
  -4   6  -6 1.84904 1.02750   4
  -4   6  -6 1.09178 0.63881   2
  -4   6  -6 1.71996 0.72129   8
   4  -6   6 1.29725 0.67313   7
   4  -6   6 1.99238 0.71122   5
   4  -6   6 1.15722 0.64593   3
  -5   6  -6 74.0148 4.82305   2
  -5   6  -6 78.0784 4.81782   4
  -5   6  -6 80.8020 4.72996   8
   5  -6   6 79.9013 5.03050   3
   5  -6   6 83.4127 4.77507   5
   5  -6   6 89.3452 4.97810   7
  -6   6  -6 27.4080 2.56009   2
  -6   6  -6 29.2237 2.50568   4
  -6   6  -6 32.3096 2.51050   8
   6  -6   6 26.5553 2.94132   3
   6  -6   6 32.6931 2.74583   7
   6  -6   6 31.0661 2.43685   5
  -7   6  -6 8.05399 1.55493   8
  -7   6  -6 9.32708 1.71536   2
   7  -6   6 4.93214 1.28621   3
   7  -6   6 7.47121 1.63469   7
   7  -6   6 8.36987 1.52022   5
  -8   6  -6 1.44573 0.91706   2
  -8   6  -6 1.71014 0.84568   8
   8  -6   6 1.30622 0.85012   5
   8  -6   6 0.00978 0.97041   7
   8  -6   6 1.07330 0.82174   3
   6   5  -6 0.94944 1.01700   4
   6   5  -6 3.36452 1.04126   6
   6   5  -6 2.38432 1.10340   1
  -6  -5   6 0.99456 0.83525   5
  -6  -5   6 2.05698 1.07669   3
  -6  -5   6 0.01747 0.53877   6
   5   5  -6 18.8294 2.59501   1
   5   5  -6 19.8724 2.42550   6
   5   5  -6 24.3803 2.81845   4
  -5  -5   6 20.0127 2.45660   6
  -5  -5   6 16.6250 2.30699   3
  -5  -5   6 18.9017 2.30992   5
   4   5  -6 1.34415 1.05765   1
   4   5  -6 1.34488 0.85305   4
  -4  -5   6 0.48647 0.69055   3
  -4  -5   6 0.24361 0.68452   6
  -4  -5   6 2.36546 0.93066   5
   3   5  -6 1.75127 0.76792   4
   3   5  -6 1.31323 0.76695   1
   3   5  -6 1.18177 0.92213   9
  -3  -5   6 1.75082 0.73556   5
  -3  -5   6 0.29517 0.56610   3
  -3  -5   6 1.08323 0.73113   6
   2   5  -6 35.2124 2.70553   4
   2   5  -6 31.2375 2.07838   8
   2   5  -6 35.3104 3.03353   9
   2   5  -6 31.4622 2.57048   1
  -2  -5   6 30.6496 2.45924   3
  -2  -5   6 30.5392 2.41478   6
  -2  -5   6 30.4599 2.43435   5
   1   5  -6 272.824 12.9464   9
   1   5  -6 261.185 12.4577   1
   1   5  -6 255.999 11.8823   8
   1   5  -6 265.139 12.6044   4
  -1  -5   6 237.527 12.2761   5
  -1  -5   6 240.557 12.2531   3
  -1  -5   6 247.283 12.2317   6
   0   5  -6 8.82950 1.08988   8
   0   5  -6 9.85836 1.53695   9
   0   5  -6 7.35091 1.25138   1
   0   5  -6 7.57013 1.30392   4
   0  -5   6 8.90506 1.26355   6
   0  -5   6 9.14066 1.34212   3
   0  -5   6 10.1007 1.42469   5
  -1   5  -6 21.0343 1.72963   1
  -1   5  -6 21.9605 1.65145   8
  -1   5  -6 21.4608 1.95020   4
  -1   5  -6 25.4253 2.03591   9
   1  -5   6 24.9401 2.01940   7
   1  -5   6 23.6142 1.91329   3
   1  -5   6 18.5551 1.74842   5
   1  -5   6 24.4052 1.78162   6
  -2   5  -6 85.6511 4.41585   2
  -2   5  -6 91.0134 4.68165   9
  -2   5  -6 86.7578 4.41708   1
  -2   5  -6 79.0822 4.43481   8
  -2   5  -6 76.9902 4.77354   4
   2  -5   6 83.7217 4.68272   5
   2  -5   6 80.5032 4.36984   6
   2  -5   6 79.4095 4.68352   3
  -3   5  -6 7.17255 1.12876   2
  -3   5  -6 8.81626 1.46198   4
  -3   5  -6 7.20568 1.12485   8
   3  -5   6 8.19410 1.14035   7
   3  -5   6 8.88342 1.02550   6
   3  -5   6 10.7391 1.42383   3
   3  -5   6 9.02374 1.29260   5
  -4   5  -6 11.2572 1.47789   2
  -4   5  -6 10.8299 1.43151   8
  -4   5  -6 9.79052 1.54832   4
   4  -5   6 13.2106 1.55649   7
   4  -5   6 10.4179 1.40908   5
   4  -5   6 11.2758 1.59023   3
  -5   5  -6 8.93386 1.34316   8
  -5   5  -6 8.50607 1.60759   7
  -5   5  -6 9.43155 1.49926   2
  -5   5  -6 9.68311 1.52150   4
   5  -5   6 8.02973 1.32573   5
   5  -5   6 10.2277 1.55638   3
   5  -5   6 9.17411 1.50213   7
  -6   5  -6 0.09139 0.46155   2
  -6   5  -6 0.10447 0.50231   4
  -6   5  -6 0.15633 0.80490   7
  -6   5  -6 0.27686 0.60228   8
   6  -5   6 -0.6798 0.52308   7
   6  -5   6 0.00535 0.43478   5
   6  -5   6 0.35906 0.53226   3
  -7   5  -6 1.91916 0.84973   8
  -7   5  -6 0.84469 0.82205   2
  -7   5  -6 2.14859 0.96373   7
   7  -5   6 1.60895 0.84976   5
   7  -5   6 0.88005 0.86686   3
   7  -5   6 2.90383 1.05825   7
  -8   5  -6 34.8223 3.39080   2
  -8   5  -6 47.3094 4.11263   7
  -8   5  -6 50.3027 3.51694   8
   8  -5   6 45.4938 3.74530   3
   8  -5   6 47.1092 3.39854   5
   8  -5   6 45.2761 3.72376   7
  -9   5  -6 -0.4955 0.90275   2
  -9   5  -6 -0.0806 0.56472   8
  -9   5  -6 1.08435 1.09167   7
   9  -5   6 0.88503 1.08681   3
   9  -5   6 -0.0305 0.69246   7
   9  -5   6 -0.7995 0.90790   5
   7   4  -6 5.83624 1.72230   1
   7   4  -6 6.55778 1.48048   6
  -7  -4   6 3.31572 1.15010   5
  -7  -4   6 7.21549 1.54724   6
   6   4  -6 2.90975 1.15599   4
   6   4  -6 5.14092 1.39130   6
   6   4  -6 3.23167 1.24759   1
  -6  -4   6 2.28750 1.03321   6
  -6  -4   6 1.13358 0.83601   5
   5   4  -6 2.39748 1.11942   1
   5   4  -6 2.22893 0.93147   4
   5   4  -6 2.48413 1.00508   6
  -5  -4   6 3.15080 1.02469   3
  -5  -4   6 1.57847 0.94920   6
  -5  -4   6 1.34033 0.64418   5
   4   4  -6 0.23530 0.51538   4
   4   4  -6 -0.1827 0.70877   1
  -4  -4   6 0.33643 0.62065   5
  -4  -4   6 0.17164 0.42840   6
  -4  -4   6 0.20389 0.41994   3
  -4  -4   6 -0.3961 0.68499   1
   3   4  -6 17.2747 1.40398   8
   3   4  -6 16.2854 2.13884   4
   3   4  -6 18.5699 2.59493   9
   3   4  -6 14.2087 1.97686   1
  -3  -4   6 16.0475 1.90857   3
  -3  -4   6 16.6314 2.17346   1
  -3  -4   6 14.6327 1.85187   5
  -3  -4   6 15.3080 1.89607   6
   2   4  -6 2.97709 0.93454   1
   2   4  -6 1.26914 0.51701   8
   2   4  -6 1.44732 0.69027   4
   2   4  -6 2.51553 1.00221   9
  -2  -4   6 1.68739 0.60637   6
  -2  -4   6 2.00624 0.89249   1
  -2  -4   6 1.44166 0.68013   5
  -2  -4   6 2.27876 0.75254   3
   1   4  -6 315.193 15.2557   1
   1   4  -6 327.368 15.7264   9
   1   4  -6 324.576 14.7551   8
   1   4  -6 368.114 15.5602   4
  -1  -4   6 331.303 15.3973   1
  -1  -4   6 315.414 15.0889   6
  -1  -4   6 292.489 15.0462   5
  -1  -4   6 293.172 14.9568   3
   0   4  -6 96.8092 5.26240   4
   0   4  -6 93.7635 4.78561   8
   0   4  -6 92.5539 5.09153   1
   0   4  -6 96.7662 5.42780   9
   0  -4   6 85.0103 4.93098   6
   0  -4   6 91.4248 5.07281   5
   0  -4   6 99.9605 5.22592   1
   0  -4   6 90.5378 4.97285   3
  -1   4  -6 51.2999 2.73720   2
  -1   4  -6 51.9932 3.23967   4
  -1   4  -6 47.9622 2.88852   8
  -1   4  -6 52.8259 3.03280   1
  -1   4  -6 55.9546 3.33376   9
   1  -4   6 48.4595 3.09823   5
   1  -4   6 48.8389 3.05167   3
   1  -4   6 49.1260 2.61076   7
   1  -4   6 49.3183 2.98597   6
  -2   4  -6 1.08008 0.43108   8
  -2   4  -6 0.28630 0.47787   4
  -2   4  -6 0.55086 0.36189   1
  -2   4  -6 0.18866 0.40261   9
  -2   4  -6 0.80974 0.40437   2
   2  -4   6 0.51986 0.28451   7
   2  -4   6 1.12011 0.55520   5
   2  -4   6 1.75169 0.59162   3
   2  -4   6 0.50514 0.37635   6
  -3   4  -6 6.21805 0.97884   2
  -3   4  -6 6.04318 0.85087   9
  -3   4  -6 6.00394 0.75617   1
  -3   4  -6 5.56991 1.09309   4
  -3   4  -6 6.09585 0.92826   8
   3  -4   6 4.95553 0.90045   5
   3  -4   6 5.79064 0.91623   7
   3  -4   6 5.70925 1.05607   3
   3  -4   6 5.62470 0.83139   6
  -4   4  -6 13.7783 1.66778   2
  -4   4  -6 15.2463 1.63755   8
  -4   4  -6 17.9308 1.93207   7
  -4   4  -6 17.7627 1.68797   4
   4  -4   6 13.7335 1.68084   3
   4  -4   6 15.1226 1.68846   5
   4  -4   6 15.2992 1.21856   6
   4  -4   6 16.7025 1.76636   7
  -5   4  -6 39.9672 2.77631   4
  -5   4  -6 41.7140 2.94327   2
  -5   4  -6 41.8281 3.10056   7
  -5   4  -6 40.6630 2.74172   8
   5  -4   6 43.1022 2.87086   5
   5  -4   6 41.9857 2.97755   3
   5  -4   6 44.5860 2.98050   7
  -6   4  -6 60.0929 3.74914   8
  -6   4  -6 63.4705 4.30049   7
  -6   4  -6 63.1794 4.05048   4
  -6   4  -6 64.3474 4.11804   2
   6  -4   6 59.2357 4.00186   7
   6  -4   6 57.9967 3.74880   5
   6  -4   6 60.6231 4.02475   3
  -7   4  -6 -0.0536 0.51437   2
  -7   4  -6 0.98558 0.64452   8
  -7   4  -6 -0.1043 0.72347   7
   7  -4   6 0.38408 0.81226   7
   7  -4   6 0.95853 0.71611   3
   7  -4   6 -0.7595 0.54143   5
  -8   4  -6 1.13711 0.87741   7
  -8   4  -6 1.56816 0.87185   2
  -8   4  -6 1.88962 0.84959   8
   8  -4   6 0.54973 0.72820   7
   8  -4   6 1.57809 0.84525   3
   8  -4   6 0.76874 0.87121   5
  -9   4  -6 1.63465 0.92717   8
  -9   4  -6 3.71731 1.57299   7
  -9   4  -6 6.42046 1.73455   2
   9  -4   6 5.82789 1.48450   3
   9  -4   6 2.61184 1.37110   7
   9  -4   6 4.40238 1.20245   5
   7   3  -6 1.74534 1.20285   1
   7   3  -6 1.33046 0.77347   6
  -7  -3   6 1.87672 0.89331   6
  -7  -3   6 0.85665 0.79487   5
   6   3  -6 14.8306 2.05632   6
   6   3  -6 10.3305 1.99380   1
   6   3  -6 15.1942 2.34265   4
  -6  -3   6 10.7597 1.65725   5
  -6  -3   6 13.0138 1.95954   6
  -6  -3   6 15.1140 2.45263   1
   5   3  -6 0.34219 0.57956   4
   5   3  -6 -0.0969 0.52824   1
  -5  -3   6 -0.0329 0.49895   1
  -5  -3   6 -0.3066 0.39356   6
  -5  -3   6 -0.2618 0.58348   3
  -5  -3   6 0.46235 0.64065   5
   4   3  -6 54.9140 4.00591   1
   4   3  -6 60.5116 4.59401   9
   4   3  -6 64.2213 3.51692   8
   4   3  -6 56.1833 4.04980   4
  -4  -3   6 64.9170 4.28468   1
  -4  -3   6 54.5289 3.69898   3
  -4  -3   6 55.2773 3.68682   5
  -4  -3   6 56.3786 3.77978   6
   3   3  -6 54.2227 3.79992   4
   3   3  -6 55.6818 3.23516   8
   3   3  -6 55.3066 4.20653   9
   3   3  -6 53.5599 3.75630   1
  -3  -3   6 63.2574 4.00987   1
  -3  -3   6 57.5853 3.54440   5
  -3  -3   6 49.1156 3.36618   3
  -3  -3   6 55.9783 3.59573   6
   2   3  -6 -0.0315 0.32700   8
   2   3  -6 0.42542 0.48182   9
   2   3  -6 1.01783 0.60513   1
   2   3  -6 0.25573 0.43637   4
  -2  -3   6 0.17512 0.32879   5
  -2  -3   6 0.96786 0.57720   6
  -2  -3   6 -0.1775 0.33497   3
  -2  -3   6 0.25363 0.43297   1
   1   3  -6 46.0947 3.30027   9
   1   3  -6 41.8769 2.53572   8
   1   3  -6 46.1556 3.03495   4
   1   3  -6 41.8565 2.91101   1
  -1  -3   6 38.7148 2.69212   5
  -1  -3   6 42.2176 2.64034   3
  -1  -3   6 44.0109 2.80416   6
  -1  -3   6 42.1787 2.96482   1
   0   3  -6 36.5096 2.54625   1
   0   3  -6 38.7066 2.85860   9
   0   3  -6 35.7321 2.29374   8
   0   3  -6 44.7236 2.78728   4
   0   3  -6 43.5105 2.12762   2
   0  -3   6 38.6024 2.62350   1
   0  -3   6 37.0247 2.38969   3
   0  -3   6 37.9709 2.55539   5
   0  -3   6 37.8380 2.52397   6
  -1   3  -6 26.2290 1.82333   1
  -1   3  -6 24.4669 1.70317   8
  -1   3  -6 24.8704 1.58362   2
  -1   3  -6 27.2122 2.00031   4
  -1   3  -6 25.9991 2.03187   9
   1  -3   6 27.2227 1.88135   1
   1  -3   6 23.5901 1.78429   6
   1  -3   6 27.1612 1.80395   3
   1  -3   6 25.4191 1.40747   7
   1  -3   6 24.0152 1.84123   5
  -2   3  -6 146.161 7.03727   9
  -2   3  -6 134.491 6.76420   1
  -2   3  -6 149.943 7.12577   4
  -2   3  -6 135.230 6.84491   8
  -2   3  -6 137.353 6.81179   2
   2  -3   6 133.256 6.98836   5
   2  -3   6 138.456 6.95657   3
   2  -3   6 136.234 6.90882   6
   2  -3   6 143.749 6.68321   7
   2  -3   6 150.909 6.88023   1
  -3   3  -6 -0.1236 0.34117   4
  -3   3  -6 0.36141 0.32653   8
  -3   3  -6 0.41422 0.37905   7
  -3   3  -6 0.35997 0.36493   2
  -3   3  -6 0.62113 0.31859   9
  -3   3  -6 -0.0998 0.19863   1
  -3   3  -6 0.35668 0.28481   9
   3  -3   6 0.16867 0.31471   7
   3  -3   6 -0.0092 0.30104   6
   3  -3   6 0.30846 0.41224   3
   3  -3   6 0.63650 0.40310   5
  -4   3  -6 1.73437 0.61060   8
  -4   3  -6 1.29256 0.61871   2
  -4   3  -6 2.72860 0.76667   7
  -4   3  -6 1.71631 0.71922   4
   4  -3   6 1.16147 0.51462   7
   4  -3   6 0.99897 0.48022   3
   4  -3   6 1.06294 0.44758   6
   4  -3   6 0.62303 0.51339   5
  -5   3  -6 2.11220 0.74692   2
  -5   3  -6 1.85344 0.67157   4
  -5   3  -6 2.02956 0.76994   7
  -5   3  -6 0.42317 0.40159   8
   5  -3   6 0.57533 0.54606   5
   5  -3   6 0.96341 0.50947   3
   5  -3   6 1.65805 0.51100   6
   5  -3   6 1.85817 0.64572   7
  -6   3  -6 18.1183 2.33354   7
  -6   3  -6 18.1989 2.13290   2
  -6   3  -6 17.8759 1.86911   8
   6  -3   6 18.9834 2.17769   3
   6  -3   6 16.1019 1.82778   5
   6  -3   6 18.6494 2.21379   7
  -7   3  -6 1.15438 0.66337   2
  -7   3  -6 0.21500 0.75173   7
  -7   3  -6 0.57430 0.58058   8
   7  -3   6 0.04360 0.51828   3
   7  -3   6 0.44875 0.62576   5
   7  -3   6 0.39341 0.75291   7
  -8   3  -6 0.22445 0.67013   7
  -8   3  -6 -0.3593 0.29404   8
  -8   3  -6 1.46574 0.76612   2
   8  -3   6 -0.5798 0.79882   3
   8  -3   6 -1.4451 0.32446   7
   8  -3   6 -0.2644 0.47724   5
  -9   3  -6 5.76170 1.64637   7
  -9   3  -6 4.74422 1.36243   2
  -9   3  -6 6.91119 1.33407   8
   9  -3   6 4.50738 1.30394   5
   9  -3   6 6.57183 1.66381   3
   9  -3   6 6.69913 1.59503   7
 -10   3  -6 13.3148 2.07572   8
  10  -3   6 13.6234 2.25055   5
   7   2  -6 43.7380 3.93633   4
   7   2  -6 54.6928 4.17159   1
   7   2  -6 45.6940 3.61029   6
  -7  -2   6 48.0276 3.64241   6
  -7  -2   6 53.9096 4.19593   1
  -7  -2   6 41.9593 3.35945   5
   6   2  -6 -0.3611 0.83978   4
   6   2  -6 1.30343 0.79053   6
   6   2  -6 0.92066 0.89348   1
  -6  -2   6 0.31823 0.69267   6
  -6  -2   6 -0.3231 0.51423   5
  -6  -2   6 0.17787 0.81650   1
   5   2  -6 17.3281 2.39278   1
   5   2  -6 16.7003 1.83907   8
   5   2  -6 18.3998 2.53709   4
  -5  -2   6 16.7136 1.93418   5
  -5  -2   6 19.2823 2.59963   1
  -5  -2   6 20.9428 2.34448   6
   4   2  -6 0.71680 0.64635   1
   4   2  -6 0.63081 0.72813   4
   4   2  -6 0.15889 0.59426   9
   4   2  -6 0.27213 0.43326   8
  -4  -2   6 -0.2002 0.42435   3
  -4  -2   6 0.37446 0.61261   1
  -4  -2   6 0.54545 0.64127   6
  -4  -2   6 0.18291 0.37035   5
   3   2  -6 1.14223 0.82606   1
   3   2  -6 0.59857 0.84833   9
   3   2  -6 1.47515 0.57577   8
   3   2  -6 0.85761 0.78225   4
  -3  -2   6 2.46558 0.72874   5
  -3  -2   6 1.05392 0.50736   3
  -3  -2   6 1.79380 0.88912   1
  -3  -2   6 2.18319 0.76258   6
   2   2  -6 35.9049 2.06367   2
   2   2  -6 32.9634 2.86789   9
   2   2  -6 32.0923 2.59360   1
   2   2  -6 34.0322 2.65900   4
   2   2  -6 31.4911 2.16359   8
  -2  -2   6 37.1084 2.77884   1
  -2  -2   6 35.4456 2.45137   6
  -2  -2   6 35.9421 3.05576   9
  -2  -2   6 32.4795 2.20917   3
  -2  -2   6 35.3349 2.37534   5
   1   2  -6 5.63869 0.81125   8
   1   2  -6 5.90070 0.63168   2
   1   2  -6 4.05551 0.92123   1
   1   2  -6 3.00439 0.79699   4
   1   2  -6 3.43542 0.94182   9
  -1  -2   6 3.39111 0.90892   1
  -1  -2   6 4.20336 1.09749   9
  -1  -2   6 5.23722 0.93783   6
  -1  -2   6 4.01494 0.77814   5
  -1  -2   6 3.60056 0.68943   3
   0   2  -6 479.658 21.0594   4
   0   2  -6 429.471 21.2133   9
   0   2  -6 469.249 20.3357   2
   0   2  -6 455.559 20.5740   8
   0   2  -6 436.561 20.8598   1
   0  -2   6 478.382 21.4722   9
   0  -2   6 446.338 20.9516   1
   0  -2   6 455.433 20.5187   3
   0  -2   6 466.738 20.7791   5
   0  -2   6 432.224 20.7674   6
  -1   2  -6 18.3551 1.40149   8
  -1   2  -6 22.2768 1.39306   2
  -1   2  -6 18.6378 1.52458   1
  -1   2  -6 19.0987 1.69499   9
  -1   2  -6 18.7754 1.61177   4
   1  -2   6 23.1051 1.87340   9
   1  -2   6 21.2517 1.62541   1
   1  -2   6 21.6846 1.58175   5
   1  -2   6 19.8744 1.55514   6
   1  -2   6 20.8578 1.44013   3
  -2   2  -6 57.8588 3.15237   8
  -2   2  -6 58.7993 3.06004   7
  -2   2  -6 61.9729 3.33343   4
  -2   2  -6 61.6068 3.37181   9
  -2   2  -6 53.1503 3.07364   1
  -2   2  -6 55.0602 3.10685   2
  -2   2  -6 48.3714 3.23870   9
   2  -2   6 57.1188 3.24238   6
   2  -2   6 57.5382 3.14929   1
   2  -2   6 60.8141 3.20073   3
   2  -2   6 57.2031 3.38393   9
   2  -2   6 57.5260 3.27673   5
   2  -2   6 61.0820 2.99524   7
  -3   2  -6 11.4470 0.85791   1
  -3   2  -6 12.8972 1.16075   4
  -3   2  -6 11.0671 0.97170   9
  -3   2  -6 11.0572 0.94930   9
  -3   2  -6 9.38246 1.16431   2
  -3   2  -6 10.3006 1.16082   8
  -3   2  -6 12.6301 1.36489   7
   3  -2   6 10.1493 0.85623   1
   3  -2   6 12.3795 1.32282   5
   3  -2   6 11.7535 1.04239   7
   3  -2   6 10.4610 1.23794   3
   3  -2   6 11.2923 1.06807   6
  -4   2  -6 3.23638 0.75378   4
  -4   2  -6 4.72635 0.85793   2
  -4   2  -6 4.20214 0.89892   7
  -4   2  -6 3.20922 0.73669   8
   4  -2   6 3.24284 0.66520   6
   4  -2   6 3.94256 0.84494   3
   4  -2   6 5.85542 0.94486   5
  -5   2  -6 339.530 16.5940   7
  -5   2  -6 353.616 16.3967   2
  -5   2  -6 338.744 15.8979   4
  -5   2  -6 352.499 16.1023   8
   5  -2   6 356.883 15.9857   6
   5  -2   6 342.890 16.1909   5
   5  -2   6 348.805 16.3945   3
  -6   2  -6 108.081 6.22189   2
  -6   2  -6 106.923 6.47856   7
  -6   2  -6 112.667 5.92139   8
   6  -2   6 117.803 5.78636   6
   6  -2   6 115.999 6.08100   5
   6  -2   6 117.386 6.34769   3
  -7   2  -6 3.57839 1.22884   7
  -7   2  -6 1.98248 0.69941   8
  -7   2  -6 1.35487 0.81866   2
   7  -2   6 2.32719 1.00835   3
   7  -2   6 1.47294 0.67769   5
  -8   2  -6 5.78621 1.36856   2
  -8   2  -6 5.56307 1.51468   7
  -8   2  -6 8.07517 1.29202   8
   8  -2   6 2.90070 1.04488   3
   8  -2   6 5.77436 1.37889   7
   8  -2   6 7.86737 1.45699   5
  -9   2  -6 0.11817 0.45126   8
  -9   2  -6 -0.5626 0.84763   7
  -9   2  -6 -0.4949 0.45882   2
   9  -2   6 0.82054 0.96299   7
   9  -2   6 -0.0856 0.58552   5
   9  -2   6 0.55516 0.70862   3
 -10   2  -6 1.04379 1.40491   7
 -10   2  -6 5.03546 1.56892   2
  10  -2   6 3.41045 1.42507   3
  10  -2   6 0.92419 1.11734   5
  10  -2   6 3.58880 1.57961   7
   7   1  -6 60.9296 4.89140   4
   7   1  -6 61.5449 4.72684   1
   7   1  -6 66.8562 4.52682   6
  -7  -1   6 72.7380 4.41059   5
  -7  -1   6 70.9126 5.03849   1
  -7  -1   6 72.1129 4.60560   6
   6   1  -6 13.5195 2.25934   4
   6   1  -6 12.0246 2.04631   1
  -6  -1   6 12.1980 1.69895   5
  -6  -1   6 14.8444 2.00532   6
  -6  -1   6 18.4967 2.57794   1
   5   1  -6 29.0772 2.23412   8
   5   1  -6 26.9366 2.59348   1
   5   1  -6 31.0052 2.87499   4
  -5  -1   6 26.9667 2.39489   6
  -5  -1   6 29.0542 2.25947   5
  -5  -1   6 31.7165 2.83585   1
   4   1  -6 34.4925 2.83570   1
   4   1  -6 39.7896 3.35582   9
   4   1  -6 34.1961 2.42070   8
   4   1  -6 34.9991 2.94799   4
  -4  -1   6 34.3462 2.90236   1
  -4  -1   6 29.4293 2.59063   3
  -4  -1   6 36.0689 3.34091   9
  -4  -1   6 34.4218 2.42157   5
  -4  -1   6 34.1769 2.56307   6
  -4  -1   6 33.0203 2.99717   4
   3   1  -6 0.92331 0.42732   8
   3   1  -6 1.80635 0.86301   9
   3   1  -6 1.34984 0.67767   1
   3   1  -6 1.69547 0.76092   4
   3   1  -6 1.29134 0.40246   2
  -3  -1   6 2.10912 0.93018   9
  -3  -1   6 1.81405 0.76252   1
  -3  -1   6 1.20313 0.51140   3
  -3  -1   6 2.00716 0.60089   5
  -3  -1   6 1.89550 0.69463   6
  -3  -1   6 1.19721 0.64151   4
   2   1  -6 37.1362 2.10529   2
   2   1  -6 37.0859 2.37036   8
   2   1  -6 37.1834 3.06713   9
   2   1  -6 38.6335 2.86331   4
  -2  -1   6 35.9928 2.38876   5
  -2  -1   6 35.6410 2.50367   6
  -2  -1   6 42.0834 3.30948   9
  -2  -1   6 37.8982 2.27925   3
  -2  -1   6 32.9875 2.72991   1
   1   1  -6 17.3927 1.14995   2
   1   1  -6 15.4168 1.84735   4
   1   1  -6 16.3570 1.77549   9
   1   1  -6 16.7063 1.32253   8
  -1  -1   6 17.3981 1.50726   6
  -1  -1   6 15.9549 1.36426   5
  -1  -1   6 15.0246 1.16793   3
  -1  -1   6 17.2176 1.63895   1
  -1  -1   6 15.8420 1.79144   9
   0   1  -6 285.205 13.2553   4
   0   1  -6 287.421 12.8580   8
   0   1  -6 261.121 13.4519   9
   0   1  -6 275.820 12.6195   2
   0  -1   6 275.055 12.9046   5
   0  -1   6 281.781 13.0590   6
   0  -1   6 282.270 12.6289   3
   0  -1   6 280.867 13.6248   9
   0  -1   6 269.407 13.1964   1
  -1   1  -6 40.3431 2.27161   2
  -1   1  -6 38.1454 2.51367   4
  -1   1  -6 41.3279 1.98973   7
  -1   1  -6 35.9504 2.65974   9
  -1   1  -6 42.1590 2.37605   8
   1  -1   6 39.2164 2.52867   1
   1  -1   6 41.7131 2.42689   5
   1  -1   6 42.5540 1.96275   7
   1  -1   6 38.5025 2.75414   9
   1  -1   6 36.9506 2.44519   6
   1  -1   6 40.2853 2.21492   3
  -2   1  -6 105.309 5.07916   4
  -2   1  -6 105.830 4.97836   8
  -2   1  -6 103.828 4.98345   2
  -2   1  -6 104.951 4.88643   7
  -2   1  -6 79.1241 5.01307   9
  -2   1  -6 94.5848 5.17044   9
   2  -1   6 106.709 4.92038   3
   2  -1   6 97.1938 5.23425   9
   2  -1   6 93.9098 5.04848   6
   2  -1   6 97.4422 5.00500   1
   2  -1   6 99.2350 5.02418   5
  -3   1  -6 76.2532 4.23641   9
  -3   1  -6 86.4861 4.29821   8
  -3   1  -6 87.4878 4.27572   9
  -3   1  -6 79.0046 4.35910   2
  -3   1  -6 89.5276 4.29756   4
  -3   1  -6 81.3521 4.41188   7
   3  -1   6 84.2960 4.32866   9
   3  -1   6 84.5681 4.39929   5
   3  -1   6 82.6717 4.36619   6
   3  -1   6 82.0475 4.32673   3
   3  -1   6 80.9697 4.13179   1
  -4   1  -6 91.4181 4.55544   9
  -4   1  -6 94.8875 4.91851   8
  -4   1  -6 106.024 4.64442   9
  -4   1  -6 97.3641 4.81354   4
  -4   1  -6 86.9822 5.18110   7
  -4   1  -6 99.9703 5.17105   2
   4  -1   6 99.5289 4.99562   6
   4  -1   6 99.9469 5.14354   3
   4  -1   6 92.2634 5.02234   5
  -5   1  -6 117.521 5.99732   8
  -5   1  -6 113.640 6.49573   7
  -5   1  -6 124.266 6.35480   2
  -5   1  -6 117.402 5.79096   4
   5  -1   6 120.293 6.01754   6
   5  -1   6 121.306 6.34994   3
   5  -1   6 122.188 6.16031   5
  -6   1  -6 2.20202 0.87852   7
  -6   1  -6 3.72710 0.80645   8
  -6   1  -6 5.01903 1.06548   2
   6  -1   6 3.43425 0.91362   3
   6  -1   6 2.99776 0.74779   5
   6  -1   6 4.16050 0.86581   6
  -7   1  -6 212.917 11.1514   7
  -7   1  -6 205.458 10.1986   8
  -7   1  -6 216.005 10.7838   2
   7  -1   6 216.219 10.4711   5
   7  -1   6 212.527 10.1657   6
   7  -1   6 198.187 10.7420   3
  -8   1  -6 0.49328 0.86535   7
  -8   1  -6 1.22676 0.64298   8
  -8   1  -6 0.08125 0.48779   2
   8  -1   6 -0.1795 0.75337   3
   8  -1   6 0.28533 0.53698   5
  -9   1  -6 1.05978 0.94933   2
  -9   1  -6 1.16402 0.87057   7
   9  -1   6 0.55211 0.68671   5
   9  -1   6 1.07484 0.83984   3
 -10   1  -6 7.96814 1.82918   2
 -10   1  -6 8.40056 2.08605   7
  10  -1   6 10.7284 2.15612   3
  10  -1   6 6.21331 1.62108   5
  10  -1   6 9.57208 1.95511   7
   7   0  -6 0.29506 0.91358   4
   7   0  -6 0.12853 0.60791   1
   7   0  -6 0.67574 0.58041   6
  -7   0   6 0.11777 0.67716   1
  -7   0   6 0.62450 1.03946   4
  -7   0   6 -0.0753 0.45564   6
   6   0  -6 2.37843 0.83959   8
   6   0  -6 1.09177 0.93827   4
   6   0  -6 2.75151 1.09274   1
  -6   0   6 1.67508 0.77329   5
  -6   0   6 0.72248 0.92017   1
  -6   0   6 2.48669 1.24345   4
  -6   0   6 2.46857 0.89635   6
   5   0  -6 39.8407 3.50669   4
   5   0  -6 43.9787 3.46776   1
   5   0  -6 42.2916 2.99729   8
   5   0  -6 47.1625 4.55602   9
  -5   0   6 47.9366 3.23681   6
  -5   0   6 47.3847 4.16849   9
  -5   0   6 49.5455 3.04926   5
  -5   0   6 45.5037 3.62790   1
  -5   0   6 41.1485 3.69575   4
   4   0  -6 18.0823 2.55486   9
   4   0  -6 18.2192 1.50496   2
   4   0  -6 16.6057 2.34042   4
   4   0  -6 18.1579 1.92229   8
  -4   0   6 20.0909 2.81777   9
  -4   0   6 20.6920 2.52692   1
  -4   0   6 18.8535 2.56482   4
  -4   0   6 20.0433 1.83009   6
  -4   0   6 20.9840 1.65373   5
   3   0  -6 22.0262 1.56239   2
   3   0  -6 22.6732 2.39725   9
   3   0  -6 18.5049 2.32479   4
   3   0  -6 21.2582 1.74310   8
  -3   0   6 19.2357 2.47950   4
  -3   0   6 23.0801 1.69763   5
  -3   0   6 18.5068 2.29466   1
  -3   0   6 20.0297 1.58553   3
  -3   0   6 26.3935 2.64839   9
  -3   0   6 23.8925 1.88314   6
   2   0  -6 1.18503 0.67884   4
   2   0  -6 0.55796 0.36603   8
   2   0  -6 -0.2212 0.49225   9
   2   0  -6 0.99645 0.36846   2
  -2   0   6 0.97050 0.36694   5
  -2   0   6 1.07055 0.56682   6
  -2   0   6 0.66872 0.70576   9
  -2   0   6 0.74160 0.54205   1
  -2   0   6 0.52543 0.62294   4
  -2   0   6 1.01135 0.35980   3
   1   0  -6 30.7730 2.72526   9
   1   0  -6 31.9335 2.52204   4
   1   0  -6 33.9395 2.04747   2
   1   0  -6 38.0055 1.62628   7
   1   0  -6 35.5136 2.26630   8
  -1   0   6 38.1382 2.42507   6
  -1   0   6 35.1581 2.20557   5
  -1   0   6 37.7464 2.72639   4
  -1   0   6 35.3462 2.89869   9
  -1   0   6 35.1299 2.61215   1
  -1   0   6 35.1075 1.95044   3
   0   0  -6 1.26417 0.38786   8
   0   0  -6 2.45229 0.48024   2
   0   0  -6 1.99985 0.61227   4
   0   0   6 1.67059 0.60331   4
   0   0   6 1.32554 0.67590   9
   0   0   6 1.92640 0.34020   3
   0   0   6 2.47170 0.54528   5
   0   0   6 1.36165 0.51034   6
   0   0   6 1.32965 0.59895   1
  -1   0  -6 29.9207 1.86902   8
  -1   0  -6 32.9354 1.64664   7
  -1   0  -6 27.1351 1.99894   4
  -1   0  -6 29.7048 1.82284   2
   1   0   6 30.1728 2.10586   1
   1   0   6 28.7758 1.62995   3
   1   0   6 28.6868 1.84775   5
   1   0   6 29.0706 1.99745   6
   1   0   6 29.7522 2.30704   9
  -2   0  -6 547.628 24.3653   8
  -2   0  -6 523.520 24.6284   9
  -2   0  -6 583.160 24.3798   7
  -2   0  -6 544.133 24.4195   2
  -2   0  -6 551.507 24.4753   4
   2   0   6 511.043 24.7396   9
   2   0   6 512.168 24.4943   1
   2   0   6 555.616 24.4259   5
   2   0   6 536.608 24.5341   6
   2   0   6 569.012 24.2496   3
  -3   0  -6 97.3511 5.17915   2
  -3   0  -6 99.4288 5.03502   8
  -3   0  -6 111.857 5.16213   9
  -3   0  -6 110.392 5.02604   4
  -3   0  -6 106.098 5.29430   7
   3   0   6 103.851 5.21065   6
   3   0   6 98.5914 5.08453   3
   3   0   6 94.2699 5.18649   9
   3   0   6 99.0626 5.12274   5
   3   0   6 95.4279 5.01630   1
  -4   0  -6 12.9707 1.56893   7
  -4   0  -6 13.6993 1.05658   9
  -4   0  -6 13.4444 1.09206   8
  -4   0  -6 12.3908 0.97466   4
  -4   0  -6 13.8121 1.25634   2
   4   0   6 12.2869 1.38843   3
   4   0   6 12.0687 1.03577   9
   4   0   6 13.0039 1.17520   5
   4   0   6 12.9179 1.21415   6
   4   0   6 12.2936 0.94011   1
  -5   0  -6 50.9228 3.13821   2
  -5   0  -6 51.6922 3.36605   7
  -5   0  -6 46.7826 2.80489   8
   5   0   6 48.0825 2.89829   6
   5   0   6 44.8035 3.07384   3
   5   0   6 52.7712 3.02390   5
  -6   0  -6 17.6667 2.00338   2
  -6   0  -6 20.5565 2.28964   3
  -6   0  -6 18.1415 2.29789   7
  -6   0  -6 17.6958 1.48304   8
   6   0   6 20.6094 1.70801   6
   6   0   6 18.9161 1.72882   5
   6   0   6 18.9760 2.15020   3
  -7   0  -6 166.486 8.37629   8
  -7   0  -6 170.768 9.35003   7
  -7   0  -6 179.482 9.32542   3
  -7   0  -6 186.582 9.05894   2
   7   0   6 170.387 8.47855   6
   7   0   6 159.205 8.60915   5
   7   0   6 165.555 9.02308   3
  -8   0  -6 1.22941 0.78442   3
  -8   0  -6 1.39548 1.00026   7
  -8   0  -6 1.67432 0.77545   2
  -8   0  -6 2.27369 0.66686   8
   8   0   6 0.56297 0.82975   6
   8   0   6 2.08803 0.78823   5
   8   0   6 2.32075 0.91178   3
  -9   0  -6 0.43170 0.89072   7
  -9   0  -6 0.46892 0.65716   2
   9   0   6 -0.7489 0.73033   3
   9   0   6 -0.1892 0.57652   5
 -10   0  -6 -0.4550 0.73533   7
 -10   0  -6 1.60083 1.18142   2
  10   0   6 0.55805 0.95675   3
  10   0   6 -1.0135 0.95648   5
   7  -1  -6 9.81257 2.11870   4
   7  -1  -6 11.3751 2.02103   1
   7  -1  -6 11.7491 1.75886   6
   7  -1  -6 7.26179 1.46235   8
  -7   1   6 6.46947 1.93539   4
  -7   1   6 11.5646 1.87225   6
  -7   1   6 12.6756 2.15986   1
   6  -1  -6 10.3918 1.91203   1
   6  -1  -6 9.12885 1.90798   4
   6  -1  -6 10.8995 1.64636   8
  -6   1   6 10.8576 2.00699   1
  -6   1   6 7.98804 1.37989   6
  -6   1   6 12.0562 2.25276   4
   5  -1  -6 9.46598 1.87444   4
   5  -1  -6 9.46511 2.01989   9
   5  -1  -6 8.02679 1.28133   2
   5  -1  -6 11.7832 1.65021   8
  -5   1   6 9.86286 1.95485   4
  -5   1   6 9.99114 1.85104   1
  -5   1   6 10.0035 1.29768   5
  -5   1   6 10.7681 1.55838   6
  -5   1   6 11.6533 2.25143   9
   4  -1  -6 3.11225 0.74119   2
   4  -1  -6 3.80927 1.22042   9
   4  -1  -6 4.04383 0.90537   8
   4  -1  -6 4.12490 1.24375   4
  -4   1   6 4.22133 0.81946   5
  -4   1   6 3.93503 1.25198   9
  -4   1   6 3.15237 0.99396   1
  -4   1   6 4.13945 0.95253   6
  -4   1   6 4.96730 1.38830   4
   3  -1  -6 8.91421 1.55804   4
   3  -1  -6 7.88788 1.15114   8
   3  -1  -6 9.13093 1.72855   9
   3  -1  -6 6.99712 1.00103   2
  -3   1   6 7.85106 1.19101   6
  -3   1   6 5.65811 1.51912   9
  -3   1   6 7.96390 1.51410   4
  -3   1   6 7.44723 1.44572   1
  -3   1   6 8.71040 1.05860   5
   2  -1  -6 4.32468 0.80699   8
   2  -1  -6 3.15492 0.60267   2
   2  -1  -6 4.55016 1.13602   9
   2  -1  -6 3.14191 0.46336   7
   2  -1  -6 3.01797 0.94587   4
  -2   1   6 3.68849 0.79065   6
  -2   1   6 3.80001 0.66630   5
  -2   1   6 2.45343 0.94528   9
  -2   1   6 1.19554 0.65360   1
  -2   1   6 4.01871 1.08781   4
   1  -1  -6 0.05724 0.31852   4
   1  -1  -6 0.72419 0.34202   2
   1  -1  -6 0.04168 0.13722   7
   1  -1  -6 0.08010 0.21083   8
  -1   1   6 0.19165 0.15111   3
  -1   1   6 -0.1152 0.24398   1
  -1   1   6 -0.1713 0.26911   9
  -1   1   6 0.36580 0.28694   5
  -1   1   6 0.22736 0.35519   4
  -1   1   6 0.31037 0.34187   6
   0  -1  -6 286.066 13.9659   4
   0  -1  -6 295.468 13.5025   2
   0  -1  -6 305.103 13.1737   7
   0  -1  -6 292.621 13.6118   8
   0   1   6 313.115 13.0506   3
   0   1   6 288.021 14.3662   9
   0   1   6 280.638 14.0179   4
   0   1   6 298.818 13.7923   6
   0   1   6 277.370 13.9778   1
   0   1   6 303.312 13.5059   5
  -1  -1  -6 0.10762 0.19168   8
  -1  -1  -6 0.10047 0.30782   4
  -1  -1  -6 0.10914 0.24065   2
  -1  -1  -6 0.37525 0.22658   7
   1   1   6 0.52404 0.18256   3
   1   1   6 0.50365 0.38854   4
   1   1   6 0.60721 0.37740   1
   1   1   6 0.17080 0.19573   5
   1   1   6 0.48139 0.32524   6
   1   1   6 0.13034 0.39335   9
  -2  -1  -6 58.4440 3.05324   7
  -2  -1  -6 54.1871 2.97453   8
  -2  -1  -6 49.5432 3.02301   4
  -2  -1  -6 61.6842 3.58487   9
  -2  -1  -6 53.2333 3.04478   2
   2   1   6 53.6993 3.12714   6
   2   1   6 57.1995 3.01591   5
   2   1   6 54.4704 3.39596   9
   2   1   6 54.2147 3.17843   1
   2   1   6 58.3142 2.85172   3
  -3  -1  -6 2.71164 0.65374   7
  -3  -1  -6 3.63838 0.55658   4
  -3  -1  -6 2.21172 0.54283   2
  -3  -1  -6 3.16451 0.56128   8
   3   1   6 2.17050 0.48446   3
   3   1   6 3.23107 0.66015   1
   3   1   6 2.70833 0.64173   6
   3   1   6 3.19915 0.72320   9
   3   1   6 3.34675 0.61254   5
  -4  -1  -6 19.5059 1.61367   3
  -4  -1  -6 15.8238 1.82828   7
  -4  -1  -6 20.7282 1.17251   4
  -4  -1  -6 19.5575 1.35096   8
  -4  -1  -6 17.8412 1.39770   9
  -4  -1  -6 18.3416 1.52260   2
   4   1   6 17.8502 1.42938   5
   4   1   6 20.1118 1.36853   1
   4   1   6 18.5669 1.50543   3
   4   1   6 19.6622 1.48147   9
   4   1   6 18.7539 1.54579   6
  -5  -1  -6 99.5745 5.38255   3
  -5  -1  -6 93.3364 5.18064   2
  -5  -1  -6 96.4006 4.83701   8
  -5  -1  -6 93.0579 5.43616   7
   5   1   6 98.2696 4.83132   9
   5   1   6 97.4319 5.26151   3
   5   1   6 90.7174 5.00364   5
   5   1   6 95.5372 5.04117   6
  -6  -1  -6 105.567 6.19224   7
  -6  -1  -6 109.159 5.88743   2
  -6  -1  -6 108.458 5.39544   8
  -6  -1  -6 110.426 6.13992   3
   6   1   6 104.663 5.61049   6
   6   1   6 104.086 5.94249   3
   6   1   6 104.911 5.65595   5
  -7  -1  -6 0.43068 0.58969   7
  -7  -1  -6 1.01737 0.68021   3
  -7  -1  -6 -0.1666 0.56299   2
  -7  -1  -6 0.84235 0.47481   8
   7   1   6 -0.6907 0.31133   3
   7   1   6 -0.8825 0.54842   6
   7   1   6 0.00816 0.53942   5
  -8  -1  -6 42.1031 3.49630   3
  -8  -1  -6 39.5456 3.19310   2
  -8  -1  -6 39.8124 3.47120   7
   8   1   6 38.3368 2.90582   6
   8   1   6 44.1656 3.02969   5
   8   1   6 37.5534 3.25326   3
  -9  -1  -6 4.05974 1.29359   2
  -9  -1  -6 1.39358 0.85129   3
  -9  -1  -6 5.16823 1.54307   7
   9   1   6 5.98782 1.34623   5
   9   1   6 5.75768 1.47610   3
 -10  -1  -6 3.31590 1.43824   3
 -10  -1  -6 2.05241 1.11882   2
 -10  -1  -6 2.43623 1.17751   7
  10   1   6 1.92775 1.25215   3
  10   1   6 0.40842 0.78125   5
   7  -2  -6 33.1160 3.04562   1
   7  -2  -6 29.1862 3.06491   8
   7  -2  -6 29.0759 3.64879   4
  -7   2   6 35.1678 3.22018   1
  -7   2   6 30.5110 3.22693   8
  -7   2   6 40.1180 3.76848   4
   6  -2  -6 0.88949 0.67797   2
   6  -2  -6 -0.0635 0.42965   8
   6  -2  -6 -0.0791 0.50381   4
  -6   2   6 0.59063 0.60331   6
  -6   2   6 1.51863 0.82188   1
  -6   2   6 2.07608 1.00632   4
  -6   2   6 -0.3343 0.59986   8
   5  -2  -6 2.53129 0.76596   2
   5  -2  -6 2.73451 1.16032   9
   5  -2  -6 2.29158 1.08950   4
   5  -2  -6 3.59331 0.98479   8
  -5   2   6 4.03020 1.33928   4
  -5   2   6 2.31557 0.94550   1
  -5   2   6 4.93159 1.44028   9
  -5   2   6 3.76553 1.02667   8
  -5   2   6 4.24844 0.99328   6
   4  -2  -6 0.65385 0.42099   2
   4  -2  -6 -0.5426 0.67308   9
   4  -2  -6 0.03033 0.36916   8
   4  -2  -6 -0.2764 0.58760   4
  -4   2   6 -0.3897 0.52418   1
  -4   2   6 -0.0198 0.39489   5
  -4   2   6 0.96029 0.84047   4
  -4   2   6 0.42497 0.56769   9
  -4   2   6 0.09076 0.31250   6
  -4   2   6 -0.1299 0.53888   8
   3  -2  -6 22.4946 1.50713   7
   3  -2  -6 20.2954 2.47455   4
   3  -2  -6 20.0058 1.78193   8
   3  -2  -6 20.0367 1.63382   2
  -3   2   6 18.3571 2.43646   4
  -3   2   6 22.6887 2.57710   1
  -3   2   6 21.1542 2.78685   9
  -3   2   6 21.7264 1.88888   8
  -3   2   6 20.5817 1.49723   5
  -3   2   6 23.6156 1.84458   6
   2  -2  -6 171.291 8.41427   2
   2  -2  -6 166.347 9.02878   4
   2  -2  -6 175.093 8.11688   7
   2  -2  -6 166.030 8.52108   8
  -2   2   6 169.578 9.07505   1
  -2   2   6 202.079 8.30080   5
  -2   2   6 167.408 8.56872   6
  -2   2   6 175.974 9.19066   4
  -2   2   6 169.255 9.47185   9
   1  -2  -6 14.0652 1.75780   4
   1  -2  -6 16.3602 1.27472   2
   1  -2  -6 16.0066 1.05091   7
   1  -2  -6 14.1158 1.27184   8
  -1   2   6 14.3140 1.35261   6
  -1   2   6 14.2581 1.85678   4
  -1   2   6 16.9445 1.96601   1
  -1   2   6 17.2074 1.16647   5
  -1   2   6 13.3528 1.95765   9
   0  -2  -6 0.61028 0.30829   2
   0  -2  -6 1.15976 0.42694   8
   0  -2  -6 1.18555 0.53561   4
   0  -2  -6 1.09101 0.31168   7
   0   2   6 0.61657 0.43915   1
   0   2   6 1.47289 0.62875   9
   0   2   6 1.30939 0.34647   5
   0   2   6 0.86476 0.38883   6
   0   2   6 0.64271 0.47599   4
  -1  -2  -6 75.8094 3.96596   2
  -1  -2  -6 76.1705 3.95763   8
  -1  -2  -6 73.8126 4.16265   4
  -1  -2  -6 81.4369 3.84358   7
   1   2   6 69.2962 4.16258   4
   1   2   6 73.1946 4.51096   9
   1   2   6 75.2775 3.80805   5
   1   2   6 73.7383 4.26678   1
   1   2   6 75.1945 4.08321   6
   1   2   6 80.2393 3.47429   3
  -2  -2  -6 8.30967 0.91273   8
  -2  -2  -6 9.95095 1.07083   2
  -2  -2  -6 7.85974 0.99330   4
  -2  -2  -6 7.43887 0.94821   7
   2   2   6 9.28883 1.10192   6
   2   2   6 6.91430 0.65247   3
   2   2   6 8.50368 1.06248   4
   2   2   6 8.62089 0.89781   5
   2   2   6 7.34490 1.17775   9
   2   2   6 7.18549 1.06075   1
  -3  -2  -6 124.266 6.13332   2
  -3  -2  -6 116.019 5.81869   4
  -3  -2  -6 125.284 5.90146   8
  -3  -2  -6 122.516 6.03496   3
  -3  -2  -6 124.783 6.23768   7
   3   2   6 123.270 6.11542   1
   3   2   6 121.227 5.95715   5
   3   2   6 118.189 6.28566   9
   3   2   6 124.454 6.12742   6
   3   2   6 123.136 5.98269   3
  -4  -2  -6 66.6324 3.72050   9
  -4  -2  -6 69.5101 3.52211   8
  -4  -2  -6 68.4215 3.87339   3
  -4  -2  -6 61.4716 3.92545   7
  -4  -2  -6 66.9730 3.81754   2
  -4  -2  -6 75.1593 3.30837   4
   4   2   6 73.0451 3.86060   9
   4   2   6 65.4741 3.65282   5
   4   2   6 69.4349 3.82167   3
   4   2   6 64.1721 3.72553   6
   4   2   6 62.6555 3.58976   1
  -5  -2  -6 22.2222 1.92604   3
  -5  -2  -6 24.4493 1.53230   8
  -5  -2  -6 22.2759 1.79290   2
  -5  -2  -6 23.6255 2.03452   7
   5   2   6 24.1377 1.68312   9
   5   2   6 18.8652 1.77548   3
   5   2   6 20.0646 1.77012   6
   5   2   6 17.3968 1.60957   5
   5   2   6 22.7318 1.52078   1
  -6  -2  -6 34.6543 2.12360   8
  -6  -2  -6 35.5068 2.76094   3
  -6  -2  -6 36.3128 2.87006   7
  -6  -2  -6 36.9480 2.58489   2
   6   2   6 33.3452 2.38023   5
   6   2   6 36.2630 2.51815   6
   6   2   6 29.8259 2.54633   3
  -7  -2  -6 8.49791 1.57121   3
  -7  -2  -6 8.34440 1.42832   2
  -7  -2  -6 6.11596 1.36671   7
   7   2   6 10.0665 1.46926   6
   7   2   6 6.09198 1.24022   3
   7   2   6 6.93872 1.22409   5
  -8  -2  -6 177.126 9.89000   7
  -8  -2  -6 178.054 9.29920   2
  -8  -2  -6 168.629 9.59773   3
   8   2   6 187.543 9.05247   6
   8   2   6 175.635 9.08430   5
   8   2   6 163.581 9.40606   3
  -9  -2  -6 18.9197 2.43610   2
  -9  -2  -6 16.4678 2.54386   3
  -9  -2  -6 17.7799 2.77748   7
   9   2   6 17.6666 2.51612   3
   9   2   6 20.4520 2.38330   6
   9   2   6 19.5756 2.28840   5
 -10  -2  -6 1.46496 1.10186   7
 -10  -2  -6 1.74324 0.94497   2
 -10  -2  -6 0.36515 1.14040   3
  10   2   6 -0.6233 0.85825   5
  10   2   6 0.97252 1.04835   3
   7  -3  -6 2.37743 0.88354   8
   7  -3  -6 4.05535 1.23050   1
   7  -3  -6 3.68453 1.17652   2
   7  -3  -6 1.23124 1.08792   4
  -7   3   6 1.92347 0.84648   8
  -7   3   6 2.38954 1.08099   1
  -7   3   6 3.81397 1.50549   4
   6  -3  -6 13.7176 1.91890   8
   6  -3  -6 9.68954 2.05633   4
   6  -3  -6 12.0045 1.76612   2
  -6   3   6 9.17324 1.66208   8
  -6   3   6 13.1931 2.43365   4
  -6   3   6 7.78673 1.70896   1
   5  -3  -6 6.54443 1.23609   8
   5  -3  -6 6.25428 1.47262   4
   5  -3  -6 5.24076 1.88889   9
   5  -3  -6 7.19577 1.28345   2
  -5   3   6 6.29411 1.24771   8
  -5   3   6 4.15702 1.33329   4
  -5   3   6 7.01368 1.20426   6
  -5   3   6 5.10177 1.69836   9
  -5   3   6 7.29530 1.56946   1
   4  -3  -6 61.4721 3.71320   8
   4  -3  -6 56.8445 3.58593   2
   4  -3  -6 58.2642 3.35247   7
  -4   3   6 56.7551 3.50944   6
  -4   3   6 63.9084 4.69571   9
  -4   3   6 54.0620 4.21836   4
  -4   3   6 53.7760 4.06876   1
  -4   3   6 53.6524 3.63910   8
   3  -3  -6 68.4009 3.87864   2
   3  -3  -6 63.2541 3.55833   7
   3  -3  -6 68.5520 3.96344   8
  -3   3   6 62.0152 4.33024   1
  -3   3   6 73.2485 4.94464   9
  -3   3   6 63.7849 3.78605   6
  -3   3   6 60.8270 4.40869   4
  -3   3   6 65.8965 3.98218   8
   2  -3  -6 0.18263 0.30388   8
   2  -3  -6 0.51596 0.37246   2
   2  -3  -6 0.56166 0.33404   7
  -2   3   6 -0.2171 0.34372   1
  -2   3   6 0.69955 0.58090   9
  -2   3   6 0.15861 0.56438   4
  -2   3   6 0.70424 0.45620   6
  -2   3   6 0.13421 0.24000   5
  -2   3   6 0.18907 0.31972   8
   1  -3  -6 309.612 14.0528   7
   1  -3  -6 295.149 14.2893   2
   1  -3  -6 309.395 14.3903   8
  -1   3   6 305.195 15.2917   9
  -1   3   6 322.965 13.9664   5
  -1   3   6 291.915 14.8495   4
  -1   3   6 311.239 14.9173   1
  -1   3   6 322.902 14.4735   6
   0  -3  -6 56.1496 3.28965   8
   0  -3  -6 62.5048 3.14688   7
   0  -3  -6 57.2993 3.28770   2
   0   3   6 54.5520 3.87602   9
   0   3   6 65.2970 3.06631   5
   0   3   6 56.4364 3.65639   1
   0   3   6 61.5350 3.43749   6
   0   3   6 60.2199 3.69259   4
  -1  -3  -6 7.83044 0.90635   7
  -1  -3  -6 8.39280 0.98009   8
  -1  -3  -6 9.27782 1.05173   2
   1   3   6 8.63845 1.19653   4
   1   3   6 7.97438 1.32971   9
   1   3   6 8.37267 0.50501   3
   1   3   6 9.65161 0.75641   5
   1   3   6 6.48037 1.11102   1
   1   3   6 7.69876 1.04403   6
  -2  -3  -6 104.909 5.21121   8
  -2  -3  -6 109.801 5.37555   2
  -2  -3  -6 107.359 5.35930   7
  -2  -3  -6 111.730 5.10370   3
   2   3   6 102.261 5.50865   1
   2   3   6 100.309 5.02171   3
   2   3   6 107.920 5.12737   5
   2   3   6 103.574 5.39255   4
   2   3   6 102.464 5.37065   6
   2   3   6 105.979 5.78199   9
  -3  -3  -6 161.705 7.77962   2
  -3  -3  -6 155.969 7.64282   3
  -3  -3  -6 170.506 7.51789   8
  -3  -3  -6 159.356 7.88493   7
  -3  -3  -6 150.086 7.46294   4
   3   3   6 152.355 7.97192   9
   3   3   6 160.864 7.53763   4
   3   3   6 162.959 7.55602   5
   3   3   6 152.591 7.75947   1
   3   3   6 162.593 7.77044   6
   3   3   6 158.672 7.59898   3
  -4  -3  -6 4.69527 0.95336   7
  -4  -3  -6 6.09408 0.73854   8
  -4  -3  -6 7.35850 1.08645   3
  -4  -3  -6 5.85556 0.91694   2
   4   3   6 6.42306 0.90122   5
   4   3   6 7.03635 1.08794   6
   4   3   6 5.84728 0.99639   9
   4   3   6 4.77556 0.85120   3
   4   3   6 5.94449 0.88642   1
  -5  -3  -6 4.41740 0.88719   2
  -5  -3  -6 3.78871 1.02429   7
  -5  -3  -6 3.36639 0.88623   3
  -5  -3  -6 3.39731 0.57408   8
   5   3   6 4.19639 0.87062   6
   5   3   6 3.19637 0.69331   1
   5   3   6 3.69214 0.78292   5
   5   3   6 4.10897 0.81364   9
   5   3   6 2.82649 0.79618   3
  -6  -3  -6 59.5128 4.10742   7
  -6  -3  -6 57.8741 3.94525   3
  -6  -3  -6 63.5643 3.80586   2
   6   3   6 60.8585 3.64579   5
   6   3   6 56.6604 3.84723   3
   6   3   6 66.1987 3.78478   6
  -7  -3  -6 0.11762 0.66436   7
  -7  -3  -6 -0.1664 0.36899   2
  -7  -3  -6 -0.7653 0.50220   3
   7   3   6 0.19173 0.36782   5
   7   3   6 0.08107 0.57174   3
   7   3   6 -0.7274 0.65474   6
  -8  -3  -6 0.95768 0.80819   2
  -8  -3  -6 0.58488 0.74657   7
  -8  -3  -6 0.53318 0.79684   3
   8   3   6 0.72575 0.84733   3
   8   3   6 1.26194 0.62981   5
   8   3   6 -0.4538 0.58125   6
  -9  -3  -6 11.9991 2.28609   7
  -9  -3  -6 13.3669 2.19672   3
  -9  -3  -6 14.2825 2.05120   2
   9   3   6 8.83480 1.59591   5
   9   3   6 10.8301 1.92558   6
   9   3   6 13.1523 2.11524   3
 -10  -3  -6 36.9769 3.26552   2
 -10  -3  -6 30.8640 3.94564   7
 -10  -3  -6 33.8237 4.04700   3
  10   3   6 34.7046 3.07785   5
  10   3   6 37.3812 4.03975   3
  10   3   6 32.1018 3.38821   6
   7  -4  -6 0.37153 0.73302   2
   7  -4  -6 0.32608 1.02147   4
   7  -4  -6 0.15030 0.54806   8
  -7   4   6 0.43846 0.67450   8
  -7   4   6 1.55766 1.20683   4
   6  -4  -6 4.54188 1.07957   8
   6  -4  -6 1.75185 0.89308   2
  -6   4   6 3.90382 1.03518   8
  -6   4   6 2.12165 0.92919   1
  -6   4   6 2.91922 1.34304   4
   5  -4  -6 10.8654 1.65634   8
   5  -4  -6 11.8317 1.71510   2
  -5   4   6 11.1406 1.96884   1
  -5   4   6 7.62890 1.76076   4
  -5   4   6 9.39477 1.58971   8
   4  -4  -6 22.5720 2.02289   2
   4  -4  -6 22.4230 1.81715   7
   4  -4  -6 23.8510 2.07566   8
  -4   4   6 20.1035 2.28058   8
  -4   4   6 21.3858 2.94992   9
  -4   4   6 22.1610 2.79273   1
  -4   4   6 24.4406 1.90044   6
  -4   4   6 20.5880 2.76330   4
   3  -4  -6 21.1141 1.84061   8
   3  -4  -6 23.5047 1.72563   7
   3  -4  -6 18.7397 1.74553   2
  -3   4   6 22.0278 2.19447   1
  -3   4   6 20.6167 2.79932   9
  -3   4   6 22.0100 2.63119   4
  -3   4   6 23.4913 1.79574   6
  -3   4   6 19.1479 2.07046   8
   2  -4  -6 71.1045 4.03118   2
   2  -4  -6 72.2649 3.81632   7
   2  -4  -6 75.0647 4.09678   8
  -2   4   6 70.5349 4.55712   4
  -2   4   6 63.4779 4.69969   9
  -2   4   6 66.7067 4.05404   8
  -2   4   6 72.6723 3.98580   6
  -2   4   6 66.6289 4.46096   1
   1  -4  -6 5.18889 0.86918   8
   1  -4  -6 2.85259 0.59725   7
   1  -4  -6 3.72973 0.74052   2
  -1   4   6 4.48933 0.75271   5
  -1   4   6 2.39347 0.84577   1
  -1   4   6 3.63466 0.95207   4
  -1   4   6 3.77490 0.79602   8
  -1   4   6 2.03008 0.64179   6
  -1   4   6 2.70416 1.06460   9
   0  -4  -6 -0.2543 0.22894   8
   0  -4  -6 0.02905 0.21612   2
   0  -4  -6 0.13193 0.24614   7
   0   4   6 0.05141 0.41711   4
   0   4   6 -0.2812 0.26176   1
   0   4   6 -0.0283 0.14246   5
   0   4   6 -0.0176 0.32486   9
   0   4   6 -0.3283 0.28725   6
  -1  -4  -6 1.47056 0.27414   3
  -1  -4  -6 1.74961 0.47959   8
  -1  -4  -6 1.14545 0.38261   7
  -1  -4  -6 1.13123 0.45310   2
   1   4   6 1.46814 0.65923   1
   1   4   6 1.45116 0.33474   5
   1   4   6 1.56160 0.57821   4
   1   4   6 1.58285 0.56003   6
   1   4   6 1.15345 0.53541   9
  -2  -4  -6 36.9259 2.36451   7
  -2  -4  -6 41.5839 2.18061   3
  -2  -4  -6 37.4735 2.36011   2
  -2  -4  -6 36.8828 2.20301   8
   2   4   6 39.1303 2.76559   9
   2   4   6 37.3596 2.51787   1
   2   4   6 36.1548 2.39153   6
   2   4   6 34.8141 2.36579   4
   2   4   6 37.5018 2.09662   5
  -3  -4  -6 2.93727 0.68109   2
  -3  -4  -6 3.77578 0.58103   8
  -3  -4  -6 3.72292 0.79965   7
  -3  -4  -6 2.61633 0.59037   3
   3   4   6 4.37540 0.86170   6
   3   4   6 3.43027 0.63263   4
   3   4   6 3.05592 0.83638   9
   3   4   6 3.56965 0.63637   5
   3   4   6 2.95763 0.74606   1
  -4  -4  -6 0.27160 0.36424   3
  -4  -4  -6 0.28110 0.23189   8
  -4  -4  -6 0.02275 0.26380   7
  -4  -4  -6 -0.1271 0.21453   2
   4   4   6 3.52633 0.79608   6
   4   4   6 -0.2025 0.40468   1
   4   4   6 0.31994 0.36945   5
   4   4   6 0.45458 0.50748   9
  -5  -4  -6 10.8493 1.52866   3
  -5  -4  -6 13.5947 0.97378   8
  -5  -4  -6 12.0338 1.70522   7
  -5  -4  -6 11.4989 1.43242   2
   5   4   6 11.9547 1.40057   1
   5   4   6 12.0051 1.55897   9
   5   4   6 12.0059 1.47269   6
   5   4   6 10.9915 1.28995   5
  -6  -4  -6 19.0400 1.98939   2
  -6  -4  -6 15.9617 2.05194   3
  -6  -4  -6 16.2239 2.16490   7
   6   4   6 16.8132 1.52811   5
   6   4   6 17.3204 1.54702   1
   6   4   6 14.4987 1.80883   6
   6   4   6 17.3620 1.72519   9
  -7  -4  -6 52.2773 3.84907   3
  -7  -4  -6 57.7162 3.69229   2
  -7  -4  -6 54.6948 4.06457   7
   7   4   6 64.8875 3.76847   6
   7   4   6 46.9527 3.63605   3
   7   4   6 50.6288 3.42030   5
  -8  -4  -6 60.3344 4.53578   7
  -8  -4  -6 66.0355 4.14335   2
  -8  -4  -6 59.7944 4.38074   3
   8   4   6 55.6421 3.93233   6
   8   4   6 54.7083 4.17695   3
   8   4   6 59.8133 3.88246   5
  -9  -4  -6 0.71924 0.78977   3
  -9  -4  -6 1.82220 0.86959   2
  -9  -4  -6 0.96630 1.10992   7
   9   4   6 0.78484 0.78096   3
   9   4   6 1.25694 0.90221   5
   9   4   6 -1.0168 0.99431   6
 -10  -4  -6 1.95744 1.07507   2
 -10  -4  -6 3.58659 1.54006   3
  10   4   6 3.48774 1.44143   3
  10   4   6 4.88502 1.51676   6
   7  -5  -6 0.16997 0.61408   8
   7  -5  -6 -0.7672 0.69521   2
  -7   5   6 -0.2007 0.52403   8
  -7   5   6 1.17129 1.14317   4
   6  -5  -6 5.14050 1.26323   8
   6  -5  -6 3.80842 1.16865   2
  -6   5   6 5.12717 1.36824   1
  -6   5   6 5.93479 1.31930   8
  -6   5   6 3.42319 1.38778   4
   5  -5  -6 16.8502 2.11949   8
   5  -5  -6 14.2361 1.93383   2
   5  -5  -6 17.1110 1.96337   7
  -5   5   6 17.1024 2.47423   1
  -5   5   6 15.5663 2.43184   4
  -5   5   6 13.0275 1.93670   8
   4  -5  -6 0.39607 0.62365   8
   4  -5  -6 -0.2360 0.34469   2
   4  -5  -6 -0.0999 0.45847   7
  -4   5   6 0.97149 0.63547   9
  -4   5   6 -0.1527 0.42825   4
  -4   5   6 -0.2364 0.40215   1
  -4   5   6 0.50513 0.64185   8
   3  -5  -6 92.4881 4.99646   8
   3  -5  -6 85.9705 4.70857   7
   3  -5  -6 89.5869 4.97482   2
  -3   5   6 83.5540 5.45153   4
  -3   5   6 79.4773 5.67852   9
  -3   5   6 77.1303 4.85836   8
  -3   5   6 88.5433 4.69815   6
  -3   5   6 84.7294 5.39919   1
   2  -5  -6 20.3823 1.75350   8
   2  -5  -6 17.9442 1.55514   7
   2  -5  -6 20.2156 1.75624   2
  -2   5   6 17.2780 2.24471   1
  -2   5   6 18.4768 2.52540   9
  -2   5   6 19.6880 1.74862   8
  -2   5   6 20.1105 1.62020   6
  -2   5   6 19.7812 2.40578   4
   1  -5  -6 0.26893 0.27632   8
   1  -5  -6 -0.0582 0.34381   2
   1  -5  -6 -0.2456 0.28767   7
  -1   5   6 -0.6068 0.26819   1
  -1   5   6 -0.1252 0.34365   9
  -1   5   6 -0.0641 0.25061   6
  -1   5   6 0.51156 0.50278   4
  -1   5   6 -0.1864 0.23637   8
   0  -5  -6 189.473 8.87193   7
   0  -5  -6 186.134 8.97341   2
   0  -5  -6 184.590 8.90191   8
   0   5   6 177.100 9.65833   9
   0   5   6 196.174 8.96371   6
   0   5   6 176.029 8.92324   8
   0   5   6 171.087 9.25299   4
   0   5   6 190.118 9.40967   1
  -1  -5  -6 2.54995 0.43333   3
  -1  -5  -6 1.54804 0.50972   7
  -1  -5  -6 2.33766 0.52821   8
  -1  -5  -6 1.73518 0.55173   2
   1   5   6 0.80289 0.50757   9
   1   5   6 2.30123 0.38725   5
   1   5   6 1.41699 0.60490   1
   1   5   6 2.34415 0.59609   6
   1   5   6 2.82072 0.74050   4
  -2  -5  -6 0.06910 0.24208   3
  -2  -5  -6 -0.0057 0.23775   8
  -2  -5  -6 -0.2116 0.29240   2
  -2  -5  -6 -0.1225 0.17742   7
   2   5   6 -0.1533 0.32665   6
   2   5   6 -0.4043 0.34997   9
   2   5   6 -0.1188 0.31057   4
   2   5   6 0.00795 0.31369   1
   2   5   6 -0.0655 0.25298   5
  -3  -5  -6 1.99073 0.44084   8
  -3  -5  -6 1.18875 0.45832   2
  -3  -5  -6 1.91570 0.54753   3
  -3  -5  -6 1.17260 0.50099   7
   3   5   6 2.10210 0.64209   6
   3   5   6 1.31034 0.37513   5
   3   5   6 1.21910 0.64675   1
   3   5   6 1.83931 0.71269   9
   3   5   6 1.50621 0.48632   4
  -4  -5  -6 49.2139 3.30785   7
  -4  -5  -6 50.4335 2.59978   8
  -4  -5  -6 53.0666 3.08996   2
  -4  -5  -6 45.9280 3.04786   3
   4   5   6 50.8118 3.36313   9
   4   5   6 44.6005 2.77183   5
   4   5   6 49.3628 3.08459   1
   4   5   6 48.0856 3.09950   6
  -5  -5  -6 103.716 6.04497   7
  -5  -5  -6 107.849 5.85542   3
  -5  -5  -6 103.773 5.63454   2
   5   5   6 111.017 5.63385   1
   5   5   6 102.357 5.63970   6
   5   5   6 96.0478 5.39700   5
   5   5   6 107.670 5.88967   9
  -6  -5  -6 3.92587 1.10813   7
  -6  -5  -6 3.88570 0.92194   2
  -6  -5  -6 6.21807 1.30264   3
   6   5   6 5.49063 1.11072   6
   6   5   6 4.17722 0.86644   5
   6   5   6 4.55474 1.16153   9
   6   5   6 5.46429 1.06844   1
  -7  -5  -6 92.7896 6.13215   7
  -7  -5  -6 110.110 5.78888   2
  -7  -5  -6 90.3868 5.88806   3
   7   5   6 98.5508 5.61785   6
   7   5   6 102.525 5.60587   5
  -8  -5  -6 6.45358 1.36075   2
  -8  -5  -6 6.75109 1.58174   7
  -8  -5  -6 6.98872 1.64672   3
   8   5   6 5.97580 1.20397   5
   8   5   6 5.50149 1.29621   6
  -9  -5  -6 2.23888 1.19254   3
  -9  -5  -6 0.25029 0.76538   7
  -9  -5  -6 1.13277 0.69411   2
   9   5   6 0.96535 0.97312   3
   9   5   6 0.46627 0.84428   5
   9   5   6 0.47359 0.91498   6
   6  -6  -6 0.25669 0.63054   2
   6  -6  -6 -0.3476 0.63016   8
  -6   6   6 0.32962 0.88002   1
  -6   6   6 -0.3117 0.65406   8
  -6   6   6 0.19558 0.68166   4
   5  -6  -6 12.5657 1.69991   7
   5  -6  -6 11.6565 1.75693   8
   5  -6  -6 9.48730 1.72518   2
  -5   6   6 11.2702 2.02943   1
  -5   6   6 9.57653 1.65970   8
  -5   6   6 10.6027 2.03427   4
   4  -6  -6 0.53475 0.62932   2
   4  -6  -6 0.17085 0.50895   7
   4  -6  -6 0.18935 0.54270   8
  -4   6   6 0.34056 0.52155   8
  -4   6   6 1.36065 0.81667   1
  -4   6   6 1.02023 0.85336   4
   3  -6  -6 18.0874 2.01758   2
   3  -6  -6 13.9130 1.72751   7
   3  -6  -6 15.7916 1.87702   8
  -3   6   6 17.6178 2.38032   1
  -3   6   6 15.6787 2.41652   9
  -3   6   6 14.0213 2.13058   4
  -3   6   6 16.5955 1.95932   8
   2  -6  -6 29.1684 2.29519   8
   2  -6  -6 30.8543 2.32577   2
   2  -6  -6 31.4901 2.25793   7
  -2   6   6 33.2250 2.40606   8
  -2   6   6 27.0768 2.55242   4
  -2   6   6 29.8329 2.86386   9
  -2   6   6 29.7525 2.11084   6
  -2   6   6 29.8025 2.61901   1
   1  -6  -6 49.3072 3.16466   8
   1  -6  -6 54.8293 3.21287   7
   1  -6  -6 51.8859 3.27407   2
  -1   6   6 52.0027 3.10983   6
  -1   6   6 51.8865 3.88594   9
  -1   6   6 52.9703 3.63056   4
  -1   6   6 48.6939 3.57057   1
  -1   6   6 52.2000 3.26033   8
   0  -6  -6 108.442 5.76447   8
   0  -6  -6 114.788 5.90558   2
   0  -6  -6 123.553 5.91158   7
   0   6   6 109.456 6.22080   1
   0   6   6 102.328 6.11438   4
   0   6   6 113.823 6.60153   9
   0   6   6 115.035 5.78968   6
   0   6   6 108.273 5.82323   8
  -1  -6  -6 1.29799 0.47364   8
  -1  -6  -6 1.19129 0.53715   7
  -1  -6  -6 1.15397 0.43790   2
   1   6   6 0.94294 0.60340   4
   1   6   6 0.92733 0.56884   9
   1   6   6 0.71842 0.39964   6
   1   6   6 0.44810 0.62729   1
  -2  -6  -6 3.94173 0.67011   8
  -2  -6  -6 5.25234 0.88794   2
  -2  -6  -6 2.44701 0.74185   7
  -2  -6  -6 6.32346 0.88052   3
   2   6   6 5.59381 0.66824   5
   2   6   6 2.98958 0.82783   6
   2   6   6 5.87218 1.19016   9
   2   6   6 3.95565 0.91773   1
   2   6   6 3.09142 0.75396   4
  -3  -6  -6 142.760 7.05952   3
  -3  -6  -6 143.055 6.72199   8
  -3  -6  -6 140.014 7.32984   7
  -3  -6  -6 141.257 7.10910   2
   3   6   6 143.585 7.33999   1
   3   6   6 142.750 7.01875   4
   3   6   6 137.691 7.57455   9
   3   6   6 133.011 6.71520   5
   3   6   6 141.209 7.13099   6
  -4  -6  -6 5.49392 1.01077   3
  -4  -6  -6 5.57548 1.19324   7
  -4  -6  -6 7.90029 1.12991   2
   4   6   6 6.77482 1.12826   6
   4   6   6 6.49162 1.15365   1
   4   6   6 5.51717 0.87332   5
   4   6   6 6.26391 1.22703   9
  -5  -6  -6 22.6966 2.62815   7
  -5  -6  -6 24.7533 2.21634   3
  -5  -6  -6 23.7481 2.00163   2
   5   6   6 32.0073 2.50396   9
   5   6   6 26.5242 1.96455   5
   5   6   6 30.6236 2.32014   1
   5   6   6 26.3179 2.13914   6
  -6  -6  -6 22.1424 2.53160   3
  -6  -6  -6 21.0006 2.68602   7
  -6  -6  -6 25.2370 2.09045   2
   6   6   6 23.7137 1.91593   5
   6   6   6 23.5940 2.10612   6
   6   6   6 24.2124 2.16772   1
   6   6   6 25.0249 2.42077   9
  -7  -6  -6 0.29385 0.54746   2
  -7  -6  -6 0.95355 0.89970   7
  -7  -6  -6 0.96498 0.67509   3
   7   6   6 -0.1609 0.61206   6
   7   6   6 0.36528 0.46898   5
  -8  -6  -6 16.9031 2.48908   3
  -8  -6  -6 21.2918 2.99428   7
  -8  -6  -6 23.1963 2.51854   2
   8   6   6 21.0505 2.47000   6
   8   6   6 24.0051 2.49159   5
  -9  -6  -6 12.1765 2.45299   7
  -9  -6  -6 14.3775 2.40413   3
   9   6   6 11.8954 2.00500   6
   9   6   6 16.0358 2.09211   5
   9   6   6 14.6773 2.27860   3
   6  -7  -6 0.53283 0.62013   8
   6  -7  -6 0.26135 0.86873   2
   6  -7  -6 -1.4089 1.07088   7
  -6   7   6 0.29158 0.87564   4
  -6   7   6 0.80751 0.70737   8
   5  -7  -6 34.4245 2.91444   2
   5  -7  -6 34.2285 2.92986   8
   5  -7  -6 33.6842 2.82049   7
  -5   7   6 30.5663 3.23807   8
  -5   7   6 34.1710 3.37223   4
  -5   7   6 37.1947 3.34390   1
   4  -7  -6 12.2506 1.81070   2
   4  -7  -6 16.3094 1.96175   7
   4  -7  -6 11.7167 1.75634   8
  -4   7   6 12.0756 2.12198   4
  -4   7   6 10.6908 1.69784   8
  -4   7   6 10.3863 1.94837   1
   3  -7  -6 3.37759 0.97106   8
   3  -7  -6 2.48360 0.84627   7
   3  -7  -6 2.63292 0.85658   2
  -3   7   6 2.83419 1.00921   1
  -3   7   6 4.95802 1.30531   9
  -3   7   6 3.29578 1.09299   4
  -3   7   6 1.57857 0.79697   8
   2  -7  -6 17.4798 1.90795   8
   2  -7  -6 15.0174 1.84867   2
   2  -7  -6 20.1764 1.69390   7
  -2   7   6 12.5197 2.10162   9
  -2   7   6 11.0097 1.89821   4
  -2   7   6 13.0968 1.71412   8
  -2   7   6 14.9473 2.16894   1
   1  -7  -6 -0.1050 0.39044   2
   1  -7  -6 0.12919 0.44277   8
   1  -7  -6 0.17728 0.34355   7
  -1   7   6 0.15052 0.43877   4
  -1   7   6 -0.0979 0.40980   8
  -1   7   6 0.68246 0.37409   6
  -1   7   6 1.18852 0.70096   9
  -1   7   6 0.12400 0.38563   1
   0  -7  -6 28.4526 2.17191   8
   0  -7  -6 35.2488 2.39380   7
   0  -7  -6 31.4317 2.32144   2
   0   7   6 30.4294 2.75703   9
   0   7   6 32.5532 2.66323   1
   0   7   6 33.8599 2.23155   6
   0   7   6 32.7481 2.31246   8
   0   7   6 31.4659 2.55818   4
  -1  -7  -6 51.8425 3.26466   7
  -1  -7  -6 46.9275 3.10887   2
  -1  -7  -6 47.0514 2.94484   8
   1   7   6 51.5088 3.45737   1
   1   7   6 52.3509 3.09586   6
   1   7   6 52.8421 3.73115   9
   1   7   6 51.9574 3.39744   4
  -2  -7  -6 8.31098 1.01481   8
  -2  -7  -6 8.17281 1.29808   7
  -2  -7  -6 6.27102 1.02915   2
  -2  -7  -6 7.99650 1.09343   3
   2   7   6 10.3813 1.41429   4
   2   7   6 11.2272 1.73151   9
   2   7   6 7.16338 1.36070   1
   2   7   6 10.1791 1.29607   6
  -3  -7  -6 70.1344 4.01231   2
  -3  -7  -6 70.7881 4.00823   3
  -3  -7  -6 71.7562 4.29315   7
   3   7   6 64.8377 3.90372   4
   3   7   6 66.5631 3.61072   5
   3   7   6 69.2772 4.55402   9
   3   7   6 73.2617 4.30231   1
   3   7   6 69.9252 4.06069   6
  -4  -7  -6 73.5484 4.69332   7
  -4  -7  -6 74.5574 4.35079   2
  -4  -7  -6 74.7362 4.46786   3
   4   7   6 76.6971 4.10125   5
   4   7   6 80.7731 4.67382   1
   4   7   6 75.4162 4.40357   6
   4   7   6 78.3317 4.92608   9
  -5  -7  -6 33.8128 2.83738   7
  -5  -7  -6 33.3604 2.43785   2
  -5  -7  -6 28.8613 2.54728   3
   5   7   6 33.5819 2.30919   5
   5   7   6 32.5682 2.51558   6
   5   7   6 34.4942 2.96490   9
   5   7   6 36.9025 2.68693   1
  -6  -7  -6 32.6138 2.42952   2
  -6  -7  -6 28.2333 2.62992   3
  -6  -7  -6 27.9702 3.15127   7
   6   7   6 33.1072 2.68496   1
   6   7   6 31.9641 2.54174   6
   6   7   6 29.5016 2.86604   9
   6   7   6 29.7979 2.27188   5
  -7  -7  -6 3.00243 0.94311   2
  -7  -7  -6 2.17909 0.99902   3
  -7  -7  -6 3.37799 1.15937   7
   7   7   6 1.63018 1.08239   1
   7   7   6 3.29420 0.87946   5
   7   7   6 3.84663 1.13334   6
  -8  -7  -6 42.4208 3.72198   3
  -8  -7  -6 51.4918 4.17385   7
   8   7   6 47.0072 3.40502   5
   8   7   6 43.8036 3.46442   6
  -9  -7  -6 4.53723 1.54799   3
  -9  -7  -6 5.08846 1.57518   7
   9   7   6 3.03285 1.15054   5
   9   7   6 3.64946 1.40223   6
   5  -8  -6 4.24042 1.25996   7
   5  -8  -6 4.71474 1.25413   2
   5  -8  -6 3.69150 1.09463   8
  -5   8   6 4.62675 1.45460   4
  -5   8   6 4.26325 1.20929   8
  -5   8   6 4.47544 1.27188   1
   4  -8  -6 0.02652 0.45418   8
   4  -8  -6 0.93724 0.79991   7
   4  -8  -6 -0.4753 0.56765   2
  -4   8   6 -0.3249 0.42062   8
  -4   8   6 -0.1027 0.60274   4
  -4   8   6 0.13422 0.63290   1
   3  -8  -6 18.5695 2.19021   2
   3  -8  -6 17.2257 2.13567   7
   3  -8  -6 16.4796 2.02208   8
  -3   8   6 18.8678 2.24609   8
  -3   8   6 17.0951 2.43258   1
  -3   8   6 16.4855 2.47100   4
   2  -8  -6 1.40410 0.63912   7
   2  -8  -6 1.62938 0.73540   8
   2  -8  -6 0.87729 0.56458   2
  -2   8   6 0.38978 0.58908   8
  -2   8   6 2.94212 0.95907   1
  -2   8   6 0.40523 0.71405   4
   1  -8  -6 40.8362 2.83029   7
   1  -8  -6 37.3586 2.76067   2
   1  -8  -6 38.3676 2.68463   8
  -1   8   6 35.3305 2.99997   4
  -1   8   6 41.6719 3.42077   9
  -1   8   6 36.9267 3.02849   1
  -1   8   6 37.7007 2.71907   8
   0  -8  -6 84.5586 4.79224   2
   0  -8  -6 88.8504 4.90998   7
   0  -8  -6 86.7792 4.66212   8
   0   8   6 85.4536 5.46829   9
   0   8   6 78.9592 4.49614   6
   0   8   6 81.6298 4.65969   8
   0   8   6 80.2447 5.04448   4
   0   8   6 78.1943 5.06542   1
  -1  -8  -6 118.281 6.02590   2
  -1  -8  -6 117.213 6.14412   7
  -1  -8  -6 100.537 5.63207   8
   1   8   6 109.948 5.77088   6
   1   8   6 110.573 5.78057   8
   1   8   6 118.815 6.73411   9
   1   8   6 103.580 6.10931   4
   1   8   6 106.493 6.25895   1
  -2  -8  -6 63.9281 3.86565   2
  -2  -8  -6 63.8740 3.55620   8
  -2  -8  -6 68.4205 4.13392   7
   2   8   6 62.6613 4.13771   1
   2   8   6 67.1283 3.86963   6
   2   8   6 63.4459 3.98178   4
   2   8   6 64.6373 4.46729   9
  -3  -8  -6 -0.0595 0.42054   3
  -3  -8  -6 0.45527 0.49592   2
  -3  -8  -6 0.42717 0.52919   7
   3   8   6 0.52615 0.63877   9
   3   8   6 0.07827 0.69307   1
   3   8   6 0.10294 0.45369   4
   3   8   6 -0.8588 0.54721   6
  -4  -8  -6 124.921 7.25185   7
  -4  -8  -6 128.914 6.98884   3
  -4  -8  -6 125.644 6.82255   2
   4   8   6 124.875 6.48084   5
   4   8   6 127.461 6.88027   6
   4   8   6 141.624 7.29700   1
   4   8   6 141.866 7.63194   9
  -5  -8  -6 13.1012 1.63978   2
  -5  -8  -6 9.69130 1.74417   7
  -5  -8  -6 10.6196 1.67303   3
   5   8   6 9.27048 1.49495   6
   5   8   6 10.8673 1.95986   9
   5   8   6 11.9558 1.78996   1
   5   8   6 9.78781 1.30033   5
  -6  -8  -6 9.89784 1.93728   7
  -6  -8  -6 9.57135 1.45220   2
  -6  -8  -6 7.03432 1.42304   3
   6   8   6 9.45806 1.37281   5
   6   8   6 7.62054 1.61325   1
   6   8   6 6.02936 1.31234   6
  -7  -8  -6 10.1343 1.86270   3
  -7  -8  -6 9.80535 2.03235   7
   7   8   6 12.5664 1.91566   6
   7   8   6 11.5601 1.64497   5
   7   8   6 13.3807 2.01780   1
  -8  -8  -6 3.93855 1.35129   3
  -8  -8  -6 3.14049 1.26897   7
   8   8   6 1.61518 0.81332   5
   8   8   6 1.19798 1.00534   6
   5  -9  -6 14.2375 2.22892   2
   5  -9  -6 14.6510 2.18690   7
   5  -9  -6 12.4198 1.99189   8
  -5   9   6 11.2429 2.11200   1
  -5   9   6 12.9088 2.37674   4
  -5   9   6 12.6234 2.05142   8
   4  -9  -6 6.52230 1.36508   8
   4  -9  -6 10.0126 1.78394   2
   4  -9  -6 7.50738 1.58661   7
  -4   9   6 7.03320 1.45324   8
  -4   9   6 5.43831 1.44174   1
  -4   9   6 4.55141 1.39640   4
   3  -9  -6 2.91653 0.99818   2
   3  -9  -6 2.30396 0.79379   8
   3  -9  -6 2.74476 0.91548   7
  -3   9   6 2.24034 0.85399   8
  -3   9   6 2.86266 1.14767   4
  -3   9   6 3.29042 1.12420   1
   2  -9  -6 8.53804 1.46714   8
   2  -9  -6 10.9629 1.73235   7
   2  -9  -6 13.0771 1.82212   2
  -2   9   6 9.34984 1.74358   1
  -2   9   6 6.77356 1.58575   4
  -2   9   6 7.53872 1.41753   8
   1  -9  -6 0.87308 0.55366   2
   1  -9  -6 1.73568 0.72338   7
   1  -9  -6 0.36053 0.56114   8
  -1   9   6 0.68480 0.63232   8
  -1   9   6 0.59019 0.57049   4
  -1   9   6 1.41192 0.68889   1
   0  -9  -6 3.84822 1.00849   2
   0  -9  -6 6.11606 1.04351   8
   0  -9  -6 4.98644 1.08992   7
   0   9   6 3.57405 0.94017   8
   0   9   6 4.11822 1.09699   4
   0   9   6 3.57539 1.02357   1
  -1  -9  -6 12.9884 1.62850   2
  -1  -9  -6 14.7169 1.95191   7
  -1  -9  -6 12.9110 1.48917   8
   1   9   6 13.4887 1.95119   1
   1   9   6 14.6792 1.61589   8
   1   9   6 11.5142 1.48047   6
   1   9   6 14.1184 1.90430   4
  -2  -9  -6 106.652 5.64339   2
  -2  -9  -6 96.3741 5.80150   7
   2   9   6 100.989 5.75943   4
   2   9   6 91.9588 5.87530   1
   2   9   6 106.217 5.55289   6
  -3  -9  -6 53.5916 3.35306   2
  -3  -9  -6 50.5687 3.62164   7
  -3  -9  -6 50.5657 3.35282   3
   3   9   6 45.4181 3.27725   6
   3   9   6 51.2116 3.69377   1
  -4  -9  -6 83.8641 4.55453   2
  -4  -9  -6 76.7226 4.64919   3
  -4  -9  -6 68.1551 4.81519   7
   4   9   6 66.4592 4.70581   1
   4   9   6 76.2157 4.51467   6
  -5  -9  -6 1.93812 0.68345   2
  -5  -9  -6 2.05811 0.89922   3
  -5  -9  -6 0.97058 0.69651   7
   5   9   6 1.95533 0.78264   5
   5   9   6 -0.0956 0.71064   1
   5   9   6 0.55056 0.97618   6
  -6  -9  -6 60.7067 4.34117   3
  -6  -9  -6 60.2487 4.61097   7
   6   9   6 56.4479 3.71586   5
   6   9   6 60.2525 4.21172   6
   6   9   6 66.8008 4.36241   1
  -7  -9  -6 6.77867 1.78686   7
  -7  -9  -6 4.70004 1.26486   3
   7   9   6 6.22779 1.81251   1
   7   9   6 5.74499 1.65671   6
   7   9   6 7.20579 1.32689   5
  -8  -9  -6 62.2325 4.82485   3
  -8  -9  -6 63.1456 5.68519   7
   8   9   6 63.0116 4.19767   5
   4 -10  -6 71.6070 4.62009   2
   4 -10  -6 63.4670 4.30706   8
   4 -10  -6 67.1303 4.51815   7
  -4  10   6 53.8274 4.63111   4
  -4  10   6 57.3462 4.56899   1
  -4  10   6 47.7809 4.01886   8
   3 -10  -6 4.51021 1.30385   2
   3 -10  -6 3.41116 1.21536   7
   3 -10  -6 4.02484 1.09375   8
  -3  10   6 4.11003 1.17930   1
  -3  10   6 3.73612 1.07804   8
  -3  10   6 2.58712 1.22722   4
   2 -10  -6 8.32761 1.45304   8
   2 -10  -6 7.23122 1.51635   7
   2 -10  -6 8.63884 1.57383   2
  -2  10   6 7.85553 1.52972   1
  -2  10   6 5.11915 1.23722   8
  -2  10   6 4.61531 1.32159   4
   1 -10  -6 4.18680 1.02035   8
   1 -10  -6 3.67749 1.03133   2
   1 -10  -6 5.57582 1.21847   7
  -1  10   6 4.37893 1.18407   1
  -1  10   6 3.28354 0.99257   8
  -1  10   6 4.63205 1.29982   4
   0 -10  -6 27.1015 2.18782   8
   0 -10  -6 31.0968 2.63605   7
   0 -10  -6 30.2064 2.45966   2
   0  10   6 27.7658 2.26966   8
   0  10   6 23.8438 2.89755   1
   0  10   6 26.6800 2.59079   4
  -1 -10  -6 4.62819 1.13294   7
  -1 -10  -6 4.59704 1.07914   2
   1  10   6 5.12228 1.26316   4
   1  10   6 7.28320 1.45798   1
  -2 -10  -6 32.3319 2.51318   2
  -2 -10  -6 30.2027 2.68919   7
   2  10   6 31.1780 2.38948   6
   2  10   6 30.8280 2.83843   1
   2  10   6 32.9682 2.69264   4
  -3 -10  -6 40.3237 3.41429   7
  -3 -10  -6 47.1790 3.14053   2
   3  10   6 43.4459 3.51362   1
   3  10   6 43.2893 3.05945   6
  -4 -10  -6 26.9028 2.43871   3
  -4 -10  -6 31.3871 2.41466   2
  -4 -10  -6 31.3678 2.83540   7
   4  10   6 25.1999 2.46230   6
   4  10   6 27.1039 2.64450   1
  -5 -10  -6 31.2698 3.48213   7
  -5 -10  -6 26.5934 2.91473   3
   5  10   6 28.7054 2.86056   1
   5  10   6 24.6705 2.40998   6
  -6 -10  -6 0.25638 0.60743   3
  -6 -10  -6 -0.2825 0.58158   7
   6  10   6 0.02260 1.11315   1
   6  10   6 -1.2323 0.70951   6
  -7 -10  -6 1.79429 1.17967   3
  -7 -10  -6 2.96458 1.31634   7
   7  10   6 5.47002 1.51341   6
   7  10   6 5.17403 1.21748   5
   7  10   6 2.40374 1.28384   1
   3 -11  -6 2.58415 0.99772   8
   3 -11  -6 3.39142 1.35610   7
   3 -11  -6 1.78687 1.01528   2
  -3  11   6 1.85091 1.04462   4
  -3  11   6 3.01220 1.14711   8
  -3  11   6 4.18130 1.24413   1
   2 -11  -6 33.0219 2.86818   2
   2 -11  -6 31.9705 2.94998   7
   2 -11  -6 30.8740 2.61908   8
  -2  11   6 27.3027 3.47597   4
  -2  11   6 32.2021 2.69867   8
  -2  11   6 28.3926 2.89835   1
   1 -11  -6 6.59062 1.23777   8
   1 -11  -6 8.05246 1.53363   2
   1 -11  -6 7.33164 1.50449   7
  -1  11   6 8.44396 1.63662   1
  -1  11   6 6.92456 1.29683   8
  -1  11   6 6.30897 1.48091   4
   0 -11  -6 0.27051 0.48070   2
   0 -11  -6 -0.1649 0.70273   7
   0  11   6 1.11329 0.65855   1
   0  11   6 0.31734 0.45932   4
  -1 -11  -6 3.04050 0.91050   2
  -1 -11  -6 2.63770 1.11689   7
   1  11   6 4.74100 1.20349   1
   1  11   6 4.56366 1.16607   4
  -2 -11  -6 1.04113 0.86436   7
  -2 -11  -6 -0.1752 0.50471   2
   2  11   6 0.94033 0.75457   4
   2  11   6 0.96321 0.84125   1
  -3 -11  -6 24.0404 2.86192   7
  -3 -11  -6 20.1163 2.24091   2
   3  11   6 19.6535 2.28120   6
   3  11   6 19.1736 2.58750   1
  -4 -11  -6 25.3116 3.10118   7
   4  11   6 24.6955 2.74876   6
   4  11   6 28.1924 2.78545   1
  -5 -11  -6 0.51039 0.98116   7
  -5 -11  -6 -0.2198 0.58805   3
   5  11   6 -0.4988 0.71133   1
   5  11   6 -2.2550 0.94802   6
  -6 -11  -6 26.9821 3.43587   7
  -6 -11  -6 24.5368 3.12111   3
   6  11   6 22.5250 2.93169   6
   6  11   6 23.0697 2.97865   1
   2 -12  -6 3.29269 1.12216   8
   2 -12  -6 2.91695 1.07188   7
   2 -12  -6 2.13104 1.05584   2
  -2  12   6 2.48305 1.08234   8
  -2  12   6 3.71479 1.16029   1
  -2  12   6 3.28363 1.50662   4
   1 -12  -6 4.20234 1.26534   7
   1 -12  -6 2.47094 1.12862   2
  -1  12   6 5.06536 1.41106   4
  -1  12   6 3.61031 1.05063   1
   0 -12  -6 -0.3035 0.79070   7
   0 -12  -6 0.71502 0.56083   2
   0  12   6 3.18545 1.10326   1
   0  12   6 1.08848 0.70054   4
  -1 -12  -6 4.58325 1.12001   2
  -1 -12  -6 5.78386 1.40993   7
   1  12   6 4.51641 1.21291   4
   1  12   6 3.84841 1.13904   1
  -2 -12  -6 0.24182 0.65810   2
  -2 -12  -6 1.16162 0.83880   7
   2  12   6 1.60970 0.89075   1
  -3 -12  -6 0.46834 0.75999   7
   3  12   6 0.89527 0.81704   1
  -4 -12  -6 -0.3814 0.60184   7
   4  12   6 -0.5151 0.98606   6
   4  12   6 0.98589 0.93751   1
   5  12   6 2.10393 1.47018   6
   5  12   6 4.94788 1.67285   1
   0 -13  -6 0.41650 0.58812   2
   0  13   6 0.81937 0.84417   4
  -1 -13  -6 1.53957 0.76475   2
  -1 -13  -6 -0.1596 0.78767   7
   1  13   6 3.92479 1.37690   4
   0  11  -7 -0.9564 1.61350   4
   0  11  -7 -1.4291 1.35728   1
   0 -11   7 1.29724 0.97940   3
   0 -11   7 -0.0397 1.00421   5
  -1  11  -7 16.7862 3.01829   4
   1 -11   7 18.0536 2.32492   5
   1 -11   7 14.7896 2.41552   3
  -2  11  -7 7.64713 2.01233   4
   2 -11   7 9.47838 1.92996   3
   2 -11   7 9.63262 1.89941   5
  -3  11  -7 5.01112 2.34684   4
  -3  11  -7 5.75495 1.46293   8
   3 -11   7 6.47883 2.16869   3
   2  10  -7 -0.9698 0.98453   4
   2  10  -7 1.65215 1.41853   1
  -2 -10   7 0.87711 0.89730   6
  -2 -10   7 1.56020 0.93355   5
  -2 -10   7 1.19166 0.88614   3
   1  10  -7 -1.5646 0.96567   1
   1  10  -7 0.24409 1.07216   4
  -1 -10   7 -0.1829 0.98736   3
  -1 -10   7 -1.3865 0.69439   5
   0  10  -7 6.88087 2.15161   4
   0  10  -7 8.66068 1.78821   1
   0 -10   7 8.14131 1.69158   5
   0 -10   7 8.64014 1.84423   3
  -1  10  -7 1.60795 1.60687   4
   1 -10   7 1.00009 0.72030   5
   1 -10   7 3.74711 1.30083   3
  -2  10  -7 68.2821 4.39522   8
  -2  10  -7 65.1005 5.19000   4
   2 -10   7 73.9809 5.16753   3
   2 -10   7 71.7994 4.72038   5
  -3  10  -7 0.32739 0.55217   8
  -3  10  -7 -0.8542 0.83362   4
   3 -10   7 0.82494 0.72880   5
   3 -10   7 0.41371 0.77268   3
  -4  10  -7 5.80346 1.90779   4
  -4  10  -7 5.22100 1.34302   8
   4 -10   7 5.44101 1.62623   3
  -5  10  -7 2.19199 1.28740   4
  -5  10  -7 0.84808 0.93651   8
   5 -10   7 2.65717 1.41246   3
   3   9  -7 -0.5140 1.09502   1
   3   9  -7 0.70000 0.77613   6
   3   9  -7 -0.0175 1.45673   4
  -3  -9   7 0.71485 1.03264   5
  -3  -9   7 0.39011 0.95450   3
  -3  -9   7 0.42583 0.80766   6
   2   9  -7 14.8698 2.04234   6
   2   9  -7 14.7136 2.32411   1
   2   9  -7 7.45754 2.14371   4
  -2  -9   7 15.5300 2.38297   3
  -2  -9   7 13.8481 2.01796   6
  -2  -9   7 14.4034 2.16671   5
   1   9  -7 5.04474 1.16546   6
   1   9  -7 2.69147 1.06750   1
   1   9  -7 0.44687 0.92418   4
  -1  -9   7 1.92081 0.87312   5
  -1  -9   7 0.74838 0.81880   6
  -1  -9   7 3.11187 1.16105   3
   0   9  -7 1.13643 1.03375   1
   0   9  -7 -1.3027 1.21230   4
   0  -9   7 0.73448 0.75834   3
   0  -9   7 2.10747 0.83592   5
  -1   9  -7 -2.1873 1.02152   4
  -1   9  -7 -0.5314 0.52098   8
  -1   9  -7 -0.6934 0.82010   1
   1  -9   7 0.78348 0.60526   5
   1  -9   7 0.46434 0.84673   3
  -2   9  -7 64.3957 4.04372   8
  -2   9  -7 59.3238 4.71534   4
   2  -9   7 68.0828 4.69575   3
   2  -9   7 65.4632 4.36135   5
  -3   9  -7 -0.9624 0.73195   4
  -3   9  -7 0.27658 0.50416   8
   3  -9   7 -0.5246 0.68212   5
   3  -9   7 0.55056 0.66811   3
  -4   9  -7 16.9910 2.16592   8
  -4   9  -7 16.0931 2.47564   4
   4  -9   7 20.7132 2.43082   5
   4  -9   7 20.2662 2.70150   3
  -5   9  -7 2.54442 1.03576   8
  -5   9  -7 2.21076 1.23756   4
   5  -9   7 2.63708 1.69141   5
   5  -9   7 2.51131 1.29718   3
  -6   9  -7 16.1737 2.39391   8
  -6   9  -7 19.1249 2.66652   4
   6  -9   7 20.2218 2.64314   7
   6  -9   7 18.0169 2.80692   3
   4   8  -7 8.88691 2.19650   4
   4   8  -7 8.23957 1.65363   6
   4   8  -7 10.2377 2.02701   1
  -4  -8   7 11.0529 2.04027   3
  -4  -8   7 9.89834 1.82770   5
  -4  -8   7 7.39888 1.52991   6
   3   8  -7 4.44933 1.44387   4
   3   8  -7 3.53496 1.27285   1
   3   8  -7 1.82674 1.03320   6
  -3  -8   7 1.91058 1.05710   3
  -3  -8   7 1.15886 0.96286   6
  -3  -8   7 1.43040 0.88601   5
   2   8  -7 31.6813 2.97603   1
   2   8  -7 33.2010 3.08717   4
   2   8  -7 30.9565 2.64391   6
  -2  -8   7 28.1775 3.17646   3
  -2  -8   7 28.8448 2.61565   6
  -2  -8   7 27.4668 3.02380   5
   1   8  -7 2.49188 0.74957   6
   1   8  -7 2.32480 1.05956   1
   1   8  -7 1.56738 1.26682   4
  -1  -8   7 1.06155 0.65783   6
  -1  -8   7 2.61432 0.99782   5
  -1  -8   7 0.71546 0.85311   3
   0   8  -7 0.82190 0.59834   8
   0   8  -7 1.92622 1.02528   1
   0   8  -7 1.57694 1.00827   4
   0  -8   7 1.54318 0.64922   6
   0  -8   7 1.86432 0.91133   5
   0  -8   7 3.28688 1.14259   3
  -1   8  -7 35.6647 3.14948   4
  -1   8  -7 35.3362 2.56637   8
  -1   8  -7 36.1333 2.81417   1
  -1   8  -7 38.3080 3.16160   9
   1  -8   7 34.1761 2.99031   3
   1  -8   7 31.0683 2.76837   5
  -2   8  -7 31.6350 2.49974   8
  -2   8  -7 35.3252 3.23871   4
   2  -8   7 33.6084 2.87412   3
   2  -8   7 33.8231 2.74822   5
  -3   8  -7 2.88703 1.40055   4
  -3   8  -7 5.66824 1.21961   8
   3  -8   7 5.42234 1.25366   5
   3  -8   7 5.92580 1.43231   3
  -4   8  -7 70.8840 5.16791   4
  -4   8  -7 84.0817 4.93269   8
   4  -8   7 95.5293 5.56410   3
   4  -8   7 75.1240 4.92866   5
  -5   8  -7 0.30593 0.58572   8
  -5   8  -7 0.13992 0.71047   4
   5  -8   7 0.80891 0.70591   3
   5  -8   7 0.00911 0.57202   5
   5  -8   7 0.75076 0.53930   7
  -6   8  -7 2.48264 1.13957   2
  -6   8  -7 4.07651 1.25902   4
  -6   8  -7 4.05713 1.08970   8
   6  -8   7 4.91290 1.28093   7
   6  -8   7 4.19844 1.45571   3
   6  -8   7 4.03269 1.06726   5
  -7   8  -7 23.3859 2.75174   8
  -7   8  -7 15.6043 2.45616   2
   7  -8   7 17.8272 2.50739   7
   7  -8   7 15.7996 2.52817   3
   5   7  -7 0.41275 0.66705   6
   5   7  -7 0.22684 0.91892   4
   5   7  -7 -0.3632 1.16630   1
  -5  -7   7 -0.8857 0.53799   6
  -5  -7   7 -0.5109 0.85551   5
  -5  -7   7 0.73722 0.77757   3
   4   7  -7 6.53111 1.55903   1
   4   7  -7 7.25183 1.66653   4
   4   7  -7 8.03521 1.65357   6
  -4  -7   7 6.84548 1.62266   6
  -4  -7   7 6.16293 1.42290   5
  -4  -7   7 6.73676 1.49505   3
   3   7  -7 7.93045 1.75316   1
   3   7  -7 6.80483 1.68960   4
   3   7  -7 9.53111 1.68820   6
  -3  -7   7 6.28119 1.40842   3
  -3  -7   7 8.10601 1.60241   6
  -3  -7   7 8.01126 1.61216   5
   2   7  -7 0.63096 0.98418   4
   2   7  -7 0.42337 0.59960   1
  -2  -7   7 0.45515 0.73249   3
  -2  -7   7 0.02620 0.43329   6
  -2  -7   7 1.30101 0.78737   5
   1   7  -7 12.0461 1.61273   8
   1   7  -7 11.3317 1.93699   4
   1   7  -7 8.09813 1.59821   1
  -1  -7   7 8.71001 1.57210   3
  -1  -7   7 8.74104 1.48732   6
  -1  -7   7 12.2619 1.81911   5
   0   7  -7 7.18775 1.55076   9
   0   7  -7 8.33163 1.21464   8
   0   7  -7 8.63839 1.51494   1
   0   7  -7 8.66746 1.76485   4
   0  -7   7 8.29216 1.46118   5
   0  -7   7 8.92886 1.34078   6
   0  -7   7 7.63697 1.44343   3
  -1   7  -7 6.23591 1.26538   1
  -1   7  -7 8.27390 1.54680   9
  -1   7  -7 6.87108 1.49745   4
  -1   7  -7 8.43508 1.26230   8
   1  -7   7 8.43761 1.53650   3
   1  -7   7 7.71381 1.22955   6
   1  -7   7 7.37227 1.46356   5
  -2   7  -7 -0.9992 0.83045   4
  -2   7  -7 0.03008 0.41609   8
   2  -7   7 0.75362 0.54105   5
   2  -7   7 0.30508 0.66441   3
  -3   7  -7 16.8366 1.96590   8
  -3   7  -7 19.5175 2.51332   4
   3  -7   7 21.0808 2.35904   5
   3  -7   7 23.6904 2.58681   3
  -4   7  -7 3.36498 0.98179   8
  -4   7  -7 5.67617 1.18110   2
  -4   7  -7 5.65665 1.38524   4
   4  -7   7 3.92024 1.02749   5
   4  -7   7 3.02030 0.90120   7
   4  -7   7 2.64212 1.02851   3
  -5   7  -7 4.29751 1.11317   2
  -5   7  -7 1.80959 0.78042   8
  -5   7  -7 2.70366 1.05304   4
   5  -7   7 2.53332 0.97127   3
   5  -7   7 4.82882 1.09312   7
   5  -7   7 4.06612 1.03520   5
  -6   7  -7 1.00455 0.65986   4
  -6   7  -7 1.12212 0.79262   8
  -6   7  -7 1.61517 0.96651   2
   6  -7   7 1.74966 0.84691   5
   6  -7   7 1.28590 0.74166   7
   6  -7   7 -0.0105 0.58872   3
  -7   7  -7 9.21304 1.82085   2
  -7   7  -7 11.7570 1.89692   8
   7  -7   7 14.2002 2.15720   7
   7  -7   7 14.7284 2.07319   5
   7  -7   7 13.6147 2.24106   3
  -8   7  -7 32.9012 4.03494   8
  -8   7  -7 34.9953 3.83531   2
   8  -7   7 38.5903 3.51569   7
   8  -7   7 40.7626 4.65511   3
   5   6  -7 0.90464 0.92550   6
   5   6  -7 0.59306 0.80431   4
   5   6  -7 0.61587 0.85460   1
  -5  -6   7 0.41194 0.79447   3
  -5  -6   7 0.38252 0.92405   6
  -5  -6   7 -0.1553 0.54736   5
   4   6  -7 5.08433 1.38690   4
   4   6  -7 3.23267 1.35147   1
   4   6  -7 4.58475 1.23244   6
  -4  -6   7 2.46044 1.01865   3
  -4  -6   7 2.73154 1.12598   5
  -4  -6   7 3.68485 1.16335   6
   3   6  -7 2.83805 0.98524   1
   3   6  -7 4.17576 1.34937   4
  -3  -6   7 5.75475 1.30708   6
  -3  -6   7 4.23365 1.17368   3
  -3  -6   7 5.28773 1.36219   5
   2   6  -7 6.98737 1.43312   1
   2   6  -7 9.73208 1.77181   4
  -2  -6   7 8.24928 1.45272   5
  -2  -6   7 7.61517 1.42235   3
  -2  -6   7 8.58047 1.52432   6
   1   6  -7 13.7896 1.99072   4
   1   6  -7 10.0239 1.67369   1
   1   6  -7 13.4979 2.16473   9
   1   6  -7 10.3996 1.30724   8
  -1  -6   7 12.4887 1.70097   6
  -1  -6   7 11.9019 1.67552   3
  -1  -6   7 10.2396 1.63618   5
   0   6  -7 27.9283 2.52526   4
   0   6  -7 31.0769 2.71420   9
   0   6  -7 27.6738 2.08456   8
   0   6  -7 31.9725 2.45605   1
   0  -6   7 24.6892 2.23356   3
   0  -6   7 28.0685 2.25746   6
   0  -6   7 30.0902 2.46425   5
  -1   6  -7 -0.9187 0.66821   4
  -1   6  -7 -0.0072 0.58861   9
  -1   6  -7 0.39244 0.49709   8
  -1   6  -7 0.14375 0.53327   1
   1  -6   7 -0.0221 0.59450   5
   1  -6   7 0.10479 0.37348   3
   1  -6   7 -0.2330 0.27857   6
  -2   6  -7 7.28786 1.17599   1
  -2   6  -7 7.23506 1.19015   8
  -2   6  -7 8.18915 1.55781   4
  -2   6  -7 9.10554 1.45986   9
   2  -6   7 6.78507 1.24725   5
   2  -6   7 8.42916 1.16983   6
   2  -6   7 7.88188 1.40058   3
  -3   6  -7 3.66458 0.88359   2
  -3   6  -7 4.42477 0.92983   8
  -3   6  -7 4.96575 1.21157   4
   3  -6   7 4.09986 1.00418   3
   3  -6   7 3.77369 1.03817   5
  -4   6  -7 20.8110 2.22543   2
  -4   6  -7 17.5510 2.01807   8
  -4   6  -7 21.2510 2.49025   4
   4  -6   7 19.9784 2.09500   7
   4  -6   7 20.9862 2.39631   3
   4  -6   7 21.3752 2.27957   5
  -5   6  -7 31.0028 2.47463   8
  -5   6  -7 32.8273 2.67335   4
  -5   6  -7 32.5291 2.70342   2
   5  -6   7 34.4125 2.63693   5
   5  -6   7 29.1336 2.52339   7
   5  -6   7 33.5078 2.76344   3
  -6   6  -7 5.95169 1.20576   8
  -6   6  -7 3.82847 1.22893   2
  -6   6  -7 3.37130 1.06206   4
   6  -6   7 4.17341 1.24875   3
   6  -6   7 4.55075 1.13093   7
   6  -6   7 5.27748 1.20155   5
  -7   6  -7 13.4106 1.95841   8
  -7   6  -7 12.4378 2.10961   2
   7  -6   7 11.2134 1.93163   3
   7  -6   7 9.40048 1.76527   7
   7  -6   7 12.3781 1.86365   5
  -8   6  -7 6.97826 1.73156   2
  -8   6  -7 4.76033 1.34621   8
   8  -6   7 2.66123 1.14907   3
   8  -6   7 3.28512 1.22019   5
   8  -6   7 5.46529 1.57727   7
   6   5  -7 5.66043 1.64649   1
   6   5  -7 2.90459 1.42442   4
   6   5  -7 2.96021 1.23103   6
  -6  -5   7 3.98491 1.16944   5
  -6  -5   7 3.73477 1.33637   6
   5   5  -7 15.5043 2.57056   1
   5   5  -7 12.1646 1.97706   6
   5   5  -7 15.1347 2.43156   4
  -5  -5   7 15.1507 2.18028   6
  -5  -5   7 13.9383 2.11186   5
   4   5  -7 4.69285 1.35068   1
   4   5  -7 7.41648 1.63965   4
  -4  -5   7 6.61490 1.44810   5
  -4  -5   7 5.83859 1.30604   6
  -4  -5   7 4.19205 1.15812   3
   3   5  -7 0.02746 0.48036   1
   3   5  -7 0.30503 0.58152   4
  -3  -5   7 -0.2537 0.60268   3
  -3  -5   7 -0.3195 0.38609   5
  -3  -5   7 0.11666 0.58772   6
   2   5  -7 11.2930 1.95173   9
   2   5  -7 9.41209 1.61230   1
   2   5  -7 7.58900 1.47887   4
   2   5  -7 9.36040 1.21914   8
  -2  -5   7 9.35056 1.48397   3
  -2  -5   7 7.58888 1.44590   6
  -2  -5   7 9.13431 1.52241   5
   1   5  -7 193.040 9.16582   8
   1   5  -7 187.690 9.71353   1
   1   5  -7 186.958 9.83950   4
   1   5  -7 196.403 10.2261   9
  -1  -5   7 182.762 9.58876   5
  -1  -5   7 181.392 9.46511   3
  -1  -5   7 193.401 9.57891   6
   0   5  -7 0.47800 0.54134   4
   0   5  -7 0.07430 0.59915   9
   0   5  -7 0.68597 0.50962   8
   0   5  -7 0.38488 0.44496   1
   0  -5   7 0.31105 0.44048   5
   0  -5   7 0.08591 0.48699   6
   0  -5   7 -0.4387 0.35861   3
  -1   5  -7 253.529 11.3084   9
  -1   5  -7 221.578 10.7690   1
  -1   5  -7 235.592 10.6661   8
  -1   5  -7 213.554 11.0510   4
   1  -5   7 221.518 10.7490   6
   1  -5   7 208.591 10.8941   5
   1  -5   7 195.096 10.7349   3
  -2   5  -7 -0.1546 0.33061   2
  -2   5  -7 -0.5084 0.33952   9
  -2   5  -7 0.14737 0.35207   1
  -2   5  -7 -0.0440 0.46668   8
  -2   5  -7 1.00556 0.66132   4
   2  -5   7 0.75143 0.44599   6
   2  -5   7 -0.2525 0.31134   5
   2  -5   7 0.54884 0.40796   3
  -3   5  -7 -0.3646 0.68511   4
  -3   5  -7 -0.0653 0.46430   8
  -3   5  -7 -0.0298 0.42710   2
   3  -5   7 -0.4683 0.38700   3
   3  -5   7 0.33399 0.35847   6
   3  -5   7 -0.3082 0.28302   5
   3  -5   7 0.59649 0.43510   7
  -4   5  -7 17.9828 1.97574   2
  -4   5  -7 18.6062 1.96163   8
  -4   5  -7 16.1873 2.01036   4
   4  -5   7 16.5502 1.82402   7
   4  -5   7 17.1181 2.00406   3
   4  -5   7 17.2795 1.97622   5
  -5   5  -7 33.0463 2.68292   2
  -5   5  -7 32.8855 2.53729   8
  -5   5  -7 32.4525 2.64663   4
   5  -5   7 32.4665 2.53547   5
   5  -5   7 35.5190 2.66145   7
   5  -5   7 38.3609 2.88975   3
  -6   5  -7 0.42662 0.63679   8
  -6   5  -7 0.12924 0.63857   2
  -6   5  -7 0.44192 0.68493   7
   6  -5   7 -0.1674 0.57772   5
   6  -5   7 -0.3170 0.53210   7
   6  -5   7 0.08784 0.53311   3
  -7   5  -7 2.49939 0.96922   2
  -7   5  -7 6.59667 1.32205   8
  -7   5  -7 8.64955 1.78748   7
   7  -5   7 4.58331 1.12193   5
   7  -5   7 6.28990 1.35448   7
   7  -5   7 4.69989 1.25953   3
  -8   5  -7 2.97885 1.10179   8
  -8   5  -7 1.73604 1.17861   2
  -8   5  -7 2.95959 1.19029   7
   8  -5   7 2.36545 0.97006   7
   8  -5   7 1.77210 0.98925   5
   8  -5   7 2.62300 1.10545   3
  -9   5  -7 5.18327 1.62029   7
  -9   5  -7 12.8185 2.25926   2
  -9   5  -7 7.56876 1.67439   8
   9  -5   7 10.1773 2.02335   7
   9  -5   7 10.2480 1.78532   5
   9  -5   7 11.3108 2.17295   3
   6   4  -7 0.83626 1.01233   4
   6   4  -7 -0.0379 1.15685   1
   6   4  -7 0.57854 0.64268   6
  -6  -4   7 0.20243 0.57125   5
  -6  -4   7 0.63928 0.75088   6
   5   4  -7 0.53750 1.05903   1
   5   4  -7 0.90827 0.95754   4
  -5  -4   7 1.89003 0.84523   5
  -5  -4   7 1.20067 0.87945   6
   4   4  -7 1.75235 1.00342   4
   4   4  -7 2.62194 0.99366   1
  -4  -4   7 2.19027 0.96867   1
  -4  -4   7 1.85497 0.87159   3
  -4  -4   7 2.77800 0.89851   5
  -4  -4   7 2.88405 0.95604   6
   3   4  -7 17.6071 2.37265   4
   3   4  -7 18.1044 2.36611   1
   3   4  -7 13.6824 1.54152   8
  -3  -4   7 13.9181 1.97280   6
  -3  -4   7 13.1344 1.86462   5
  -3  -4   7 15.4205 1.86138   3
  -3  -4   7 19.4372 2.48225   1
   2   4  -7 25.3904 2.27749   1
   2   4  -7 28.8825 1.92056   8
   2   4  -7 23.0132 2.55374   9
   2   4  -7 25.9757 2.41792   4
  -2  -4   7 23.7291 2.10154   5
  -2  -4   7 18.6627 1.85257   3
  -2  -4   7 18.7842 2.20638   6
  -2  -4   7 23.6841 2.28343   1
   1   4  -7 12.8871 1.40855   8
   1   4  -7 11.1669 1.66393   1
   1   4  -7 13.8636 2.06345   9
   1   4  -7 11.3346 1.70653   4
  -1  -4   7 13.6335 1.61673   3
  -1  -4   7 12.7311 1.68818   6
  -1  -4   7 15.7349 1.85115   5
  -1  -4   7 15.4400 1.95691   1
   0   4  -7 9.78934 1.16931   8
   0   4  -7 8.28701 1.32515   1
   0   4  -7 10.5886 1.52347   4
   0   4  -7 11.7443 1.71250   9
   0  -4   7 8.35043 1.23322   3
   0  -4   7 9.58172 1.46377   1
   0  -4   7 9.44226 1.37656   6
   0  -4   7 8.10486 1.35176   5
  -1   4  -7 9.72542 1.44571   4
  -1   4  -7 11.2523 1.58844   9
  -1   4  -7 10.0277 1.35363   1
  -1   4  -7 11.4626 1.13656   2
  -1   4  -7 9.50195 1.22460   8
   1  -4   7 9.26589 1.35079   5
   1  -4   7 9.71849 1.34787   6
   1  -4   7 11.3273 1.38107   3
   1  -4   7 11.5276 1.48737   1
  -2   4  -7 0.98513 0.46353   1
  -2   4  -7 1.41001 0.64341   4
  -2   4  -7 1.32020 0.54249   9
  -2   4  -7 0.32638 0.34326   2
  -2   4  -7 0.31965 0.50004   8
   2  -4   7 1.43484 0.58772   3
   2  -4   7 0.27911 0.41365   6
   2  -4   7 2.17316 0.73096   5
  -3   4  -7 13.1326 1.43376   8
  -3   4  -7 10.9313 1.37826   2
  -3   4  -7 13.8788 1.75620   4
   3  -4   7 11.9661 1.50541   5
   3  -4   7 12.3445 1.13946   7
   3  -4   7 9.56698 1.24957   6
   3  -4   7 12.9126 1.56404   3
  -4   4  -7 212.308 10.4703   7
  -4   4  -7 204.179 10.3472   4
  -4   4  -7 205.004 10.3425   2
  -4   4  -7 207.461 10.2453   8
   4  -4   7 211.240 10.0516   6
   4  -4   7 213.332 10.3999   5
   4  -4   7 211.692 10.4660   3
   4  -4   7 220.252 10.2874   7
  -5   4  -7 3.86445 1.07583   7
  -5   4  -7 6.24490 1.23986   2
  -5   4  -7 4.19157 0.89150   8
  -5   4  -7 5.53716 1.16393   4
   5  -4   7 4.97980 1.03985   5
   5  -4   7 4.20295 1.07441   3
   5  -4   7 4.42750 1.02587   7
  -6   4  -7 12.8654 1.97991   7
  -6   4  -7 11.8277 1.58436   8
  -6   4  -7 10.1708 1.63814   2
   6  -4   7 10.1162 1.66022   7
   6  -4   7 13.1077 1.71313   5
   6  -4   7 13.7039 1.92474   3
  -7   4  -7 3.26119 1.15090   7
  -7   4  -7 5.10867 1.12112   8
  -7   4  -7 2.25412 0.92851   2
   7  -4   7 4.24388 1.12692   3
   7  -4   7 3.40251 1.07002   7
   7  -4   7 1.78320 0.86421   5
  -8   4  -7 -0.2192 0.52442   7
  -8   4  -7 0.21009 0.60241   8
  -8   4  -7 -0.2228 0.80820   2
   8  -4   7 0.18340 0.89934   3
   8  -4   7 0.50586 0.60927   5
   8  -4   7 0.00153 0.65199   7
  -9   4  -7 18.9318 2.85893   2
  -9   4  -7 19.2701 3.10324   7
  -9   4  -7 14.0747 2.17517   8
   9  -4   7 19.0004 2.85363   7
   9  -4   7 18.4641 2.42450   5
   9  -4   7 19.4928 2.66725   3
   6   3  -7 7.13648 1.61717   4
   6   3  -7 6.35719 1.39379   6
   6   3  -7 5.86925 1.64552   1
  -6  -3   7 7.16522 1.46216   5
  -6  -3   7 4.49943 1.66682   1
  -6  -3   7 5.35047 1.32775   6
   5   3  -7 0.99862 0.74914   1
   5   3  -7 0.19390 0.77745   4
  -5  -3   7 0.03315 0.59155   1
  -5  -3   7 0.01869 0.42847   6
  -5  -3   7 0.08847 0.49979   5
   4   3  -7 12.7213 2.08028   4
   4   3  -7 12.8008 2.10315   1
   4   3  -7 14.1845 1.59128   8
  -4  -3   7 9.91260 1.69156   6
  -4  -3   7 11.1999 1.66809   5
  -4  -3   7 11.6583 2.11157   1
   3   3  -7 3.28443 1.22698   9
   3   3  -7 4.13093 1.26172   1
   3   3  -7 3.72135 0.79119   8
   3   3  -7 6.70480 1.46618   4
  -3  -3   7 3.51701 0.87733   3
  -3  -3   7 3.27644 0.87471   5
  -3  -3   7 3.26215 0.89368   6
  -3  -3   7 3.26763 1.16521   1
   2   3  -7 0.04331 0.27721   8
   2   3  -7 0.05012 0.41096   4
   2   3  -7 -0.0316 0.57579   1
   2   3  -7 0.71590 0.80039   9
  -2  -3   7 -0.1879 0.31050   5
  -2  -3   7 0.56746 0.72329   1
  -2  -3   7 -0.3398 0.28834   6
  -2  -3   7 0.33167 0.39990   3
   1   3  -7 305.882 14.0001   8
   1   3  -7 297.401 14.5135   1
   1   3  -7 304.326 15.0268   9
   1   3  -7 296.292 14.6093   4
  -1  -3   7 280.120 13.9823   3
  -1  -3   7 297.889 14.2714   5
  -1  -3   7 313.496 14.6654   1
  -1  -3   7 305.825 14.3634   6
   0   3  -7 33.3775 2.67867   9
   0   3  -7 30.2850 2.32623   1
   0   3  -7 31.7018 2.12090   8
   0   3  -7 32.7513 2.51566   4
   0   3  -7 33.3761 1.98845   2
   0  -3   7 30.7558 2.10946   3
   0  -3   7 29.2276 2.24937   5
   0  -3   7 29.3985 2.27771   6
   0  -3   7 31.2883 2.40417   1
  -1   3  -7 206.414 10.1037   1
  -1   3  -7 215.724 9.73676   2
  -1   3  -7 217.105 10.3334   4
  -1   3  -7 206.574 10.4528   9
  -1   3  -7 207.625 9.91466   8
   1  -3   7 195.386 9.89292   3
   1  -3   7 204.285 10.1073   6
   1  -3   7 205.586 10.1502   5
   1  -3   7 214.665 10.1970   1
  -2   3  -7 174.149 8.71933   1
  -2   3  -7 186.845 8.71908   2
  -2   3  -7 188.102 9.04724   4
  -2   3  -7 185.424 8.79735   8
  -2   3  -7 186.195 9.05466   9
   2  -3   7 171.094 8.84707   6
   2  -3   7 178.771 8.95775   5
   2  -3   7 184.831 8.43544   7
   2  -3   7 173.689 8.79418   3
   2  -3   7 186.566 8.81660   1
  -3   3  -7 14.4323 1.28116   7
  -3   3  -7 14.0981 1.23193   9
  -3   3  -7 12.9736 1.06181   1
  -3   3  -7 12.6173 1.42287   2
  -3   3  -7 13.9809 1.48031   8
  -3   3  -7 11.9018 1.50186   4
   3  -3   7 11.7125 1.42402   3
   3  -3   7 11.5796 1.45087   5
   3  -3   7 12.7153 1.42070   6
   3  -3   7 11.5375 1.09730   7
  -4   3  -7 61.1127 3.47994   7
  -4   3  -7 50.5611 3.21891   4
  -4   3  -7 54.9181 3.30482   2
  -4   3  -7 49.6735 3.14850   8
   4  -3   7 52.2014 3.09541   6
   4  -3   7 49.0077 3.22757   3
   4  -3   7 53.6186 3.20645   7
   4  -3   7 48.2258 3.23586   5
  -5   3  -7 17.2326 1.95211   2
  -5   3  -7 14.2051 1.88664   7
  -5   3  -7 18.5836 1.60529   4
  -5   3  -7 12.6973 1.54677   8
   5  -3   7 13.1788 1.71123   3
   5  -3   7 14.1852 1.31172   6
   5  -3   7 16.1644 1.82715   5
   5  -3   7 15.6991 1.83584   7
  -6   3  -7 171.669 8.57134   8
  -6   3  -7 169.906 9.14165   7
  -6   3  -7 171.900 8.93564   2
   6  -3   7 170.311 8.88275   3
   6  -3   7 171.046 8.89062   7
   6  -3   7 162.972 8.65181   5
  -7   3  -7 17.1431 1.89947   8
  -7   3  -7 12.1836 2.02916   7
  -7   3  -7 12.2856 1.95070   2
   7  -3   7 13.1939 1.95463   3
   7  -3   7 14.2896 2.03215   7
   7  -3   7 10.4328 1.69911   5
  -8   3  -7 2.90332 0.92775   8
  -8   3  -7 0.39589 0.79723   2
  -8   3  -7 1.63377 0.89921   7
   8  -3   7 1.01417 0.90235   5
   8  -3   7 1.52165 0.83091   3
   8  -3   7 1.77867 0.88975   7
  -9   3  -7 9.52944 1.64187   8
  -9   3  -7 11.1110 2.21666   7
  -9   3  -7 9.08568 2.00315   2
   9  -3   7 11.1211 2.04967   7
   9  -3   7 11.4720 2.10337   3
   9  -3   7 10.1941 1.80233   5
   7   2  -7 1.17849 0.91362   1
   7   2  -7 1.15575 0.90325   6
   7   2  -7 -0.3770 0.98761   4
  -7  -2   7 0.16841 0.79866   6
  -7  -2   7 1.72747 0.86573   5
  -7  -2   7 -0.0725 0.76081   1
   6   2  -7 27.0904 2.43818   6
   6   2  -7 18.4243 2.76190   4
   6   2  -7 18.9790 2.78559   1
  -6  -2   7 22.7968 2.49544   5
  -6  -2   7 24.7118 2.81207   6
  -6  -2   7 24.1714 3.11876   1
   5   2  -7 -0.5448 0.70781   1
   5   2  -7 -0.2949 0.72152   4
  -5  -2   7 0.28032 0.87321   1
  -5  -2   7 0.14796 0.48783   6
  -5  -2   7 -0.8837 0.43016   5
   4   2  -7 7.07540 1.18445   8
   4   2  -7 8.10904 1.66864   4
   4   2  -7 7.19432 1.51956   1
  -4  -2   7 5.63437 1.42254   1
  -4  -2   7 7.09414 1.37364   6
  -4  -2   7 6.50483 1.23999   5
   3   2  -7 5.45525 1.55673   9
   3   2  -7 3.76016 1.12001   4
   3   2  -7 2.74128 0.75056   8
   3   2  -7 4.53446 1.18348   1
  -3  -2   7 2.23832 1.04617   1
  -3  -2   7 4.43763 1.00784   6
  -3  -2   7 3.35782 0.90628   5
  -3  -2   7 3.08746 1.16970   9
   2   2  -7 19.3690 2.32851   4
   2   2  -7 17.4966 2.44549   9
   2   2  -7 20.8748 1.67566   8
   2   2  -7 20.8754 1.99946   1
  -2  -2   7 19.1972 1.71664   5
  -2  -2   7 20.5788 2.74676   9
  -2  -2   7 17.8737 1.55701   3
  -2  -2   7 20.7393 2.05497   1
  -2  -2   7 16.2121 1.90691   6
   1   2  -7 136.953 6.20112   2
   1   2  -7 129.777 7.44010   9
   1   2  -7 126.988 6.99171   1
   1   2  -7 125.642 6.51872   8
   1   2  -7 130.768 7.11006   4
  -1  -2   7 136.068 6.76140   5
  -1  -2   7 134.196 6.85694   6
  -1  -2   7 127.210 7.53554   9
  -1  -2   7 127.886 7.08786   1
  -1  -2   7 124.123 6.41053   3
   0   2  -7 1.03245 0.53970   4
   0   2  -7 0.91133 0.36087   2
   0   2  -7 0.91383 0.45955   1
   0   2  -7 1.52787 0.46846   8
   0   2  -7 0.83377 0.63188   9
   0  -2   7 1.53323 0.78017   9
   0  -2   7 1.22011 0.48534   5
   0  -2   7 0.82976 0.46846   1
   0  -2   7 1.63616 0.66446   6
   0  -2   7 0.88070 0.39678   3
  -1   2  -7 52.5486 2.78230   2
  -1   2  -7 49.2930 2.88445   8
  -1   2  -7 46.5373 3.01595   1
  -1   2  -7 53.6553 3.20844   4
  -1   2  -7 50.2053 3.37010   9
   1  -2   7 47.1020 2.76991   3
   1  -2   7 47.2128 3.04198   6
   1  -2   7 45.8529 2.98485   5
   1  -2   7 49.0380 3.11144   1
   1  -2   7 50.2175 3.43913   9
  -2   2  -7 50.1445 2.82450   7
  -2   2  -7 56.0761 3.10172   8
  -2   2  -7 48.6776 3.03842   1
  -2   2  -7 52.2565 3.32374   9
  -2   2  -7 58.2026 3.09418   2
  -2   2  -7 56.2464 3.26284   4
   2  -2   7 53.3875 3.21171   5
   2  -2   7 55.2768 3.06040   3
   2  -2   7 54.5897 3.15471   1
   2  -2   7 52.9519 3.40491   9
   2  -2   7 53.1709 3.21972   6
   2  -2   7 53.7231 2.77672   7
  -3   2  -7 7.15967 1.03141   4
  -3   2  -7 7.37196 0.98805   8
  -3   2  -7 7.83850 0.89614   1
  -3   2  -7 5.56588 0.88309   9
  -3   2  -7 7.64405 1.01401   7
  -3   2  -7 5.50747 0.91968   2
   3  -2   7 7.93469 1.05185   3
   3  -2   7 6.89259 0.91127   7
   3  -2   7 7.57285 1.09073   5
   3  -2   7 5.23536 0.93296   6
   3  -2   7 8.01375 0.94656   1
  -4   2  -7 145.306 7.30341   2
  -4   2  -7 135.430 7.04171   4
  -4   2  -7 143.815 7.11157   8
  -4   2  -7 144.765 7.35279   7
   4  -2   7 143.755 7.13548   6
   4  -2   7 143.730 7.24447   5
   4  -2   7 146.572 7.25464   3
   4  -2   7 139.880 7.15523   7
  -5   2  -7 82.5178 4.76994   2
  -5   2  -7 86.8438 4.58457   8
  -5   2  -7 87.4035 5.00475   7
  -5   2  -7 78.3012 4.38147   4
   5  -2   7 86.8627 4.78062   3
   5  -2   7 77.6654 4.59994   5
   5  -2   7 81.4467 4.46581   6
  -6   2  -7 179.531 8.78208   8
  -6   2  -7 167.924 9.31383   7
  -6   2  -7 178.336 9.14662   2
   6  -2   7 184.310 8.67289   6
   6  -2   7 176.893 8.90141   5
   6  -2   7 167.224 9.03389   3
  -7   2  -7 12.1585 1.54994   8
  -7   2  -7 12.1052 1.83455   2
  -7   2  -7 11.2862 1.96540   7
   7  -2   7 9.71597 1.63972   3
   7  -2   7 9.89294 1.55555   5
  -8   2  -7 7.54410 1.27131   8
  -8   2  -7 3.86323 1.28637   2
  -8   2  -7 4.27904 1.46355   7
   8  -2   7 3.07925 1.17025   3
   8  -2   7 6.77068 1.53220   7
   8  -2   7 5.95074 1.25492   5
  -9   2  -7 4.39481 1.14622   8
  -9   2  -7 5.75873 1.58645   2
  -9   2  -7 3.73360 1.42335   7
   9  -2   7 3.36006 1.38353   7
   9  -2   7 2.37180 0.96745   5
   9  -2   7 5.24764 1.56988   3
  10  -2   7 6.24966 1.47310   5
   7   1  -7 5.11446 1.30312   6
   7   1  -7 3.56946 1.31423   1
   7   1  -7 3.80590 1.65470   4
  -7  -1   7 3.49923 1.23286   1
  -7  -1   7 6.93904 1.50588   6
   6   1  -7 4.77782 1.54418   4
   6   1  -7 9.08595 1.82422   1
  -6  -1   7 8.40867 1.83933   1
  -6  -1   7 4.70320 1.10744   5
  -6  -1   7 7.10130 1.44238   6
   5   1  -7 15.7277 2.35288   1
   5   1  -7 19.8149 2.71223   4
   5   1  -7 18.5143 2.07631   8
  -5  -1   7 14.7698 2.08915   6
  -5  -1   7 16.9198 2.01165   5
  -5  -1   7 15.0801 2.37348   1
   4   1  -7 6.56745 1.17203   8
   4   1  -7 6.19008 1.49723   4
   4   1  -7 2.86453 0.94498   1
  -4  -1   7 5.98193 1.41617   1
  -4  -1   7 3.44312 0.90383   5
  -4  -1   7 4.33154 1.09582   6
   3   1  -7 5.19853 1.27691   4
   3   1  -7 3.67985 1.10679   1
   3   1  -7 5.10605 1.40689   9
   3   1  -7 4.03859 0.85856   8
  -3  -1   7 5.05254 1.00313   5
  -3  -1   7 5.80645 1.43892   1
  -3  -1   7 5.80809 1.48241   9
  -3  -1   7 5.45319 1.11323   6
   2   1  -7 6.46131 0.82250   2
   2   1  -7 6.63499 1.32434   4
   2   1  -7 6.87167 1.07679   8
   2   1  -7 5.17483 1.36630   9
  -2  -1   7 6.15936 1.30550   1
  -2  -1   7 7.15555 1.11994   5
  -2  -1   7 6.20673 1.18460   6
  -2  -1   7 6.63910 1.60099   9
   1   1  -7 42.1381 3.33953   9
   1   1  -7 41.0090 2.39067   2
   1   1  -7 46.8868 2.74867   8
   1   1  -7 40.6300 3.06006   4
  -1  -1   7 43.5804 3.15427   1
  -1  -1   7 45.6589 3.50672   9
  -1  -1   7 42.1167 2.44838   3
  -1  -1   7 44.7479 2.74844   5
  -1  -1   7 42.7524 2.88594   6
   0   1  -7 16.8811 1.44275   8
   0   1  -7 18.3090 1.72577   4
   0   1  -7 17.0341 1.84791   9
   0   1  -7 19.5790 1.33530   2
   0  -1   7 17.5616 1.70092   1
   0  -1   7 19.8844 1.54954   5
   0  -1   7 18.3945 1.28066   3
   0  -1   7 20.5544 2.04164   9
   0  -1   7 18.8760 1.66654   6
  -1   1  -7 17.3221 1.39762   8
  -1   1  -7 14.3496 1.64302   9
  -1   1  -7 16.8933 1.28845   2
  -1   1  -7 18.1579 1.58244   4
   1  -1   7 16.9372 1.50288   6
   1  -1   7 17.4663 1.22655   3
   1  -1   7 20.5376 1.50743   5
   1  -1   7 19.0720 1.87403   9
   1  -1   7 15.0991 1.52482   1
  -2   1  -7 5.14459 0.77401   8
  -2   1  -7 4.78057 0.67285   7
  -2   1  -7 5.57655 0.91440   4
  -2   1  -7 4.21813 0.71591   2
  -2   1  -7 4.97763 0.97885   9
   2  -1   7 4.71606 0.91920   6
   2  -1   7 4.48498 0.79868   5
   2  -1   7 3.92586 0.78122   1
   2  -1   7 4.53939 0.69347   3
   2  -1   7 3.51763 0.87191   9
  -3   1  -7 17.4823 1.39972   8
  -3   1  -7 20.3103 1.54947   9
  -3   1  -7 13.9688 1.32144   2
  -3   1  -7 17.0497 1.40455   7
  -3   1  -7 14.4748 1.28705   9
  -3   1  -7 18.0784 1.40496   4
   3  -1   7 17.2808 1.35892   3
   3  -1   7 15.0828 1.40703   5
   3  -1   7 18.5435 1.53042   9
   3  -1   7 16.4318 1.31520   1
   3  -1   7 17.0768 1.48461   6
  -4   1  -7 46.9782 2.82608   8
  -4   1  -7 44.9109 2.74682   4
  -4   1  -7 53.8099 3.30279   9
  -4   1  -7 50.0505 3.13016   7
  -4   1  -7 43.5537 2.93593   2
   4  -1   7 49.3929 2.96854   3
   4  -1   7 48.0902 2.71462   9
   4  -1   7 46.5145 2.92054   6
   4  -1   7 49.1723 3.00160   5
  -5   1  -7 48.1720 2.89885   8
  -5   1  -7 47.0445 3.30123   7
  -5   1  -7 48.1460 3.14865   2
   5  -1   7 48.1886 3.11314   3
   5  -1   7 44.8981 3.00532   5
   5  -1   7 49.5401 2.97253   6
  -6   1  -7 1.60911 0.81475   7
  -6   1  -7 0.39001 0.48419   8
  -6   1  -7 1.22504 0.58127   2
   6  -1   7 1.84644 0.73085   5
   6  -1   7 1.75909 0.63479   6
   6  -1   7 1.78749 0.70913   3
  -7   1  -7 1.81609 0.65111   8
  -7   1  -7 1.28824 0.90373   7
  -7   1  -7 2.51339 0.91012   2
   7  -1   7 2.15434 0.72933   6
   7  -1   7 1.48335 0.71314   5
   7  -1   7 1.86606 0.80013   3
  -8   1  -7 3.42069 1.16484   2
  -8   1  -7 4.73286 1.54830   7
  -8   1  -7 8.61976 1.30089   8
   8  -1   7 5.88011 1.34252   5
   8  -1   7 5.02712 1.23477   3
  -9   1  -7 2.16089 0.95132   2
  -9   1  -7 4.26040 1.46877   7
  -9   1  -7 2.72271 0.88840   8
   9  -1   7 2.72666 0.98075   5
   9  -1   7 1.20715 0.87868   3
 -10   1  -7 8.93977 2.08490   7
 -10   1  -7 11.9744 2.30074   2
  10  -1   7 6.75759 1.80127   3
  10  -1   7 8.14130 1.62002   5
  10  -1   7 8.23524 1.90352   7
   7   0  -7 5.65474 1.53962   1
   7   0  -7 4.14008 1.45655   4
   7   0  -7 5.09691 1.31483   6
  -7   0   7 4.02945 1.27124   6
  -7   0   7 3.71559 1.35335   1
   6   0  -7 4.83343 1.52688   4
   6   0  -7 4.22185 1.21824   1
   6   0  -7 4.62685 1.19852   8
  -6   0   7 6.34923 1.32307   6
  -6   0   7 5.04237 1.44206   1
  -6   0   7 4.40353 1.59924   4
   5   0  -7 7.07279 1.31131   8
   5   0  -7 6.05131 1.59834   4
   5   0  -7 7.82906 1.65862   1
  -5   0   7 7.10337 1.70023   1
  -5   0   7 4.93874 1.21354   6
  -5   0   7 5.59390 1.13490   5
  -5   0   7 6.42346 1.81702   4
   4   0  -7 92.7560 6.28058   9
   4   0  -7 76.6326 5.47023   4
   4   0  -7 82.2133 4.91339   8
  -4   0   7 87.3181 6.16285   9
  -4   0   7 89.0543 5.68315   1
  -4   0   7 87.8864 5.11651   6
  -4   0   7 87.9914 4.86008   5
  -4   0   7 92.2439 5.90931   4
   3   0  -7 20.3025 1.55199   2
   3   0  -7 17.6475 1.89510   8
   3   0  -7 18.2789 2.63154   9
   3   0  -7 16.7965 2.35675   4
  -3   0   7 21.4833 2.68059   4
  -3   0   7 23.4130 2.00946   6
  -3   0   7 20.1828 2.56048   1
  -3   0   7 22.2676 1.76143   5
  -3   0   7 21.9829 2.95152   9
   2   0  -7 6.45222 1.49453   9
   2   0  -7 6.84727 0.90447   2
   2   0  -7 5.72177 1.27946   4
   2   0  -7 6.43635 1.05661   8
  -2   0   7 5.43446 1.39932   9
  -2   0   7 5.09975 1.25205   4
  -2   0   7 6.37577 1.16829   6
  -2   0   7 5.70441 1.33533   1
  -2   0   7 6.73216 1.02724   5
   1   0  -7 22.8596 2.09656   4
   1   0  -7 21.3207 1.47851   2
   1   0  -7 19.3022 2.53240   9
   1   0  -7 19.8537 1.61933   8
  -1   0   7 18.6674 2.14685   9
  -1   0   7 21.6903 2.07316   1
  -1   0   7 20.8120 1.77916   6
  -1   0   7 25.1722 1.72478   5
  -1   0   7 19.4549 2.35679   4
   0   0  -7 11.7806 1.54716   4
   0   0  -7 12.4349 1.29097   8
   0   0  -7 10.6162 0.96826   2
   0   0  -7 10.8416 1.70621   9
   0   0   7 10.6188 1.39312   6
   0   0   7 12.2455 0.84902   3
   0   0   7 13.6706 1.71322   1
   0   0   7 10.6891 1.57771   4
   0   0   7 8.79411 1.59580   9
   0   0   7 11.0967 1.28515   5
  -1   0  -7 250.493 10.3673   7
  -1   0  -7 234.090 10.8166   8
  -1   0  -7 213.814 11.0499   4
  -1   0  -7 230.643 10.7190   2
   1   0   7 235.091 11.0580   6
   1   0   7 230.044 10.8029   5
   1   0   7 222.143 11.4855   9
   1   0   7 217.019 11.1106   1
   1   0   7 227.422 10.4310   3
  -2   0  -7 7.92964 1.06029   4
  -2   0  -7 6.94995 0.92449   8
  -2   0  -7 4.59964 0.76362   2
  -2   0  -7 7.96747 0.90130   7
   2   0   7 7.13223 0.78285   3
   2   0   7 6.95222 1.07263   1
   2   0   7 6.00624 0.97955   6
   2   0   7 6.19715 1.12809   9
   2   0   7 6.67932 0.92133   5
  -3   0  -7 55.5903 2.91608   4
  -3   0  -7 46.8549 2.95440   2
  -3   0  -7 49.1231 2.85350   8
  -3   0  -7 55.2615 3.04970   9
  -3   0  -7 51.7009 3.00676   7
   3   0   7 48.4652 2.92191   5
   3   0   7 48.8870 2.92694   1
   3   0   7 45.2221 3.06685   9
   3   0   7 50.4696 2.82344   3
   3   0   7 50.1142 3.02577   6
  -4   0  -7 142.943 7.02204   8
  -4   0  -7 154.114 6.89959   4
  -4   0  -7 149.646 7.30909   2
  -4   0  -7 145.131 7.40112   7
   4   0   7 137.336 7.06077   9
   4   0   7 144.219 7.15784   5
   4   0   7 143.705 7.15545   3
   4   0   7 140.896 7.16705   6
   4   0   7 136.959 6.87299   1
  -5   0  -7 10.1945 1.60235   7
  -5   0  -7 15.2387 1.25639   8
  -5   0  -7 11.1441 1.52616   2
   5   0   7 12.8681 1.57133   3
   5   0   7 12.9004 1.48887   5
   5   0   7 13.4907 1.48202   6
  -6   0  -7 -0.4969 0.30987   2
  -6   0  -7 0.28978 0.59152   7
  -6   0  -7 0.55804 0.37677   8
   6   0   7 -0.1367 0.53982   6
   6   0   7 0.73338 0.46741   3
   6   0   7 0.16641 0.42099   5
  -7   0  -7 29.6448 2.70032   7
  -7   0  -7 25.1887 1.98153   8
  -7   0  -7 26.1790 2.34649   2
   7   0   7 26.2721 2.17713   5
   7   0   7 30.1130 2.52853   3
   7   0   7 23.9098 2.09185   6
  -8   0  -7 0.84485 0.68943   2
  -8   0  -7 1.89183 0.69978   8
  -8   0  -7 1.22871 1.05155   7
   8   0   7 1.87059 0.94946   3
   8   0   7 0.95758 0.90564   6
   8   0   7 -0.1132 0.66433   5
  -9   0  -7 -0.6228 0.69658   2
  -9   0  -7 0.19164 0.71338   7
   9   0   7 0.68083 0.68594   3
   9   0   7 -0.9090 0.40045   5
 -10   0  -7 0.60908 0.76194   2
 -10   0  -7 0.05541 0.82108   7
  10   0   7 -0.7070 0.90200   3
  10   0   7 -0.6578 0.86342   5
   7  -1  -7 1.97107 0.95086   1
   7  -1  -7 1.34423 0.79653   6
   7  -1  -7 0.60654 1.15712   4
  -7   1   7 0.42062 0.77982   1
  -7   1   7 0.82683 1.26728   4
   6  -1  -7 14.7131 2.43453   4
   6  -1  -7 13.0806 2.24452   1
   6  -1  -7 17.5024 2.17196   8
  -6   1   7 19.9546 2.96425   4
  -6   1   7 19.7404 2.81937   1
  -6   1   7 15.3574 2.06673   6
   5  -1  -7 2.30325 0.95738   4
   5  -1  -7 1.54284 0.69281   8
  -5   1   7 2.31836 0.91442   6
  -5   1   7 1.73114 1.01577   4
  -5   1   7 2.14237 0.94624   1
   4  -1  -7 -0.0280 0.49589   8
   4  -1  -7 0.01534 0.49391   4
   4  -1  -7 0.06038 0.77206   9
   4  -1  -7 0.26655 0.34541   2
  -4   1   7 -0.1759 0.49350   4
  -4   1   7 0.13000 0.43911   5
  -4   1   7 -0.2718 0.46122   1
  -4   1   7 0.54150 0.86632   9
  -4   1   7 -0.0678 0.31954   6
   3  -1  -7 16.3399 2.52077   9
   3  -1  -7 22.6289 2.77800   4
   3  -1  -7 22.5399 1.66824   2
   3  -1  -7 19.5991 2.04284   8
  -3   1   7 21.1837 2.86928   9
  -3   1   7 19.4068 2.49552   1
  -3   1   7 21.7398 2.75903   4
  -3   1   7 18.8078 1.59195   5
  -3   1   7 20.0688 1.81748   6
   2  -1  -7 36.3380 2.60229   8
   2  -1  -7 42.1725 3.21836   4
   2  -1  -7 34.5297 3.20888   9
   2  -1  -7 41.4212 2.50697   2
  -2   1   7 39.6275 3.11276   1
  -2   1   7 41.8792 3.51572   9
  -2   1   7 41.3931 2.52223   5
  -2   1   7 47.2694 3.42955   4
  -2   1   7 42.4722 2.84442   6
   1  -1  -7 77.6967 4.02531   2
   1  -1  -7 69.5009 4.56334   4
   1  -1  -7 73.5148 4.16836   8
  -1   1   7 70.9574 4.62333   1
  -1   1   7 76.4370 4.35037   6
  -1   1   7 75.9122 5.06788   9
  -1   1   7 78.6710 4.06343   5
  -1   1   7 82.4418 4.84627   4
   0  -1  -7 8.91767 1.03708   2
   0  -1  -7 10.4129 0.69490   7
   0  -1  -7 9.53002 1.41212   4
   0  -1  -7 9.45840 1.16470   8
   0   1   7 11.8477 1.61303   4
   0   1   7 7.58367 1.47658   9
   0   1   7 10.9794 1.35406   6
   0   1   7 8.09401 1.01706   5
   0   1   7 7.51818 1.31154   1
  -1  -1  -7 0.10891 0.21719   8
  -1  -1  -7 1.04397 0.47746   4
  -1  -1  -7 0.58816 0.31019   2
  -1  -1  -7 0.94175 0.31113   7
   1   1   7 0.15606 0.28283   5
   1   1   7 0.14188 0.30722   1
   1   1   7 0.89567 0.23332   3
   1   1   7 0.52957 0.44619   9
   1   1   7 0.23322 0.35016   6
   1   1   7 0.65748 0.38700   4
  -2  -1  -7 247.315 11.1680   8
  -2  -1  -7 224.042 11.2596   4
  -2  -1  -7 238.131 11.2116   2
  -2  -1  -7 251.282 11.1275   7
   2   1   7 246.206 11.1485   5
   2   1   7 249.921 10.8619   3
   2   1   7 235.705 11.7555   9
   2   1   7 223.630 11.3937   1
   2   1   7 227.881 11.3241   6
  -3  -1  -7 -0.2043 0.16928   8
  -3  -1  -7 0.07024 0.31523   2
  -3  -1  -7 0.29677 0.33360   7
  -3  -1  -7 -0.0593 0.19946   4
   3   1   7 -0.1132 0.27564   1
   3   1   7 0.18072 0.24157   3
   3   1   7 -0.0731 0.31345   9
   3   1   7 0.38663 0.38787   5
   3   1   7 -0.3156 0.18247   6
  -4  -1  -7 29.3416 2.13971   2
  -4  -1  -7 28.9455 2.23314   9
  -4  -1  -7 29.5588 2.24512   7
  -4  -1  -7 32.6611 1.99994   8
  -4  -1  -7 33.5624 1.81468   4
   4   1   7 29.0466 1.97944   1
   4   1   7 31.2431 2.13740   6
   4   1   7 28.7974 2.05277   5
   4   1   7 28.6449 2.04230   3
   4   1   7 29.8200 2.15846   9
  -5  -1  -7 191.592 9.77671   3
  -5  -1  -7 223.210 9.42343   8
  -5  -1  -7 199.473 9.74386   2
  -5  -1  -7 192.566 9.96060   7
   5   1   7 183.405 9.46250   5
   5   1   7 190.775 9.53290   6
   5   1   7 191.442 9.65093   3
  -6  -1  -7 35.1832 2.24331   8
  -6  -1  -7 31.6204 2.75573   7
  -6  -1  -7 33.5789 2.68822   3
  -6  -1  -7 36.5957 2.69237   2
   6   1   7 34.8219 2.62247   3
   6   1   7 35.7936 2.46001   6
   6   1   7 34.4112 2.44898   5
  -7  -1  -7 27.6314 3.08477   7
  -7  -1  -7 23.2632 2.68381   3
  -7  -1  -7 23.4915 1.81683   8
  -7  -1  -7 23.9253 2.21859   2
   7   1   7 22.1145 2.05389   6
   7   1   7 25.2859 2.68152   3
   7   1   7 26.5790 2.12478   5
  -8  -1  -7 22.0854 2.75659   3
  -8  -1  -7 19.1771 2.68051   7
  -8  -1  -7 17.9760 2.35167   2
   8   1   7 23.9398 2.46416   5
   8   1   7 20.2239 2.22188   6
   8   1   7 18.9691 2.41886   3
  -9  -1  -7 28.0898 3.46446   7
  -9  -1  -7 25.6474 2.93479   2
  -9  -1  -7 20.8771 2.97149   3
   9   1   7 25.2843 2.71195   5
   9   1   7 21.2997 2.82088   3
 -10  -1  -7 38.0653 3.43983   2
 -10  -1  -7 36.4598 4.29437   7
  10   1   7 39.0905 3.23195   5
  10   1   7 41.9855 3.75602   3
   7  -2  -7 7.04632 1.74605   1
   7  -2  -7 4.77609 1.21713   8
   7  -2  -7 7.55836 1.92891   4
  -7   2   7 8.07408 2.15769   4
  -7   2   7 8.51609 2.00557   1
   6  -2  -7 0.87208 0.98370   4
   6  -2  -7 3.04655 1.04470   8
  -6   2   7 3.60315 1.38459   1
  -6   2   7 4.07703 1.53513   4
  -6   2   7 4.34143 1.15019   6
   5  -2  -7 0.47664 0.82557   4
   5  -2  -7 -0.2559 0.31073   8
   5  -2  -7 -0.3676 0.28957   2
  -5   2   7 -0.3134 0.45481   6
  -5   2   7 0.04934 0.55178   1
  -5   2   7 0.10696 0.94520   4
   4  -2  -7 -0.7388 0.46295   9
   4  -2  -7 0.37329 0.38164   2
   4  -2  -7 -0.2579 0.61974   4
   4  -2  -7 0.52569 0.56742   8
  -4   2   7 0.29607 0.54072   1
  -4   2   7 0.58290 0.54601   6
  -4   2   7 0.39023 0.66026   4
  -4   2   7 0.69396 0.70770   9
   3  -2  -7 4.66051 1.47688   9
   3  -2  -7 6.22182 1.12316   8
   3  -2  -7 6.01990 0.98855   2
   3  -2  -7 3.32552 1.15409   4
  -3   2   7 6.84526 1.16461   6
  -3   2   7 5.49072 1.41098   4
  -3   2   7 6.59454 1.70013   9
  -3   2   7 5.39363 0.84892   5
  -3   2   7 3.23344 1.14203   1
   2  -2  -7 41.1199 2.73643   8
   2  -2  -7 40.0208 2.55647   2
   2  -2  -7 37.5402 3.06642   4
  -2   2   7 40.1162 2.40868   5
  -2   2   7 41.3265 2.79901   6
  -2   2   7 41.1253 3.23108   4
  -2   2   7 40.6633 3.53265   9
  -2   2   7 39.5076 3.13670   1
   1  -2  -7 39.4448 2.36442   2
   1  -2  -7 39.2662 2.02469   7
   1  -2  -7 35.1238 2.77341   4
   1  -2  -7 34.9258 2.42566   8
  -1   2   7 31.3076 2.73437   4
  -1   2   7 34.1708 2.79425   1
  -1   2   7 39.5113 2.24635   5
  -1   2   7 37.7463 2.55670   6
  -1   2   7 33.9023 3.05466   9
   0  -2  -7 0.02542 0.31785   8
   0  -2  -7 0.14456 0.32636   4
   0  -2  -7 -0.1549 0.17086   7
   0  -2  -7 0.16536 0.28625   2
   0   2   7 0.01854 0.21929   5
   0   2   7 0.03141 0.31243   9
   0   2   7 0.08135 0.30931   4
   0   2   7 -0.1456 0.46594   1
   0   2   7 -0.3696 0.32459   6
  -1  -2  -7 0.15394 0.27605   2
  -1  -2  -7 0.13214 0.36323   4
  -1  -2  -7 -0.1314 0.17149   8
  -1  -2  -7 0.10484 0.22863   7
   1   2   7 -0.2129 0.35153   1
   1   2   7 0.38293 0.42557   4
   1   2   7 -0.0545 0.35069   6
   1   2   7 0.34040 0.51867   9
   1   2   7 0.20416 0.19629   5
  -2  -2  -7 55.2804 3.23453   2
  -2  -2  -7 61.9062 3.22990   7
  -2  -2  -7 51.3263 3.10548   8
  -2  -2  -7 55.5583 3.30696   4
   2   2   7 54.2225 3.68566   9
   2   2   7 59.9639 3.51605   1
   2   2   7 53.7374 3.07255   5
   2   2   7 61.6343 2.88122   3
   2   2   7 55.4505 3.33159   6
   2   2   7 60.4427 3.43466   4
  -3  -2  -7 5.57098 0.91966   7
  -3  -2  -7 6.14204 0.94996   2
  -3  -2  -7 5.59545 0.81328   8
  -3  -2  -7 5.56039 0.78739   4
   3   2   7 5.75634 0.77018   3
   3   2   7 5.05530 0.93252   6
   3   2   7 5.50557 0.81977   5
   3   2   7 5.88152 1.06252   9
   3   2   7 5.00173 0.92731   1
  -4  -2  -7 0.37398 0.49546   7
  -4  -2  -7 -0.1079 0.29064   3
  -4  -2  -7 0.17545 0.29857   8
  -4  -2  -7 0.03843 0.27360   2
   4   2   7 0.54352 0.41807   6
   4   2   7 0.19142 0.42758   5
   4   2   7 0.46310 0.39766   9
   4   2   7 0.25791 0.33592   1
   4   2   7 -0.2965 0.26120   3
  -5  -2  -7 28.3123 1.85504   8
  -5  -2  -7 31.9686 2.29816   2
  -5  -2  -7 29.8969 2.43172   7
  -5  -2  -7 30.1497 2.28800   3
   5   2   7 24.0968 1.95116   5
   5   2   7 25.7433 2.12451   3
   5   2   7 30.7037 2.17695   6
   5   2   7 29.8100 2.10883   9
   5   2   7 30.7584 2.17699   1
  -6  -2  -7 124.896 5.77523   8
  -6  -2  -7 109.390 6.33252   3
  -6  -2  -7 110.092 6.21773   2
  -6  -2  -7 110.639 6.54202   7
   6   2   7 112.832 6.02765   6
   6   2   7 113.113 6.03345   5
   6   2   7 112.320 6.25190   3
  -7  -2  -7 51.3093 3.53859   2
  -7  -2  -7 53.1100 3.76626   3
  -7  -2  -7 53.5693 3.98083   7
   7   2   7 52.1820 3.35115   6
   7   2   7 50.5485 3.59874   3
   7   2   7 47.5547 3.32784   5
  -8  -2  -7 38.1312 2.97510   2
  -8  -2  -7 33.2196 3.04689   3
  -8  -2  -7 32.5532 3.59945   7
   8   2   7 29.8015 2.62636   6
   8   2   7 29.0232 2.49467   5
   8   2   7 32.2134 2.89430   3
  -9  -2  -7 24.3366 3.13597   3
  -9  -2  -7 20.9175 3.06289   7
  -9  -2  -7 19.0951 2.61674   2
   9   2   7 24.3995 3.00270   3
   9   2   7 21.9110 2.52035   5
   9   2   7 25.4547 2.32718   6
 -10  -2  -7 7.16540 1.75178   2
 -10  -2  -7 7.82375 2.13269   7
 -10  -2  -7 10.4442 2.22973   3
  10   2   7 8.28989 1.91539   3
  10   2   7 6.44326 1.63477   5
   7  -3  -7 6.19251 1.65291   1
   7  -3  -7 6.62740 1.90857   4
   7  -3  -7 3.99807 1.32007   8
  -7   3   7 4.26399 1.50495   4
  -7   3   7 6.83156 1.81276   1
   6  -3  -7 4.51307 1.51912   4
   6  -3  -7 6.06123 1.31786   8
   6  -3  -7 5.99030 1.22587   2
  -6   3   7 6.10263 1.64207   1
  -6   3   7 4.44422 1.49803   4
  -6   3   7 6.48639 1.43162   8
   5  -3  -7 0.01768 0.46155   4
   5  -3  -7 0.14035 0.65839   8
   5  -3  -7 0.38152 0.55358   2
  -5   3   7 0.67820 0.85056   1
  -5   3   7 -0.6934 0.46829   4
  -5   3   7 0.26141 0.56004   6
  -5   3   7 0.36537 0.64148   8
   4  -3  -7 8.37086 1.31076   2
   4  -3  -7 6.61407 1.29260   8
   4  -3  -7 6.15603 1.76589   9
   4  -3  -7 7.48319 1.63907   4
  -4   3   7 6.33968 1.93608   9
  -4   3   7 8.59724 1.52958   8
  -4   3   7 8.12798 1.69435   1
  -4   3   7 7.56714 1.74306   4
  -4   3   7 10.2637 1.47457   6
   3  -3  -7 5.50422 1.04738   8
   3  -3  -7 5.39950 1.01389   2
   3  -3  -7 4.71345 1.25611   4
  -3   3   7 4.73245 1.03081   8
  -3   3   7 5.38246 1.37488   4
  -3   3   7 6.33219 1.66507   9
  -3   3   7 6.36589 1.43458   1
  -3   3   7 4.47325 0.92178   6
   2  -3  -7 226.093 10.9100   8
   2  -3  -7 228.763 10.4104   7
   2  -3  -7 222.113 10.7602   2
  -2   3   7 222.388 11.5155   1
  -2   3   7 222.705 12.0196   9
  -2   3   7 215.229 10.8646   6
  -2   3   7 224.894 11.5914   4
   1  -3  -7 29.6359 1.83967   7
   1  -3  -7 30.0546 2.09084   2
   1  -3  -7 32.7611 2.21683   8
  -1   3   7 30.9916 2.59260   4
  -1   3   7 28.2355 2.17205   6
  -1   3   7 34.9035 1.91011   5
  -1   3   7 29.0393 2.52686   1
  -1   3   7 26.4794 2.74924   9
   0  -3  -7 11.5423 1.30788   2
   0  -3  -7 13.0164 1.05087   7
   0  -3  -7 13.0890 1.41525   8
   0   3   7 12.2367 1.71055   4
   0   3   7 13.0024 1.04537   5
   0   3   7 15.7713 1.65879   6
   0   3   7 16.4081 2.22952   9
   0   3   7 14.8060 1.85013   1
  -1  -3  -7 38.7931 2.36563   2
  -1  -3  -7 39.1049 2.22089   7
  -1  -3  -7 35.9132 2.52959   4
  -1  -3  -7 36.6787 2.31771   8
   1   3   7 33.3913 2.58269   1
   1   3   7 36.4274 2.58907   4
   1   3   7 36.5976 2.10626   5
   1   3   7 34.9855 2.88416   9
   1   3   7 35.7107 2.44347   6
  -2  -3  -7 -0.1404 0.24454   7
  -2  -3  -7 0.07878 0.28163   4
  -2  -3  -7 0.16436 0.28170   8
  -2  -3  -7 -0.1251 0.20133   2
   2   3   7 -0.1675 0.25711   1
   2   3   7 -0.1783 0.35894   6
   2   3   7 -0.2264 0.36308   9
   2   3   7 0.14482 0.34124   4
   2   3   7 0.02938 0.20471   5
   2   3   7 0.17958 0.19442   3
  -3  -3  -7 15.6980 1.24525   4
  -3  -3  -7 15.6750 1.37543   2
  -3  -3  -7 16.3673 1.26668   3
  -3  -3  -7 12.8091 1.49767   7
  -3  -3  -7 15.3664 1.19770   8
   3   3   7 17.0561 1.50933   6
   3   3   7 15.2238 1.19825   3
   3   3   7 15.9071 1.25244   5
   3   3   7 15.5294 1.42625   1
   3   3   7 14.6021 1.27723   4
   3   3   7 14.6218 1.56108   9
  -4  -3  -7 45.4247 2.79194   3
  -4  -3  -7 49.4764 2.56788   8
  -4  -3  -7 44.6472 3.01159   7
  -4  -3  -7 46.2666 2.85630   2
   4   3   7 37.9664 2.56527   5
   4   3   7 41.8737 2.76716   6
   4   3   7 45.8462 2.97668   9
   4   3   7 39.4524 2.64211   3
   4   3   7 43.5375 2.75113   1
  -5  -3  -7 41.4496 2.83444   2
  -5  -3  -7 42.8936 2.43536   8
  -5  -3  -7 47.6473 2.98382   3
  -5  -3  -7 40.0626 3.00760   7
   5   3   7 36.3036 2.70154   3
   5   3   7 40.3186 2.79772   6
   5   3   7 41.2361 2.60626   1
   5   3   7 42.7681 2.81255   9
   5   3   7 41.7007 2.63866   5
  -6  -3  -7 109.311 6.16799   3
  -6  -3  -7 106.372 6.35689   7
  -6  -3  -7 113.588 6.07047   2
   6   3   7 104.521 5.77315   5
   6   3   7 105.567 6.02677   3
   6   3   7 114.241 5.92238   6
  -7  -3  -7 7.74446 1.68222   7
  -7  -3  -7 7.04046 1.47247   3
  -7  -3  -7 8.60891 1.51824   2
   7   3   7 8.42987 1.55660   3
   7   3   7 7.00783 1.38695   6
   7   3   7 8.78748 1.30671   5
  -8  -3  -7 19.6987 2.72991   7
  -8  -3  -7 19.1291 2.34510   2
  -8  -3  -7 18.6252 2.52640   3
   8   3   7 16.2420 2.02876   5
   8   3   7 16.8229 2.08768   6
   8   3   7 17.5684 2.38498   3
  -9  -3  -7 0.97581 1.02102   2
  -9  -3  -7 1.30120 1.05234   3
  -9  -3  -7 0.47228 1.06350   7
   9   3   7 -0.1216 0.84549   3
   9   3   7 -1.4369 0.57223   6
   9   3   7 0.34740 0.84051   5
 -10  -3  -7 15.4431 2.34452   2
 -10  -3  -7 13.3886 2.51264   7
 -10  -3  -7 12.9737 2.50267   3
  10   3   7 11.0684 2.13656   6
  10   3   7 9.62043 1.75686   5
  10   3   7 13.1055 2.33037   3
   6  -4  -7 18.8976 2.98202   4
   6  -4  -7 17.8536 2.28933   2
   6  -4  -7 22.4087 2.60707   8
  -6   4   7 21.2949 3.21776   4
  -6   4   7 19.4273 2.52065   8
  -6   4   7 26.9209 3.29190   1
   5  -4  -7 0.18301 0.59193   4
   5  -4  -7 0.27032 0.59577   2
   5  -4  -7 0.87629 0.62324   8
  -5   4   7 0.98953 0.91356   1
  -5   4   7 1.26653 0.94686   4
  -5   4   7 1.23790 0.70857   8
   4  -4  -7 16.6255 2.02858   2
   4  -4  -7 18.1607 2.13768   8
  -4   4   7 20.1366 1.76089   6
  -4   4   7 17.5642 2.12040   8
  -4   4   7 19.3518 2.76580   4
  -4   4   7 17.7704 2.58583   1
   3  -4  -7 42.6745 2.94827   2
   3  -4  -7 42.4523 2.93463   7
   3  -4  -7 44.8854 3.07441   8
  -3   4   7 48.4473 3.99795   9
  -3   4   7 39.8107 3.04165   8
  -3   4   7 49.1584 3.02446   6
  -3   4   7 36.8634 3.36228   1
  -3   4   7 46.7391 3.65037   4
   2  -4  -7 8.07311 1.27866   8
   2  -4  -7 8.61150 1.10922   7
   2  -4  -7 11.7760 1.47030   2
  -2   4   7 8.06983 1.28673   8
  -2   4   7 9.32230 1.35346   6
  -2   4   7 11.4269 1.84735   1
  -2   4   7 10.1863 1.87651   9
  -2   4   7 13.8256 2.09435   4
   1  -4  -7 363.803 16.8097   2
   1  -4  -7 373.393 16.5292   7
   1  -4  -7 374.008 16.8979   8
  -1   4   7 343.102 17.8356   9
  -1   4   7 360.508 17.4664   1
  -1   4   7 364.431 16.8925   6
  -1   4   7 346.905 17.4057   4
   0  -4  -7 5.00611 0.88857   8
   0  -4  -7 8.66965 1.15142   2
   0  -4  -7 4.47173 0.77044   7
   0   4   7 4.49503 1.16060   9
   0   4   7 8.36710 0.81762   5
   0   4   7 8.25819 1.39538   1
   0   4   7 4.99737 1.14334   4
   0   4   7 7.42003 1.09810   6
  -1  -4  -7 5.49028 0.85060   7
  -1  -4  -7 5.27278 0.86163   2
  -1  -4  -7 6.04310 0.92763   8
   1   4   7 5.75049 1.27946   9
   1   4   7 5.96599 1.13453   1
   1   4   7 6.80439 0.75851   5
   1   4   7 6.47721 1.15128   4
   1   4   7 5.91483 1.02218   6
  -2  -4  -7 112.005 5.65905   8
  -2  -4  -7 117.549 5.39899   3
  -2  -4  -7 115.652 5.84854   2
  -2  -4  -7 115.340 5.81457   7
   2   4   7 106.369 5.43875   3
   2   4   7 115.613 5.49565   5
   2   4   7 112.514 5.85464   6
   2   4   7 115.849 6.41188   9
   2   4   7 109.567 5.91016   4
   2   4   7 107.694 6.03865   1
  -3  -4  -7 2.58479 0.60468   4
  -3  -4  -7 2.39912 0.50939   8
  -3  -4  -7 2.05937 0.60423   2
  -3  -4  -7 1.74254 0.63464   7
  -3  -4  -7 3.13816 0.61571   3
   3   4   7 3.50659 0.72127   4
   3   4   7 2.41909 0.56698   5
   3   4   7 2.50186 0.70322   1
   3   4   7 1.43609 0.65177   9
   3   4   7 2.49473 0.70121   6
   3   4   7 1.74228 0.46245   3
  -4  -4  -7 5.82797 0.97309   3
  -4  -4  -7 6.49970 0.81843   8
  -4  -4  -7 5.48281 1.11227   7
  -4  -4  -7 4.99401 0.93578   2
   4   4   7 5.93883 1.01838   1
   4   4   7 5.43585 0.89086   3
   4   4   7 7.00900 1.18386   9
   4   4   7 5.70761 1.02045   6
   4   4   7 3.93876 0.71433   5
  -5  -4  -7 21.9802 2.03241   3
  -5  -4  -7 29.4867 1.75372   8
  -5  -4  -7 28.0707 2.13659   2
  -5  -4  -7 25.2522 2.28463   7
   5   4   7 25.1462 2.06291   3
   5   4   7 28.8656 2.21271   9
   5   4   7 22.9927 1.88372   5
   5   4   7 27.3806 2.19978   6
   5   4   7 28.8136 2.04370   1
  -6  -4  -7 7.96959 1.38859   3
  -6  -4  -7 9.73348 1.45564   2
  -6  -4  -7 5.68484 1.38950   7
   6   4   7 10.1363 1.45152   6
   6   4   7 10.0564 1.34017   5
   6   4   7 9.28066 1.43160   3
  -7  -4  -7 38.3688 3.23370   7
  -7  -4  -7 33.6444 2.67587   2
  -7  -4  -7 36.8324 2.94709   3
   7   4   7 34.4583 2.65829   6
   7   4   7 30.3815 2.51108   5
   7   4   7 33.1208 2.75469   3
  -8  -4  -7 0.61087 0.65788   7
  -8  -4  -7 -0.1536 0.73093   3
  -8  -4  -7 -0.1888 0.47706   2
   8   4   7 0.15098 0.72942   6
   8   4   7 0.25493 0.67932   3
   8   4   7 0.03967 0.66514   5
  -9  -4  -7 4.65933 1.30873   2
  -9  -4  -7 5.26774 1.63096   7
  -9  -4  -7 3.13215 1.17912   3
   9   4   7 0.82874 1.04027   6
   9   4   7 2.92336 1.12602   3
   9   4   7 5.39253 1.33123   5
 -10  -4  -7 1.59010 1.20680   3
 -10  -4  -7 1.47115 1.07969   2
  10   4   7 -2.9460 1.17783   6
  10   4   7 1.53972 1.01352   3
   6  -5  -7 4.77773 1.28370   8
   6  -5  -7 5.56509 1.31495   2
  -6   5   7 4.08382 1.33255   1
  -6   5   7 4.91818 1.72254   4
  -6   5   7 5.26096 1.40808   8
   5  -5  -7 0.31985 0.50428   8
   5  -5  -7 -0.0707 0.58011   2
  -5   5   7 0.77923 0.67001   8
  -5   5   7 0.72669 0.87512   1
  -5   5   7 0.70648 0.76307   4
   4  -5  -7 0.46259 0.60806   2
   4  -5  -7 0.50162 0.51681   8
  -4   5   7 1.61948 0.76615   8
  -4   5   7 0.66530 0.76329   1
  -4   5   7 1.81394 0.98910   4
   3  -5  -7 14.0302 1.76550   2
   3  -5  -7 13.3194 1.75852   8
   3  -5  -7 13.0343 1.53433   7
  -3   5   7 12.4337 2.26595   9
  -3   5   7 11.9029 1.71631   8
  -3   5   7 13.2253 1.58458   6
  -3   5   7 13.2932 2.14937   1
  -3   5   7 9.83375 1.89576   4
   2  -5  -7 63.6974 3.78485   2
   2  -5  -7 55.4993 3.70742   8
   2  -5  -7 59.7205 3.49683   7
  -2   5   7 56.9179 4.19255   4
  -2   5   7 61.1537 4.61162   9
  -2   5   7 59.1462 4.21588   1
  -2   5   7 64.2512 3.90773   8
  -2   5   7 64.1859 3.72327   6
   1  -5  -7 363.934 17.5464   8
   1  -5  -7 388.629 17.3535   7
   1  -5  -7 374.042 17.5731   2
  -1   5   7 391.499 17.7064   8
  -1   5   7 379.927 18.2131   1
  -1   5   7 372.448 17.5372   6
  -1   5   7 373.588 18.1771   4
  -1   5   7 368.030 18.6282   9
   0  -5  -7 53.5210 3.36677   8
   0  -5  -7 56.2051 3.44577   2
   0  -5  -7 67.5167 3.42633   7
   0   5   7 57.2889 3.89462   1
   0   5   7 54.2377 3.76853   4
   0   5   7 59.3565 3.49729   6
   0   5   7 56.6843 4.17072   9
  -1  -5  -7 0.21844 0.34203   8
  -1  -5  -7 0.33129 0.30938   2
  -1  -5  -7 0.20607 0.31355   7
   1   5   7 -0.2090 0.48709   1
   1   5   7 0.10062 0.21346   5
   1   5   7 0.48734 0.47456   9
   1   5   7 -0.0420 0.27811   6
   1   5   7 -0.0129 0.35088   4
  -2  -5  -7 71.2797 4.03971   7
  -2  -5  -7 78.8816 4.11946   2
  -2  -5  -7 70.9934 3.84198   8
   2   5   7 72.5550 4.07089   6
   2   5   7 64.6046 4.44431   9
   2   5   7 75.4428 3.65021   5
   2   5   7 68.3687 4.26750   1
   2   5   7 66.7375 4.08671   4
  -3  -5  -7 108.941 5.56078   2
  -3  -5  -7 106.333 5.67185   7
  -3  -5  -7 108.934 5.23008   8
  -3  -5  -7 107.427 5.32863   3
   3   5   7 104.009 5.69124   1
   3   5   7 101.215 5.49813   6
   3   5   7 100.718 5.38662   4
   3   5   7 96.0593 5.85669   9
   3   5   7 100.314 5.13866   5
  -4  -5  -7 61.0404 3.82434   3
  -4  -5  -7 69.9284 3.53893   8
  -4  -5  -7 64.2193 3.92763   2
  -4  -5  -7 68.3496 4.18178   7
   4   5   7 67.8669 4.23029   9
   4   5   7 72.9216 4.07512   1
   4   5   7 63.6323 3.64324   5
   4   5   7 69.5140 3.97819   6
  -5  -5  -7 0.24966 0.49067   7
  -5  -5  -7 -0.0579 0.39319   3
  -5  -5  -7 0.68337 0.55589   2
   5   5   7 1.00782 0.51309   9
   5   5   7 0.01365 0.71784   6
   5   5   7 -0.2355 0.32878   5
   5   5   7 1.57626 0.61746   1
  -6  -5  -7 10.4547 1.76714   7
  -6  -5  -7 8.12596 1.39278   2
  -6  -5  -7 9.47740 1.55863   3
   6   5   7 8.59523 1.27175   5
   6   5   7 11.4700 1.59312   6
   6   5   7 11.5055 1.50442   1
  -7  -5  -7 87.9019 4.85877   2
  -7  -5  -7 71.9716 4.86517   3
  -7  -5  -7 78.4280 5.23070   7
   7   5   7 73.3378 4.50090   5
   7   5   7 67.8157 4.68808   3
   7   5   7 77.7705 4.67414   6
  -8  -5  -7 11.3910 2.00989   3
  -8  -5  -7 15.8804 2.09506   2
  -8  -5  -7 8.59415 1.88973   7
   8   5   7 8.87377 1.81675   6
   8   5   7 10.4083 1.68408   5
   8   5   7 11.0532 1.95337   3
  -9  -5  -7 1.60821 0.93293   2
  -9  -5  -7 0.03286 0.67452   3
  -9  -5  -7 0.43878 0.79460   7
   9   5   7 0.03786 0.74486   5
   9   5   7 -1.2613 1.13865   6
   9   5   7 2.13556 1.00208   3
   6  -6  -7 4.71697 1.27003   8
   6  -6  -7 4.78315 1.36868   2
  -6   6   7 3.32856 1.30522   4
  -6   6   7 5.84252 1.67549   1
  -6   6   7 3.48277 1.16876   8
   5  -6  -7 21.6380 2.53814   2
   5  -6  -7 14.1475 2.10686   8
  -5   6   7 16.9461 2.58469   1
  -5   6   7 19.2837 2.46506   8
  -5   6   7 14.0913 2.65261   4
   4  -6  -7 0.30878 0.57090   2
   4  -6  -7 -0.2163 0.54084   7
   4  -6  -7 0.86119 0.70707   8
  -4   6   7 0.10718 0.67755   8
  -4   6   7 0.17204 0.54963   1
  -4   6   7 0.09096 0.57386   4
   3  -6  -7 1.49751 0.65337   2
   3  -6  -7 0.86098 0.69169   8
   3  -6  -7 0.47183 0.54089   7
  -3   6   7 0.98153 0.78030   8
  -3   6   7 1.48516 0.91759   1
  -3   6   7 1.40866 0.98258   4
   2  -6  -7 4.41158 0.91772   7
   2  -6  -7 1.73222 0.74158   8
   2  -6  -7 3.21855 0.82281   2
  -2   6   7 2.94775 1.06215   9
  -2   6   7 3.94001 0.84707   6
  -2   6   7 2.08699 0.75066   8
  -2   6   7 2.58035 0.89559   4
  -2   6   7 4.50061 1.18719   1
   1  -6  -7 8.24319 1.28574   2
   1  -6  -7 5.44062 1.03015   8
   1  -6  -7 8.13483 1.19721   7
  -1   6   7 7.14653 1.20624   8
  -1   6   7 8.00823 1.66584   9
  -1   6   7 7.23468 1.47531   1
  -1   6   7 6.43594 1.34980   4
  -1   6   7 6.15606 1.07383   6
   0  -6  -7 38.8226 2.54481   8
   0  -6  -7 38.3180 2.52882   7
   0  -6  -7 40.4379 2.67274   2
   0   6   7 37.5910 2.52233   6
   0   6   7 39.5312 3.28438   9
   0   6   7 34.0198 2.83824   4
   0   6   7 32.6257 2.80016   1
  -1  -6  -7 119.428 6.13019   7
  -1  -6  -7 112.780 5.96648   8
  -1  -6  -7 121.566 6.19893   2
   1   6   7 120.012 6.57274   1
   1   6   7 116.308 6.08993   6
   1   6   7 116.584 6.85437   9
   1   6   7 112.307 6.38956   4
  -2  -6  -7 4.61022 0.80535   8
  -2  -6  -7 4.98466 0.97777   2
  -2  -6  -7 4.29876 0.93431   7
   2   6   7 6.02273 1.06790   6
   2   6   7 4.07543 0.94048   4
   2   6   7 6.70882 1.23856   1
   2   6   7 4.46451 0.69206   5
   2   6   7 5.81550 1.29431   9
  -3  -6  -7 271.914 12.2327   8
  -3  -6  -7 257.214 12.5780   2
  -3  -6  -7 269.060 12.4056   3
  -3  -6  -7 283.359 12.8775   7
   3   6   7 249.418 12.1051   5
   3   6   7 270.084 12.8557   1
   3   6   7 258.784 12.4980   4
   3   6   7 259.610 13.1297   9
   3   6   7 253.158 12.5473   6
  -4  -6  -7 7.17743 1.17431   3
  -4  -6  -7 9.76277 1.50261   7
  -4  -6  -7 6.24614 1.14681   2
   4   6   7 9.07235 1.45071   9
   4   6   7 8.29347 1.30366   1
   4   6   7 10.3098 1.40300   6
   4   6   7 9.36755 1.12786   5
  -5  -6  -7 85.0594 4.75350   2
  -5  -6  -7 84.4591 5.12814   7
  -5  -6  -7 83.2142 4.82417   3
   5   6   7 75.3282 4.64198   6
   5   6   7 83.7732 4.75789   1
   5   6   7 77.0787 4.39579   5
   5   6   7 80.3026 5.00479   9
  -6  -6  -7 12.6532 1.83934   3
  -6  -6  -7 11.2466 1.98346   7
  -6  -6  -7 11.8464 1.65157   2
   6   6   7 9.17533 1.62656   6
   6   6   7 13.4436 1.55816   5
   6   6   7 12.3016 1.66281   1
   6   6   7 12.3218 1.81858   9
  -7  -6  -7 5.01619 1.47599   7
  -7  -6  -7 2.24739 0.90647   3
  -7  -6  -7 4.32097 1.12986   2
   7   6   7 2.77982 0.89208   5
   7   6   7 1.39598 0.93682   6
  -8  -6  -7 8.49394 1.54337   2
  -8  -6  -7 7.88772 1.77856   3
  -8  -6  -7 8.76569 1.93354   7
   8   6   7 6.55665 1.66587   6
   8   6   7 5.52360 1.25088   5
  -9  -6  -7 18.3279 2.70494   3
  -9  -6  -7 19.5895 2.50720   2
  -9  -6  -7 22.3076 3.24308   7
   9   6   7 15.6148 2.51596   6
   9   6   7 19.7329 2.41717   5
   9   6   7 17.1544 2.63877   3
   5  -7  -7 65.7366 4.45220   8
   5  -7  -7 69.3312 4.53419   2
  -5   7   7 66.7415 4.99133   1
  -5   7   7 52.5207 4.73811   4
  -5   7   7 65.6401 4.51305   8
   4  -7  -7 37.0892 2.91151   2
   4  -7  -7 31.8439 2.66044   7
   4  -7  -7 32.6933 2.83639   8
  -4   7   7 34.9903 2.90135   8
  -4   7   7 29.3265 3.59868   4
  -4   7   7 34.2458 3.24997   1
   3  -7  -7 7.88730 1.32844   7
   3  -7  -7 5.25568 1.17987   8
   3  -7  -7 8.45882 1.45278   2
  -3   7   7 5.66072 1.42621   1
  -3   7   7 7.21252 1.63111   4
  -3   7   7 6.47078 1.30703   8
   2  -7  -7 3.48671 0.89488   2
   2  -7  -7 4.65299 1.04240   8
   2  -7  -7 2.00055 0.76335   7
  -2   7   7 3.02134 1.10995   4
  -2   7   7 2.16648 1.01483   1
  -2   7   7 3.18186 0.87474   8
   1  -7  -7 8.10812 1.22468   7
   1  -7  -7 9.16744 1.38652   2
   1  -7  -7 7.14087 1.18212   8
  -1   7   7 5.04917 1.30660   1
  -1   7   7 8.73424 1.19578   6
  -1   7   7 7.30306 1.52603   4
  -1   7   7 7.69435 1.62468   9
  -1   7   7 6.63584 1.19486   8
   0  -7  -7 7.50309 1.24926   7
   0  -7  -7 8.94246 1.33324   2
   0  -7  -7 6.70918 1.08766   8
   0   7   7 5.66142 1.27071   1
   0   7   7 6.91640 1.51302   9
   0   7   7 6.94897 1.12291   6
   0   7   7 7.06655 1.41449   4
   0   7   7 6.98191 1.15157   8
  -1  -7  -7 262.459 12.6874   2
  -1  -7  -7 264.837 12.4725   8
  -1  -7  -7 295.632 12.8398   7
   1   7   7 253.493 12.9300   4
   1   7   7 258.619 12.5465   6
   1   7   7 251.314 13.0272   1
   1   7   7 256.737 13.4317   9
  -2  -7  -7 103.888 5.49658   2
  -2  -7  -7 100.321 5.57950   7
  -2  -7  -7 93.7245 5.12576   8
   2   7   7 97.0493 5.55583   4
   2   7   7 100.088 5.39719   6
   2   7   7 106.928 5.85619   1
   2   7   7 96.8741 6.01418   9
  -3  -7  -7 209.373 10.2505   7
  -3  -7  -7 207.785 9.98636   2
  -3  -7  -7 198.876 9.53543   8
   3   7   7 198.230 10.5395   9
   3   7   7 188.183 9.87704   6
   3   7   7 206.688 10.2598   1
  -4  -7  -7 41.4451 2.99475   3
  -4  -7  -7 46.4690 3.12514   2
  -4  -7  -7 43.4266 3.34627   7
   4   7   7 49.0220 3.53475   9
   4   7   7 43.5726 2.73223   5
   4   7   7 50.4587 3.19378   6
   4   7   7 52.1539 3.36149   1
  -5  -7  -7 24.2880 2.76937   7
  -5  -7  -7 24.5629 2.05745   2
  -5  -7  -7 20.8532 2.34327   3
   5   7   7 24.8992 2.23609   1
   5   7   7 26.2284 2.47002   9
   5   7   7 22.6892 1.83054   5
   5   7   7 22.4236 2.08490   6
  -6  -7  -7 0.56961 0.63839   7
  -6  -7  -7 2.24440 0.87194   3
  -6  -7  -7 1.69459 0.73469   2
   6   7   7 0.59660 0.68495   1
   6   7   7 1.02518 0.90887   9
   6   7   7 0.46360 0.53308   5
   6   7   7 -0.7224 0.75959   6
  -7  -7  -7 22.3314 2.44865   2
  -7  -7  -7 24.8810 2.90068   3
  -7  -7  -7 21.5045 2.91798   7
   7   7   7 22.7756 2.02707   5
   7   7   7 26.3809 2.82214   6
  -8  -7  -7 0.08657 0.63874   3
  -8  -7  -7 1.50542 0.95490   7
  -8  -7  -7 -0.2543 0.62210   2
   8   7   7 -0.2074 0.43298   5
   8   7   7 -0.6992 0.79144   6
  -9  -7  -7 1.63555 1.10703   3
   9   7   7 4.02671 1.23640   5
   9   7   7 2.89496 1.09925   3
   9   7   7 0.87656 1.12377   6
   5  -8  -7 -0.0956 0.58417   2
   5  -8  -7 2.49168 1.08577   8
  -5   8   7 1.64784 1.07714   8
  -5   8   7 2.26366 1.09048   4
  -5   8   7 2.86057 1.22427   1
   4  -8  -7 4.10168 1.14468   2
   4  -8  -7 3.17906 1.11679   8
   4  -8  -7 2.81923 1.07956   7
  -4   8   7 3.62778 1.14894   1
  -4   8   7 1.36061 0.86595   4
  -4   8   7 2.91219 1.08439   8
   3  -8  -7 17.7997 2.17427   7
   3  -8  -7 19.1744 2.29712   8
   3  -8  -7 17.7233 2.23957   2
  -3   8   7 18.4263 2.29820   8
  -3   8   7 18.1235 2.64628   1
  -3   8   7 16.9670 2.56757   4
   2  -8  -7 6.18561 1.23697   8
   2  -8  -7 8.28607 1.41391   7
   2  -8  -7 9.52811 1.58445   2
  -2   8   7 8.88610 1.79589   1
  -2   8   7 8.60085 1.50826   8
  -2   8   7 6.19844 1.51940   4
   1  -8  -7 11.0742 1.50101   8
   1  -8  -7 8.42795 1.39298   7
   1  -8  -7 7.05281 1.33184   2
  -1   8   7 6.34775 1.44656   4
  -1   8   7 7.62173 1.39009   8
  -1   8   7 8.01266 1.56649   1
   0  -8  -7 11.2682 1.49232   8
   0  -8  -7 11.2227 1.61257   2
   0  -8  -7 9.63679 1.48500   7
   0   8   7 10.1128 1.74249   4
   0   8   7 9.77660 1.31378   6
   0   8   7 10.0933 1.71726   1
   0   8   7 9.85178 1.44938   8
   0   8   7 11.4035 1.92200   9
  -1  -8  -7 0.39565 0.59382   7
  -1  -8  -7 0.05285 0.39314   2
  -1  -8  -7 0.54598 0.44215   8
   1   8   7 -0.1495 0.49852   4
   1   8   7 0.62615 0.63786   1
   1   8   7 1.08807 0.53945   9
   1   8   7 0.22549 0.29960   6
  -2  -8  -7 58.2923 3.32745   8
  -2  -8  -7 65.0909 3.88866   7
  -2  -8  -7 58.1401 3.64648   2
   2   8   7 47.3429 3.59044   4
   2   8   7 57.6348 3.57372   6
   2   8   7 58.6457 4.21635   9
   2   8   7 56.8515 3.88919   1
  -3  -8  -7 37.5457 2.74607   2
  -3  -8  -7 37.2393 2.90679   7
   3   8   7 36.9016 2.76924   6
   3   8   7 42.8218 3.33147   9
   3   8   7 37.3235 2.97950   1
  -4  -8  -7 0.41050 0.68586   7
  -4  -8  -7 2.38654 0.75056   3
  -4  -8  -7 1.11653 0.56210   2
   4   8   7 2.13538 0.88107   9
   4   8   7 0.79875 0.69845   6
   4   8   7 0.36705 0.66760   1
  -5  -8  -7 22.9879 2.21829   3
  -5  -8  -7 27.8449 2.30610   2
  -5  -8  -7 24.2957 2.87352   7
   5   8   7 25.3132 1.99296   5
   5   8   7 26.0756 2.33225   6
   5   8   7 31.1374 2.54551   1
   5   8   7 34.1531 3.32901   9
  -6  -8  -7 3.90625 1.30113   7
  -6  -8  -7 3.82463 1.06089   3
  -6  -8  -7 5.18721 1.09288   2
   6   8   7 2.85743 0.83001   5
   6   8   7 3.52177 1.07494   1
   6   8   7 3.28141 1.33132   6
  -7  -8  -7 5.51231 1.52151   7
  -7  -8  -7 5.12256 1.21495   2
  -7  -8  -7 4.49659 1.25772   3
   7   8   7 8.03844 1.39972   5
   7   8   7 4.90671 1.43116   1
   7   8   7 6.67448 1.73503   6
  -8  -8  -7 11.0748 2.01725   3
  -8  -8  -7 9.00587 2.05688   7
   8   8   7 10.3647 2.09968   6
   8   8   7 12.9031 1.83227   5
   4  -9  -7 32.4483 3.21893   8
   4  -9  -7 26.6402 3.01305   2
   4  -9  -7 26.4678 2.87865   7
  -4   9   7 29.4425 3.48228   1
  -4   9   7 24.7471 2.89491   8
  -4   9   7 23.6049 3.29229   4
   3  -9  -7 8.23643 1.63729   7
   3  -9  -7 11.5551 1.81398   8
   3  -9  -7 8.79469 1.66479   2
  -3   9   7 9.50735 1.70662   8
  -3   9   7 12.3401 2.15068   1
  -3   9   7 7.96693 1.91473   4
   2  -9  -7 14.3645 1.93987   2
   2  -9  -7 8.00141 1.45484   8
   2  -9  -7 14.5734 1.99421   7
  -2   9   7 10.7496 2.03950   4
  -2   9   7 14.4549 2.24182   1
  -2   9   7 11.1515 1.71578   8
   1  -9  -7 1.05629 0.77118   7
   1  -9  -7 2.22760 0.79609   2
   1  -9  -7 1.71140 0.66988   8
  -1   9   7 1.54185 0.75999   8
  -1   9   7 1.59849 0.83811   4
  -1   9   7 3.08194 1.03696   1
   0  -9  -7 -0.2007 0.32089   8
   0  -9  -7 0.45520 0.55357   7
   0  -9  -7 0.03302 0.31734   2
   0   9   7 0.50874 0.44591   8
   0   9   7 0.45935 0.45989   4
   0   9   7 1.48909 0.79357   1
  -1  -9  -7 4.24557 0.97752   2
  -1  -9  -7 3.97708 1.12277   7
  -1  -9  -7 3.56954 0.83800   8
   1   9   7 6.26206 1.11333   6
   1   9   7 4.79191 1.20871   1
   1   9   7 5.13030 1.28072   4
  -2  -9  -7 53.1875 3.39351   2
  -2  -9  -7 49.2417 3.48332   7
   2   9   7 52.0277 3.69764   1
   2   9   7 45.3683 3.16680   6
   2   9   7 42.9193 3.32480   4
  -3  -9  -7 8.74853 1.63836   7
  -3  -9  -7 9.47330 1.45892   2
   3   9   7 7.87651 1.43720   6
   3   9   7 8.14126 1.53824   1
  -4  -9  -7 1.07185 0.62883   2
  -4  -9  -7 0.98397 0.69750   7
   4   9   7 0.52552 0.75815   1
   4   9   7 0.30919 0.66384   6
  -5  -9  -7 1.51251 0.87410   3
  -5  -9  -7 2.26510 0.80510   2
  -5  -9  -7 3.80885 1.28340   7
   5   9   7 3.29713 1.01984   1
   5   9   7 2.26809 1.00255   6
  -6  -9  -7 38.2834 3.43051   7
  -6  -9  -7 32.3250 2.94469   3
  -6  -9  -7 35.6572 2.77808   2
   6   9   7 32.4667 2.76432   5
   6   9   7 32.4170 2.88150   1
   6   9   7 30.1171 2.77211   6
  -7  -9  -7 -0.0603 0.82819   3
  -7  -9  -7 0.40056 0.80749   7
   7   9   7 -0.5553 0.91226   6
   7   9   7 -0.2277 0.94187   1
   7   9   7 0.86234 0.73349   5
  -8  -9  -7 7.85890 1.80981   3
   8   9   7 5.99669 1.34468   5
   4 -10  -7 8.63761 1.82187   7
   4 -10  -7 5.43417 1.67039   8
  -4  10   7 8.47383 1.89534   1
   3 -10  -7 1.75790 0.88029   2
   3 -10  -7 -0.0904 0.75216   8
   3 -10  -7 2.17233 1.09518   7
  -3  10   7 0.87753 0.85933   4
  -3  10   7 1.76533 0.83106   1
  -3  10   7 1.01551 0.93122   8
   2 -10  -7 8.05889 1.58393   7
   2 -10  -7 5.91860 1.23731   8
   2 -10  -7 6.47733 1.39801   2
  -2  10   7 5.25725 1.60263   4
  -2  10   7 9.27370 1.77965   1
  -2  10   7 7.30764 1.43705   8
   1 -10  -7 -0.1174 0.45788   2
   1 -10  -7 0.29356 0.49321   7
   1 -10  -7 -0.1919 0.41837   8
  -1  10   7 -0.7046 0.54345   4
  -1  10   7 -0.9351 0.54138   8
  -1  10   7 0.66860 0.51618   1
   0 -10  -7 0.25298 0.51869   8
   0 -10  -7 0.36807 0.67429   7
   0 -10  -7 0.22759 0.61645   2
   0  10   7 0.56201 0.48834   1
   0  10   7 0.81627 0.76765   4
   0  10   7 -0.0386 0.38746   8
  -1 -10  -7 0.94532 0.75449   7
  -1 -10  -7 -0.3096 0.50588   2
   1  10   7 1.59415 0.78428   1
   1  10   7 -0.5516 0.54628   4
  -2 -10  -7 6.32089 1.26913   2
  -2 -10  -7 5.38660 1.26760   7
   2  10   7 5.74517 1.11867   6
   2  10   7 6.51171 1.42161   1
   2  10   7 6.30011 1.36780   4
  -3 -10  -7 7.58257 1.49850   7
  -3 -10  -7 8.41887 1.40254   2
   3  10   7 5.49523 1.27357   6
   3  10   7 6.29558 1.40732   1
  -4 -10  -7 11.1380 1.68514   2
  -4 -10  -7 12.7736 2.11819   7
   4  10   7 14.9275 2.20733   1
   4  10   7 9.32106 1.74161   6
  -5 -10  -7 7.50255 1.35101   2
  -5 -10  -7 10.7285 2.00133   7
   5  10   7 8.13948 1.72168   6
   5  10   7 8.37201 1.67724   1
  -6 -10  -7 54.3053 4.43539   7
   6  10   7 56.8277 4.03296   6
  -7 -10  -7 20.4806 3.15980   7
  -7 -10  -7 24.8800 3.07842   3
   7  10   7 28.6590 3.26842   1
   7  10   7 25.7628 3.22634   6
   3 -11  -7 6.19494 1.54976   7
   3 -11  -7 5.08980 1.33664   8
  -3  11   7 3.86192 1.32914   8
  -3  11   7 6.23097 1.56162   1
   2 -11  -7 47.7592 3.64431   7
   2 -11  -7 47.0280 3.57640   2
   2 -11  -7 35.9139 3.14843   8
  -2  11   7 34.8826 3.57378   4
  -2  11   7 45.0010 3.79930   1
   1 -11  -7 11.3586 1.84318   2
   1 -11  -7 10.6823 1.64059   8
   1 -11  -7 13.7675 2.07923   7
  -1  11   7 8.72852 1.80330   1
  -1  11   7 11.7596 1.82282   8
  -1  11   7 8.16431 1.79474   4
   0 -11  -7 0.50591 0.76896   7
   0 -11  -7 0.71357 0.56584   2
   0  11   7 0.10307 0.49250   4
   0  11   7 0.75786 0.51148   1
  -1 -11  -7 27.5516 2.43628   2
  -1 -11  -7 26.3940 2.94435   7
   1  11   7 28.4771 2.74386   4
   1  11   7 28.3098 2.79559   1
  -2 -11  -7 8.46091 1.67208   7
  -2 -11  -7 8.38224 1.45441   2
   2  11   7 7.04587 1.57645   1
  -3 -11  -7 5.06748 1.14317   2
  -3 -11  -7 4.42482 1.28061   7
   3  11   7 4.70332 1.28959   1
   3  11   7 2.98149 1.10818   6
  -4 -11  -7 -0.4350 0.82091   7
  -4 -11  -7 0.43873 0.55152   2
   4  11   7 1.37032 1.02735   1
   4  11   7 -0.2036 0.63197   6
  -5 -11  -7 3.28594 1.44561   7
   5  11   7 6.36254 1.58522   1
   5  11   7 3.20095 1.20042   6
  -6 -11  -7 8.91618 2.34757   7
   6  11   7 9.21524 1.85277   6
   6  11   7 10.4215 2.08007   1
   1 -12  -7 42.1346 3.43558   7
   1 -12  -7 35.0285 3.14965   2
  -1  12   7 31.3103 3.82859   4
  -1  12   7 36.7098 3.42232   1
   0 -12  -7 36.3172 3.23507   7
   0  12   7 32.2113 3.12889   1
   0  12   7 29.1769 3.52720   4
  -1 -12  -7 -0.1115 0.71491   2
  -1 -12  -7 0.48519 0.85797   7
   1  12   7 2.59010 0.95540   1
   1  12   7 0.49104 0.54460   4
  -2 -12  -7 0.55452 0.74044   2
  -2 -12  -7 -0.1059 0.85266   7
   2  12   7 2.51760 0.96510   1
  -3 -12  -7 3.95333 1.17305   2
  -3 -12  -7 3.16044 1.38743   7
   3  12   7 8.41013 1.71788   1
  -4 -12  -7 3.36005 1.43174   7
   4  12   7 4.76646 1.35941   1
   4  12   7 4.17946 1.40025   6
   1  10  -8 -2.0169 1.00384   1
  -1 -10   8 -0.1501 0.99852   3
  -1 -10   8 -0.4746 0.95605   5
   0  10  -8 28.1175 3.67443   4
   0  10  -8 30.5818 2.97509   1
   0 -10   8 30.0953 3.51030   3
   0 -10   8 28.8243 3.30344   5
  -1  10  -8 -1.9995 1.41036   4
   1 -10   8 0.42063 0.75412   3
   1 -10   8 0.85210 0.81797   5
  -2  10  -8 17.4097 3.06159   4
  -2  10  -8 19.6290 2.32000   8
   2 -10   8 22.0022 3.02095   3
   2 -10   8 21.4980 2.72832   5
  -3  10  -8 24.0184 2.64945   8
  -3  10  -8 18.1275 3.09397   4
   3 -10   8 20.1393 2.69690   5
   3 -10   8 23.7842 3.09928   3
  -4  10  -8 1.31045 1.51509   4
  -4  10  -8 1.50645 0.99817   8
   4 -10   8 1.53123 1.24285   3
   4 -10   8 0.27199 0.73067   5
   2   9  -8 1.81490 1.35350   1
   2   9  -8 3.18733 1.02391   6
   2   9  -8 1.05864 1.31018   4
  -2  -9   8 1.70899 0.93709   5
  -2  -9   8 2.25339 1.27937   3
  -2  -9   8 2.98441 1.04844   6
   1   9  -8 -0.6499 0.60847   1
   1   9  -8 1.64336 0.75784   6
   1   9  -8 -0.8317 0.85711   4
  -1  -9   8 0.87466 0.72894   5
  -1  -9   8 0.08524 0.61488   3
  -1  -9   8 0.00906 0.81871   6
   0   9  -8 -2.0002 1.18179   4
   0   9  -8 -1.2524 0.80367   1
   0  -9   8 0.15641 0.52567   5
   0  -9   8 -0.1667 0.76713   3
  -1   9  -8 4.24287 1.80501   4
  -1   9  -8 6.42225 1.32031   8
   1  -9   8 6.20494 1.53282   3
  -2   9  -8 9.48259 2.32076   4
  -2   9  -8 10.3721 1.66176   8
   2  -9   8 11.3732 1.88748   5
   2  -9   8 12.8776 2.18729   3
  -3   9  -8 3.01735 1.40697   4
  -3   9  -8 4.57195 1.19472   8
   3  -9   8 7.37890 1.65643   3
   3  -9   8 6.10732 1.35813   5
  -4   9  -8 -1.3297 1.15195   4
  -4   9  -8 0.33646 0.74008   8
   4  -9   8 1.36747 0.93374   5
   4  -9   8 0.92183 1.03193   3
  -5   9  -8 0.33014 0.63832   8
  -5   9  -8 0.04189 0.74900   4
   5  -9   8 -0.0195 1.00552   3
   5  -9   8 0.35882 0.89677   5
  -6   9  -8 0.57171 0.93351   4
   3   8  -8 4.73136 1.61748   4
   3   8  -8 5.44516 1.76809   1
   3   8  -8 7.45462 1.52250   6
  -3  -8   8 4.12519 1.41222   3
  -3  -8   8 5.09467 1.37428   6
  -3  -8   8 4.66580 1.50266   5
   2   8  -8 81.2499 5.82492   4
   2   8  -8 88.7854 5.38422   6
   2   8  -8 86.3180 5.63339   1
  -2  -8   8 77.0195 5.21736   6
  -2  -8   8 82.6845 5.48615   5
   1   8  -8 13.1563 2.28008   4
   1   8  -8 12.3903 2.06707   1
  -1  -8   8 10.2993 1.88031   3
  -1  -8   8 13.1837 1.93927   6
  -1  -8   8 12.3088 2.00469   5
   0   8  -8 17.7951 2.34278   1
   0   8  -8 14.8843 2.46063   4
   0  -8   8 19.7106 2.20084   6
   0  -8   8 15.5605 2.23213   5
   0  -8   8 17.6286 2.41457   3
  -1   8  -8 0.40949 0.79113   1
  -1   8  -8 0.71039 0.71961   8
  -1   8  -8 -0.4370 0.73119   4
   1  -8   8 1.46990 0.95199   3
   1  -8   8 1.51377 0.88327   5
  -2   8  -8 2.83551 0.95014   8
  -2   8  -8 3.97644 1.62117   4
   2  -8   8 5.19970 1.38901   5
   2  -8   8 5.06614 1.30581   3
  -3   8  -8 -0.0574 0.45698   8
  -3   8  -8 -1.0763 0.72740   4
   3  -8   8 -0.1321 0.71089   3
   3  -8   8 1.36396 0.81295   5
  -4   8  -8 0.99245 0.67940   8
  -4   8  -8 0.44795 0.94654   4
   4  -8   8 1.03454 0.82156   3
   4  -8   8 0.50800 0.81815   5
  -5   8  -8 0.76809 0.75391   8
  -5   8  -8 1.41312 1.24684   4
   5  -8   8 2.39845 0.88779   5
   5  -8   8 0.77212 1.00727   3
  -6   8  -8 23.2484 2.73118   8
  -6   8  -8 19.7794 2.69050   4
   6  -8   8 20.5111 2.57886   5
   6  -8   8 20.4398 2.88044   3
  -7   8  -8 -0.1769 0.98180   2
   4   7  -8 0.49795 0.61372   6
   4   7  -8 -0.4263 0.92902   1
   4   7  -8 -0.2883 0.80206   4
  -4  -7   8 0.12060 0.62185   5
  -4  -7   8 -0.4615 0.57968   6
   3   7  -8 1.20421 0.66658   6
   3   7  -8 -1.1251 0.94877   4
   3   7  -8 0.62004 0.78147   1
  -3  -7   8 -0.1571 0.51742   6
  -3  -7   8 -0.7098 0.52650   5
  -3  -7   8 0.65841 0.85285   3
   2   7  -8 11.2107 1.93878   1
   2   7  -8 12.8350 2.21437   4
  -2  -7   8 11.5407 2.00263   5
  -2  -7   8 13.4780 2.04315   3
  -2  -7   8 13.2217 1.96774   6
   1   7  -8 1.58751 0.99241   1
   1   7  -8 1.45032 0.97020   4
  -1  -7   8 -0.4373 0.62105   3
  -1  -7   8 0.41698 0.71645   6
  -1  -7   8 0.57985 0.79934   5
   0   7  -8 25.4444 2.14397   8
   0   7  -8 29.0145 2.54031   1
   0   7  -8 26.0999 3.06290   4
   0  -7   8 26.5909 2.28632   6
   0  -7   8 24.0270 2.72537   5
   0  -7   8 29.5067 2.52700   3
  -1   7  -8 0.96394 0.79822   1
  -1   7  -8 1.62583 0.78027   8
  -1   7  -8 2.20284 1.02826   9
  -1   7  -8 1.63293 1.02814   4
   1  -7   8 1.98831 0.82636   5
   1  -7   8 1.17060 0.76304   3
   1  -7   8 1.39997 0.77006   6
  -2   7  -8 0.58732 0.69682   8
  -2   7  -8 0.24009 1.10776   4
   2  -7   8 2.31436 0.95071   3
   2  -7   8 1.05971 0.78641   5
  -3   7  -8 60.0318 3.69650   8
  -3   7  -8 51.0549 4.08263   4
   3  -7   8 53.9263 3.87792   5
   3  -7   8 57.9793 3.97698   3
  -4   7  -8 27.1474 2.29389   8
  -4   7  -8 21.6013 2.81280   4
   4  -7   8 27.2093 2.43590   5
   4  -7   8 30.6417 2.67204   3
  -5   7  -8 8.65035 1.59988   2
  -5   7  -8 6.74217 1.71069   4
  -5   7  -8 6.68831 1.42222   8
   5  -7   8 8.32299 1.53492   5
   5  -7   8 9.74886 1.80761   3
  -6   7  -8 0.19585 0.89838   4
  -6   7  -8 0.90058 0.66757   8
  -6   7  -8 0.20905 0.91424   2
   6  -7   8 0.59512 0.94882   3
   6  -7   8 -0.1187 0.60949   5
  -7   7  -8 18.4298 2.42937   8
  -7   7  -8 20.1862 2.78354   2
   7  -7   8 20.3659 2.72331   7
   7  -7   8 23.6293 2.66526   5
   7  -7   8 18.2499 2.74425   3
   5   6  -8 3.15133 1.49775   4
  -5  -6   8 2.00395 1.20838   5
   4   6  -8 5.82466 1.57288   1
   4   6  -8 5.43510 1.32837   6
   4   6  -8 5.51146 1.50924   4
  -4  -6   8 4.91280 1.38941   5
  -4  -6   8 5.86816 1.45187   6
   3   6  -8 2.25155 1.23603   4
   3   6  -8 0.10772 0.89654   1
  -3  -6   8 2.43648 1.00060   3
  -3  -6   8 0.85805 0.72561   5
  -3  -6   8 3.05191 1.01681   6
   2   6  -8 70.4622 4.74357   4
   2   6  -8 71.3957 4.65048   1
  -2  -6   8 53.9104 4.01071   3
  -2  -6   8 63.5834 4.23926   6
  -2  -6   8 58.0861 4.17938   5
   1   6  -8 5.73149 1.09142   8
   1   6  -8 6.68529 1.38488   1
   1   6  -8 7.51601 1.70181   4
  -1  -6   8 7.28943 1.43933   3
  -1  -6   8 3.90985 1.04423   6
  -1  -6   8 5.47166 1.31744   5
   0   6  -8 15.7123 2.23952   9
   0   6  -8 13.3356 1.85747   1
   0   6  -8 10.3385 1.88681   4
   0   6  -8 12.7449 1.58110   8
   0  -6   8 13.7691 1.92936   5
   0  -6   8 12.5921 1.72199   6
   0  -6   8 13.8367 1.85067   3
  -1   6  -8 38.9571 3.27643   4
  -1   6  -8 44.3370 3.01274   1
  -1   6  -8 35.2469 2.70950   8
  -1   6  -8 43.2614 3.28236   9
   1  -6   8 41.8570 2.91030   6
   1  -6   8 41.7284 3.10630   5
   1  -6   8 40.7208 3.02918   3
  -2   6  -8 4.37760 1.28675   4
  -2   6  -8 7.35806 1.36778   1
  -2   6  -8 5.89179 1.08970   8
   2  -6   8 6.57807 1.34258   5
   2  -6   8 6.89903 1.29661   3
   2  -6   8 6.90863 1.17992   6
  -3   6  -8 88.8000 5.37950   4
  -3   6  -8 78.3194 4.82571   8
   3  -6   8 88.9262 5.22362   3
   3  -6   8 84.3791 5.14700   5
  -4   6  -8 1.35659 0.63869   8
  -4   6  -8 2.02484 0.81336   2
  -4   6  -8 0.14303 0.73927   4
   4  -6   8 1.65588 0.72935   3
   4  -6   8 2.60808 0.97420   5
  -5   6  -8 36.7251 2.78798   8
  -5   6  -8 31.9275 2.77183   4
  -5   6  -8 33.2346 2.80131   2
   5  -6   8 36.6032 2.94095   3
   5  -6   8 31.4417 2.66946   5
  -6   6  -8 1.10197 0.92421   2
  -6   6  -8 -0.3685 0.59336   8
   6  -6   8 -0.1725 0.65990   5
   6  -6   8 0.30385 0.65647   3
   6  -6   8 0.07787 0.68717   7
  -7   6  -8 0.61054 0.63762   8
  -7   6  -8 -0.7046 0.77302   2
   7  -6   8 0.06786 0.77143   7
   7  -6   8 -0.0083 0.86006   3
   7  -6   8 1.28568 0.74159   5
  -8   6  -8 11.0387 1.94541   8
  -8   6  -8 12.4968 2.22965   2
   8  -6   8 9.06704 1.73550   5
   8  -6   8 10.2901 1.89744   7
   8  -6   8 12.5127 2.25832   3
   5   5  -8 9.84063 2.20927   1
   5   5  -8 12.7574 2.34562   4
   5   5  -8 10.6824 1.93098   6
  -5  -5   8 8.78359 1.78065   5
  -5  -5   8 8.06560 1.89084   6
   4   5  -8 13.6975 2.36333   1
   4   5  -8 10.1699 2.03296   4
  -4  -5   8 9.73930 1.75928   5
  -4  -5   8 10.6250 1.91294   6
   3   5  -8 -0.0117 0.63769   1
   3   5  -8 -0.0329 0.64889   4
  -3  -5   8 -0.0562 0.49955   6
  -3  -5   8 -0.2775 0.65013   5
   2   5  -8 17.3405 1.76409   8
   2   5  -8 13.6184 2.16393   4
   2   5  -8 10.9901 1.93715   1
  -2  -5   8 13.2991 1.91161   5
  -2  -5   8 12.1881 1.82069   6
  -2  -5   8 11.4103 1.66204   3
   1   5  -8 6.59078 1.42676   4
   1   5  -8 7.09402 1.64660   9
   1   5  -8 7.21356 1.49220   1
   1   5  -8 8.91206 1.27534   8
  -1  -5   8 8.26875 1.38242   3
  -1  -5   8 6.53459 1.30760   6
  -1  -5   8 6.93079 1.32985   5
   0   5  -8 0.62206 0.48054   8
   0   5  -8 1.11917 0.67062   9
   0   5  -8 1.26864 0.72357   1
   0   5  -8 2.31042 0.97052   4
   0  -5   8 1.77941 0.78194   6
   0  -5   8 0.98052 0.52009   3
   0  -5   8 1.36330 0.73903   5
  -1   5  -8 5.10537 1.24823   4
  -1   5  -8 5.26062 1.04958   8
  -1   5  -8 7.41940 1.30673   1
  -1   5  -8 6.18368 1.32932   9
   1  -5   8 4.24165 1.04535   3
   1  -5   8 6.57369 1.13980   6
   1  -5   8 5.48426 1.24304   5
  -2   5  -8 8.87635 1.27782   1
  -2   5  -8 7.01046 1.29148   9
  -2   5  -8 7.89138 1.42394   4
  -2   5  -8 7.12356 1.14635   8
   2  -5   8 9.52061 1.44275   3
   2  -5   8 7.32210 1.34192   5
   2  -5   8 6.76004 1.17457   6
  -3   5  -8 11.9839 1.54156   8
  -3   5  -8 13.5148 1.87501   4
  -3   5  -8 16.5492 1.76933   2
   3  -5   8 13.1368 1.80794   3
   3  -5   8 16.8353 1.98182   5
   3  -5   8 14.5098 1.62770   6
  -4   5  -8 6.87817 1.49025   4
  -4   5  -8 9.31073 1.45958   2
  -4   5  -8 7.15559 1.20282   8
   4  -5   8 8.69907 1.47150   3
   4  -5   8 5.50198 1.20087   5
  -5   5  -8 95.1021 5.76009   4
  -5   5  -8 101.312 5.69331   8
  -5   5  -8 105.091 5.93149   2
   5  -5   8 108.925 5.79038   7
   5  -5   8 100.532 5.92191   3
   5  -5   8 98.1367 5.80730   5
  -6   5  -8 1.39249 0.90907   2
  -6   5  -8 -0.2061 0.71450   7
  -6   5  -8 0.84397 0.59236   8
   6  -5   8 0.71073 0.78190   7
   6  -5   8 0.63285 0.71885   5
   6  -5   8 1.54380 0.88812   3
  -7   5  -8 0.35094 0.62224   2
  -7   5  -8 0.42650 0.94229   7
  -7   5  -8 0.93345 0.73908   8
   7  -5   8 0.63625 0.67158   3
   7  -5   8 1.81028 0.98761   5
   7  -5   8 -0.1058 0.79270   7
  -8   5  -8 4.43765 1.28082   8
  -8   5  -8 6.09651 1.66664   2
  -8   5  -8 4.25562 1.59064   7
   8  -5   8 5.80122 1.48814   5
   8  -5   8 6.40851 1.55570   3
   8  -5   8 6.21261 1.61745   7
   5   4  -8 11.8557 2.15974   4
   5   4  -8 11.7332 2.23892   1
  -5  -4   8 15.0285 2.54222   1
  -5  -4   8 9.40737 1.75753   5
  -5  -4   8 11.5736 1.97760   6
   4   4  -8 0.98974 0.93930   4
   4   4  -8 0.73368 0.78312   1
  -4  -4   8 0.66939 0.81208   1
  -4  -4   8 -0.2914 0.64808   6
  -4  -4   8 0.14103 0.52432   5
   3   4  -8 0.71703 0.57089   8
   3   4  -8 -0.0137 0.55578   4
   3   4  -8 0.86980 0.75862   1
  -3  -4   8 1.18545 0.71047   6
  -3  -4   8 -0.7418 0.54354   5
  -3  -4   8 0.78638 0.73424   1
   2   4  -8 63.7580 4.22963   1
   2   4  -8 57.2624 3.47233   8
   2   4  -8 54.5503 4.10703   4
  -2  -4   8 53.2102 3.76138   5
  -2  -4   8 51.3128 3.55306   3
  -2  -4   8 59.4108 3.92216   6
  -2  -4   8 61.0733 4.25820   1
   1   4  -8 1.80547 0.66741   8
   1   4  -8 2.84022 0.97589   4
   1   4  -8 2.70752 1.01278   1
   1   4  -8 2.15564 0.93058   9
  -1  -4   8 2.25408 1.01790   1
  -1  -4   8 1.18780 0.54942   3
  -1  -4   8 1.03325 0.67466   6
  -1  -4   8 0.97499 0.69499   5
   0   4  -8 132.784 7.06599   1
   0   4  -8 128.694 7.18503   4
   0   4  -8 132.923 6.65426   8
   0   4  -8 138.188 7.55628   9
   0  -4   8 140.830 7.21885   1
   0  -4   8 129.794 6.94026   6
   0  -4   8 117.689 6.63235   3
   0  -4   8 114.484 6.83014   5
  -1   4  -8 310.916 14.3826   4
  -1   4  -8 285.792 14.0244   1
  -1   4  -8 290.039 13.8185   8
  -1   4  -8 302.758 14.5096   9
   1  -4   8 279.680 14.1044   5
   1  -4   8 282.448 14.0143   6
   1  -4   8 277.575 13.8625   3
   1  -4   8 318.740 14.2378   1
  -2   4  -8 17.3429 1.44574   2
  -2   4  -8 17.7872 1.75860   4
  -2   4  -8 18.6287 1.77699   9
  -2   4  -8 14.9984 1.46343   1
  -2   4  -8 16.2242 1.72682   8
   2  -4   8 16.7459 1.87056   3
   2  -4   8 15.6509 1.75701   6
   2  -4   8 15.1632 1.83298   5
  -3   4  -8 184.090 8.80593   2
  -3   4  -8 175.748 8.80484   8
  -3   4  -8 185.359 9.09263   4
   3  -4   8 161.802 8.83529   3
   3  -4   8 180.267 8.81956   6
   3  -4   8 174.923 8.99404   5
  -4   4  -8 34.1012 2.69305   4
  -4   4  -8 32.8091 2.55072   2
  -4   4  -8 32.0673 2.44589   8
   4  -4   8 34.7926 2.65518   3
   4  -4   8 35.2898 2.41980   6
   4  -4   8 40.0734 2.74036   5
   4  -4   8 37.6183 2.56102   7
  -5   4  -8 81.0355 4.76988   8
  -5   4  -8 84.2714 4.87478   4
  -5   4  -8 77.9311 4.89375   2
  -5   4  -8 88.0505 5.12057   7
   5  -4   8 86.0959 4.94964   5
   5  -4   8 75.8891 4.90317   3
   5  -4   8 89.4909 4.91792   7
  -6   4  -8 0.05587 0.63118   7
  -6   4  -8 1.04554 0.72198   8
  -6   4  -8 1.03079 0.67808   2
   6  -4   8 0.62472 0.58549   7
   6  -4   8 0.49546 0.70685   3
   6  -4   8 0.58402 0.57121   5
  -7   4  -8 14.7828 2.35455   7
  -7   4  -8 18.0654 2.14199   8
  -7   4  -8 9.68622 1.83700   2
   7  -4   8 12.2327 1.91257   3
   7  -4   8 14.7313 2.15334   7
   7  -4   8 10.9924 1.74050   5
  -8   4  -8 4.33536 1.41012   2
  -8   4  -8 2.26345 1.22914   7
  -8   4  -8 2.79220 0.99740   8
   8  -4   8 2.89043 0.96736   5
   8  -4   8 2.39839 1.05890   3
   8  -4   8 3.79646 1.36644   7
  -9   4  -8 3.97782 1.35080   2
  -9   4  -8 5.19603 1.35886   8
  -9   4  -8 3.93653 1.80663   7
   9  -4   8 3.07480 1.48353   7
   9  -4   8 5.05717 1.59883   3
   9  -4   8 4.72651 1.39482   5
   6   3  -8 3.55729 1.14450   6
   6   3  -8 3.11006 1.39229   4
   6   3  -8 3.49055 1.50483   1
  -6  -3   8 1.70977 1.19614   6
  -6  -3   8 2.43605 1.54486   1
  -6  -3   8 2.28865 1.03147   5
   5   3  -8 -0.0805 0.65103   1
   5   3  -8 0.24463 0.71691   4
  -5  -3   8 0.14698 0.59329   6
  -5  -3   8 -0.3250 0.59740   1
  -5  -3   8 -0.0918 0.61699   5
   4   3  -8 0.59277 0.84606   1
   4   3  -8 -0.1998 0.52126   4
  -4  -3   8 -0.1044 0.48779   6
  -4  -3   8 0.12209 0.48923   5
  -4  -3   8 1.07321 1.04830   1
   3   3  -8 1.09717 0.60161   8
   3   3  -8 1.14144 0.78270   4
   3   3  -8 2.42004 1.03836   1
  -3  -3   8 0.70889 0.92550   1
  -3  -3   8 1.37600 0.81115   6
  -3  -3   8 2.04623 0.76472   5
   2   3  -8 2.91788 0.80056   8
   2   3  -8 1.62603 0.90627   1
   2   3  -8 1.92778 1.09785   9
   2   3  -8 1.84014 0.87705   4
  -2  -3   8 2.96332 0.95421   6
  -2  -3   8 3.15392 0.87908   5
  -2  -3   8 2.94015 1.06017   1
   1   3  -8 36.0988 2.34107   8
   1   3  -8 34.9931 3.08003   9
   1   3  -8 34.1312 2.71552   1
   1   3  -8 25.2495 2.52091   4
  -1  -3   8 32.7191 2.27959   3
  -1  -3   8 28.9193 2.42204   5
  -1  -3   8 34.6895 2.79499   1
  -1  -3   8 33.1039 2.59490   6
   0   3  -8 4.52373 1.01142   1
   0   3  -8 3.91049 0.84579   8
   0   3  -8 3.58235 1.06601   4
   0   3  -8 4.80707 1.26424   9
   0  -3   8 2.58516 0.82910   1
   0  -3   8 5.59355 1.06832   5
   0  -3   8 4.50394 0.84653   3
   0  -3   8 5.79417 1.11615   6
  -1   3  -8 166.508 8.29550   8
  -1   3  -8 163.198 8.51584   1
  -1   3  -8 172.808 8.96736   9
  -1   3  -8 176.120 8.09696   2
  -1   3  -8 171.811 8.72582   4
   1  -3   8 162.559 8.23365   3
   1  -3   8 178.622 8.67974   1
   1  -3   8 157.738 8.49829   5
   1  -3   8 164.440 8.53129   6
  -2   3  -8 2.63817 0.80672   9
  -2   3  -8 2.17822 0.61770   2
  -2   3  -8 2.02597 0.69485   4
  -2   3  -8 1.62330 0.58739   8
  -2   3  -8 2.58831 0.71545   1
   2  -3   8 1.91109 0.69810   5
   2  -3   8 1.83736 0.64107   6
   2  -3   8 1.83625 0.60945   3
   2  -3   8 2.45073 0.70319   1
  -3   3  -8 6.48136 1.03451   8
  -3   3  -8 6.41618 1.05880   2
  -3   3  -8 6.89474 1.22822   4
   3  -3   8 5.63703 1.03270   3
   3  -3   8 7.68122 1.22846   5
   3  -3   8 6.61438 1.06047   6
   3  -3   8 7.08782 1.00902   1
  -4   3  -8 27.6558 2.14393   2
  -4   3  -8 26.2671 1.99144   8
  -4   3  -8 22.8285 1.98250   7
  -4   3  -8 24.8311 2.09379   4
   4  -3   8 26.1080 1.98328   6
   4  -3   8 28.5906 2.00302   7
   4  -3   8 22.2868 2.02663   5
   4  -3   8 21.6434 1.92000   3
  -5   3  -8 21.0782 1.83110   8
  -5   3  -8 18.0103 2.05128   2
  -5   3  -8 16.8277 1.94770   4
  -5   3  -8 20.1968 2.24200   7
   5  -3   8 16.7231 1.98252   5
   5  -3   8 20.4502 2.12737   7
   5  -3   8 17.5802 1.63493   6
   5  -3   8 19.2478 2.09420   3
  -6   3  -8 8.26461 1.48220   2
  -6   3  -8 8.39830 1.31352   8
  -6   3  -8 9.32156 1.68827   7
   6  -3   8 11.3145 1.68109   5
   6  -3   8 9.62096 1.55288   7
   6  -3   8 6.88515 1.41954   3
  -7   3  -8 7.96729 1.56590   2
  -7   3  -8 15.9968 2.38742   7
  -7   3  -8 10.5885 1.55668   8
   7  -3   8 13.7697 2.02590   7
   7  -3   8 11.3309 1.88582   3
   7  -3   8 12.0785 1.74985   5
  -8   3  -8 2.70262 0.93395   8
  -8   3  -8 2.52330 1.13768   2
  -8   3  -8 2.70645 1.29210   7
   8  -3   8 3.82110 1.27687   3
   8  -3   8 0.67659 0.93307   5
   8  -3   8 4.43606 1.36707   7
  -9   3  -8 10.7462 2.17367   2
  -9   3  -8 9.53608 1.62143   8
  -9   3  -8 9.67019 2.14809   7
   9  -3   8 13.7639 2.23599   3
   9  -3   8 10.5491 2.00768   7
   9  -3   8 12.2447 1.89156   5
   6   2  -8 0.10459 0.67240   4
   6   2  -8 -0.2247 0.90091   1
  -6  -2   8 0.73157 0.88916   6
  -6  -2   8 0.03957 0.99539   1
  -6  -2   8 0.65068 0.61075   5
   5   2  -8 25.8216 3.38411   4
   5   2  -8 25.2754 3.23589   1
  -5  -2   8 25.8460 2.79325   5
  -5  -2   8 33.9160 3.29680   1
  -5  -2   8 28.9467 3.14490   6
   4   2  -8 5.01597 1.29925   1
   4   2  -8 7.81916 1.67910   4
   4   2  -8 1.82767 0.82042   8
  -4  -2   8 5.11650 1.40633   1
  -4  -2   8 6.75223 1.31316   5
  -4  -2   8 4.58172 1.29106   6
   3   2  -8 0.37573 0.60847   4
   3   2  -8 0.43802 0.49715   8
   3   2  -8 0.44805 0.70787   1
  -3  -2   8 0.53572 0.46316   5
  -3  -2   8 0.10572 0.56941   6
  -3  -2   8 1.23921 0.94275   1
   2   2  -8 94.5339 5.99219   4
   2   2  -8 92.6873 5.87516   1
   2   2  -8 92.4943 6.33841   9
   2   2  -8 104.225 5.42137   8
  -2  -2   8 91.7292 5.61256   6
  -2  -2   8 98.7058 5.51285   5
  -2  -2   8 107.178 6.18396   1
  -2  -2   8 109.385 6.78027   9
   1   2  -8 0.45500 0.65625   4
   1   2  -8 0.03580 0.53734   1
   1   2  -8 -0.9326 0.47868   9
   1   2  -8 0.24887 0.45929   8
  -1  -2   8 0.40228 0.44425   6
  -1  -2   8 1.03020 0.81616   9
  -1  -2   8 0.03762 0.61450   1
  -1  -2   8 0.53395 0.41272   5
   0   2  -8 47.1362 3.56740   9
   0   2  -8 49.2256 2.63204   2
   0   2  -8 42.4295 2.78088   8
   0   2  -8 41.9831 3.15404   4
   0   2  -8 42.0976 3.08254   1
   0  -2   8 45.7398 3.23236   1
   0  -2   8 47.8670 3.11425   6
   0  -2   8 46.9451 3.00916   5
   0  -2   8 41.5475 2.63382   3
   0  -2   8 47.8457 3.69176   9
  -1   2  -8 125.580 6.21307   8
  -1   2  -8 134.845 6.98878   9
  -1   2  -8 127.600 6.60331   4
  -1   2  -8 126.961 6.03542   2
  -1   2  -8 107.435 6.31755   1
   1  -2   8 118.473 6.90466   9
   1  -2   8 116.791 6.39623   6
   1  -2   8 120.607 6.34730   5
   1  -2   8 108.593 5.94459   3
   1  -2   8 124.595 6.54440   1
  -2   2  -8 41.3163 2.44193   8
  -2   2  -8 40.7383 2.61576   4
  -2   2  -8 36.3914 2.29323   2
  -2   2  -8 31.7475 2.32830   1
  -2   2  -8 37.2001 2.71042   9
   2  -2   8 35.1012 2.51761   6
   2  -2   8 35.0657 2.44849   5
   2  -2   8 30.4985 2.17318   3
   2  -2   8 34.0641 2.71308   9
   2  -2   8 33.1010 2.41650   1
  -3   2  -8 176.269 8.56603   8
  -3   2  -8 179.013 8.45924   7
  -3   2  -8 183.204 8.65834   2
  -3   2  -8 166.524 8.38352   1
  -3   2  -8 177.743 8.68386   4
  -3   2  -8 173.974 8.69577   9
   3  -2   8 173.355 8.35040   7
   3  -2   8 176.547 8.54391   3
   3  -2   8 168.787 8.67793   5
   3  -2   8 178.506 8.48394   1
   3  -2   8 166.881 8.66932   6
  -4   2  -8 14.9777 1.63901   8
  -4   2  -8 13.2847 1.65033   2
  -4   2  -8 17.6113 1.86972   7
  -4   2  -8 17.5587 1.56083   4
   4  -2   8 15.1809 1.41711   7
   4  -2   8 15.6115 1.74671   5
   4  -2   8 17.8627 1.58175   6
   4  -2   8 15.9507 1.71641   3
  -5   2  -8 16.2913 1.95503   7
  -5   2  -8 12.1532 1.53186   8
  -5   2  -8 11.5462 1.64645   2
   5  -2   8 11.1516 1.54358   3
   5  -2   8 12.8668 1.54064   6
   5  -2   8 15.2851 1.78939   5
   5  -2   8 14.4258 1.68015   7
  -6   2  -8 6.96539 1.50537   7
  -6   2  -8 9.22999 1.57103   2
  -6   2  -8 7.48898 1.24765   8
   6  -2   8 8.88883 1.44615   3
   6  -2   8 10.0323 1.30274   6
   6  -2   8 8.09169 1.33811   5
  -7   2  -8 16.6518 2.34703   7
  -7   2  -8 16.3142 2.16712   2
  -7   2  -8 16.5882 1.90564   8
   7  -2   8 12.5569 1.94149   7
   7  -2   8 17.3669 2.15895   3
   7  -2   8 11.6666 1.77733   5
  -8   2  -8 3.41891 1.10510   2
  -8   2  -8 2.80861 0.84658   8
  -8   2  -8 0.49366 0.89618   7
   8  -2   8 2.64709 0.98804   3
   8  -2   8 1.61978 1.02230   5
   8  -2   8 1.50813 0.99872   7
  -9   2  -8 7.39030 1.81185   2
  -9   2  -8 4.72771 1.19891   8
  -9   2  -8 9.64075 2.10578   7
   9  -2   8 9.36007 1.62887   5
   9  -2   8 5.46418 1.59629   7
   9  -2   8 6.16192 1.62648   3
   6   1  -8 0.26225 1.08359   4
   6   1  -8 0.10029 0.76526   1
  -6  -1   8 0.86326 0.84895   6
  -6  -1   8 -0.4622 0.66391   1
   5   1  -8 2.05501 0.87747   8
   5   1  -8 3.60112 1.21825   1
   5   1  -8 2.70465 1.27937   4
  -5  -1   8 2.06124 0.98589   1
  -5  -1   8 1.77637 0.74014   5
  -5  -1   8 2.10139 1.02925   6
   4   1  -8 39.2993 3.52205   1
   4   1  -8 43.6986 3.70657   4
   4   1  -8 40.6955 3.05379   8
  -4  -1   8 48.5568 3.19498   5
  -4  -1   8 44.2939 3.76611   1
  -4  -1   8 46.5344 3.35088   6
   3   1  -8 77.0605 5.31955   4
   3   1  -8 75.6712 5.16164   1
   3   1  -8 76.1865 6.34718   9
   3   1  -8 83.6837 4.75577   8
  -3  -1   8 88.1643 6.87451   9
  -3  -1   8 80.1386 4.93584   6
  -3  -1   8 87.1873 4.80923   5
  -3  -1   8 82.4734 5.40895   1
   2   1  -8 0.14383 0.52971   9
   2   1  -8 0.91878 0.64200   4
   2   1  -8 0.58474 0.53516   8
  -2  -1   8 1.31939 0.70041   6
  -2  -1   8 0.66629 0.53718   5
  -2  -1   8 1.12314 0.84997   9
  -2  -1   8 0.84827 0.61091   1
   1   1  -8 2.25837 0.71216   8
   1   1  -8 2.58421 0.58118   2
   1   1  -8 3.25302 1.20821   9
   1   1  -8 2.97197 0.93842   4
  -1  -1   8 1.69269 0.67140   6
  -1  -1   8 2.82215 0.95201   1
  -1  -1   8 2.86482 0.75642   5
  -1  -1   8 2.67690 1.09917   9
   0   1  -8 13.6818 1.15537   2
   0   1  -8 16.5928 2.01285   4
   0   1  -8 14.6493 2.10974   9
   0   1  -8 14.0633 1.52897   8
   0  -1   8 14.5659 1.73938   6
   0  -1   8 14.1047 1.79593   3
   0  -1   8 14.9242 2.23742   9
   0  -1   8 12.5182 1.78820   1
   0  -1   8 12.2903 1.47579   5
  -1   1  -8 0.09541 0.36140   8
  -1   1  -8 0.19528 0.41084   9
  -1   1  -8 -0.0177 0.32044   4
  -1   1  -8 0.37734 0.30932   2
   1  -1   8 0.03137 0.36906   5
   1  -1   8 -0.2241 0.42103   6
   1  -1   8 0.19926 0.27552   3
   1  -1   8 0.36045 0.46590   9
   1  -1   8 0.39661 0.42173   1
  -2   1  -8 3.06755 0.68987   2
  -2   1  -8 2.82265 0.73457   4
  -2   1  -8 2.55295 0.82076   9
  -2   1  -8 3.29431 0.67934   8
   2  -1   8 2.58822 0.74516   1
   2  -1   8 1.87410 0.70730   6
   2  -1   8 2.84486 0.74535   5
   2  -1   8 2.05814 0.53725   3
   2  -1   8 2.70728 0.83536   9
  -3   1  -8 154.858 7.06698   4
  -3   1  -8 132.762 7.13340   9
  -3   1  -8 137.482 6.89818   8
  -3   1  -8 143.175 7.02863   2
  -3   1  -8 144.692 6.88788   7
   3  -1   8 129.976 6.87766   1
   3  -1   8 139.489 7.24545   9
   3  -1   8 132.083 6.97711   5
   3  -1   8 134.159 7.08459   6
   3  -1   8 132.757 6.78186   3
  -4   1  -8 190.849 9.03353   4
  -4   1  -8 190.631 9.32451   7
  -4   1  -8 195.329 9.14209   8
  -4   1  -8 188.654 9.30606   2
   4  -1   8 190.153 9.14954   3
   4  -1   8 169.184 9.14127   5
   4  -1   8 185.500 9.24528   6
  -5   1  -8 90.5123 4.84256   8
  -5   1  -8 88.9954 5.09962   2
  -5   1  -8 88.6126 5.22652   7
   5  -1   8 95.5940 4.98516   6
   5  -1   8 84.1315 4.92681   5
   5  -1   8 85.9339 4.95506   3
  -6   1  -8 16.6236 2.20461   7
  -6   1  -8 17.4036 1.80461   8
  -6   1  -8 19.7145 2.25817   2
   6  -1   8 18.8939 1.68604   6
   6  -1   8 17.8290 2.06290   3
   6  -1   8 17.9008 1.96863   5
  -7   1  -8 0.44472 0.72027   2
  -7   1  -8 0.52459 0.74317   7
  -7   1  -8 -0.2902 0.45052   8
   7  -1   8 0.46337 0.49986   6
   7  -1   8 -0.2426 0.63656   5
   7  -1   8 0.77739 0.64922   3
  -8   1  -8 36.1073 4.01924   7
  -8   1  -8 45.9141 3.53983   2
  -8   1  -8 40.2729 2.89418   8
   8  -1   8 40.6218 3.13920   5
   8  -1   8 39.3225 3.31634   3
  -9   1  -8 12.7037 2.28900   7
  -9   1  -8 10.7906 1.63795   8
  -9   1  -8 9.52557 1.86634   2
   9  -1   8 10.2440 1.75708   5
   9  -1   8 13.6404 2.28977   3
 -10   1  -8 -1.5494 0.58644   7
  10  -1   8 -0.2339 0.73573   7
  10  -1   8 -0.3737 0.71865   5
   6   0  -8 1.35566 0.86972   1
   6   0  -8 1.44568 0.92165   4
   6   0  -8 0.11518 0.84885   8
  -6   0   8 0.75305 0.87672   6
  -6   0   8 0.81479 0.84434   1
   5   0  -8 0.25213 0.49766   1
   5   0  -8 -0.5368 0.48604   4
   5   0  -8 -0.0642 0.61122   8
  -5   0   8 -0.7431 0.58910   6
  -5   0   8 -0.2298 0.58145   1
  -5   0   8 0.31464 0.74343   4
   4   0  -8 -0.8608 0.61680   4
   4   0  -8 -0.0203 0.34225   8
   4   0  -8 0.08225 0.46441   1
  -4   0   8 -0.2308 0.37263   6
  -4   0   8 1.01517 1.06174   4
  -4   0   8 0.41464 0.65452   1
  -4   0   8 0.19892 0.47712   5
   3   0  -8 5.86742 1.11173   8
   3   0  -8 4.32760 1.23358   4
   3   0  -8 5.25696 1.57032   9
  -3   0   8 7.50656 1.38719   6
  -3   0   8 5.36399 1.00640   5
  -3   0   8 3.82365 1.19583   1
  -3   0   8 6.48709 1.65294   9
  -3   0   8 5.10726 1.44615   4
   2   0  -8 2.21687 0.75313   8
   2   0  -8 1.11206 0.79171   9
   2   0  -8 1.29214 0.46517   2
   2   0  -8 0.98617 0.65983   4
  -2   0   8 2.34875 0.82733   6
  -2   0   8 2.21717 1.03509   9
  -2   0   8 1.83734 0.86093   1
  -2   0   8 1.06185 0.50529   5
  -2   0   8 1.06744 0.80153   4
   1   0  -8 2.57159 0.87280   4
   1   0  -8 1.22334 0.70312   9
   1   0  -8 2.53004 0.58928   2
   1   0  -8 3.40376 0.79862   8
  -1   0   8 2.93230 0.82855   6
  -1   0   8 1.92951 0.91355   9
  -1   0   8 2.18474 0.97392   1
  -1   0   8 4.62510 0.85017   5
  -1   0   8 2.66490 0.94835   4
   0   0  -8 9.41255 1.49909   4
   0   0  -8 11.1958 1.87899   9
   0   0  -8 10.1290 1.12392   2
   0   0  -8 9.03348 1.19472   8
   0   0   8 9.78796 1.55139   1
   0   0   8 9.68153 1.76528   9
   0   0   8 13.3494 1.42817   5
   0   0   8 8.10682 1.33314   6
  -1   0  -8 0.12177 0.34372   8
  -1   0  -8 -0.2520 0.27464   4
  -1   0  -8 0.30784 0.51928   9
  -1   0  -8 -0.0244 0.27159   2
   1   0   8 -0.0165 0.19636   3
   1   0   8 -0.2091 0.43957   1
   1   0   8 0.49719 0.57268   9
   1   0   8 -0.6231 0.33042   6
   1   0   8 0.09712 0.26911   5
  -2   0  -8 -0.0986 0.33182   4
  -2   0  -8 -0.2366 0.25567   2
  -2   0  -8 -0.1781 0.31090   8
  -2   0  -8 0.59214 0.32532   7
   2   0   8 0.03481 0.38400   1
   2   0   8 -0.5138 0.28041   5
   2   0   8 0.12485 0.25719   3
   2   0   8 -0.0532 0.42695   9
   2   0   8 -0.4636 0.35504   6
  -3   0  -8 72.6330 3.76050   8
  -3   0  -8 65.3936 3.79956   2
  -3   0  -8 72.0263 3.79149   7
  -3   0  -8 70.8414 3.78383   4
   3   0   8 57.0500 3.66221   5
   3   0   8 71.2394 3.61306   3
   3   0   8 64.7900 3.81015   1
   3   0   8 62.9686 3.87453   6
   3   0   8 61.7755 4.02117   9
  -4   0  -8 47.3378 3.03086   2
  -4   0  -8 47.7647 3.08983   7
  -4   0  -8 47.2875 2.86206   8
  -4   0  -8 50.8950 2.78073   4
   4   0   8 46.9717 3.00712   9
   4   0   8 47.3534 2.84595   3
   4   0   8 40.4906 2.83704   5
   4   0   8 44.5320 2.96325   6
   4   0   8 47.9000 3.07410   1
  -5   0  -8 212.598 10.6744   2
  -5   0  -8 222.799 10.3536   8
  -5   0  -8 219.137 10.8653   7
   5   0   8 210.416 10.4739   6
   5   0   8 210.398 10.4682   5
   5   0   8 217.268 10.5281   3
  -6   0  -8 98.5398 5.90491   2
  -6   0  -8 100.409 6.16018   7
  -6   0  -8 111.536 5.59872   8
   6   0   8 102.903 5.70637   5
   6   0   8 110.298 5.94133   3
   6   0   8 105.820 5.69629   6
  -7   0  -8 0.38318 0.50395   8
  -7   0  -8 0.21822 0.62693   2
  -7   0  -8 -0.2176 0.64543   7
   7   0   8 -0.3294 0.59786   3
   7   0   8 -0.3499 0.64434   5
   7   0   8 -0.0100 0.49881   6
  -8   0  -8 4.97091 1.40755   2
  -8   0  -8 5.67152 1.52628   7
  -8   0  -8 4.28931 0.96038   8
   8   0   8 3.24591 1.13208   5
   8   0   8 3.09495 0.98675   3
  -9   0  -8 0.13270 1.01037   7
  -9   0  -8 0.37473 0.73735   2
   9   0   8 -0.6114 0.59052   5
   9   0   8 -0.2531 0.79076   3
 -10   0  -8 22.7762 3.29071   7
 -10   0  -8 20.1677 3.33611   2
  10   0   8 21.1798 3.09783   5
  10   0   8 16.4980 2.63374   3
   6  -1  -8 1.27163 0.86671   8
   6  -1  -8 1.20336 0.95004   1
   6  -1  -8 -0.5769 0.92969   4
  -6   1   8 0.93661 0.80645   1
  -6   1   8 1.17659 1.16105   4
  -6   1   8 1.03434 0.70953   6
   5  -1  -8 -1.0116 0.45709   8
   5  -1  -8 -0.0523 0.82747   4
  -5   1   8 0.37545 1.01088   4
  -5   1   8 1.19872 0.96346   1
  -5   1   8 1.06443 0.80290   6
   4  -1  -8 9.80893 1.48897   8
   4  -1  -8 12.7049 2.24315   4
  -4   1   8 9.01830 1.95973   4
  -4   1   8 11.2098 2.05838   1
  -4   1   8 9.30684 1.59918   6
   3  -1  -8 62.0594 3.65627   2
   3  -1  -8 52.5577 4.31095   4
   3  -1  -8 62.9151 3.96639   8
   3  -1  -8 58.1140 4.76170   9
  -3   1   8 63.0091 4.68031   4
  -3   1   8 70.6576 5.19250   9
  -3   1   8 67.6881 4.12106   6
  -3   1   8 65.7444 4.59940   1
  -3   1   8 67.0625 3.76485   5
   2  -1  -8 184.415 10.4186   9
   2  -1  -8 182.329 9.01524   2
   2  -1  -8 177.724 9.93711   4
   2  -1  -8 181.345 9.29746   8
  -2   1   8 202.374 10.7480   9
  -2   1   8 185.564 10.1417   4
  -2   1   8 192.079 9.53208   6
  -2   1   8 198.229 9.14529   5
  -2   1   8 174.445 9.91008   1
   1  -1  -8 12.5791 2.02430   9
   1  -1  -8 8.10081 1.23308   8
   1  -1  -8 10.3418 1.76778   4
   1  -1  -8 10.4048 1.21523   2
  -1   1   8 12.9605 1.69237   6
  -1   1   8 13.5441 1.40677   5
  -1   1   8 7.82910 1.69734   9
  -1   1   8 11.6170 1.83995   1
  -1   1   8 10.6625 1.86590   4
   0  -1  -8 13.3019 1.19652   2
   0  -1  -8 12.1054 1.42111   8
   0  -1  -8 10.4091 1.65324   4
   0   1   8 10.2889 1.69035   4
   0   1   8 16.8105 1.34741   5
   0   1   8 15.0935 1.78865   6
   0   1   8 13.9211 1.92836   1
   0   1   8 11.3216 1.91941   9
  -1  -1  -8 0.90475 0.40668   8
  -1  -1  -8 0.88501 0.38815   2
  -1  -1  -8 0.13744 0.42386   4
   1   1   8 0.92587 0.61875   4
   1   1   8 1.65839 0.51064   5
   1   1   8 0.37702 0.43796   1
   1   1   8 1.64436 0.60061   6
   1   1   8 0.95167 0.60935   9
  -2  -1  -8 1.23658 0.47666   7
  -2  -1  -8 0.44957 0.39554   2
  -2  -1  -8 1.39774 0.45976   8
  -2  -1  -8 0.15378 0.35390   4
   2   1   8 1.04490 0.31299   3
   2   1   8 1.36301 0.64108   1
   2   1   8 1.27527 0.54008   6
   2   1   8 1.09794 0.39746   5
   2   1   8 1.29570 0.70261   9
  -3  -1  -8 0.75717 0.47638   7
  -3  -1  -8 1.12641 0.46912   2
  -3  -1  -8 1.49008 0.50379   4
  -3  -1  -8 1.65939 0.53065   8
   3   1   8 1.36181 0.56078   6
   3   1   8 1.11181 0.51659   1
   3   1   8 1.24347 0.46708   5
   3   1   8 1.63905 0.64112   9
   3   1   8 1.63199 0.45029   3
  -4  -1  -8 74.9464 4.25507   7
  -4  -1  -8 73.6130 3.91807   8
  -4  -1  -8 73.2263 4.15704   2
  -4  -1  -8 78.6273 3.78807   4
   4   1   8 68.0100 3.95048   5
   4   1   8 67.7040 4.17668   9
   4   1   8 68.7018 4.09897   6
   4   1   8 69.2761 3.88878   3
   4   1   8 65.6607 3.92642   1
  -5  -1  -8 21.7113 1.91413   2
  -5  -1  -8 20.3797 1.67515   8
  -5  -1  -8 21.8287 2.03486   7
   5   1   8 24.1718 1.84188   5
   5   1   8 21.2122 1.82939   3
   5   1   8 24.6117 1.96105   6
  -6  -1  -8 1.41260 0.53690   8
  -6  -1  -8 2.09838 0.90196   7
  -6  -1  -8 2.01056 0.83277   2
   6   1   8 3.31770 0.91813   3
   6   1   8 2.48123 0.74205   5
   6   1   8 2.68343 0.86754   6
  -7  -1  -8 0.75869 0.52397   8
  -7  -1  -8 -0.6398 0.57575   7
  -7  -1  -8 1.02255 0.73781   2
   7   1   8 -0.1268 0.44415   6
   7   1   8 -0.1070 0.60885   5
   7   1   8 1.31828 0.60499   3
  -8  -1  -8 3.57517 1.09191   2
  -8  -1  -8 3.08657 1.15764   7
   8   1   8 1.02016 0.69536   5
   8   1   8 1.45792 0.90628   3
   8   1   8 1.64127 0.88734   6
  -9  -1  -8 1.37156 0.93384   7
  -9  -1  -8 1.34612 1.12085   2
   9   1   8 1.30071 1.03033   5
   9   1   8 1.85248 0.88834   3
 -10  -1  -8 1.02365 1.12742   2
 -10  -1  -8 4.07344 1.68083   7
  10   1   8 3.14495 1.34048   3
  10   1   8 -0.7988 0.88929   5
   6  -2  -8 2.56576 1.44854   4
   6  -2  -8 3.77422 1.13197   8
   6  -2  -8 2.83342 1.04630   1
  -6   2   8 3.25714 1.15800   6
  -6   2   8 2.20389 1.00154   1
  -6   2   8 6.07263 1.84158   4
   5  -2  -8 20.5872 2.94959   4
   5  -2  -8 15.2145 2.14146   8
  -5   2   8 15.7638 2.56264   1
  -5   2   8 19.1292 2.95378   4
  -5   2   8 23.0886 2.50157   6
   4  -2  -8 26.6647 2.30876   8
   4  -2  -8 25.1825 2.11937   2
   4  -2  -8 25.5343 3.23730   4
  -4   2   8 26.9118 2.37933   6
  -4   2   8 29.8999 2.90238   1
  -4   2   8 26.3578 3.33512   4
   3  -2  -8 19.2070 2.96512   9
   3  -2  -8 16.6818 1.98021   8
   3  -2  -8 12.5661 2.22923   4
   3  -2  -8 22.1561 1.74967   2
  -3   2   8 17.0524 2.59685   4
  -3   2   8 16.6174 2.77602   9
  -3   2   8 19.6688 2.18159   6
  -3   2   8 16.7440 2.47606   1
   2  -2  -8 6.34004 1.48257   4
   2  -2  -8 13.3684 1.47194   2
   2  -2  -8 7.23880 1.27333   8
  -2   2   8 7.02566 1.53965   1
  -2   2   8 8.93751 1.74463   4
  -2   2   8 7.94289 1.77160   9
  -2   2   8 8.58945 1.11976   5
  -2   2   8 9.72629 1.46643   6
   1  -2  -8 21.4203 2.15996   4
   1  -2  -8 22.5855 1.88293   8
   1  -2  -8 23.1419 1.76542   2
  -1   2   8 23.7879 2.64378   9
  -1   2   8 24.0959 1.68727   5
  -1   2   8 21.7599 1.93746   6
  -1   2   8 21.2083 2.55924   4
  -1   2   8 21.9012 2.63621   1
   0  -2  -8 13.6001 1.86772   4
   0  -2  -8 15.0508 1.33042   2
   0  -2  -8 14.3466 1.55827   8
   0   2   8 13.1792 1.65279   6
   0   2   8 13.7368 1.93489   4
   0   2   8 15.3209 1.25656   5
   0   2   8 13.9629 1.95128   1
   0   2   8 12.8388 2.04233   9
  -1  -2  -8 86.1125 3.93416   7
  -1  -2  -8 73.2207 4.45154   4
  -1  -2  -8 73.6367 4.14269   8
  -1  -2  -8 69.1009 4.05822   2
   1   2   8 74.4143 4.55537   4
   1   2   8 72.9859 4.87681   9
   1   2   8 76.6889 4.37011   6
   1   2   8 72.3467 4.54602   1
   1   2   8 75.1457 3.98821   5
  -2  -2  -8 41.2571 2.48356   8
  -2  -2  -8 38.3104 2.47788   2
  -2  -2  -8 39.8337 2.39899   7
  -2  -2  -8 34.9245 2.52757   4
   2   2   8 36.2907 2.60635   6
   2   2   8 36.1352 2.96913   9
   2   2   8 38.6269 2.36372   5
   2   2   8 39.2046 2.76650   1
   2   2   8 40.9974 2.74173   4
  -3  -2  -8 0.28195 0.33548   4
  -3  -2  -8 0.09267 0.25910   8
  -3  -2  -8 0.08250 0.38139   2
  -3  -2  -8 0.01432 0.33377   7
   3   2   8 0.69299 0.36100   5
   3   2   8 0.16410 0.37237   1
   3   2   8 -0.3613 0.36701   9
   3   2   8 -0.3038 0.40333   6
   3   2   8 -0.1950 0.22393   3
  -4  -2  -8 130.166 6.50308   2
  -4  -2  -8 121.531 6.53501   7
  -4  -2  -8 126.630 6.14468   8
   4   2   8 120.902 6.33912   1
   4   2   8 120.419 6.19137   5
   4   2   8 117.478 6.35885   6
   4   2   8 123.426 6.64161   9
   4   2   8 119.202 6.14077   3
  -5  -2  -8 12.2577 1.28488   8
  -5  -2  -8 11.1737 1.63507   7
  -5  -2  -8 11.5742 1.54619   3
  -5  -2  -8 8.61017 1.38937   2
   5   2   8 13.1095 1.45114   5
   5   2   8 10.1420 1.45049   6
   5   2   8 10.4785 1.41062   3
  -6  -2  -8 84.0779 4.99070   3
  -6  -2  -8 86.1013 4.43830   8
  -6  -2  -8 86.7670 5.25831   7
  -6  -2  -8 82.3906 4.91292   2
   6   2   8 84.3117 4.77300   6
   6   2   8 73.1899 4.54432   5
   6   2   8 78.3100 4.78554   3
  -7  -2  -8 1.12990 0.87320   7
  -7  -2  -8 -0.3547 0.40982   2
  -7  -2  -8 -0.5268 0.31646   8
  -7  -2  -8 -0.0643 0.56700   3
   7   2   8 -0.5494 0.54486   3
   7   2   8 -0.1945 0.45142   5
   7   2   8 0.64908 0.63808   6
  -8  -2  -8 2.38179 0.93623   2
  -8  -2  -8 0.61384 0.94008   7
  -8  -2  -8 2.37749 1.08528   3
   8   2   8 1.74889 0.92298   5
   8   2   8 3.13423 1.10694   6
   8   2   8 2.66992 1.00954   3
  -9  -2  -8 0.95247 0.90000   3
  -9  -2  -8 0.93297 1.03702   2
  -9  -2  -8 4.80665 1.59545   7
   9   2   8 1.09687 0.80597   5
   9   2   8 -0.5637 0.99040   6
   9   2   8 1.80130 0.90393   3
 -10  -2  -8 16.5715 2.50889   2
 -10  -2  -8 17.5858 3.02616   7
 -10  -2  -8 17.8637 2.84491   3
  10   2   8 14.4291 2.30328   3
   6  -3  -8 2.07902 1.28482   4
   6  -3  -8 2.55129 1.03584   8
  -6   3   8 1.72048 1.16126   4
  -6   3   8 1.40927 1.07889   1
   5  -3  -8 2.98575 0.98089   2
   5  -3  -8 5.97601 1.61945   4
   5  -3  -8 5.22916 1.20842   8
  -5   3   8 4.22574 1.42998   1
  -5   3   8 5.88341 1.28693   6
  -5   3   8 5.09297 1.55413   4
   4  -3  -8 2.38375 0.81350   2
   4  -3  -8 4.07308 1.02119   8
   4  -3  -8 3.04777 1.16825   4
  -4   3   8 3.29012 1.25410   4
  -4   3   8 5.09636 1.16997   6
  -4   3   8 3.60691 1.18149   1
   3  -3  -8 3.60940 1.02906   8
   3  -3  -8 4.29608 1.28355   4
   3  -3  -8 4.20437 0.91548   2
  -3   3   8 4.92792 1.05593   6
  -3   3   8 2.13816 0.98331   1
  -3   3   8 3.45233 1.16961   4
   2  -3  -8 106.265 6.85365   4
   2  -3  -8 115.577 6.36450   8
   2  -3  -8 122.119 6.25444   2
  -2   3   8 116.420 7.08444   4
  -2   3   8 132.160 7.76858   9
  -2   3   8 111.050 6.95492   1
  -2   3   8 125.600 6.50889   6
   1  -3  -8 76.3097 4.97509   4
   1  -3  -8 82.1877 4.57555   8
   1  -3  -8 82.8475 4.45258   2
  -1   3   8 71.2224 4.95536   1
  -1   3   8 79.2081 4.63074   6
  -1   3   8 85.2329 5.20411   4
  -1   3   8 78.7743 5.50582   9
   0  -3  -8 48.5759 2.52994   7
   0  -3  -8 38.8002 2.71045   2
   0  -3  -8 39.2680 3.11109   4
   0  -3  -8 45.4116 2.84543   8
   0   3   8 48.5461 2.60807   5
   0   3   8 42.9000 3.55193   9
   0   3   8 44.3676 3.28722   4
   0   3   8 42.4128 2.95555   6
   0   3   8 41.1116 3.20486   1
  -1  -3  -8 0.30729 0.39432   2
  -1  -3  -8 0.00747 0.24737   8
  -1  -3  -8 0.73739 0.37562   7
  -1  -3  -8 0.46364 0.46471   4
   1   3   8 0.28574 0.47876   4
   1   3   8 0.11722 0.29468   5
   1   3   8 0.34286 0.38602   6
   1   3   8 -0.0123 0.54855   9
   1   3   8 0.12581 0.55318   1
  -2  -3  -8 123.273 6.03824   7
  -2  -3  -8 120.274 6.01930   8
  -2  -3  -8 106.339 6.14768   4
  -2  -3  -8 122.633 6.13952   2
   2   3   8 116.991 6.44364   1
   2   3   8 122.656 6.35554   4
   2   3   8 115.665 6.22866   6
   2   3   8 115.771 6.75662   9
   2   3   8 121.460 5.86960   5
  -3  -3  -8 29.0277 2.17226   2
  -3  -3  -8 26.9215 2.02823   4
  -3  -3  -8 32.4735 2.27553   7
  -3  -3  -8 30.4428 2.02296   8
   3   3   8 31.4355 2.26487   6
   3   3   8 32.7387 2.06455   5
   3   3   8 31.5194 2.58025   9
   3   3   8 28.5809 2.30795   1
   3   3   8 33.1439 1.90684   3
   3   3   8 32.5085 2.20674   4
  -4  -3  -8 0.54720 0.37312   8
  -4  -3  -8 0.06742 0.35906   3
  -4  -3  -8 -0.4087 0.33055   7
  -4  -3  -8 -0.1724 0.40681   2
   4   3   8 0.75560 0.45558   1
   4   3   8 -0.1158 0.28700   3
   4   3   8 -0.4598 0.31329   5
   4   3   8 0.61489 0.46999   9
   4   3   8 0.65786 0.62435   6
  -5  -3  -8 26.8012 2.14605   2
  -5  -3  -8 22.7547 2.52411   7
  -5  -3  -8 26.4219 2.07915   3
  -5  -3  -8 28.8860 1.85792   8
   5   3   8 24.4279 2.04267   6
   5   3   8 26.4736 2.19108   9
   5   3   8 23.6442 1.94185   3
   5   3   8 22.2678 1.88869   5
   5   3   8 29.3233 2.06244   1
  -6  -3  -8 21.7698 1.63028   8
  -6  -3  -8 23.3310 2.11226   3
  -6  -3  -8 20.3989 2.23917   2
  -6  -3  -8 20.6199 2.50154   7
   6   3   8 20.0146 1.84621   5
   6   3   8 22.5583 1.97035   6
   6   3   8 20.4076 2.21674   3
  -7  -3  -8 35.8064 2.82427   2
  -7  -3  -8 35.9307 3.08487   7
  -7  -3  -8 29.6044 2.75571   3
   7   3   8 32.5142 2.73367   3
   7   3   8 32.4368 2.68677   6
   7   3   8 33.5908 2.59298   5
  -8  -3  -8 -0.3704 0.72152   7
  -8  -3  -8 0.53986 0.77446   3
  -8  -3  -8 0.58292 0.58317   2
   8   3   8 1.12593 0.85332   3
   8   3   8 -0.0722 0.67814   6
   8   3   8 -0.5266 0.43215   5
  -9  -3  -8 18.4049 2.91538   7
  -9  -3  -8 13.7540 2.34788   3
  -9  -3  -8 20.6002 2.53871   2
   9   3   8 15.0334 2.28333   3
   9   3   8 13.5907 2.14644   6
   9   3   8 15.2195 2.05984   5
 -10  -3  -8 48.3781 4.15187   3
 -10  -3  -8 41.9948 3.62411   2
  10   3   8 38.3182 3.53247   6
  10   3   8 42.5868 3.80155   3
   6  -4  -8 2.53577 1.03391   2
   6  -4  -8 4.59116 1.57010   4
   6  -4  -8 4.01506 1.15453   8
  -6   4   8 5.42389 1.68526   1
  -6   4   8 2.93831 1.45224   4
   5  -4  -8 1.24905 0.89982   4
   5  -4  -8 1.43456 0.64324   2
   5  -4  -8 0.52734 0.73832   8
  -5   4   8 -0.0955 0.67791   4
  -5   4   8 3.17854 1.31043   1
   4  -4  -8 -0.1307 0.44763   8
   4  -4  -8 0.09085 0.39051   2
   4  -4  -8 -0.3454 0.71599   4
  -4   4   8 0.70611 0.97983   4
  -4   4   8 0.20156 0.61118   1
  -4   4   8 0.07775 0.38998   6
   3  -4  -8 6.30299 1.18924   2
   3  -4  -8 5.37580 1.14224   8
  -3   4   8 4.63104 1.48949   4
  -3   4   8 5.64477 1.14388   6
  -3   4   8 5.45881 1.45716   1
   2  -4  -8 57.7995 3.72438   8
   2  -4  -8 57.3898 3.64129   2
  -2   4   8 54.8162 4.22264   4
  -2   4   8 55.7490 4.21007   1
  -2   4   8 64.3550 3.83899   6
  -2   4   8 62.9594 4.76882   9
   1  -4  -8 0.09688 0.32069   7
   1  -4  -8 -0.0996 0.32427   2
   1  -4  -8 0.08652 0.31122   8
  -1   4   8 0.28469 0.54742   9
  -1   4   8 -0.0106 0.61062   4
  -1   4   8 0.03009 0.43029   1
  -1   4   8 -0.3446 0.40878   6
   0  -4  -8 500.668 22.6047   2
   0  -4  -8 531.710 22.3205   7
   0  -4  -8 483.816 22.5849   8
   0   4   8 482.778 23.2406   1
   0   4   8 495.008 22.7433   6
   0   4   8 482.444 23.7169   9
   0   4   8 465.610 23.1282   4
  -1  -4  -8 148.289 6.93958   7
  -1  -4  -8 137.599 7.01970   8
  -1  -4  -8 145.483 7.12706   2
   1   4   8 135.002 7.16844   6
   1   4   8 133.264 7.89064   9
   1   4   8 141.358 7.50434   4
   1   4   8 127.586 7.46196   1
   1   4   8 143.152 6.69767   5
  -2  -4  -8 299.598 13.6865   2
  -2  -4  -8 275.840 13.7313   4
  -2  -4  -8 310.437 13.6323   7
  -2  -4  -8 287.256 13.4942   8
   2   4   8 280.785 13.7039   6
   2   4   8 285.928 14.3922   9
   2   4   8 292.827 13.2731   5
   2   4   8 276.131 13.9728   1
   2   4   8 289.052 13.8520   4
  -3  -4  -8 37.6399 2.52765   4
  -3  -4  -8 40.6637 2.69914   2
  -3  -4  -8 41.9530 2.74853   7
  -3  -4  -8 43.0245 2.48023   8
   3   4   8 38.3627 2.79903   1
   3   4   8 37.7757 2.36931   5
   3   4   8 39.2495 2.60563   4
   3   4   8 39.7761 2.68218   6
   3   4   8 36.6379 2.97036   9
  -4  -4  -8 48.7624 3.08580   3
  -4  -4  -8 52.8190 3.31627   2
  -4  -4  -8 53.3532 3.48549   7
  -4  -4  -8 54.7272 2.98664   8
   4   4   8 50.4195 3.02325   5
   4   4   8 50.7123 3.04159   3
   4   4   8 51.1891 3.31226   1
   4   4   8 52.1780 3.55602   9
   4   4   8 52.6167 3.30217   6
  -5  -4  -8 1.12447 0.57059   2
  -5  -4  -8 2.14383 0.54196   8
  -5  -4  -8 0.74869 0.57435   3
  -5  -4  -8 0.62911 0.70090   7
   5   4   8 2.17041 0.64131   1
   5   4   8 1.11546 0.65072   6
   5   4   8 0.96197 0.49806   5
   5   4   8 1.72059 0.56564   9
   5   4   8 0.62997 0.49970   3
  -6  -4  -8 -0.0233 0.36764   2
  -6  -4  -8 -0.3877 0.35360   7
  -6  -4  -8 -0.2504 0.43084   3
   6   4   8 -0.1706 0.45327   3
   6   4   8 0.63356 0.57775   6
   6   4   8 -0.6629 0.48849   5
  -7  -4  -8 2.92821 0.95993   2
  -7  -4  -8 2.72148 1.14631   7
  -7  -4  -8 5.11552 1.30211   3
   7   4   8 1.73955 0.86457   5
   7   4   8 2.84480 1.16887   6
   7   4   8 1.96670 0.88625   3
  -8  -4  -8 19.5087 2.55168   3
  -8  -4  -8 20.3610 2.54222   2
  -8  -4  -8 22.1120 2.95649   7
   8   4   8 20.7264 2.42537   6
   8   4   8 18.0954 2.43500   3
   8   4   8 19.9873 2.25453   5
  -9  -4  -8 5.17085 1.67379   7
  -9  -4  -8 4.64495 1.23061   2
  -9  -4  -8 2.88076 1.14545   3
   9   4   8 1.26024 0.79368   5
   9   4   8 0.59774 1.25990   6
   9   4   8 2.44551 1.02786   3
   6  -5  -8 21.4372 2.61738   2
   6  -5  -8 22.7674 3.45213   4
   6  -5  -8 16.9289 2.44173   8
  -6   5   8 18.9193 2.59936   8
  -6   5   8 16.0646 2.69110   1
  -6   5   8 17.8219 3.08985   4
   5  -5  -8 11.4968 1.72732   2
   5  -5  -8 6.02678 1.48716   8
   5  -5  -8 10.4318 2.17675   4
  -5   5   8 7.56544 1.85103   1
  -5   5   8 7.33631 1.84595   4
  -5   5   8 8.55909 1.75870   8
   4  -5  -8 3.58754 1.11314   8
   4  -5  -8 4.18783 1.08680   2
  -4   5   8 3.11519 1.31455   4
  -4   5   8 2.92387 1.13603   8
  -4   5   8 4.06845 1.33684   1
   3  -5  -8 8.66376 1.42870   2
   3  -5  -8 12.8216 1.78968   8
  -3   5   8 10.8129 2.02231   1
  -3   5   8 14.5591 2.37332   4
  -3   5   8 15.1012 1.82370   6
  -3   5   8 11.6967 1.77961   8
   2  -5  -8 1.75542 0.66150   2
   2  -5  -8 0.62609 0.50217   8
  -2   5   8 1.39753 0.80240   1
  -2   5   8 0.66879 0.54314   6
  -2   5   8 0.75857 0.80872   4
  -2   5   8 1.14058 0.74586   9
   1  -5  -8 -0.2419 0.39041   8
   1  -5  -8 -0.0450 0.32876   7
   1  -5  -8 0.00143 0.46695   2
  -1   5   8 -0.1000 0.48441   1
  -1   5   8 0.04091 0.45657   6
  -1   5   8 0.66789 0.69706   9
  -1   5   8 -0.3113 0.37514   4
   0  -5  -8 83.8711 4.37998   7
   0  -5  -8 83.0449 4.60912   2
   0  -5  -8 77.5137 4.51098   8
   0   5   8 80.2440 5.43001   9
   0   5   8 73.9070 4.96750   1
   0   5   8 79.0791 5.00412   4
   0   5   8 80.7767 4.62873   6
  -1  -5  -8 376.907 17.9601   8
  -1  -5  -8 404.147 17.9663   7
  -1  -5  -8 395.870 18.1200   2
   1   5   8 391.435 19.0641   9
   1   5   8 386.130 18.1349   6
   1   5   8 392.148 18.5116   4
   1   5   8 372.312 18.5555   1
  -2  -5  -8 355.145 16.3254   2
  -2  -5  -8 359.078 16.2883   7
  -2  -5  -8 345.102 16.0939   8
   2   5   8 352.442 16.5090   4
   2   5   8 333.148 17.0040   9
   2   5   8 343.085 16.6655   1
   2   5   8 350.000 16.3428   6
   2   5   8 342.959 15.7858   5
  -3  -5  -8 79.7671 4.37343   7
  -3  -5  -8 72.6663 4.21870   2
  -3  -5  -8 75.0574 3.96279   8
   3   5   8 64.1562 4.11907   6
   3   5   8 71.1041 3.82333   5
   3   5   8 68.7313 4.10753   4
   3   5   8 73.0692 4.43644   1
   3   5   8 77.2473 4.76087   9
  -4  -5  -8 35.7334 2.70309   7
  -4  -5  -8 37.4183 2.19823   8
  -4  -5  -8 31.9215 2.30064   3
  -4  -5  -8 37.5874 2.60623   2
   4   5   8 32.3336 2.19520   5
   4   5   8 31.1697 2.43727   6
   4   5   8 31.5866 2.24799   3
   4   5   8 36.3471 2.60440   1
   4   5   8 32.8654 2.68898   9
  -5  -5  -8 7.01569 1.25390   2
  -5  -5  -8 8.09544 1.52455   7
  -5  -5  -8 7.44829 1.28227   3
   5   5   8 10.7033 1.54451   9
   5   5   8 6.68126 1.14385   3
   5   5   8 8.10642 1.23420   1
   5   5   8 7.69985 1.14896   5
   5   5   8 7.69835 1.29752   6
  -6  -5  -8 31.2257 2.50864   2
  -6  -5  -8 31.1204 2.83101   7
  -6  -5  -8 32.3348 2.60262   3
   6   5   8 32.8458 2.32806   5
   6   5   8 28.3552 2.43118   3
   6   5   8 29.7258 2.46405   6
  -7  -5  -8 44.1830 3.69881   7
  -7  -5  -8 41.6585 3.30825   3
  -7  -5  -8 43.8525 3.27975   2
   7   5   8 45.4413 3.24762   6
   7   5   8 40.6904 3.19299   3
   7   5   8 45.2684 3.10718   5
  -8  -5  -8 6.35768 1.69952   7
  -8  -5  -8 4.71362 1.27334   2
  -8  -5  -8 2.27968 1.03837   3
   8   5   8 3.35084 1.21980   3
   8   5   8 6.78102 1.26289   5
   8   5   8 4.33347 1.43538   6
  -9  -5  -8 -0.5174 0.50492   2
  -9  -5  -8 -1.4783 0.84936   3
  -9  -5  -8 0.71363 0.87181   7
   9   5   8 -1.4952 0.72875   6
   9   5   8 0.80127 0.90802   3
   9   5   8 0.33246 0.67313   5
   5  -6  -8 1.77669 0.93384   8
   5  -6  -8 2.57185 0.92080   2
  -5   6   8 1.94751 1.28156   4
  -5   6   8 4.11353 1.38432   1
  -5   6   8 1.07301 0.92497   8
   4  -6  -8 25.6680 2.82040   8
   4  -6  -8 25.5476 2.41755   2
  -4   6   8 24.4562 3.32415   4
  -4   6   8 36.9468 3.36185   1
  -4   6   8 29.4553 3.10859   8
   3  -6  -8 29.8388 2.52665   8
   3  -6  -8 28.4667 2.43856   2
  -3   6   8 28.1307 2.52014   8
  -3   6   8 28.7909 2.90028   1
  -3   6   8 30.2051 3.01358   4
   2  -6  -8 2.84254 0.80927   2
   2  -6  -8 4.32042 0.93214   7
   2  -6  -8 3.38249 0.89882   8
  -2   6   8 3.92740 1.18701   4
  -2   6   8 4.88741 1.05149   6
  -2   6   8 4.63686 1.27867   1
  -2   6   8 4.00342 1.00951   8
   1  -6  -8 7.52169 1.25799   8
   1  -6  -8 12.1312 1.58242   2
   1  -6  -8 7.59123 1.17112   7
  -1   6   8 6.95827 1.63585   9
  -1   6   8 7.97129 1.55179   4
  -1   6   8 8.79999 1.33794   6
  -1   6   8 7.57258 1.54022   1
   0  -6  -8 15.5106 1.78341   2
   0  -6  -8 17.0681 1.50458   7
   0  -6  -8 15.1437 1.71233   8
   0   6   8 14.2691 2.07765   1
   0   6   8 13.9756 1.71181   6
   0   6   8 11.5268 2.03427   9
   0   6   8 13.0109 1.93973   4
  -1  -6  -8 0.99368 0.45235   8
  -1  -6  -8 0.70655 0.45234   2
  -1  -6  -8 0.27447 0.47144   7
   1   6   8 0.10300 0.32996   6
   1   6   8 0.79148 0.63100   9
   1   6   8 -0.1101 0.47533   4
   1   6   8 0.19316 0.67387   1
  -2  -6  -8 32.8042 2.24987   8
  -2  -6  -8 32.9726 2.43247   2
  -2  -6  -8 36.5822 2.51704   7
   2   6   8 34.8488 2.62050   4
   2   6   8 32.9900 2.68205   1
   2   6   8 34.0073 2.92343   9
   2   6   8 32.4777 2.44908   6
  -3  -6  -8 -0.0269 0.30889   7
  -3  -6  -8 0.19092 0.33502   8
  -3  -6  -8 -0.4424 0.19817   2
   3   6   8 1.43555 0.57346   9
   3   6   8 -0.0862 0.38169   6
   3   6   8 0.13873 0.34442   5
   3   6   8 0.05764 0.49793   1
  -4  -6  -8 58.7796 3.99633   7
  -4  -6  -8 63.9374 3.91990   2
   4   6   8 61.7375 3.48796   5
   4   6   8 60.6243 3.87587   6
   4   6   8 65.9171 4.28355   9
   4   6   8 62.0300 3.97618   1
  -5  -6  -8 3.98931 1.13832   7
  -5  -6  -8 3.70312 0.97558   2
  -5  -6  -8 4.16235 0.96824   3
   5   6   8 3.35924 0.91774   1
   5   6   8 3.75273 0.83059   5
   5   6   8 4.58522 1.08732   6
   5   6   8 5.48965 1.10090   9
  -6  -6  -8 -0.9725 0.44028   2
  -6  -6  -8 -0.6121 0.62170   7
  -6  -6  -8 -0.0825 0.39791   3
   6   6   8 -0.8450 0.39341   5
   6   6   8 0.96020 0.57860   1
   6   6   8 0.08297 0.88371   6
  -7  -6  -8 1.94517 1.08641   7
  -7  -6  -8 1.38713 0.80996   2
  -7  -6  -8 0.22014 0.70301   3
   7   6   8 1.11893 0.76117   5
   7   6   8 0.32203 0.58549   3
   7   6   8 1.78930 1.20839   6
  -8  -6  -8 8.52207 1.68458   2
  -8  -6  -8 6.24960 1.55031   3
  -8  -6  -8 7.85047 1.90197   7
   8   6   8 3.99181 1.06482   5
   8   6   8 5.30584 1.40598   6
   8   6   8 5.15004 1.38425   3
  -9  -6  -8 0.47721 0.80706   2
  -9  -6  -8 1.02111 1.25208   7
  -9  -6  -8 0.95755 0.88208   3
   9   6   8 0.11795 0.60619   5
   9   6   8 0.09779 0.66660   3
   9   6   8 -2.0745 1.16976   6
   5  -7  -8 5.70101 1.51540   2
   5  -7  -8 3.84766 1.11953   8
  -5   7   8 4.67815 1.46786   1
  -5   7   8 2.13365 1.05709   4
  -5   7   8 2.96513 1.10960   8
   4  -7  -8 0.06583 0.51486   2
   4  -7  -8 1.05270 0.73977   8
  -4   7   8 1.81315 1.26425   4
  -4   7   8 1.89815 0.88691   8
  -4   7   8 1.77099 0.96860   1
   3  -7  -8 2.74812 0.98494   2
   3  -7  -8 1.02373 0.78000   8
  -3   7   8 4.56471 1.20880   8
  -3   7   8 2.47992 1.04847   1
  -3   7   8 0.89615 0.91950   4
   2  -7  -8 8.74162 1.45923   2
   2  -7  -8 11.7647 1.57938   7
   2  -7  -8 12.4042 1.74084   8
  -2   7   8 12.4257 2.16099   1
  -2   7   8 10.5106 1.97231   4
  -2   7   8 9.49397 1.56746   8
   1  -7  -8 4.11967 0.96466   2
   1  -7  -8 3.29633 0.83880   7
   1  -7  -8 4.24821 1.03202   8
  -1   7   8 2.26217 0.90157   1
  -1   7   8 4.69998 1.00301   6
  -1   7   8 4.01689 1.18802   4
   0  -7  -8 7.31475 1.22525   8
   0  -7  -8 8.00473 1.33824   2
   0  -7  -8 9.51132 1.41200   7
   0   7   8 8.43005 1.60995   4
   0   7   8 8.73459 1.30720   6
   0   7   8 8.70585 1.81239   9
   0   7   8 7.77257 1.53163   1
  -1  -7  -8 0.48998 0.40575   8
  -1  -7  -8 0.11430 0.35601   7
  -1  -7  -8 0.55374 0.45897   2
   1   7   8 1.02117 0.60728   9
   1   7   8 0.42939 0.58150   4
   1   7   8 0.19308 0.36612   6
   1   7   8 0.66009 0.52379   1
  -2  -7  -8 1.47010 0.67581   2
  -2  -7  -8 0.22163 0.42542   7
  -2  -7  -8 -0.1758 0.35382   8
   2   7   8 1.60500 0.67379   9
   2   7   8 0.45702 0.59155   1
   2   7   8 0.64311 0.50609   4
   2   7   8 0.10622 0.36388   6
  -3  -7  -8 1.57025 0.53358   8
  -3  -7  -8 2.65237 0.87704   2
  -3  -7  -8 1.56107 0.78894   7
   3   7   8 0.99773 0.73630   6
   3   7   8 2.62180 0.83902   9
   3   7   8 1.46944 0.73301   1
  -4  -7  -8 0.08999 0.50711   2
  -4  -7  -8 0.44239 0.65528   7
   4   7   8 0.52063 0.61165   6
   4   7   8 0.79216 0.56606   1
   4   7   8 -0.3574 0.37078   5
  -5  -7  -8 47.5983 3.66803   3
  -5  -7  -8 44.0044 3.56291   7
  -5  -7  -8 48.6450 3.39515   2
   5   7   8 49.0204 3.39627   6
   5   7   8 46.7414 2.99090   5
   5   7   8 52.5695 3.75904   9
   5   7   8 55.5676 3.59122   1
  -6  -7  -8 13.3134 1.83112   2
  -6  -7  -8 13.3015 1.84116   3
  -6  -7  -8 11.4976 1.98825   7
   6   7   8 11.3948 1.53853   5
   6   7   8 16.2847 2.00290   1
   6   7   8 14.2091 2.94806   9
   6   7   8 9.78108 1.68380   6
  -7  -7  -8 0.17574 0.46484   2
  -7  -7  -8 0.46870 0.80191   3
  -7  -7  -8 2.32222 1.07885   7
   7   7   8 1.49079 0.80560   5
   7   7   8 -0.3496 0.73966   6
  -8  -7  -8 3.73134 1.15673   3
  -8  -7  -8 5.58137 1.36487   2
  -8  -7  -8 2.81290 1.18700   7
   8   7   8 2.37436 1.44216   6
   8   7   8 3.01606 1.11386   3
   8   7   8 3.76277 1.13085   5
   4  -8  -8 1.75377 0.97061   2
   4  -8  -8 2.42712 1.09240   8
  -4   8   8 1.56929 1.14029   4
  -4   8   8 1.98294 1.11088   8
  -4   8   8 2.68598 1.13904   1
   3  -8  -8 4.19969 1.30922   7
   3  -8  -8 4.41409 1.19031   2
   3  -8  -8 2.10362 0.85890   8
  -3   8   8 5.98755 1.54707   1
  -3   8   8 5.42655 1.55754   4
  -3   8   8 5.54426 1.29621   8
   2  -8  -8 39.4864 2.81611   7
   2  -8  -8 31.3013 2.72705   8
   2  -8  -8 34.2524 2.78869   2
  -2   8   8 28.8299 3.49034   1
  -2   8   8 38.2442 2.97987   8
  -2   8   8 30.2632 3.05823   4
   1  -8  -8 0.41820 0.50421   2
   1  -8  -8 1.26019 0.68669   7
   1  -8  -8 0.14420 0.42532   8
  -1   8   8 0.60180 0.49453   4
  -1   8   8 0.85643 0.77020   1
  -1   8   8 0.34528 0.43583   8
   0  -8  -8 17.5895 2.01958   7
   0  -8  -8 15.7487 1.92209   2
   0  -8  -8 15.2178 1.79905   8
   0   8   8 14.7853 2.16428   4
   0   8   8 17.3917 2.39307   1
   0   8   8 13.0860 1.68151   6
  -1  -8  -8 0.91525 0.56305   8
  -1  -8  -8 1.36750 0.61172   2
  -1  -8  -8 0.90146 0.67220   7
   1   8   8 1.35570 0.58593   6
   1   8   8 2.91228 0.93147   1
   1   8   8 1.06491 0.73705   4
  -2  -8  -8 22.6019 2.10672   2
  -2  -8  -8 31.2338 2.11166   8
  -2  -8  -8 27.6069 2.33079   7
   2   8   8 29.6776 2.61860   1
   2   8   8 26.7790 2.20561   6
   2   8   8 25.4022 2.30866   4
  -3  -8  -8 18.6081 2.30655   7
  -3  -8  -8 21.9759 1.96364   2
   3   8   8 21.6221 2.29412   6
   3   8   8 21.0618 2.52496   1
  -4  -8  -8 27.4300 2.40107   2
  -4  -8  -8 30.9360 2.78286   7
   4   8   8 31.6443 2.53851   6
   4   8   8 37.7210 2.88160   1
  -5  -8  -8 60.6964 4.00564   2
  -5  -8  -8 63.0691 4.47083   7
   5   8   8 61.3927 4.15896   1
   5   8   8 63.2532 4.15763   6
  -6  -8  -8 -0.1822 0.53165   2
  -6  -8  -8 0.24904 0.74706   3
  -6  -8  -8 -0.3063 0.48147   7
   6   8   8 1.91196 0.76722   1
   6   8   8 -0.2549 0.35315   5
   6   8   8 -1.2036 0.49930   6
  -7  -8  -8 0.53088 0.80325   7
  -7  -8  -8 0.76819 0.77981   2
  -7  -8  -8 -0.1316 0.58027   3
   7   8   8 -0.2144 0.80997   6
   7   8   8 0.46111 0.67366   5
  -8  -8  -8 6.86586 1.72843   3
  -8  -8  -8 4.37441 1.28242   2
  -8  -8  -8 6.06281 1.71600   7
   8   8   8 5.57061 1.80351   6
   8   8   8 6.95206 1.31596   5
  -4   9   8 4.27517 1.29507   1
   3  -9  -8 0.66662 0.82622   7
   3  -9  -8 0.95435 0.72249   2
   3  -9  -8 0.14666 0.75195   8
  -3   9   8 -0.1598 0.69093   8
  -3   9   8 0.57732 0.72711   4
  -3   9   8 1.25123 0.92144   1
   2  -9  -8 3.08650 1.09892   7
   2  -9  -8 3.88683 1.13377   8
   2  -9  -8 1.84455 0.93249   2
  -2   9   8 3.18819 1.11117   4
  -2   9   8 2.43044 1.09917   1
  -2   9   8 2.64368 1.00926   8
   1  -9  -8 -0.7874 0.53392   2
   1  -9  -8 0.34204 0.64755   7
   1  -9  -8 -0.7160 0.46893   8
  -1   9   8 0.18555 0.57150   4
  -1   9   8 0.52905 0.70719   8
  -1   9   8 0.50176 0.78438   1
   0  -9  -8 3.91087 1.08014   7
   0  -9  -8 5.63614 1.18415   2
   0  -9  -8 4.51150 1.06907   8
   0   9   8 5.95388 1.38627   4
   0   9   8 5.23571 1.32986   1
  -1  -9  -8 1.04478 0.60591   2
  -1  -9  -8 -0.3218 0.50626   7
  -1  -9  -8 -0.2911 0.39008   8
   1   9   8 -0.5405 0.51855   4
   1   9   8 0.87241 0.64805   1
   1   9   8 0.83114 0.51844   6
  -2  -9  -8 3.88979 0.99938   2
  -2  -9  -8 2.14545 0.83560   7
   2   9   8 3.94624 0.92928   6
   2   9   8 2.39140 0.92356   4
   2   9   8 3.27460 1.00671   1
  -3  -9  -8 0.85534 0.67980   2
  -3  -9  -8 0.17245 0.39528   7
   3   9   8 1.51571 0.80362   6
   3   9   8 0.85682 0.49566   1
  -4  -9  -8 16.6366 2.05926   2
  -4  -9  -8 13.2297 2.04269   7
   4   9   8 14.3779 2.05340   1
   4   9   8 13.8299 1.89117   6
  -5  -9  -8 15.1577 1.95810   2
  -5  -9  -8 14.4270 2.22197   7
   5   9   8 10.7278 1.77858   1
   5   9   8 10.9324 1.75220   6
  -6  -9  -8 8.66883 1.86278   7
  -6  -9  -8 15.4976 2.05147   2
   6   9   8 13.9031 2.18896   6
   6   9   8 13.7935 2.13218   1
  -7  -9  -8 0.28114 0.51418   2
  -7  -9  -8 1.60814 1.07610   7
   7   9   8 -1.6235 1.00893   6
   3 -10  -8 5.34352 1.40298   2
   3 -10  -8 4.15218 1.32117   8
   3 -10  -8 5.87976 1.54135   7
  -3  10   8 4.84307 1.47286   8
  -3  10   8 5.89996 1.67204   4
  -3  10   8 7.31598 1.76407   1
   2 -10  -8 0.48750 0.78389   7
   2 -10  -8 0.34750 0.81517   2
   2 -10  -8 1.48141 0.90247   8
  -2  10   8 1.97301 0.95114   1
  -2  10   8 -0.2972 0.75105   8
  -2  10   8 2.23189 1.04819   4
   1 -10  -8 28.7835 2.94111   2
   1 -10  -8 21.7049 2.46361   8
   1 -10  -8 29.5840 2.62011   7
  -1  10   8 21.8611 2.61796   8
  -1  10   8 22.6132 3.01177   4
  -1  10   8 26.1689 3.20608   1
   0 -10  -8 4.77530 1.18147   7
   0 -10  -8 5.17399 1.06079   8
   0 -10  -8 4.57527 1.21436   2
   0  10   8 5.34323 1.42246   4
   0  10   8 3.64593 1.23743   1
  -1 -10  -8 7.52292 1.53369   7
  -1 -10  -8 8.32115 1.48854   2
   1  10   8 8.14312 1.68130   4
   1  10   8 9.26241 1.73197   1
  -2 -10  -8 1.22457 0.75843   2
  -2 -10  -8 0.00168 0.52608   7
   2  10   8 1.03212 0.59794   6
   2  10   8 1.48377 0.77657   1
  -3 -10  -8 4.24821 1.13097   7
  -3 -10  -8 7.80774 1.39637   2
   3  10   8 6.04328 1.35360   1
   3  10   8 5.73725 1.29115   6
  -4 -10  -8 0.12464 0.61169   2
  -4 -10  -8 0.31332 0.68797   7
   4  10   8 1.09982 0.61927   1
   4  10   8 0.08062 0.64227   6
  -5 -10  -8 -0.0788 0.53717   7
  -5 -10  -8 -0.6484 0.56075   2
   5  10   8 -1.3514 0.51433   6
   5  10   8 0.55810 0.72940   1
  -6 -10  -8 2.51757 1.25832   7
  -6 -10  -8 0.41098 0.78043   2
   6  10   8 4.57414 1.22147   1
   6  10   8 -0.1165 1.14304   6
   2 -11  -8 0.23246 0.79935   8
   2 -11  -8 0.68873 0.70184   7
   2 -11  -8 -0.1892 0.77078   2
  -2  11   8 2.00301 1.03048   1
  -2  11   8 0.91979 1.12213   4
  -2  11   8 0.00710 0.93782   8
   1 -11  -8 7.20315 1.51583   2
   1 -11  -8 3.62853 1.26093   7
   1 -11  -8 6.53917 1.39874   8
  -1  11   8 8.21478 1.89529   4
  -1  11   8 6.22772 1.56865   1
  -1  11   8 4.60757 1.28515   8
   0 -11  -8 15.3673 2.12390   2
   0 -11  -8 18.7567 2.44081   7
   0  11   8 18.7768 2.69624   1
   0  11   8 19.6922 2.73763   4
  -1 -11  -8 -0.3159 0.61098   2
  -1 -11  -8 1.78953 0.90818   7
   1  11   8 1.56335 0.83980   1
   1  11   8 0.07140 0.63490   4
  -2 -11  -8 11.7689 1.83283   2
  -2 -11  -8 11.8203 1.97423   7
   2  11   8 12.7313 2.13647   1
  -3 -11  -8 2.59615 0.88864   2
  -3 -11  -8 0.87711 0.74044   7
   3  11   8 3.67420 1.04546   1
   3  11   8 0.11567 0.57104   6
  -4 -11  -8 5.33922 1.41936   7
  -4 -11  -8 4.63668 1.24022   2
   4  11   8 5.63085 1.44764   6
   4  11   8 5.95169 1.37271   1
  -5 -11  -8 1.10794 0.93257   7
  -5 -11  -8 1.07870 0.84790   2
   5  11   8 2.72514 1.03731   1
   5  11   8 0.25917 1.06896   6
   0 -12  -8 54.3408 3.99976   2
   0 -12  -8 54.6553 4.18684   7
   0  12   8 46.7716 4.22444   4
  -1 -12  -8 22.6484 2.91642   7
  -1 -12  -8 21.6499 2.62315   2
   1  12   8 19.0465 2.81732   4
   1  12   8 22.5711 2.99981   1
  -2 -12  -8 1.15078 0.79860   2
  -2 -12  -8 -0.2440 0.93609   7
   2  12   8 2.36036 0.92665   1
  -3 -12  -8 -0.6705 0.67862   2
  -3 -12  -8 0.45055 0.76191   7
   3  12   8 0.79352 0.56464   1
   4  12   8 4.63933 1.21526   6
   2 -10   9 0.31509 0.76682   5
   2 -10   9 0.41657 0.88071   3
   1   9  -9 8.65797 2.57588   4
   1   9  -9 13.8187 2.41821   1
  -1  -9   9 12.1091 2.16523   5
  -1  -9   9 13.9347 2.26405   3
   0   9  -9 20.2976 2.73675   1
   0   9  -9 12.3078 2.51811   4
   0  -9   9 18.0335 2.56822   5
   0  -9   9 16.0902 2.55344   3
  -1   9  -9 -1.9755 1.27607   4
   1  -9   9 1.19041 1.03039   5
   1  -9   9 0.19780 0.62526   3
  -2   9  -9 32.9502 4.07179   4
  -2   9  -9 36.4525 2.91443   8
   2  -9   9 31.0116 3.37557   5
  -3   9  -9 3.29667 1.56151   4
  -3   9  -9 4.39646 1.27752   8
   3  -9   9 2.98734 1.33402   3
   3  -9   9 3.48836 1.34706   5
  -4   9  -9 0.36647 0.60618   8
  -4   9  -9 -2.4214 1.21476   4
   4  -9   9 0.35975 1.01736   5
   4  -9   9 -0.2842 0.70220   3
  -5   9  -9 1.65710 0.82132   8
  -5   9  -9 -0.1148 1.28406   4
   5  -9   9 2.18936 1.37153   3
   5  -9   9 1.16037 1.07992   5
   2   8  -9 0.42670 1.12030   1
   2   8  -9 1.43050 0.69339   6
   2   8  -9 -1.5582 1.35150   4
  -2  -8   9 -0.4677 0.84456   3
  -2  -8   9 0.18115 0.78281   5
  -2  -8   9 0.20621 0.71002   6
   1   8  -9 1.55426 1.41058   4
   1   8  -9 3.10794 1.18631   1
  -1  -8   9 1.26842 1.02312   3
  -1  -8   9 0.06941 0.57862   5
  -1  -8   9 1.24522 0.89324   6
   0   8  -9 0.33092 1.11904   4
   0   8  -9 0.38425 0.70101   1
   0  -8   9 0.35097 0.62960   5
   0  -8   9 0.67151 0.80835   6
   0  -8   9 0.80727 0.88142   3
  -1   8  -9 14.3095 1.89100   8
  -1   8  -9 12.1247 2.45207   4
   1  -8   9 14.3641 2.12643   5
   1  -8   9 11.9707 1.97202   3
  -2   8  -9 20.6039 3.02074   4
  -2   8  -9 20.8876 2.37701   8
   2  -8   9 24.4633 2.82712   5
   2  -8   9 23.4442 2.78533   3
  -3   8  -9 1.73668 1.21364   4
  -3   8  -9 2.36720 0.83578   8
   3  -8   9 1.86722 0.96165   3
   3  -8   9 4.25260 1.33294   5
  -4   8  -9 8.78830 1.93502   4
  -4   8  -9 7.90492 1.43309   8
   4  -8   9 9.71010 1.73946   5
   4  -8   9 8.57689 1.73260   3
  -5   8  -9 1.01341 1.34251   4
  -5   8  -9 6.32719 1.35671   8
   5  -8   9 5.97633 1.51109   5
   5  -8   9 6.36618 1.74281   3
  -6   8  -9 2.96445 1.22015   8
   6  -8   9 3.21889 1.39113   3
   6  -8   9 2.19048 1.10571   5
   3   7  -9 0.39736 1.00814   4
   3   7  -9 1.13636 0.97702   1
  -3  -7   9 0.56930 0.75793   5
  -3  -7   9 1.31427 1.06893   6
   2   7  -9 11.0780 2.16282   4
   2   7  -9 11.6168 2.10910   1
  -2  -7   9 7.02136 1.54371   6
  -2  -7   9 8.36229 1.69035   5
  -2  -7   9 8.01505 1.87715   3
   1   7  -9 1.62657 0.87132   1
   1   7  -9 1.46388 1.05579   4
  -1  -7   9 1.61023 0.95835   3
  -1  -7   9 3.49017 1.09192   6
  -1  -7   9 3.59922 1.21629   5
   0   7  -9 100.201 5.77564   1
   0   7  -9 99.2463 6.22304   4
   0   7  -9 86.6221 5.16488   8
   0  -7   9 81.5528 5.50429   3
   0  -7   9 91.5303 5.53311   6
   0  -7   9 92.6454 5.79562   5
  -1   7  -9 2.74566 1.23028   4
  -1   7  -9 2.83880 1.09935   1
  -1   7  -9 3.06278 1.03873   8
   1  -7   9 4.78897 1.32986   5
   1  -7   9 3.71506 1.05767   6
   1  -7   9 4.34552 1.13097   3
  -2   7  -9 12.4857 2.31038   4
  -2   7  -9 16.4892 2.00656   8
   2  -7   9 12.2658 2.00824   5
   2  -7   9 16.1081 2.15739   3
  -3   7  -9 0.15120 0.68660   8
  -3   7  -9 -1.1488 0.65605   4
   3  -7   9 -0.0820 0.77336   3
   3  -7   9 0.77224 0.86060   5
  -4   7  -9 69.8523 4.33691   8
  -4   7  -9 64.2793 4.73236   4
   4  -7   9 67.1153 4.52012   5
   4  -7   9 63.8467 4.56478   3
  -5   7  -9 -1.4904 0.95623   4
  -5   7  -9 -0.2638 0.44560   8
   5  -7   9 -1.0280 0.61781   3
   5  -7   9 0.54993 0.75221   5
  -6   7  -9 3.89046 1.15507   8
   6  -7   9 1.34721 1.02188   5
   6  -7   9 3.91680 1.37317   3
  -7   7  -9 1.19739 1.11350   2
  -7   7  -9 2.36394 0.97237   8
   7  -7   9 3.20464 1.22070   5
   7  -7   9 1.91140 1.06311   3
   4   6  -9 0.61779 0.90882   1
   4   6  -9 1.41059 1.30942   4
  -4  -6   9 1.53605 1.07625   5
  -4  -6   9 -0.3422 0.96987   6
   3   6  -9 33.6752 3.30444   1
   3   6  -9 30.0710 3.66194   4
  -3  -6   9 31.8341 3.00101   6
  -3  -6   9 25.8866 3.17079   5
   2   6  -9 0.48708 0.72431   1
   2   6  -9 -0.1345 0.95955   4
  -2  -6   9 1.10310 0.93317   6
  -2  -6   9 1.01399 0.78904   5
   1   6  -9 17.2027 2.41527   1
   1   6  -9 19.0575 2.05632   8
   1   6  -9 19.4408 2.71035   4
  -1  -6   9 19.6274 2.42555   6
  -1  -6   9 18.6129 2.39958   5
  -1  -6   9 16.3096 2.13241   3
   0   6  -9 1.69049 0.75862   1
   0   6  -9 3.18054 0.96571   8
   0   6  -9 2.38264 1.07133   4
   0  -6   9 0.93631 0.66708   5
   0  -6   9 2.68427 0.95813   6
   0  -6   9 2.74217 0.96514   3
  -1   6  -9 2.20932 1.05769   4
  -1   6  -9 1.11277 0.83388   9
  -1   6  -9 2.30620 0.94923   1
  -1   6  -9 2.36579 0.84046   8
   1  -6   9 2.02137 0.86944   5
   1  -6   9 1.87018 0.89111   3
   1  -6   9 3.31936 0.92301   6
  -2   6  -9 55.8221 4.26590   4
  -2   6  -9 52.6749 3.68744   8
   2  -6   9 61.8653 4.18011   5
   2  -6   9 65.4583 4.12373   3
   2  -6   9 65.9469 3.93730   6
  -3   6  -9 13.2430 1.83975   8
  -3   6  -9 18.4013 2.45046   4
   3  -6   9 19.5319 2.29326   3
   3  -6   9 21.1199 2.51541   5
  -4   6  -9 35.7947 3.19464   4
  -4   6  -9 37.0025 2.80083   8
   4  -6   9 36.1535 3.00899   5
   4  -6   9 36.6327 3.03956   3
  -5   6  -9 0.55495 1.07982   4
  -5   6  -9 1.89257 0.92859   8
  -5   6  -9 1.37064 0.92638   2
   5  -6   9 2.09750 1.05890   3
   5  -6   9 0.98217 0.65145   5
  -6   6  -9 24.8178 2.61947   8
  -6   6  -9 19.8426 2.55839   2
   6  -6   9 18.9481 2.36880   5
   6  -6   9 17.2263 2.47781   3
  -7   6  -9 -0.2545 0.75088   8
  -7   6  -9 -0.1711 0.76923   2
   7  -6   9 0.13872 0.90590   5
   7  -6   9 -0.0661 0.63238   3
  -8   6  -9 20.6887 2.90495   2
   8  -6   9 19.0098 2.58349   5
   8  -6   9 17.7883 2.95546   7
   4   5  -9 2.30875 1.11991   4
   4   5  -9 2.49470 1.42870   1
  -4  -5   9 2.57946 0.98460   6
  -4  -5   9 2.30756 1.10712   5
   3   5  -9 0.57466 0.81226   1
   3   5  -9 0.02032 0.65646   4
  -3  -5   9 0.53483 0.67024   5
  -3  -5   9 0.01322 0.54920   6
   2   5  -9 0.52506 0.69333   8
   2   5  -9 0.38012 0.85324   1
   2   5  -9 0.20710 0.98609   4
  -2  -5   9 0.33752 0.81494   6
  -2  -5   9 0.48903 0.78116   5
   1   5  -9 -0.4584 0.66039   1
   1   5  -9 -0.6675 0.49642   8
   1   5  -9 0.70159 0.70143   4
  -1  -5   9 -0.5085 0.52621   3
  -1  -5   9 -0.0158 0.58868   6
  -1  -5   9 0.98002 0.72554   5
   0   5  -9 10.2365 1.92855   9
   0   5  -9 9.76275 1.39487   8
   0   5  -9 7.73376 1.60944   4
   0   5  -9 8.52768 1.58233   1
   0  -5   9 9.02596 1.54664   5
   0  -5   9 9.20627 1.45559   3
   0  -5   9 7.04053 1.37609   6
  -1   5  -9 11.0993 1.50637   8
  -1   5  -9 17.0674 2.03309   1
  -1   5  -9 11.1391 1.90900   4
  -1   5  -9 12.7237 1.98125   9
   1  -5   9 12.3160 1.70818   3
   1  -5   9 9.81490 1.77690   5
   1  -5   9 13.8639 1.79440   6
  -2   5  -9 4.22572 1.08297   8
  -2   5  -9 6.16072 1.30197   1
  -2   5  -9 6.79271 1.43028   4
   2  -5   9 6.24323 1.18846   6
   2  -5   9 5.99573 1.20129   3
   2  -5   9 5.77494 1.25962   5
  -3   5  -9 6.16459 1.15922   8
  -3   5  -9 5.57823 1.35264   4
   3  -5   9 5.61263 1.35486   5
   3  -5   9 8.86242 1.34171   6
   3  -5   9 7.90727 1.41099   3
  -4   5  -9 5.54184 1.14524   8
  -4   5  -9 5.59306 1.15848   2
  -4   5  -9 5.61377 1.50697   4
   4  -5   9 5.91285 1.29047   5
   4  -5   9 5.69072 1.26230   3
  -5   5  -9 16.0931 2.14703   4
  -5   5  -9 18.1017 2.24654   2
  -5   5  -9 16.5743 2.04372   8
   5  -5   9 19.5500 2.35479   3
   5  -5   9 16.3378 2.10958   5
  -6   5  -9 12.0599 1.78373   8
  -6   5  -9 10.3631 1.79223   2
   6  -5   9 9.80692 1.77900   3
   6  -5   9 11.2457 1.75069   5
  -7   5  -9 6.28345 1.40422   8
  -7   5  -9 4.67505 1.52834   7
  -7   5  -9 4.87336 1.33287   2
   7  -5   9 6.50481 1.56894   3
   7  -5   9 4.75096 1.35478   7
   7  -5   9 8.08008 1.53846   5
  -8   5  -9 -0.2681 1.12898   7
  -8   5  -9 0.26605 1.09574   2
  -8   5  -9 0.33747 0.65462   8
   8  -5   9 -0.0107 0.87430   7
   8  -5   9 -1.4146 0.73172   3
   8  -5   9 0.63224 0.72570   5
   5   4  -9 0.02359 0.78624   1
   5   4  -9 0.41892 1.16331   4
  -5  -4   9 0.15787 0.70303   6
  -5  -4   9 0.45202 0.86272   5
   4   4  -9 2.81494 1.21867   4
   4   4  -9 2.76442 1.29847   1
  -4  -4   9 3.52059 1.28881   1
  -4  -4   9 1.63051 0.90580   5
  -4  -4   9 3.05153 1.13957   6
   3   4  -9 56.9362 4.36618   4
   3   4  -9 49.3647 4.05671   1
  -3  -4   9 55.7083 3.96930   6
  -3  -4   9 48.7252 3.77186   5
  -3  -4   9 53.4763 4.26551   1
   2   4  -9 5.98129 1.54464   4
   2   4  -9 6.45368 1.21242   8
   2   4  -9 8.67680 1.76667   1
  -2  -4   9 4.40781 1.28209   6
  -2  -4   9 6.28778 1.37853   5
  -2  -4   9 6.18781 1.55962   1
   1   4  -9 10.1558 1.45156   8
   1   4  -9 15.0553 2.18427   4
   1   4  -9 14.4475 2.13910   1
  -1  -4   9 12.8055 1.82484   5
  -1  -4   9 14.5946 1.98458   6
  -1  -4   9 13.0685 2.08594   1
   0   4  -9 0.61838 0.72607   1
   0   4  -9 0.51506 0.81727   9
   0   4  -9 0.72073 0.79600   4
   0   4  -9 1.01482 0.66343   8
   0  -4   9 0.71378 0.66209   6
   0  -4   9 1.75577 0.85358   1
   0  -4   9 0.39535 0.54317   5
   0  -4   9 0.52528 0.59981   3
  -1   4  -9 18.0136 1.72883   1
  -1   4  -9 14.8856 1.68670   8
  -1   4  -9 15.3917 2.17514   9
  -1   4  -9 14.1828 2.02738   4
   1  -4   9 16.6957 2.00319   5
   1  -4   9 11.9274 1.61374   3
   1  -4   9 15.7799 1.96347   1
   1  -4   9 12.4061 1.74036   6
  -2   4  -9 321.625 14.6595   4
  -2   4  -9 307.653 14.6109   9
  -2   4  -9 304.095 14.1945   1
  -2   4  -9 278.438 14.0582   8
   2  -4   9 281.449 14.2424   6
   2  -4   9 269.663 14.0647   3
   2  -4   9 283.752 14.3890   5
   2  -4   9 327.080 14.3685   1
  -3   4  -9 11.7486 1.60352   8
  -3   4  -9 14.9920 1.68141   2
  -3   4  -9 15.2510 1.99279   4
   3  -4   9 12.5543 1.67311   3
   3  -4   9 11.7225 1.71953   5
   3  -4   9 15.8665 1.85167   6
  -4   4  -9 0.60440 0.83410   4
  -4   4  -9 0.74784 0.67684   2
  -4   4  -9 0.57302 0.54097   8
   4  -4   9 0.36357 0.48455   6
   4  -4   9 0.36241 0.62620   3
   4  -4   9 -0.0040 0.59224   5
  -5   4  -9 1.66322 0.82807   2
  -5   4  -9 1.50025 0.98953   4
  -5   4  -9 1.87033 0.73788   8
   5  -4   9 2.12153 0.81170   5
   5  -4   9 0.19359 0.63585   3
  -6   4  -9 3.39536 0.94584   8
  -6   4  -9 3.75444 1.07466   2
  -6   4  -9 3.27395 1.10034   7
   6  -4   9 1.82664 0.78788   3
   6  -4   9 3.76601 1.14362   5
   6  -4   9 3.54016 0.95850   7
  -7   4  -9 0.52833 0.57908   8
  -7   4  -9 1.25228 0.96478   7
  -7   4  -9 0.59901 0.85791   2
   7  -4   9 0.57282 0.80038   3
   7  -4   9 1.20511 0.73354   5
   7  -4   9 -0.2177 0.72866   7
  -8   4  -9 7.67183 1.83930   7
  -8   4  -9 4.39574 1.17304   8
  -8   4  -9 7.27744 1.81030   2
   8  -4   9 6.59769 1.52254   5
   8  -4   9 4.00648 1.29934   3
   8  -4   9 5.11031 1.46040   7
  -9   4  -9 25.6355 2.85539   8
  -9   4  -9 18.6223 3.00250   7
   9  -4   9 20.1381 2.68557   5
   9  -4   9 25.5691 3.20968   7
   5   3  -9 41.3722 3.74454   1
   5   3  -9 35.0801 4.16047   4
  -5  -3   9 32.4096 3.05248   5
  -5  -3   9 46.9719 4.04381   1
  -5  -3   9 39.4710 3.46281   6
   4   3  -9 16.4085 2.63017   4
   4   3  -9 17.1900 2.72001   1
  -4  -3   9 14.8283 2.06550   5
  -4  -3   9 14.6130 2.24417   6
  -4  -3   9 16.9100 2.75797   1
   3   3  -9 1.57080 0.74544   8
   3   3  -9 0.97120 0.90255   4
   3   3  -9 0.28691 0.85258   1
  -3  -3   9 1.10011 0.72720   6
  -3  -3   9 1.30097 1.03278   1
  -3  -3   9 -0.1507 0.50172   5
   2   3  -9 0.53559 0.65834   4
   2   3  -9 0.15825 0.77307   1
   2   3  -9 0.15584 0.50455   8
  -2  -3   9 0.60643 0.48461   5
  -2  -3   9 0.00215 0.63464   6
  -2  -3   9 0.69546 0.84646   1
   1   3  -9 41.5934 3.61789   9
   1   3  -9 39.5733 3.26833   4
   1   3  -9 41.0047 2.81267   8
   1   3  -9 35.8320 3.07624   1
  -1  -3   9 41.6618 3.13130   6
  -1  -3   9 41.5818 3.00053   5
  -1  -3   9 41.1843 3.30515   1
   0   3  -9 2.00067 0.78104   1
   0   3  -9 2.80236 1.07399   4
   0   3  -9 2.23824 1.11295   9
   0   3  -9 1.57689 0.71545   8
   0  -3   9 2.52364 0.89867   1
   0  -3   9 1.83995 0.70108   6
   0  -3   9 2.29021 0.86592   5
  -1   3  -9 21.8337 2.04905   4
  -1   3  -9 19.3501 1.70145   8
  -1   3  -9 19.6171 2.11583   9
  -1   3  -9 22.7137 1.96449   1
   1  -3   9 17.4512 2.07463   5
   1  -3   9 18.9522 2.16036   6
   1  -3   9 18.5396 1.86947   1
   1  -3   9 19.0344 1.62627   3
  -2   3  -9 54.6550 3.51148   8
  -2   3  -9 62.2832 3.92136   4
  -2   3  -9 56.2843 3.60864   1
  -2   3  -9 63.3128 4.05503   9
  -2   3  -9 63.9084 3.52265   2
   2  -3   9 54.7007 3.73645   5
   2  -3   9 56.4430 3.47988   3
   2  -3   9 59.0299 3.74681   6
   2  -3   9 59.3092 3.70234   1
  -3   3  -9 413.686 18.1342   4
  -3   3  -9 386.379 17.8156   2
  -3   3  -9 378.178 17.8086   8
   3  -3   9 382.268 17.9714   6
   3  -3   9 367.645 17.7597   3
   3  -3   9 361.388 17.9706   5
  -4   3  -9 282.327 13.3680   8
  -4   3  -9 286.711 13.4947   2
  -4   3  -9 274.112 13.4209   4
   4  -3   9 283.615 13.4262   3
   4  -3   9 270.521 13.3713   6
   4  -3   9 273.544 13.5301   5
  -5   3  -9 1.05030 0.72031   7
  -5   3  -9 2.14706 1.00349   4
  -5   3  -9 1.75933 0.69913   8
  -5   3  -9 0.68182 0.56161   2
   5  -3   9 1.99753 0.87977   5
   5  -3   9 2.40100 0.76915   3
   5  -3   9 3.58723 0.83108   6
  -6   3  -9 0.52376 0.66740   8
  -6   3  -9 -0.2132 0.68139   7
  -6   3  -9 0.71577 0.66732   2
   6  -3   9 0.32084 0.65778   3
   6  -3   9 -0.3691 0.57924   5
   6  -3   9 -0.0033 0.52119   7
  -7   3  -9 7.78656 1.40902   8
  -7   3  -9 5.51252 1.43085   2
  -7   3  -9 4.41504 1.22790   7
   7  -3   9 3.35809 1.06462   3
   7  -3   9 7.08272 1.44574   7
   7  -3   9 4.68935 1.23373   5
  -8   3  -9 2.85452 1.24437   2
  -8   3  -9 3.08199 1.24244   7
  -8   3  -9 5.02902 1.14329   8
   8  -3   9 3.74459 1.20761   5
   8  -3   9 4.30782 1.25711   7
   8  -3   9 3.81265 1.18513   3
  -9   3  -9 26.3682 3.57578   7
  -9   3  -9 27.1970 2.82027   8
  -9   3  -9 21.3394 3.01587   2
   9  -3   9 24.6307 3.12867   3
   9  -3   9 19.7937 2.72299   5
   9  -3   9 25.2840 3.25628   7
   5   2  -9 0.49477 0.76898   1
   5   2  -9 0.97521 0.83879   4
  -5  -2   9 0.03672 0.68269   5
  -5  -2   9 -0.0150 0.84207   6
  -5  -2   9 -0.0806 0.71287   1
   4   2  -9 14.3793 1.89629   8
   4   2  -9 13.3070 2.27007   4
   4   2  -9 11.5862 2.17843   1
  -4  -2   9 14.0936 2.42425   1
  -4  -2   9 12.9441 2.05933   6
  -4  -2   9 10.4687 1.67454   5
   3   2  -9 2.87982 0.93710   8
   3   2  -9 3.86242 1.28301   4
   3   2  -9 5.88586 1.42992   1
  -3  -2   9 6.21112 1.30432   5
  -3  -2   9 4.10910 1.33445   1
  -3  -2   9 7.27942 1.51336   6
   2   2  -9 15.2599 2.24904   1
   2   2  -9 15.9087 1.85817   8
   2   2  -9 12.2503 2.07755   4
  -2  -2   9 14.6664 2.06901   6
  -2  -2   9 15.6039 1.90467   5
  -2  -2   9 15.6672 2.35050   1
   1   2  -9 4.44826 1.15956   4
   1   2  -9 2.85162 1.23863   9
   1   2  -9 4.05451 1.06414   1
   1   2  -9 3.54789 0.92474   8
  -1  -2   9 4.03049 1.15860   1
  -1  -2   9 4.32987 1.06389   5
  -1  -2   9 4.44967 1.41119   9
  -1  -2   9 3.20223 0.98077   6
   0   2  -9 7.42610 1.48165   4
   0   2  -9 6.57574 1.08517   8
   0   2  -9 6.74704 1.32933   1
   0   2  -9 4.37228 1.24048   9
   0  -2   9 7.00688 1.32605   6
   0  -2   9 6.62784 1.54610   9
   0  -2   9 5.99663 1.15136   5
   0  -2   9 5.97524 1.34226   1
  -1   2  -9 2.23944 0.75177   8
  -1   2  -9 4.58381 1.00929   1
  -1   2  -9 3.08032 1.10475   9
  -1   2  -9 3.83082 1.08874   4
  -1   2  -9 6.15578 0.93330   2
   1  -2   9 4.75867 1.02359   5
   1  -2   9 6.13981 1.21383   1
   1  -2   9 3.77915 0.93029   6
   1  -2   9 5.88977 0.99030   3
   1  -2   9 6.49251 1.47376   9
  -2   2  -9 20.1565 1.91275   4
  -2   2  -9 21.1264 1.84422   1
  -2   2  -9 19.3479 2.03422   9
  -2   2  -9 19.9924 1.67422   2
  -2   2  -9 20.4553 1.77947   8
   2  -2   9 25.6559 2.33156   9
   2  -2   9 18.0606 2.05857   6
   2  -2   9 19.1172 1.82985   1
   2  -2   9 21.4412 1.62461   3
   2  -2   9 19.5592 1.78678   5
  -3   2  -9 22.5878 1.90011   2
  -3   2  -9 26.9983 2.09784   4
  -3   2  -9 24.1824 1.89028   8
  -3   2  -9 19.8283 1.83263   1
   3  -2   9 20.2720 1.73889   3
   3  -2   9 23.0093 2.12209   9
   3  -2   9 23.8656 1.98084   5
   3  -2   9 23.8202 2.05399   6
   3  -2   9 24.7128 1.89627   1
  -4   2  -9 90.0996 5.10054   2
  -4   2  -9 85.3651 4.93504   4
  -4   2  -9 97.6642 5.05281   8
   4  -2   9 88.4001 5.07262   6
   4  -2   9 88.4860 5.10047   5
   4  -2   9 87.6258 4.91599   3
  -5   2  -9 125.373 6.83130   7
  -5   2  -9 130.383 6.62953   8
  -5   2  -9 122.879 6.80415   2
   5  -2   9 127.914 6.65746   7
   5  -2   9 127.336 6.70503   3
   5  -2   9 113.625 6.65467   5
   5  -2   9 125.310 6.64941   6
  -6   2  -9 2.23338 0.91495   2
  -6   2  -9 3.91771 1.18281   7
  -6   2  -9 2.89275 0.81280   8
   6  -2   9 1.42192 0.71341   3
   6  -2   9 3.33652 1.00053   5
   6  -2   9 2.66828 0.90994   7
   6  -2   9 3.63489 0.86706   6
  -7   2  -9 11.0585 1.87425   2
  -7   2  -9 15.8470 1.87764   8
  -7   2  -9 14.4508 2.24683   7
   7  -2   9 17.7126 2.26954   7
   7  -2   9 13.4129 1.91552   5
   7  -2   9 10.4205 1.76609   3
  -8   2  -9 0.90837 0.84494   7
  -8   2  -9 0.98675 0.75373   2
  -8   2  -9 1.92113 0.77346   8
   8  -2   9 1.09144 0.71315   7
   8  -2   9 0.47294 0.87860   5
   8  -2   9 -0.5293 0.72298   3
  -9   2  -9 1.83446 0.86520   8
  -9   2  -9 2.08609 1.26927   7
  -9   2  -9 3.42557 1.43542   2
   9  -2   9 1.17050 1.04365   5
   9  -2   9 2.94090 1.34291   7
   9  -2   9 0.68597 0.81047   3
   5   1  -9 21.2274 3.16840   4
   5   1  -9 13.5400 2.22205   8
   5   1  -9 20.4871 2.95746   1
  -5  -1   9 24.5029 2.82915   6
  -5  -1   9 14.6315 2.33151   5
  -5  -1   9 18.3087 2.98255   1
   4   1  -9 47.8218 3.87458   1
   4   1  -9 41.8109 3.20723   8
   4   1  -9 46.3241 3.94668   4
  -4  -1   9 44.8754 3.24619   5
  -4  -1   9 43.4233 3.85413   1
  -4  -1   9 43.4336 3.42670   6
   3   1  -9 63.4048 3.97473   8
   3   1  -9 57.7171 4.38883   1
   3   1  -9 61.2814 4.61849   4
  -3  -1   9 66.4422 4.28255   6
  -3  -1   9 60.5550 3.93775   5
  -3  -1   9 58.9941 4.54718   1
   2   1  -9 1.97235 1.05112   4
   2   1  -9 1.61347 0.73103   8
   2   1  -9 1.02008 0.65690   1
  -2  -1   9 1.23894 0.61948   5
  -2  -1   9 2.80025 0.90025   6
  -2  -1   9 0.82409 0.66749   1
   1   1  -9 62.4242 3.68493   8
   1   1  -9 50.2054 3.97379   4
   1   1  -9 57.5055 4.51448   9
  -1  -1   9 59.7539 3.91563   6
  -1  -1   9 63.8556 4.80444   9
  -1  -1   9 57.8682 4.17960   1
  -1  -1   9 56.9323 3.61867   5
   0   1  -9 14.1895 2.06279   4
   0   1  -9 19.9835 1.49226   2
   0   1  -9 14.3934 2.25919   9
   0   1  -9 20.3277 1.64561   8
   0  -1   9 14.0265 2.34781   9
   0  -1   9 14.2052 1.75808   5
   0  -1   9 15.2192 1.92161   6
   0  -1   9 15.4146 2.16251   1
  -1   1  -9 19.7755 2.48561   9
  -1   1  -9 19.9101 1.62884   8
  -1   1  -9 14.2584 1.95798   4
  -1   1  -9 17.5298 1.47374   2
   1  -1   9 17.3664 1.90575   5
   1  -1   9 18.9889 2.52800   9
   1  -1   9 17.5754 2.04740   6
   1  -1   9 16.6305 2.09382   1
  -2   1  -9 21.1244 1.86485   4
  -2   1  -9 19.2589 1.59844   8
  -2   1  -9 16.0752 1.50984   2
  -2   1  -9 17.9754 1.95534   9
   2  -1   9 16.7735 1.35035   3
   2  -1   9 18.4622 2.06619   6
   2  -1   9 18.6066 1.68866   5
   2  -1   9 18.8888 1.80157   1
   2  -1   9 19.5986 2.06817   9
  -3   1  -9 12.6619 1.51155   8
  -3   1  -9 11.7740 1.45281   2
  -3   1  -9 13.7955 1.60967   4
  -3   1  -9 10.5129 1.59116   9
   3  -1   9 14.1758 1.88556   9
   3  -1   9 10.4928 1.24634   3
   3  -1   9 9.99466 1.52768   6
   3  -1   9 10.5482 1.39992   1
   3  -1   9 10.0363 1.39837   5
  -4   1  -9 20.2977 1.75771   7
  -4   1  -9 19.2233 1.69368   8
  -4   1  -9 19.7743 1.81531   2
  -4   1  -9 18.0673 1.62391   4
   4  -1   9 16.2787 1.89057   5
   4  -1   9 20.3669 1.84078   6
   4  -1   9 18.0023 1.59838   3
  -5   1  -9 -0.4723 0.46297   7
  -5   1  -9 0.41963 0.56172   8
  -5   1  -9 0.42922 0.46900   2
   5  -1   9 0.33408 0.60013   5
   5  -1   9 -0.4145 0.36912   3
   5  -1   9 -0.1712 0.24550   6
  -6   1  -9 11.0131 1.85731   7
  -6   1  -9 12.4387 1.57329   8
  -6   1  -9 12.1999 1.77130   2
   6  -1   9 10.1944 1.56090   3
   6  -1   9 12.0887 1.69368   5
   6  -1   9 14.3641 1.73860   6
  -7   1  -9 -0.1352 0.64208   7
  -7   1  -9 0.57250 0.57240   8
  -7   1  -9 0.25494 0.60965   2
   7  -1   9 -1.4943 0.63806   5
   7  -1   9 0.65432 0.57599   3
   7  -1   9 1.42468 0.66889   6
  -8   1  -9 2.00328 0.84118   8
  -8   1  -9 3.08624 1.26209   2
  -8   1  -9 1.97632 0.95400   7
   8  -1   9 0.14297 0.83010   5
   8  -1   9 1.20314 0.90309   3
  -9   1  -9 4.59699 1.34695   2
  -9   1  -9 6.11909 1.28962   8
  -9   1  -9 2.22349 1.17662   7
   9  -1   9 7.08566 1.57125   3
   9  -1   9 5.02955 1.31214   5
   5   0  -9 11.6403 1.85859   8
   5   0  -9 14.2672 2.63214   4
   5   0  -9 11.8912 2.31357   1
  -5   0   9 16.2382 2.74539   1
  -5   0   9 14.0079 2.13129   6
   4   0  -9 18.4913 2.84923   4
   4   0  -9 20.2385 2.34415   8
   4   0  -9 18.0758 2.68973   1
  -4   0   9 19.6860 2.93415   1
  -4   0   9 22.7239 2.63360   6
  -4   0   9 23.9661 2.61193   5
   3   0  -9 0.50192 0.51486   8
   3   0  -9 -0.6589 0.64768   4
  -3   0   9 0.66464 0.85065   1
  -3   0   9 1.28764 0.78995   6
  -3   0   9 -0.1486 0.29281   5
   2   0  -9 91.0592 6.24508   4
   2   0  -9 100.546 6.91427   9
   2   0  -9 111.569 5.81338   8
  -2   0   9 100.127 7.05016   9
  -2   0   9 108.413 6.03064   6
  -2   0   9 103.388 5.61359   5
  -2   0   9 101.893 6.40676   1
   1   0  -9 0.45818 0.38841   2
   1   0  -9 0.10289 0.32670   8
   1   0  -9 -0.3109 0.45882   9
   1   0  -9 -0.0500 0.42851   4
  -1   0   9 0.17362 0.63516   9
  -1   0   9 -0.1704 0.63366   1
  -1   0   9 -0.1446 0.45907   6
  -1   0   9 0.21461 0.43848   5
   0   0  -9 1.20051 0.76920   9
   0   0  -9 0.73452 0.41836   2
   0   0  -9 0.50298 0.51410   8
   0   0  -9 0.85197 0.62422   4
   0   0   9 1.45736 0.91031   9
   0   0   9 0.49723 0.57143   1
   0   0   9 0.57345 0.51884   6
   0   0   9 0.76189 0.49278   5
  -1   0  -9 34.9847 2.27331   2
  -1   0  -9 29.0922 2.84430   9
  -1   0  -9 34.1978 2.35220   8
  -1   0  -9 32.6576 2.61572   4
   1   0   9 33.7295 2.35210   5
   1   0   9 38.3415 2.68483   6
   1   0   9 33.1269 3.01122   9
   1   0   9 34.2313 2.70955   1
  -2   0  -9 1.07103 0.72505   9
  -2   0  -9 1.04683 0.53658   8
  -2   0  -9 -0.0049 0.32549   4
  -2   0  -9 0.25163 0.32554   2
   2   0   9 -0.0282 0.48053   6
   2   0   9 0.31972 0.39701   1
   2   0   9 0.37673 0.34070   5
   2   0   9 0.80245 0.70418   9
  -3   0  -9 5.89070 1.21397   9
  -3   0  -9 4.17221 0.92395   2
  -3   0  -9 5.93854 1.01427   8
  -3   0  -9 5.36705 0.95981   4
   3   0   9 4.87018 1.13245   9
   3   0   9 6.61621 1.16678   6
   3   0   9 4.66853 0.96120   5
   3   0   9 5.63905 1.06488   1
   3   0   9 6.81301 0.91654   3
  -4   0  -9 70.8082 4.08877   7
  -4   0  -9 65.7077 3.88625   8
  -4   0  -9 68.8325 4.11553   2
   4   0   9 71.5997 4.15234   6
   4   0   9 64.3060 3.96572   5
   4   0   9 67.8135 3.81141   3
  -5   0  -9 97.7188 5.45680   7
  -5   0  -9 96.0026 5.37366   2
  -5   0  -9 98.2010 5.05258   8
   5   0   9 87.0797 5.13419   6
   5   0   9 88.7280 5.13348   5
   5   0   9 86.3399 5.00336   3
  -6   0  -9 0.49136 0.46075   8
  -6   0  -9 2.32537 0.88976   7
  -6   0  -9 0.35975 0.47946   2
   6   0   9 1.36742 0.77706   5
   6   0   9 1.32947 0.67869   3
   6   0   9 0.16503 0.42917   6
  -7   0  -9 0.32817 0.54259   7
  -7   0  -9 -0.2390 0.68512   2
  -7   0  -9 -0.1087 0.50951   8
   7   0   9 -0.6160 0.52834   3
   7   0   9 -0.0222 0.44022   5
   7   0   9 0.39155 0.43129   6
  -8   0  -9 3.36181 1.37173   7
  -8   0  -9 5.70506 1.11736   8
  -8   0  -9 2.83695 1.14021   2
   8   0   9 4.26079 1.13269   5
   8   0   9 4.17407 1.08826   3
  -9   0  -9 1.68179 0.99360   2
  -9   0  -9 1.05970 1.23113   7
   9   0   9 -0.0734 0.90209   5
   9   0   9 0.77782 0.74161   3
  -6   1   9 0.45961 1.32756   1
   5  -1  -9 0.46623 0.74588   8
   5  -1  -9 -0.6690 0.54215   4
   5  -1  -9 0.34104 0.78501   1
  -5   1   9 0.18380 0.98480   1
  -5   1   9 0.13006 0.87154   4
  -5   1   9 -0.1878 0.71119   6
   4  -1  -9 2.32171 1.10835   4
   4  -1  -9 1.82847 0.72885   8
  -4   1   9 1.92737 0.91783   6
  -4   1   9 2.49322 1.20681   4
  -4   1   9 2.14544 1.04975   1
   3  -1  -9 102.459 6.96889   4
   3  -1  -9 106.652 6.32636   8
  -3   1   9 114.774 7.15955   1
  -3   1   9 124.119 7.48412   4
  -3   1   9 127.104 6.70081   6
   2  -1  -9 13.3102 2.18987   4
   2  -1  -9 12.2749 1.63757   8
   2  -1  -9 12.7751 1.47510   2
   2  -1  -9 14.5265 2.47490   9
  -2   1   9 15.4368 2.60850   9
  -2   1   9 17.2327 2.59214   4
  -2   1   9 13.3304 1.86074   6
  -2   1   9 10.9942 2.02702   1
  -2   1   9 11.9941 1.51124   5
   1  -1  -9 0.68858 0.59802   4
   1  -1  -9 0.99670 0.78453   9
   1  -1  -9 -0.0126 0.49204   8
   1  -1  -9 0.39578 0.38334   2
  -1   1   9 1.28978 0.78500   9
  -1   1   9 1.97653 0.89972   4
  -1   1   9 1.80995 0.76315   6
  -1   1   9 1.14393 0.56618   5
  -1   1   9 0.18752 0.52734   1
   0  -1  -9 54.8452 3.82187   4
   0  -1  -9 51.2585 3.33272   8
   0  -1  -9 58.5737 3.28032   2
   0   1   9 57.7212 3.33498   5
   0   1   9 54.6457 3.94080   1
   0   1   9 48.6930 4.15428   9
   0   1   9 56.1354 3.66826   6
   0   1   9 53.4924 3.91996   4
  -1  -1  -9 92.0024 4.92563   8
  -1  -1  -9 93.7776 4.85449   2
  -1  -1  -9 87.0947 5.25612   4
   1   1   9 87.9821 5.77584   9
   1   1   9 90.6424 5.40916   1
   1   1   9 94.1841 5.23030   6
   1   1   9 83.6220 4.77264   5
  -2  -1  -9 10.2437 1.46880   4
  -2  -1  -9 12.5688 1.41733   8
  -2  -1  -9 9.57167 1.26449   2
   2   1   9 10.4434 1.32712   5
   2   1   9 8.57825 1.46782   1
   2   1   9 11.4000 1.54642   6
   2   1   9 10.7907 1.78235   9
  -3  -1  -9 17.4692 1.55940   8
  -3  -1  -9 19.4466 1.65589   7
  -3  -1  -9 22.9140 1.79979   2
  -3  -1  -9 18.8001 1.65635   4
   3   1   9 21.2655 2.10745   9
   3   1   9 19.4208 1.82922   1
   3   1   9 24.0529 1.98576   6
   3   1   9 21.1256 1.71125   5
  -4  -1  -9 9.16885 1.40148   7
  -4  -1  -9 6.61752 1.07309   8
  -4  -1  -9 5.90828 1.14092   2
   4   1   9 7.01107 1.07664   5
   4   1   9 7.90787 1.31975   9
   4   1   9 6.08506 0.91241   3
   4   1   9 5.79015 1.16644   6
   4   1   9 6.52243 1.11280   1
  -5  -1  -9 5.93128 1.26151   7
  -5  -1  -9 4.46865 1.00404   2
  -5  -1  -9 4.81729 0.88220   8
   5   1   9 3.64182 0.85179   5
   5   1   9 5.79963 1.04621   3
   5   1   9 4.17503 0.99875   6
  -6  -1  -9 49.5523 3.66823   7
  -6  -1  -9 53.8682 3.14076   8
  -6  -1  -9 54.6380 3.61146   2
   6   1   9 42.9732 3.18522   5
   6   1   9 52.1947 3.35198   6
   6   1   9 45.0352 3.20773   3
  -7  -1  -9 13.5101 1.96023   2
  -7  -1  -9 15.2302 1.69215   8
  -7  -1  -9 14.4159 2.18984   7
   7   1   9 11.6771 1.63771   6
   7   1   9 10.4407 1.64715   3
   7   1   9 11.0128 1.61208   5
  -8  -1  -9 21.4536 2.69169   2
  -8  -1  -9 23.3435 3.05693   7
   8   1   9 24.2520 2.26878   6
   8   1   9 27.2433 2.90992   3
   8   1   9 22.8144 2.47929   5
  -9  -1  -9 7.48883 1.95830   7
  -9  -1  -9 10.1489 2.04134   2
   9   1   9 8.83751 1.75289   5
   9   1   9 12.2838 2.07820   3
   5  -2  -9 -0.0574 0.46219   8
   5  -2  -9 1.27520 1.11539   4
  -5   2   9 0.15977 1.04646   1
  -5   2   9 1.83720 1.29049   4
  -5   2   9 2.88736 1.06212   6
   4  -2  -9 0.90060 0.58849   8
   4  -2  -9 0.09229 0.65862   4
  -4   2   9 -0.3483 0.59704   6
  -4   2   9 0.53463 0.67172   1
  -4   2   9 -0.5273 0.50285   4
   3  -2  -9 15.8701 1.77806   2
   3  -2  -9 13.9719 2.34256   4
   3  -2  -9 14.1335 1.92056   8
  -3   2   9 13.0207 2.26717   1
  -3   2   9 10.4117 2.12282   4
  -3   2   9 14.7850 1.97170   6
   2  -2  -9 -0.1892 0.47100   4
   2  -2  -9 0.31168 0.40632   2
   2  -2  -9 -0.0902 0.94944   9
   2  -2  -9 0.20982 0.38892   8
  -2   2   9 0.44711 0.68425   4
  -2   2   9 0.79510 1.00180   9
  -2   2   9 0.23720 0.40835   6
  -2   2   9 -0.1676 0.72075   1
   1  -2  -9 194.093 9.18210   2
   1  -2  -9 179.421 9.31955   8
   1  -2  -9 169.967 9.85519   4
  -1   2   9 186.662 10.6095   9
  -1   2   9 186.737 10.0908   1
  -1   2   9 194.672 9.61790   6
  -1   2   9 183.032 9.01748   5
  -1   2   9 191.480 10.1757   4
   0  -2  -9 1.50674 0.71850   4
   0  -2  -9 0.48892 0.35847   2
   0  -2  -9 0.49333 0.53584   8
   0   2   9 0.73855 0.64842   1
   0   2   9 0.65044 0.65990   9
   0   2   9 0.94223 0.56524   6
   0   2   9 0.14699 0.35377   5
   0   2   9 -0.0529 0.48619   4
  -1  -2  -9 332.351 15.4250   2
  -1  -2  -9 324.818 15.9081   4
  -1  -2  -9 317.024 15.4464   8
   1   2   9 331.363 15.2950   5
   1   2   9 346.110 15.8325   6
   1   2   9 332.661 16.6010   9
   1   2   9 332.754 16.0736   4
   1   2   9 323.840 16.0769   1
  -2  -2  -9 33.8894 2.35913   2
  -2  -2  -9 30.4507 2.22270   8
  -2  -2  -9 31.4866 2.45599   4
   2   2   9 32.8807 2.91026   9
   2   2   9 37.3351 2.70036   4
   2   2   9 35.9393 2.74234   1
   2   2   9 33.7766 2.50325   6
   2   2   9 31.0916 2.15820   5
  -3  -2  -9 8.03986 1.18594   7
  -3  -2  -9 7.90194 1.22773   2
  -3  -2  -9 6.91795 1.12844   4
  -3  -2  -9 8.30118 1.12452   8
   3   2   9 7.64931 1.28363   6
   3   2   9 6.75402 1.21488   1
   3   2   9 8.32223 1.53994   9
   3   2   9 8.54919 1.12985   5
  -4  -2  -9 6.15645 0.96861   8
  -4  -2  -9 4.98981 1.08097   7
  -4  -2  -9 4.87415 1.07683   2
   4   2   9 4.58527 0.97021   6
   4   2   9 5.17631 0.92492   5
   4   2   9 5.88117 1.09524   1
   4   2   9 4.58738 0.79050   3
   4   2   9 5.09780 1.13349   9
  -5  -2  -9 -0.3499 0.27573   2
  -5  -2  -9 0.29160 0.46890   8
  -5  -2  -9 -0.2462 0.33033   7
   5   2   9 -0.3672 0.29045   5
   5   2   9 0.21730 0.38485   3
   5   2   9 0.52711 0.58037   6
  -6  -2  -9 7.19145 1.09616   8
  -6  -2  -9 5.85823 1.27643   2
  -6  -2  -9 5.34486 1.21985   7
   6   2   9 4.58749 1.12076   6
   6   2   9 6.16232 1.20092   3
   6   2   9 5.34786 1.04538   5
  -7  -2  -9 3.96378 0.87054   8
  -7  -2  -9 4.14533 1.22907   7
  -7  -2  -9 2.58731 0.89752   2
   7   2   9 2.27973 0.90092   3
   7   2   9 3.16239 1.04250   5
   7   2   9 3.77784 0.99454   6
  -8  -2  -9 1.54313 0.75674   2
  -8  -2  -9 1.48330 0.87909   7
   8   2   9 1.44465 0.93567   3
   8   2   9 0.99375 0.72078   6
   8   2   9 0.49363 0.59740   5
  -9  -2  -9 29.2050 3.58498   7
  -9  -2  -9 25.5792 3.08400   2
   9   2   9 28.5566 2.65397   6
   9   2   9 28.0403 2.97163   5
   9   2   9 28.1699 3.19631   3
   5  -3  -9 1.82342 0.96414   8
   5  -3  -9 2.39145 1.37715   4
  -5   3   9 0.67516 1.12209   1
  -5   3   9 1.60393 0.86705   6
  -5   3   9 0.69668 1.27227   4
   4  -3  -9 4.98622 1.07128   2
   4  -3  -9 5.57529 1.67755   4
   4  -3  -9 5.95205 1.39549   8
  -4   3   9 5.76618 1.57754   1
  -4   3   9 6.06530 1.82710   4
  -4   3   9 7.95169 1.45531   6
   3  -3  -9 12.5139 1.65771   2
   3  -3  -9 9.53520 1.93533   4
   3  -3  -9 10.7437 1.62262   8
  -3   3   9 11.4309 2.18909   1
  -3   3   9 10.5151 2.06993   4
  -3   3   9 13.6623 1.88641   6
   2  -3  -9 5.84500 1.08836   2
   2  -3  -9 3.75707 1.30499   4
   2  -3  -9 4.19569 1.03072   8
  -2   3   9 2.48311 1.07770   1
  -2   3   9 4.76599 1.15849   6
  -2   3   9 5.87454 1.49443   4
   1  -3  -9 106.997 6.13762   8
   1  -3  -9 119.492 6.09445   2
   1  -3  -9 110.524 6.75637   4
  -1   3   9 115.229 6.36784   6
  -1   3   9 122.733 7.02037   4
  -1   3   9 113.543 7.34571   9
  -1   3   9 107.923 6.79975   1
   0  -3  -9 22.8241 2.26278   4
   0  -3  -9 22.7991 1.88227   2
   0  -3  -9 22.0487 1.96760   8
   0   3   9 24.5781 2.46495   1
   0   3   9 27.6931 1.82768   5
   0   3   9 27.0170 2.47567   4
   0   3   9 26.6834 2.19910   6
   0   3   9 25.7641 2.71809   9
  -1  -3  -9 119.011 6.30109   8
  -1  -3  -9 108.085 6.57091   4
  -1  -3  -9 125.215 6.33383   2
   1   3   9 122.649 6.04928   5
   1   3   9 117.881 7.24482   9
   1   3   9 118.022 6.84718   1
   1   3   9 125.409 6.84613   4
   1   3   9 128.210 6.60265   6
  -2  -3  -9 148.822 7.50445   8
  -2  -3  -9 156.249 7.65649   2
  -2  -3  -9 136.347 7.69804   4
  -2  -3  -9 155.607 7.47385   7
   2   3   9 156.703 7.83168   6
   2   3   9 142.000 7.29341   5
   2   3   9 148.639 8.41924   9
   2   3   9 142.523 7.97706   1
   2   3   9 163.068 8.00016   4
  -3  -3  -9 17.4674 1.58406   7
  -3  -3  -9 13.5092 1.67247   2
  -3  -3  -9 13.4686 1.37253   4
  -3  -3  -9 15.3023 1.56012   8
   3   3   9 11.3261 1.67650   1
   3   3   9 15.7814 1.53455   4
   3   3   9 13.8311 1.73115   6
   3   3   9 14.5060 1.51290   5
   3   3   9 14.0769 2.00847   9
  -4  -3  -9 33.1805 2.44852   7
  -4  -3  -9 29.7734 2.32166   2
  -4  -3  -9 27.1124 1.96632   8
   4   3   9 28.2715 2.07002   5
   4   3   9 28.4729 2.29099   6
   4   3   9 27.0063 2.44913   9
   4   3   9 29.0435 2.29583   1
  -5  -3  -9 0.67752 0.65691   7
  -5  -3  -9 2.43976 0.73525   3
  -5  -3  -9 1.72854 0.69099   2
  -5  -3  -9 2.67595 0.69690   8
   5   3   9 1.24222 0.58614   3
   5   3   9 1.81719 0.69288   6
   5   3   9 0.84692 0.57886   5
  -6  -3  -9 44.5116 2.69999   8
  -6  -3  -9 45.7359 3.40411   7
  -6  -3  -9 44.2847 3.14708   2
  -6  -3  -9 41.0132 3.06379   3
   6   3   9 40.7916 2.88843   5
   6   3   9 36.5174 2.85405   3
   6   3   9 42.8579 3.02011   6
  -7  -3  -9 2.81125 1.09094   7
  -7  -3  -9 1.33099 0.83270   3
  -7  -3  -9 4.04496 1.18857   2
   7   3   9 1.76320 0.82629   5
   7   3   9 1.60684 0.99852   6
   7   3   9 1.13783 0.62879   3
  -8  -3  -9 1.74815 0.86760   2
  -8  -3  -9 4.35435 1.45819   7
  -8  -3  -9 1.77089 1.04404   3
   8   3   9 1.70920 0.99589   5
   8   3   9 2.89634 1.05975   3
   8   3   9 2.66217 1.12460   6
  -9  -3  -9 43.2244 3.65514   2
  -9  -3  -9 43.2213 3.88720   3
  -9  -3  -9 52.0492 4.29851   7
   9   3   9 47.3091 3.50348   5
   9   3   9 48.7644 3.64065   6
   9   3   9 44.7817 3.75624   3
   5  -4  -9 47.5422 3.55708   8
   5  -4  -9 42.0528 3.31836   2
   5  -4  -9 43.5692 4.07428   4
  -5   4   9 45.0781 4.34131   4
  -5   4   9 42.7281 4.09344   1
   4  -4  -9 4.02437 1.07268   2
   4  -4  -9 3.42344 1.03662   8
   4  -4  -9 7.16307 1.83458   4
  -4   4   9 5.81014 1.61629   1
  -4   4   9 6.18717 1.77786   4
  -4   4   9 4.80769 1.14800   6
   3  -4  -9 5.57366 1.15251   2
   3  -4  -9 4.78546 1.21155   8
   3  -4  -9 7.65224 1.76007   4
  -3   4   9 4.28731 1.39794   4
  -3   4   9 2.55679 1.29814   1
  -3   4   9 2.60350 0.84407   6
   2  -4  -9 0.05688 0.54302   4
   2  -4  -9 0.00917 0.54706   8
   2  -4  -9 0.86545 0.63516   2
  -2   4   9 1.21578 0.77284   1
  -2   4   9 0.81248 0.75331   4
  -2   4   9 0.09688 0.53480   6
   1  -4  -9 0.12503 0.37444   8
   1  -4  -9 0.77030 0.45499   2
   1  -4  -9 -0.2007 0.41043   4
  -1   4   9 0.95808 0.69785   9
  -1   4   9 1.14725 0.73345   1
  -1   4   9 0.46778 0.57501   4
  -1   4   9 0.20022 0.36861   6
   0  -4  -9 65.1798 3.83232   8
   0  -4  -9 67.6092 3.83509   2
   0  -4  -9 55.4479 4.10002   4
   0   4   9 68.9288 4.43476   4
   0   4   9 57.5646 3.87484   6
   0   4   9 59.4479 4.29344   1
   0   4   9 60.9520 4.70795   9
  -1  -4  -9 146.005 6.89419   7
  -1  -4  -9 142.212 7.13472   2
  -1  -4  -9 124.458 6.97232   8
  -1  -4  -9 131.465 7.44059   4
   1   4   9 142.048 8.16177   9
   1   4   9 137.910 6.72440   5
   1   4   9 134.829 7.54173   4
   1   4   9 140.397 7.72423   1
   1   4   9 135.934 7.27135   6
  -2  -4  -9 15.3362 1.93184   4
  -2  -4  -9 19.9781 1.69854   2
  -2  -4  -9 17.1492 1.52139   8
  -2  -4  -9 18.3803 1.63134   7
   2   4   9 22.4454 1.90808   6
   2   4   9 21.2589 1.93841   4
   2   4   9 15.8298 1.37419   5
   2   4   9 16.7703 2.35771   9
   2   4   9 18.3421 2.22349   1
  -3  -4  -9 203.173 9.42478   8
  -3  -4  -9 201.452 9.67431   7
  -3  -4  -9 185.918 9.50760   4
  -3  -4  -9 199.575 9.68237   2
   3   4   9 185.734 10.2275   9
   3   4   9 196.430 9.93876   1
   3   4   9 186.249 9.59167   4
   3   4   9 198.116 9.72950   6
   3   4   9 187.780 9.24863   5
  -4  -4  -9 12.8998 1.69968   2
  -4  -4  -9 17.1297 1.45569   8
  -4  -4  -9 17.9728 2.07611   7
   4   4   9 17.7006 1.95460   6
   4   4   9 16.0307 1.94158   1
   4   4   9 17.6670 1.50565   5
   4   4   9 20.0489 1.97249   9
  -5  -4  -9 0.19354 0.56246   7
  -5  -4  -9 1.67420 0.66743   3
  -5  -4  -9 0.77953 0.47630   8
  -5  -4  -9 1.15127 0.72579   2
   5   4   9 2.34334 0.71001   1
   5   4   9 2.88617 0.97773   9
   5   4   9 1.47890 0.70421   6
   5   4   9 1.35081 0.65298   5
  -6  -4  -9 0.88836 0.58246   3
  -6  -4  -9 0.71026 0.67456   2
  -6  -4  -9 0.88276 0.80665   7
   6   4   9 0.45097 0.58374   6
   6   4   9 0.47772 0.58143   5
   6   4   9 0.24691 0.49052   3
  -7  -4  -9 0.71326 0.57691   2
  -7  -4  -9 1.38881 0.78798   7
  -7  -4  -9 0.17454 0.63184   3
   7   4   9 -0.1665 0.80611   6
   7   4   9 0.04111 0.58918   3
   7   4   9 0.55455 0.58260   5
  -8  -4  -9 2.99881 1.14252   3
  -8  -4  -9 3.76946 1.34686   7
  -8  -4  -9 1.29120 0.96062   2
   8   4   9 3.00407 1.10085   3
   8   4   9 1.32331 0.94252   5
   8   4   9 2.28760 1.14231   6
  -9  -4  -9 0.46240 0.78649   3
  -9  -4  -9 0.32581 0.79514   7
  -9  -4  -9 1.84316 0.93326   2
   9   4   9 1.03989 0.79783   3
   9   4   9 0.74966 0.93089   6
   9   4   9 0.21662 0.67516   5
   5  -5  -9 1.99846 1.06602   4
   5  -5  -9 0.12050 0.62300   8
   5  -5  -9 0.89479 0.81153   2
  -5   5   9 2.25604 1.07780   1
  -5   5   9 0.67877 0.89262   4
   4  -5  -9 0.02878 0.40160   2
   4  -5  -9 0.56215 0.75901   4
   4  -5  -9 0.81682 0.65249   8
  -4   5   9 0.35210 0.73439   4
  -4   5   9 0.48706 0.99951   1
   3  -5  -9 5.66559 1.23762   2
   3  -5  -9 4.53535 1.39233   4
   3  -5  -9 4.28703 1.18958   8
  -3   5   9 5.18940 1.47089   4
  -3   5   9 7.11354 1.33718   6
  -3   5   9 6.29996 1.67236   1
   2  -5  -9 18.8415 2.17839   2
   2  -5  -9 25.4490 2.14497   8
  -2   5   9 20.7137 2.83761   1
  -2   5   9 16.0687 2.54873   4
  -2   5   9 20.4023 2.30847   6
   1  -5  -9 4.89096 1.07216   2
   1  -5  -9 5.91328 1.17653   8
  -1   5   9 4.35647 1.02414   6
  -1   5   9 3.07839 1.23234   4
  -1   5   9 6.23646 1.48500   1
   0  -5  -9 15.6002 1.79744   2
   0  -5  -9 15.5589 1.81745   8
   0   5   9 17.2836 2.33924   4
   0   5   9 16.2551 2.30786   1
   0   5   9 16.2061 2.51356   9
   0   5   9 17.7444 2.02352   6
  -1  -5  -9 130.235 6.75827   2
  -1  -5  -9 140.432 6.61905   7
  -1  -5  -9 132.772 6.69285   8
   1   5   9 120.464 7.19236   1
   1   5   9 127.124 6.82103   6
   1   5   9 115.889 7.51818   9
   1   5   9 121.606 7.09515   4
  -2  -5  -9 0.39143 0.45863   8
  -2  -5  -9 0.28121 0.38866   2
  -2  -5  -9 -0.0835 0.39993   7
  -2  -5  -9 0.37190 0.52803   4
   2   5   9 0.09671 0.48547   6
   2   5   9 1.11832 0.65529   9
   2   5   9 0.32534 0.48786   1
   2   5   9 0.26402 0.52701   4
  -3  -5  -9 63.8779 3.76061   7
  -3  -5  -9 58.9539 3.38219   8
  -3  -5  -9 58.0608 3.65381   2
   3   5   9 62.5415 3.72999   6
   3   5   9 54.9266 3.22222   5
   3   5   9 54.0447 4.05462   9
   3   5   9 54.1982 3.63013   4
   3   5   9 55.1951 3.83282   1
  -4  -5  -9 27.9466 2.33797   2
  -4  -5  -9 31.6804 2.05209   8
  -4  -5  -9 30.2779 2.44212   7
   4   5   9 26.9995 2.35192   1
   4   5   9 31.4212 2.38279   6
   4   5   9 31.3336 2.64150   9
   4   5   9 25.5065 1.97710   5
  -5  -5  -9 32.3471 2.76179   7
  -5  -5  -9 34.0491 2.66610   2
   5   5   9 33.2953 2.55764   1
   5   5   9 32.8463 2.74703   9
   5   5   9 29.9941 2.49919   6
   5   5   9 36.1515 2.40378   5
  -6  -5  -9 3.38197 0.96762   2
  -6  -5  -9 2.63765 0.88276   3
  -6  -5  -9 1.73907 0.90938   7
   6   5   9 2.13925 0.78094   3
   6   5   9 1.73587 0.77595   6
   6   5   9 2.69655 0.85409   5
  -7  -5  -9 5.41274 1.22599   2
  -7  -5  -9 5.59794 1.27842   3
  -7  -5  -9 7.05391 1.59489   7
   7   5   9 3.95803 1.28658   6
   7   5   9 3.52626 1.06016   3
   7   5   9 3.33522 0.93001   5
  -8  -5  -9 5.07916 1.42680   3
  -8  -5  -9 6.30001 1.69652   7
  -8  -5  -9 6.84375 1.54407   2
   8   5   9 2.82543 1.06588   5
   8   5   9 5.51240 1.33912   6
   8   5   9 4.37422 1.26950   3
  -9  -5  -9 1.86052 1.09877   7
  -9  -5  -9 1.92725 0.90954   2
  -9  -5  -9 0.75085 1.03033   3
   9   5   9 2.44940 1.15006   3
   9   5   9 0.15222 1.22648   6
   9   5   9 3.43004 1.11175   5
   5  -6  -9 3.03120 1.18051   2
  -5   6   9 4.68432 1.54336   1
   4  -6  -9 -0.3445 0.54363   8
   4  -6  -9 1.47861 0.75914   2
  -4   6   9 -0.3229 0.60843   4
  -4   6   9 0.28502 1.06866   1
   3  -6  -9 2.25041 0.96895   8
   3  -6  -9 2.98040 1.00327   2
  -3   6   9 3.33680 1.20984   1
  -3   6   9 3.83863 1.30688   4
   2  -6  -9 7.32393 1.37883   8
   2  -6  -9 9.85848 1.55054   2
  -2   6   9 10.0392 1.54296   6
  -2   6   9 8.68962 1.84052   1
  -2   6   9 6.23674 1.56995   4
   1  -6  -9 13.3842 1.73361   2
   1  -6  -9 12.9983 1.76531   8
  -1   6   9 11.4030 2.05612   4
  -1   6   9 13.0626 1.72730   6
  -1   6   9 11.1464 2.07960   1
   0  -6  -9 13.1780 1.56531   7
   0  -6  -9 11.6600 1.59894   8
   0  -6  -9 11.2060 1.57290   2
   0   6   9 11.9636 1.97363   4
   0   6   9 13.0591 2.05551   1
   0   6   9 11.7819 1.64507   6
  -1  -6  -9 0.84175 0.43084   8
  -1  -6  -9 0.45106 0.57514   2
  -1  -6  -9 0.57987 0.52021   7
   1   6   9 2.32740 0.92567   1
   1   6   9 0.89823 0.56963   6
   1   6   9 0.34726 0.48610   9
   1   6   9 -0.1587 0.47852   4
  -2  -6  -9 1.46183 0.64170   2
  -2  -6  -9 1.10647 0.56005   8
  -2  -6  -9 1.28921 0.63906   7
   2   6   9 2.09145 0.90567   9
   2   6   9 0.66338 0.51044   1
   2   6   9 2.15117 0.76119   6
   2   6   9 0.80149 0.68948   4
  -3  -6  -9 3.23957 0.76126   8
  -3  -6  -9 4.88635 1.12354   7
  -3  -6  -9 3.09442 0.91041   2
   3   6   9 3.83048 1.03177   1
   3   6   9 4.27566 0.95162   6
   3   6   9 4.16310 1.06056   9
  -4  -6  -9 66.2021 4.16519   2
  -4  -6  -9 67.4153 4.29748   7
  -4  -6  -9 72.2887 3.76039   8
   4   6   9 58.3213 3.99593   6
   4   6   9 65.7523 3.69512   5
   4   6   9 62.2828 4.19172   1
   4   6   9 69.1495 4.59222   9
  -5  -6  -9 7.03850 1.32752   2
  -5  -6  -9 7.82720 1.53314   7
   5   6   9 6.33192 1.06375   5
   5   6   9 4.93803 1.14769   6
   5   6   9 8.18746 1.40776   1
   5   6   9 10.6873 1.61256   9
  -6  -6  -9 1.19635 0.65659   2
  -6  -6  -9 1.09803 0.86082   7
   6   6   9 2.05266 0.84140   5
   6   6   9 0.72898 0.91143   6
  -7  -6  -9 0.07159 0.61258   7
  -7  -6  -9 0.64212 0.79755   3
  -7  -6  -9 1.43264 0.74234   2
   7   6   9 -0.2046 0.66163   6
   7   6   9 0.38417 0.65310   3
   7   6   9 0.12000 0.62544   5
  -8  -6  -9 1.02473 1.07572   3
  -8  -6  -9 2.83980 1.15907   7
  -8  -6  -9 0.65411 0.89710   2
   8   6   9 1.00065 1.18360   6
   8   6   9 1.22747 0.91671   3
   8   6   9 0.42195 0.85575   5
  -9  -6  -9 26.9576 3.09420   2
  -9  -6  -9 25.4918 3.32246   3
   9   6   9 28.2612 3.27958   3
   9   6   9 27.8968 3.16146   6
   9   6   9 30.7765 3.15140   5
   4  -7  -9 2.99386 1.07339   2
   4  -7  -9 0.49529 0.83740   8
  -4   7   9 0.09419 0.80012   4
  -4   7   9 4.24134 1.41781   1
   3  -7  -9 5.69119 1.40521   8
   3  -7  -9 8.83569 1.65932   2
  -3   7   9 8.03084 1.92636   1
  -3   7   9 7.07319 1.90501   4
   2  -7  -9 19.8547 2.32500   2
   2  -7  -9 22.9446 2.51529   8
  -2   7   9 16.6630 2.64826   4
  -2   7   9 17.5258 2.70110   1
   1  -7  -9 -0.2821 0.53890   8
   1  -7  -9 0.79706 0.53731   2
  -1   7   9 1.00376 0.70633   1
  -1   7   9 1.22215 0.62284   6
  -1   7   9 0.93890 0.67183   4
   0  -7  -9 5.24150 1.05725   7
   0  -7  -9 4.12115 1.01587   8
   0  -7  -9 6.19378 1.19924   2
   0   7   9 5.27915 1.46909   1
   0   7   9 4.81319 1.30466   4
   0   7   9 7.38956 1.29807   6
  -1  -7  -9 41.0800 2.86449   7
  -1  -7  -9 43.6800 2.97986   2
  -1  -7  -9 40.7867 2.77578   8
   1   7   9 35.6208 3.14791   1
   1   7   9 39.8771 2.87261   6
   1   7   9 36.9400 3.13438   4
  -2  -7  -9 2.49710 0.84829   7
  -2  -7  -9 4.51324 0.88824   8
  -2  -7  -9 2.01516 0.76834   2
   2   7   9 3.41689 0.87492   6
   2   7   9 4.30093 1.16628   1
   2   7   9 0.94356 0.70331   4
  -3  -7  -9 -0.1487 0.34264   2
  -3  -7  -9 -0.0011 0.42002   7
  -3  -7  -9 0.08881 0.35029   8
   3   7   9 0.48594 0.50297   1
   3   7   9 -0.5571 0.42433   6
  -4  -7  -9 9.22257 1.66506   7
  -4  -7  -9 8.63949 1.49143   2
   4   7   9 10.1166 1.64114   1
   4   7   9 11.0542 1.79558   9
   4   7   9 9.43260 1.50222   6
  -5  -7  -9 21.3817 2.40582   2
  -5  -7  -9 19.4937 2.52779   7
   5   7   9 23.6913 2.29943   9
   5   7   9 17.6703 2.25628   6
   5   7   9 20.6493 1.76213   5
   5   7   9 21.1797 2.03886   1
  -6  -7  -9 0.35537 0.84717   7
  -6  -7  -9 -0.3764 0.58756   2
   6   7   9 -0.2143 0.49824   5
   6   7   9 -0.5814 0.55158   6
   6   7   9 1.33938 0.55389   1
  -7  -7  -9 9.19822 1.60418   2
  -7  -7  -9 7.38883 1.81965   7
   7   7   9 5.19261 1.20615   5
   7   7   9 5.16520 1.35602   6
  -8  -7  -9 0.36828 1.21011   7
  -8  -7  -9 1.69819 0.94549   3
  -8  -7  -9 1.08370 0.95211   2
   8   7   9 1.06644 0.88423   3
   8   7   9 -0.4389 0.79908   6
   8   7   9 0.63618 0.63319   5
  -4   8   9 3.55930 1.28342   1
   3  -8  -9 23.4703 2.78688   8
   3  -8  -9 30.2402 2.70555   2
  -3   8   9 21.9054 2.72491   8
  -3   8   9 26.9637 3.49636   1
  -3   8   9 22.6624 3.30528   4
   2  -8  -9 -0.0298 0.51358   2
   2  -8  -9 0.08170 0.51494   8
  -2   8   9 0.19199 0.73913   4
  -2   8   9 0.89647 0.92320   1
   1  -8  -9 0.12759 0.60199   7
   1  -8  -9 0.09926 0.50071   2
   1  -8  -9 -0.5129 0.34591   8
  -1   8   9 0.78162 0.66604   1
  -1   8   9 0.88427 0.86587   4
   0  -8  -9 27.4134 2.40658   2
   0  -8  -9 31.6435 2.42862   7
   0  -8  -9 27.4532 2.35203   8
   0   8   9 31.5652 2.43087   6
   0   8   9 25.9375 2.66006   4
   0   8   9 26.9280 2.73558   1
  -1  -8  -9 0.09702 0.44495   2
  -1  -8  -9 -0.1583 0.51257   7
  -1  -8  -9 1.04867 0.59221   8
   1   8   9 0.76401 0.41468   6
   1   8   9 0.27431 0.51629   4
   1   8   9 0.98132 0.74162   1
  -2  -8  -9 1.17439 0.60184   8
  -2  -8  -9 1.35471 0.78067   7
  -2  -8  -9 0.91210 0.58102   2
   2   8   9 1.33189 0.75014   1
   2   8   9 0.93303 0.60301   6
   2   8   9 0.87938 0.69426   4
  -3  -8  -9 10.5169 1.66545   2
  -3  -8  -9 8.31976 1.55333   7
   3   8   9 9.70422 1.70010   1
   3   8   9 10.7895 1.57072   6
  -4  -8  -9 -0.2516 0.36103   2
  -4  -8  -9 -0.2793 0.40947   7
   4   8   9 0.79780 0.61783   1
   4   8   9 -0.3118 0.65163   6
  -5  -8  -9 0.48920 0.50945   2
  -5  -8  -9 0.94060 0.78197   7
   5   8   9 0.73241 0.57035   1
   5   8   9 -0.4462 0.80516   6
  -6  -8  -9 4.20846 1.16765   2
  -6  -8  -9 4.39853 1.45688   7
   6   8   9 7.15047 1.31405   1
   6   8   9 3.05977 1.09613   6
  -7  -8  -9 7.43252 1.82728   7
  -7  -8  -9 7.54898 1.57539   2
   7   8   9 7.76993 1.40824   5
   7   8   9 6.98412 1.78663   6
  -8  -8  -9 2.31307 1.10536   2
   8   8   9 0.64304 0.80056   5
   3  -9  -9 8.28385 1.64073   2
   3  -9  -9 6.80361 1.49197   8
  -3   9   9 9.48607 1.80420   8
  -3   9   9 8.40253 2.06936   4
  -3   9   9 7.07467 1.74759   1
   2  -9  -9 3.53692 1.24391   2
   2  -9  -9 3.33370 1.18358   8
  -2   9   9 6.07989 1.62827   1
  -2   9   9 4.44339 1.53521   4
   1  -9  -9 1.45756 0.88102   7
   1  -9  -9 3.61774 1.02751   2
   1  -9  -9 2.83694 1.02390   8
  -1   9   9 2.09082 0.95567   1
  -1   9   9 3.28336 1.17744   4
   0  -9  -9 0.75344 0.69035   8
   0  -9  -9 2.30652 0.93422   2
   0  -9  -9 1.39844 0.72162   7
   0   9   9 1.54021 0.82392   1
   0   9   9 3.16146 1.06619   4
  -1  -9  -9 9.31435 1.58287   7
  -1  -9  -9 8.25929 1.47218   2
  -1  -9  -9 9.41655 1.41638   8
   1   9   9 9.37840 1.73660   4
   1   9   9 9.11294 1.40571   6
   1   9   9 8.55756 1.71411   1
  -2  -9  -9 4.87885 1.21162   7
  -2  -9  -9 4.79869 1.11439   2
   2   9   9 7.65802 1.52649   1
   2   9   9 3.58778 0.91478   6
  -3  -9  -9 7.30313 1.46240   7
  -3  -9  -9 6.31950 1.29034   2
   3   9   9 4.39399 1.02603   6
   3   9   9 4.33416 1.15242   1
  -4  -9  -9 11.8288 2.03000   7
  -4  -9  -9 12.0438 1.81232   2
   4   9   9 11.9946 1.89710   1
   4   9   9 11.6634 1.85413   6
  -5  -9  -9 0.10841 0.77248   7
  -5  -9  -9 -0.1840 0.58005   2
   5   9   9 0.92909 0.96980   6
   5   9   9 1.08713 0.65597   1
  -6  -9  -9 3.58587 1.35688   7
  -6  -9  -9 4.82155 1.30363   2
   6   9   9 3.65021 1.18414   6
   6   9   9 9.07416 1.52058   1
  -7  -9  -9 14.4296 2.71992   7
  -7  -9  -9 14.4145 2.08659   2
   7   9   9 14.1269 2.35828   6
   2 -10  -9 22.2239 2.72340   8
   2 -10  -9 20.7443 2.61332   2
  -2  10   9 15.2254 2.55134   1
  -2  10   9 16.9809 2.82405   4
   1 -10  -9 11.0121 1.83659   2
   1 -10  -9 9.36760 1.64683   8
   1 -10  -9 10.0277 1.69421   7
  -1  10   9 7.53813 1.79913   1
  -1  10   9 8.79050 1.91258   4
   0 -10  -9 1.07664 0.84994   2
   0 -10  -9 0.27137 0.60415   8
   0 -10  -9 0.10139 0.69047   7
   0  10   9 1.09040 0.80789   1
   0  10   9 0.36614 0.56132   4
  -1 -10  -9 -0.4214 0.38025   2
  -1 -10  -9 -0.1807 0.45707   7
   1  10   9 2.35005 0.95533   1
   1  10   9 0.94108 0.91813   4
  -2 -10  -9 0.35504 0.56340   7
  -2 -10  -9 0.29415 0.47223   2
   2  10   9 0.56387 0.58533   1
   2  10   9 1.74409 0.68169   6
  -3 -10  -9 0.09908 0.53938   7
  -3 -10  -9 0.38198 0.62418   2
   3  10   9 2.93050 0.97582   1
   3  10   9 0.68115 0.47243   6
  -4 -10  -9 0.60456 0.73108   2
  -4 -10  -9 2.07729 1.06924   7
   4  10   9 4.72738 1.18961   1
   4  10   9 1.65005 1.01181   6
  -5 -10  -9 -0.9334 0.47931   7
  -5 -10  -9 0.63910 0.81040   2
   5  10   9 -0.3955 0.83034   6
   5  10   9 3.67681 1.04026   1
  -6 -10  -9 4.26797 1.16195   2
  -6 -10  -9 4.46926 1.38237   7
   6  10   9 5.52766 1.40583   6
   6  10   9 7.20286 1.51087   1
   1 -11  -9 52.1239 3.90334   8
  -1  11   9 57.3420 4.60376   4
   0 -11  -9 1.09598 0.75696   2
   0 -11  -9 0.69807 0.89999   7
   0  11   9 1.29745 1.01931   4
   0  11   9 2.24951 0.92037   1
  -1 -11  -9 -0.3570 0.80250   7
  -1 -11  -9 0.84215 0.87540   2
   1  11   9 0.77906 0.61276   1
   1  11   9 0.47261 0.70468   4
  -2 -11  -9 16.0461 2.36386   7
  -2 -11  -9 15.2491 2.22604   2
   2  11   9 18.4842 2.64801   1
  -3 -11  -9 27.8263 3.05495   2
  -3 -11  -9 35.4084 3.22169   7
   3  11   9 27.8691 2.54601   6
   3  11   9 29.9022 2.95902   1
  -4 -11  -9 40.2477 3.72374   7
  -4 -11  -9 40.8158 3.32651   2
   4  11   9 47.5097 3.78125   1
   4  11   9 39.7542 3.23649   6
  -5 -11  -9 6.13363 1.47706   2
  -5 -11  -9 5.18928 1.91018   7
   5  11   9 6.65517 1.38656   1
   5  11   9 8.36473 1.60454   6
   1  -9  10 11.7111 2.17732   3
   1  -9  10 9.43528 2.20807   5
  -2   9 -10 0.56582 1.28900   4
  -2   9 -10 6.27331 1.36110   8
   2  -9  10 4.60948 1.55818   5
   2  -9  10 3.35309 1.24010   3
  -3   9 -10 19.2841 2.48966   8
  -3   9 -10 16.4756 3.08329   4
   3  -9  10 25.4245 3.10031   5
   3  -9  10 13.7951 2.34995   3
   1   8 -10 1.58795 1.24671   1
  -1  -8  10 1.21123 1.01656   6
   0   8 -10 47.2034 3.88026   1
   0   8 -10 41.8102 4.25809   4
   0  -8  10 52.6245 4.07303   5
   0  -8  10 44.3685 3.89664   6
   0  -8  10 45.7924 3.68423   3
  -1   8 -10 21.1288 2.42751   8
  -1   8 -10 16.9838 2.80397   4
   1  -8  10 21.9359 2.76307   3
   1  -8  10 18.0119 2.60990   5
  -2   8 -10 2.91053 1.43255   4
  -2   8 -10 3.70176 1.19712   8
   2  -8  10 4.38387 1.31894   5
   2  -8  10 6.81260 1.61462   3
  -3   8 -10 12.1921 2.55053   4
  -3   8 -10 9.94044 1.78048   8
   3  -8  10 15.8188 2.40442   3
   3  -8  10 14.6860 2.42250   5
  -4   8 -10 3.65932 1.12684   8
  -4   8 -10 2.47432 1.40446   4
   4  -8  10 2.10934 1.21537   3
   4  -8  10 3.78304 1.22385   5
  -5   8 -10 0.85771 0.80414   8
  -5   8 -10 -2.1416 1.03817   4
   5  -8  10 -0.7378 0.91545   5
   5  -8  10 -0.2036 0.65596   3
   2   7 -10 1.22779 1.15466   1
   2   7 -10 -0.7052 0.81366   4
  -2  -7  10 -0.2563 0.88611   6
  -2  -7  10 0.98414 0.86524   5
   1   7 -10 1.51018 0.96740   1
   1   7 -10 2.44260 1.29563   4
  -1  -7  10 2.50064 1.06850   5
  -1  -7  10 2.58404 1.03311   6
   0   7 -10 0.70274 1.03250   4
   0   7 -10 2.32939 1.15588   1
   0   7 -10 0.67712 0.87610   8
   0  -7  10 0.05881 0.71299   3
   0  -7  10 1.54455 0.94107   6
   0  -7  10 4.32811 1.24200   5
  -1   7 -10 -0.5522 0.46852   8
  -1   7 -10 0.35958 0.98127   4
   1  -7  10 1.28182 0.84420   6
   1  -7  10 0.62447 0.79704   3
   1  -7  10 0.24224 0.63628   5
  -2   7 -10 2.22609 1.20153   4
  -2   7 -10 1.26505 0.73565   8
   2  -7  10 1.51837 0.84947   5
   2  -7  10 2.84328 1.16333   3
  -3   7 -10 9.27450 1.60259   8
  -3   7 -10 11.4871 2.37334   4
   3  -7  10 10.3978 1.82237   3
   3  -7  10 18.2177 2.41825   5
  -4   7 -10 16.7733 2.14093   8
  -4   7 -10 14.1848 2.50740   4
   4  -7  10 15.4257 2.22847   3
   4  -7  10 18.4854 2.44439   5
  -5   7 -10 -0.3599 0.52320   8
  -5   7 -10 -2.4436 1.02066   4
   5  -7  10 -0.1263 0.89033   3
   5  -7  10 0.55903 0.94343   5
  -6   7 -10 0.28483 0.88133   8
   6  -7  10 0.99433 0.76052   3
   6  -7  10 0.98094 0.91339   5
   3   6 -10 2.55775 1.26983   4
   3   6 -10 4.70163 1.73150   1
  -3  -6  10 3.76714 1.41670   5
  -3  -6  10 2.96012 1.35091   6
   2   6 -10 5.39966 1.84231   4
   2   6 -10 4.75857 1.46115   1
  -2  -6  10 3.07145 1.31150   6
  -2  -6  10 4.99830 1.46404   5
   1   6 -10 -0.4589 0.57030   1
   1   6 -10 -0.6733 0.44719   8
   1   6 -10 0.36938 1.16016   4
  -1  -6  10 0.40738 0.81318   6
  -1  -6  10 -0.5117 0.48847   5
   0   6 -10 -0.9651 0.65602   1
   0   6 -10 0.05220 0.77148   8
   0   6 -10 -0.3842 1.06931   4
   0  -6  10 -0.6191 0.42115   5
   0  -6  10 0.72934 0.74464   6
  -1   6 -10 171.922 8.94153   1
  -1   6 -10 167.103 9.36207   4
  -1   6 -10 159.756 8.58390   8
   1  -6  10 166.203 8.83905   6
   1  -6  10 166.128 9.12111   5
   1  -6  10 161.235 8.78209   3
  -2   6 -10 27.0034 3.16887   4
  -2   6 -10 22.0449 2.42643   8
   2  -6  10 26.1948 2.98359   5
   2  -6  10 23.8695 2.66093   3
   2  -6  10 25.9510 2.34616   6
  -3   6 -10 19.1288 2.25492   8
  -3   6 -10 18.8476 2.72742   4
   3  -6  10 22.2591 2.68711   5
   3  -6  10 21.8020 2.53871   3
  -4   6 -10 0.07570 1.09235   4
  -4   6 -10 -0.4967 0.44744   8
   4  -6  10 0.23746 0.54814   5
   4  -6  10 -0.1066 0.67208   3
  -5   6 -10 -0.4027 0.66763   8
  -5   6 -10 -1.7212 0.89128   4
   5  -6  10 -0.1363 0.70009   3
   5  -6  10 1.05394 0.88879   5
  -6   6 -10 6.50161 1.38074   8
  -6   6 -10 2.73193 1.27719   2
   6  -6  10 10.0030 1.85845   5
   6  -6  10 9.07889 1.68117   3
  -7   6 -10 10.4300 2.13447   2
  -7   6 -10 12.0093 2.09867   8
   7  -6  10 9.26508 1.95809   3
   7  -6  10 11.0642 1.88524   5
   3   5 -10 -0.0347 1.02603   4
   3   5 -10 -0.2341 0.65074   1
  -3  -5  10 -0.3234 0.58418   5
  -3  -5  10 0.45285 0.97518   6
   2   5 -10 19.3544 2.81721   1
   2   5 -10 23.0183 3.03468   4
  -2  -5  10 22.3102 2.77500   6
  -2  -5  10 13.6987 2.26814   5
   1   5 -10 6.41468 1.60522   1
   1   5 -10 8.26202 1.76624   4
   1   5 -10 6.09103 1.16542   8
  -1  -5  10 5.33626 1.38771   6
  -1  -5  10 6.17770 1.38380   5
   0   5 -10 -0.1261 0.69234   8
   0   5 -10 0.26866 0.80272   1
   0   5 -10 0.65293 0.73288   4
   0  -5  10 0.92806 0.79811   5
   0  -5  10 1.58358 0.74865   6
  -1   5 -10 35.8249 2.84485   1
  -1   5 -10 32.1757 3.13053   9
  -1   5 -10 31.0234 2.89874   4
  -1   5 -10 30.4670 2.54117   8
   1  -5  10 34.6546 2.87220   5
   1  -5  10 26.3526 2.42470   3
   1  -5  10 38.0539 2.83950   6
  -2   5 -10 27.5603 3.06023   4
  -2   5 -10 25.1293 2.16768   8
   2  -5  10 24.2350 2.22749   3
   2  -5  10 26.5501 2.27651   6
   2  -5  10 21.5201 2.58928   5
  -3   5 -10 63.7236 4.14690   8
  -3   5 -10 64.4918 4.51724   4
   3  -5  10 68.9968 4.18240   6
   3  -5  10 69.3198 4.47261   5
   3  -5  10 60.7281 4.14516   3
  -4   5 -10 0.22864 0.98010   4
  -4   5 -10 1.06493 0.67499   8
   4  -5  10 2.37308 0.92035   5
   4  -5  10 0.69361 0.80032   3
  -5   5 -10 2.04078 0.93543   8
  -5   5 -10 1.20274 1.19893   4
  -5   5 -10 2.37010 0.97192   2
   5  -5  10 0.83692 0.82481   5
   5  -5  10 3.38799 1.15912   3
  -6   5 -10 2.20018 0.96852   8
  -6   5 -10 1.11577 0.77307   2
   6  -5  10 0.62259 0.69262   3
   6  -5  10 -0.6630 0.64851   5
  -7   5 -10 -0.0725 0.85528   2
  -7   5 -10 0.47816 0.60698   8
   7  -5  10 1.04489 0.97841   5
   7  -5  10 0.35709 0.88974   3
  -8   5 -10 13.7157 2.38773   2
  -8   5 -10 16.2090 2.69564   8
   8  -5  10 11.0365 2.02803   3
   8  -5  10 16.2253 2.38112   5
   4   4 -10 24.4923 3.37575   1
   4   4 -10 21.7007 3.28895   4
  -4  -4  10 20.7770 2.96162   6
  -4  -4  10 25.0056 3.68838   1
  -4  -4  10 24.4370 2.91462   5
   3   4 -10 21.6365 3.09280   1
   3   4 -10 21.2661 3.08703   4
  -3  -4  10 22.0451 2.81782   6
  -3  -4  10 24.8898 2.89155   5
  -3  -4  10 29.0533 3.56568   1
   2   4 -10 37.5462 3.48233   4
   2   4 -10 29.6173 2.56439   8
   2   4 -10 35.8229 3.28846   1
  -2  -4  10 34.6085 2.92018   5
  -2  -4  10 31.6841 2.96401   6
  -2  -4  10 36.3176 3.32687   1
   1   4 -10 2.42724 0.77997   8
   1   4 -10 1.40685 0.94180   1
   1   4 -10 1.40965 0.93227   4
  -1  -4  10 2.29827 0.92655   6
  -1  -4  10 3.58256 1.32058   1
  -1  -4  10 2.30474 0.98408   5
   0   4 -10 9.22530 1.45351   8
   0   4 -10 8.28248 1.75199   4
   0   4 -10 9.18191 1.72494   1
   0  -4  10 10.0034 1.85441   1
   0  -4  10 7.63596 1.52899   5
   0  -4  10 6.22138 1.39530   6
  -1   4 -10 7.01437 1.22506   8
  -1   4 -10 7.37720 1.58119   4
  -1   4 -10 6.97533 1.40963   1
  -1   4 -10 8.24563 1.78247   9
   1  -4  10 6.86424 1.36113   5
   1  -4  10 8.37937 1.50827   6
   1  -4  10 9.02447 1.56111   1
  -2   4 -10 2.16388 0.88257   8
  -2   4 -10 3.75931 1.10581   4
   2  -4  10 2.86202 1.06117   5
   2  -4  10 3.52094 0.93014   3
   2  -4  10 3.91914 1.08465   1
   2  -4  10 3.89362 0.98506   6
  -3   4 -10 283.048 12.9478   4
  -3   4 -10 249.445 12.4439   8
   3  -4  10 243.629 12.7038   5
   3  -4  10 249.889 12.4540   3
   3  -4  10 249.478 12.5719   6
  -4   4 -10 48.5992 3.54520   4
  -4   4 -10 46.2092 3.29665   2
  -4   4 -10 49.9613 3.33385   8
   4  -4  10 43.7964 3.22004   6
   4  -4  10 50.6913 3.40670   3
   4  -4  10 47.8489 3.46012   5
  -5   4 -10 25.3168 2.19274   8
  -5   4 -10 20.5403 2.47385   2
   5  -4  10 25.6527 2.72458   5
   5  -4  10 21.0755 2.44528   3
  -6   4 -10 0.82918 0.78568   8
  -6   4 -10 0.30413 0.81118   2
   6  -4  10 -0.0723 0.49936   3
   6  -4  10 0.87595 0.81435   5
  -7   4 -10 0.90688 0.77634   2
  -7   4 -10 1.73815 0.99653   8
   7  -4  10 0.92921 0.73475   3
   7  -4  10 0.67512 0.78185   5
  -8   4 -10 6.20587 1.44387   8
  -8   4 -10 6.28638 1.72315   2
   8  -4  10 6.57233 1.57059   3
   8  -4  10 3.81514 1.39414   5
   4   3 -10 15.7885 2.81906   4
   4   3 -10 15.4962 2.58698   1
  -4  -3  10 13.0724 2.11056   5
  -4  -3  10 15.8382 2.43524   6
  -4  -3  10 20.9141 3.09523   1
   3   3 -10 -0.2135 0.58349   1
   3   3 -10 1.30750 0.83163   8
   3   3 -10 0.21040 1.00032   4
  -3  -3  10 0.72392 0.78376   6
  -3  -3  10 1.49402 0.96545   1
  -3  -3  10 1.44799 0.85612   5
   2   3 -10 17.0924 2.04771   8
   2   3 -10 17.4148 2.54613   1
   2   3 -10 20.5307 2.85718   4
  -2  -3  10 17.4671 2.27415   5
  -2  -3  10 19.0895 2.55763   6
  -2  -3  10 19.9148 2.71808   1
   1   3 -10 2.01966 0.69956   8
   1   3 -10 1.40986 0.90933   1
   1   3 -10 1.32907 1.02789   4
  -1  -3  10 1.38910 0.72006   6
  -1  -3  10 2.03155 1.08842   1
  -1  -3  10 1.07367 0.74511   5
   0   3 -10 34.5298 2.63380   8
   0   3 -10 38.5800 3.09192   1
   0   3 -10 39.2440 3.49325   9
   0   3 -10 38.7135 3.20501   4
   0  -3  10 42.5658 3.27068   1
   0  -3  10 35.8754 2.92616   5
   0  -3  10 35.0724 2.94499   6
  -1   3 -10 31.6581 2.73722   4
  -1   3 -10 31.3390 2.65609   1
  -1   3 -10 33.1691 2.99389   9
  -1   3 -10 29.6079 2.39301   8
   1  -3  10 29.7260 2.58919   6
   1  -3  10 30.0932 2.68854   1
   1  -3  10 32.8578 2.65713   5
  -2   3 -10 -0.4649 0.60059   4
  -2   3 -10 0.20972 0.60706   9
  -2   3 -10 0.48970 0.44925   1
  -2   3 -10 -0.6761 0.29196   8
   2  -3  10 0.02609 0.42016   6
   2  -3  10 -0.4415 0.35697   5
   2  -3  10 0.38267 0.55483   1
  -3   3 -10 64.3287 3.86774   8
  -3   3 -10 69.6223 3.92237   2
  -3   3 -10 61.9860 4.06473   4
   3  -3  10 58.2428 3.98036   5
   3  -3  10 56.8584 3.68982   3
   3  -3  10 58.9799 3.95888   6
  -4   3 -10 2.72145 0.81656   8
  -4   3 -10 3.44656 0.97932   2
  -4   3 -10 1.98143 0.93529   4
   4  -3  10 2.01517 0.78351   3
   4  -3  10 2.40988 0.82048   6
   4  -3  10 2.78920 0.86890   5
  -5   3 -10 64.0362 3.91516   8
  -5   3 -10 61.6667 4.06371   2
   5  -3  10 57.8238 3.88901   3
   5  -3  10 57.7242 3.99098   5
   5  -3  10 58.9257 3.85475   6
  -6   3 -10 3.83555 1.21497   2
  -6   3 -10 5.08767 1.13358   8
   6  -3  10 5.45982 1.30320   5
   6  -3  10 5.79553 1.31361   3
  -7   3 -10 5.84467 1.31783   8
  -7   3 -10 4.80259 1.35913   2
   7  -3  10 5.62225 1.33235   3
   7  -3  10 4.72597 1.30950   5
  -8   3 -10 3.41504 1.51586   7
  -8   3 -10 4.02587 1.16286   8
  -8   3 -10 0.53846 1.06717   2
   8  -3  10 -0.2241 0.91183   3
   8  -3  10 1.88150 1.09081   7
   8  -3  10 2.22065 1.16235   5
   4   2 -10 17.5202 2.85876   1
   4   2 -10 20.6069 2.98516   4
   4   2 -10 19.6125 2.36146   8
  -4  -2  10 16.7932 2.32661   5
  -4  -2  10 21.6297 3.21222   1
  -4  -2  10 19.5642 2.69365   6
   3   2 -10 76.3835 5.50553   1
   3   2 -10 78.9280 4.82545   8
   3   2 -10 78.4694 5.60688   4
  -3  -2  10 83.6991 5.32177   6
  -3  -2  10 76.3373 4.92760   5
  -3  -2  10 76.5466 5.65167   1
   2   2 -10 0.89042 0.69306   8
   2   2 -10 0.17064 0.60303   4
   2   2 -10 0.25202 0.51333   1
  -2  -2  10 0.50364 0.55096   6
  -2  -2  10 0.99855 0.73843   5
  -2  -2  10 0.79863 0.77066   1
   1   2 -10 0.29343 0.49617   4
   1   2 -10 0.66834 0.59662   8
   1   2 -10 1.40927 0.85500   1
  -1  -2  10 1.52472 0.75881   6
  -1  -2  10 1.71483 0.70958   5
  -1  -2  10 0.50684 0.85169   1
   0   2 -10 3.67861 1.33736   9
   0   2 -10 2.72741 0.99904   4
   0   2 -10 6.36869 1.39937   1
   0   2 -10 3.95063 0.98685   8
   0  -2  10 4.28656 1.48428   9
   0  -2  10 2.18519 0.77936   5
   0  -2  10 3.05839 0.90811   6
   0  -2  10 4.06935 1.23262   1
  -1   2 -10 1.18510 0.69390   4
  -1   2 -10 1.70996 0.95656   9
  -1   2 -10 3.08780 0.82140   8
  -1   2 -10 1.08842 0.62425   1
   1  -2  10 1.32405 0.90831   9
   1  -2  10 0.72301 0.66047   5
   1  -2  10 0.62341 0.63565   1
   1  -2  10 0.62467 0.51477   6
  -2   2 -10 14.4796 2.15991   9
  -2   2 -10 18.1511 2.09094   1
  -2   2 -10 12.7154 1.68368   8
  -2   2 -10 15.5697 1.67703   2
  -2   2 -10 14.0273 1.91008   4
   2  -2  10 14.1349 1.90723   1
   2  -2  10 14.2689 1.88203   6
   2  -2  10 14.2119 1.85224   5
   2  -2  10 15.3891 2.26408   9
  -3   2 -10 -0.3655 0.51828   8
  -3   2 -10 -0.2916 0.30918   4
  -3   2 -10 -0.5110 0.46047   2
   3  -2  10 0.17235 0.40537   5
   3  -2  10 -0.0804 0.48119   6
   3  -2  10 -0.2367 0.34700   3
  -4   2 -10 93.0293 4.94377   8
  -4   2 -10 82.2467 4.87876   4
  -4   2 -10 84.4413 4.95217   2
   4  -2  10 87.1609 5.06442   6
   4  -2  10 75.5571 4.90764   5
   4  -2  10 86.0827 4.79070   3
  -5   2 -10 6.26919 1.15159   8
  -5   2 -10 2.92547 0.98377   2
   5  -2  10 4.66151 1.04961   6
   5  -2  10 6.20996 1.13528   3
   5  -2  10 8.23711 1.47511   5
  -6   2 -10 4.62558 1.14615   8
  -6   2 -10 6.90379 1.44351   2
   6  -2  10 5.25056 1.24456   5
   6  -2  10 7.42658 1.41173   3
  -7   2 -10 53.9045 3.93419   2
  -7   2 -10 52.1967 3.55665   8
  -7   2 -10 55.6312 4.14323   7
   7  -2  10 48.7307 3.75664   7
   7  -2  10 52.6389 3.79420   5
   7  -2  10 53.5746 3.82678   3
  -8   2 -10 7.46269 1.77303   2
  -8   2 -10 7.47816 1.45158   8
  -8   2 -10 11.5292 2.19617   7
   8  -2  10 8.86062 1.77091   3
   8  -2  10 5.40532 1.48109   7
   8  -2  10 7.61540 1.59616   5
  -9   2 -10 2.24342 0.94105   8
  -9   2 -10 -1.3028 0.84706   2
  -9   2 -10 -0.9174 1.04334   7
   9  -2  10 1.24779 1.09582   7
   9  -2  10 0.06181 0.64712   3
   9  -2  10 0.97818 1.17619   5
   5   1 -10 0.38274 0.95886   4
  -5  -1  10 0.97279 0.87268   6
   4   1 -10 39.6329 3.77091   1
   4   1 -10 45.8149 4.12117   4
   4   1 -10 39.6482 3.17563   8
  -4  -1  10 46.8055 4.15854   1
  -4  -1  10 38.5397 3.13880   5
  -4  -1  10 43.7655 3.50670   6
   3   1 -10 6.30594 1.19877   8
   3   1 -10 4.15191 1.29561   1
   3   1 -10 6.59392 1.72354   4
  -3  -1  10 7.30259 1.41222   5
  -3  -1  10 5.98809 1.63579   1
  -3  -1  10 7.54775 1.58156   6
   2   1 -10 10.4299 1.57530   8
   2   1 -10 10.9332 2.14471   4
   2   1 -10 17.2465 2.48287   1
  -2  -1  10 11.7894 2.23076   1
  -2  -1  10 11.3216 1.68339   5
  -2  -1  10 12.5795 1.92394   6
   1   1 -10 1.57036 0.62417   8
   1   1 -10 0.99652 0.76561   4
  -1  -1  10 2.19334 0.86676   6
  -1  -1  10 1.56595 0.76610   5
  -1  -1  10 1.24903 0.96012   1
   0   1 -10 213.217 11.5238   4
   0   1 -10 224.725 12.1387   9
   0   1 -10 222.360 10.9524   8
   0  -1  10 220.995 11.6380   1
   0  -1  10 229.007 12.3353   9
   0  -1  10 229.247 11.3891   6
   0  -1  10 218.040 11.0237   5
  -1   1 -10 0.33444 0.50007   4
  -1   1 -10 -0.0541 0.71048   9
  -1   1 -10 0.57744 0.41571   8
  -1   1 -10 -0.0383 0.34306   2
   1  -1  10 0.31524 0.60480   6
   1  -1  10 0.96992 0.85065   9
   1  -1  10 1.22740 0.80615   1
   1  -1  10 1.26114 0.67745   5
  -2   1 -10 7.81563 1.40627   4
  -2   1 -10 5.10238 0.96776   8
  -2   1 -10 4.61483 1.26205   9
  -2   1 -10 4.70639 0.94841   2
   2  -1  10 7.46526 1.22707   5
   2  -1  10 4.80297 1.13740   6
   2  -1  10 6.70294 1.48489   9
   2  -1  10 4.25678 1.10440   1
  -3   1 -10 62.4587 3.88122   8
  -3   1 -10 68.1897 3.96577   2
  -3   1 -10 70.0297 4.07191   4
   3  -1  10 70.2925 5.00407   9
   3  -1  10 60.2544 4.08038   6
   3  -1  10 60.0970 3.91019   5
   3  -1  10 63.3484 4.02006   1
  -4   1 -10 0.65684 0.57601   4
  -4   1 -10 0.63105 0.46782   2
  -4   1 -10 1.11702 0.55477   8
   4  -1  10 -0.0584 0.37032   3
   4  -1  10 0.85862 0.65649   6
   4  -1  10 0.82540 0.55112   5
  -5   1 -10 2.10132 0.88638   2
  -5   1 -10 1.34626 0.77160   8
   5  -1  10 2.69040 0.81620   3
   5  -1  10 1.81007 0.74326   5
   5  -1  10 2.09139 0.74587   6
  -6   1 -10 4.08321 1.04801   8
  -6   1 -10 1.55403 0.85775   2
  -6   1 -10 4.27562 1.23867   7
   6  -1  10 1.95370 0.89272   5
   6  -1  10 3.58054 0.93018   6
   6  -1  10 2.29365 0.79581   3
  -7   1 -10 18.9467 2.09383   8
  -7   1 -10 18.3309 2.54871   7
  -7   1 -10 17.9297 2.33540   2
   7  -1  10 15.2345 2.03962   5
   7  -1  10 18.4834 2.24884   3
  -8   1 -10 4.37321 1.50298   2
  -8   1 -10 10.5313 2.10677   7
  -8   1 -10 9.75262 1.55006   8
   8  -1  10 7.46577 1.55128   3
   8  -1  10 7.53911 1.60762   5
  -9   1 -10 0.50276 1.23765   7
  -9   1 -10 0.83510 0.76442   8
  -9   1 -10 0.57393 0.83143   2
   9  -1  10 0.40882 0.88010   3
   9  -1  10 -0.1866 0.65231   5
   5   0 -10 0.09353 0.86295   8
   5   0 -10 1.33899 0.93805   1
   5   0 -10 -0.0252 1.17289   4
  -5   0  10 -0.0901 0.85343   1
  -5   0  10 0.29311 0.84897   6
   4   0 -10 6.56820 1.69893   1
   4   0 -10 5.51606 1.29949   8
   4   0 -10 6.71390 1.76723   4
  -4   0  10 5.71913 1.41560   6
  -4   0  10 5.33470 1.64438   1
   3   0 -10 0.03081 0.62242   8
   3   0 -10 -0.3702 0.80593   4
  -3   0  10 0.73933 0.66294   5
  -3   0  10 0.71313 1.02210   1
  -3   0  10 -0.2384 0.43021   6
   2   0 -10 62.4170 4.13382   8
   2   0 -10 72.6096 5.02514   4
  -2   0  10 68.2244 4.14561   5
  -2   0  10 59.1073 4.71364   1
  -2   0  10 71.2672 4.58276   6
   1   0 -10 3.05081 0.87769   8
   1   0 -10 3.10623 1.09128   4
  -1   0  10 2.23625 1.09001   1
  -1   0  10 1.37039 0.65280   5
  -1   0  10 2.84557 0.90677   6
   0   0 -10 41.0083 2.90780   8
   0   0 -10 37.6249 3.28883   4
   0   0 -10 46.4660 2.78862   2
   0   0 -10 38.5384 3.59250   9
   0   0  10 42.6394 3.17946   6
   0   0  10 44.0954 2.96108   5
   0   0  10 43.8560 3.83584   9
   0   0  10 43.1800 3.43510   1
  -1   0 -10 44.5409 3.66542   9
  -1   0 -10 46.3938 2.97881   8
  -1   0 -10 45.1805 3.31936   4
  -1   0 -10 46.2701 2.86041   2
   1   0  10 38.3824 2.87562   5
   1   0  10 48.2265 3.83920   9
   1   0  10 49.4250 3.35640   6
   1   0  10 36.2130 3.15818   1
  -2   0 -10 -0.4763 0.62187   9
  -2   0 -10 -0.7300 0.37554   4
  -2   0 -10 0.18911 0.43006   2
  -2   0 -10 0.18048 0.37318   8
   2   0  10 0.29596 0.37023   5
   2   0  10 -0.0985 0.50351   9
   2   0  10 0.59226 0.58391   1
   2   0  10 0.01427 0.40960   6
  -3   0 -10 3.54312 0.85881   2
  -3   0 -10 4.86468 0.96054   4
  -3   0 -10 2.56400 0.98113   9
  -3   0 -10 3.63277 0.81593   8
   3   0  10 3.87248 1.16109   9
   3   0  10 4.83574 1.03639   5
   3   0  10 3.27771 0.92035   6
   3   0  10 3.52379 0.89667   1
  -4   0 -10 -0.1946 0.29692   2
  -4   0 -10 0.26199 0.41358   8
   4   0  10 0.02914 0.31777   6
   4   0  10 -0.6289 0.26322   5
  -5   0 -10 11.5044 1.66909   2
  -5   0 -10 11.0738 1.44799   8
   5   0  10 10.0479 1.49804   5
   5   0  10 10.6532 1.57832   6
   5   0  10 11.9840 1.47748   3
  -6   0 -10 9.84953 1.39069   8
  -6   0 -10 10.8778 1.75721   7
  -6   0 -10 8.02523 1.49075   2
   6   0  10 10.4243 1.53582   3
   6   0  10 10.2558 1.54370   6
   6   0  10 7.71858 1.35831   5
  -7   0 -10 3.21321 0.98634   2
  -7   0 -10 2.47598 0.79498   8
  -7   0 -10 3.50240 1.21199   7
   7   0  10 3.40718 0.84214   6
   7   0  10 1.78774 0.79309   5
   7   0  10 3.92922 1.01529   3
  -8   0 -10 37.1392 2.78063   8
  -8   0 -10 41.8111 3.61032   7
  -8   0 -10 41.4044 3.46307   2
   8   0  10 34.2249 2.96315   5
   8   0  10 38.4528 3.13078   3
  -9   0 -10 40.3660 3.70901   2
  -9   0 -10 33.4264 4.13867   7
   9   0  10 41.5022 3.54659   3
   9   0  10 46.7198 3.56140   5
   5  -1 -10 1.67771 0.96869   1
   5  -1 -10 1.15926 0.93780   8
   5  -1 -10 0.14553 1.17284   4
  -5   1  10 0.49733 0.84314   6
  -5   1  10 -0.8382 0.67112   1
   4  -1 -10 5.50399 1.27828   8
   4  -1 -10 5.94863 1.78975   4
  -4   1  10 8.19733 1.89879   1
  -4   1  10 7.93866 2.20465   4
  -4   1  10 5.20245 1.33541   6
   3  -1 -10 8.37670 1.90795   4
   3  -1 -10 5.82456 1.26449   8
  -3   1  10 8.78059 1.96669   1
  -3   1  10 8.00790 1.61924   6
  -3   1  10 7.54912 1.90327   4
   2  -1 -10 55.1350 4.23384   4
   2  -1 -10 47.5756 3.48953   8
  -2   1  10 53.6832 4.22604   1
  -2   1  10 52.7585 4.32925   4
  -2   1  10 49.5737 3.67687   6
  -2   1  10 52.6880 3.36463   5
   1  -1 -10 26.7706 2.06940   2
   1  -1 -10 30.3596 2.88560   4
   1  -1 -10 28.4138 2.30232   8
  -1   1  10 24.6505 3.21687   4
  -1   1  10 28.5501 2.85724   1
  -1   1  10 27.2446 2.16211   5
  -1   1  10 30.1337 2.59987   6
   0  -1 -10 176.176 10.4406   9
   0  -1 -10 181.022 9.38687   8
   0  -1 -10 198.348 9.26155   2
   0  -1 -10 182.349 10.0028   4
   0   1  10 185.104 9.73746   6
   0   1  10 199.404 10.8551   9
   0   1  10 186.264 10.1269   1
   0   1  10 188.689 9.30820   5
  -1  -1 -10 101.489 5.95113   4
  -1  -1 -10 100.038 5.50134   8
  -1  -1 -10 97.8931 5.39282   2
   1   1  10 100.860 6.53931   9
   1   1  10 99.9030 5.83074   6
   1   1  10 106.121 6.17373   1
   1   1  10 98.8813 5.43321   5
  -2  -1 -10 70.4528 4.02686   2
  -2  -1 -10 68.3514 4.26169   4
  -2  -1 -10 69.9173 3.98562   8
   2   1  10 64.7118 4.20739   6
   2   1  10 68.1097 3.94887   5
   2   1  10 65.6897 4.73177   9
   2   1  10 62.6613 4.32317   1
  -3  -1 -10 15.3375 1.69481   8
  -3  -1 -10 18.2912 1.68969   4
  -3  -1 -10 18.7956 1.67974   2
   3   1  10 14.3904 2.13452   9
   3   1  10 18.2155 2.12407   1
   3   1  10 16.8796 2.03290   6
   3   1  10 16.3745 1.77459   5
  -4  -1 -10 2.47699 0.72283   8
  -4  -1 -10 4.16168 1.01136   2
   4   1  10 3.10187 0.84692   5
   4   1  10 5.44557 1.10913   6
  -5  -1 -10 2.11692 0.73685   2
  -5  -1 -10 1.43710 0.75328   7
  -5  -1 -10 1.40444 0.70080   8
   5   1  10 2.65075 0.86401   6
   5   1  10 1.81680 0.74494   5
   5   1  10 1.39580 0.59091   3
  -6  -1 -10 0.97798 0.71281   2
  -6  -1 -10 0.04238 0.55931   8
  -6  -1 -10 1.01411 0.80938   7
   6   1  10 -0.4825 0.44273   3
   6   1  10 1.85848 0.78660   6
   6   1  10 0.13780 0.65026   5
  -7  -1 -10 -0.5333 0.63223   7
  -7  -1 -10 0.33763 0.44625   8
  -7  -1 -10 0.15539 0.48770   2
   7   1  10 -0.3970 0.54600   3
   7   1  10 0.14917 0.73259   5
   7   1  10 0.71313 0.60656   6
  -8  -1 -10 72.6789 5.06926   2
  -8  -1 -10 78.3977 5.47637   7
   8   1  10 75.0406 4.82600   5
   8   1  10 73.5587 4.72155   6
   8   1  10 79.6802 5.03166   3
  -9  -1 -10 52.7323 4.11118   2
  -9  -1 -10 49.1666 4.34680   7
   9   1  10 46.6851 3.55422   5
   9   1  10 41.1043 3.65566   3
   5  -2 -10 0.58494 1.22583   4
   5  -2 -10 0.74998 0.73127   8
  -5   2  10 1.46911 0.95136   6
  -5   2  10 1.72961 1.02595   1
  -5   2  10 -0.1844 1.25415   4
   4  -2 -10 9.44139 1.67712   8
   4  -2 -10 9.31602 2.17615   4
  -4   2  10 11.0233 1.82021   6
  -4   2  10 9.59244 2.07754   1
  -4   2  10 11.1780 2.51836   4
   3  -2 -10 7.60992 1.51264   8
   3  -2 -10 12.2349 2.27531   4
  -3   2  10 11.7694 2.34363   4
  -3   2  10 11.1811 2.19418   1
  -3   2  10 11.1912 1.79969   6
   2  -2 -10 0.14704 0.46036   2
   2  -2 -10 0.49677 0.64036   8
   2  -2 -10 -0.3259 0.73196   4
  -2   2  10 -0.0156 0.69161   4
  -2   2  10 0.90885 0.74448   1
  -2   2  10 -0.3896 0.57460   6
   1  -2 -10 0.31512 0.57670   4
   1  -2 -10 0.71705 0.52964   8
   1  -2 -10 1.09629 0.58346   2
  -1   2  10 1.08869 0.67000   6
  -1   2  10 0.81415 0.78464   4
  -1   2  10 0.55667 0.66649   1
   0  -2 -10 1.56329 0.92565   4
   0  -2 -10 1.71306 0.63219   8
   0  -2 -10 1.75723 0.65028   2
   0   2  10 1.06484 0.93049   4
   0   2  10 3.41965 0.96924   6
   0   2  10 4.76108 1.40438   9
   0   2  10 2.83626 0.72495   5
   0   2  10 2.75650 1.02301   1
  -1  -2 -10 0.43918 0.48271   4
  -1  -2 -10 0.92920 0.49788   2
  -1  -2 -10 0.17741 0.42127   8
   1   2  10 1.18539 0.69811   4
   1   2  10 1.22220 0.54382   5
   1   2  10 0.64746 0.64574   6
   1   2  10 0.83722 0.66175   9
   1   2  10 0.56419 0.63210   1
  -2  -2 -10 26.9514 2.30973   4
  -2  -2 -10 26.5631 2.15986   2
  -2  -2 -10 29.3769 2.16066   8
   2   2  10 32.7649 2.97289   9
   2   2  10 28.1684 2.06849   5
   2   2  10 29.5676 2.58350   1
   2   2  10 26.4491 2.31506   6
  -3  -2 -10 14.6804 1.76439   2
  -3  -2 -10 13.3985 1.59081   8
  -3  -2 -10 14.7567 1.75444   4
   3   2  10 12.8503 1.99434   9
   3   2  10 16.2385 2.00424   1
   3   2  10 15.2091 1.63447   5
   3   2  10 17.1391 1.97282   6
  -4  -2 -10 3.61886 0.96119   7
  -4  -2 -10 2.74034 0.76139   8
  -4  -2 -10 3.84934 0.98219   2
   4   2  10 2.78043 0.81665   1
   4   2  10 5.11219 1.38506   9
   4   2  10 1.32682 0.59674   5
   4   2  10 3.90065 0.96847   6
  -5  -2 -10 6.14902 1.30011   7
  -5  -2 -10 6.25842 1.25942   2
  -5  -2 -10 7.42674 1.16918   8
   5   2  10 6.88056 1.15995   5
   5   2  10 8.60299 1.44596   6
  -6  -2 -10 27.1032 2.46904   2
  -6  -2 -10 33.4844 2.32067   8
  -6  -2 -10 32.1522 2.74745   7
   6   2  10 27.1086 2.29000   5
   6   2  10 32.3222 2.54786   6
   6   2  10 27.1189 2.28259   3
  -7  -2 -10 1.34968 0.64332   8
  -7  -2 -10 0.73942 0.83725   7
  -7  -2 -10 0.85097 0.92261   2
   7   2  10 0.84822 0.62520   3
   7   2  10 1.76497 0.73030   5
   7   2  10 0.98415 0.57277   6
  -8  -2 -10 5.60998 1.46148   2
  -8  -2 -10 3.17562 1.39062   7
   8   2  10 4.52764 1.24806   3
   8   2  10 4.82719 1.19820   5
   8   2  10 7.62755 1.56505   6
  -9  -2 -10 25.0017 3.44042   7
  -9  -2 -10 20.5582 2.81745   2
   9   2  10 27.3328 2.46429   6
   9   2  10 23.3057 2.85684   3
   9   2  10 20.7760 2.64151   5
   5  -3 -10 1.82252 1.11342   8
  -5   3  10 2.60807 0.97954   6
  -5   3  10 5.35126 2.05565   1
   4  -3 -10 36.0134 4.38652   4
   4  -3 -10 37.9085 3.15776   8
  -4   3  10 38.1042 3.16399   6
  -4   3  10 38.9913 3.76483   1
  -4   3  10 37.4426 4.50102   4
   3  -3 -10 20.9656 2.45215   8
   3  -3 -10 20.7817 3.01325   4
   3  -3 -10 18.4971 2.11757   2
  -3   3  10 21.6192 3.02865   1
  -3   3  10 19.4648 3.03684   4
  -3   3  10 21.8425 2.53804   6
   2  -3 -10 2.60032 0.77584   2
   2  -3 -10 1.51611 0.69967   8
   2  -3 -10 2.74763 1.26236   4
  -2   3  10 3.00458 1.25270   1
  -2   3  10 4.15253 1.16115   6
  -2   3  10 3.80719 1.46674   4
   1  -3 -10 2.22063 0.82394   8
   1  -3 -10 3.67825 1.27905   4
   1  -3 -10 4.37947 0.92374   2
  -1   3  10 3.89705 1.13202   6
  -1   3  10 2.76414 1.19942   1
  -1   3  10 1.63138 1.13585   4
   0  -3 -10 22.8375 2.35003   8
   0  -3 -10 25.3253 2.01488   2
   0  -3 -10 23.5488 2.79870   4
   0   3  10 20.1724 2.97236   9
   0   3  10 24.3425 2.92626   1
   0   3  10 23.3358 2.86899   4
   0   3  10 31.0051 2.42698   6
  -1  -3 -10 5.20136 1.19447   4
  -1  -3 -10 8.17665 1.23946   8
  -1  -3 -10 8.77883 1.28291   2
   1   3  10 9.18350 1.18932   5
   1   3  10 7.28482 1.33138   6
   1   3  10 8.15302 1.55517   4
   1   3  10 7.96464 1.62823   1
   1   3  10 9.51521 1.98491   9
  -2  -3 -10 -0.2055 0.42628   4
  -2  -3 -10 -0.1687 0.26532   8
  -2  -3 -10 -0.4832 0.35787   2
   2   3  10 0.55638 0.59613   6
   2   3  10 0.20557 0.41668   4
   2   3  10 -0.0740 0.33235   5
   2   3  10 1.84062 0.83568   9
   2   3  10 0.09181 0.56476   1
  -3  -3 -10 112.354 5.80520   8
  -3  -3 -10 115.121 6.03977   2
  -3  -3 -10 105.605 5.90373   4
   3   3  10 108.451 6.08983   6
   3   3  10 105.973 5.67582   5
   3   3  10 109.128 6.27382   1
   3   3  10 107.791 6.63946   9
  -4  -3 -10 36.9568 2.49616   8
  -4  -3 -10 34.8134 2.69792   7
  -4  -3 -10 36.5857 2.74678   2
   4   3  10 35.0132 2.75695   1
   4   3  10 36.2307 2.47086   5
   4   3  10 39.6095 3.16168   9
   4   3  10 34.4742 2.68684   6
  -5  -3 -10 5.52901 1.27912   7
  -5  -3 -10 7.72175 1.34843   2
  -5  -3 -10 8.55016 1.24700   8
   5   3  10 5.82698 1.19231   6
   5   3  10 7.84296 1.25066   5
  -6  -3 -10 30.4030 2.20695   8
  -6  -3 -10 28.2988 2.56148   2
  -6  -3 -10 28.5137 2.64306   7
   6   3  10 27.2450 2.29948   5
   6   3  10 30.0734 2.44624   6
  -7  -3 -10 0.74818 0.74439   2
  -7  -3 -10 0.74364 0.67290   7
   7   3  10 0.55869 0.70845   6
   7   3  10 0.88461 0.62244   5
   7   3  10 0.69680 0.67077   3
  -8  -3 -10 26.7871 3.30949   7
  -8  -3 -10 27.2224 3.02384   2
   8   3  10 23.9337 2.76260   6
   8   3  10 25.5884 2.86777   3
   8   3  10 27.6278 2.42428   5
  -9  -3 -10 3.88757 1.55528   7
  -9  -3 -10 3.74392 1.27026   2
   9   3  10 4.71718 1.38322   6
   9   3  10 2.42507 1.11557   3
   9   3  10 2.51603 1.22991   5
   4  -4 -10 -0.4538 0.88372   4
   4  -4 -10 -0.3659 0.45245   2
   4  -4 -10 -0.2053 0.65502   8
  -4   4  10 -0.1640 1.06258   4
  -4   4  10 0.85648 0.97558   1
  -4   4  10 0.29259 0.69027   6
   3  -4 -10 17.1312 2.13825   2
   3  -4 -10 20.1260 2.48723   8
   3  -4 -10 27.4159 3.48366   4
  -3   4  10 19.0539 2.92728   1
  -3   4  10 24.9542 3.28784   4
  -3   4  10 20.9611 2.52504   6
   2  -4 -10 0.33829 0.42208   2
   2  -4 -10 0.21737 0.62136   4
   2  -4 -10 -0.1067 0.57558   8
  -2   4  10 0.19605 0.61358   6
  -2   4  10 0.47356 0.88443   1
  -2   4  10 0.99985 0.84536   4
   1  -4 -10 2.10385 0.71666   2
   1  -4 -10 1.45964 0.66291   8
   1  -4 -10 1.64969 0.86250   4
  -1   4  10 1.10687 0.68005   4
  -1   4  10 0.98889 0.75805   1
  -1   4  10 3.14290 1.03193   6
   0  -4 -10 33.4107 2.55205   8
   0  -4 -10 33.3992 2.54035   2
   0  -4 -10 34.4602 3.02349   4
   0   4  10 30.5498 4.20230   9
   0   4  10 31.6222 3.00673   4
   0   4  10 35.5832 2.78470   6
   0   4  10 37.4125 3.18182   1
  -1  -4 -10 0.07159 0.45035   2
  -1  -4 -10 -0.1257 0.35506   4
  -1  -4 -10 0.18874 0.39075   8
   1   4  10 -0.1538 0.49243   6
   1   4  10 -0.1168 0.39673   1
   1   4  10 0.77747 0.82142   9
   1   4  10 -0.1118 0.51254   4
  -2  -4 -10 112.120 5.86165   8
  -2  -4 -10 101.916 6.08863   4
  -2  -4 -10 113.571 5.98149   2
   2   4  10 114.966 6.50180   1
   2   4  10 109.790 6.85097   9
   2   4  10 111.650 6.29438   4
   2   4  10 108.581 5.56622   5
   2   4  10 96.0444 5.95482   6
  -3  -4 -10 4.34134 0.99445   7
  -3  -4 -10 6.44559 1.02106   8
  -3  -4 -10 4.43763 1.02651   2
   3   4  10 4.63671 0.87253   5
   3   4  10 4.67617 1.05557   6
   3   4  10 3.55169 0.98418   1
   3   4  10 6.59692 1.25726   4
   3   4  10 4.33187 1.19941   9
  -4  -4 -10 12.9978 1.81512   7
  -4  -4 -10 15.0866 1.59446   8
  -4  -4 -10 13.3351 1.73098   2
   4   4  10 14.4492 1.92917   1
   4   4  10 12.7711 1.49977   5
   4   4  10 11.9919 1.69793   6
   4   4  10 14.0504 2.07749   9
  -5  -4 -10 19.3232 2.30489   2
  -5  -4 -10 18.2553 2.30794   7
  -5  -4 -10 23.3508 1.80420   8
   5   4  10 19.8133 2.24696   6
   5   4  10 22.6531 1.88500   5
  -6  -4 -10 2.15942 0.94176   7
  -6  -4 -10 2.41383 0.86224   2
   6   4  10 2.59476 1.01340   6
   6   4  10 2.32523 0.83347   5
  -7  -4 -10 11.5519 2.12164   7
  -7  -4 -10 12.7359 1.98244   2
  -7  -4 -10 7.45662 1.56656   3
   7   4  10 8.73707 1.44108   5
   7   4  10 7.72451 1.45562   6
  -8  -4 -10 10.8311 2.01536   7
  -8  -4 -10 10.2833 1.95518   3
  -8  -4 -10 12.0606 2.03131   2
   8   4  10 12.9976 1.79457   5
   8   4  10 9.11494 1.70540   6
   8   4  10 12.0930 1.98676   3
  -9  -4 -10 2.33004 1.08591   3
  -9  -4 -10 -0.7450 1.01038   7
  -9  -4 -10 0.96261 0.84942   2
   9   4  10 0.85221 0.70328   3
   9   4  10 0.19891 0.84529   5
   9   4  10 1.17997 1.13836   6
   4  -5 -10 2.30757 1.04513   2
   4  -5 -10 1.68718 0.90036   8
   4  -5 -10 3.43687 1.33931   4
  -4   5  10 3.09872 1.25397   4
  -4   5  10 2.99264 1.42375   1
   3  -5 -10 10.2350 2.13649   4
   3  -5 -10 12.9612 1.89728   2
   3  -5 -10 15.6392 2.17294   8
  -3   5  10 13.3816 2.41086   1
  -3   5  10 16.8337 2.14159   6
  -3   5  10 15.3627 2.63421   4
   2  -5 -10 0.02787 0.48019   2
   2  -5 -10 -0.3543 0.73079   4
   2  -5 -10 -0.1277 0.55727   8
  -2   5  10 0.30228 0.57204   6
  -2   5  10 0.66252 0.91838   4
  -2   5  10 0.39455 0.85083   1
   1  -5 -10 38.2891 2.85570   2
   1  -5 -10 39.4651 2.98698   8
   1  -5 -10 37.0153 3.33637   4
  -1   5  10 42.9124 3.59801   1
  -1   5  10 42.8341 3.09330   6
  -1   5  10 32.5478 3.24861   4
   0  -5 -10 33.7987 2.61628   8
   0  -5 -10 30.4361 2.87352   4
   0  -5 -10 39.8146 2.73864   2
   0   5  10 33.2615 2.70212   6
   0   5  10 33.0844 3.05764   1
   0   5  10 30.0378 2.91114   4
  -1  -5 -10 3.95224 1.13741   4
  -1  -5 -10 5.64861 1.07859   8
  -1  -5 -10 4.91612 1.04604   2
   1   5  10 6.69638 1.63207   9
   1   5  10 6.34184 1.25383   6
   1   5  10 6.52004 1.54127   1
   1   5  10 4.58673 1.25689   4
  -2  -5 -10 45.6403 3.02632   2
  -2  -5 -10 39.7373 2.75435   8
  -2  -5 -10 40.5648 3.08261   4
   2   5  10 39.7472 3.28919   1
   2   5  10 35.1412 2.85295   6
   2   5  10 43.0667 3.17159   4
   2   5  10 44.5721 3.71654   9
  -3  -5 -10 127.009 6.63432   8
  -3  -5 -10 137.154 6.97905   7
  -3  -5 -10 127.387 6.91625   2
   3   5  10 117.535 7.51274   9
   3   5  10 128.337 7.27955   1
   3   5  10 126.209 6.97526   6
   3   5  10 133.963 6.72651   5
  -4  -5 -10 38.5708 2.98063   7
  -4  -5 -10 37.8638 2.53331   8
  -4  -5 -10 45.0490 3.06070   2
   4   5  10 38.3827 3.24829   9
   4   5  10 37.2211 2.94819   1
   4   5  10 34.9335 2.79352   6
   4   5  10 39.2556 2.56192   5
  -5  -5 -10 2.48107 0.97114   7
  -5  -5 -10 1.37426 0.86190   8
  -5  -5 -10 1.18984 0.66386   2
   5   5  10 1.37733 0.68936   1
   5   5  10 1.55064 0.69118   5
   5   5  10 1.40553 0.83559   6
  -6  -5 -10 -0.2349 0.45174   2
  -6  -5 -10 -0.2180 0.44836   7
   6   5  10 -0.3618 0.71762   6
   6   5  10 0.37691 0.64152   5
  -7  -5 -10 4.71054 1.35173   2
  -7  -5 -10 5.49244 1.48211   7
   7   5  10 6.56385 1.21619   5
   7   5  10 3.14572 1.21688   6
  -8  -5 -10 0.29150 0.91442   2
  -8  -5 -10 -0.1835 0.69580   7
  -8  -5 -10 2.61827 1.36913   3
   8   5  10 -0.3017 0.52256   5
   8   5  10 -1.4201 0.78850   6
  -9  -5 -10 5.71046 1.80709   7
  -9  -5 -10 2.56381 1.09521   2
  -9  -5 -10 6.33746 1.63952   3
   9   5  10 4.47731 1.36423   3
   9   5  10 4.81377 1.40483   5
   9   5  10 5.13981 1.37770   6
   4  -6 -10 7.15774 2.41259   4
   4  -6 -10 10.4072 1.82868   2
   4  -6 -10 7.31289 1.97609   8
  -4   6  10 10.6871 2.22662   1
  -4   6  10 9.26000 2.61404   4
   3  -6 -10 0.31066 0.71532   8
   3  -6 -10 0.77308 0.79734   2
   3  -6 -10 0.29294 0.86540   4
  -3   6  10 0.87173 1.04471   4
  -3   6  10 3.59161 1.47096   1
   2  -6 -10 0.45313 0.71922   8
   2  -6 -10 0.11030 0.47474   2
  -2   6  10 -0.2960 0.50133   1
  -2   6  10 0.78315 0.96898   4
  -2   6  10 0.22631 0.38106   6
   1  -6 -10 2.70648 0.94985   8
   1  -6 -10 1.35529 0.77228   2
  -1   6  10 3.56996 0.96370   6
  -1   6  10 2.38637 1.05166   4
  -1   6  10 3.03857 1.13225   1
   0  -6 -10 4.69787 1.06558   2
   0  -6 -10 6.20140 1.22990   8
   0   6  10 5.54430 1.43362   1
   0   6  10 5.90450 1.21803   6
   0   6  10 4.84592 1.33370   4
  -1  -6 -10 6.20185 1.14294   2
  -1  -6 -10 3.54165 0.94567   8
   1   6  10 4.58181 1.11994   6
   1   6  10 3.49276 1.06278   1
   1   6  10 5.61543 1.36340   4
  -2  -6 -10 11.3995 1.49667   8
  -2  -6 -10 15.6147 1.84631   7
  -2  -6 -10 14.1681 1.96870   4
  -2  -6 -10 13.3894 1.74196   2
   2   6  10 12.8449 2.04293   1
   2   6  10 11.7753 1.85641   4
   2   6  10 12.3606 1.68967   6
  -3  -6 -10 75.0383 4.68834   2
  -3  -6 -10 80.0224 4.78096   7
  -3  -6 -10 80.7941 4.46574   8
   3   6  10 76.4418 5.01138   1
   3   6  10 78.8359 4.75897   6
   3   6  10 77.3506 5.37463   9
  -4  -6 -10 4.66988 0.89596   8
  -4  -6 -10 6.28078 1.30152   2
  -4  -6 -10 4.24830 1.12247   7
   4   6  10 4.23352 1.15710   9
   4   6  10 5.36786 1.12750   6
   4   6  10 5.67798 1.23034   1
  -5  -6 -10 0.79121 0.58513   2
  -5  -6 -10 0.32017 0.54593   7
   5   6  10 -0.3278 0.49941   5
   5   6  10 0.91046 0.64036   6
   5   6  10 2.92831 0.92814   9
   5   6  10 1.55970 0.64519   1
  -6  -6 -10 14.8982 2.06358   2
  -6  -6 -10 17.4797 2.46441   7
   6   6  10 16.8324 2.14817   6
   6   6  10 18.3130 1.96135   5
  -7  -6 -10 4.09913 1.26810   2
  -7  -6 -10 3.07097 1.27165   7
   7   6  10 1.98378 1.15086   6
   7   6  10 2.09211 0.79726   5
  -8  -6 -10 9.20864 2.06509   7
  -8  -6 -10 8.69909 1.86948   2
   8   6  10 9.73717 1.76944   6
   8   6  10 7.49805 1.53304   5
   3  -7 -10 2.05485 1.04878   2
   3  -7 -10 3.00493 1.03448   8
  -3   7  10 2.86637 1.29143   4
  -3   7  10 2.60946 1.12549   1
   2  -7 -10 4.23163 1.19955   2
   2  -7 -10 1.05159 0.80209   8
  -2   7  10 0.84227 0.83116   4
  -2   7  10 3.09950 1.29403   1
   1  -7 -10 12.5205 1.82191   8
   1  -7 -10 12.1612 1.87591   2
  -1   7  10 16.5947 2.01653   6
  -1   7  10 12.3984 2.23957   1
  -1   7  10 13.2352 2.29857   4
   0  -7 -10 1.14435 0.78687   2
   0  -7 -10 1.04391 0.70040   8
   0   7  10 1.36195 0.98481   1
   0   7  10 2.74564 0.85955   6
   0   7  10 1.64987 0.98060   4
  -1  -7 -10 16.3348 1.99324   2
  -1  -7 -10 10.8820 1.61935   8
  -1  -7 -10 13.6990 2.04339   7
   1   7  10 16.4272 2.29997   4
   1   7  10 15.5248 2.31934   1
   1   7  10 13.8038 1.83603   6
  -2  -7 -10 0.03390 0.50022   7
  -2  -7 -10 -0.2717 0.46581   8
  -2  -7 -10 0.24245 0.44983   2
   2   7  10 0.24678 0.51812   6
   2   7  10 0.49847 0.48323   1
   2   7  10 -0.0510 0.63117   4
  -3  -7 -10 9.27532 1.59842   7
  -3  -7 -10 10.4155 1.36633   8
  -3  -7 -10 6.20223 1.31159   2
   3   7  10 8.06179 1.60525   1
   3   7  10 6.97848 1.29992   6
  -4  -7 -10 2.58554 0.84682   2
  -4  -7 -10 -0.4744 0.52427   7
   4   7  10 1.62037 0.76666   6
   4   7  10 2.52530 0.86784   1
  -5  -7 -10 2.03655 0.94882   2
  -5  -7 -10 2.66170 1.12043   7
   5   7  10 0.80495 0.70223   6
  -6  -7 -10 7.73468 1.81421   7
  -6  -7 -10 9.00602 1.58268   2
   6   7  10 8.55965 1.73149   6
   6   7  10 8.83973 1.31349   5
  -7  -7 -10 0.22908 0.76743   2
  -7  -7 -10 0.49897 0.98087   7
   7   7  10 -0.9037 0.63058   5
   7   7  10 -1.0424 0.84188   6
  -8  -7 -10 2.85495 1.05534   2
  -8  -7 -10 2.45239 1.17901   7
   8   7  10 2.43202 1.06809   5
   8   7  10 1.56879 1.21919   6
   3  -8 -10 23.6050 2.87912   2
  -3   8  10 23.1255 3.28647   1
  -3   8  10 19.0662 3.52611   4
   2  -8 -10 7.68891 1.61276   2
   2  -8 -10 5.54415 1.28294   8
  -2   8  10 7.24790 1.77487   4
  -2   8  10 9.48006 2.05198   1
   1  -8 -10 6.95924 1.40313   8
   1  -8 -10 10.9447 1.77626   2
  -1   8  10 6.23400 1.59885   4
  -1   8  10 8.24468 1.81424   1
   0  -8 -10 25.1447 2.73117   2
   0  -8 -10 22.0634 2.50618   8
   0   8  10 24.2846 3.07923   4
   0   8  10 30.6304 3.53562   1
   0   8  10 28.1127 2.37698   6
  -1  -8 -10 1.18733 0.81018   7
  -1  -8 -10 1.00050 0.62116   2
  -1  -8 -10 1.06157 0.56847   8
   1   8  10 1.80940 1.00038   4
   1   8  10 1.27634 0.75059   1
   1   8  10 2.78108 0.85365   6
  -2  -8 -10 19.7383 2.09961   8
  -2  -8 -10 19.7622 2.36939   7
  -2  -8 -10 25.6494 2.25257   2
   2   8  10 26.6733 2.22922   6
   2   8  10 20.4022 2.70681   1
  -3  -8 -10 9.07725 1.53428   2
  -3  -8 -10 9.80481 1.65048   7
   3   8  10 7.76934 1.47207   6
   3   8  10 6.28002 1.42402   1
  -4  -8 -10 2.91354 1.12010   7
  -4  -8 -10 2.02199 0.89552   2
   4   8  10 2.13970 0.81664   1
   4   8  10 1.52833 0.72810   6
  -5  -8 -10 2.86266 0.96272   2
  -5  -8 -10 0.25133 0.73469   7
   5   8  10 5.85252 1.23887   1
   5   8  10 2.94057 1.03692   6
  -6  -8 -10 3.52227 1.22632   7
  -6  -8 -10 3.82768 1.18856   2
   6   8  10 1.89993 1.12308   6
   6   8  10 4.86995 1.68842   1
  -7  -8 -10 0.85544 0.70348   2
  -7  -8 -10 1.14200 0.93212   7
   7   8  10 1.54601 0.91840   6
   2  -9 -10 47.3092 3.76146   8
   2  -9 -10 55.2748 3.95153   2
  -2   9  10 48.3545 4.34842   1
  -2   9  10 46.1914 4.37373   4
   1  -9 -10 54.3669 3.91543   2
   1  -9 -10 54.9355 3.82626   8
  -1   9  10 44.9505 4.09130   1
  -1   9  10 47.4230 4.16124   4
   0  -9 -10 19.0451 2.43992   2
   0  -9 -10 23.1276 2.44901   8
   0   9  10 22.2138 2.96400   1
   0   9  10 17.5042 2.65820   4
  -1  -9 -10 14.4366 2.05757   7
  -1  -9 -10 10.9511 1.75731   2
  -1  -9 -10 15.9481 1.91970   8
   1   9  10 17.4649 2.07266   6
   1   9  10 13.4235 2.24534   1
   1   9  10 11.8193 2.13739   4
  -2  -9 -10 19.5963 2.50957   7
  -2  -9 -10 22.5427 2.55837   2
   2   9  10 23.8991 2.22296   6
   2   9  10 21.6032 2.83619   1
  -3  -9 -10 26.7751 2.76792   2
  -3  -9 -10 24.7061 2.82249   7
   3   9  10 24.4714 2.27392   6
   3   9  10 18.9129 2.64488   1
  -4  -9 -10 12.4898 2.07369   7
  -4  -9 -10 9.93081 1.66840   2
   4   9  10 9.06772 1.56597   6
   4   9  10 12.4730 2.00435   1
  -5  -9 -10 26.5372 2.95810   2
  -5  -9 -10 24.8427 3.13836   7
   5   9  10 29.0082 2.69194   1
   5   9  10 24.9379 2.78432   6
  -6  -9 -10 11.2849 2.18959   7
  -6  -9 -10 8.85095 1.66142   2
   6   9  10 9.17310 1.76676   6
   6   9  10 12.5103 1.96605   1
   1 -10 -10 33.6965 2.90592   8
  -1  10  10 27.7635 3.58970   4
  -1  10  10 28.7713 4.11552   1
   0 -10 -10 17.9579 2.38970   2
   0 -10 -10 13.2575 2.04808   7
   0 -10 -10 18.4253 2.23813   8
   0  10  10 20.2784 2.87720   4
   0  10  10 15.5387 2.56115   1
  -1 -10 -10 18.7840 2.51834   7
  -1 -10 -10 18.9167 2.38685   2
   1  10  10 16.7071 2.58577   4
   1  10  10 17.9481 2.75568   1
  -2 -10 -10 6.32641 1.42069   7
  -2 -10 -10 5.83277 1.29522   2
   2  10  10 8.88364 1.80174   1
   2  10  10 7.50255 1.36694   6
  -3 -10 -10 20.3209 2.63379   7
  -3 -10 -10 13.8436 2.11030   2
   3  10  10 17.0270 2.46826   1
   3  10  10 21.0569 2.37906   6
  -4 -10 -10 14.2152 2.07731   2
  -4 -10 -10 14.6943 2.33044   7
   4  10  10 15.9029 2.37071   1
   4  10  10 15.5228 2.10327   6
  -5 -10 -10 5.99130 1.72213   7
  -5 -10 -10 10.2701 1.79430   2
   5  10  10 9.26268 1.74427   1
   5  10  10 6.64183 1.49130   6
  -1 -11 -10 35.2162 4.04757   2
  -1 -11 -10 34.1383 3.59203   7
  -2 -11 -10 29.3283 3.28964   7
  -2 -11 -10 30.9084 2.76706   2
   2  11  10 27.6693 3.47855   1
  -3 -11 -10 -0.1229 0.92594   7
  -3 -11 -10 -0.2789 0.54229   2
   3  11  10 2.61325 0.84568   6
   3  11  10 2.84764 1.05114   1
  -4 -11 -10 11.6012 1.94101   2
   4  11  10 13.5770 1.98132   6
  -2   8 -11 2.26104 1.02333   8
  -2   8 -11 -0.7732 1.44254   4
   2  -8  11 1.82064 1.34749   5
   2  -8  11 1.36707 1.04884   3
  -3   8 -11 -0.0863 0.95446   8
  -3   8 -11 0.15103 1.18522   4
   3  -8  11 0.56527 0.72307   3
   3  -8  11 0.54506 0.75995   5
   0   7 -11 19.5257 3.04902   4
   0   7 -11 28.6233 3.30406   1
   0  -7  11 19.6154 2.71475   6
   0  -7  11 20.0143 2.84082   5
  -1   7 -11 2.55050 1.67662   4
  -1   7 -11 2.92842 1.15714   8
   1  -7  11 2.09776 1.00610   5
  -2   7 -11 123.616 7.64876   4
  -2   7 -11 122.051 6.87587   8
   2  -7  11 103.317 7.03906   3
   2  -7  11 127.003 7.36180   5
  -3   7 -11 0.42866 0.93481   8
  -3   7 -11 -0.0429 1.03390   4
   3  -7  11 1.31128 1.01104   3
   3  -7  11 1.19884 1.15661   5
  -4   7 -11 -2.5232 1.16261   4
  -4   7 -11 1.03086 1.02068   8
   4  -7  11 0.33838 0.77042   5
   4  -7  11 -0.0121 0.87390   3
  -5   7 -11 -0.3879 0.84587   8
  -5   7 -11 -1.6282 1.27744   4
   5  -7  11 0.81389 0.84641   5
   5  -7  11 1.06400 0.85046   3
   1   6 -11 19.9032 2.77786   1
   1   6 -11 15.6869 2.75537   4
  -1  -6  11 17.7064 2.59054   6
  -1  -6  11 22.2755 2.82646   5
   0   6 -11 7.70314 1.51492   8
   0   6 -11 10.5278 2.30607   4
   0   6 -11 6.69450 1.74560   1
   0  -6  11 7.54893 1.71378   5
   0  -6  11 7.13605 1.65348   6
  -1   6 -11 -0.6287 1.18165   4
  -1   6 -11 0.39176 0.70024   8
   1  -6  11 0.12012 0.82157   5
   1  -6  11 -0.3284 0.53720   6
  -2   6 -11 22.9346 2.48870   8
  -2   6 -11 26.0905 3.30620   4
   2  -6  11 24.1023 3.08407   6
   2  -6  11 21.8900 2.90823   5
  -3   6 -11 34.4766 2.81714   8
  -3   6 -11 37.7365 3.31862   4
   3  -6  11 27.0756 3.02024   3
   3  -6  11 33.5166 3.52580   5
  -4   6 -11 -1.7036 0.60365   8
  -4   6 -11 -1.5038 1.03704   4
   4  -6  11 -0.4298 0.54555   3
   4  -6  11 -0.9672 0.48559   5
  -5   6 -11 1.90827 0.99750   8
   5  -6  11 1.39943 0.96322   5
   5  -6  11 -0.6272 0.70547   3
  -6   6 -11 0.77201 0.74201   8
   6  -6  11 1.18786 0.85938   5
   6  -6  11 1.09256 1.02625   3
   2   5 -11 26.3574 3.39682   1
   2   5 -11 23.2908 3.32623   4
  -2  -5  11 19.3952 2.79712   6
  -2  -5  11 23.2470 2.85999   5
   1   5 -11 43.9646 3.73277   1
   1   5 -11 39.4504 3.10119   8
   1   5 -11 37.8651 3.60001   4
  -1  -5  11 36.4454 3.24153   5
  -1  -5  11 42.6495 3.50500   6
   0   5 -11 8.09942 1.74876   1
   0   5 -11 9.33017 2.03912   4
   0   5 -11 6.72450 1.42465   8
   0  -5  11 7.34504 1.67642   5
   0  -5  11 6.53325 1.57687   6
  -1   5 -11 6.07540 1.46815   1
  -1   5 -11 6.64899 1.41275   8
  -1   5 -11 7.08759 1.63745   4
   1  -5  11 7.65230 1.57030   5
   1  -5  11 10.4049 1.78554   6
  -2   5 -11 0.85924 0.87530   4
  -2   5 -11 0.41764 0.81916   8
   2  -5  11 1.44465 0.85380   5
   2  -5  11 0.81213 0.79797   6
  -3   5 -11 0.51243 0.54292   8
  -3   5 -11 1.20883 1.16709   4
   3  -5  11 1.13797 0.74450   3
   3  -5  11 1.28393 0.82260   6
   3  -5  11 0.43781 0.71849   5
  -4   5 -11 3.51326 1.06795   8
  -4   5 -11 5.27374 1.47107   4
   4  -5  11 5.03040 1.27632   3
   4  -5  11 2.26276 1.14032   5
  -5   5 -11 4.79696 1.21818   8
   5  -5  11 3.43937 1.15743   3
   5  -5  11 4.27732 1.26626   5
  -6   5 -11 0.40811 0.98017   2
  -6   5 -11 0.15821 0.83646   8
   6  -5  11 0.37262 0.67178   5
   6  -5  11 1.03918 0.76181   3
  -7   5 -11 0.38882 0.70962   8
  -7   5 -11 0.61498 0.79854   2
   7  -5  11 0.98470 0.80512   3
   7  -5  11 0.78509 1.02841   5
   3   4 -11 1.74641 1.31960   4
   3   4 -11 0.98056 1.16785   1
  -3  -4  11 0.82377 0.77316   5
  -3  -4  11 0.91917 1.08119   1
  -3  -4  11 0.98890 0.88310   6
   2   4 -11 2.38811 0.95942   8
   2   4 -11 2.27150 1.09229   1
   2   4 -11 0.87714 0.93310   4
  -2  -4  11 1.90171 1.04043   1
  -2  -4  11 2.07502 1.11412   5
  -2  -4  11 1.71260 0.83386   6
   1   4 -11 0.55071 0.77997   8
   1   4 -11 1.05056 1.00122   1
   1   4 -11 0.45277 0.99521   4
  -1  -4  11 -1.2183 0.61600   6
  -1  -4  11 -0.3928 0.51446   5
  -1  -4  11 2.74865 1.23291   1
   0   4 -11 10.0899 1.59561   8
   0   4 -11 9.61669 1.83995   1
   0   4 -11 11.9068 2.09111   4
   0  -4  11 8.92346 1.73701   5
   0  -4  11 8.37928 1.61435   6
   0  -4  11 9.46108 1.89851   1
  -1   4 -11 8.57856 1.77362   4
  -1   4 -11 8.50649 1.41928   8
  -1   4 -11 9.84593 1.68985   1
   1  -4  11 8.74264 1.64775   5
   1  -4  11 9.40107 1.76082   1
   1  -4  11 5.91561 1.34230   6
  -2   4 -11 21.2957 2.35052   8
  -2   4 -11 21.1927 2.67274   4
   2  -4  11 25.5473 2.38938   6
   2  -4  11 26.3403 2.86731   5
  -3   4 -11 7.26111 1.38380   8
  -3   4 -11 5.64452 1.51000   4
   3  -4  11 7.76786 1.44137   6
   3  -4  11 4.81358 1.31340   5
  -4   4 -11 2.05882 0.99837   4
  -4   4 -11 4.84886 1.15738   8
   4  -4  11 2.27606 0.85518   3
   4  -4  11 5.10529 1.26999   6
   4  -4  11 3.26673 1.16617   5
  -5   4 -11 31.7302 2.75595   2
  -5   4 -11 27.7605 2.46757   8
   5  -4  11 26.4263 2.92801   5
   5  -4  11 27.5561 2.52958   3
  -6   4 -11 32.5167 2.90732   2
  -6   4 -11 33.3501 2.71214   8
   6  -4  11 31.4016 2.71040   3
   6  -4  11 21.0775 2.68254   5
  -7   4 -11 19.1076 2.69581   2
  -7   4 -11 21.1080 2.53826   8
   7  -4  11 16.7160 2.32920   3
   7  -4  11 19.3517 2.58438   5
   8  -4  11 -0.5081 0.88604   3
   3   3 -11 12.9710 1.95498   8
   3   3 -11 12.1857 2.38124   1
   3   3 -11 18.0861 2.89032   4
  -3  -3  11 17.5752 2.88124   1
  -3  -3  11 13.4394 2.26098   6
  -3  -3  11 12.1400 1.96310   5
   2   3 -11 -0.3962 0.85253   1
   2   3 -11 0.76510 0.74065   8
   2   3 -11 -0.4932 0.95061   4
  -2  -3  11 -0.2161 0.53938   6
  -2  -3  11 -0.5201 0.65276   5
  -2  -3  11 0.20506 0.82050   1
   1   3 -11 143.786 8.45011   1
   1   3 -11 139.078 7.71257   8
   1   3 -11 153.894 8.70371   4
  -1  -3  11 148.687 8.61957   1
  -1  -3  11 141.155 8.02638   5
  -1  -3  11 146.011 8.27411   6
   0   3 -11 2.02772 0.84549   8
   0   3 -11 2.01552 1.08582   4
   0   3 -11 2.94393 1.13662   1
   0  -3  11 1.42882 0.72985   6
   0  -3  11 1.97813 0.95133   5
   0  -3  11 4.49200 1.32693   1
  -1   3 -11 1.83741 0.88675   4
  -1   3 -11 2.32357 0.93989   1
  -1   3 -11 2.47954 1.23627   9
  -1   3 -11 3.12869 0.97684   8
   1  -3  11 1.73932 0.92174   6
   1  -3  11 3.11905 1.14097   1
   1  -3  11 2.56069 0.92155   5
  -2   3 -11 23.7361 2.11209   8
  -2   3 -11 21.7597 2.62352   4
   2  -3  11 25.5201 2.76577   5
   2  -3  11 22.2195 2.59702   6
   2  -3  11 26.0642 2.37253   1
  -3   3 -11 11.3750 1.86837   4
  -3   3 -11 9.28831 1.55676   8
   3  -3  11 8.03468 1.51994   5
   3  -3  11 9.81847 1.62567   6
  -4   3 -11 16.3175 1.99842   8
  -4   3 -11 17.2876 2.08664   2
  -4   3 -11 17.3966 2.25162   4
   4  -3  11 18.3170 2.25254   5
   4  -3  11 21.0094 2.36367   6
  -5   3 -11 87.9810 5.36505   2
  -5   3 -11 82.3457 5.14311   8
   5  -3  11 91.7284 5.47991   5
   5  -3  11 87.8667 5.20469   3
  -6   3 -11 81.0368 4.92186   8
  -6   3 -11 76.7085 5.07881   2
   6  -3  11 78.5768 5.04339   5
   6  -3  11 79.0709 4.93439   3
  -7   3 -11 6.76628 1.60143   2
  -7   3 -11 8.76273 1.66327   8
   7  -3  11 6.93292 1.60973   5
   7  -3  11 5.71388 1.31017   3
  -8   3 -11 8.19234 1.79172   2
  -8   3 -11 8.25576 1.64299   8
   8  -3  11 6.92552 1.64455   3
   8  -3  11 7.32595 1.56121   5
   3   2 -11 20.2012 2.38483   8
   3   2 -11 22.8556 3.20551   4
   3   2 -11 19.9321 2.93715   1
  -3  -2  11 22.8804 2.63716   5
  -3  -2  11 16.7928 2.80872   1
  -3  -2  11 24.0967 2.98813   6
   2   2 -11 0.11796 0.48409   8
   2   2 -11 -0.8928 0.51187   4
   2   2 -11 0.81525 0.72401   1
  -2  -2  11 0.23365 0.59285   6
  -2  -2  11 1.43068 0.91567   1
  -2  -2  11 0.70110 0.60719   5
   1   2 -11 18.5106 2.62523   1
   1   2 -11 18.1408 2.74805   4
   1   2 -11 20.7872 2.28906   8
  -1  -2  11 22.6111 2.48427   5
  -1  -2  11 23.7958 2.81109   6
  -1  -2  11 15.2489 2.43220   1
   0   2 -11 33.0039 3.10388   4
   0   2 -11 33.4191 2.67049   8
   0   2 -11 35.7449 3.14271   1
   0  -2  11 39.8908 3.36665   1
   0  -2  11 39.6784 2.96031   5
   0  -2  11 37.6656 3.06272   6
  -1   2 -11 17.8072 2.38152   4
  -1   2 -11 14.2881 2.30930   9
  -1   2 -11 14.3654 2.04943   1
  -1   2 -11 16.8977 1.89855   8
   1  -2  11 8.84663 1.94968   9
   1  -2  11 8.09194 1.46928   5
   1  -2  11 9.99336 1.68334   6
   1  -2  11 12.2455 1.97006   1
  -2   2 -11 19.3894 2.10628   8
  -2   2 -11 19.6198 2.29898   1
  -2   2 -11 20.2483 2.48682   4
   2  -2  11 16.3050 2.20921   1
   2  -2  11 20.0248 2.81933   9
   2  -2  11 19.6263 2.28666   5
   2  -2  11 18.8300 2.36312   6
  -3   2 -11 0.65215 0.70935   8
  -3   2 -11 0.43859 0.69366   4
  -3   2 -11 -0.4998 0.49629   2
   3  -2  11 0.77047 0.74306   5
   3  -2  11 1.12206 0.68882   6
  -4   2 -11 1.76303 0.79775   2
  -4   2 -11 0.78390 0.80435   4
  -4   2 -11 0.61409 0.69179   8
   4  -2  11 1.51297 0.77029   5
   4  -2  11 1.93666 0.82694   6
  -5   2 -11 32.0344 2.70105   2
  -5   2 -11 35.5348 2.74123   8
   5  -2  11 31.2374 2.51183   3
   5  -2  11 30.6486 2.64072   6
   5  -2  11 34.8542 2.82236   5
  -6   2 -11 11.6812 1.72125   8
  -6   2 -11 9.06649 1.73141   2
   6  -2  11 10.0689 1.62266   3
   6  -2  11 10.5377 1.80700   5
  -7   2 -11 32.0968 2.74939   8
  -7   2 -11 41.6446 3.37322   2
   7  -2  11 36.8166 3.11296   5
   7  -2  11 35.0651 2.99286   3
  -8   2 -11 47.9656 3.94345   2
  -8   2 -11 50.6190 3.63500   8
   8  -2  11 47.5903 3.77296   3
   8  -2  11 47.2819 3.79527   5
   4   1 -11 37.0615 3.09531   8
   4   1 -11 38.0547 5.02743   1
   4   1 -11 43.3927 5.36873   4
  -4  -1  11 38.8016 3.56861   6
  -4  -1  11 40.6675 5.37054   1
   3   1 -11 4.60160 1.48721   1
   3   1 -11 8.19950 1.53362   8
   3   1 -11 6.98506 1.86705   4
  -3  -1  11 3.22650 1.51825   1
  -3  -1  11 4.78893 1.51553   6
  -3  -1  11 4.74365 1.22843   5
   2   1 -11 6.82393 1.72512   1
   2   1 -11 6.16684 1.34570   8
   2   1 -11 3.28238 1.37190   4
  -2  -1  11 6.54865 1.32707   5
  -2  -1  11 7.51653 1.68443   6
  -2  -1  11 5.12512 1.58780   1
   1   1 -11 55.6205 4.17805   4
   1   1 -11 48.0715 3.37754   8
   1   1 -11 40.7922 3.65400   1
  -1  -1  11 56.6206 3.93369   6
  -1  -1  11 48.7744 3.47653   5
  -1  -1  11 47.7048 3.98254   1
   0   1 -11 39.9120 3.35135   4
   0   1 -11 36.9334 2.82878   8
   0  -1  11 41.0511 3.46659   1
   0  -1  11 36.0620 3.06167   6
   0  -1  11 38.9699 2.95254   5
  -1   1 -11 14.2288 1.73403   8
  -1   1 -11 11.5197 2.21416   9
  -1   1 -11 11.7058 1.93249   4
   1  -1  11 14.9650 2.54804   9
   1  -1  11 11.9412 1.85577   6
   1  -1  11 12.6475 1.74153   5
   1  -1  11 13.0187 2.05182   1
  -2   1 -11 0.98217 0.84271   9
  -2   1 -11 1.70903 0.70963   2
  -2   1 -11 0.61061 0.62767   8
  -2   1 -11 1.89469 0.74713   4
   2  -1  11 1.70771 0.70530   6
   2  -1  11 0.30718 0.59134   1
   2  -1  11 2.12662 0.75904   5
   2  -1  11 1.11597 0.94639   9
  -3   1 -11 9.11081 1.43457   8
  -3   1 -11 8.82203 1.33730   2
  -3   1 -11 8.32445 1.42508   4
   3  -1  11 7.95738 1.35471   5
   3  -1  11 6.94208 1.41152   6
  -4   1 -11 5.16763 1.14943   8
  -4   1 -11 5.25431 1.16183   2
   4  -1  11 3.58206 0.96894   5
   4  -1  11 7.16955 1.40268   6
  -5   1 -11 49.4932 3.53788   2
  -5   1 -11 54.6052 3.38813   8
   5  -1  11 44.7375 3.40274   6
   5  -1  11 43.7746 3.29557   5
  -6   1 -11 6.70672 1.43880   2
  -6   1 -11 8.77954 1.49789   8
   6  -1  11 8.12425 1.43273   6
   6  -1  11 11.1099 1.70696   5
   6  -1  11 8.75785 1.48154   3
  -7   1 -11 52.3433 3.74255   8
  -7   1 -11 57.6087 4.29275   2
   7  -1  11 62.4499 4.08786   3
   7  -1  11 60.9600 4.08642   5
  -8   1 -11 38.1972 3.33219   2
  -8   1 -11 36.5321 2.91644   8
   8  -1  11 33.6379 3.08705   5
   8  -1  11 34.7124 3.09127   3
   4   0 -11 64.6337 5.28835   4
   4   0 -11 65.8248 5.08225   1
   4   0 -11 56.8655 4.25589   8
  -4   0  11 63.9426 4.63883   6
  -4   0  11 59.0693 5.05012   1
   3   0 -11 0.72377 0.86842   4
   3   0 -11 1.50908 0.79876   8
   3   0 -11 2.17598 1.13475   1
  -3   0  11 1.33033 0.96469   6
  -3   0  11 0.32248 1.11495   1
   2   0 -11 0.42428 0.69426   4
   2   0 -11 0.38853 0.64043   8
  -2   0  11 0.26278 0.59475   5
  -2   0  11 0.46102 0.66015   1
  -2   0  11 1.74879 0.80111   6
   1   0 -11 0.25742 0.57602   8
   1   0 -11 -0.0498 0.73835   4
  -1   0  11 0.72835 0.88222   1
  -1   0  11 0.18112 0.51950   6
  -1   0  11 -0.0742 0.53226   5
   0   0 -11 7.37291 1.35961   8
   0   0 -11 8.11061 1.72359   4
   0   0  11 7.42349 1.49099   6
   0   0  11 8.25001 1.40438   5
   0   0  11 7.49747 1.74462   1
  -1   0 -11 50.4642 3.64282   4
  -1   0 -11 47.1986 3.06919   2
  -1   0 -11 43.4181 3.89655   9
  -1   0 -11 41.2982 3.04474   8
   1   0  11 46.9135 3.68820   1
   1   0  11 46.1667 3.17636   5
   1   0  11 50.0905 4.18766   9
   1   0  11 46.5139 3.46365   6
  -2   0 -11 131.892 6.74277   2
  -2   0 -11 116.753 7.48610   9
  -2   0 -11 122.871 6.70261   8
  -2   0 -11 130.412 7.10271   4
   2   0  11 128.880 6.79712   5
   2   0  11 126.327 7.09924   6
   2   0  11 123.669 7.67780   9
   2   0  11 126.179 7.21879   1
  -3   0 -11 5.95496 1.24084   4
  -3   0 -11 3.96773 0.94829   2
  -3   0 -11 3.76958 0.98366   8
   3   0  11 3.94250 0.93031   5
   3   0  11 4.52336 1.07696   6
   3   0  11 3.69847 1.05870   1
  -4   0 -11 -0.5995 0.42820   8
  -4   0 -11 0.47660 0.52068   2
   4   0  11 0.47004 0.59353   5
   4   0  11 -0.1090 0.59014   6
  -5   0 -11 0.13435 0.41316   8
  -5   0 -11 0.36166 0.52983   2
   5   0  11 0.01204 0.59634   5
   5   0  11 0.01579 0.38475   6
  -6   0 -11 0.10113 0.66475   2
  -6   0 -11 -0.4238 0.36961   8
   6   0  11 0.89084 0.49933   6
   6   0  11 -0.1645 0.43675   5
  -7   0 -11 5.59694 1.45728   2
  -7   0 -11 7.01473 1.36859   8
   7   0  11 8.30599 1.47414   6
   7   0  11 9.69686 1.69252   5
   7   0  11 6.33432 1.34574   3
  -8   0 -11 28.7635 2.43561   8
  -8   0 -11 23.6842 3.28503   7
  -8   0 -11 25.4267 3.10139   2
   8   0  11 24.3577 2.76287   3
   8   0  11 25.1819 2.79267   5
  -9   0 -11 22.0039 3.25078   7
   9   0  11 20.2588 2.67523   3
   4  -1 -11 0.47247 0.94393   4
   4  -1 -11 -0.9525 0.48920   8
   4  -1 -11 0.04560 0.68504   1
  -4   1  11 0.97348 1.02471   1
  -4   1  11 -0.2045 0.79230   6
   3  -1 -11 -0.4478 0.70178   8
   3  -1 -11 0.86462 1.05309   4
  -3   1  11 0.62265 0.66721   6
  -3   1  11 1.73940 1.00248   1
   2  -1 -11 11.6897 1.81171   8
   2  -1 -11 14.5619 2.55651   4
  -2   1  11 12.8755 2.47143   1
  -2   1  11 12.7462 2.04158   6
   1  -1 -11 6.90566 1.39497   8
   1  -1 -11 7.83780 1.73447   4
  -1   1  11 9.93692 2.01107   1
  -1   1  11 8.64652 1.35469   5
  -1   1  11 6.52739 1.48039   6
   0  -1 -11 25.6780 3.00814   4
   0  -1 -11 24.9388 2.20651   8
   0  -1 -11 24.8615 2.04582   2
   0   1  11 23.9229 2.75728   6
   0   1  11 26.9506 3.26535   1
   0   1  11 26.5681 2.16493   5
  -1  -1 -11 9.10561 1.63777   4
  -1  -1 -11 6.18180 1.16526   8
  -1  -1 -11 8.36130 1.84674   9
  -1  -1 -11 8.94547 1.35184   2
   1   1  11 11.0965 1.72912   6
   1   1  11 10.6595 1.48583   5
   1   1  11 7.09735 1.56941   1
   1   1  11 11.8326 2.19702   9
  -2  -1 -11 4.61828 1.18938   4
  -2  -1 -11 1.64867 0.72547   8
  -2  -1 -11 3.04187 0.86355   2
  -2  -1 -11 3.89609 1.23321   9
   2   1  11 2.68316 1.07572   1
   2   1  11 4.18197 1.29277   9
   2   1  11 4.07155 0.91605   5
   2   1  11 4.26098 1.07537   6
  -3  -1 -11 32.8281 2.47489   4
  -3  -1 -11 30.7751 2.31701   8
  -3  -1 -11 32.4344 2.45304   2
   3   1  11 22.7542 2.12874   5
   3   1  11 27.0736 2.80774   9
   3   1  11 26.7940 2.48743   1
   3   1  11 29.8692 2.51816   6
  -4  -1 -11 5.63537 1.05659   8
  -4  -1 -11 5.17260 1.12063   2
   4   1  11 4.71432 1.12068   6
   4   1  11 5.53608 1.06298   5
  -5  -1 -11 2.54655 0.90037   2
  -5  -1 -11 3.27740 0.92951   8
   5   1  11 3.87393 1.00251   6
   5   1  11 4.12822 0.96708   5
  -6  -1 -11 4.42792 1.24606   2
  -6  -1 -11 7.73972 1.33225   8
   6   1  11 5.61643 1.18377   6
   6   1  11 4.47736 1.08703   5
  -7  -1 -11 69.5901 4.79422   7
  -7  -1 -11 69.5509 4.11898   8
  -7  -1 -11 71.7939 4.67887   2
   7   1  11 60.5107 4.18934   6
   7   1  11 54.0164 4.02543   5
  -8  -1 -11 17.0342 2.63478   7
  -8  -1 -11 18.7251 2.55339   2
  -8  -1 -11 12.6371 1.88265   8
   8   1  11 15.1908 2.10863   3
   8   1  11 16.1522 2.09133   5
   8   1  11 15.7549 2.03547   6
  -9  -1 -11 0.60313 1.40400   7
   9   1  11 1.94631 1.18596   3
   4  -2 -11 -0.0376 0.76371   4
   4  -2 -11 0.07252 0.56942   8
  -4   2  11 -0.1417 0.77314   1
  -4   2  11 1.61469 0.99600   6
  -4   2  11 -0.2689 0.89602   4
   3  -2 -11 2.91353 1.41241   4
   3  -2 -11 2.82172 1.08990   8
  -3   2  11 4.96394 1.54031   1
  -3   2  11 4.92815 1.25715   6
  -3   2  11 3.38814 1.59118   4
   2  -2 -11 1.94076 1.19150   4
   2  -2 -11 0.13852 0.56969   8
  -2   2  11 0.59849 0.71221   6
  -2   2  11 0.25297 1.04942   4
  -2   2  11 2.37385 1.03974   1
   1  -2 -11 28.9504 3.49800   4
   1  -2 -11 29.6277 2.34969   2
   1  -2 -11 28.6461 2.47765   8
  -1   2  11 32.5259 2.77002   6
  -1   2  11 34.9053 3.37487   4
  -1   2  11 28.3677 3.49248   1
   0  -2 -11 1.06335 0.59737   2
   0  -2 -11 -0.0183 0.47276   4
   0  -2 -11 0.32208 0.54027   8
   0   2  11 0.05124 0.62083   6
   0   2  11 0.54391 0.84959   1
   0   2  11 0.42568 0.80948   4
   0   2  11 0.17279 0.47329   5
  -1  -2 -11 10.5809 1.43569   2
  -1  -2 -11 9.28547 1.77448   4
  -1  -2 -11 8.35320 1.30695   8
   1   2  11 9.10145 1.96642   9
   1   2  11 8.80760 1.53969   6
   1   2  11 11.6828 1.49790   5
   1   2  11 8.48776 1.73481   1
  -2  -2 -11 16.6548 2.18474   4
  -2  -2 -11 18.9950 2.05174   2
  -2  -2 -11 16.9778 1.88150   8
   2   2  11 18.9680 2.29378   6
   2   2  11 16.9026 2.32954   1
   2   2  11 17.4917 1.87313   5
   2   2  11 17.3352 2.61041   9
  -3  -2 -11 28.0135 2.14915   8
  -3  -2 -11 27.3434 2.28024   2
  -3  -2 -11 27.9025 2.29772   4
   3   2  11 25.9139 2.09759   5
   3   2  11 25.5374 2.31809   6
   3   2  11 25.0915 2.69549   9
   3   2  11 26.7084 2.48497   1
  -4  -2 -11 8.08467 1.27379   8
  -4  -2 -11 9.33281 1.49514   2
   4   2  11 6.72618 1.38816   6
   4   2  11 7.88842 1.24315   5
  -5  -2 -11 9.42711 1.38653   8
  -5  -2 -11 9.62245 1.56591   2
   5   2  11 9.75472 1.45407   5
   5   2  11 12.2265 1.73823   6
  -6  -2 -11 2.13390 0.85030   8
  -6  -2 -11 2.70945 0.96141   2
  -6  -2 -11 3.82368 1.22222   7
   6   2  11 3.10043 0.98927   5
   6   2  11 2.82692 0.86137   6
  -7  -2 -11 4.77425 1.25814   2
  -7  -2 -11 6.50121 1.61286   7
  -7  -2 -11 6.19376 1.21502   8
   7   2  11 8.63988 1.47814   6
   7   2  11 4.24403 1.17626   5
  -8  -2 -11 16.8247 2.39848   2
  -8  -2 -11 17.5558 2.76697   7
   8   2  11 19.6054 2.40293   5
   8   2  11 18.7300 3.30771   3
   8   2  11 14.8168 2.05813   6
  -9  -2 -11 2.29778 1.21069   7
   9   2  11 3.90658 1.25762   6
   9   2  11 1.20902 1.22382   5
   9   2  11 1.89204 1.02398   3
   4  -3 -11 0.60019 1.07248   4
   4  -3 -11 0.16248 0.90221   8
  -4   3  11 0.77521 0.88706   6
  -4   3  11 0.55743 0.98834   4
  -4   3  11 1.52638 1.12757   1
   3  -3 -11 -0.0925 0.96244   4
   3  -3 -11 0.87661 0.62764   8
  -3   3  11 2.13475 1.35535   4
  -3   3  11 0.42900 0.81951   1
  -3   3  11 1.82806 0.81769   6
   2  -3 -11 62.8237 4.19230   8
   2  -3 -11 61.1902 4.79920   4
   2  -3 -11 56.1276 3.85547   2
  -2   3  11 65.8998 4.42166   6
  -2   3  11 62.7295 4.90836   1
  -2   3  11 62.4257 4.97202   4
   1  -3 -11 43.5154 3.15787   8
   1  -3 -11 41.4059 2.96219   2
   1  -3 -11 39.3826 3.61337   4
  -1   3  11 40.2104 3.66895   1
  -1   3  11 40.2088 3.73716   4
  -1   3  11 44.1610 3.32885   6
   0  -3 -11 2.71480 0.85141   2
   0  -3 -11 2.87703 0.87781   8
   0  -3 -11 2.81727 1.09491   4
   0   3  11 2.63188 1.04860   4
   0   3  11 2.81576 0.91938   6
   0   3  11 3.19532 1.19233   1
  -1  -3 -11 0.25132 0.41257   8
  -1  -3 -11 0.02396 0.48675   2
  -1  -3 -11 0.04852 0.60081   4
   1   3  11 0.23193 0.66990   1
   1   3  11 0.13451 0.55148   4
   1   3  11 -0.0988 0.45020   6
   1   3  11 0.81010 0.95786   9
  -2  -3 -11 -0.2593 0.45968   2
  -2  -3 -11 0.33688 0.39590   8
  -2  -3 -11 0.36604 0.59690   4
   2   3  11 0.59574 0.54019   1
   2   3  11 1.51568 0.82332   9
   2   3  11 -0.0455 0.55848   6
   2   3  11 -0.3261 0.56347   4
   2   3  11 0.12563 0.39599   5
  -3  -3 -11 8.32645 1.38318   2
  -3  -3 -11 9.19342 1.29439   8
   3   3  11 10.9523 1.79058   1
   3   3  11 8.62939 1.70445   9
   3   3  11 8.87285 1.27070   5
   3   3  11 10.1532 1.67359   6
  -4  -3 -11 3.77136 0.98587   2
  -4  -3 -11 4.34394 0.89424   8
   4   3  11 8.48108 1.43209   6
   4   3  11 7.30591 1.18671   5
   4   3  11 5.37953 1.24602   1
  -5  -3 -11 0.54520 0.53392   2
  -5  -3 -11 0.33862 0.43849   8
   5   3  11 -0.4914 0.50804   5
   5   3  11 0.90529 0.69638   6
  -6  -3 -11 4.02717 1.02334   8
  -6  -3 -11 6.41353 1.47328   7
  -6  -3 -11 3.87181 1.07438   2
   6   3  11 4.76706 1.18251   6
   6   3  11 3.56647 1.03726   5
  -7  -3 -11 -0.2909 0.74145   2
  -7  -3 -11 1.23239 0.83279   7
   7   3  11 0.42446 0.44348   6
   7   3  11 0.76554 0.80953   5
  -8  -3 -11 4.88526 1.50977   2
  -8  -3 -11 4.37596 1.31602   7
   8   3  11 4.43284 1.11894   6
   8   3  11 2.07756 1.04167   5
  -9  -3 -11 3.05914 1.48301   7
   9   3  11 1.12191 0.90599   6
  -4   4  11 0.18758 0.51042   6
   3  -4 -11 2.93713 0.93805   2
   3  -4 -11 2.23876 1.34257   4
   3  -4 -11 2.13530 0.91312   8
  -3   4  11 2.61627 0.98616   6
  -3   4  11 0.82414 0.87459   1
  -3   4  11 1.84026 1.34265   4
   2  -4 -11 2.28717 0.99432   8
   2  -4 -11 0.52857 0.52499   2
   2  -4 -11 0.86405 0.88122   4
  -2   4  11 1.78994 0.76283   6
  -2   4  11 3.22239 1.26211   4
  -2   4  11 2.81719 1.25457   1
   1  -4 -11 3.46392 0.97532   8
   1  -4 -11 4.46744 1.37502   4
   1  -4 -11 6.27258 1.20665   2
  -1   4  11 7.96778 1.51803   6
  -1   4  11 5.29700 1.53746   4
  -1   4  11 5.26181 1.55346   1
   0  -4 -11 26.5798 2.70810   8
   0  -4 -11 28.7508 2.34209   2
   0  -4 -11 28.2308 3.29108   4
   0   4  11 26.7533 3.25095   4
   0   4  11 27.1224 2.45847   6
   0   4  11 26.0693 3.23258   1
  -1  -4 -11 3.24417 1.03704   4
  -1  -4 -11 3.70249 1.00518   8
  -1  -4 -11 3.92017 0.93318   2
   1   4  11 3.79367 1.29459   4
   1   4  11 2.09745 0.86444   6
   1   4  11 5.13044 1.36316   1
  -2  -4 -11 1.19063 0.63165   8
  -2  -4 -11 0.02020 0.41198   2
  -2  -4 -11 0.11872 0.50449   4
   2   4  11 0.37254 0.50866   6
   2   4  11 1.62301 0.88695   9
   2   4  11 1.36502 0.78111   1
   2   4  11 0.03013 0.58486   4
  -3  -4 -11 2.09974 0.75397   8
  -3  -4 -11 3.31782 0.92788   2
   3   4  11 0.95035 0.51195   5
   3   4  11 1.96905 0.72840   6
   3   4  11 2.48932 0.93094   9
   3   4  11 0.95156 0.61520   1
  -4  -4 -11 21.5125 2.41439   2
  -4  -4 -11 29.3747 2.12667   8
   4   4  11 24.8454 2.37536   1
   4   4  11 20.2191 2.40964   6
   4   4  11 24.0357 2.60860   9
   4   4  11 23.0069 1.93458   5
  -5  -4 -11 109.117 6.19090   2
  -5  -4 -11 114.566 5.73313   8
  -5  -4 -11 107.011 6.22327   7
   5   4  11 88.8245 5.86882   6
   5   4  11 104.155 5.71843   5
  -6  -4 -11 2.73379 0.94039   2
  -6  -4 -11 5.25643 1.39249   7
   6   4  11 4.83395 1.11698   5
   6   4  11 5.07890 1.16841   6
  -7  -4 -11 2.24061 1.14318   7
  -7  -4 -11 3.49370 1.08680   2
   7   4  11 2.47398 0.82835   6
   7   4  11 4.14228 1.16903   5
  -8  -4 -11 20.7514 2.93984   7
  -8  -4 -11 18.3520 2.51295   2
   8   4  11 16.0440 2.16188   5
   8   4  11 16.8680 2.37638   6
   3  -5 -11 -0.3425 0.70695   8
   3  -5 -11 0.42193 0.69551   2
   3  -5 -11 1.31140 0.97466   4
  -3   5  11 0.51970 1.16965   1
  -3   5  11 0.40597 0.90034   4
  -3   5  11 0.44054 0.72300   6
   2  -5 -11 7.52249 1.41692   2
   2  -5 -11 6.28975 1.48508   8
   2  -5 -11 6.20445 1.79912   4
  -2   5  11 6.89011 1.85389   4
  -2   5  11 7.81571 2.00439   1
  -2   5  11 5.82094 1.31333   6
   1  -5 -11 0.10178 0.39759   2
   1  -5 -11 0.07640 0.57098   4
   1  -5 -11 0.40863 0.68422   8
  -1   5  11 1.57588 0.90339   4
  -1   5  11 0.40903 0.43863   6
  -1   5  11 0.39701 0.62749   1
   0  -5 -11 9.40102 1.53769   8
   0  -5 -11 14.9703 2.33431   4
   0  -5 -11 11.2399 1.69202   2
   0   5  11 10.6996 1.71561   6
   0   5  11 11.7585 2.12590   1
   0   5  11 14.9140 2.36003   4
  -1  -5 -11 1.53189 0.66832   2
  -1  -5 -11 1.47052 0.79070   4
  -1  -5 -11 3.14442 0.96826   8
   1   5  11 3.16379 0.99855   6
   1   5  11 3.69482 1.12854   4
   1   5  11 2.30871 0.94350   1
  -2  -5 -11 0.46355 0.60614   4
  -2  -5 -11 1.07430 0.49272   8
  -2  -5 -11 1.14582 0.67186   2
   2   5  11 0.69276 0.76242   4
   2   5  11 1.46212 0.75652   1
   2   5  11 0.16804 0.40266   6
  -3  -5 -11 7.33301 1.33621   2
  -3  -5 -11 8.45786 1.29967   8
   3   5  11 9.76987 1.52448   6
   3   5  11 7.13455 1.54547   1
   3   5  11 6.22266 1.55392   9
  -4  -5 -11 19.6308 1.90147   8
  -4  -5 -11 18.8845 3.17347   7
  -4  -5 -11 12.6216 1.83837   2
   4   5  11 14.8609 2.06706   1
   4   5  11 14.8522 2.00300   6
   4   5  11 15.8300 2.37731   9
   4   5  11 12.3522 1.53388   5
  -5  -5 -11 18.5012 2.27204   2
  -5  -5 -11 23.0856 1.84206   8
  -5  -5 -11 21.8096 2.59895   7
   5   5  11 16.9605 2.13758   6
   5   5  11 18.1839 1.95453   5
  -6  -5 -11 1.24259 0.81797   7
  -6  -5 -11 4.16296 1.23322   2
   6   5  11 1.94128 0.86847   5
   6   5  11 2.88612 0.95560   6
  -7  -5 -11 0.51084 0.72136   2
  -7  -5 -11 1.54667 0.99636   7
   7   5  11 2.42107 0.97056   5
   7   5  11 2.86860 0.92507   6
  -8  -5 -11 12.7497 2.08081   2
  -8  -5 -11 9.46974 2.17869   7
   8   5  11 9.21822 1.70533   5
   8   5  11 9.71382 1.77526   6
   3  -6 -11 1.93411 0.96877   8
   3  -6 -11 0.47318 0.84715   2
   3  -6 -11 1.69118 1.19757   4
  -3   6  11 3.10601 1.50409   4
  -3   6  11 2.17788 1.17470   1
   2  -6 -11 1.50032 0.85312   2
   2  -6 -11 1.09426 0.85727   8
   2  -6 -11 0.51131 0.93433   4
  -2   6  11 0.67366 0.84529   4
  -2   6  11 1.22364 1.02046   1
  -2   6  11 1.27223 0.66845   6
   1  -6 -11 6.01927 1.65063   4
   1  -6 -11 6.19414 1.35738   2
   1  -6 -11 6.12410 1.33912   8
  -1   6  11 7.36925 1.43602   6
  -1   6  11 7.70414 1.91310   1
  -1   6  11 8.30269 1.86683   4
   0  -6 -11 10.0988 1.59016   8
   0  -6 -11 6.91874 1.35691   2
   0  -6 -11 6.38069 1.62873   4
   0   6  11 7.51603 1.70769   1
   0   6  11 9.21019 1.60775   6
   0   6  11 9.05761 1.90096   4
  -1  -6 -11 46.6899 3.69157   4
  -1  -6 -11 53.7015 3.45093   8
  -1  -6 -11 50.0641 3.42516   2
   1   6  11 41.9709 3.62719   4
   1   6  11 46.1327 3.46340   6
   1   6  11 47.6444 3.87499   1
  -2  -6 -11 0.69055 0.56743   2
  -2  -6 -11 1.52366 0.61504   8
  -2  -6 -11 1.97339 0.77862   4
   2   6  11 2.30223 0.87341   4
   2   6  11 1.34641 0.61890   6
   2   6  11 1.82498 0.87006   1
  -3  -6 -11 33.8939 2.65702   2
  -3  -6 -11 34.8707 2.46588   8
   3   6  11 24.7851 3.07094   1
   3   6  11 29.3241 2.55388   6
  -4  -6 -11 37.6284 3.11604   7
  -4  -6 -11 43.2252 2.81281   8
  -4  -6 -11 37.3821 3.02677   2
   4   6  11 41.5477 3.16750   6
   4   6  11 40.8651 3.27814   1
  -5  -6 -11 66.1541 4.67298   7
  -5  -6 -11 72.6342 4.64219   2
   5   6  11 65.3363 4.53121   1
   5   6  11 71.5887 4.56997   6
  -6  -6 -11 8.31232 1.71717   7
  -6  -6 -11 10.3423 1.82613   2
   6   6  11 8.17387 1.35164   5
   6   6  11 9.26919 1.61167   6
  -7  -6 -11 0.55095 0.69029   2
  -7  -6 -11 1.64263 1.15137   7
   7   6  11 0.23178 0.68528   6
   7   6  11 0.23460 0.58118   5
  -8  -6 -11 6.76326 1.64422   2
  -8  -6 -11 4.80933 1.42938   7
   8   6  11 3.54828 1.18911   5
   8   6  11 3.41011 1.19339   6
   2  -7 -11 36.7098 3.15646   8
   2  -7 -11 34.3195 4.12192   4
   2  -7 -11 38.4954 3.14879   2
  -2   7  11 33.6549 4.12286   4
  -2   7  11 33.3704 4.14514   1
   1  -7 -11 1.05993 0.68938   8
   1  -7 -11 1.63870 0.96925   4
   1  -7 -11 1.07689 0.67398   2
  -1   7  11 -0.0825 0.61993   4
  -1   7  11 1.45035 0.74789   6
  -1   7  11 0.83608 0.77827   1
   0  -7 -11 0.57915 0.64188   8
   0  -7 -11 -0.3700 0.34509   2
   0   7  11 -0.0828 0.77477   4
   0   7  11 -0.3640 0.45902   1
   0   7  11 0.96909 0.78531   6
  -1  -7 -11 0.78006 0.66121   8
  -1  -7 -11 1.47285 0.78157   2
  -1  -7 -11 0.54930 0.56194   4
   1   7  11 0.96090 0.66343   4
   1   7  11 1.17178 0.61411   6
   1   7  11 1.34954 0.90124   1
  -2  -7 -11 23.6077 2.51026   2
  -2  -7 -11 21.2618 2.22266   8
   2   7  11 25.0625 2.30061   6
   2   7  11 19.4656 2.71670   1
  -3  -7 -11 1.73698 0.68528   8
  -3  -7 -11 1.84074 0.78215   2
  -3  -7 -11 2.68057 1.10948   7
   3   7  11 1.04601 0.60944   1
   3   7  11 0.80468 0.70947   6
  -4  -7 -11 0.89202 0.76718   7
  -4  -7 -11 3.03241 0.96394   2
   4   7  11 4.63017 1.24581   1
   4   7  11 4.59343 1.14188   6
  -5  -7 -11 3.49624 1.17476   2
  -5  -7 -11 5.24302 1.47073   7
   5   7  11 7.77408 1.43799   1
   5   7  11 4.83875 1.15913   6
  -6  -7 -11 42.4436 3.35910   2
  -6  -7 -11 39.3228 3.52957   7
   6   7  11 38.6046 3.17478   6
  -7  -7 -11 0.80105 0.85413   7
  -7  -7 -11 0.67032 0.70682   2
   7   7  11 -0.4296 0.79886   5
   7   7  11 1.22675 1.03966   6
   2  -8 -11 26.1500 3.45232   8
   2  -8 -11 25.8099 3.43384   2
  -2   8  11 24.2490 3.47528   4
   1  -8 -11 59.1107 4.19420   8
   1  -8 -11 60.6941 4.27000   2
  -1   8  11 62.6036 4.99248   4
  -1   8  11 61.2098 4.89589   1
   0  -8 -11 4.79541 1.18559   8
   0  -8 -11 5.46047 1.23857   2
   0   8  11 4.16874 1.45943   4
   0   8  11 7.28336 1.42447   6
   0   8  11 5.22259 1.50604   1
  -1  -8 -11 22.9834 2.48592   8
  -1  -8 -11 25.5614 2.72801   2
   1   8  11 24.0722 2.65168   6
   1   8  11 18.9010 2.74834   4
   1   8  11 24.6267 3.21098   1
  -2  -8 -11 37.0976 2.89107   8
  -2  -8 -11 48.2911 3.34808   2
   2   8  11 37.0609 3.45592   1
   2   8  11 39.9261 3.10406   6
  -3  -8 -11 19.4356 2.36900   2
  -3  -8 -11 20.5228 2.43956   7
   3   8  11 22.4823 2.49276   6
   3   8  11 14.7288 2.30799   1
  -4  -8 -11 -0.7481 0.70092   7
  -4  -8 -11 -0.2796 0.66747   2
   4   8  11 1.71090 0.75064   1
   4   8  11 0.79868 0.72773   6
  -5  -8 -11 4.88800 1.41692   7
  -5  -8 -11 6.10413 1.37180   2
   5   8  11 5.52565 1.34180   6
   5   8  11 5.98250 1.31485   1
  -6  -8 -11 11.1620 1.96337   2
  -6  -8 -11 9.07162 1.84124   7
   6   8  11 9.39857 1.80478   6
  -7  -8 -11 2.91935 1.20848   2
  -7  -8 -11 0.91200 1.21787   7
   1  -9 -11 20.9985 2.57095   8
  -1   9  11 14.8802 2.76082   4
   0  -9 -11 42.9264 3.35554   2
   0  -9 -11 42.9489 3.27308   8
   0   9  11 35.4991 3.66594   1
   0   9  11 38.6091 3.63559   4
  -1  -9 -11 4.45628 1.12124   8
  -1  -9 -11 3.35413 1.05376   2
   1   9  11 5.11761 1.17842   6
   1   9  11 4.16447 1.39455   4
   1   9  11 6.04267 1.57279   1
  -2  -9 -11 31.3032 2.77296   2
   2   9  11 28.1520 2.51076   6
   2   9  11 25.5794 3.26249   1
  -3  -9 -11 8.86468 1.68498   2
  -3  -9 -11 7.74225 1.70316   7
   3   9  11 7.38277 1.44418   6
   3   9  11 8.00529 1.69300   1
  -4  -9 -11 15.5633 2.35620   7
  -4  -9 -11 17.1140 2.37035   2
   4   9  11 16.9532 2.25080   6
   4   9  11 17.5596 2.53771   1
  -5  -9 -11 20.8023 2.66811   2
  -5  -9 -11 19.0928 2.83472   7
   5   9  11 30.7119 2.79748   1
   5   9  11 25.7755 2.86959   6
  -6  -9 -11 1.44772 0.86310   2
  -6  -9 -11 1.01004 1.04249   7
  -1 -10 -11 3.06275 1.24468   2
   1  10  11 5.43216 1.69037   1
  -2 -10 -11 25.1459 2.98879   2
   2  10  11 33.5480 2.71708   6
   2  10  11 28.1548 3.49221   1
  -3 -10 -11 14.4387 2.20529   2
  -3 -10 -11 14.4330 2.28780   7
   3  10  11 13.5098 2.33897   1
   3  10  11 12.6538 1.89569   6
  -4 -10 -11 7.28962 1.65221   2
  -4 -10 -11 6.49378 1.69410   7
   4  10  11 9.34793 1.61079   6
   4  10  11 7.42109 1.55714   1
   0   6 -12 2.60878 1.31202   1
   0   6 -12 3.60573 1.33815   8
   0  -6  12 3.23090 1.19194   6
  -1   6 -12 23.5107 2.58570   8
  -1   6 -12 20.2498 3.16968   4
   1  -6  12 19.3891 2.75780   5
   1  -6  12 22.4663 2.83307   6
  -2   6 -12 4.21511 1.18302   8
  -2   6 -12 3.80878 1.77399   4
   2  -6  12 3.45419 1.45779   5
  -3   6 -12 -3.1347 0.99763   4
  -3   6 -12 -0.4772 0.89114   8
   3  -6  12 0.96428 0.75419   5
  -4   6 -12 0.02554 0.66806   8
  -4   6 -12 -2.1394 1.21939   4
   4  -6  12 -0.2852 1.04607   5
   1   5 -12 -0.1951 0.83443   1
   1   5 -12 -0.7184 0.89564   8
  -1  -5  12 1.23457 1.07264   5
  -1  -5  12 0.29807 0.71606   6
   0   5 -12 2.89395 1.51747   4
   0   5 -12 5.62522 1.30849   8
   0   5 -12 6.50824 1.73457   1
   0  -5  12 4.53627 1.46782   5
   0  -5  12 6.46874 1.53337   6
  -1   5 -12 13.4668 2.36487   4
  -1   5 -12 9.40423 1.77545   8
   1  -5  12 13.7413 2.15897   6
   1  -5  12 15.8397 2.33618   5
  -2   5 -12 0.32524 0.94692   8
  -2   5 -12 0.19466 0.91537   4
   2  -5  12 -0.3119 0.61093   5
   2  -5  12 0.11847 0.58827   6
  -3   5 -12 1.67288 1.07672   8
  -3   5 -12 0.93452 1.15055   4
   3  -5  12 0.79770 0.88435   5
  -4   5 -12 -0.5803 0.53252   8
  -4   5 -12 -1.3212 1.13226   4
   4  -5  12 1.17485 0.90703   5
  -5   5 -12 15.5530 2.17683   8
   5  -5  12 16.5515 2.54645   5
  -6   5 -12 8.63319 2.11345   8
   6  -5  12 7.06595 1.64396   3
   6  -5  12 10.2236 2.01980   5
   2   4 -12 41.9277 5.01810   1
  -2  -4  12 27.3269 4.32620   1
   1   4 -12 39.4094 3.20080   8
   1   4 -12 42.5576 3.85571   4
   1   4 -12 39.4507 3.61548   1
  -1  -4  12 42.9842 3.82876   1
  -1  -4  12 39.1595 3.47025   6
  -1  -4  12 38.4726 3.32858   5
   0   4 -12 4.84736 1.37359   8
   0   4 -12 7.59669 1.90844   4
   0   4 -12 8.90853 1.79724   1
   0  -4  12 12.1205 2.13791   1
   0  -4  12 8.93628 1.89030   6
   0  -4  12 8.36445 1.77847   5
  -1   4 -12 16.5185 2.50455   4
  -1   4 -12 17.2033 2.23140   8
  -1   4 -12 17.2461 2.45658   1
   1  -4  12 19.3642 2.72867   1
   1  -4  12 15.4389 2.31192   5
   1  -4  12 15.4691 2.31591   6
  -2   4 -12 10.1375 1.72348   8
  -2   4 -12 8.42794 1.73379   4
   2  -4  12 9.26062 1.74842   5
   2  -4  12 11.6768 1.92128   6
  -3   4 -12 -0.2112 0.76295   8
  -3   4 -12 0.26914 1.01811   4
   3  -4  12 1.15160 0.77901   6
   3  -4  12 2.23635 0.96441   5
  -4   4 -12 2.16216 0.85755   8
  -4   4 -12 0.50205 1.13476   4
   4  -4  12 1.87090 0.97199   5
  -5   4 -12 3.59680 1.24681   8
   5  -4  12 4.83681 1.31869   5
  -6   4 -12 19.4715 2.49144   8
  -6   4 -12 24.2699 2.93541   2
   6  -4  12 18.1343 2.39589   3
   6  -4  12 21.5086 2.76436   5
  -7   4 -12 107.186 6.63293   2
   7  -4  12 96.9072 6.20931   3
   2   3 -12 2.22607 1.09235   8
   2   3 -12 2.31661 1.09881   1
   2   3 -12 2.63113 1.23505   4
  -2  -3  12 2.65075 1.25566   6
  -2  -3  12 2.72888 0.99535   5
  -2  -3  12 2.99128 1.28284   1
   1   3 -12 9.63384 1.64167   8
   1   3 -12 9.59244 2.10158   4
   1   3 -12 10.1756 2.12215   1
  -1  -3  12 11.0816 2.04744   6
  -1  -3  12 7.05757 1.55588   5
  -1  -3  12 10.7819 2.20742   1
   0   3 -12 14.0656 1.92286   8
   0   3 -12 13.4361 2.22828   1
   0   3 -12 15.6701 2.43175   4
   0  -3  12 13.9641 2.18602   5
   0  -3  12 16.0071 2.38776   6
   0  -3  12 20.4433 2.76388   1
  -1   3 -12 -0.4128 0.79009   4
  -1   3 -12 -0.3811 0.45312   1
  -1   3 -12 -0.2500 0.45096   8
   1  -3  12 0.57303 0.73102   1
   1  -3  12 0.61533 0.73909   5
   1  -3  12 0.46166 0.48842   6
  -2   3 -12 1.36083 0.92909   4
  -2   3 -12 0.08061 0.51375   8
   2  -3  12 0.97959 0.66190   6
   2  -3  12 0.27014 0.73008   5
  -3   3 -12 4.87799 1.29299   4
  -3   3 -12 4.34296 1.19155   8
   3  -3  12 6.45116 1.51454   5
   3  -3  12 4.96722 1.27710   6
  -4   3 -12 11.5539 1.97497   4
  -4   3 -12 12.1007 1.80441   8
   4  -3  12 10.2448 1.86051   5
   4  -3  12 10.8884 1.82184   6
  -5   3 -12 10.1360 1.79623   2
  -5   3 -12 8.09020 1.59533   8
   5  -3  12 9.19068 1.63875   5
  -6   3 -12 23.5436 2.72352   8
  -6   3 -12 24.7430 2.90234   2
   6  -3  12 23.8158 2.79320   5
  -7   3 -12 -1.1093 0.91856   2
  -7   3 -12 -0.5732 0.80009   8
   7  -3  12 -0.3424 0.83416   5
   7  -3  12 0.02345 0.56732   3
   2   2 -12 5.29673 1.67239   1
   2   2 -12 5.39597 1.23869   8
   2   2 -12 5.30513 1.66247   4
  -2  -2  12 0.91894 0.90181   5
  -2  -2  12 7.03263 1.96823   1
  -2  -2  12 7.11159 1.65450   6
   1   2 -12 7.54443 1.49855   8
   1   2 -12 7.91293 1.95799   4
   1   2 -12 8.12880 1.81294   1
  -1  -2  12 8.05286 1.75774   6
  -1  -2  12 8.89876 1.60245   5
  -1  -2  12 8.34825 1.91679   1
   0   2 -12 8.19930 1.85822   4
   0   2 -12 7.80685 1.67066   1
   0   2 -12 6.85446 1.36496   8
   0  -2  12 8.60255 1.72954   6
   0  -2  12 5.04162 1.45933   1
   0  -2  12 10.5706 1.72322   5
  -1   2 -12 51.5750 3.56565   8
  -1   2 -12 49.0477 3.90359   4
  -1   2 -12 48.2369 3.83571   1
   1  -2  12 48.9590 3.79251   6
   1  -2  12 51.3915 3.69269   5
   1  -2  12 55.6283 4.07257   1
  -2   2 -12 8.80158 1.47865   8
  -2   2 -12 9.88456 1.77870   4
   2  -2  12 9.27888 1.73491   6
   2  -2  12 9.06499 1.64386   5
   2  -2  12 10.6691 1.83353   1
  -3   2 -12 12.9241 1.98229   4
  -3   2 -12 13.2284 1.83145   8
   3  -2  12 8.00508 1.61557   5
   3  -2  12 12.8463 1.94652   6
  -4   2 -12 -0.6809 0.40801   8
  -4   2 -12 -0.5433 0.54247   2
   4  -2  12 0.27055 0.42447   6
   4  -2  12 -0.6951 0.56123   5
  -5   2 -12 25.7483 2.67559   8
  -5   2 -12 22.3990 2.64698   2
   5  -2  12 24.2628 2.72899   5
   5  -2  12 24.9588 2.36778   6
  -6   2 -12 6.21976 1.53269   2
  -6   2 -12 8.03474 1.46456   8
   6  -2  12 10.8435 1.86418   5
  -7   2 -12 106.128 6.38322   2
  -7   2 -12 93.2000 5.76083   8
   7  -2  12 92.5763 5.98337   5
  -8   2 -12 64.2018 4.98130   2
   8  -2  12 64.9662 4.58296   3
   3   1 -12 16.8164 2.29586   8
   2   1 -12 0.09338 0.55127   8
   2   1 -12 2.54560 1.05178   1
   2   1 -12 1.57771 1.27524   4
  -2  -1  12 0.25849 0.88962   6
  -2  -1  12 2.71747 1.25505   1
  -2  -1  12 0.24481 0.79780   5
   1   1 -12 13.3133 2.25579   1
   1   1 -12 10.7821 1.70751   8
   1   1 -12 16.2182 2.58842   4
  -1  -1  12 14.2600 2.21717   6
  -1  -1  12 13.1335 2.32803   1
  -1  -1  12 10.4543 1.76446   5
   0   1 -12 4.76153 1.40726   4
   0   1 -12 5.54917 1.41450   1
   0   1 -12 4.75658 1.19405   8
   0  -1  12 5.25458 1.25818   5
   0  -1  12 8.17749 1.90146   1
   0  -1  12 9.10934 1.73875   6
  -1   1 -12 10.2128 1.67127   8
  -1   1 -12 16.1969 2.35639   4
   1  -1  12 15.2086 2.01880   5
   1  -1  12 11.7372 1.95956   6
   1  -1  12 15.4726 2.32815   1
  -2   1 -12 0.26098 0.72078   4
  -2   1 -12 0.05405 0.40819   8
   2  -1  12 1.21763 0.78387   6
   2  -1  12 -0.6485 0.51495   5
   2  -1  12 0.45068 0.73822   1
  -3   1 -12 0.12243 0.62925   2
  -3   1 -12 -0.9664 0.50173   8
  -3   1 -12 0.38290 0.65867   4
   3  -1  12 0.42705 0.53679   6
   3  -1  12 0.28150 0.52129   5
  -4   1 -12 -1.3287 0.54894   8
  -4   1 -12 0.17665 0.50491   2
   4  -1  12 0.97456 0.66697   6
   4  -1  12 0.07638 0.51461   5
  -5   1 -12 1.60734 0.88430   2
  -5   1 -12 -0.3482 0.73701   8
   5  -1  12 1.69736 0.78286   6
   5  -1  12 0.00970 0.45403   5
  -6   1 -12 55.0060 3.87252   8
  -6   1 -12 59.0119 4.22264   2
   6  -1  12 56.0394 3.96315   5
   6  -1  12 59.0369 4.11971   6
  -7   1 -12 0.94884 0.83476   2
  -7   1 -12 1.03729 0.71785   8
   7  -1  12 0.25377 0.66714   5
  -8   1 -12 2.09167 1.26093   2
  -8   1 -12 2.54532 1.08908   8
   8  -1  12 2.42869 1.19486   5
   3   0 -12 0.86246 0.72087   8
   3   0 -12 1.02447 1.43498   4
   3   0 -12 1.23799 1.35722   1
  -3   0  12 1.90080 1.02724   6
  -3   0  12 1.68990 1.55452   1
   2   0 -12 52.6733 3.71573   8
   2   0 -12 51.9365 4.48964   4
   2   0 -12 44.8835 4.05299   1
  -2   0  12 45.3725 4.23152   1
  -2   0  12 56.1508 4.12260   6
   1   0 -12 6.88844 1.36301   8
   1   0 -12 4.04678 1.44782   4
  -1   0  12 5.55715 1.26472   5
  -1   0  12 6.18045 1.44525   6
  -1   0  12 6.73218 1.80206   1
   0   0 -12 0.43914 0.68162   8
   0   0 -12 -0.0251 0.71126   4
   0   0  12 0.87327 0.82805   1
   0   0  12 0.05513 0.51402   6
   0   0  12 0.10198 0.44202   5
  -1   0 -12 0.59420 0.63705   4
  -1   0 -12 0.01019 0.53381   8
   1   0  12 -0.0848 0.55033   5
   1   0  12 -0.0115 0.43093   6
   1   0  12 0.38456 0.81855   1
  -2   0 -12 1.00481 0.75995   9
  -2   0 -12 0.44835 0.50350   8
  -2   0 -12 0.26330 0.41510   2
  -2   0 -12 0.55885 0.59646   4
   2   0  12 1.56483 1.09813   9
   2   0  12 0.02024 0.56747   5
   2   0  12 0.55330 0.72618   6
   2   0  12 -0.2582 0.66521   1
  -3   0 -12 10.7715 1.63126   2
  -3   0 -12 11.1590 1.60595   8
  -3   0 -12 8.45003 1.52310   4
   3   0  12 6.34554 1.44853   6
   3   0  12 5.70799 1.19911   5
  -4   0 -12 31.2029 2.65939   2
  -4   0 -12 33.7684 2.61623   8
   4   0  12 30.1338 2.73932   6
   4   0  12 30.0239 2.55124   5
  -5   0 -12 5.11256 1.10418   8
  -5   0 -12 4.63228 1.14383   2
   5   0  12 5.99634 1.27980   6
   5   0  12 5.43953 1.19362   5
  -6   0 -12 5.45155 1.42914   2
  -6   0 -12 6.57328 1.40378   8
   6   0  12 7.23683 1.45307   6
   6   0  12 6.86368 1.48184   5
  -7   0 -12 -0.2357 0.51117   8
  -7   0 -12 0.36145 0.63905   2
   7   0  12 2.14255 0.85537   6
   7   0  12 -0.1860 0.71824   5
  -8   0 -12 0.12620 0.80937   8
  -8   0 -12 -0.6002 0.94886   2
   8   0  12 -0.7166 0.77873   5
   3  -1 -12 20.1858 3.23685   4
   3  -1 -12 24.6558 2.85428   8
  -3   1  12 32.5494 3.53752   6
  -3   1  12 27.2470 3.69273   1
   2  -1 -12 8.41548 2.00752   4
   2  -1 -12 11.6748 1.80968   8
  -2   1  12 11.8477 2.36427   1
  -2   1  12 14.1496 2.25286   6
   1  -1 -12 2.03438 0.80136   8
   1  -1 -12 1.69775 1.10206   4
  -1   1  12 3.16482 1.14569   1
  -1   1  12 5.54918 1.45596   6
   0  -1 -12 7.10890 1.34193   8
   0  -1 -12 4.99445 1.39760   4
   0   1  12 8.92918 1.44849   5
   0   1  12 9.01711 1.74330   6
   0   1  12 7.63360 1.69363   1
  -1  -1 -12 0.24595 0.46093   8
  -1  -1 -12 -0.3749 0.53329   2
  -1  -1 -12 0.41542 0.82662   4
   1   1  12 1.35804 0.82198   6
   1   1  12 0.63508 0.53964   5
   1   1  12 0.81728 0.81886   1
  -2  -1 -12 35.9162 2.69472   2
  -2  -1 -12 33.4748 2.61288   8
  -2  -1 -12 35.9255 2.97027   4
  -2  -1 -12 28.2511 3.23571   9
   2   1  12 39.9960 3.68670   9
   2   1  12 32.7125 2.99078   1
   2   1  12 36.3182 3.03624   6
   2   1  12 33.8961 2.59994   5
  -3  -1 -12 1.15421 0.67905   4
  -3  -1 -12 -0.5778 0.43898   2
  -3  -1 -12 0.75281 0.50302   8
   3   1  12 0.35315 0.50031   6
   3   1  12 0.01107 0.38586   5
   3   1  12 0.80221 0.76076   1
  -4  -1 -12 25.3245 2.09511   8
  -4  -1 -12 20.3169 2.35590   2
   4   1  12 20.6931 2.31137   5
   4   1  12 22.5370 2.62166   6
  -5  -1 -12 0.15257 0.54396   2
  -5  -1 -12 -0.5943 0.56230   8
   5   1  12 0.46784 0.44161   6
   5   1  12 -0.1065 0.59157   5
  -6  -1 -12 7.68949 1.33143   8
  -6  -1 -12 7.02768 1.53839   2
   6   1  12 8.59389 1.48057   6
   6   1  12 6.19159 1.29146   5
  -7  -1 -12 17.2579 2.08181   8
  -7  -1 -12 17.0464 2.45985   2
   7   1  12 16.6523 2.26239   5
   7   1  12 14.6910 2.06849   6
  -8  -1 -12 -0.9008 0.64743   8
  -8  -1 -12 -0.0418 0.62751   2
   8   1  12 2.79676 0.98485   6
   8   1  12 0.15123 0.63471   5
   3  -2 -12 8.42825 2.07652   4
   3  -2 -12 12.5190 2.09832   8
  -3   2  12 6.50093 1.91677   1
  -3   2  12 12.0246 2.49118   4
  -3   2  12 14.6644 2.31848   6
   2  -2 -12 2.22086 1.13425   4
   2  -2 -12 1.94688 0.91032   8
  -2   2  12 4.51035 1.58327   1
  -2   2  12 3.70558 1.22828   6
  -2   2  12 -0.1224 0.76947   4
   1  -2 -12 33.5565 3.38997   4
   1  -2 -12 37.0936 3.02669   8
  -1   2  12 40.0524 3.67936   1
  -1   2  12 41.0647 3.32298   6
   0  -2 -12 8.21159 1.43431   8
   0  -2 -12 9.80629 1.45887   2
   0  -2 -12 7.63539 1.68750   4
   0   2  12 8.91617 1.96201   1
   0   2  12 7.92378 1.56267   6
  -1  -2 -12 0.52395 0.52758   8
  -1  -2 -12 0.11803 0.53308   2
  -1  -2 -12 0.78348 0.66609   4
   1   2  12 0.44572 0.56023   6
   1   2  12 1.58325 0.83303   1
   1   2  12 1.13503 0.51745   5
  -2  -2 -12 3.25285 1.11558   4
  -2  -2 -12 5.86829 1.18880   2
  -2  -2 -12 4.56119 1.07633   8
   2   2  12 5.44450 1.27077   6
   2   2  12 4.05230 1.00909   5
   2   2  12 5.06650 1.33752   1
  -3  -2 -12 1.97909 0.81690   8
  -3  -2 -12 2.56864 0.85451   2
   3   2  12 3.52384 1.51542   9
   3   2  12 2.67652 0.78149   5
   3   2  12 2.80463 0.94549   6
   3   2  12 4.83802 1.17125   1
  -4  -2 -12 11.1640 1.60569   8
  -4  -2 -12 9.48351 1.61675   2
   4   2  12 12.4231 1.95375   6
   4   2  12 10.2805 1.54644   5
  -5  -2 -12 14.3969 2.00909   2
  -5  -2 -12 13.4493 1.71487   8
   5   2  12 17.3009 2.15851   6
   5   2  12 11.9232 1.71244   5
  -6  -2 -12 0.58666 0.61706   2
  -6  -2 -12 -0.6592 0.55083   8
   6   2  12 0.62232 0.55564   5
   6   2  12 1.25989 0.59894   6
  -7  -2 -12 18.2248 2.07356   8
  -7  -2 -12 19.2883 2.63757   2
   7   2  12 19.9050 2.46941   6
   7   2  12 16.6024 2.14444   5
  -8  -2 -12 5.79402 1.68654   2
   8   2  12 7.53891 1.61506   5
   8   2  12 8.19287 1.51400   6
   3  -3 -12 -0.0385 0.59994   8
  -3   3  12 0.25121 0.53756   6
   2  -3 -12 14.9147 2.58994   4
   2  -3 -12 9.90050 1.80202   8
  -2   3  12 8.04336 1.71139   6
  -2   3  12 10.7648 2.32985   4
  -2   3  12 9.78368 2.27423   1
   1  -3 -12 3.92837 1.05192   8
   1  -3 -12 3.78396 1.27267   4
   1  -3 -12 4.10792 1.09484   2
  -1   3  12 5.16885 1.26166   6
  -1   3  12 5.87808 1.83407   1
  -1   3  12 3.35745 1.36881   4
   0  -3 -12 5.72638 1.20597   2
   0  -3 -12 3.88820 1.40170   4
   0  -3 -12 4.90073 1.21444   8
   0   3  12 6.82656 1.75203   4
   0   3  12 4.29220 1.24428   6
   0   3  12 7.79836 1.76793   1
  -1  -3 -12 5.09127 1.22068   8
  -1  -3 -12 6.89206 1.29158   2
  -1  -3 -12 6.06555 1.53789   4
   1   3  12 6.51334 1.65249   1
   1   3  12 6.37930 1.44409   6
   1   3  12 6.03077 1.64634   4
  -2  -3 -12 0.21097 0.66121   4
  -2  -3 -12 0.61621 0.49631   8
  -2  -3 -12 1.19777 0.72021   2
   2   3  12 1.47328 0.71337   1
   2   3  12 1.61010 0.77014   5
   2   3  12 1.77251 0.80774   6
  -3  -3 -12 0.73299 0.69896   2
  -3  -3 -12 1.78174 0.71430   8
   3   3  12 3.34322 1.22000   9
   3   3  12 1.05640 0.69505   1
   3   3  12 1.50937 0.64180   5
   3   3  12 1.02217 0.74708   6
  -4  -3 -12 1.95462 0.70842   2
  -4  -3 -12 2.71210 0.77864   8
   4   3  12 2.86352 0.93356   6
   4   3  12 2.79514 0.81056   5
  -5  -3 -12 5.63129 1.16081   8
  -5  -3 -12 3.52737 1.02989   2
   5   3  12 3.86854 1.01219   5
   5   3  12 3.39829 0.95533   6
  -6  -3 -12 0.86897 0.70148   2
  -6  -3 -12 1.98550 0.88606   8
   6   3  12 1.65881 0.74127   5
   6   3  12 1.38658 0.69407   6
  -7  -3 -12 28.2271 3.17716   2
   7   3  12 33.3513 2.82747   6
   7   3  12 28.9833 2.53918   5
  -8  -3 -12 2.49061 1.37099   7
  -8  -3 -12 3.98708 1.22858   2
   8   3  12 6.19221 1.41325   6
   8   3  12 1.75840 1.05608   5
   2  -4 -12 0.21831 0.58463   2
   2  -4 -12 -0.1300 0.65036   4
   2  -4 -12 -1.0375 0.65883   8
  -2   4  12 0.55132 0.94934   4
  -2   4  12 0.47073 1.15381   1
  -2   4  12 0.16318 0.63532   6
   1  -4 -12 16.9122 2.13444   2
   1  -4 -12 18.6556 2.37082   8
   1  -4 -12 23.3338 3.12105   4
  -1   4  12 17.0809 2.90846   1
  -1   4  12 17.3022 2.81800   4
  -1   4  12 20.3669 2.53817   6
   0  -4 -12 26.1954 2.38152   2
   0  -4 -12 25.3844 3.32737   4
   0  -4 -12 35.5523 2.72848   8
   0   4  12 31.9808 2.84193   6
   0   4  12 30.0321 3.64496   4
   0   4  12 36.2312 3.35621   1
  -1  -4 -12 10.4335 1.61346   2
  -1  -4 -12 10.9309 1.60131   8
  -1  -4 -12 12.7327 2.07780   4
   1   4  12 8.31665 1.86934   4
   1   4  12 10.9459 2.06161   1
   1   4  12 12.8174 1.99343   6
  -2  -4 -12 3.05068 1.09113   4
  -2  -4 -12 4.50380 1.08104   2
  -2  -4 -12 4.54242 1.08217   8
   2   4  12 3.41541 1.07392   6
   2   4  12 3.16334 1.16689   1
   2   4  12 4.20461 1.27260   4
  -3  -4 -12 20.2359 2.12599   8
  -3  -4 -12 15.6716 2.06379   2
   3   4  12 19.1783 2.58723   1
   3   4  12 19.3971 2.42234   6
  -4  -4 -12 -0.0228 0.58852   2
  -4  -4 -12 0.84824 0.53732   8
   4   4  12 0.99587 0.62557   5
   4   4  12 0.88074 0.72227   1
   4   4  12 0.42750 0.44051   6
  -5  -4 -12 12.0245 1.90375   2
  -5  -4 -12 10.5580 1.55727   8
   5   4  12 9.98630 1.52126   5
   5   4  12 14.3297 2.01446   6
  -6  -4 -12 7.39607 1.54457   2
   6   4  12 7.67660 1.35410   5
   6   4  12 9.02216 1.54991   6
  -7  -4 -12 18.6356 2.44263   2
  -7  -4 -12 16.9142 3.61490   7
   7   4  12 14.5231 1.91631   5
   7   4  12 11.5919 1.92783   6
  -8  -4 -12 0.28622 0.85429   2
  -8  -4 -12 0.82858 1.15446   7
   8   4  12 1.00650 0.97273   5
   8   4  12 1.57141 0.77265   6
   2  -5 -12 0.26657 1.07586   4
   2  -5 -12 0.21130 0.71955   8
   2  -5 -12 0.71382 0.77296   2
  -2   5  12 0.70170 1.28974   4
  -2   5  12 2.69782 1.01552   6
  -2   5  12 -0.1363 0.67667   1
   1  -5 -12 9.93277 1.73600   8
   1  -5 -12 9.32304 2.09661   4
   1  -5 -12 6.85216 1.37721   2
  -1   5  12 6.32170 1.99367   4
  -1   5  12 11.0753 1.84965   6
  -1   5  12 9.75857 2.08583   1
   0  -5 -12 3.18827 1.23836   4
   0  -5 -12 2.26007 0.89844   8
   0  -5 -12 3.49308 0.95114   2
   0   5  12 3.61484 1.17976   1
   0   5  12 5.79622 1.34864   6
   0   5  12 3.57762 1.40557   4
  -1  -5 -12 24.0316 2.31326   2
  -1  -5 -12 31.4062 2.50937   8
  -1  -5 -12 29.9035 2.85626   4
   1   5  12 32.5162 2.77488   6
   1   5  12 31.5585 3.06731   4
   1   5  12 23.5189 3.10746   1
  -2  -5 -12 6.27947 1.24007   2
  -2  -5 -12 4.65627 1.26807   4
  -2  -5 -12 4.78978 1.07458   8
   2   5  12 4.01230 1.26892   1
   2   5  12 4.86779 1.18824   6
   2   5  12 6.72951 1.59418   4
  -3  -5 -12 2.17370 0.93033   2
  -3  -5 -12 1.71733 0.78803   8
   3   5  12 3.98063 1.11731   6
   3   5  12 3.01613 1.05125   1
  -4  -5 -12 7.14816 1.48685   2
  -4  -5 -12 7.75607 1.29595   8
   4   5  12 5.64009 1.38147   1
   4   5  12 8.64030 1.53927   6
  -5  -5 -12 1.26191 0.66660   8
  -5  -5 -12 -0.0418 0.67397   2
   5   5  12 1.79315 0.79020   6
   5   5  12 0.95304 0.63790   5
  -6  -5 -12 0.61864 0.81992   2
   6   5  12 0.27744 0.63202   5
   6   5  12 0.30333 0.49567   6
  -7  -5 -12 25.8643 3.32750   7
  -7  -5 -12 27.5275 3.17495   2
   7   5  12 28.9480 2.68692   6
   7   5  12 26.8140 2.45653   5
   2  -6 -12 49.6870 3.75149   2
   2  -6 -12 44.6004 4.34044   4
  -2   6  12 42.9557 4.32988   4
  -2   6  12 55.3565 3.88507   6
   1  -6 -12 0.15744 0.73807   8
   1  -6 -12 0.37945 0.92595   4
   1  -6 -12 0.90076 0.80390   2
  -1   6  12 2.45130 1.22460   1
  -1   6  12 1.17110 1.25943   4
  -1   6  12 1.58172 0.75525   6
   0  -6 -12 1.44741 0.69600   2
   0  -6 -12 0.06748 0.47799   8
   0  -6 -12 0.26054 0.87922   4
   0   6  12 0.86876 1.01593   4
   0   6  12 1.48420 0.68949   6
   0   6  12 3.67060 1.42271   1
  -1  -6 -12 3.09031 1.20963   4
  -1  -6 -12 4.35714 1.05165   8
  -1  -6 -12 4.68174 1.19802   2
   1   6  12 3.24446 1.28937   4
   1   6  12 4.54334 1.15579   6
   1   6  12 4.25573 1.31353   1
  -2  -6 -12 27.9975 2.34770   8
  -2  -6 -12 25.2905 2.34550   2
   2   6  12 25.9678 3.24362   1
   2   6  12 23.5634 2.72069   6
  -3  -6 -12 0.74363 0.75991   2
  -3  -6 -12 0.09912 0.59775   8
   3   6  12 0.02329 0.55123   1
   3   6  12 0.89117 0.69692   6
  -4  -6 -12 76.8166 4.97395   2
  -4  -6 -12 81.2504 4.59373   8
   4   6  12 74.5318 5.14911   1
   4   6  12 72.6961 4.87875   6
  -5  -6 -12 103.776 6.05860   2
   5   6  12 89.2394 5.76397   6
  -6  -6 -12 0.86851 1.11781   7
  -6  -6 -12 0.89442 1.00864   2
   6   6  12 1.77310 0.80070   6
  -7  -6 -12 19.8378 2.66497   2
  -7  -6 -12 17.4763 2.71615   7
   7   6  12 21.0505 2.33274   5
   7   6  12 23.7313 2.73280   6
   1  -7 -12 16.5816 2.79546   4
   1  -7 -12 21.5222 2.62042   8
   1  -7 -12 26.9460 2.84534   2
  -1   7  12 22.5099 3.22594   1
  -1   7  12 15.8341 2.76908   4
  -1   7  12 20.5529 2.53555   6
   0  -7 -12 5.83087 1.60565   4
   0  -7 -12 7.18514 1.43352   8
   0  -7 -12 7.83413 1.57771   2
   0   7  12 7.91919 1.80020   4
   0   7  12 11.6112 1.82132   6
   0   7  12 10.0131 2.09125   1
  -1  -7 -12 3.26198 0.96046   8
  -1  -7 -12 3.10680 0.96006   2
  -1  -7 -12 5.35892 1.48634   4
   1   7  12 6.52548 1.63642   4
   1   7  12 4.35109 1.27266   1
   1   7  12 2.81908 0.90117   6
  -2  -7 -12 3.74360 1.01212   8
  -2  -7 -12 6.75109 1.46076   2
   2   7  12 5.85066 1.30617   6
   2   7  12 4.96126 1.39384   1
  -3  -7 -12 21.7600 2.26161   8
  -3  -7 -12 19.7245 2.40752   2
   3   7  12 22.5320 2.61632   6
   3   7  12 15.8153 2.53760   1
  -4  -7 -12 12.5448 1.96074   2
   4   7  12 13.8846 2.03059   6
   4   7  12 13.3663 2.16858   1
  -5  -7 -12 9.63566 1.73400   2
   5   7  12 10.9687 1.75015   6
  -6  -7 -12 24.4509 2.88468   2
  -6  -7 -12 20.9032 2.82278   7
   6   7  12 28.2475 2.63565   6
   0  -8 -12 5.81688 1.45965   2
   0  -8 -12 2.12985 1.18154   4
   0  -8 -12 4.64228 1.34665   8
   0   8  12 3.74266 0.97643   6
   0   8  12 5.88713 1.78079   1
   0   8  12 3.93096 1.60341   4
  -1  -8 -12 79.2311 5.07308   8
  -1  -8 -12 77.8740 5.57093   4
  -1  -8 -12 84.2933 5.32683   2
   1   8  12 89.7390 5.39173   6
   1   8  12 75.7452 5.59489   4
   1   8  12 83.6487 5.89962   1
  -2  -8 -12 0.10831 0.54789   8
  -2  -8 -12 -0.7794 0.41599   2
   2   8  12 0.75268 0.70667   1
   2   8  12 0.52020 0.60543   6
  -3  -8 -12 4.64199 1.31892   2
   3   8  12 5.52995 1.44897   1
   3   8  12 4.99316 1.19070   6
  -4  -8 -12 3.09702 1.18974   2
   4   8  12 3.79019 1.09324   6
   4   8  12 5.40064 1.27747   1
  -5  -8 -12 13.3275 2.29085   7
  -5  -8 -12 14.1354 2.12024   2
   5   8  12 15.5312 2.21902   6
   5   8  12 10.1094 1.94031   1
  -6  -8 -12 21.7592 2.99785   7
  -1  -9 -12 0.01042 0.53138   8
   1   9  12 1.28042 0.68253   6
  -2  -9 -12 9.40373 1.81550   2
   2   9  12 8.67651 1.88073   1
   2   9  12 11.3855 1.81476   6
  -3  -9 -12 0.24260 0.59518   2
   3   9  12 1.44523 0.58939   6
   3   9  12 2.46488 1.02154   1
  -4  -9 -12 0.86702 0.73612   2
   4   9  12 2.58506 0.86870   6
   4   9  12 2.70865 0.95476   1
  -2   5 -13 -1.2174 0.71454   4
  -2   5 -13 -1.5856 0.83403   8
   2  -5  13 0.60051 0.97122   6
  -3   5 -13 15.3948 2.73559   4
  -3   5 -13 17.7579 2.43455   8
   3  -5  13 13.3893 2.78353   5
   0   4 -13 6.72237 1.72947   1
   0   4 -13 1.51657 1.17061   4
   0   4 -13 4.98194 1.38804   8
   0  -4  13 6.17920 1.72894   6
   0  -4  13 4.68367 1.43156   5
   0  -4  13 8.02033 2.05369   1
  -1   4 -13 14.9918 2.49696   4
  -1   4 -13 15.4717 2.22894   8
   1  -4  13 13.9056 2.29904   6
   1  -4  13 15.9818 2.41356   5
  -2   4 -13 2.43060 1.09146   8
  -2   4 -13 0.87627 0.89551   4
   2  -4  13 2.46646 1.21870   5
   2  -4  13 3.31995 1.21833   6
  -3   4 -13 -1.2324 0.81952   8
  -3   4 -13 2.10977 1.33573   4
   3  -4  13 1.16045 0.91755   6
   3  -4  13 0.32247 0.92632   5
  -4   4 -13 -0.2490 0.88677   8
   4  -4  13 0.68968 0.92527   5
  -5   4 -13 13.5682 2.11681   8
   5  -4  13 14.4682 2.33304   5
   1   3 -13 1.46287 0.84818   1
  -1  -3  13 3.24330 1.35624   1
   0   3 -13 12.7442 2.46902   4
   0   3 -13 18.8189 2.83414   1
   0   3 -13 13.8823 2.04985   8
   0  -3  13 17.2298 2.49102   5
   0  -3  13 22.6130 3.15002   1
   0  -3  13 18.8431 2.66825   6
  -1   3 -13 8.33176 1.83020   4
  -1   3 -13 6.38911 1.49028   8
  -1   3 -13 7.36991 1.79537   1
   1  -3  13 6.44090 1.56061   6
   1  -3  13 8.05689 2.00761   1
   1  -3  13 3.32886 1.31019   5
  -2   3 -13 2.94604 1.15416   4
  -2   3 -13 4.75541 1.32278   8
   2  -3  13 3.25536 1.08435   6
   2  -3  13 2.38619 0.96457   5
  -3   3 -13 1.41686 0.97963   8
  -3   3 -13 0.76236 1.03984   4
   3  -3  13 2.46713 1.02809   5
   3  -3  13 1.91143 0.87452   6
  -4   3 -13 1.45610 0.86176   8
   4  -3  13 2.00074 1.18286   5
   4  -3  13 2.54170 0.92415   6
  -5   3 -13 13.7131 2.14035   8
   5  -3  13 13.3741 2.11295   5
  -6   3 -13 2.07712 1.00424   8
  -6   3 -13 3.33147 1.37694   2
   6  -3  13 1.62255 0.90052   5
   1   2 -13 0.08296 1.00718   1
   1   2 -13 0.73190 0.92610   8
   1   2 -13 1.57689 1.32309   4
  -1  -2  13 2.49357 1.47546   1
  -1  -2  13 2.88133 1.10697   5
  -1  -2  13 2.03596 1.08989   6
   0   2 -13 0.20508 0.69922   1
   0   2 -13 -0.3736 1.00346   4
   0   2 -13 -0.9590 0.68669   8
   0  -2  13 0.13375 0.47988   5
   0  -2  13 0.32940 0.82292   6
   0  -2  13 0.64282 0.81370   1
  -1   2 -13 0.08527 0.75040   8
  -1   2 -13 2.19145 1.25596   4
  -1   2 -13 1.28646 0.93206   1
   1  -2  13 0.98053 0.88779   5
   1  -2  13 2.69175 1.31002   1
   1  -2  13 0.69618 0.72481   6
  -2   2 -13 -0.5803 0.71726   8
  -2   2 -13 0.11789 0.87982   4
   2  -2  13 -0.1732 0.49229   5
   2  -2  13 0.51390 0.75416   6
  -3   2 -13 0.19379 0.76098   8
  -3   2 -13 1.26180 0.75517   4
   3  -2  13 0.22171 0.52481   5
   3  -2  13 0.95727 0.79773   6
  -4   2 -13 2.84840 0.98310   8
   4  -2  13 0.67705 0.70202   5
   4  -2  13 3.39236 1.08322   6
  -5   2 -13 9.66365 1.81837   2
  -5   2 -13 6.79933 1.52532   8
   5  -2  13 8.96003 1.76947   5
   5  -2  13 9.44070 1.69122   6
  -6   2 -13 11.6918 1.89792   8
  -6   2 -13 6.05262 1.55026   2
   6  -2  13 7.53106 1.67092   5
  -7   2 -13 37.7138 3.36711   8
  -7   2 -13 41.4569 3.68101   2
   1   1 -13 6.12566 1.69594   4
   1   1 -13 6.36036 1.46410   8
   1   1 -13 6.06147 1.56236   1
  -1  -1  13 9.08901 1.97416   6
  -1  -1  13 5.79906 1.70401   1
  -1  -1  13 6.45199 1.46408   5
   0   1 -13 5.20269 1.30778   8
   0   1 -13 6.69497 1.67057   1
   0   1 -13 4.21964 1.37057   4
   0  -1  13 3.40563 1.15779   6
   0  -1  13 4.66659 1.63446   1
   0  -1  13 5.19880 1.28981   5
  -1   1 -13 8.98094 1.85120   1
  -1   1 -13 6.12849 1.38877   8
  -1   1 -13 11.6098 2.17170   4
   1  -1  13 12.5271 1.86868   5
   1  -1  13 9.63370 2.03755   1
   1  -1  13 8.76880 1.75133   6
  -2   1 -13 -0.9031 0.67773   4
  -2   1 -13 -0.8382 0.57706   8
   2  -1  13 0.02735 1.01405   1
   2  -1  13 0.45223 0.68476   5
   2  -1  13 1.74625 0.92755   6
  -3   1 -13 2.74407 1.04096   4
  -3   1 -13 0.57857 0.62579   8
   3  -1  13 2.90282 1.09713   6
   3  -1  13 0.91417 0.66792   5
  -4   1 -13 29.2054 2.95274   8
  -4   1 -13 26.0762 2.90931   2
   4  -1  13 31.6700 2.86178   6
   4  -1  13 31.0847 2.66691   5
  -5   1 -13 8.13128 1.53685   8
  -5   1 -13 11.6116 1.91266   2
   5  -1  13 13.1607 1.99038   6
   5  -1  13 8.93050 1.61716   5
  -6   1 -13 26.6846 2.78016   8
  -6   1 -13 21.1394 2.81851   2
   6  -1  13 27.8718 2.96392   5
   6  -1  13 24.7253 2.85668   6
  -7   1 -13 12.0623 2.14527   2
  -7   1 -13 15.4059 2.16751   8
   7  -1  13 13.7229 2.12880   5
   2   0 -13 116.401 7.00462   8
   1   0 -13 22.1705 3.16883   4
   1   0 -13 25.0759 2.79912   8
  -1   0  13 23.0319 3.40260   1
  -1   0  13 28.2016 3.33656   6
   0   0 -13 -0.2874 0.49440   8
   0   0 -13 0.40437 0.69623   4
   0   0  13 0.66700 0.71370   6
   0   0  13 -0.0358 0.79819   1
   0   0  13 0.14593 0.64455   5
  -1   0 -13 -0.0787 0.61844   8
  -1   0 -13 0.35137 0.59661   4
   1   0  13 1.16009 0.83227   5
   1   0  13 0.45398 0.63420   1
   1   0  13 0.30224 0.81694   6
  -2   0 -13 0.16140 0.67887   8
  -2   0 -13 -0.2628 0.50161   4
   2   0  13 0.34008 0.74800   5
   2   0  13 0.26591 0.55929   6
   2   0  13 1.55447 1.05191   1
  -3   0 -13 20.4402 2.53744   4
  -3   0 -13 17.4548 2.15391   2
  -3   0 -13 18.8147 2.20490   8
   3   0  13 21.4561 2.67624   6
   3   0  13 17.6182 2.21288   5
  -4   0 -13 2.90303 0.96402   8
  -4   0 -13 3.87958 1.10332   2
   4   0  13 1.99412 0.93090   5
   4   0  13 4.68459 1.18057   6
  -5   0 -13 0.72638 0.86123   8
  -5   0 -13 -0.0190 0.77085   2
   5   0  13 1.03523 0.67203   6
   5   0  13 0.29129 0.50263   5
  -6   0 -13 30.5084 3.32732   2
  -6   0 -13 34.7572 2.76798   8
   6   0  13 25.3892 2.91302   5
   6   0  13 37.4931 3.07279   6
  -7   0 -13 0.85616 0.91829   8
  -7   0 -13 2.37778 1.10623   2
   7   0  13 2.28249 0.95285   5
   7   0  13 1.57795 0.80476   6
   2  -1 -13 16.3523 2.37252   8
   1  -1 -13 3.60573 1.40008   4
   1  -1 -13 1.23790 0.99517   8
  -1   1  13 6.64650 1.59439   6
  -1   1  13 4.91218 1.77416   1
   0  -1 -13 11.6143 2.22452   4
   0  -1 -13 8.10577 1.47656   8
   0   1  13 10.4192 2.02489   6
   0   1  13 9.79012 2.08111   1
  -1  -1 -13 2.29316 0.84553   8
  -1  -1 -13 1.21033 0.93707   4
   1   1  13 2.44491 1.15358   1
   1   1  13 1.85647 0.74382   5
   1   1  13 3.21579 1.11359   6
  -2  -1 -13 19.7734 2.61462   4
  -2  -1 -13 19.2865 2.28056   2
  -2  -1 -13 14.9171 2.01522   8
   2   1  13 18.6451 2.23355   5
   2   1  13 22.1002 2.89069   1
   2   1  13 21.2472 2.64935   6
  -3  -1 -13 1.53873 0.77149   8
  -3  -1 -13 2.06296 0.80343   2
   3   1  13 1.39474 0.62781   5
   3   1  13 1.67976 1.00844   6
  -4  -1 -13 10.5193 1.68210   2
  -4  -1 -13 13.1123 1.77208   8
   4   1  13 11.3030 1.94006   6
   4   1  13 10.8390 1.72225   5
  -5  -1 -13 1.13268 0.70916   2
  -5  -1 -13 0.46617 0.75019   8
   5   1  13 1.20737 0.80099   6
   5   1  13 1.27314 0.65879   5
  -6  -1 -13 42.8132 3.58868   2
  -6  -1 -13 39.9765 3.19224   8
   6   1  13 45.4007 3.54000   6
   6   1  13 43.5325 3.33867   5
  -7  -1 -13 -1.1319 0.65992   8
  -7  -1 -13 -0.9316 0.48221   2
   7   1  13 1.28882 0.62565   6
   7   1  13 -0.6533 0.67000   5
  -2   2  13 0.69815 1.01228   6
   1  -2 -13 10.4036 1.74448   8
   1  -2 -13 8.28523 1.95145   4
  -1   2  13 11.1769 2.31389   1
  -1   2  13 11.0468 2.00907   6
   0  -2 -13 8.09173 1.54856   8
   0  -2 -13 8.88056 2.02704   4
   0   2  13 8.15020 1.93548   1
   0   2  13 7.22335 1.72518   6
  -1  -2 -13 0.01939 0.48641   2
  -1  -2 -13 0.46084 0.52307   8
  -1  -2 -13 -0.2895 0.67037   4
   1   2  13 1.17257 0.91879   1
   1   2  13 0.23893 0.77859   6
  -2  -2 -13 7.69464 1.43316   8
  -2  -2 -13 8.91371 1.52089   2
  -2  -2 -13 6.69999 1.50157   4
   2   2  13 6.51785 1.49019   6
   2   2  13 5.39410 1.58382   1
   2   2  13 6.54334 1.23377   5
  -3  -2 -13 0.48987 0.54093   2
  -3  -2 -13 2.41897 0.81456   8
   3   2  13 1.03066 0.68485   5
   3   2  13 2.30819 0.92863   6
   3   2  13 0.72292 0.75954   1
  -4  -2 -13 0.50377 0.74602   2
  -4  -2 -13 0.63958 0.53099   8
   4   2  13 0.74943 0.65672   5
   4   2  13 1.03572 0.83146   6
  -5  -2 -13 15.2755 2.12914   2
  -5  -2 -13 16.5539 1.98397   8
   5   2  13 13.0443 1.80292   5
   5   2  13 13.6218 2.05245   6
  -6  -2 -13 -0.1224 0.54434   2
  -6  -2 -13 -0.3252 0.69720   8
   6   2  13 1.40937 0.80009   6
   6   2  13 0.10432 0.73754   5
  -7  -2 -13 0.87201 0.84123   8
  -7  -2 -13 1.33971 1.17249   2
   7   2  13 0.41175 0.82480   5
   7   2  13 3.71047 0.99930   6
   1  -3 -13 0.38285 0.82401   8
   1  -3 -13 1.42319 1.04130   4
  -1   3  13 1.52212 0.95678   1
  -1   3  13 1.60712 0.93460   6
  -1   3  13 0.54630 0.91418   4
   0  -3 -13 44.8259 3.17321   2
   0  -3 -13 44.7599 3.88079   4
   0  -3 -13 38.3413 3.14109   8
   0   3  13 39.8678 3.42047   6
   0   3  13 39.2199 3.87942   1
  -1  -3 -13 1.89540 0.94508   8
  -1  -3 -13 3.13184 1.26703   4
  -1  -3 -13 3.93068 1.08392   2
   1   3  13 2.90396 0.95893   6
   1   3  13 2.81176 1.23419   1
  -2  -3 -13 -0.6839 0.49467   2
  -2  -3 -13 -0.1185 0.42587   8
  -2  -3 -13 -0.5488 0.60998   4
   2   3  13 0.33557 0.76651   6
   2   3  13 0.43843 0.68651   1
  -3  -3 -13 7.95004 1.46305   2
  -3  -3 -13 6.11703 1.28226   8
   3   3  13 8.25501 1.57700   6
   3   3  13 12.8079 2.18156   1
   3   3  13 8.84885 1.53672   5
  -4  -3 -13 32.4433 2.79690   2
  -4  -3 -13 36.6904 2.73897   8
   4   3  13 33.7879 2.94559   6
   4   3  13 31.3244 2.52607   5
  -5  -3 -13 0.30065 0.77606   2
  -5  -3 -13 0.03373 0.48843   8
   5   3  13 1.14459 0.64227   6
   5   3  13 -0.0672 0.44752   5
  -6  -3 -13 5.25865 1.44691   2
  -6  -3 -13 4.86854 1.23750   8
   6   3  13 6.97780 1.47795   6
   6   3  13 7.26325 1.43464   5
  -7  -3 -13 24.2162 2.96567   2
   7   3  13 22.4328 2.72131   6
   7   3  13 24.0937 2.71313   5
   1  -4 -13 0.24589 0.83405   4
   1  -4 -13 0.85626 0.78724   2
   1  -4 -13 0.22913 0.74071   8
  -1   4  13 1.47400 1.36560   1
  -1   4  13 2.89700 1.39191   4
  -1   4  13 0.87845 0.87863   6
   0  -4 -13 0.24446 0.93123   4
   0  -4 -13 1.47907 0.73470   2
   0  -4 -13 1.35791 0.80276   8
   0   4  13 1.60119 1.17213   1
   0   4  13 1.43277 0.80726   6
   0   4  13 1.18355 1.18015   4
  -1  -4 -13 18.8626 2.69639   4
  -1  -4 -13 26.6659 2.72240   8
  -1  -4 -13 20.4193 2.44933   2
   1   4  13 21.0106 3.03562   4
   1   4  13 22.9663 2.78452   6
   1   4  13 24.3150 3.28350   1
  -2  -4 -13 0.35004 0.65209   8
  -2  -4 -13 0.72850 0.57969   2
  -2  -4 -13 -0.1067 0.83072   4
   2   4  13 3.66463 1.26978   1
   2   4  13 -0.2335 0.44236   6
  -3  -4 -13 38.9565 2.95214   8
  -3  -4 -13 40.8534 3.17049   2
   3   4  13 36.0726 3.23603   6
   3   4  13 39.7761 3.52805   1
  -4  -4 -13 9.68934 1.52725   8
  -4  -4 -13 10.1558 1.81917   2
   4   4  13 11.3560 1.89033   6
  -5  -4 -13 5.54487 1.27260   2
  -5  -4 -13 6.04843 1.25780   8
   5   4  13 6.00693 1.23707   5
   5   4  13 3.91633 1.12254   6
  -6  -4 -13 0.57813 0.65938   2
   6   4  13 1.50205 0.84133   5
   6   4  13 1.39683 0.78529   6
  -7  -4 -13 1.21462 0.89182   2
   7   4  13 1.07484 0.84317   5
   7   4  13 3.41260 1.12665   6
   1  -5 -13 3.55247 1.49528   4
   1  -5 -13 1.74703 0.95307   2
   1  -5 -13 2.25858 1.16674   8
  -1   5  13 3.73832 1.80729   1
  -1   5  13 4.32521 1.82527   4
  -1   5  13 6.28565 1.44872   6
   0  -5 -13 0.00497 0.89828   4
   0  -5 -13 0.85385 0.80230   8
   0  -5 -13 1.84611 0.86531   2
   0   5  13 1.44520 0.90545   6
   0   5  13 0.53886 1.17037   4
   0   5  13 1.37828 1.01958   1
  -1  -5 -13 19.4876 2.80946   4
  -1  -5 -13 22.4432 2.55265   8
  -1  -5 -13 23.3277 2.63394   2
   1   5  13 23.8488 2.78859   6
   1   5  13 27.9251 3.43917   4
   1   5  13 19.7899 2.97689   1
  -2  -5 -13 4.75153 1.17176   8
  -2  -5 -13 3.87445 1.05583   2
   2   5  13 7.39516 1.48544   6
   2   5  13 4.72903 1.47325   1
  -3  -5 -13 20.9728 2.25294   8
  -3  -5 -13 18.5644 2.38781   2
   3   5  13 22.0285 2.95251   1
   3   5  13 23.5881 2.82498   6
  -4  -5 -13 2.39718 0.91465   2
  -4  -5 -13 2.15601 0.86593   8
   4   5  13 4.88122 1.62162   1
   4   5  13 2.62657 0.88971   6
  -5  -5 -13 15.1169 2.18361   2
  -5  -5 -13 14.2182 1.81853   8
   5   5  13 14.3504 2.12754   6
  -6  -5 -13 73.2119 4.78894   2
   6   5  13 60.2976 4.42944   6
   6   5  13 61.5772 4.09620   5
   7   5  13 1.83284 0.84491   5
   0  -6 -13 42.7879 4.03194   4
   0  -6 -13 46.3478 3.60422   2
   0  -6 -13 48.6067 3.64789   8
   0   6  13 47.7315 4.32420   1
   0   6  13 45.2669 3.64498   6
   0   6  13 46.3886 4.17697   4
  -1  -6 -13 0.61345 0.90332   4
  -1  -6 -13 -0.0398 0.71842   8
  -1  -6 -13 0.29106 0.61444   2
   1   6  13 1.04784 0.82019   6
   1   6  13 1.56957 1.04204   1
   1   6  13 -0.0937 1.01716   4
  -2  -6 -13 8.04929 1.50502   8
  -2  -6 -13 8.77907 1.57901   2
   2   6  13 9.85173 1.96945   1
   2   6  13 9.74556 1.75645   6
  -3  -6 -13 9.78795 1.60843   8
  -3  -6 -13 8.73698 1.70492   2
   3   6  13 11.4622 2.08499   1
   3   6  13 8.34861 1.62692   6
  -4  -6 -13 21.7084 2.23866   8
  -4  -6 -13 18.2797 2.33332   2
   4   6  13 17.0102 2.54012   1
   4   6  13 11.9998 1.99498   6
  -5  -6 -13 57.9233 4.12587   2
   5   6  13 49.9849 3.89958   6
  -6  -6 -13 2.68181 1.09554   2
   6   6  13 4.97267 1.38161   6
  -1  -7 -13 0.88342 0.85025   8
  -1  -7 -13 1.37805 0.78016   2
  -1  -7 -13 -0.0399 0.96088   4
   1   7  13 2.26134 0.96921   6
   1   7  13 2.71459 1.44650   4
   1   7  13 2.13518 1.06356   1
  -2  -7 -13 0.58664 0.69996   8
  -2  -7 -13 0.53294 0.84886   2
   2   7  13 1.44278 1.07055   1
   2   7  13 1.23767 0.83165   6
  -3  -7 -13 6.39351 1.36447   2
  -3  -7 -13 3.69125 1.09784   8
   3   7  13 7.57683 1.51828   6
   3   7  13 7.88172 1.66942   1
  -4  -7 -13 1.51480 1.04354   2
   4   7  13 2.49307 1.02385   1
   4   7  13 1.83139 0.87129   6
  -5  -7 -13 0.38330 0.66841   2
   5   7  13 1.52877 0.83778   6
  -2  -8 -13 0.21234 0.62678   8
   2   8  13 1.61038 0.98297   1
   2   8  13 1.42832 0.75730   6
   3   8  13 3.74266 1.09988   6
   3   8  13 4.02110 1.23895   1
  -2   3 -14 -0.6561 0.61047   8
  -2   3 -14 -0.3919 0.93771   4
   2  -3  14 -0.4081 0.63608   6
   2  -3  14 0.47000 0.91372   5
  -3   3 -14 38.7167 4.41776   8
  -3   3 -14 50.5199 4.11377   4
   3  -3  14 51.1073 4.11443   5
   3  -3  14 52.3723 4.03886   6
   4  -3  14 1.65013 1.04401   6
  -1   2 -14 -0.6013 0.57497   8
  -1   2 -14 -0.1329 1.02483   4
   1  -2  14 0.76496 0.76255   6
   1  -2  14 -0.2657 0.49577   5
   1  -2  14 1.36660 1.23432   1
  -2   2 -14 0.64117 0.80245   8
  -2   2 -14 1.83654 1.14028   4
   2  -2  14 2.52024 1.10088   5
   2  -2  14 1.21028 0.85491   6
  -3   2 -14 0.70623 1.04216   4
  -3   2 -14 4.61779 1.23724   8
   3  -2  14 2.27906 0.96735   6
   3  -2  14 2.45276 1.19473   5
  -4   2 -14 1.61872 0.89870   8
   4  -2  14 3.10971 1.13102   5
   4  -2  14 3.03771 1.02348   6
  -5   2 -14 58.3796 5.00460   8
   5  -2  14 72.8791 4.88202   6
   5  -2  14 58.5786 5.05372   5
   0   1 -14 22.7729 3.26446   4
   0   1 -14 19.3140 2.98662   1
   0  -1  14 21.6448 3.36062   1
   0  -1  14 18.9396 2.44143   5
  -1   1 -14 12.4651 2.21913   1
  -1   1 -14 12.0904 2.37432   4
  -1   1 -14 14.5801 2.11167   8
   1  -1  14 13.1833 2.43521   1
   1  -1  14 15.1905 2.19980   5
   1  -1  14 14.5726 2.44867   6
  -2   1 -14 1.00237 0.75012   4
  -2   1 -14 0.72268 0.72876   8
   2  -1  14 0.29537 0.56589   5
   2  -1  14 0.52919 0.71966   6
  -3   1 -14 2.42642 0.97191   8
   3  -1  14 2.19490 1.03219   5
   3  -1  14 2.92843 1.11881   6
  -4   1 -14 -0.2042 0.83035   8
   4  -1  14 1.18456 0.77954   6
   4  -1  14 0.39178 0.85046   5
  -5   1 -14 14.4164 2.04192   8
  -5   1 -14 10.5808 2.00369   2
   5  -1  14 10.8775 1.88895   5
   5  -1  14 12.5100 2.00619   6
  -6   1 -14 4.44269 1.53206   8
  -6   1 -14 3.92217 1.32282   2
   6  -1  14 5.09539 1.43034   6
   0   0 -14 37.6059 3.46547   1
   0   0 -14 30.2523 3.26553   8
   0   0 -14 37.3545 3.55796   4
   0   0  14 31.1722 3.94251   1
  -1   0 -14 6.57180 1.62645   4
  -1   0 -14 9.22362 1.68680   8
   1   0  14 8.11497 1.99948   1
   1   0  14 9.73912 1.94865   6
   1   0  14 8.23700 1.54507   5
  -2   0 -14 0.11248 0.74350   8
  -2   0 -14 0.67685 0.87193   4
   2   0  14 -0.3515 0.61096   5
   2   0  14 0.98706 0.89063   6
  -3   0 -14 1.79556 1.02993   8
   3   0  14 1.67400 0.79365   5
   3   0  14 0.61983 0.64597   6
  -4   0 -14 2.01224 0.87807   8
  -4   0 -14 2.53067 1.07838   2
   4   0  14 2.89608 1.01750   6
   4   0  14 2.42378 0.98695   5
  -5   0 -14 0.85900 1.02411   8
  -5   0 -14 0.96862 1.03870   2
   5   0  14 2.15675 0.98505   6
   5   0  14 2.68001 0.92896   5
  -6   0 -14 17.5641 2.31941   8
  -6   0 -14 15.8037 2.40123   2
   6   0  14 20.1220 2.68179   6
   6   0  14 12.9238 2.07879   5
   0  -1 -14 28.6268 3.62504   4
   0  -1 -14 24.9414 3.33775   8
   0   1  14 20.7774 3.41661   6
   0   1  14 26.9739 3.73985   1
  -1  -1 -14 5.16130 1.25958   8
  -1  -1 -14 4.13323 1.32977   4
   1   1  14 5.56917 1.56773   6
   1   1  14 3.30529 1.40080   1
  -2  -1 -14 31.6466 2.89918   8
  -2  -1 -14 44.2168 3.61443   4
   2   1  14 40.8450 3.47408   6
   2   1  14 41.5793 3.17424   5
  -3  -1 -14 17.7261 2.23554   8
  -3  -1 -14 20.3459 2.45674   2
   3   1  14 15.2914 2.13624   5
   3   1  14 23.4410 2.92468   6
  -4  -1 -14 14.9111 2.10259   8
  -4  -1 -14 17.7614 2.33586   2
   4   1  14 14.8505 2.30393   6
   4   1  14 17.2951 2.20629   5
  -5  -1 -14 13.7955 2.02682   8
  -5  -1 -14 12.8762 2.09706   2
   5   1  14 13.2766 2.16107   6
   5   1  14 11.2690 1.82512   5
  -6  -1 -14 0.63016 0.84057   2
  -6  -1 -14 -0.9772 0.77149   8
   6   1  14 0.42825 0.78951   5
   6   1  14 0.61360 0.87046   6
   0  -2 -14 -0.1386 0.78280   4
   0  -2 -14 -0.3681 0.88830   8
   0   2  14 1.31243 1.03634   6
   0   2  14 1.56726 1.30459   1
  -1  -2 -14 -0.8775 0.62705   8
  -1  -2 -14 -0.0243 0.65881   4
   1   2  14 1.55343 1.18158   1
   1   2  14 1.47722 0.76394   6
  -2  -2 -14 30.0418 2.90669   4
  -2  -2 -14 27.7153 2.85496   8
  -2  -2 -14 21.5571 2.64211   2
   2   2  14 30.2214 3.43844   6
   2   2  14 29.7255 3.61020   1
  -3  -2 -14 1.10446 0.82641   2
  -3  -2 -14 1.46399 0.83929   8
   3   2  14 0.98155 0.80246   5
   3   2  14 3.64066 1.14987   6
  -4  -2 -14 -0.0754 0.77902   2
  -4  -2 -14 0.42100 0.82348   8
   4   2  14 1.38238 0.88126   6
   4   2  14 0.53673 0.65788   5
  -5  -2 -14 8.66776 1.50414   8
  -5  -2 -14 7.30498 1.71228   2
   5   2  14 9.60774 1.88264   6
   5   2  14 11.1047 1.77005   5
  -6  -2 -14 5.16108 1.38325   8
  -6  -2 -14 4.70554 1.32612   2
   6   2  14 4.00628 1.22158   5
   6   2  14 5.52489 1.36149   6
   0  -3 -14 1.09303 0.93444   4
   0   3  14 0.18717 0.95937   6
   0   3  14 2.83072 1.41078   1
  -1  -3 -14 0.55454 0.71381   4
  -1  -3 -14 0.34001 0.86121   2
  -1  -3 -14 0.44546 0.62672   8
   1   3  14 1.93575 1.07273   1
   1   3  14 2.85022 1.04096   6
  -2  -3 -14 10.2989 1.65585   8
  -2  -3 -14 11.4584 1.85224   2
   2   3  14 10.7994 1.91576   6
   2   3  14 9.33062 2.02005   1
  -3  -3 -14 7.40177 1.53404   8
  -3  -3 -14 6.16024 1.36977   2
   3   3  14 7.59854 1.71752   6
  -4  -3 -14 31.6568 2.61950   8
  -4  -3 -14 32.3685 2.93307   2
   4   3  14 27.7547 3.26546   6
  -5  -3 -14 18.1770 2.19205   8
  -5  -3 -14 20.0387 2.59939   2
   5   3  14 21.3771 2.73557   6
   5   3  14 18.0520 2.25474   5
  -6  -3 -14 9.86005 1.72238   8
  -6  -3 -14 12.5383 2.19247   2
   6   3  14 12.9942 2.10115   6
   6   3  14 11.8439 1.77332   5
  -1  -4 -14 6.23476 1.38354   8
  -1  -4 -14 4.06160 1.25509   4
  -1  -4 -14 7.85904 1.55730   2
   1   4  14 7.11392 1.65730   6
   1   4  14 5.95110 1.69297   1
  -2  -4 -14 7.78130 1.45198   8
  -2  -4 -14 4.89315 1.39243   2
   2   4  14 5.74553 1.62452   1
   2   4  14 7.35605 1.57677   6
  -3  -4 -14 43.0059 3.47550   2
  -3  -4 -14 46.2871 3.30550   8
   3   4  14 39.5488 3.47966   6
   3   4  14 45.3504 3.88128   1
  -4  -4 -14 36.0255 2.82105   8
  -4  -4 -14 37.5779 3.11492   2
   4   4  14 33.2253 3.09559   6
  -5  -4 -14 4.93898 1.20047   8
  -5  -4 -14 7.59841 1.67462   2
   5   4  14 6.50360 1.44576   6
   6   4  14 5.72627 1.29920   5
  -1  -5 -14 2.53409 1.06114   8
  -1  -5 -14 1.90252 1.11220   4
  -1  -5 -14 3.47493 1.07869   2
   1   5  14 3.76809 1.14447   6
   1   5  14 2.55670 1.44934   4
   1   5  14 2.35475 1.32709   1
  -2  -5 -14 6.39033 1.44283   2
  -2  -5 -14 6.67673 1.48279   8
   2   5  14 10.6667 1.92364   6
   2   5  14 7.06667 1.69341   1
  -3  -5 -14 11.7646 1.78025   8
  -3  -5 -14 16.6944 2.30517   2
   3   5  14 21.7309 2.72528   6
   3   5  14 17.4119 2.73252   1
  -4  -5 -14 0.80589 0.73378   2
  -4  -5 -14 0.73042 0.63664   8
   4   5  14 0.87844 0.69480   6
  -5  -5 -14 54.1370 4.28304   2
  -5  -5 -14 56.4181 3.80649   8
   5   5  14 52.3192 4.63501   6
  -2  -6 -14 1.14949 0.72915   8
  -2  -6 -14 0.02115 0.94662   2
   2   6  14 2.39325 1.18792   1
  -3  -6 -14 18.3486 2.53616   2
  -3  -6 -14 18.2993 2.27537   8
   3   6  14 18.3121 2.99466   6
   3   6  14 17.1529 2.66902   1
  -4  -6 -14 46.9959 3.42115   8
   0   0   0    0.00    0.00   0
 The following wavelength and cell were deduced by SADABS from the
 direction cosines etc. They are given here for emergency use only:
 CELL 0.71081    7.456    9.816   10.655   83.455   71.772   87.247
;
_shelx_hkl_checksum              56439
_shelx_res_file
;
TITL mo_bzf9a_0m in P-1 (100K)
CELL 0.71073   7.4094   9.7566  10.5832  83.430  71.808  87.265
ZERR    2.00   0.0003   0.0004   0.0005   0.001   0.001   0.001
LATT  1
SFAC C H O
UNIT 36 28 10
TEMP -173.150
SIZE 0.114 0.345 0.513
L.S. 10
BOND $H
FMAP 2 1 60
PLAN 20
ACTA
CONF
WGHT    0.064000    0.301400
FVAR       0.59483
O1    3    0.177332    0.471091    0.590141    11.00000    0.01723    0.01789 =
         0.01374   -0.00256   -0.00753    0.00166
O2    3    0.172040    0.668936    0.983393    11.00000    0.02127    0.01637 =
         0.01759   -0.00619   -0.01118    0.00619
O3    3    0.016050    0.623508    0.799526    11.00000    0.01837    0.02072 =
         0.01982   -0.00374   -0.00931    0.00467
O4    3    0.360095    0.607839    1.110196    11.00000    0.04031    0.03066 =
         0.03621   -0.01657   -0.02878    0.01978
O5    3    0.301670    0.950905    0.941024    11.00000    0.02650    0.01627 =
         0.01431    0.00066   -0.00336   -0.00016
C1    1    0.287546    0.380626    0.506756    11.00000    0.01555    0.01521 =
         0.01285   -0.00127   -0.00465   -0.00147
C2    1    0.261411    0.349557    0.389211    11.00000    0.02088    0.02297 =
         0.01466   -0.00127   -0.00745   -0.00399
AFIX  43
H2A   2    0.161984    0.390113    0.358011    11.00000   -1.20000
AFIX   0
C3    1    0.389959    0.255368    0.320140    11.00000    0.02369    0.02621 =
         0.01528   -0.00556   -0.00532   -0.00505
AFIX  43
H3A   2    0.378161    0.230186    0.239005    11.00000   -1.20000
AFIX   0
C4    1    0.536992    0.196077    0.366402    11.00000    0.02338    0.02341 =
         0.02011   -0.00863   -0.00409    0.00074
AFIX  43
H4A   2    0.622888    0.132551    0.315683    11.00000   -1.20000
AFIX   0
C5    1    0.559110    0.228578    0.484831    11.00000    0.01966    0.02022 =
         0.02014   -0.00456   -0.00650    0.00253
AFIX  43
H5A   2    0.658258    0.187831    0.516232    11.00000   -1.20000
AFIX   0
C6    1    0.431101    0.323129    0.556660    11.00000    0.01670    0.01406 =
         0.01294   -0.00072   -0.00482   -0.00055
C7    1    0.407033    0.383472    0.678252    11.00000    0.01797    0.01471 =
         0.01276   -0.00040   -0.00633    0.00008
AFIX  43
H7A   2    0.482968    0.366738    0.736164    11.00000   -1.20000
AFIX   0
C8    1    0.253613    0.469464    0.693931    11.00000    0.01650    0.01460 =
         0.01251   -0.00047   -0.00620   -0.00091
C9    1    0.158138    0.555786    0.799779    11.00000    0.01607    0.01363 =
         0.01325   -0.00026   -0.00528   -0.00117
C10   1    0.244683    0.551281    0.912269    11.00000    0.01837    0.01512 =
         0.01316   -0.00350   -0.00679    0.00410
AFIX  23
H10A  2    0.209326    0.465042    0.972823    11.00000   -1.20000
H10B  2    0.384941    0.554832    0.875794    11.00000   -1.20000
AFIX   0
C11   1    0.249987    0.688200    1.078439    11.00000    0.01643    0.01630 =
         0.01452   -0.00168   -0.00705    0.00123
C12   1    0.175668    0.814577    1.144634    11.00000    0.01548    0.01404 =
         0.01443   -0.00249   -0.00648    0.00116
C13   1    0.197397    0.945841    1.072487    11.00000    0.01583    0.01661 =
         0.01429   -0.00142   -0.00615    0.00061
C14   1    0.119502    1.060348    1.138679    11.00000    0.01977    0.01463 =
         0.02062   -0.00235   -0.00760    0.00150
AFIX  43
H14A  2    0.130333    1.149566    1.090646    11.00000   -1.20000
AFIX   0
C15   1    0.025844    1.043546    1.275318    11.00000    0.02048    0.01927 =
         0.02252   -0.00718   -0.00586    0.00132
AFIX  43
H15A  2   -0.028018    1.121963    1.319832    11.00000   -1.20000
AFIX   0
C16   1    0.009397    0.915213    1.347808    11.00000    0.02310    0.02347 =
         0.01531   -0.00495   -0.00235   -0.00111
AFIX  43
H16A  2   -0.053747    0.905360    1.441407    11.00000   -1.20000
AFIX   0
C17   1    0.086536    0.800785    1.281843    11.00000    0.02068    0.01718 =
         0.01598   -0.00079   -0.00565   -0.00184
AFIX  43
H17A  2    0.078243    0.712291    1.331034    11.00000   -1.20000
AFIX   0
C18   1    0.337537    1.084484    0.868189    11.00000    0.02778    0.01899 =
         0.01969    0.00418   -0.00722   -0.00415
AFIX 137
H18A  2    0.424146    1.075828    0.778025    11.00000   -1.50000
H18B  2    0.395480    1.142322    0.914475    11.00000   -1.50000
H18C  2    0.217604    1.126986    0.862076    11.00000   -1.50000
AFIX   0
HKLF 4
REM  mo_bzf9a_0m in P-1 (100K)
REM R1 =  0.0451 for    3615 Fo > 4sig(Fo)  and  0.0543 for all    4286 data
REM    209 parameters refined using      0 restraints
END
WGHT      0.0640      0.3015
REM Highest difference peak  0.521,  deepest hole -0.333,  1-sigma level  0.065
Q1    1   0.2033  0.7529  1.1144  11.00000  0.05    0.52
Q2    1   0.2001  0.5559  0.8555  11.00000  0.05    0.49
Q3    1   0.1932  0.5011  0.7550  11.00000  0.05    0.48
Q4    1   0.4220  0.3454  0.6221  11.00000  0.05    0.48
Q5    1   0.1212  0.8045  1.2143  11.00000  0.05    0.47
Q6    1   0.4236  0.6551  1.0551  11.00000  0.05    0.46
Q7    1   0.1678  1.0025  1.1142  11.00000  0.05    0.46
Q8    1   0.2658  0.3485  0.4641  11.00000  0.05    0.46
Q9    1   0.0525  0.8597  1.3157  11.00000  0.05    0.44
Q10   1   0.3667  0.3515  0.5246  11.00000  0.05    0.44
Q11   1   0.3461  0.4373  0.6819  11.00000  0.05    0.42
Q12   1   0.3333  0.3006  0.3605  11.00000  0.05    0.42
Q13   1   0.5481  0.2179  0.4221  11.00000  0.05    0.42
Q14   1   0.3075  0.2798  0.3719  11.00000  0.05    0.42
Q15   1   0.2021  0.6096  0.9541  11.00000  0.05    0.39
Q16   1   0.4829  0.2703  0.5184  11.00000  0.05    0.38
Q17   1   0.4745  0.2403  0.3389  11.00000  0.05    0.36
Q18   1   0.0954  1.0529  1.2031  11.00000  0.05    0.36
Q19   1   0.2333  0.4137  0.5411  11.00000  0.05    0.30
Q20   1   0.2172  0.6730  1.0239  11.00000  0.05    0.29
;
_shelx_res_checksum              73901
_shelxl_version_number           20.13
loop_
_space_group_symop_operation_xyz
'x, y, z'
'-x, -y, -z'
loop_
_atom_site_type_symbol
_atom_site_label
_atom_site_fract_x
_atom_site_fract_y
_atom_site_fract_z
_atom_site_U_iso_or_equiv
_atom_site_adp_type
_atom_site_calc_flag
_atom_site_occupancy
O O1 0.17733(11) 0.47109(8) 0.59014(8) 0.01564(17) Uani d 1
O O2 0.17204(12) 0.66894(8) 0.98339(8) 0.01707(18) Uani d 1
O O3 0.01605(12) 0.62351(9) 0.79953(8) 0.01888(18) Uani d 1
O O4 0.36010(15) 0.60784(11) 1.11020(10) 0.0314(2) Uani d 1
O O5 0.30167(13) 0.95091(9) 0.94102(8) 0.01990(19) Uani d 1
C C1 0.28755(15) 0.38063(11) 0.50676(11) 0.0145(2) Uani d 1
C C2 0.26141(17) 0.34956(13) 0.38921(11) 0.0190(2) Uani d 1
H H2A 0.1620 0.3901 0.3580 0.023 Uiso calc 1
C C3 0.38996(18) 0.25537(13) 0.32014(12) 0.0215(2) Uani d 1
H H3A 0.3782 0.2302 0.2390 0.026 Uiso calc 1
C C4 0.53699(18) 0.19608(13) 0.36640(12) 0.0224(2) Uani d 1
H H4A 0.6229 0.1326 0.3157 0.027 Uiso calc 1
C C5 0.55911(17) 0.22858(13) 0.48483(12) 0.0198(2) Uani d 1
H H5A 0.6583 0.1878 0.5162 0.024 Uiso calc 1
C C6 0.43110(15) 0.32313(11) 0.55666(11) 0.0146(2) Uani d 1
C C7 0.40703(16) 0.38347(11) 0.67825(11) 0.0149(2) Uani d 1
H H7A 0.4830 0.3667 0.7362 0.018 Uiso calc 1
C C8 0.25361(15) 0.46946(11) 0.69393(10) 0.0142(2) Uani d 1
C C9 0.15814(15) 0.55579(11) 0.79978(11) 0.0142(2) Uani d 1
C C10 0.24468(16) 0.55128(11) 0.91227(11) 0.0151(2) Uani d 1
H H10A 0.2093 0.4650 0.9728 0.018 Uiso calc 1
H H10B 0.3849 0.5548 0.8758 0.018 Uiso calc 1
C C11 0.24999(15) 0.68820(12) 1.07844(11) 0.0153(2) Uani d 1
C C12 0.17567(15) 0.81458(11) 1.14463(11) 0.0142(2) Uani d 1
C C13 0.19740(15) 0.94584(12) 1.07249(11) 0.0153(2) Uani d 1
C C14 0.11950(16) 1.06035(12) 1.13868(12) 0.0180(2) Uani d 1
H H14A 0.1303 1.1496 1.0906 0.022 Uiso calc 1
C C15 0.02584(17) 1.04355(13) 1.27532(12) 0.0206(2) Uani d 1
H H15A -0.0280 1.1220 1.3198 0.025 Uiso calc 1
C C16 0.00940(18) 0.91521(13) 1.34781(12) 0.0212(2) Uani d 1
H H16A -0.0537 0.9054 1.4414 0.025 Uiso calc 1
C C17 0.08654(17) 0.80078(12) 1.28184(11) 0.0180(2) Uani d 1
H H17A 0.0782 0.7123 1.3310 0.022 Uiso calc 1
C C18 0.33754(19) 1.08448(13) 0.86819(12) 0.0226(2) Uani d 1
H H18A 0.4241 1.0758 0.7780 0.034 Uiso calc 1
H H18B 0.3955 1.1423 0.9145 0.034 Uiso calc 1
H H18C 0.2176 1.1270 0.8621 0.034 Uiso calc 1
loop_
_atom_site_aniso_label
_atom_site_aniso_U_11
_atom_site_aniso_U_22
_atom_site_aniso_U_33
_atom_site_aniso_U_12
_atom_site_aniso_U_13
_atom_site_aniso_U_23
O1 0.0172(4) 0.0179(4) 0.0137(4) 0.0017(3) -0.0075(3) -0.0026(3)
O2 0.0213(4) 0.0164(4) 0.0176(4) 0.0062(3) -0.0112(3) -0.0062(3)
O3 0.0184(4) 0.0207(4) 0.0198(4) 0.0047(3) -0.0093(3) -0.0037(3)
O4 0.0403(6) 0.0307(5) 0.0362(5) 0.0198(4) -0.0288(5) -0.0166(4)
O5 0.0265(4) 0.0163(4) 0.0143(4) -0.0002(3) -0.0034(3) 0.0007(3)
C1 0.0155(5) 0.0152(5) 0.0129(5) -0.0015(4) -0.0046(4) -0.0013(4)
C2 0.0209(5) 0.0230(6) 0.0147(5) -0.0040(4) -0.0075(4) -0.0013(4)
C3 0.0237(6) 0.0262(6) 0.0153(5) -0.0050(5) -0.0053(4) -0.0056(4)
C4 0.0234(6) 0.0234(6) 0.0201(6) 0.0007(4) -0.0041(4) -0.0086(4)
C5 0.0197(5) 0.0202(5) 0.0201(5) 0.0025(4) -0.0065(4) -0.0046(4)
C6 0.0167(5) 0.0141(5) 0.0129(5) -0.0006(4) -0.0048(4) -0.0007(4)
C7 0.0180(5) 0.0147(5) 0.0128(5) 0.0001(4) -0.0063(4) -0.0004(4)
C8 0.0165(5) 0.0146(5) 0.0125(5) -0.0009(4) -0.0062(4) -0.0005(4)
C9 0.0161(5) 0.0136(5) 0.0133(5) -0.0012(4) -0.0053(4) -0.0003(4)
C10 0.0184(5) 0.0151(5) 0.0132(5) 0.0041(4) -0.0068(4) -0.0035(4)
C11 0.0164(5) 0.0163(5) 0.0145(5) 0.0012(4) -0.0070(4) -0.0017(4)
C12 0.0155(5) 0.0140(5) 0.0144(5) 0.0012(4) -0.0065(4) -0.0025(4)
C13 0.0158(5) 0.0166(5) 0.0143(5) 0.0006(4) -0.0061(4) -0.0014(4)
C14 0.0198(5) 0.0146(5) 0.0206(5) 0.0015(4) -0.0076(4) -0.0023(4)
C15 0.0205(5) 0.0193(5) 0.0225(6) 0.0013(4) -0.0059(4) -0.0072(4)
C16 0.0231(5) 0.0235(6) 0.0153(5) -0.0011(4) -0.0023(4) -0.0050(4)
C17 0.0207(5) 0.0172(5) 0.0160(5) -0.0018(4) -0.0056(4) -0.0008(4)
C18 0.0278(6) 0.0190(5) 0.0197(5) -0.0041(4) -0.0072(5) 0.0042(4)
loop_
_atom_type_symbol
_atom_type_description
_atom_type_scat_dispersion_real
_atom_type_scat_dispersion_imag
_atom_type_scat_source
C C 0.0033 0.0016 'International Tables Vol C Tables 4.2.6.8 and 6.1.1.4'
H H 0.0000 0.0000 'International Tables Vol C Tables 4.2.6.8 and 6.1.1.4'
O O 0.0106 0.0060 'International Tables Vol C Tables 4.2.6.8 and 6.1.1.4'
loop_
_geom_angle_atom_site_label_1
_geom_angle_atom_site_label_2
_geom_angle_atom_site_label_3
_geom_angle
C1 O1 C8 105.39(8)
C11 O2 C10 114.70(8)
C13 O5 C18 116.85(9)
O1 C1 C2 125.19(10)
O1 C1 C6 110.64(9)
C2 C1 C6 124.16(11)
C1 C2 C3 115.56(11)
C1 C2 H2A 122.2
C3 C2 H2A 122.2
C2 C3 C4 122.01(11)
C2 C3 H3A 119.0
C4 C3 H3A 119.0
C5 C4 C3 121.16(11)
C5 C4 H4A 119.4
C3 C4 H4A 119.4
C4 C5 C6 118.01(11)
C4 C5 H5A 121.0
C6 C5 H5A 121.0
C1 C6 C5 119.09(10)
C1 C6 C7 105.80(9)
C5 C6 C7 135.10(11)
C8 C7 C6 106.09(9)
C8 C7 H7A 127.0
C6 C7 H7A 127.0
C7 C8 O1 112.07(9)
C7 C8 C9 131.43(10)
O1 C8 C9 116.50(9)
O3 C9 C8 122.38(10)
O3 C9 C10 122.39(10)
C8 C9 C10 115.20(9)
O2 C10 C9 107.13(8)
O2 C10 H10A 110.3
C9 C10 H10A 110.3
O2 C10 H10B 110.3
C9 C10 H10B 110.3
H10A C10 H10B 108.5
O4 C11 O2 123.18(11)
O4 C11 C12 124.35(10)
O2 C11 C12 112.37(9)
C17 C12 C13 120.00(10)
C17 C12 C11 118.36(10)
C13 C12 C11 121.63(10)
O5 C13 C14 124.76(10)
O5 C13 C12 115.95(10)
C14 C13 C12 119.25(10)
C15 C14 C13 119.68(11)
C15 C14 H14A 120.2
C13 C14 H14A 120.2
C16 C15 C14 121.37(11)
C16 C15 H15A 119.3
C14 C15 H15A 119.3
C15 C16 C17 119.02(11)
C15 C16 H16A 120.5
C17 C16 H16A 120.5
C12 C17 C16 120.59(11)
C12 C17 H17A 119.7
C16 C17 H17A 119.7
O5 C18 H18A 109.5
O5 C18 H18B 109.5
H18A C18 H18B 109.5
O5 C18 H18C 109.5
H18A C18 H18C 109.5
H18B C18 H18C 109.5
loop_
_geom_bond_atom_site_label_1
_geom_bond_atom_site_label_2
_geom_bond_distance
O1 C1 1.3726(13)
O1 C8 1.3817(13)
O2 C11 1.3405(13)
O2 C10 1.4352(13)
O3 C9 1.2165(13)
O4 C11 1.2013(14)
O5 C13 1.3608(13)
O5 C18 1.4278(14)
C1 C2 1.3854(15)
C1 C6 1.3968(15)
C2 C3 1.3862(17)
C2 H2A 0.9500
C3 C4 1.4033(18)
C3 H3A 0.9500
C4 C5 1.3865(17)
C4 H4A 0.9500
C5 C6 1.3983(15)
C5 H5A 0.9500
C6 C7 1.4333(15)
C7 C8 1.3589(15)
C7 H7A 0.9500
C8 C9 1.4591(15)
C9 C10 1.5141(15)
C10 H10A 0.9900
C10 H10B 0.9900
C11 C12 1.4854(15)
C12 C17 1.3885(15)
C12 C13 1.4029(15)
C13 C14 1.3918(15)
C14 C15 1.3891(17)
C14 H14A 0.9500
C15 C16 1.3811(17)
C15 H15A 0.9500
C16 C17 1.3888(16)
C16 H16A 0.9500
C17 H17A 0.9500
C18 H18A 0.9800
C18 H18B 0.9800
C18 H18C 0.9800
loop_
_geom_hbond_atom_site_label_D
_geom_hbond_atom_site_label_H
_geom_hbond_atom_site_label_A
_geom_hbond_site_symmetry_A
_geom_hbond_distance_DH
_geom_hbond_distance_HA
_geom_hbond_distance_DA
_geom_hbond_angle_DHA
_geom_hbond_publ_flag
C2 H2A O3 2_566 0.9500 2.4500 3.2677(15) 145.00 yes
C7 H7A O4 2_667 0.9500 2.3100 3.2352(16) 163.00 yes
C10 H10A O3 2_567 0.9900 2.5500 3.3746(14) 141.00 yes
C10 H10B O4 2_667 0.9900 2.4400 3.2028(17) 134.00 yes
C17 H17A O1 2_567 0.9500 2.5500 3.2730(15) 134.00 yes
C18 H18C Cg3 2_577 0.9800 2.8100 3.6181(16) 141.00 yes
loop_
_geom_torsion_atom_site_label_1
_geom_torsion_atom_site_label_2
_geom_torsion_atom_site_label_3
_geom_torsion_atom_site_label_4
_geom_torsion
C8 O1 C1 C2 179.76(10)
C8 O1 C1 C6 -0.15(12)
O1 C1 C2 C3 179.82(10)
C6 C1 C2 C3 -0.28(17)
C1 C2 C3 C4 -0.22(17)
C2 C3 C4 C5 0.57(19)
C3 C4 C5 C6 -0.42(18)
O1 C1 C6 C5 -179.67(10)
C2 C1 C6 C5 0.42(17)
O1 C1 C6 C7 -0.36(12)
C2 C1 C6 C7 179.73(10)
C4 C5 C6 C1 -0.05(17)
C4 C5 C6 C7 -179.11(12)
C1 C6 C7 C8 0.73(12)
C5 C6 C7 C8 179.88(13)
C6 C7 C8 O1 -0.87(12)
C6 C7 C8 C9 178.16(11)
C1 O1 C8 C7 0.65(12)
C1 O1 C8 C9 -178.54(9)
C7 C8 C9 O3 -177.25(11)
O1 C8 C9 O3 1.74(16)
C7 C8 C9 C10 0.77(17)
O1 C8 C9 C10 179.77(9)
C11 O2 C10 C9 -173.51(9)
O3 C9 C10 O2 -18.82(14)
C8 C9 C10 O2 163.15(9)
C10 O2 C11 O4 -6.03(17)
C10 O2 C11 C12 177.51(9)
O4 C11 C12 C17 -55.50(17)
O2 C11 C12 C17 120.91(11)
O4 C11 C12 C13 123.09(14)
O2 C11 C12 C13 -60.51(14)
C18 O5 C13 C14 2.08(16)
C18 O5 C13 C12 -175.45(10)
C17 C12 C13 O5 174.12(10)
C11 C12 C13 O5 -4.45(15)
C17 C12 C13 C14 -3.55(16)
C11 C12 C13 C14 177.88(10)
O5 C13 C14 C15 -175.85(11)
C12 C13 C14 C15 1.60(17)
C13 C14 C15 C16 0.55(18)
C14 C15 C16 C17 -0.74(19)
C13 C12 C17 C16 3.40(17)
C11 C12 C17 C16 -177.99(10)
C15 C16 C17 C12 -1.25(18)
