#------------------------------------------------------------------------------
#$Date: 2019-12-27 19:48:55 +0200 (Fri, 27 Dec 2019) $
#$Revision: 246234 $
#$URL: file:///home/coder/svn-repositories/cod/cif/2/31/19/2311994.cif $
#------------------------------------------------------------------------------
#
# This file is available in the Crystallography Open Database (COD),
# http://www.crystallography.net/. The original data for this entry
# were provided by IUCr Journals, http://journals.iucr.org/.
#
# The file may be used within the scientific community so long as
# proper attribution is given to the journal article from which the
# data were obtained.
#
data_2311994
loop_
_publ_author_name
'Cigler, Andrew J.'
'Kaduk, James A.'
_publ_section_title
;
 Dilithium (citrate) crystals and their relatives.
;
_journal_issue                   'Pt 10'
_journal_name_full
'Acta crystallographica. Section C, Structural chemistry'
_journal_page_first              1160
_journal_page_last               1170
_journal_paper_doi               10.1107/S2053229618012597
_journal_volume                  74
_journal_year                    2018
_chemical_formula_analytical     'C6 H6 Li2 O7'
_chemical_formula_moiety         'Li2 H C6 H5 O7'
_chemical_formula_structural     'Li2 H C6 H5 O7'
_chemical_formula_sum            'C6 H6 Li2 O7'
_chemical_formula_weight         203.99
_chemical_name_common            'dilithium hydrogen citrate'
_space_group_IT_number           2
_space_group_name_Hall           '-P 1'
_space_group_name_H-M_alt        'P -1'
_symmetry_cell_setting           triclinic
_symmetry_space_group_name_Hall  '-P 1'
_symmetry_space_group_name_H-M   'P -1'
_audit_creation_date             2017-04-21T14:00
_audit_creation_method           'from EXP file using GSAS2CIF'
_audit_update_record
;
2017-04-21T14:00  Initial CIF as created by GSAS2CIF

2017-05-04 # Formatted by publCIF
;
_cell_angle_alpha                93.898(10)
_cell_angle_beta                 106.056(9)
_cell_angle_gamma                97.624(8)
_cell_formula_units_Z            2
_cell_length_a                   6.5872(8)
_cell_length_b                   6.2997(8)
_cell_length_c                   9.8321(9)
_cell_measurement_temperature    300
_cell_volume                     386.27(8)
_computing_structure_refinement  GSAS
_computing_structure_solution    EXPO2014
_diffrn_ambient_temperature      300
_diffrn_detector                 'Si strip'
_diffrn_detector_type            Xcelerator
_diffrn_measurement_device_type  'PANalytical Empyrean'
_diffrn_radiation_polarisn_ratio 0.5
_diffrn_radiation_probe          x-ray
_diffrn_source                   'sealed X-ray tube'
_diffrn_source_target            Mo
_diffrn_source_type              'PANalytical Empyrean'
_exptl_absorpt_coefficient_mu    0.05
_exptl_absorpt_correction_T_max  1.00000
_exptl_absorpt_correction_T_min  1.00000
_exptl_absorpt_process_details
;   GSAS Absorption/surface roughness correction: function number 0
 No correction is applied.
;
_exptl_crystal_density_diffrn    1.754
_pd_block_id                     2017-04-21T14:00|KADU1690|James_A._Kaduk|nccpan
_pd_calc_method                  'Rietveld Refinement'
_pd_char_colour                  white
_pd_instr_dist_spec/detc         240
_pd_instr_dist_src/spec          240
_pd_meas_2theta_range_inc        0.01671
_pd_meas_2theta_range_max        49.99084
_pd_meas_2theta_range_min        1.0109
_pd_meas_number_of_points        2932
_pd_meas_scan_method             step
_pd_phase_name                   'Li2 H C6 H5 O7'
_pd_prep_temperature             394
_pd_proc_2theta_range_inc        0.01671
_pd_proc_2theta_range_max        49.99084
_pd_proc_2theta_range_min        1.0109
_pd_proc_info_datetime           2017-04-21T14:00:19
_pd_proc_ls_background_function
;   GSAS Background function number 1 with  1 terms.
 Shifted Chebyshev function of 1st kind
      1:    729.094    
;
_pd_proc_ls_peak_cutoff          0.01000
_pd_proc_ls_profile_function
;
 CW Profile function number 4 with  27 terms
 Pseudovoigt profile coefficients as parameterized in
 P. Thompson, D.E. Cox & J.B. Hastings (1987). J. Appl. Cryst.,20,79-83.
 Asymmetry correction of L.W. Finger, D.E. Cox & A. P. Jephcoat (1994).
 J. Appl. Cryst.,27,892-900.
 Microstrain broadening by P.W. Stephens,  (1999). J. Appl. Cryst.,32,281-289.
 #1(GU)   =  186.900 #2(GV)   =    0.000 #3(GW)   =    0.100
 #4(GP)   =    0.000 #5(LX)   =    1.617 #6(ptec) =     0.00
 #7(trns) =     0.00 #8(shft) =   0.0000 #9(sfec) =     0.00
 #10(S/L) =   0.0160 #11(H/L) =   0.0160 #12(eta) =   1.0000
 Peak tails are ignored  where the intensity is below 0.0100 times the peak
   Aniso. broadening axis   0.0   0.0   1.0
;
_pd_proc_ls_prof_R_factor        0.0536
_pd_proc_ls_prof_wR_expected     0.0249
_pd_proc_ls_prof_wR_factor       0.0729
_pd_proc_number_of_points        2932
_pd_spec_mounting                'glass capillary'
_pd_spec_mount_mode              transmission
_pd_spec_shape                   cylinder
_pd_spec_size_axial              12
_pd_spec_size_equat              1
_pd_spec_size_thick              1
_refine_ls_goodness_of_fit_all   3.08
_refine_ls_hydrogen_treatment    refU
_refine_ls_matrix_type           full
_refine_ls_number_parameters     63
_refine_ls_number_restraints     35
_refine_ls_R_Fsqd_factor         0.26200
_refine_ls_shift/su_max          0.03
_refine_ls_shift/su_mean         0.01
_refine_ls_weighting_scheme      sigma
_reflns_d_resolution_high        0.839
_reflns_d_resolution_low         9.391
_reflns_limit_h_max              7
_reflns_limit_h_min              0
_reflns_limit_k_max              7
_reflns_limit_k_min              -7
_reflns_limit_l_max              11
_reflns_limit_l_min              -11
_reflns_number_total             2725
_cod_data_source_file            ov3116sup2.cif
_cod_data_source_block           KADU1690_publ
_cod_original_cell_volume        386.27(4)
_cod_database_code               2311994
_publcif_datablock.id            {f5d1667e-ac3d-4fb4-8d29-af62ab28acdc}
_gsas_exptl_extinct_corr_t_min   1.00000
_gsas_exptl_extinct_corr_t_max   1.00000
_publcif_info_exptl_table_max_cols 4
_publcif_info_exptl_table_use_headnotes n
loop_
_symmetry_equiv_pos_site_id
_symmetry_equiv_pos_as_xyz
1 +x,+y,+z
-1 -x,-y,-z
loop_
_atom_site_type_symbol
_atom_site_label
_atom_site_fract_x
_atom_site_fract_y
_atom_site_fract_z
_atom_site_occupancy
_atom_site_thermal_displace_type
_atom_site_U_iso_or_equiv
_atom_site_symmetry_multiplicity
C C1 1.1217(20) 0.5540(25) 0.3149(13) 1.0 Uiso 0.0786(33) 2
C C2 0.9936(25) 0.6945(28) 0.3772(11) 1.0 Uiso 0.168(11) 2
C C3 0.7861(18) 0.7241(17) 0.2661(10) 1.0 Uiso 0.168(11) 2
C C4 0.7058(23) 0.9190(26) 0.3252(15) 1.0 Uiso 0.168(11) 2
C C5 0.4844(23) 0.9533(23) 0.2436(14) 1.0 Uiso 0.0786(33) 2
C C6 0.8458(28) 0.7754(22) 0.1288(13) 1.0 Uiso 0.0786(33) 2
H H7 1.09510 0.85914 0.41957 1.0 Uiso 0.219(14) 2
H H8 0.94905 0.61729 0.46869 1.0 Uiso 0.219(14) 2
H H9 0.82312 1.07038 0.32739 1.0 Uiso 0.219(14) 2
H H10 0.70165 0.89912 0.43883 1.0 Uiso 0.219(14) 2
O O11 1.3003(20) 0.5239(29) 0.4003(15) 1.0 Uiso 0.0786(33) 2
O O12 1.0236(23) 0.4199(24) 0.2071(14) 1.0 Uiso 0.0786(33) 2
O O13 0.4414(23) 1.1353(20) 0.2736(16) 1.0 Uiso 0.0786(33) 2
O O14 0.3704(21) 0.8412(23) 0.1276(13) 1.0 Uiso 0.0786(33) 2
O O15 0.9264(30) 0.9688(25) 0.1191(18) 1.0 Uiso 0.0786(33) 2
O O16 0.7661(21) 0.6463(22) 0.0174(14) 1.0 Uiso 0.0786(33) 2
O O17 0.6314(30) 0.5348(24) 0.2446(16) 1.0 Uiso 0.0786(33) 2
H H18 0.62636 0.43679 0.3068 1.0 Uiso 0.102(4) 2
Li Li19 0.539(4) 0.389(4) -0.021(6) 1.0 Uiso 0.04 2
Li Li20 1.190(4) 1.071(5) 0.064(6) 1.0 Uiso 0.04 2
H H21 1.31801 0.33148 0.35516 1.0 Uiso 0.05 2
loop_
_atom_type_symbol
_atom_type_number_in_cell
_atom_type_scat_dispersion_real
_atom_type_scat_dispersion_imag
_atom_type_scat_Cromer_Mann_a1
_atom_type_scat_Cromer_Mann_a2
_atom_type_scat_Cromer_Mann_a3
_atom_type_scat_Cromer_Mann_a4
_atom_type_scat_Cromer_Mann_b1
_atom_type_scat_Cromer_Mann_b2
_atom_type_scat_Cromer_Mann_b3
_atom_type_scat_Cromer_Mann_b4
_atom_type_scat_Cromer_Mann_c
_atom_type_scat_source
C 12.0 0.000 0.000 2.31000 20.8439 1.02000 10.2075 1.58860 0.56870 0.86500
51.6512 0.21560 International_Tables_Vol_C
H 12.0 0.000 0.000 0.49300 10.5109 0.32291 26.1257 0.14019 3.14236 0.04081
57.7997 0.00304 International_Tables_Vol_C
O 14.0 0.000 0.000 3.04850 13.2771 2.28680 5.70110 1.54630 0.32390 0.86700
32.9089 0.25080 International_Tables_Vol_C
Li 4.0 0.000 0.000 1.12820 3.95460 0.75080 1.05240 0.61750 85.3905 0.46530
168.261 0.03770 International_Tables_Vol_C
loop_
_diffrn_radiation_wavelength
_diffrn_radiation_wavelength_wt
_diffrn_radiation_type
_diffrn_radiation_wavelength_id
0.709237 1.000 K\a~1~ 1
0.713647 0.500 K\a~2~ 2
loop_
_geom_angle_atom_site_label_1
_geom_angle_atom_site_label_2
_geom_angle_atom_site_label_3
_geom_angle
_geom_angle_site_symmetry_1
_geom_angle_site_symmetry_3
_geom_angle_publ_flag
C2 C1 O11 115.9(8) 1_555 1_555 n
C2 C1 O12 118.3(9) 1_555 1_555 n
O11 C1 O12 121.1(9) 1_555 1_555 n
C1 C2 C3 111.8(6) 1_555 1_555 n
C2 C3 C4 107.1(7) 1_555 1_555 n
C2 C3 C6 107.0(7) 1_555 1_555 n
C2 C3 O17 109.6(8) 1_555 1_555 n
C4 C3 C6 109.5(7) 1_555 1_555 n
C4 C3 O17 110.5(7) 1_555 1_555 n
C6 C3 O17 112.8(7) 1_555 1_555 n
C3 C4 C5 115.4(7) 1_555 1_555 n
C4 C5 O13 114.0(9) 1_555 1_555 n
C4 C5 O14 124.5(8) 1_555 1_555 n
O13 C5 O14 118.7(8) 1_555 1_555 n
C3 C6 O15 119.1(8) 1_555 1_555 n
C3 C6 O16 119.1(7) 1_555 1_555 n
O15 C6 O16 119.3(11) 1_555 1_555 n
C1 O11 H21 102.7(12) 1_555 1_555 n
C5 O13 Li20 85.4(10) 1_555 -1_676 n
C5 O14 Li19 125.9(18) 1_555 -1_665 n
C5 O14 Li20 94.3(19) 1_555 -1_676 n
Li19 O14 Li20 132.6(27) -1_665 -1_676 n
C6 O15 Li20 89.9(12) 1_555 1_554 n
C6 O15 Li20 128.8(14) 1_555 -1_776 n
Li20 O15 Li20 82.9(21) 1_554 -1_776 n
C6 O16 Li19 129.4(15) 1_555 1_555 n
C6 O16 Li19 97.9(17) 1_555 -1_665 n
C6 O16 Li20 78.5(18) 1_555 1_554 n
Li19 O16 Li19 47.6(15) 1_555 -1_665 n
Li19 O16 Li20 137.0(26) 1_555 1_554 n
Li19 O16 Li20 104.2(15) -1_665 1_554 n
C3 O17 H18 126.4(16) 1_555 1_555 n
C3 O17 Li19 91.2(8) 1_555 -1_665 n
H18 O17 Li19 142.4(14) 1_555 -1_665 n
O14 Li19 O16 107.1(8) -1_665 1_555 n
O14 Li19 O16 118.3(12) -1_665 -1_665 n
O14 Li19 O17 83.1(20) -1_665 -1_665 n
O16 Li19 O16 132.4(15) 1_555 -1_665 n
O16 Li19 O17 94.2(23) 1_555 -1_665 n
O16 Li19 O17 78.5(16) -1_665 -1_665 n
O13 Li20 O14 61.5(11) -1_676 -1_676 n
O13 Li20 O15 159.7(15) -1_676 1_556 n
O13 Li20 O15 102.8(24) -1_676 -1_776 n
O13 Li20 O16 101.2(20) -1_676 1_556 n
O14 Li20 O15 110.4(28) -1_676 1_556 n
O14 Li20 O15 102.0(10) -1_676 -1_776 n
O14 Li20 O16 135.2(10) -1_676 1_556 n
O15 Li20 O15 97.1(21) 1_556 -1_776 n
O15 Li20 O16 70.9(11) 1_556 1_556 n
O15 Li20 O16 122.6(10) -1_776 1_556 n
loop_
_geom_bond_atom_site_label_1
_geom_bond_atom_site_label_2
_geom_bond_distance
_geom_bond_site_symmetry_2
_geom_bond_publ_flag
C1 C2 1.5105(30) 1_555 n
C1 O11 1.288(8) 1_555 n
C1 O12 1.268(9) 1_555 n
C2 C1 1.5105(30) 1_555 n
C2 C3 1.5380(30) 1_555 n
C3 C2 1.5380(30) 1_555 n
C3 C4 1.5396(30) 1_555 n
C3 C6 1.5494(30) 1_555 n
C3 O17 1.424(9) 1_555 n
C4 C3 1.5396(30) 1_555 n
C4 C5 1.5095(30) 1_555 n
C5 C4 1.5095(30) 1_555 n
C5 O13 1.252(8) 1_555 n
C5 O14 1.280(8) 1_555 n
C6 C3 1.5494(30) 1_555 n
C6 O15 1.284(8) 1_555 n
C6 O16 1.259(9) 1_555 n
O11 C1 1.288(8) 1_555 n
O11 H21 1.294(17) 1_555 n
O12 C1 1.268(9) 1_555 n
O13 C5 1.252(8) 1_555 n
O13 Li20 2.23(6) -1_676 n
O14 C5 1.280(8) 1_555 n
O14 Li19 1.985(9) -1_665 n
O14 Li20 2.016(9) -1_676 n
O15 C6 1.284(8) 1_555 n
O15 Li20 1.74(5) 1_554 n
O15 Li20 1.993(9) -1_776 n
O16 C6 1.259(9) 1_555 n
O16 Li19 1.993(9) 1_555 n
O16 Li19 2.000(9) -1_665 n
O16 Li20 2.024(8) 1_554 n
O17 C3 1.424(9) 1_555 n
O17 H18 0.902(13) 1_555 n
O17 Li19 2.58(5) 1_555 n
O17 Li19 2.29(7) -1_665 n
H18 O17 0.902(13) 1_555 n
Li19 O14 1.985(9) -1_665 n
Li19 O16 1.993(9) 1_555 n
Li19 O16 2.000(9) -1_665 n
Li19 O17 2.58(5) 1_555 n
Li19 O17 2.29(7) -1_665 n
Li20 O13 2.23(6) -1_676 n
Li20 O14 2.016(9) -1_676 n
Li20 O15 1.74(5) 1_556 n
Li20 O15 1.993(9) -1_776 n
Li20 O16 2.024(8) 1_556 n
H21 O11 1.294(17) 1_555 n
loop_
_pd_meas_counts_total
_pd_proc_ls_weight
_pd_proc_intensity_bkg_calc
_pd_calc_intensity_total
999.0 . . .
951.0 . . .
950.0 . . .
1060.0 . . .
990.0 . . .
1028.0 . . .
1063.0 . . .
1076.0 . . .
1075.0 . . .
1188.0 . . .
1186.0 . . .
1160.0 . . .
1244.0 . . .
1136.0 . . .
1139.0 . . .
1173.0 . . .
1155.0 . . .
1219.0 . . .
1154.0 . . .
1195.0 . . .
1177.0 . . .
1179.0 . . .
1224.0 . . .
1153.0 . . .
1222.0 . . .
1182.0 . . .
1129.0 . . .
1160.0 . . .
1255.0 . . .
1226.0 . . .
1153.0 . . .
1197.0 . . .
1137.0 . . .
1197.0 . . .
1237.0 . . .
1157.0 . . .
1193.0 . . .
1224.0 . . .
1162.0 . . .
1202.0 . . .
1201.0 . . .
1223.0 . . .
1121.0 . . .
1187.0 . . .
1167.0 . . .
1177.0 . . .
1118.0 . . .
1214.0 . . .
1200.0 . . .
1142.0 . . .
1157.0 . . .
1185.0 . . .
1158.0 . . .
1133.0 . . .
1134.0 . . .
1155.0 . . .
1113.0 . . .
1108.0 . . .
1181.0 . . .
1199.0 . . .
1167.0 . . .
1109.0 . . .
1161.0 . . .
1181.0 . . .
1139.0 . . .
1201.0 . . .
1137.0 . . .
1107.0 . . .
1215.0 . . .
1101.0 . . .
1156.0 . . .
1081.0 . . .
1106.0 . . .
1187.0 . . .
1106.0 . . .
1178.0 . . .
1182.0 . . .
1151.0 . . .
1151.0 . . .
1111.0 . . .
1119.0 . . .
1163.0 . . .
1101.0 . . .
1142.0 . . .
1173.0 . . .
1123.0 . . .
1153.0 . . .
1191.0 . . .
1168.0 . . .
1161.0 . . .
1076.0 . . .
1133.0 . . .
1154.0 . . .
1058.0 . . .
1160.0 . . .
1151.0 . . .
1167.0 . . .
1097.0 . . .
1200.0 . . .
1153.0 . . .
1104.0 . . .
1112.0 . . .
1150.0 . . .
1118.0 . . .
1149.0 . . .
1134.0 . . .
1135.0 . . .
1077.0 . . .
1216.0 . . .
1112.0 . . .
1186.0 . . .
1120.0 . . .
1194.0 . . .
1158.0 . . .
1202.0 . . .
1129.0 . . .
1166.0 . . .
1151.0 . . .
1120.0 . . .
1152.0 . . .
1141.0 0.000876 729.09399 1241.70142
1157.0 0.000864 729.09399 1238.36719
1197.0 0.000835 729.09399 1235.06091
1152.0 0.000868 729.09399 1231.77576
1127.0 0.000887 729.09399 1228.52063
1144.0 0.000874 729.09399 1225.28442
1139.0 0.000878 729.09399 1222.08350
1227.0 0.000815 729.09399 1218.90405
1166.0 0.000858 729.09399 1215.75073
1207.0 0.000829 729.09399 1212.62585
1238.0 0.000808 729.09399 1209.53186
1250.0 0.000800 729.09399 1206.45898
1218.0 0.000821 729.09399 1203.42578
1290.0 0.000775 729.09399 1200.41467
1369.0 0.000730 729.09399 1197.43359
1424.0 0.000702 729.09399 1194.48254
1301.0 0.000769 729.09399 1191.56226
1241.0 0.000806 729.09399 1188.67188
1149.0 0.000870 729.09399 1185.81433
1086.0 0.000921 729.09399 1182.98828
1084.0 0.000923 729.09399 1180.19336
1163.0 0.000860 729.09399 1177.43005
1142.0 0.000876 729.09399 1174.70032
1126.0 0.000888 729.09399 1172.00317
1136.0 0.000880 729.09399 1169.34290
1115.0 0.000897 729.09399 1166.71167
1160.0 0.000862 729.09399 1164.11621
1149.0 0.000870 729.09399 1161.55884
1144.0 0.000874 729.09399 1159.03223
1075.0 0.000930 729.09399 1156.54419
1140.0 0.000877 729.09399 1154.08557
1113.0 0.000898 729.09399 1151.66748
1150.0 0.000870 729.09399 1149.28711
1127.0 0.000887 729.09399 1146.94055
1166.0 0.000858 729.09399 1144.63135
1130.0 0.000885 729.09399 1142.35657
1160.0 0.000862 729.09399 1140.12305
1162.0 0.000861 729.09399 1137.92529
1117.0 0.000895 729.09399 1135.77075
1195.0 0.000837 729.09399 1133.64771
1192.0 0.000839 729.09399 1131.56909
1105.0 0.000905 729.09399 1129.52844
1166.0 0.000858 729.09399 1127.52466
1131.0 0.000884 729.09399 1125.56567
1160.0 0.000862 729.09399 1123.63867
1211.0 0.000826 729.09399 1121.75659
1206.0 0.000829 729.09399 1132.72900
1165.0 0.000858 729.09399 1132.12341
1170.0 0.000855 729.09399 1138.29858
1177.0 0.000850 729.09399 1138.89063
1219.0 0.000820 729.09399 1140.01672
1179.0 0.000848 729.09399 1141.90564
1174.0 0.000852 729.09399 1144.97815
1278.0 0.000782 729.09399 1150.37756
1168.0 0.000856 729.09399 1162.17822
1347.0 0.000742 729.09399 1184.65247
1290.0 0.000775 729.09399 1219.11792
1343.0 0.000745 729.09399 1258.35059
1384.0 0.000723 729.09399 1317.75549
1397.0 0.000716 729.09399 1367.57959
1450.0 0.000690 729.09399 1425.08032
1398.0 0.000715 729.09399 1507.73572
1572.0 0.000636 729.09399 1572.46521
1678.0 0.000596 729.09399 1644.31506
1673.0 0.000598 729.09399 1752.33679
1752.0 0.000571 729.09399 1853.63513
1873.0 0.000534 729.09399 1947.87000
1955.0 0.000512 729.09399 2076.09741
2064.0 0.000484 729.09399 2233.26074
2213.0 0.000452 729.09399 2400.73438
2446.0 0.000409 729.09399 2587.57080
2688.0 0.000372 729.09399 2812.64673
3004.0 0.0003329 729.09399 3089.14648
3187.0 0.0003138 729.09399 3433.28955
4052.0 0.0002468 729.09399 3875.40967
4537.0 0.0002204 729.09399 4469.19189
5673.0 0.0001763 729.09399 5327.97900
7109.0 0.0001407 729.09399 6693.94580
7632.0 0.0001310 729.09399 8138.90039
6263.0 0.0001597 729.09399 6568.36426
4544.0 0.0002201 729.09399 4600.59912
2746.0 0.000364 729.09399 2615.95874
1741.0 0.000574 729.09399 1776.07922
1402.0 0.000713 729.09399 1494.95581
1257.0 0.000796 729.09399 1363.15601
1285.0 0.000778 729.09399 1287.57190
1188.0 0.000842 729.09399 1239.68628
1170.0 0.000855 729.09399 1207.24084
1114.0 0.000898 729.09399 1184.15735
1146.0 0.000873 729.09399 1167.12073
1205.0 0.000830 729.09399 1154.18896
1184.0 0.000845 729.09399 1144.14893
1107.0 0.000903 729.09399 1136.21790
1156.0 0.000865 729.09399 1100.43982
1127.0 0.000887 729.09399 1098.55371
1138.0 0.000879 729.09399 1083.16992
1073.0 0.000932 729.09399 1083.56311
1175.0 0.000851 729.09399 1084.00269
1121.0 0.000892 729.09399 1084.48840
1138.0 0.000879 729.09399 1085.02344
1144.0 0.000874 729.09399 1085.60339
1140.0 0.000877 729.09399 1086.22974
1085.0 0.000922 729.09399 1086.90137
1057.0 0.000946 729.09399 1087.61658
1136.0 0.000880 729.09399 1088.38513
1126.0 0.000888 729.09399 1089.19250
1109.0 0.000902 729.09399 1090.04993
1110.0 0.000901 729.09399 1090.95056
1142.0 0.000876 729.09399 1091.90002
1139.0 0.000878 729.09399 1092.89502
1179.0 0.000848 729.09399 1093.93359
1101.0 0.000908 729.09399 1095.01563
1189.0 0.000841 729.09399 1096.15002
1117.0 0.000895 729.09399 1097.32446
1097.0 0.000912 729.09399 1098.54468
1120.0 0.000893 729.09399 1099.81506
1166.0 0.000858 729.09399 1101.12537
1054.0 0.000949 729.09399 1102.48035
1190.0 0.000840 729.09399 1103.88501
1122.0 0.000891 729.09399 1105.33020
1135.0 0.000881 729.09399 1106.81946
1210.0 0.000826 729.09399 1108.35498
1103.0 0.000907 729.09399 1109.93433
1155.0 0.000866 729.09399 1111.55676
1170.0 0.000855 729.09399 1113.22266
1101.0 0.000908 729.09399 1114.93262
1140.0 0.000877 729.09399 1116.68530
1110.0 0.000901 729.09399 1118.48364
1123.0 0.000890 729.09399 1120.32190
1136.0 0.000880 729.09399 1122.20862
1153.0 0.000867 729.09399 1124.13110
1168.0 0.000856 729.09399 1126.10071
1114.0 0.000898 729.09399 1128.11145
1185.0 0.000844 729.09399 1130.16235
1151.0 0.000869 729.09399 1132.25769
1115.0 0.000897 729.09399 1134.39380
1124.0 0.000890 729.09399 1136.56812
1171.0 0.000854 729.09399 1138.78894
1130.0 0.000885 729.09399 1141.04736
1188.0 0.000842 729.09399 1143.34888
1248.0 0.000801 729.09399 1145.68823
1146.0 0.000873 729.09399 1148.07104
1122.0 0.000891 729.09399 1150.49048
1112.0 0.000899 729.09399 1152.95142
1105.0 0.000905 729.09399 1155.45154
1182.0 0.000846 729.09399 1157.99292
1197.0 0.000835 729.09399 1160.57190
1212.0 0.000825 729.09399 1163.18579
1197.0 0.000835 729.09399 1165.84338
1179.0 0.000848 729.09399 1168.53528
1163.0 0.000860 729.09399 1171.26648
1195.0 0.000837 729.09399 1174.03564
1184.0 0.000845 729.09399 1176.84180
1158.0 0.000864 729.09399 1179.68481
1223.0 0.000818 729.09399 1182.56323
1179.0 0.000848 729.09399 1185.47864
1204.0 0.000831 729.09399 1188.42883
1212.0 0.000825 729.09399 1191.41687
1190.0 0.000840 729.09399 1194.43933
1197.0 0.000835 729.09399 1197.49573
1271.0 0.000787 729.09399 1200.58862
1234.0 0.000810 729.09399 1203.71375
1249.0 0.000801 729.09399 1206.87402
1193.0 0.000838 729.09399 1210.06860
1169.0 0.000855 729.09399 1213.29980
1228.0 0.000814 729.09399 1216.56006
1191.0 0.000840 729.09399 1219.85510
1234.0 0.000810 729.09399 1223.17944
1144.0 0.000874 729.09399 1226.53857
1175.0 0.000851 729.09399 1229.92725
1251.0 0.000799 729.09399 1233.34973
1216.0 0.000822 729.09399 1236.79993
1162.0 0.000861 729.09399 1240.28125
1246.0 0.000803 729.09399 1243.79639
1182.0 0.000846 729.09399 1247.33667
1257.0 0.000796 729.09399 1250.90991
1212.0 0.000825 729.09399 1255.48804
1191.0 0.000840 729.09399 1259.16895
1266.0 0.000790 729.09399 1263.35718
1290.0 0.000775 729.09399 1267.12610
1211.0 0.000826 729.09399 1270.92810
1252.0 0.000799 729.09399 1274.76355
1260.0 0.000794 729.09399 1278.63892
1240.0 0.000806 729.09399 1282.55164
1207.0 0.000829 729.09399 1286.49585
1258.0 0.000795 729.09399 1290.57727
1223.0 0.000818 729.09399 1294.61206
1200.0 0.000833 729.09399 1298.73401
1312.0 0.000762 729.09399 1310.12988
1251.0 0.000799 729.09399 1315.17810
1293.0 0.000773 729.09399 1323.89783
1212.0 0.000825 729.09399 1329.89368
1296.0 0.000772 729.09399 1336.40051
1203.0 0.000831 729.09399 1343.65259
1384.0 0.000723 729.09399 1352.08911
1406.0 0.000711 729.09399 1362.63879
1319.0 0.000758 729.09399 1377.20325
1387.0 0.000721 729.09399 1396.26746
1377.0 0.000726 729.09399 1417.83557
1438.0 0.000695 729.09399 1450.57324
1372.0 0.000729 729.09399 1482.68640
1500.0 0.000667 729.09399 1521.31641
1600.0 0.000625 729.09399 1573.56445
1599.0 0.000625 729.09399 1620.12085
1616.0 0.000619 729.09399 1690.26428
1735.0 0.000576 729.09399 1762.58240
1836.0 0.000545 729.09399 1857.25269
1981.0 0.000505 729.09399 1973.81897
2213.0 0.000452 729.09399 2117.54761
2533.0 0.000395 729.09399 2313.76440
2961.0 0.0003377 729.09399 2537.95923
3219.0 0.0003107 729.09399 2686.75610
3062.0 0.0003266 729.09399 2525.94995
2627.0 0.000381 729.09399 2301.51563
2378.0 0.000421 729.09399 2111.43774
1998.0 0.000501 729.09399 1903.66614
1672.0 0.000598 729.09399 1788.61731
1622.0 0.000617 729.09399 1755.67773
1595.0 0.000627 729.09399 1756.88892
1558.0 0.000642 729.09399 1755.18835
1540.0 0.000649 729.09399 1735.55408
1545.0 0.000647 729.09399 1699.66931
1511.0 0.000662 729.09399 1654.78040
1409.0 0.000710 729.09399 1610.43433
1509.0 0.000663 729.09399 1575.01563
1451.0 0.000689 729.09399 1549.78149
1418.0 0.000705 729.09399 1534.46484
1433.0 0.000698 729.09399 1525.74182
1517.0 0.000659 729.09399 1521.17700
1487.0 0.000672 729.09399 1519.24963
1524.0 0.000656 729.09399 1519.06677
1506.0 0.000664 729.09399 1520.09521
1406.0 0.000711 729.09399 1522.00989
1485.0 0.000673 729.09399 1524.59998
1463.0 0.000684 729.09399 1527.72766
1470.0 0.000680 729.09399 1531.29565
1506.0 0.000664 729.09399 1535.23730
1480.0 0.000676 729.09399 1539.52307
1510.0 0.000662 729.09399 1544.11951
1511.0 0.000662 729.09399 1549.02466
1551.0 0.000645 729.09399 1554.23718
1533.0 0.000652 729.09399 1559.77942
1555.0 0.000643 729.09399 1565.68127
1558.0 0.000642 729.09399 1571.99902
1565.0 0.000639 729.09399 1578.80188
1555.0 0.000643 729.09399 1586.20276
1584.0 0.000631 729.09399 1594.36499
1600.0 0.000625 729.09399 1603.53088
1625.0 0.000615 729.09399 1614.07861
1651.0 0.000606 729.09399 1626.63074
1538.0 0.000650 729.09399 1640.63623
1653.0 0.000605 729.09399 1660.68445
1594.0 0.000627 729.09399 1686.87219
1707.0 0.000586 729.09399 1716.47498
1626.0 0.000615 729.09399 1751.60071
1665.0 0.000601 729.09399 1787.48340
1764.0 0.000567 729.09399 1834.77832
1715.0 0.000583 729.09399 1901.44934
1830.0 0.000546 729.09399 1982.34644
1879.0 0.000532 729.09399 2060.61670
1967.0 0.000508 729.09399 2143.94556
2058.0 0.000486 729.09399 2262.66187
2284.0 0.000438 729.09399 2397.56592
2443.0 0.000409 729.09399 2501.81226
2564.0 0.000390 729.09399 2568.36401
2643.0 0.000378 729.09399 2553.55786
2530.0 0.000395 729.09399 2441.76514
2431.0 0.000411 729.09399 2306.13696
2197.0 0.000455 729.09399 2165.20581
2110.0 0.000474 729.09399 2030.11108
1917.0 0.000522 729.09399 1927.55237
1859.0 0.000538 729.09399 1859.61267
1812.0 0.000552 729.09399 1816.38110
1760.0 0.000568 729.09399 1788.88135
1816.0 0.000551 729.09399 1771.14331
1855.0 0.000539 729.09399 1759.55750
1927.0 0.000519 729.09399 1751.98706
1917.0 0.000522 729.09399 1747.16309
1996.0 0.000501 729.09399 1744.29150
2000.0 0.000500 729.09399 1742.84656
1950.0 0.000513 729.09399 1742.46716
1967.0 0.000508 729.09399 1742.90552
1913.0 0.000523 729.09399 1743.97339
1912.0 0.000523 729.09399 1745.53735
1922.0 0.000520 729.09399 1747.49426
1854.0 0.000539 729.09399 1749.76782
1840.0 0.000543 729.09399 1752.29846
1839.0 0.000544 729.09399 1755.03674
1788.0 0.000559 729.09399 1757.94788
1971.0 0.000507 729.09399 1796.50781
1914.0 0.000522 729.09399 1803.43738
1911.0 0.000523 729.09399 1811.12292
2001.0 0.000500 729.09399 1837.16162
2008.0 0.000498 729.09399 1848.71448
1921.0 0.000521 729.09399 1862.02734
2128.0 0.000470 729.09399 1877.65564
2117.0 0.000472 729.09399 1891.11804
2197.0 0.000455 729.09399 1914.76331
2157.0 0.000464 729.09399 1945.60510
2356.0 0.000424 729.09399 1988.01709
2330.0 0.000429 729.09399 2065.17114
2479.0 0.000403 729.09399 2198.00366
2560.0 0.000391 729.09399 2383.41089
2822.0 0.000354 729.09399 2655.77808
2991.0 0.0003343 729.09399 2979.04932
3318.0 0.0003014 729.09399 3398.63135
3740.0 0.0002674 729.09399 3932.12988
4277.0 0.0002338 729.09399 4549.86914
5077.0 0.0001970 729.09399 5396.17529
6239.0 0.0001603 729.09399 6480.94873
8113.0 0.0001233 729.09399 8060.59570
10851.0 0.0000922 729.09399 10260.89453
12354.0 0.0000809 729.09399 12230.38477
10859.0 0.0000921 729.09399 11045.41113
8357.0 0.0001197 729.09399 8467.12988
7462.0 0.0001340 729.09399 7489.63867
6492.0 0.0001540 729.09399 6121.43848
4584.0 0.0002182 729.09399 4154.91553
3020.0 0.0003311 729.09399 3122.65039
2541.0 0.000394 729.09399 2760.97559
2526.0 0.000396 729.09399 2647.35327
2514.0 0.000398 729.09399 2628.55933
2615.0 0.000382 729.09399 2672.74268
2736.0 0.000365 729.09399 2779.89917
2869.0 0.0003486 729.09399 2971.42212
3054.0 0.0003274 729.09399 3284.56567
3161.0 0.0003164 729.09399 3595.49487
3075.0 0.0003252 729.09399 3493.61792
3281.0 0.0003048 729.09399 3285.11890
3278.0 0.0003051 729.09399 3481.96094
3438.0 0.0002909 729.09399 3634.25977
3678.0 0.0002719 729.09399 3786.93066
4163.0 0.0002402 729.09399 4170.58838
4893.0 0.0002044 729.09399 4812.90576
5848.0 0.0001710 729.09399 5689.36426
7467.0 0.0001339 729.09399 6894.81641
9418.0 0.0001062 729.09399 8571.70313
10323.0 0.0000969 729.09399 10046.52930
9463.0 0.0001057 729.09399 9497.39063
7748.0 0.0001291 729.09399 7610.06250
6887.0 0.0001452 729.09399 6742.37744
6113.0 0.0001636 729.09399 5978.43750
4915.0 0.0002035 729.09399 4561.30566
4023.0 0.0002486 729.09399 3642.32227
3700.0 0.0002703 729.09399 3360.33301
3903.0 0.0002562 729.09399 3358.74390
3730.0 0.0002681 729.09399 3263.36792
3406.0 0.0002936 729.09399 3054.88599
3221.0 0.0003105 729.09399 2997.78687
3147.0 0.0003178 729.09399 2989.17578
3069.0 0.0003258 729.09399 2928.23804
2841.0 0.000352 729.09399 2965.13745
2775.0 0.000360 729.09399 3110.53589
2816.0 0.000355 729.09399 3274.05078
3010.0 0.0003322 729.09399 3422.78027
3183.0 0.0003142 729.09399 3572.83618
3030.0 0.0003300 729.09399 3620.91650
2771.0 0.000361 729.09399 3482.21729
2656.0 0.000377 729.09399 3276.39648
2633.0 0.000380 729.09399 3083.62793
2493.0 0.000401 729.09399 2872.48877
2300.0 0.000435 729.09399 2659.29126
2270.0 0.000441 729.09399 2488.85303
2235.0 0.000447 729.09399 2368.95581
2279.0 0.000439 729.09399 2287.81494
2196.0 0.000455 729.09399 2232.85962
2191.0 0.000456 729.09399 2194.84937
2301.0 0.000435 729.09399 2167.69189
2402.0 0.000416 729.09399 2147.62549
2346.0 0.000426 729.09399 2132.40283
2335.0 0.000428 729.09399 2120.43945
2342.0 0.000427 729.09399 2110.60498
2259.0 0.000443 729.09399 2102.46997
2185.0 0.000458 729.09399 2095.81982
2249.0 0.000445 729.09399 2090.32813
2097.0 0.000477 729.09399 2085.76709
2139.0 0.000468 729.09399 2082.05981
2226.0 0.000449 729.09399 2079.11792
2049.0 0.000488 729.09399 2076.81641
2146.0 0.000466 729.09399 2076.96899
2094.0 0.000478 729.09399 2075.79492
2065.0 0.000484 729.09399 2074.99072
2097.0 0.000477 729.09399 2074.50537
2186.0 0.000457 729.09399 2075.28931
2073.0 0.000482 729.09399 2075.43994
2133.0 0.000469 729.09399 2075.85327
2191.0 0.000456 729.09399 2076.52979
2076.0 0.000482 729.09399 2081.45654
2203.0 0.000454 729.09399 2083.02686
2196.0 0.000455 729.09399 2085.05078
2217.0 0.000451 729.09399 2087.72534
2170.0 0.000461 729.09399 2138.31104
2091.0 0.000478 729.09399 2150.18311
2218.0 0.000451 729.09399 2169.96875
2227.0 0.000449 729.09399 2220.25537
2221.0 0.000450 729.09399 2262.56079
2384.0 0.000419 729.09399 2316.04932
2389.0 0.000419 729.09399 2375.59863
2477.0 0.000404 729.09399 2467.17578
2582.0 0.000387 729.09399 2589.37305
2794.0 0.000358 729.09399 2764.35059
2991.0 0.0003343 729.09399 3033.21704
3208.0 0.0003117 729.09399 3372.25684
3322.0 0.0003010 729.09399 3413.92529
3250.0 0.0003077 729.09399 3167.86523
3403.0 0.0002939 729.09399 3230.92285
3534.0 0.0002830 729.09399 3490.83472
3910.0 0.0002558 729.09399 3631.86890
4070.0 0.0002457 729.09399 3890.76855
4338.0 0.0002305 729.09399 4365.12354
4882.0 0.0002048 729.09399 5005.24365
5749.0 0.0001739 729.09399 5979.75928
7176.0 0.0001394 729.09399 7082.77881
8240.0 0.0001214 729.09399 8150.97607
8674.0 0.0001153 729.09399 8492.48438
7816.0 0.0001279 729.09399 7762.98535
6767.0 0.0001478 729.09399 6859.32227
5953.0 0.0001680 729.09399 6385.44873
5527.0 0.0001809 729.09399 5832.28857
4833.0 0.0002069 729.09399 4956.33154
3938.0 0.0002539 729.09399 4146.79688
3116.0 0.0003209 729.09399 3578.89819
2727.0 0.000367 729.09399 3230.42065
2581.0 0.000387 729.09399 3002.08057
2513.0 0.000398 729.09399 2811.80200
2416.0 0.000414 729.09399 2646.08643
2354.0 0.000425 729.09399 2528.26660
2250.0 0.000444 729.09399 2452.37671
2274.0 0.000440 729.09399 2406.37671
2208.0 0.000453 729.09399 2381.55737
2319.0 0.000431 729.09399 2373.78564
2357.0 0.000424 729.09399 2374.21240
2543.0 0.000393 729.09399 2375.57544
2559.0 0.000391 729.09399 2374.95801
2567.0 0.000390 729.09399 2365.87402
2525.0 0.000396 729.09399 2343.75439
2381.0 0.000420 729.09399 2315.74097
2366.0 0.000423 729.09399 2293.66528
2321.0 0.000431 729.09399 2267.04907
2364.0 0.000423 729.09399 2239.49023
2234.0 0.000448 729.09399 2214.66626
2139.0 0.000468 729.09399 2197.34985
2153.0 0.000464 729.09399 2153.18506
2254.0 0.000444 729.09399 2144.25024
2154.0 0.000464 729.09399 2137.77881
2106.0 0.000475 729.09399 2132.98706
2108.0 0.000474 729.09399 2126.14600
2163.0 0.000462 729.09399 2123.57910
2092.0 0.000478 729.09399 2121.57056
2148.0 0.000466 729.09399 2119.98755
2136.0 0.000468 729.09399 2118.73291
2036.0 0.000491 729.09399 2117.74536
2114.0 0.000473 729.09399 2116.97461
2111.0 0.000474 729.09399 2116.38989
2144.0 0.000466 729.09399 2115.96777
2108.0 0.000474 729.09399 2115.69067
2178.0 0.000459 729.09399 2115.54907
2129.0 0.000470 729.09399 2115.53516
2149.0 0.000465 729.09399 2115.64526
2092.0 0.000478 729.09399 2115.88135
2213.0 0.000452 729.09399 2116.24536
2120.0 0.000472 729.09399 2116.74463
2110.0 0.000474 729.09399 2117.38647
2197.0 0.000455 729.09399 2118.18530
2084.0 0.000480 729.09399 2119.15747
2106.0 0.000475 729.09399 2114.84888
2144.0 0.000466 729.09399 2116.48169
2222.0 0.000450 729.09399 2118.34985
2188.0 0.000457 729.09399 2120.49365
2205.0 0.000454 729.09399 2122.30347
2177.0 0.000459 729.09399 2125.39355
2341.0 0.000427 729.09399 2128.76611
2469.0 0.000405 729.09399 2132.69751
2258.0 0.000443 729.09399 2137.30640
2310.0 0.000433 729.09399 2142.74756
2312.0 0.000433 729.09399 2205.34863
2276.0 0.000439 729.09399 2218.59937
2332.0 0.000429 729.09399 2234.36011
2284.0 0.000438 729.09399 2253.31812
2274.0 0.000440 729.09399 2303.53320
2321.0 0.000431 729.09399 2334.66602
2338.0 0.000428 729.09399 2373.41357
2380.0 0.000420 729.09399 2422.31152
2372.0 0.000422 729.09399 2484.77222
2527.0 0.000396 729.09399 2565.14478
2585.0 0.000387 729.09399 2668.39404
2759.0 0.000362 729.09399 2798.80640
2838.0 0.000352 729.09399 2959.00513
3074.0 0.0003253 729.09399 3156.65210
3358.0 0.0002978 729.09399 3424.94946
3644.0 0.0002744 729.09399 3830.32690
4235.0 0.0002361 729.09399 4420.73486
4945.0 0.0002022 729.09399 5180.61426
5906.0 0.0001693 729.09399 6164.34619
7226.0 0.0001384 729.09399 7364.21191
9482.0 0.0001055 729.09399 9093.97266
13192.0 0.0000758 729.09399 11576.49512
16185.0 0.0000618 729.09399 14929.42188
17920.0 0.0000558 729.09399 17908.71680
16347.0 0.0000612 729.09399 17379.06641
13828.0 0.0000723 729.09399 13430.41895
11879.0 0.0000842 729.09399 10940.13379
10634.0 0.0000940 729.09399 10513.27637
9564.0 0.0001046 729.09399 9768.86719
7363.0 0.0001358 729.09399 7233.33496
5160.0 0.0001938 729.09399 4867.87500
3767.0 0.0002655 729.09399 3617.87085
2892.0 0.0003458 729.09399 3074.69360
2616.0 0.000382 729.09399 2808.63574
2466.0 0.000406 729.09399 2644.37085
2369.0 0.000422 729.09399 2530.33472
2424.0 0.000413 729.09399 2447.81763
2204.0 0.000454 729.09399 2386.02026
2240.0 0.000446 729.09399 2338.33545
2282.0 0.000438 729.09399 2300.62866
2115.0 0.000473 729.09399 2270.27686
2303.0 0.000434 729.09399 2245.58936
2149.0 0.000465 729.09399 2225.49414
2247.0 0.000445 729.09399 2209.40112
2165.0 0.000462 729.09399 2197.12720
2136.0 0.000468 729.09399 2188.77515
2111.0 0.000474 729.09399 2184.26709
2226.0 0.000449 729.09399 2184.16211
2018.0 0.000496 729.09399 2188.51611
2124.0 0.000471 729.09399 2199.24805
2172.0 0.000460 729.09399 2213.60938
2093.0 0.000478 729.09399 2231.46118
2130.0 0.000469 729.09399 2245.31250
2130.0 0.000469 729.09399 2241.38232
2156.0 0.000464 729.09399 2218.22363
2147.0 0.000466 729.09399 2193.52832
2082.0 0.000480 729.09399 2177.35913
2149.0 0.000465 729.09399 2162.65283
1955.0 0.000512 729.09399 2142.16724
2024.0 0.000494 729.09399 2119.20679
2134.0 0.000469 729.09399 2100.80811
2227.0 0.000449 729.09399 2087.98291
2189.0 0.000457 729.09399 2091.99658
2166.0 0.000462 729.09399 2087.83179
2194.0 0.000456 729.09399 2085.45703
2228.0 0.000449 729.09399 2084.71606
2256.0 0.000443 729.09399 2091.61768
2164.0 0.000462 729.09399 2096.13696
2272.0 0.000440 729.09399 2105.50195
2300.0 0.000435 729.09399 2123.43237
2254.0 0.000444 729.09399 2155.20166
2256.0 0.000443 729.09399 2198.36694
2302.0 0.000434 729.09399 2265.89355
2339.0 0.000428 729.09399 2369.46411
2516.0 0.000397 729.09399 2504.85498
2707.0 0.000369 729.09399 2679.87964
2949.0 0.0003391 729.09399 2902.48340
3118.0 0.0003207 729.09399 3069.66162
3184.0 0.0003141 729.09399 3015.25732
3021.0 0.0003310 729.09399 2791.08691
2810.0 0.000356 729.09399 2645.52026
2681.0 0.000373 729.09399 2607.98560
2597.0 0.000385 729.09399 2575.76563
2646.0 0.000378 729.09399 2448.52148
2517.0 0.000397 729.09399 2298.58960
2324.0 0.000430 729.09399 2206.37354
2255.0 0.000443 729.09399 2170.27832
2229.0 0.000449 729.09399 2160.74146
2237.0 0.000447 729.09399 2180.87305
2366.0 0.000423 729.09399 2193.39575
2275.0 0.000440 729.09399 2206.42603
2346.0 0.000426 729.09399 2206.12158
2299.0 0.000435 729.09399 2191.48267
2164.0 0.000462 729.09399 2180.16895
2049.0 0.000488 729.09399 2164.21729
2104.0 0.000475 729.09399 2149.91162
2114.0 0.000473 729.09399 2132.91919
2087.0 0.000479 729.09399 2124.64868
2128.0 0.000470 729.09399 2108.13843
2097.0 0.000477 729.09399 2097.67041
2064.0 0.000484 729.09399 2090.62964
2119.0 0.000472 729.09399 2087.76123
2085.0 0.000480 729.09399 2092.96582
2140.0 0.000467 729.09399 2095.50293
2041.0 0.000490 729.09399 2101.22192
2143.0 0.000467 729.09399 2108.22852
2187.0 0.000457 729.09399 2116.51831
2052.0 0.000487 729.09399 2125.00781
2168.0 0.000461 729.09399 2133.75854
2049.0 0.000488 729.09399 2144.98535
2056.0 0.000486 729.09399 2161.27441
2094.0 0.000478 729.09399 2184.13721
2179.0 0.000459 729.09399 2213.86938
2082.0 0.000480 729.09399 2249.56519
2173.0 0.000460 729.09399 2290.51440
2339.0 0.000428 729.09399 2340.36279
2396.0 0.000417 729.09399 2403.03711
2501.0 0.000400 729.09399 2470.22412
2491.0 0.000401 729.09399 2528.07324
2683.0 0.000373 729.09399 2577.66162
2721.0 0.000368 729.09399 2643.77441
2813.0 0.000355 729.09399 2738.90137
2811.0 0.000356 729.09399 2836.75024
2903.0 0.0003445 729.09399 2889.84790
2986.0 0.0003349 729.09399 2907.89111
2956.0 0.0003383 729.09399 2966.06152
3051.0 0.0003278 729.09399 3111.05933
3328.0 0.0003005 729.09399 3316.80420
3537.0 0.0002827 729.09399 3474.74023
3719.0 0.0002689 729.09399 3539.60254
3735.0 0.0002677 729.09399 3479.72192
3500.0 0.0002857 729.09399 3366.16406
3280.0 0.0003049 729.09399 3314.10181
3264.0 0.0003064 729.09399 3327.22241
3366.0 0.0002971 729.09399 3375.42261
3465.0 0.0002886 729.09399 3420.79517
3668.0 0.0002726 729.09399 3492.06836
3719.0 0.0002689 729.09399 3649.39087
3940.0 0.0002538 729.09399 3914.06177
4264.0 0.0002345 729.09399 4272.15234
4790.0 0.0002088 729.09399 4686.35156
5035.0 0.0001986 729.09399 5109.21777
5782.0 0.0001730 729.09399 5496.77393
6141.0 0.0001628 729.09399 5786.89990
6714.0 0.0001489 729.09399 5914.79102
6700.0 0.0001493 729.09399 5830.89063
6179.0 0.0001618 729.09399 5608.60986
5601.0 0.0001785 729.09399 5332.74463
4951.0 0.0002020 729.09399 5040.94189
4672.0 0.0002140 729.09399 4727.76416
4362.0 0.0002293 729.09399 4376.01172
4013.0 0.0002492 729.09399 4024.11987
3680.0 0.0002717 729.09399 3718.03979
3428.0 0.0002917 729.09399 3486.96948
3264.0 0.0003064 729.09399 3345.53613
3319.0 0.0003013 729.09399 3283.10693
3426.0 0.0002919 729.09399 3300.81689
3803.0 0.0002630 729.09399 3418.70020
4219.0 0.0002370 729.09399 3586.91357
4633.0 0.0002158 729.09399 3706.79907
4488.0 0.0002228 729.09399 3695.38794
3878.0 0.0002579 729.09399 3505.79199
3424.0 0.0002921 729.09399 3307.86084
3350.0 0.0002985 729.09399 3202.86597
3353.0 0.0002982 729.09399 3138.61597
3271.0 0.0003057 729.09399 3041.42578
2863.0 0.0003493 729.09399 2878.11743
2595.0 0.000385 729.09399 2721.98682
2369.0 0.000422 729.09399 2644.70093
2234.0 0.000448 729.09399 2625.53882
2299.0 0.000435 729.09399 2655.63037
2300.0 0.000435 729.09399 2732.38159
2430.0 0.000412 729.09399 2848.76685
2590.0 0.000386 729.09399 2992.85571
2903.0 0.0003445 729.09399 3148.53613
3135.0 0.0003190 729.09399 3311.69604
3253.0 0.0003074 729.09399 3421.30444
3048.0 0.0003281 729.09399 3408.75391
3064.0 0.0003264 729.09399 3294.91968
2965.0 0.0003373 729.09399 3162.33496
2816.0 0.000355 729.09399 3061.65210
2792.0 0.000358 729.09399 2986.73389
2687.0 0.000372 729.09399 2887.54712
2541.0 0.000394 729.09399 2767.25977
2527.0 0.000396 729.09399 2663.92114
2420.0 0.000413 729.09399 2610.48877
2467.0 0.000405 729.09399 2623.08691
2560.0 0.000391 729.09399 2691.94653
2875.0 0.0003478 729.09399 2823.21704
3045.0 0.0003284 729.09399 3033.65918
3310.0 0.0003021 729.09399 3267.48145
3442.0 0.0002905 729.09399 3424.25806
3221.0 0.0003105 729.09399 3415.18970
3097.0 0.0003229 729.09399 3231.14185
3007.0 0.0003326 729.09399 3060.69971
2755.0 0.000363 729.09399 3006.39990
2740.0 0.000365 729.09399 3012.88232
2637.0 0.000379 729.09399 2896.27026
2453.0 0.000408 729.09399 2684.12109
2286.0 0.000437 729.09399 2485.03442
2159.0 0.000463 729.09399 2358.81201
2058.0 0.000486 729.09399 2306.59717
2018.0 0.000496 729.09399 2251.08813
2072.0 0.000483 729.09399 2205.62598
1977.0 0.000506 729.09399 2186.46655
2069.0 0.000483 729.09399 2182.18896
2106.0 0.000475 729.09399 2195.60693
2150.0 0.000465 729.09399 2215.12402
2046.0 0.000489 729.09399 2238.44727
2182.0 0.000458 729.09399 2266.67896
2189.0 0.000457 729.09399 2292.17700
2198.0 0.000455 729.09399 2313.85205
2288.0 0.000437 729.09399 2315.63184
2147.0 0.000466 729.09399 2294.96851
2229.0 0.000449 729.09399 2263.03833
2207.0 0.000453 729.09399 2233.48389
2178.0 0.000459 729.09399 2238.63623
2195.0 0.000456 729.09399 2223.51221
2099.0 0.000476 729.09399 2205.02148
2113.0 0.000473 729.09399 2187.14136
2074.0 0.000482 729.09399 2174.02197
2191.0 0.000456 729.09399 2184.63818
2314.0 0.000432 729.09399 2198.21069
2191.0 0.000456 729.09399 2230.19897
2191.0 0.000456 729.09399 2288.69629
2342.0 0.000427 729.09399 2387.48193
2356.0 0.000424 729.09399 2541.75146
2510.0 0.000398 729.09399 2766.37549
2795.0 0.000358 729.09399 3087.86450
3248.0 0.0003079 729.09399 3517.22559
3645.0 0.0002743 729.09399 3997.62720
3990.0 0.0002506 729.09399 4417.64844
4055.0 0.0002466 729.09399 4562.09229
4055.0 0.0002466 729.09399 4413.79980
4102.0 0.0002438 729.09399 4237.22754
4194.0 0.0002384 729.09399 4158.61182
4319.0 0.0002315 729.09399 4095.76221
4338.0 0.0002305 729.09399 3971.18848
3975.0 0.0002516 729.09399 3721.47485
3886.0 0.0002573 729.09399 3411.27734
3577.0 0.0002796 729.09399 3144.97168
3391.0 0.0002949 729.09399 2926.08252
3192.0 0.0003133 729.09399 2741.95581
3058.0 0.0003270 729.09399 2596.90088
2931.0 0.0003412 729.09399 2481.85547
2630.0 0.000380 729.09399 2472.31860
2705.0 0.000370 729.09399 2435.50415
2606.0 0.000384 729.09399 2440.17944
2910.0 0.0003436 729.09399 2537.20874
3181.0 0.0003144 729.09399 2817.28589
3679.0 0.0002718 729.09399 3321.36963
4736.0 0.0002111 729.09399 4104.90918
6336.0 0.0001578 729.09399 5245.39355
8012.0 0.0001248 729.09399 7257.47705
8722.0 0.0001147 729.09399 10274.05957
8067.0 0.0001240 729.09399 8771.11035
6543.0 0.0001528 729.09399 4805.15625
5508.0 0.0001816 729.09399 4038.53833
5214.0 0.0001918 729.09399 4394.57031
5441.0 0.0001838 729.09399 5445.77539
5308.0 0.0001884 729.09399 6595.73438
4950.0 0.0002020 729.09399 4783.83691
4058.0 0.0002464 729.09399 3247.28247
3301.0 0.0003029 729.09399 2978.35278
2764.0 0.000362 729.09399 3004.76416
2655.0 0.000377 729.09399 3116.88403
2704.0 0.000370 729.09399 3241.17310
2715.0 0.000368 729.09399 3329.60107
2788.0 0.000359 729.09399 3383.13403
3021.0 0.0003310 729.09399 3466.54883
3395.0 0.0002946 729.09399 3598.17505
3807.0 0.0002627 729.09399 3730.17896
3973.0 0.0002517 729.09399 3795.46875
3998.0 0.0002501 729.09399 3754.08105
3877.0 0.0002579 729.09399 3631.95190
3718.0 0.0002690 729.09399 3490.64624
3527.0 0.0002835 729.09399 3360.44434
3323.0 0.0003009 729.09399 3238.92358
3088.0 0.0003238 729.09399 3107.01196
2884.0 0.0003467 729.09399 2965.94580
2670.0 0.000375 729.09399 2816.99121
2605.0 0.000384 729.09399 2672.50073
2411.0 0.000415 729.09399 2542.36304
2231.0 0.000448 729.09399 2430.93970
2081.0 0.000481 729.09399 2338.31250
2072.0 0.000483 729.09399 2262.47266
1915.0 0.000522 729.09399 2200.73120
1972.0 0.000507 729.09399 2150.47778
2044.0 0.000489 729.09399 2111.25122
2079.0 0.000481 729.09399 2077.61597
2202.0 0.000454 729.09399 2044.25366
2366.0 0.000423 729.09399 2021.31116
2513.0 0.000398 729.09399 2002.15662
2713.0 0.000369 729.09399 1986.16675
2684.0 0.000373 729.09399 1972.90942
2751.0 0.000364 729.09399 1960.21069
2737.0 0.000365 729.09399 1958.02612
2793.0 0.000358 729.09399 1952.32007
2896.0 0.0003453 729.09399 1951.46570
2869.0 0.0003486 729.09399 1948.82153
2854.0 0.0003504 729.09399 1947.04468
2833.0 0.000353 729.09399 1945.18689
2584.0 0.000387 729.09399 1946.50195
2308.0 0.000433 729.09399 1947.44153
2435.0 0.000411 729.09399 1955.58813
2262.0 0.000442 729.09399 1971.64783
2259.0 0.000443 729.09399 2001.55164
2162.0 0.000463 729.09399 2048.92041
2078.0 0.000481 729.09399 2118.08496
1958.0 0.000511 729.09399 2205.43579
1912.0 0.000523 729.09399 2289.30127
1873.0 0.000534 729.09399 2327.48608
1791.0 0.000558 729.09399 2281.77686
1823.0 0.000549 729.09399 2193.00830
1927.0 0.000519 729.09399 2136.86987
1776.0 0.000563 729.09399 2120.80615
1781.0 0.000561 729.09399 2131.04736
1799.0 0.000556 729.09399 2131.50293
1777.0 0.000563 729.09399 2097.51074
1796.0 0.000557 729.09399 2042.77710
1831.0 0.000546 729.09399 2003.02698
1728.0 0.000579 729.09399 1981.24731
1857.0 0.000539 729.09399 1978.02283
1861.0 0.000537 729.09399 1988.37427
2064.0 0.000484 729.09399 2009.50659
2056.0 0.000486 729.09399 2040.95471
2003.0 0.000499 729.09399 2082.85645
2059.0 0.000486 729.09399 2133.35913
2068.0 0.000484 729.09399 2185.14697
2034.0 0.000492 729.09399 2224.92236
1995.0 0.000501 729.09399 2243.82397
2041.0 0.000490 729.09399 2251.93555
2123.0 0.000471 729.09399 2257.44604
2065.0 0.000484 729.09399 2271.71069
2056.0 0.000486 729.09399 2294.62744
2121.0 0.000471 729.09399 2323.77808
2191.0 0.000456 729.09399 2359.67188
2229.0 0.000449 729.09399 2398.02197
2372.0 0.000422 729.09399 2447.94067
2460.0 0.000407 729.09399 2497.81543
2801.0 0.000357 729.09399 2552.83374
2759.0 0.000362 729.09399 2582.88208
2801.0 0.000357 729.09399 2573.74756
2773.0 0.000361 729.09399 2532.32666
2461.0 0.000406 729.09399 2478.92041
2423.0 0.000413 729.09399 2447.52002
2470.0 0.000405 729.09399 2430.89160
2262.0 0.000442 729.09399 2422.22119
2346.0 0.000426 729.09399 2411.67993
2299.0 0.000435 729.09399 2401.72461
2323.0 0.000430 729.09399 2408.30322
2378.0 0.000421 729.09399 2450.01904
2552.0 0.000392 729.09399 2543.28223
2613.0 0.000383 729.09399 2697.70923
3149.0 0.0003176 729.09399 2918.29688
3588.0 0.0002787 729.09399 3186.92773
4186.0 0.0002389 729.09399 3437.81543
4265.0 0.0002345 729.09399 3571.47583
4236.0 0.0002361 729.09399 3565.68164
4146.0 0.0002412 729.09399 3513.43945
3981.0 0.0002512 729.09399 3497.34985
3791.0 0.0002638 729.09399 3522.10010
3713.0 0.0002693 729.09399 3546.54858
3642.0 0.0002746 729.09399 3521.67505
3614.0 0.0002767 729.09399 3412.10010
3431.0 0.0002915 729.09399 3262.67993
3290.0 0.0003040 729.09399 3143.51050
3168.0 0.0003157 729.09399 3062.29932
2922.0 0.0003422 729.09399 2991.77954
2817.0 0.000355 729.09399 2882.39038
2707.0 0.000369 729.09399 2721.39185
2665.0 0.000375 729.09399 2552.28491
2638.0 0.000379 729.09399 2419.18286
2645.0 0.000378 729.09399 2327.79004
2563.0 0.000390 729.09399 2272.82178
2388.0 0.000419 729.09399 2223.05444
2433.0 0.000411 729.09399 2158.18433
2292.0 0.000436 729.09399 2085.37720
2285.0 0.000438 729.09399 2020.87463
2247.0 0.000445 729.09399 1971.16003
2115.0 0.000473 729.09399 1937.26733
2015.0 0.000496 729.09399 1913.17261
2117.0 0.000472 729.09399 1899.70544
1954.0 0.000512 729.09399 1889.15784
1963.0 0.000509 729.09399 1881.36914
1978.0 0.000506 729.09399 1875.23108
1850.0 0.000541 729.09399 1871.32227
1931.0 0.000518 729.09399 1870.42053
1862.0 0.000537 729.09399 1872.71948
1822.0 0.000549 729.09399 1880.40515
1925.0 0.000519 729.09399 1892.48010
1856.0 0.000539 729.09399 1912.66467
1920.0 0.000521 729.09399 1945.13464
2061.0 0.000485 729.09399 1995.08923
2104.0 0.000475 729.09399 2066.41113
2330.0 0.000429 729.09399 2157.02222
2396.0 0.000417 729.09399 2257.13599
2466.0 0.000406 729.09399 2356.32520
2375.0 0.000421 729.09399 2434.90625
2387.0 0.000419 729.09399 2457.22778
2384.0 0.000419 729.09399 2429.90698
2331.0 0.000429 729.09399 2406.69653
2378.0 0.000421 729.09399 2422.78638
2462.0 0.000406 729.09399 2475.79175
2669.0 0.000375 729.09399 2546.85400
2648.0 0.000378 729.09399 2600.62012
2729.0 0.000366 729.09399 2578.65308
2472.0 0.000405 729.09399 2476.53857
2405.0 0.000416 729.09399 2362.80371
2237.0 0.000447 729.09399 2288.60889
2355.0 0.000425 729.09399 2261.92603
2414.0 0.000414 729.09399 2270.04053
2454.0 0.000407 729.09399 2283.76660
2532.0 0.000395 729.09399 2262.16821
2508.0 0.000399 729.09399 2197.82056
2344.0 0.000427 729.09399 2121.34521
2240.0 0.000446 729.09399 2058.88232
2204.0 0.000454 729.09399 2019.32581
2117.0 0.000472 729.09399 1999.99573
2140.0 0.000467 729.09399 1990.76599
2277.0 0.000439 729.09399 1982.09229
2357.0 0.000424 729.09399 1967.25342
2343.0 0.000427 729.09399 1946.76489
2181.0 0.000459 729.09399 1923.08484
2235.0 0.000447 729.09399 1900.07507
2231.0 0.000448 729.09399 1872.76636
2034.0 0.000492 729.09399 1859.20776
2045.0 0.000489 729.09399 1850.30542
2009.0 0.000498 729.09399 1842.57019
1993.0 0.000502 729.09399 1832.56482
1847.0 0.000541 729.09399 1821.29761
1856.0 0.000539 729.09399 1810.91748
1775.0 0.000563 729.09399 1803.53333
1815.0 0.000551 729.09399 1799.59448
1794.0 0.000557 729.09399 1798.31995
1738.0 0.000575 729.09399 1795.98303
1800.0 0.000556 729.09399 1791.08582
1819.0 0.000550 729.09399 1784.21619
1691.0 0.000591 729.09399 1776.57471
1703.0 0.000587 729.09399 1769.93738
1668.0 0.000600 729.09399 1765.18567
1595.0 0.000627 729.09399 1762.54529
1628.0 0.000614 729.09399 1759.70813
1597.0 0.000626 729.09399 1757.50061
1634.0 0.000612 729.09399 1754.32397
1592.0 0.000628 729.09399 1750.70544
1571.0 0.000637 729.09399 1747.48462
1613.0 0.000620 729.09399 1744.72351
1595.0 0.000627 729.09399 1741.86060
1625.0 0.000615 729.09399 1737.85693
1548.0 0.000646 729.09399 1733.29651
1514.0 0.000661 729.09399 1728.12793
1595.0 0.000627 729.09399 1723.34644
1535.0 0.000651 729.09399 1719.13770
1576.0 0.000635 729.09399 1716.84949
1625.0 0.000615 729.09399 1713.66980
1724.0 0.000580 729.09399 1710.05383
1687.0 0.000593 729.09399 1705.43713
1707.0 0.000586 729.09399 1699.74158
1838.0 0.000544 729.09399 1693.59387
1715.0 0.000583 729.09399 1687.53564
1658.0 0.000603 729.09399 1682.16760
1669.0 0.000599 729.09399 1678.20935
1671.0 0.000598 729.09399 1674.32446
1737.0 0.000576 729.09399 1670.76172
1820.0 0.000549 729.09399 1668.36145
1870.0 0.000535 729.09399 1665.06274
1825.0 0.000548 729.09399 1662.03931
1854.0 0.000539 729.09399 1659.43860
1785.0 0.000560 729.09399 1657.36255
1608.0 0.000622 729.09399 1656.12866
1712.0 0.000584 729.09399 1655.33569
1642.0 0.000609 729.09399 1655.79089
1631.0 0.000613 729.09399 1656.76245
1732.0 0.000577 729.09399 1658.38416
1820.0 0.000549 729.09399 1660.78577
1748.0 0.000572 729.09399 1663.85742
1725.0 0.000580 729.09399 1667.74316
1719.0 0.000582 729.09399 1671.16187
1690.0 0.000592 729.09399 1673.56287
1708.0 0.000585 729.09399 1676.56030
1642.0 0.000609 729.09399 1676.10962
1621.0 0.000617 729.09399 1674.87219
1628.0 0.000614 729.09399 1673.61096
1535.0 0.000651 729.09399 1673.05908
1569.0 0.000637 729.09399 1672.64697
1590.0 0.000629 729.09399 1672.93530
1515.0 0.000660 729.09399 1676.53467
1534.0 0.000652 729.09399 1679.63245
1563.0 0.000640 729.09399 1684.37219
1456.0 0.000687 729.09399 1693.28076
1408.0 0.000710 729.09399 1708.77490
1514.0 0.000661 729.09399 1733.33997
1492.0 0.000670 729.09399 1768.90894
1516.0 0.000660 729.09399 1815.39270
1583.0 0.000632 729.09399 1864.42578
1654.0 0.000605 729.09399 1909.55347
1645.0 0.000608 729.09399 1936.49133
1729.0 0.000578 729.09399 1936.23572
1771.0 0.000565 729.09399 1918.00464
1842.0 0.000543 729.09399 1908.36682
1959.0 0.000510 729.09399 1919.59399
2155.0 0.000464 729.09399 1948.66418
2176.0 0.000460 729.09399 1983.28979
2075.0 0.000482 729.09399 2010.84558
2069.0 0.000483 729.09399 2011.86096
2063.0 0.000485 729.09399 1982.29138
1934.0 0.000517 729.09399 1940.80530
1918.0 0.000521 729.09399 1910.24512
1890.0 0.000529 729.09399 1899.81543
1992.0 0.000502 729.09399 1911.24036
1952.0 0.000512 729.09399 1945.49133
1972.0 0.000507 729.09399 2002.29675
1984.0 0.000504 729.09399 2078.87573
2067.0 0.000484 729.09399 2159.61328
2056.0 0.000486 729.09399 2217.02246
2080.0 0.000481 729.09399 2227.61719
2121.0 0.000471 729.09399 2215.62939
2080.0 0.000481 729.09399 2222.02295
2142.0 0.000467 729.09399 2243.88306
2177.0 0.000459 729.09399 2254.89575
2227.0 0.000449 729.09399 2249.16504
2204.0 0.000454 729.09399 2234.28784
2051.0 0.000488 729.09399 2212.62427
2020.0 0.000495 729.09399 2188.92407
2095.0 0.000477 729.09399 2182.67212
2136.0 0.000468 729.09399 2193.23535
2096.0 0.000477 729.09399 2199.01929
2091.0 0.000478 729.09399 2176.17944
1911.0 0.000523 729.09399 2118.02173
1842.0 0.000543 729.09399 2049.22388
1794.0 0.000557 729.09399 1997.18640
1870.0 0.000535 729.09399 1970.47009
1918.0 0.000521 729.09399 1966.52820
1928.0 0.000519 729.09399 1978.13501
2073.0 0.000482 729.09399 1994.14771
2107.0 0.000475 729.09399 2000.96216
2104.0 0.000475 729.09399 1994.59937
2001.0 0.000500 729.09399 1982.86584
1991.0 0.000502 729.09399 1972.22095
1879.0 0.000532 729.09399 1966.01819
1750.0 0.000571 729.09399 1966.69507
1796.0 0.000557 729.09399 1976.26941
1764.0 0.000567 729.09399 1996.11255
1857.0 0.000539 729.09399 2026.54993
1819.0 0.000550 729.09399 2066.41968
1830.0 0.000546 729.09399 2112.47949
1847.0 0.000541 729.09399 2158.37085
1981.0 0.000505 729.09399 2199.41650
2169.0 0.000461 729.09399 2221.66602
2152.0 0.000465 729.09399 2227.95825
2335.0 0.000428 729.09399 2221.23560
2368.0 0.000422 729.09399 2202.23047
2306.0 0.000434 729.09399 2176.82788
2311.0 0.000433 729.09399 2152.85962
2308.0 0.000433 729.09399 2134.15479
2226.0 0.000449 729.09399 2120.96118
2234.0 0.000448 729.09399 2100.20923
2174.0 0.000460 729.09399 2070.31812
2159.0 0.000463 729.09399 2038.49402
2072.0 0.000483 729.09399 2032.78442
2119.0 0.000472 729.09399 2004.09814
2046.0 0.000489 729.09399 1859.03003
2001.0 0.000500 729.09399 1810.05530
1911.0 0.000523 729.09399 1781.61853
1890.0 0.000529 729.09399 1755.79309
1684.0 0.000594 729.09399 1733.51111
1702.0 0.000588 729.09399 1722.62122
1646.0 0.000608 729.09399 1733.45972
1581.0 0.000633 729.09399 1689.86340
1610.0 0.000621 729.09399 1657.62183
1548.0 0.000646 729.09399 1652.40869
1567.0 0.000638 729.09399 1656.34656
1562.0 0.000640 729.09399 1664.23767
1546.0 0.000647 729.09399 1677.05823
1519.0 0.000658 729.09399 1694.44971
1507.0 0.000664 729.09399 1716.04968
1650.0 0.000606 729.09399 1741.15503
1565.0 0.000639 729.09399 1769.95117
1749.0 0.000572 729.09399 1802.55139
1667.0 0.000600 729.09399 1837.17310
1703.0 0.000587 729.09399 1868.78833
1705.0 0.000587 729.09399 1890.24048
1530.0 0.000654 729.09399 1903.02917
1624.0 0.000616 729.09399 1921.82007
1663.0 0.000601 729.09399 1958.77014
1588.0 0.000630 729.09399 2012.23083
1621.0 0.000617 729.09399 2074.85913
1696.0 0.000590 729.09399 2138.23730
1664.0 0.000601 729.09399 2150.53589
1862.0 0.000537 729.09399 2061.87915
1772.0 0.000564 729.09399 1976.97107
1785.0 0.000560 729.09399 1952.31860
1896.0 0.000527 729.09399 1958.98462
2033.0 0.000492 729.09399 1962.92090
2043.0 0.000489 729.09399 1951.17725
2035.0 0.000491 729.09399 1928.34973
2023.0 0.000494 729.09399 1876.08557
1925.0 0.000519 729.09399 1787.80957
1851.0 0.000540 729.09399 1718.47314
1745.0 0.000573 729.09399 1680.28210
1693.0 0.000591 729.09399 1654.94568
1686.0 0.000593 729.09399 1631.61377
1710.0 0.000585 729.09399 1600.86523
1658.0 0.000603 729.09399 1569.28882
1613.0 0.000620 729.09399 1541.26831
1619.0 0.000618 729.09399 1518.29211
1531.0 0.000653 729.09399 1499.85461
1445.0 0.000692 729.09399 1485.62207
1545.0 0.000647 729.09399 1477.36865
1429.0 0.000700 729.09399 1478.38440
1507.0 0.000664 729.09399 1488.23621
1618.0 0.000618 729.09399 1518.39148
1678.0 0.000596 729.09399 1530.80920
1745.0 0.000573 729.09399 1518.47913
1708.0 0.000585 729.09399 1544.56287
1839.0 0.000544 729.09399 1574.97656
1932.0 0.000518 729.09399 1595.82080
1875.0 0.000533 729.09399 1594.85339
1751.0 0.000571 729.09399 1572.66211
1791.0 0.000558 729.09399 1553.56494
1710.0 0.000585 729.09399 1533.72583
1641.0 0.000609 729.09399 1515.37073
1688.0 0.000592 729.09399 1525.43738
1696.0 0.000590 729.09399 1542.52112
1654.0 0.000605 729.09399 1554.66187
1602.0 0.000624 729.09399 1548.61438
1567.0 0.000638 729.09399 1521.31311
1522.0 0.000657 729.09399 1492.49329
1454.0 0.000688 729.09399 1469.83362
1418.0 0.000705 729.09399 1454.18823
1397.0 0.000716 729.09399 1446.14954
1321.0 0.000757 729.09399 1443.36035
1380.0 0.000725 729.09399 1443.21936
1371.0 0.000729 729.09399 1443.46606
1306.0 0.000766 729.09399 1443.92932
1343.0 0.000745 729.09399 1446.04346
1372.0 0.000729 729.09399 1450.62451
1441.0 0.000694 729.09399 1456.92395
1494.0 0.000669 729.09399 1460.47559
1480.0 0.000676 729.09399 1461.17407
1440.0 0.000694 729.09399 1462.77246
1424.0 0.000702 729.09399 1470.28870
1408.0 0.000710 729.09399 1487.32471
1441.0 0.000694 729.09399 1515.64771
1479.0 0.000676 729.09399 1551.33948
1558.0 0.000642 729.09399 1577.84827
1502.0 0.000666 729.09399 1584.40210
1524.0 0.000656 729.09399 1588.85986
1597.0 0.000626 729.09399 1597.99670
1591.0 0.000629 729.09399 1604.55652
1574.0 0.000635 729.09399 1601.04834
1554.0 0.000644 729.09399 1589.09216
1510.0 0.000662 729.09399 1574.50415
1480.0 0.000676 729.09399 1560.51648
1521.0 0.000657 729.09399 1544.33423
1591.0 0.000629 729.09399 1534.71143
1560.0 0.000641 729.09399 1536.37537
1696.0 0.000590 729.09399 1545.13086
1748.0 0.000572 729.09399 1556.05286
1713.0 0.000584 729.09399 1561.91382
1659.0 0.000603 729.09399 1560.40649
1673.0 0.000598 729.09399 1545.59656
1607.0 0.000622 729.09399 1518.74243
1578.0 0.000634 729.09399 1487.66101
1711.0 0.000584 729.09399 1462.13513
1654.0 0.000605 729.09399 1445.67151
1671.0 0.000598 729.09399 1439.59985
1681.0 0.000595 729.09399 1441.25684
1675.0 0.000597 729.09399 1448.21960
1662.0 0.000602 729.09399 1454.40405
1672.0 0.000598 729.09399 1462.68237
1618.0 0.000618 729.09399 1470.95898
1480.0 0.000676 729.09399 1478.55493
1531.0 0.000653 729.09399 1479.65271
1478.0 0.000677 729.09399 1467.80078
1555.0 0.000643 729.09399 1447.95703
1441.0 0.000694 729.09399 1433.01379
1495.0 0.000669 729.09399 1428.81189
1365.0 0.000733 729.09399 1440.81921
1447.0 0.000691 729.09399 1467.06360
1408.0 0.000710 729.09399 1501.84351
1515.0 0.000660 729.09399 1532.69751
1489.0 0.000672 729.09399 1542.30774
1576.0 0.000635 729.09399 1524.08386
1580.0 0.000633 729.09399 1492.27502
1586.0 0.000631 729.09399 1467.30725
1476.0 0.000678 729.09399 1458.16736
1526.0 0.000655 729.09399 1475.77563
1517.0 0.000659 729.09399 1451.87952
1539.0 0.000650 729.09399 1428.07642
1457.0 0.000686 729.09399 1427.31604
1534.0 0.000652 729.09399 1421.98450
1429.0 0.000700 729.09399 1409.62036
1560.0 0.000641 729.09399 1396.30591
1524.0 0.000656 729.09399 1387.54041
1452.0 0.000689 729.09399 1388.32544
1415.0 0.000707 729.09399 1391.50940
1370.0 0.000730 729.09399 1364.40796
1411.0 0.000709 729.09399 1358.57813
1346.0 0.000743 729.09399 1359.39050
1340.0 0.000746 729.09399 1363.66748
1338.0 0.000747 729.09399 1372.93274
1430.0 0.000699 729.09399 1391.72791
1549.0 0.000646 729.09399 1423.64978
1646.0 0.000608 729.09399 1476.50806
1660.0 0.000602 729.09399 1554.62451
1855.0 0.000539 729.09399 1652.71338
1889.0 0.000529 729.09399 1750.98828
1953.0 0.000512 729.09399 1819.16687
1862.0 0.000537 729.09399 1822.13135
1891.0 0.000529 729.09399 1754.09180
1758.0 0.000569 729.09399 1662.50098
1806.0 0.000554 729.09399 1591.92883
1780.0 0.000562 729.09399 1562.65186
1802.0 0.000555 729.09399 1575.12573
1838.0 0.000544 729.09399 1615.65234
1861.0 0.000537 729.09399 1661.09436
1833.0 0.000546 729.09399 1685.16150
1812.0 0.000552 729.09399 1665.58264
1709.0 0.000585 729.09399 1609.02661
1642.0 0.000609 729.09399 1542.94946
1655.0 0.000604 729.09399 1486.53638
1627.0 0.000615 729.09399 1447.25574
1474.0 0.000678 729.09399 1425.19885
1424.0 0.000702 729.09399 1416.23462
1436.0 0.000696 729.09399 1413.53699
1419.0 0.000705 729.09399 1411.48169
1405.0 0.000712 729.09399 1407.91467
1388.0 0.000720 729.09399 1403.70288
1311.0 0.000763 729.09399 1399.88586
1325.0 0.000755 729.09399 1396.65710
1376.0 0.000727 729.09399 1393.54468
1315.0 0.000760 729.09399 1390.42407
1343.0 0.000745 729.09399 1386.72742
1328.0 0.000753 729.09399 1382.88428
1327.0 0.000754 729.09399 1380.23242
1317.0 0.000759 729.09399 1381.33545
1325.0 0.000755 729.09399 1386.10571
1319.0 0.000758 729.09399 1397.17285
1349.0 0.000741 729.09399 1410.70935
1413.0 0.000708 729.09399 1429.15747
1433.0 0.000698 729.09399 1454.78125
1516.0 0.000660 729.09399 1489.27673
1485.0 0.000673 729.09399 1533.53162
1570.0 0.000637 729.09399 1585.66711
1584.0 0.000631 729.09399 1641.93726
1582.0 0.000632 729.09399 1694.04907
1599.0 0.000625 729.09399 1702.80676
1546.0 0.000647 729.09399 1614.39648
1500.0 0.000667 729.09399 1503.24524
1383.0 0.000723 729.09399 1443.47070
1365.0 0.000733 729.09399 1425.32971
1301.0 0.000769 729.09399 1427.25830
1363.0 0.000734 729.09399 1439.48975
1372.0 0.000729 729.09399 1457.13562
1366.0 0.000732 729.09399 1473.58325
1329.0 0.000752 729.09399 1464.47925
1444.0 0.000693 729.09399 1409.05396
1262.0 0.000792 729.09399 1349.81628
1293.0 0.000773 729.09399 1314.96570
1220.0 0.000820 729.09399 1296.38562
1226.0 0.000816 729.09399 1284.20154
1275.0 0.000784 729.09399 1275.15344
1222.0 0.000818 729.09399 1268.79358
1167.0 0.000857 729.09399 1264.17004
1230.0 0.000813 729.09399 1260.89893
1146.0 0.000873 729.09399 1258.91357
1208.0 0.000828 729.09399 1257.98682
1248.0 0.000801 729.09399 1257.90662
1235.0 0.000810 729.09399 1258.50647
1248.0 0.000801 729.09399 1259.56128
1208.0 0.000828 729.09399 1260.98694
1247.0 0.000802 729.09399 1262.56604
1207.0 0.000829 729.09399 1263.36511
1172.0 0.000853 729.09399 1262.93079
1220.0 0.000820 729.09399 1262.74927
1224.0 0.000817 729.09399 1261.02808
1254.0 0.000797 729.09399 1259.49768
1161.0 0.000861 729.09399 1258.67578
1219.0 0.000820 729.09399 1258.81860
1232.0 0.000812 729.09399 1259.99341
1224.0 0.000817 729.09399 1262.95081
1293.0 0.000773 729.09399 1265.46667
1330.0 0.000752 729.09399 1268.25305
1231.0 0.000812 729.09399 1271.49939
1293.0 0.000773 729.09399 1275.72668
1264.0 0.000791 729.09399 1280.19092
1279.0 0.000782 729.09399 1285.82471
1312.0 0.000762 729.09399 1291.10889
1285.0 0.000778 729.09399 1295.74097
1400.0 0.000714 729.09399 1298.76514
1357.0 0.000737 729.09399 1300.04858
1311.0 0.000763 729.09399 1301.75098
1335.0 0.000749 729.09399 1299.94702
1361.0 0.000735 729.09399 1298.41724
1336.0 0.000749 729.09399 1298.79187
1322.0 0.000756 729.09399 1304.34644
1349.0 0.000741 729.09399 1320.25781
1393.0 0.000718 729.09399 1355.91492
1308.0 0.000765 729.09399 1418.09973
1355.0 0.000738 729.09399 1497.10388
1330.0 0.000752 729.09399 1558.05688
1337.0 0.000748 729.09399 1557.48938
1306.0 0.000766 729.09399 1505.54004
1412.0 0.000708 729.09399 1456.65234
1323.0 0.000756 729.09399 1439.24414
1371.0 0.000729 729.09399 1445.16418
1323.0 0.000756 729.09399 1454.65723
1337.0 0.000748 729.09399 1461.12646
1332.0 0.000751 729.09399 1468.75964
1255.0 0.000797 729.09399 1472.04163
1299.0 0.000770 729.09399 1453.88306
1291.0 0.000775 729.09399 1413.82080
1258.0 0.000795 729.09399 1375.72461
1300.0 0.000769 729.09399 1356.25488
1251.0 0.000799 729.09399 1352.13416
1247.0 0.000802 729.09399 1350.57520
1260.0 0.000794 729.09399 1343.31226
1303.0 0.000767 729.09399 1331.40979
1359.0 0.000736 729.09399 1319.21460
1334.0 0.000750 729.09399 1309.64050
1307.0 0.000765 729.09399 1303.98169
1329.0 0.000752 729.09399 1302.19727
1378.0 0.000726 729.09399 1303.43555
1259.0 0.000794 729.09399 1306.92346
1302.0 0.000768 729.09399 1312.04626
1312.0 0.000762 729.09399 1318.65820
1305.0 0.000766 729.09399 1326.43396
1317.0 0.000759 729.09399 1334.21594
1384.0 0.000723 729.09399 1340.61768
1432.0 0.000698 729.09399 1344.41479
1589.0 0.000629 729.09399 1345.94714
1457.0 0.000686 729.09399 1348.97327
1433.0 0.000698 729.09399 1349.93274
1427.0 0.000701 729.09399 1351.06213
1464.0 0.000683 729.09399 1353.12061
1399.0 0.000715 729.09399 1357.01282
1431.0 0.000699 729.09399 1363.27222
1456.0 0.000687 729.09399 1377.58936
1506.0 0.000664 729.09399 1419.63428
1468.0 0.000681 729.09399 1512.28967
1594.0 0.000627 729.09399 1673.38623
1486.0 0.000673 729.09399 1978.05994
1472.0 0.000679 729.09399 1601.13550
1438.0 0.000695 729.09399 1475.51086
1456.0 0.000687 729.09399 1464.70947
1502.0 0.000666 729.09399 1474.22314
1434.0 0.000697 729.09399 1493.56421
1621.0 0.000617 729.09399 1519.89209
1548.0 0.000646 729.09399 1562.02856
1506.0 0.000664 729.09399 1629.42261
1527.0 0.000655 729.09399 1753.43030
1500.0 0.000667 729.09399 1758.57910
1487.0 0.000672 729.09399 1573.08752
1555.0 0.000643 729.09399 1536.48975
1443.0 0.000693 729.09399 1517.91211
1436.0 0.000696 729.09399 1504.30212
1497.0 0.000668 729.09399 1493.94482
1405.0 0.000712 729.09399 1484.84827
1514.0 0.000661 729.09399 1476.28467
1453.0 0.000688 729.09399 1466.51563
1432.0 0.000698 729.09399 1454.18860
1473.0 0.000679 729.09399 1439.14539
1457.0 0.000686 729.09399 1422.26160
1538.0 0.000650 729.09399 1405.02087
1503.0 0.000665 729.09399 1388.18103
1541.0 0.000649 729.09399 1372.36694
1466.0 0.000682 729.09399 1358.39026
1420.0 0.000704 729.09399 1347.27112
1337.0 0.000748 729.09399 1338.79822
1353.0 0.000739 729.09399 1333.70654
1360.0 0.000735 729.09399 1332.30811
1395.0 0.000717 729.09399 1335.08252
1433.0 0.000698 729.09399 1342.50281
1388.0 0.000720 729.09399 1354.36267
1453.0 0.000688 729.09399 1369.46851
1486.0 0.000673 729.09399 1385.59058
1444.0 0.000693 729.09399 1399.91016
1404.0 0.000712 729.09399 1408.23560
1414.0 0.000707 729.09399 1405.88916
1511.0 0.000662 729.09399 1393.07166
1531.0 0.000653 729.09399 1375.30884
1448.0 0.000691 729.09399 1358.69873
1522.0 0.000657 729.09399 1346.62207
1555.0 0.000643 729.09399 1340.12317
1411.0 0.000709 729.09399 1338.55737
1486.0 0.000673 729.09399 1340.16785
1462.0 0.000684 729.09399 1342.62378
1412.0 0.000708 729.09399 1342.82251
1400.0 0.000714 729.09399 1338.41663
1316.0 0.000760 729.09399 1329.73083
1345.0 0.000743 729.09399 1319.16003
1373.0 0.000728 729.09399 1308.89905
1339.0 0.000747 729.09399 1299.74219
1341.0 0.000746 729.09399 1292.25769
1309.0 0.000764 729.09399 1286.79919
1243.0 0.000805 729.09399 1283.06140
1303.0 0.000767 729.09399 1281.16003
1268.0 0.000789 729.09399 1280.04895
1221.0 0.000819 729.09399 1279.47986
1268.0 0.000789 729.09399 1279.27234
1258.0 0.000795 729.09399 1279.99756
1263.0 0.000792 729.09399 1281.94910
1256.0 0.000796 729.09399 1285.79358
1284.0 0.000779 729.09399 1292.25513
1344.0 0.000744 729.09399 1301.84924
1345.0 0.000743 729.09399 1314.37585
1448.0 0.000691 729.09399 1329.06653
1478.0 0.000677 729.09399 1343.29175
1515.0 0.000660 729.09399 1353.32971
1465.0 0.000683 729.09399 1356.11853
1571.0 0.000637 729.09399 1352.30359
1493.0 0.000670 729.09399 1347.11731
1482.0 0.000675 729.09399 1345.75732
1479.0 0.000676 729.09399 1350.10730
1437.0 0.000696 729.09399 1357.72925
1460.0 0.000685 729.09399 1364.16370
1411.0 0.000709 729.09399 1363.73096
1450.0 0.000690 729.09399 1358.11597
1403.0 0.000713 729.09399 1350.64648
1369.0 0.000730 729.09399 1343.23132
1352.0 0.000740 729.09399 1336.04028
1385.0 0.000722 729.09399 1331.02197
1347.0 0.000742 729.09399 1335.59583
1381.0 0.000724 729.09399 1357.55029
1350.0 0.000741 729.09399 1409.86646
1357.0 0.000737 729.09399 1501.38904
1239.0 0.000807 729.09399 1363.59558
1270.0 0.000787 729.09399 1307.51685
1274.0 0.000785 729.09399 1291.88135
1336.0 0.000749 729.09399 1285.16052
1301.0 0.000769 729.09399 1283.19446
1339.0 0.000747 729.09399 1282.41040
1276.0 0.000784 729.09399 1284.68530
1332.0 0.000751 729.09399 1294.28442
1331.0 0.000751 729.09399 1318.62756
1288.0 0.000776 729.09399 1364.80884
1268.0 0.000789 729.09399 1300.66968
1320.0 0.000758 729.09399 1275.09424
1284.0 0.000779 729.09399 1270.82983
1228.0 0.000814 729.09399 1272.21899
1325.0 0.000755 729.09399 1278.52417
1370.0 0.000730 729.09399 1290.72156
1350.0 0.000741 729.09399 1308.15137
1375.0 0.000727 729.09399 1281.26050
1390.0 0.000719 729.09399 1274.83606
1387.0 0.000721 729.09399 1272.98608
1298.0 0.000770 729.09399 1270.99768
1280.0 0.000781 729.09399 1268.56909
1289.0 0.000776 729.09399 1266.30933
1276.0 0.000784 729.09399 1265.27905
1291.0 0.000775 729.09399 1266.41309
1350.0 0.000741 729.09399 1270.79626
1325.0 0.000755 729.09399 1280.17615
1330.0 0.000752 729.09399 1268.19116
1321.0 0.000757 729.09399 1263.86206
1334.0 0.000750 729.09399 1262.83862
1278.0 0.000782 729.09399 1262.39380
1287.0 0.000777 729.09399 1262.64990
1330.0 0.000752 729.09399 1263.91553
1322.0 0.000756 729.09399 1266.14661
1271.0 0.000787 729.09399 1268.98450
1271.0 0.000787 729.09399 1271.52466
1265.0 0.000791 729.09399 1272.57886
1287.0 0.000777 729.09399 1271.41760
1211.0 0.000826 729.09399 1268.41614
1312.0 0.000762 729.09399 1264.42542
1238.0 0.000808 729.09399 1261.43262
1306.0 0.000766 729.09399 1260.19641
1214.0 0.000824 729.09399 1261.29309
1262.0 0.000792 729.09399 1264.75940
1240.0 0.000806 729.09399 1270.15796
1206.0 0.000829 729.09399 1276.58289
1262.0 0.000792 729.09399 1282.14905
1205.0 0.000830 729.09399 1285.09558
1205.0 0.000830 729.09399 1283.55334
1202.0 0.000832 729.09399 1278.41589
1253.0 0.000798 729.09399 1271.55688
1235.0 0.000810 729.09399 1264.79358
1236.0 0.000809 729.09399 1259.45618
1263.0 0.000792 729.09399 1256.26758
1295.0 0.000772 729.09399 1255.42383
1281.0 0.000781 729.09399 1256.82202
1266.0 0.000790 729.09399 1260.23425
1239.0 0.000807 729.09399 1265.00525
1278.0 0.000782 729.09399 1270.10254
1235.0 0.000810 729.09399 1275.05347
1257.0 0.000796 729.09399 1279.49097
1230.0 0.000813 729.09399 1282.69592
1202.0 0.000832 729.09399 1283.53284
1276.0 0.000784 729.09399 1281.13562
1265.0 0.000791 729.09399 1275.53137
1287.0 0.000777 729.09399 1270.08887
1217.0 0.000822 729.09399 1266.24390
1303.0 0.000767 729.09399 1264.59644
1321.0 0.000757 729.09399 1265.17578
1340.0 0.000746 729.09399 1267.02490
1315.0 0.000760 729.09399 1269.09497
1346.0 0.000743 729.09399 1272.18250
1327.0 0.000754 729.09399 1273.57556
1377.0 0.000726 729.09399 1273.37158
1345.0 0.000743 729.09399 1271.34094
1334.0 0.000750 729.09399 1268.57800
1344.0 0.000744 729.09399 1266.24048
1328.0 0.000753 729.09399 1267.33496
1364.0 0.000733 729.09399 1282.70837
1378.0 0.000726 729.09399 1324.06543
1403.0 0.000713 729.09399 1404.42090
1315.0 0.000760 729.09399 1427.90771
1305.0 0.000766 729.09399 1282.63196
1323.0 0.000756 729.09399 1257.60535
1256.0 0.000796 729.09399 1248.14868
1389.0 0.000720 729.09399 1242.61426
1252.0 0.000799 729.09399 1239.20764
1322.0 0.000756 729.09399 1238.26648
1295.0 0.000772 729.09399 1242.34717
1295.0 0.000772 729.09399 1257.47009
1303.0 0.000767 729.09399 1286.57629
1338.0 0.000747 729.09399 1336.65100
1287.0 0.000777 729.09399 1274.52100
1256.0 0.000796 729.09399 1244.98596
1287.0 0.000777 729.09399 1240.27637
1269.0 0.000788 729.09399 1239.18994
1227.0 0.000815 729.09399 1238.69385
1269.0 0.000788 729.09399 1237.86584
1259.0 0.000794 729.09399 1236.66162
1254.0 0.000797 729.09399 1235.48340
1268.0 0.000789 729.09399 1235.48669
1235.0 0.000810 729.09399 1230.32727
1249.0 0.000801 729.09399 1226.00476
1278.0 0.000782 729.09399 1223.78674
1272.0 0.000786 729.09399 1222.29407
1253.0 0.000798 729.09399 1221.19934
1264.0 0.000791 729.09399 1220.26428
1218.0 0.000821 729.09399 1219.23975
1268.0 0.000789 729.09399 1217.94214
1264.0 0.000791 729.09399 1216.35144
1264.0 0.000791 729.09399 1214.93274
1230.0 0.000813 729.09399 1213.21570
1246.0 0.000803 729.09399 1211.55688
1266.0 0.000790 729.09399 1210.59753
1173.0 0.000853 729.09399 1210.35254
1197.0 0.000835 729.09399 1211.08325
1224.0 0.000817 729.09399 1213.04980
1274.0 0.000785 729.09399 1216.61633
1236.0 0.000809 729.09399 1221.54968
1241.0 0.000806 729.09399 1227.89075
1295.0 0.000772 729.09399 1235.05310
1230.0 0.000813 729.09399 1242.27209
1231.0 0.000812 729.09399 1247.70728
1278.0 0.000782 729.09399 1250.58350
1227.0 0.000815 729.09399 1250.73853
1276.0 0.000784 729.09399 1248.88879
1288.0 0.000776 729.09399 1246.16016
1222.0 0.000818 729.09399 1243.96777
1240.0 0.000806 729.09399 1243.58313
1231.0 0.000812 729.09399 1245.43860
1201.0 0.000833 729.09399 1249.56250
1219.0 0.000820 729.09399 1255.48645
1264.0 0.000791 729.09399 1262.11060
1281.0 0.000781 729.09399 1267.48425
1236.0 0.000809 729.09399 1269.67554
1249.0 0.000801 729.09399 1267.77698
1327.0 0.000754 729.09399 1263.37659
1237.0 0.000808 729.09399 1258.96375
1284.0 0.000779 729.09399 1256.31775
1278.0 0.000782 729.09399 1248.50256
1273.0 0.000786 729.09399 1244.23535
1324.0 0.000755 729.09399 1241.78076
1232.0 0.000812 729.09399 1240.19604
1288.0 0.000776 729.09399 1239.42981
1283.0 0.000779 729.09399 1238.78467
1280.0 0.000781 729.09399 1237.78552
1195.0 0.000837 729.09399 1236.04114
1274.0 0.000785 729.09399 1234.20178
1228.0 0.000814 729.09399 1233.13721
1288.0 0.000776 729.09399 1233.18872
1231.0 0.000812 729.09399 1230.74646
1224.0 0.000817 729.09399 1229.95154
1199.0 0.000834 729.09399 1229.75610
1237.0 0.000808 729.09399 1229.72876
1257.0 0.000796 729.09399 1229.74780
1247.0 0.000802 729.09399 1229.73779
1199.0 0.000834 729.09399 1229.59558
1185.0 0.000844 729.09399 1229.20154
1153.0 0.000867 729.09399 1228.50427
1157.0 0.000864 729.09399 1227.54932
1210.0 0.000826 729.09399 1226.55762
1111.0 0.000900 729.09399 1225.58301
1173.0 0.000853 729.09399 1224.73999
1185.0 0.000844 729.09399 1224.32825
1198.0 0.000835 729.09399 1224.39392
1227.0 0.000815 729.09399 1224.81140
1212.0 0.000825 729.09399 1225.49585
1311.0 0.000763 729.09399 1226.24500
1212.0 0.000825 729.09399 1226.85181
1325.0 0.000755 729.09399 1227.12634
1328.0 0.000753 729.09399 1226.86328
1302.0 0.000768 729.09399 1225.91028
1334.0 0.000750 729.09399 1224.28381
1300.0 0.000769 729.09399 1222.52551
1248.0 0.000801 729.09399 1221.01392
1199.0 0.000834 729.09399 1219.58545
1193.0 0.000838 729.09399 1218.36609
1186.0 0.000843 729.09399 1217.29126
1230.0 0.000813 729.09399 1216.21838
1219.0 0.000820 729.09399 1215.28162
1243.0 0.000805 729.09399 1214.51526
1236.0 0.000809 729.09399 1213.76208
1329.0 0.000752 729.09399 1212.80688
1259.0 0.000794 729.09399 1211.33984
1275.0 0.000784 729.09399 1209.50415
1282.0 0.000780 729.09399 1207.55530
1236.0 0.000809 729.09399 1205.50012
1165.0 0.000858 729.09399 1203.53955
1250.0 0.000800 729.09399 1201.84924
1250.0 0.000800 729.09399 1199.57751
1198.0 0.000835 729.09399 1197.17566
1158.0 0.000864 729.09399 1195.28345
1204.0 0.000831 729.09399 1193.80566
1172.0 0.000853 729.09399 1192.77686
1183.0 0.000845 729.09399 1192.11829
1163.0 0.000860 729.09399 1192.88086
1211.0 0.000826 729.09399 1195.83936
1263.0 0.000792 729.09399 1202.21460
1246.0 0.000803 729.09399 1211.18799
1171.0 0.000854 729.09399 1220.39307
1324.0 0.000755 729.09399 1225.64514
1181.0 0.000847 729.09399 1224.25830
1303.0 0.000767 729.09399 1219.58630
1221.0 0.000819 729.09399 1215.52612
1233.0 0.000811 729.09399 1214.25684
1187.0 0.000842 729.09399 1214.87769
1173.0 0.000853 729.09399 1216.03772
1249.0 0.000801 729.09399 1217.19873
1189.0 0.000841 729.09399 1219.38391
1239.0 0.000807 729.09399 1224.24255
1224.0 0.000817 729.09399 1230.86621
1232.0 0.000812 729.09399 1237.45068
1222.0 0.000818 729.09399 1241.48083
1177.0 0.000850 729.09399 1242.20288
1211.0 0.000826 729.09399 1241.00903
1192.0 0.000839 729.09399 1239.47083
1194.0 0.000838 729.09399 1237.94495
1269.0 0.000788 729.09399 1235.82434
1170.0 0.000855 729.09399 1232.35413
1186.0 0.000843 729.09399 1227.94116
1171.0 0.000854 729.09399 1223.44702
1281.0 0.000781 729.09399 1219.63501
1241.0 0.000806 729.09399 1216.84448
1172.0 0.000853 729.09399 1214.97400
1225.0 0.000816 729.09399 1213.72473
1199.0 0.000834 729.09399 1213.05005
1276.0 0.000784 729.09399 1213.20386
1255.0 0.000797 729.09399 1214.74707
1286.0 0.000778 729.09399 1218.04199
1376.0 0.000727 729.09399 1222.95728
1285.0 0.000778 729.09399 1228.43835
1332.0 0.000751 729.09399 1232.88171
1325.0 0.000755 729.09399 1234.09668
1288.0 0.000776 729.09399 1230.56140
1257.0 0.000796 729.09399 1223.06262
1170.0 0.000855 729.09399 1214.07678
1239.0 0.000807 729.09399 1206.00452
1136.0 0.000880 729.09399 1200.32788
1150.0 0.000870 729.09399 1197.56604
1234.0 0.000810 729.09399 1197.26575
1209.0 0.000827 729.09399 1198.24866
1264.0 0.000791 729.09399 1199.44983
1214.0 0.000824 729.09399 1200.38757
1215.0 0.000823 729.09399 1201.16516
1217.0 0.000822 729.09399 1202.20032
1223.0 0.000818 729.09399 1201.64893
1220.0 0.000820 729.09399 1201.01978
1202.0 0.000832 729.09399 1202.10852
1306.0 0.000766 729.09399 1207.56921
1219.0 0.000820 729.09399 1219.02856
1282.0 0.000780 729.09399 1233.78345
1302.0 0.000768 729.09399 1249.42542
1226.0 0.000816 729.09399 1274.50134
1262.0 0.000792 729.09399 1292.16235
1244.0 0.000804 729.09399 1265.06311
1246.0 0.000803 729.09399 1220.62952
1200.0 0.000833 729.09399 1195.17725
1219.0 0.000820 729.09399 1186.77209
1139.0 0.000878 729.09399 1185.75842
1156.0 0.000865 729.09399 1189.59570
1124.0 0.000890 729.09399 1199.04614
1104.0 0.000906 729.09399 1212.72400
1154.0 0.000867 729.09399 1224.76294
1167.0 0.000857 729.09399 1231.96179
1218.0 0.000821 729.09399 1238.41272
1184.0 0.000845 729.09399 1234.68127
1106.0 0.000904 729.09399 1211.34595
1183.0 0.000845 729.09399 1189.19141
1170.0 0.000855 729.09399 1178.89124
1150.0 0.000870 729.09399 1175.81067
1121.0 0.000892 729.09399 1175.47949
1139.0 0.000878 729.09399 1176.81299
1144.0 0.000874 729.09399 1179.21082
1066.0 0.000938 729.09399 1181.68176
1128.0 0.000887 729.09399 1182.31055
1081.0 0.000925 729.09399 1179.76453
1126.0 0.000888 729.09399 1175.24988
1126.0 0.000888 729.09399 1171.19836
1072.0 0.000933 729.09399 1168.75610
1013.0 0.000987 729.09399 1167.71863
1100.0 0.000909 729.09399 1167.25940
1078.0 0.000928 729.09399 1166.80383
1049.0 0.000953 729.09399 1166.17871
1101.0 0.000908 729.09399 1165.73315
1100.0 0.000909 729.09399 1164.99524
1070.0 0.000935 729.09399 1164.33142
1092.0 0.000916 729.09399 1163.87158
1027.0 0.000974 729.09399 1163.72925
1072.0 0.000933 729.09399 1163.77063
1114.0 0.000898 729.09399 1163.91016
1081.0 0.000925 729.09399 1164.03345
1113.0 0.000898 729.09399 1164.28284
1127.0 0.000887 729.09399 1164.33899
1176.0 0.000850 729.09399 1164.82507
1102.0 0.000907 729.09399 1166.49915
1103.0 0.000907 729.09399 1170.30017
1109.0 0.000902 729.09399 1176.22180
1059.0 0.000944 729.09399 1183.52051
1121.0 0.000892 729.09399 1190.03040
1090.0 0.000917 729.09399 1192.93567
1088.0 0.000919 729.09399 1190.37744
1103.0 0.000907 729.09399 1183.24438
1046.0 0.000956 729.09399 1174.22119
1172.0 0.000853 729.09399 1166.30542
1114.0 0.000898 729.09399 1160.65210
1085.0 0.000922 729.09399 1157.74658
1115.0 0.000897 729.09399 1157.31201
1237.0 0.000808 729.09399 1159.06055
1121.0 0.000892 729.09399 1162.25916
1101.0 0.000908 729.09399 1166.27148
1189.0 0.000841 729.09399 1169.87561
1123.0 0.000890 729.09399 1171.68579
1111.0 0.000900 729.09399 1170.83716
1141.0 0.000876 729.09399 1167.41882
1105.0 0.000905 729.09399 1163.50366
1112.0 0.000899 729.09399 1160.10205
1135.0 0.000881 729.09399 1157.94519
1156.0 0.000865 729.09399 1157.17993
1191.0 0.000840 729.09399 1157.59436
1209.0 0.000827 729.09399 1158.92639
1130.0 0.000885 729.09399 1160.74402
1102.0 0.000907 729.09399 1162.72913
1123.0 0.000890 729.09399 1164.41406
1150.0 0.000870 729.09399 1165.14160
1120.0 0.000893 729.09399 1164.63489
1142.0 0.000876 729.09399 1163.11926
1161.0 0.000861 729.09399 1160.99158
1167.0 0.000857 729.09399 1158.58618
1134.0 0.000882 729.09399 1156.21545
1205.0 0.000830 729.09399 1154.01257
1139.0 0.000878 729.09399 1152.19702
1112.0 0.000899 729.09399 1150.89099
1179.0 0.000848 729.09399 1150.16785
1179.0 0.000848 729.09399 1149.96680
1135.0 0.000881 729.09399 1150.08997
1155.0 0.000866 729.09399 1150.29395
1130.0 0.000885 729.09399 1150.36060
1203.0 0.000831 729.09399 1150.35059
1166.0 0.000858 729.09399 1150.47119
1079.0 0.000927 729.09399 1150.88269
1200.0 0.000833 729.09399 1151.65405
1080.0 0.000926 729.09399 1152.31433
1109.0 0.000902 729.09399 1152.55664
1202.0 0.000832 729.09399 1152.01184
1154.0 0.000867 729.09399 1150.58447
1137.0 0.000880 729.09399 1148.75488
1177.0 0.000850 729.09399 1147.20520
1215.0 0.000823 729.09399 1146.29077
1160.0 0.000862 729.09399 1145.92737
1153.0 0.000867 729.09399 1145.76648
1141.0 0.000876 729.09399 1145.47839
1149.0 0.000870 729.09399 1144.94702
1205.0 0.000830 729.09399 1144.24133
1086.0 0.000921 729.09399 1143.25964
1118.0 0.000894 729.09399 1141.98767
1062.0 0.000942 729.09399 1140.62158
1064.0 0.000940 729.09399 1138.66052
1177.0 0.000850 729.09399 1136.51294
1144.0 0.000874 729.09399 1134.51892
1138.0 0.000879 729.09399 1132.90747
1210.0 0.000826 729.09399 1131.70642
1109.0 0.000902 729.09399 1130.76465
1114.0 0.000898 729.09399 1129.93677
1100.0 0.000909 729.09399 1129.15002
1128.0 0.000887 729.09399 1128.44470
1060.0 0.000943 729.09399 1127.94165
1110.0 0.000901 729.09399 1127.64905
1157.0 0.000864 729.09399 1127.63025
1128.0 0.000887 729.09399 1127.87219
1042.0 0.000960 729.09399 1127.82813
1072.0 0.000933 729.09399 1127.26489
1080.0 0.000926 729.09399 1125.98706
1082.0 0.000924 729.09399 1124.20544
1107.0 0.000903 729.09399 1122.20911
1029.0 0.000972 729.09399 1120.39941
1122.0 0.000891 729.09399 1119.00293
1073.0 0.000932 729.09399 1118.13245
1053.0 0.000950 729.09399 1117.78906
1075.0 0.000930 729.09399 1117.92065
1140.0 0.000877 729.09399 1118.34839
1123.0 0.000890 729.09399 1118.93225
1091.0 0.000917 729.09399 1119.43176
1107.0 0.000903 729.09399 1119.55005
1114.0 0.000898 729.09399 1119.12024
1109.0 0.000902 729.09399 1118.04077
1146.0 0.000873 729.09399 1116.62390
1047.0 0.000955 729.09399 1115.10413
1110.0 0.000901 729.09399 1113.79956
1052.0 0.000951 729.09399 1112.84668
1183.0 0.000845 729.09399 1112.28052
1104.0 0.000906 729.09399 1112.08496
1088.0 0.000919 729.09399 1112.17615
1139.0 0.000878 729.09399 1112.42944
1145.0 0.000873 729.09399 1112.69153
1107.0 0.000903 729.09399 1112.72192
1118.0 0.000894 729.09399 1112.62915
1123.0 0.000890 729.09399 1112.15552
1131.0 0.000884 729.09399 1111.28638
1182.0 0.000846 729.09399 1110.26172
1136.0 0.000880 729.09399 1109.28113
1174.0 0.000852 729.09399 1108.55029
1187.0 0.000842 729.09399 1108.11218
1175.0 0.000851 729.09399 1107.95728
1172.0 0.000853 729.09399 1107.97913
1084.0 0.000923 729.09399 1108.03149
1141.0 0.000876 729.09399 1107.93420
1121.0 0.000892 729.09399 1107.69409
1086.0 0.000921 729.09399 1107.35999
1149.0 0.000870 729.09399 1107.11792
1133.0 0.000883 729.09399 1107.00073
1091.0 0.000917 729.09399 1107.25891
1092.0 0.000916 729.09399 1108.02686
1094.0 0.000914 729.09399 1108.41846
1101.0 0.000908 729.09399 1109.30615
1088.0 0.000919 729.09399 1110.29590
1074.0 0.000931 729.09399 1110.87402
1153.0 0.000867 729.09399 1110.76440
1125.0 0.000889 729.09399 1109.97791
1096.0 0.000912 729.09399 1108.75293
1175.0 0.000851 729.09399 1107.43652
1202.0 0.000832 729.09399 1106.27856
1193.0 0.000838 729.09399 1105.41138
1138.0 0.000879 729.09399 1104.88684
1158.0 0.000864 729.09399 1104.70593
1147.0 0.000872 729.09399 1104.74976
1094.0 0.000914 729.09399 1104.55432
1188.0 0.000842 729.09399 1104.45166
1050.0 0.000952 729.09399 1104.11609
1062.0 0.000942 729.09399 1103.39197
1089.0 0.000918 729.09399 1102.31433
1137.0 0.000880 729.09399 1101.07666
1118.0 0.000894 729.09399 1099.89880
1101.0 0.000908 729.09399 1098.98035
1109.0 0.000902 729.09399 1098.36145
1034.0 0.000967 729.09399 1097.99573
1102.0 0.000907 729.09399 1097.73730
1096.0 0.000912 729.09399 1097.46643
1040.0 0.000962 729.09399 1097.14978
1087.0 0.000920 729.09399 1096.75171
1082.0 0.000924 729.09399 1096.37354
1040.0 0.000962 729.09399 1095.65308
1013.0 0.000987 729.09399 1094.88843
1080.0 0.000926 729.09399 1094.28882
1037.0 0.000964 729.09399 1094.14331
1063.0 0.000941 729.09399 1094.58826
1023.0 0.000978 729.09399 1095.67029
1076.0 0.000929 729.09399 1097.30042
1107.0 0.000903 729.09399 1099.20996
1016.0 0.000984 729.09399 1100.98499
1078.0 0.000928 729.09399 1102.16272
1087.0 0.000920 729.09399 1102.42920
1119.0 0.000894 729.09399 1102.08582
1058.0 0.000945 729.09399 1101.53247
1039.0 0.000962 729.09399 1098.32703
1080.0 0.000926 729.09399 1095.99756
1133.0 0.000883 729.09399 1094.07263
1112.0 0.000899 729.09399 1092.50464
1017.0 0.000983 729.09399 1091.57495
1131.0 0.000884 729.09399 1090.92639
1085.0 0.000922 729.09399 1090.68079
1085.0 0.000922 729.09399 1090.72400
1146.0 0.000873 729.09399 1090.87183
1066.0 0.000938 729.09399 1090.89844
1076.0 0.000929 729.09399 1090.78381
1109.0 0.000902 729.09399 1090.66443
1093.0 0.000915 729.09399 1091.06128
1044.0 0.000958 729.09399 1092.23926
1062.0 0.000942 729.09399 1098.25061
1081.0 0.000925 729.09399 1108.95374
1127.0 0.000887 729.09399 1094.95923
1075.0 0.000930 729.09399 1091.57141
1118.0 0.000894 729.09399 1090.72437
1055.0 0.000948 729.09399 1089.75586
1095.0 0.000913 729.09399 1088.62744
1052.0 0.000951 729.09399 1087.95166
1137.0 0.000880 729.09399 1088.52795
1080.0 0.000926 729.09399 1091.47827
1082.0 0.000924 729.09399 1097.94556
1123.0 0.000890 729.09399 1105.99255
1046.0 0.000956 729.09399 1108.19458
1081.0 0.000925 729.09399 1116.45166
1070.0 0.000935 729.09399 1126.55273
1101.0 0.000908 729.09399 1121.79102
1040.0 0.000962 729.09399 1116.26892
1107.0 0.000903 729.09399 1109.66309
1029.0 0.000972 729.09399 1101.89063
1103.0 0.000907 729.09399 1094.24292
982.0 0.001018 729.09399 1087.82129
1075.0 0.000930 729.09399 1083.35583
1068.0 0.000936 729.09399 1081.30774
1075.0 0.000930 729.09399 1082.07361
1025.0 0.000976 729.09399 1085.17371
1049.0 0.000953 729.09399 1085.11267
980.0 0.001020 729.09399 1087.43372
997.0 0.001003 729.09399 1089.72815
1014.0 0.000986 729.09399 1090.54138
985.0 0.001015 729.09399 1089.23853
985.0 0.001015 729.09399 1086.02539
1004.0 0.000996 729.09399 1081.69788
974.0 0.001027 729.09399 1077.04700
983.0 0.001017 729.09399 1072.63196
976.0 0.001025 729.09399 1068.81067
1006.0 0.000994 729.09399 1065.67688
980.0 0.001020 729.09399 1063.29651
1034.0 0.000967 729.09399 1061.57568
1069.0 0.000935 729.09399 1060.39478
997.0 0.001003 729.09399 1059.62451
960.0 0.001042 729.09399 1059.15222
1039.0 0.000962 729.09399 1058.90320
1038.0 0.000963 729.09399 1058.98303
1073.0 0.000932 729.09399 1060.10291
1089.0 0.000918 729.09399 1063.50720
1041.0 0.000961 729.09399 1063.94861
1005.0 0.000995 729.09399 1059.20496
989.0 0.001011 729.09399 1058.51343
1043.0 0.000959 729.09399 1058.54541
1093.0 0.000915 729.09399 1058.90649
1040.0 0.000962 729.09399 1059.49829
1094.0 0.000914 729.09399 1060.22021
1038.0 0.000963 729.09399 1060.97620
1069.0 0.000935 729.09399 1061.76294
1043.0 0.000959 729.09399 1062.64319
1062.0 0.000942 729.09399 1063.99878
1056.0 0.000947 729.09399 1066.04858
1110.0 0.000901 729.09399 1069.33704
1080.0 0.000926 729.09399 1073.78613
1089.0 0.000918 729.09399 1071.77063
1122.0 0.000891 729.09399 1070.42395
1086.0 0.000921 729.09399 1067.91870
1053.0 0.000950 729.09399 1064.27856
1071.0 0.000934 729.09399 1060.04480
1137.0 0.000880 729.09399 1055.59204
1040.0 0.000962 729.09399 1051.43774
1036.0 0.000965 729.09399 1048.02954
1061.0 0.000943 729.09399 1045.50159
1047.0 0.000955 729.09399 1043.86230
1094.0 0.000914 729.09399 1043.07776
1043.0 0.000959 729.09399 1042.89063
1016.0 0.000984 729.09399 1043.08459
1045.0 0.000957 729.09399 1043.25989
1032.0 0.000969 729.09399 1042.92847
1027.0 0.000974 729.09399 1041.76428
1014.0 0.000986 729.09399 1039.80774
1064.0 0.000940 729.09399 1037.34607
1055.0 0.000948 729.09399 1034.64331
1015.0 0.000985 729.09399 1032.04321
1046.0 0.000956 729.09399 1029.86304
1033.0 0.000968 729.09399 1028.40698
1024.0 0.000977 729.09399 1027.71875
1052.0 0.000951 729.09399 1027.74841
1042.0 0.000960 729.09399 1028.30920
1029.0 0.000972 729.09399 1029.12817
1046.0 0.000956 729.09399 1029.83655
1004.0 0.000996 729.09399 1029.99805
984.0 0.001016 729.09399 1029.25146
1061.0 0.000943 729.09399 1027.59937
1050.0 0.000952 729.09399 1025.34265
978.0 0.001022 729.09399 1022.92883
967.0 0.001034 729.09399 1020.74451
1076.0 0.000929 729.09399 1018.98291
1015.0 0.000985 729.09399 1017.73785
993.0 0.001007 729.09399 1017.08527
957.0 0.001045 729.09399 1016.97455
964.0 0.001037 729.09399 1017.30365
1032.0 0.000969 729.09399 1018.00598
1009.0 0.000991 729.09399 1018.71698
1052.0 0.000951 729.09399 1019.36115
1072.0 0.000933 729.09399 1020.12268
1054.0 0.000949 729.09399 1021.48987
1016.0 0.000984 729.09399 1019.11377
1013.0 0.000987 729.09399 1016.03296
1024.0 0.000977 729.09399 1015.21112
963.0 0.001038 729.09399 1017.84979
995.0 0.001005 729.09399 1027.77600
966.0 0.001035 729.09399 1021.48676
968.0 0.001033 729.09399 1016.44489
1009.0 0.000991 729.09399 1020.14862
929.0 0.001076 729.09399 1009.28168
959.0 0.001043 729.09399 1006.44269
927.0 0.001079 729.09399 1005.27228
943.0 0.001060 729.09399 1004.51221
1010.0 0.000990 729.09399 1004.23413
952.0 0.001050 729.09399 1004.72784
997.0 0.001003 729.09399 1003.23370
931.0 0.001074 729.09399 1002.56183
932.0 0.001073 729.09399 1002.82800
918.0 0.001089 729.09399 1004.45544
934.0 0.001071 729.09399 1009.63043
933.0 0.001072 729.09399 1004.01929
936.0 0.001068 729.09399 1001.53778
930.0 0.001075 729.09399 1002.56763
973.0 0.001028 729.09399 997.21362
958.0 0.001044 729.09399 995.99341
1011.0 0.000989 729.09399 995.57806
966.0 0.001035 729.09399 995.44281
1026.0 0.000975 729.09399 995.49377
973.0 0.001028 729.09399 995.53894
941.0 0.001063 729.09399 995.78687
941.0 0.001063 729.09399 995.98022
937.0 0.001067 729.09399 995.84210
1005.0 0.000995 729.09399 995.13141
951.0 0.001052 729.09399 994.10822
1021.0 0.000979 729.09399 992.57501
980.0 0.001020 729.09399 990.85034
1027.0 0.000974 729.09399 989.44452
1063.0 0.000941 729.09399 988.17859
972.0 0.001029 729.09399 987.00909
1052.0 0.000951 729.09399 985.99451
1043.0 0.000959 729.09399 985.16840
1052.0 0.000951 729.09399 984.41876
1021.0 0.000979 729.09399 983.78406
1000.0 0.001000 729.09399 983.20117
990.0 0.001010 729.09399 982.63684
1057.0 0.000946 729.09399 982.02679
1045.0 0.000957 729.09399 981.63763
1016.0 0.000984 729.09399 980.94995
1018.0 0.000982 729.09399 980.26031
1039.0 0.000962 729.09399 979.55426
967.0 0.001034 729.09399 978.91370
1095.0 0.000913 729.09399 978.34039
1006.0 0.000994 729.09399 977.81842
1038.0 0.000963 729.09399 977.29578
1007.0 0.000993 729.09399 976.78003
952.0 0.001050 729.09399 976.16229
945.0 0.001058 729.09399 975.55023
949.0 0.001054 729.09399 975.03778
942.0 0.001062 729.09399 974.71576
1008.0 0.000992 729.09399 974.55835
934.0 0.001071 729.09399 974.68036
1034.0 0.000967 729.09399 974.63739
936.0 0.001068 729.09399 974.42645
933.0 0.001072 729.09399 973.94202
952.0 0.001050 729.09399 973.32300
993.0 0.001007 729.09399 972.54279
950.0 0.001053 729.09399 971.74384
920.0 0.001087 729.09399 970.99200
956.0 0.001046 729.09399 970.34760
990.0 0.001010 729.09399 969.87811
1001.0 0.000999 729.09399 970.02277
991.0 0.001009 729.09399 972.98669
979.0 0.001021 729.09399 981.61591
991.0 0.001009 729.09399 976.46680
934.0 0.001071 729.09399 968.30328
975.0 0.001026 729.09399 966.49518
916.0 0.001092 729.09399 965.40942
930.0 0.001075 729.09399 964.36774
946.0 0.001057 729.09399 963.33289
974.0 0.001027 729.09399 962.30847
941.0 0.001063 729.09399 961.41730
1003.0 0.000997 729.09399 960.71399
932.0 0.001073 729.09399 960.21033
999.0 0.001001 729.09399 960.01917
988.0 0.001012 729.09399 960.20166
992.0 0.001008 729.09399 961.46033
951.0 0.001052 729.09399 964.86572
951.0 0.001052 729.09399 968.15051
960.0 0.001042 729.09399 961.79132
942.0 0.001062 729.09399 960.81384
960.0 0.001042 729.09399 960.50531
956.0 0.001046 729.09399 960.25623
1013.0 0.000987 729.09399 959.96381
1025.0 0.000976 729.09399 959.58850
968.0 0.001033 729.09399 959.33557
973.0 0.001028 729.09399 958.83978
964.0 0.001037 729.09399 958.24023
957.0 0.001045 729.09399 957.52411
1043.0 0.000959 729.09399 956.72931
977.0 0.001024 729.09399 955.92773
992.0 0.001008 729.09399 955.22015
985.0 0.001015 729.09399 954.54468
982.0 0.001018 729.09399 953.91119
1074.0 0.000931 729.09399 953.24988
1000.0 0.001000 729.09399 952.49487
973.0 0.001028 729.09399 951.64386
988.0 0.001012 729.09399 950.73108
994.0 0.001006 729.09399 949.80701
978.0 0.001022 729.09399 948.85663
1021.0 0.000979 729.09399 948.01483
998.0 0.001002 729.09399 947.07605
1030.0 0.000971 729.09399 946.09662
991.0 0.001009 729.09399 945.07660
1012.0 0.000988 729.09399 944.04352
984.0 0.001016 729.09399 943.04681
928.0 0.001078 729.09399 942.12378
976.0 0.001025 729.09399 941.25317
929.0 0.001076 729.09399 940.44574
996.0 0.001004 729.09399 939.68927
944.0 0.001059 729.09399 938.95349
867.0 0.001153 729.09399 938.26263
949.0 0.001054 729.09399 937.66345
862.0 0.001160 729.09399 937.16528
897.0 0.001115 729.09399 936.83478
943.0 0.001060 729.09399 936.89014
916.0 0.001092 729.09399 937.62683
939.0 0.001065 729.09399 936.64264
949.0 0.001054 729.09399 936.09961
936.0 0.001068 729.09399 936.02301
919.0 0.001088 729.09399 936.06586
928.0 0.001078 729.09399 936.17255
939.0 0.001065 729.09399 936.33466
914.0 0.001094 729.09399 936.55023
978.0 0.001022 729.09399 936.81824
952.0 0.001050 729.09399 937.10535
941.0 0.001063 729.09399 937.41144
981.0 0.001019 729.09399 937.73022
974.0 0.001027 729.09399 938.05377
897.0 0.001115 729.09399 938.37482
957.0 0.001045 729.09399 938.83032
918.0 0.001089 729.09399 939.37140
919.0 0.001088 729.09399 938.61853
955.0 0.001047 729.09399 938.03564
947.0 0.001056 729.09399 937.21643
858.0 0.001166 729.09399 936.12109
931.0 0.001074 729.09399 934.84100
915.0 0.001093 729.09399 933.49445
893.0 0.001120 729.09399 932.21436
955.0 0.001047 729.09399 931.11469
932.0 0.001073 729.09399 930.73761
929.0 0.001076 729.09399 932.05444
968.0 0.001033 729.09399 934.10107
1017.0 0.000983 729.09399 927.80139
952.0 0.001050 729.09399 926.01471
953.0 0.001049 729.09399 924.91736
933.0 0.001072 729.09399 924.01385
919.0 0.001088 729.09399 923.05981
932.0 0.001073 729.09399 922.02148
910.0 0.001099 729.09399 920.87952
956.0 0.001046 729.09399 919.68036
906.0 0.001104 729.09399 918.47156
923.0 0.001083 729.09399 917.31476
890.0 0.001124 729.09399 916.22107
876.0 0.001142 729.09399 915.21106
918.0 0.001089 729.09399 914.60144
963.0 0.001038 729.09399 914.89319
920.0 0.001087 729.09399 914.73901
983.0 0.001017 729.09399 911.38232
886.0 0.001129 729.09399 910.15283
874.0 0.001144 729.09399 909.33313
928.0 0.001078 729.09399 908.66669
956.0 0.001046 729.09399 908.09741
871.0 0.001148 729.09399 907.58490
907.0 0.001103 729.09399 907.16418
977.0 0.001024 729.09399 906.83997
937.0 0.001067 729.09399 906.61383
947.0 0.001056 729.09399 906.49426
863.0 0.001159 729.09399 906.49908
887.0 0.001127 729.09399 906.63275
925.0 0.001081 729.09399 906.91095
911.0 0.001098 729.09399 907.35480
941.0 0.001063 729.09399 908.01794
931.0 0.001074 729.09399 908.89526
952.0 0.001050 729.09399 909.93347
1008.0 0.000992 729.09399 911.02234
978.0 0.001022 729.09399 911.94263
933.0 0.001072 729.09399 912.33783
928.0 0.001078 729.09399 911.82178
931.0 0.001074 729.09399 910.55640
955.0 0.001047 729.09399 909.01392
934.0 0.001071 729.09399 907.44714
949.0 0.001054 729.09399 905.94781
956.0 0.001046 729.09399 904.56720
962.0 0.001040 729.09399 903.34363
898.0 0.001114 729.09399 902.29486
972.0 0.001029 729.09399 901.44263
939.0 0.001065 729.09399 900.80701
915.0 0.001093 729.09399 900.43414
953.0 0.001049 729.09399 900.35004
931.0 0.001074 729.09399 900.50861
963.0 0.001038 729.09399 900.80133
940.0 0.001064 729.09399 901.00531
992.0 0.001008 729.09399 900.86646
927.0 0.001079 729.09399 900.34351
907.0 0.001103 729.09399 899.56042
920.0 0.001087 729.09399 898.56097
911.0 0.001098 729.09399 897.34772
929.0 0.001076 729.09399 895.96143
891.0 0.001122 729.09399 894.50085
891.0 0.001122 729.09399 893.01776
884.0 0.001131 729.09399 891.65790
899.0 0.001112 729.09399 890.44263
926.0 0.001080 729.09399 889.36725
955.0 0.001047 729.09399 888.82098
930.0 0.001075 729.09399 888.19104
915.0 0.001093 729.09399 887.72992
903.0 0.001107 729.09399 887.40155
943.0 0.001060 729.09399 887.16547
897.0 0.001115 729.09399 886.98822
892.0 0.001121 729.09399 886.82599
926.0 0.001080 729.09399 886.60773
902.0 0.001109 729.09399 886.24359
881.0 0.001135 729.09399 885.64807
908.0 0.001101 729.09399 884.79340
960.0 0.001042 729.09399 883.71893
903.0 0.001107 729.09399 882.52643
908.0 0.001101 729.09399 881.31293
915.0 0.001093 729.09399 880.14899
901.0 0.001110 729.09399 879.18915
862.0 0.001160 729.09399 878.20221
892.0 0.001121 729.09399 877.34644
859.0 0.001164 729.09399 876.60315
926.0 0.001080 729.09399 875.99597
903.0 0.001107 729.09399 875.51086
892.0 0.001121 729.09399 875.13440
947.0 0.001056 729.09399 874.82617
885.0 0.001130 729.09399 874.53168
919.0 0.001088 729.09399 874.18414
896.0 0.001116 729.09399 873.69006
855.0 0.001170 729.09399 873.03119
925.0 0.001081 729.09399 872.22461
940.0 0.001064 729.09399 871.34216
885.0 0.001130 729.09399 870.44482
940.0 0.001064 729.09399 869.59601
926.0 0.001080 729.09399 868.82263
904.0 0.001106 729.09399 868.16724
890.0 0.001124 729.09399 867.62341
927.0 0.001079 729.09399 867.15582
908.0 0.001101 729.09399 866.71777
901.0 0.001110 729.09399 866.26666
884.0 0.001131 729.09399 865.77582
903.0 0.001107 729.09399 865.26630
839.0 0.001192 729.09399 864.76093
837.0 0.001195 729.09399 864.27417
896.0 0.001116 729.09399 863.77747
884.0 0.001131 729.09399 863.26874
834.0 0.001199 729.09399 862.73383
872.0 0.001147 729.09399 862.15601
893.0 0.001120 729.09399 861.55481
881.0 0.001135 729.09399 860.95996
943.0 0.001060 729.09399 860.42535
863.0 0.001159 729.09399 859.95294
880.0 0.001136 729.09399 859.53101
906.0 0.001104 729.09399 859.15631
876.0 0.001142 729.09399 858.81104
836.0 0.001196 729.09399 858.44324
894.0 0.001119 729.09399 858.05273
850.0 0.001176 729.09399 857.66620
856.0 0.001168 729.09399 857.28918
826.0 0.001211 729.09399 856.93622
844.0 0.001185 729.09399 856.62738
903.0 0.001107 729.09399 856.43549
887.0 0.001127 729.09399 856.66791
852.0 0.001174 729.09399 857.57300
865.0 0.001156 729.09399 855.79663
856.0 0.001168 729.09399 855.03076
865.0 0.001156 729.09399 854.61273
865.0 0.001156 729.09399 854.26465
878.0 0.001139 729.09399 853.96893
845.0 0.001183 729.09399 853.71979
839.0 0.001192 729.09399 853.52039
849.0 0.001178 729.09399 853.34741
891.0 0.001122 729.09399 853.19617
894.0 0.001119 729.09399 853.03204
837.0 0.001195 729.09399 852.82336
922.0 0.001085 729.09399 852.55725
836.0 0.001196 729.09399 852.24091
836.0 0.001196 729.09399 851.95789
887.0 0.001127 729.09399 851.90112
865.0 0.001156 729.09399 851.89856
860.0 0.001163 729.09399 850.62506
835.0 0.001198 729.09399 849.90271
881.0 0.001135 729.09399 849.20984
888.0 0.001126 729.09399 848.53070
846.0 0.001182 729.09399 847.86267
837.0 0.001195 729.09399 847.24182
875.0 0.001143 729.09399 846.69476
845.0 0.001183 729.09399 846.23669
883.0 0.001133 729.09399 845.88385
923.0 0.001083 729.09399 845.65295
931.0 0.001074 729.09399 845.54773
879.0 0.001138 729.09399 845.56451
915.0 0.001093 729.09399 845.61060
912.0 0.001096 729.09399 845.50348
884.0 0.001131 729.09399 845.15790
896.0 0.001116 729.09399 844.61835
866.0 0.001155 729.09399 844.13660
908.0 0.001101 729.09399 843.57251
875.0 0.001143 729.09399 843.19354
945.0 0.001058 729.09399 843.48944
849.0 0.001178 729.09399 846.10706
893.0 0.001120 729.09399 851.59198
901.0 0.001110 729.09399 843.34949
922.0 0.001085 729.09399 841.24713
898.0 0.001114 729.09399 840.50031
918.0 0.001089 729.09399 840.05231
853.0 0.001172 729.09399 839.71472
865.0 0.001156 729.09399 839.46246
896.0 0.001116 729.09399 839.21130
917.0 0.001091 729.09399 838.96930
840.0 0.001190 729.09399 838.85028
896.0 0.001116 729.09399 839.35443
868.0 0.001152 729.09399 839.69342
882.0 0.001134 729.09399 837.57605
894.0 0.001119 729.09399 837.01013
891.0 0.001122 729.09399 836.94525
863.0 0.001159 729.09399 838.03467
837.0 0.001195 729.09399 840.54749
847.0 0.001181 729.09399 836.20203
863.0 0.001159 729.09399 834.76904
856.0 0.001168 729.09399 833.97473
877.0 0.001140 729.09399 833.28711
823.0 0.001215 729.09399 832.63110
851.0 0.001175 729.09399 832.00238
834.0 0.001199 729.09399 831.42218
825.0 0.001212 729.09399 830.87683
855.0 0.001170 729.09399 830.45728
877.0 0.001140 729.09399 830.39551
807.0 0.001239 729.09399 830.50092
874.0 0.001144 729.09399 829.19904
859.0 0.001164 729.09399 828.69531
901.0 0.001110 729.09399 828.31805
858.0 0.001166 729.09399 827.95099
838.0 0.001193 729.09399 827.56671
870.0 0.001149 729.09399 827.12952
854.0 0.001171 729.09399 826.62329
816.0 0.001225 729.09399 826.03540
871.0 0.001148 729.09399 825.36041
872.0 0.001147 729.09399 824.60748
828.0 0.001208 729.09399 823.81055
842.0 0.001188 729.09399 823.01245
865.0 0.001156 729.09399 822.23932
820.0 0.001220 729.09399 821.52307
903.0 0.001107 729.09399 820.87683
861.0 0.001161 729.09399 820.31372
910.0 0.001099 729.09399 819.82141
847.0 0.001181 729.09399 819.39270
903.0 0.001107 729.09399 819.00507
809.0 0.001236 729.09399 818.65259
869.0 0.001151 729.09399 818.32532
904.0 0.001106 729.09399 818.03522
874.0 0.001144 729.09399 817.79956
867.0 0.001153 729.09399 817.72284
888.0 0.001126 729.09399 818.10529
801.0 0.001248 729.09399 817.88464
852.0 0.001174 729.09399 816.61841
869.0 0.001151 729.09399 816.12598
826.0 0.001211 729.09399 815.54590
814.0 0.001229 729.09399 814.94916
886.0 0.001129 729.09399 814.35376
872.0 0.001147 729.09399 813.79852
891.0 0.001122 729.09399 813.31140
879.0 0.001138 729.09399 812.89880
888.0 0.001126 729.09399 812.54272
850.0 0.001176 729.09399 812.22284
888.0 0.001126 729.09399 811.91547
814.0 0.001229 729.09399 811.59955
842.0 0.001188 729.09399 811.28497
854.0 0.001171 729.09399 810.99884
825.0 0.001212 729.09399 810.87006
859.0 0.001164 729.09399 810.96228
863.0 0.001159 729.09399 810.08545
895.0 0.001117 729.09399 809.55908
830.0 0.001205 729.09399 809.15491
805.0 0.001242 729.09399 808.65869
884.0 0.001131 729.09399 808.14117
848.0 0.001179 729.09399 807.61542
845.0 0.001183 729.09399 807.09943
838.0 0.001193 729.09399 806.60938
848.0 0.001179 729.09399 806.14899
842.0 0.001188 729.09399 805.69965
823.0 0.001215 729.09399 805.26190
836.0 0.001196 729.09399 804.84534
861.0 0.001161 729.09399 804.40930
859.0 0.001164 729.09399 804.00275
812.0 0.001232 729.09399 803.60974
794.0 0.001259 729.09399 803.29633
834.0 0.001199 729.09399 803.32416
846.0 0.001182 729.09399 804.21362
826.0 0.001211 729.09399 803.93555
854.0 0.001171 729.09399 804.55774
813.0 0.001230 729.09399 805.09137
840.0 0.001190 729.09399 802.03949
775.0 0.001290 729.09399 801.31055
863.0 0.001159 729.09399 800.81232
847.0 0.001181 729.09399 800.30542
805.0 0.001242 729.09399 799.77106
752.0 0.001330 729.09399 799.22791
829.0 0.001206 729.09399 798.77930
900.0 0.001111 729.09399 798.35150
780.0 0.001282 729.09399 798.00159
805.0 0.001242 729.09399 797.73749
867.0 0.001153 729.09399 797.54486
863.0 0.001159 729.09399 797.45288
839.0 0.001192 729.09399 797.64526
875.0 0.001143 729.09399 798.26953
866.0 0.001155 729.09399 797.98004
829.0 0.001206 729.09399 798.95850
845.0 0.001183 729.09399 798.02740
865.0 0.001156 729.09399 797.19836
838.0 0.001193 729.09399 796.86127
811.0 0.001233 729.09399 796.48431
815.0 0.001227 729.09399 796.00403
820.0 0.001220 729.09399 795.43030
835.0 0.001198 729.09399 794.80383
849.0 0.001178 729.09399 794.18524
856.0 0.001168 729.09399 793.61554
896.0 0.001116 729.09399 793.04669
854.0 0.001171 729.09399 792.52802
811.0 0.001233 729.09399 792.06873
818.0 0.001222 729.09399 791.66943
835.0 0.001198 729.09399 791.32990
811.0 0.001233 729.09399 791.02118
851.0 0.001175 729.09399 790.76709
807.0 0.001239 729.09399 790.55530
847.0 0.001181 729.09399 790.37531
849.0 0.001178 729.09399 790.21832
839.0 0.001192 729.09399 790.03473
834.0 0.001199 729.09399 789.86395
845.0 0.001183 729.09399 789.67108
821.0 0.001218 729.09399 789.43726
805.0 0.001242 729.09399 789.14471
797.0 0.001255 729.09399 788.77563
798.0 0.001253 729.09399 788.35559
737.0 0.001357 729.09399 787.85553
823.0 0.001215 729.09399 787.35364
805.0 0.001242 729.09399 786.84509
817.0 0.001224 729.09399 786.39337
780.0 0.001282 729.09399 785.98969
822.0 0.001217 729.09399 785.64478
786.0 0.001272 729.09399 785.38312
803.0 0.001245 729.09399 785.19897
775.0 0.001290 729.09399 785.08734
818.0 0.001222 729.09399 785.04016
795.0 0.001258 729.09399 785.04034
840.0 0.001190 729.09399 785.07025
802.0 0.001247 729.09399 785.11060
763.0 0.001311 729.09399 785.14001
829.0 0.001206 729.09399 785.13812
805.0 0.001242 729.09399 785.07611
773.0 0.001294 729.09399 784.94000
777.0 0.001287 729.09399 784.72266
758.0 0.001319 729.09399 784.42786
830.0 0.001205 729.09399 784.07660
801.0 0.001248 729.09399 783.67419
831.0 0.001203 729.09399 783.23718
783.0 0.001277 729.09399 782.78705
836.0 0.001196 729.09399 782.34485
791.0 0.001264 729.09399 781.90973
784.0 0.001276 729.09399 781.50470
833.0 0.001200 729.09399 781.13477
785.0 0.001274 729.09399 780.79633
833.0 0.001200 729.09399 780.48657
732.0 0.001366 729.09399 780.19910
774.0 0.001292 729.09399 779.93054
815.0 0.001227 729.09399 779.67841
761.0 0.001314 729.09399 779.44147
813.0 0.001230 729.09399 779.21307
772.0 0.001295 729.09399 778.99353
807.0 0.001239 729.09399 778.77820
781.0 0.001280 729.09399 778.56512
802.0 0.001247 729.09399 778.35785
844.0 0.001185 729.09399 778.15833
747.0 0.001339 729.09399 777.96356
757.0 0.001321 729.09399 777.77594
739.0 0.001353 729.09399 777.58777
809.0 0.001236 729.09399 777.39618
820.0 0.001220 729.09399 777.17859
817.0 0.001224 729.09399 776.92310
791.0 0.001264 729.09399 776.61377
802.0 0.001247 729.09399 776.25055
807.0 0.001239 729.09399 775.84619
761.0 0.001314 729.09399 775.42651
716.0 0.001397 729.09399 775.00818
788.0 0.001269 729.09399 774.60559
762.0 0.001312 729.09399 774.23792
810.0 0.001235 729.09399 773.90295
806.0 0.001241 729.09399 773.60059
793.0 0.001261 729.09399 773.32416
758.0 0.001319 729.09399 773.07446
801.0 0.001248 729.09399 772.85419
777.0 0.001287 729.09399 772.64740
741.0 0.001350 729.09399 772.45825
781.0 0.001280 729.09399 772.27869
767.0 0.001304 729.09399 772.09088
764.0 0.001309 729.09399 771.88416
755.0 0.001325 729.09399 771.65070
761.0 0.001314 729.09399 771.41724
772.0 0.001295 729.09399 771.14240
787.0 0.001271 729.09399 770.85992
794.0 0.001259 729.09399 770.57062
740.0 0.001351 729.09399 770.32111
749.0 0.001335 729.09399 770.14581
786.0 0.001272 729.09399 770.15161
783.0 0.001277 729.09399 770.66101
754.0 0.001326 729.09399 771.94879
809.0 0.001236 729.09399 774.63007
764.0 0.001309 729.09399 769.95618
775.0 0.001290 729.09399 768.88123
729.0 0.001372 729.09399 768.48602
771.0 0.001297 729.09399 768.31317
795.0 0.001258 729.09399 768.69891
771.0 0.001297 729.09399 770.66370
747.0 0.001339 729.09399 769.19751
782.0 0.001279 729.09399 767.32666
726.0 0.001377 729.09399 766.76862
773.0 0.001294 729.09399 766.40845
757.0 0.001321 729.09399 766.12006
803.0 0.001245 729.09399 765.87427
772.0 0.001295 729.09399 765.66589
784.0 0.001276 729.09399 765.53589
749.0 0.001335 729.09399 765.57617
797.0 0.001255 729.09399 765.87616
853.0 0.001172 729.09399 767.20392
789.0 0.001267 729.09399 766.05786
781.0 0.001280 729.09399 764.80298
768.0 0.001302 729.09399 764.46973
773.0 0.001294 729.09399 764.29236
763.0 0.001311 729.09399 764.24908
770.0 0.001299 729.09399 764.69141
764.0 0.001309 729.09399 765.64880
749.0 0.001335 729.09399 764.00574
781.0 0.001280 729.09399 763.57922
777.0 0.001287 729.09399 763.48981
751.0 0.001332 729.09399 763.19592
804.0 0.001244 729.09399 762.93713
773.0 0.001294 729.09399 762.73596
765.0 0.001307 729.09399 762.52960
719.0 0.001391 729.09399 762.30756
791.0 0.001264 729.09399 762.06787
729.0 0.001372 729.09399 761.82086
796.0 0.001256 729.09399 761.56879
797.0 0.001255 729.09399 761.31769
738.0 0.001355 729.09399 761.07379
707.0 0.001414 729.09399 760.83960
773.0 0.001294 729.09399 760.61127
759.0 0.001318 729.09399 760.38367
759.0 0.001318 729.09399 760.15894
742.0 0.001348 729.09399 759.93201
781.0 0.001280 729.09399 759.73041
756.0 0.001323 729.09399 759.58136
768.0 0.001302 729.09399 759.37817
791.0 0.001264 729.09399 759.06781
747.0 0.001339 729.09399 758.90839
759.0 0.001318 729.09399 759.03174
738.0 0.001355 729.09399 759.13446
745.0 0.001342 729.09399 758.31036
731.0 0.001368 729.09399 758.01648
770.0 0.001299 729.09399 757.80035
800.0 0.001250 729.09399 757.62109
757.0 0.001321 729.09399 757.44843
802.0 0.001247 729.09399 757.28619
823.0 0.001215 729.09399 757.23511
780.0 0.001282 729.09399 757.14648
755.0 0.001325 729.09399 757.08337
797.0 0.001255 729.09399 757.04901
781.0 0.001280 729.09399 757.04132
777.0 0.001287 729.09399 757.06360
784.0 0.001276 729.09399 757.10010
778.0 0.001285 729.09399 757.08807
781.0 0.001280 729.09399 757.08380
811.0 0.001233 729.09399 757.08386
757.0 0.001321 729.09399 757.17706
787.0 0.001271 729.09399 757.10352
783.0 0.001277 729.09399 756.70831
774.0 0.001292 729.09399 756.49280
794.0 0.001259 729.09399 756.28784
753.0 0.001328 729.09399 756.08948
739.0 0.001353 729.09399 755.89325
767.0 0.001304 729.09399 755.71143
772.0 0.001295 729.09399 755.59381
759.0 0.001318 729.09399 755.48621
779.0 0.001284 729.09399 755.40326
768.0 0.001302 729.09399 755.23645
773.0 0.001294 729.09399 755.11407
742.0 0.001348 729.09399 755.00964
774.0 0.001292 729.09399 754.90637
725.0 0.001379 729.09399 754.79932
731.0 0.001368 729.09399 754.68011
775.0 0.001290 729.09399 754.54486
745.0 0.001342 729.09399 754.39093
743.0 0.001346 729.09399 754.22021
783.0 0.001277 729.09399 754.03833
788.0 0.001269 729.09399 753.84979
691.0 0.001447 729.09399 753.66284
734.0 0.001362 729.09399 753.48041
739.0 0.001353 729.09399 753.30328
793.0 0.001261 729.09399 753.13385
774.0 0.001292 729.09399 752.96149
769.0 0.001300 729.09399 752.79083
719.0 0.001391 729.09399 752.61749
701.0 0.001427 729.09399 752.38684
725.0 0.001379 729.09399 752.16522
743.0 0.001346 729.09399 751.94373
767.0 0.001304 729.09399 751.71973
723.0 0.001383 729.09399 751.49475
755.0 0.001325 729.09399 751.26910
730.0 0.001370 729.09399 751.04474
728.0 0.001374 729.09399 750.81952
718.0 0.001393 729.09399 750.59375
694.0 0.001441 729.09399 750.37140
751.0 0.001332 729.09399 750.13446
794.0 0.001259 729.09399 749.92712
751.0 0.001332 729.09399 749.72705
734.0 0.001362 729.09399 749.53632
765.0 0.001307 729.09399 749.35004
722.0 0.001385 729.09399 749.16254
704.0 0.001420 729.09399 748.97119
741.0 0.001350 729.09399 748.77081
724.0 0.001381 729.09399 748.56195
713.0 0.001403 729.09399 748.34821
757.0 0.001321 729.09399 748.13770
794.0 0.001259 729.09399 747.94757
749.0 0.001335 729.09399 747.74890
747.0 0.001339 729.09399 747.51196
698.0 0.001433 729.09399 747.31433
714.0 0.001401 729.09399 747.13000
694.0 0.001441 729.09399 746.97131
718.0 0.001393 729.09399 746.82947
735.0 0.001361 729.09399 746.68713
796.0 0.001256 729.09399 746.55933
746.0 0.001340 729.09399 746.44849
753.0 0.001328 729.09399 746.35669
738.0 0.001355 729.09399 746.30182
710.0 0.001408 729.09399 746.32892
773.0 0.001294 729.09399 746.50629
761.0 0.001314 729.09399 746.87317
763.0 0.001311 729.09399 747.30377
714.0 0.001401 729.09399 747.47968
722.0 0.001385 729.09399 747.19537
718.0 0.001393 729.09399 746.65411
758.0 0.001319 729.09399 746.17542
723.0 0.001383 729.09399 745.81970
692.0 0.001445 729.09399 745.59021
743.0 0.001346 729.09399 745.39246
699.0 0.001431 729.09399 745.18304
766.0 0.001305 729.09399 744.95953
706.0 0.001416 729.09399 744.72571
717.0 0.001395 729.09399 744.48254
750.0 0.001333 729.09399 744.24915
710.0 0.001408 729.09399 744.02698
718.0 0.001393 729.09399 743.82715
709.0 0.001410 729.09399 743.66522
754.0 0.001326 729.09399 743.58044
745.0 0.001342 729.09399 743.58789
750.0 0.001333 729.09399 743.67810
721.0 0.001387 729.09399 743.73376
741.0 0.001350 729.09399 743.60199
707.0 0.001414 729.09399 743.29401
688.0 0.001453 729.09399 742.95978
724.0 0.001381 729.09399 742.70197
704.0 0.001420 729.09399 742.51752
741.0 0.001350 729.09399 742.35858
749.0 0.001335 729.09399 742.18347
749.0 0.001335 729.09399 741.98724
674.0 0.001484 729.09399 741.78595
671.0 0.001490 729.09399 741.66785
775.0 0.001290 729.09399 741.84839
684.0 0.001462 729.09399 741.53790
723.0 0.001383 729.09399 740.98022
669.0 0.001495 729.09399 740.75037
689.0 0.001451 729.09399 740.58044
686.0 0.001458 729.09399 740.43634
769.0 0.001300 729.09399 740.30438
710.0 0.001408 729.09399 740.18097
720.0 0.001389 729.09399 740.06439
721.0 0.001387 729.09399 739.95325
733.0 0.001364 729.09399 739.84705
793.0 0.001261 729.09399 739.74255
764.0 0.001309 729.09399 739.63525
688.0 0.001453 729.09399 739.52771
694.0 0.001441 729.09399 739.41345
689.0 0.001451 729.09399 739.29010
761.0 0.001314 729.09399 739.16577
702.0 0.001425 729.09399 739.05420
775.0 0.001290 729.09399 739.02850
736.0 0.001359 729.09399 739.17126
710.0 0.001408 729.09399 738.80566
748.0 0.001337 729.09399 738.62561
708.0 0.001412 729.09399 738.54407
734.0 0.001362 729.09399 738.49023
682.0 0.001466 729.09399 738.46094
697.0 0.001435 729.09399 738.44440
730.0 0.001370 729.09399 738.41705
746.0 0.001340 729.09399 738.35211
700.0 0.001429 729.09399 738.24371
682.0 0.001466 729.09399 738.11359
746.0 0.001340 729.09399 737.97772
745.0 0.001342 729.09399 737.85852
751.0 0.001332 729.09399 737.74683
814.0 0.001229 729.09399 737.64099
700.0 0.001429 729.09399 737.53748
752.0 0.001330 729.09399 737.43530
758.0 0.001319 729.09399 737.33313
715.0 0.001399 729.09399 737.23315
763.0 0.001311 729.09399 737.13440
720.0 0.001389 729.09399 737.04388
766.0 0.001305 729.09399 736.95917
705.0 0.001418 729.09399 736.88666
725.0 0.001379 729.09399 736.82788
765.0 0.001307 729.09399 736.76642
753.0 0.001328 729.09399 736.70703
713.0 0.001403 729.09399 736.64301
758.0 0.001319 729.09399 736.57550
765.0 0.001307 729.09399 736.54425
736.0 0.001359 729.09399 736.56848
690.0 0.001449 729.09399 736.37549
720.0 0.001389 729.09399 736.32269
777.0 0.001287 729.09399 736.39514
689.0 0.001451 729.09399 737.04779
735.0 0.001361 729.09399 738.80878
692.0 0.001445 729.09399 736.84961
745.0 0.001342 729.09399 736.16711
686.0 0.001458 729.09399 735.98737
720.0 0.001389 729.09399 735.89923
762.0 0.001312 729.09399 735.84009
707.0 0.001414 729.09399 735.79156
781.0 0.001280 729.09399 735.74042
729.0 0.001372 729.09399 735.68475
696.0 0.001437 729.09399 735.60742
743.0 0.001346 729.09399 735.53802
745.0 0.001342 729.09399 735.44623
707.0 0.001414 729.09399 735.35785
741.0 0.001350 729.09399 735.30341
712.0 0.001404 729.09399 735.29083
675.0 0.001481 729.09399 735.19867
730.0 0.001370 729.09399 735.25732
729.0 0.001372 729.09399 735.79950
700.0 0.001429 729.09399 738.28778
672.0 0.001488 729.09399 738.97791
737.0 0.001357 729.09399 735.67383
657.0 0.001522 729.09399 734.84460
689.0 0.001451 729.09399 734.57605
701.0 0.001427 729.09399 734.42285
749.0 0.001335 729.09399 734.31195
641.0 0.001560 729.09399 734.21655
709.0 0.001410 729.09399 734.12372
640.0 0.001563 729.09399 734.02649
693.0 0.001443 729.09399 733.92029
707.0 0.001414 729.09399 733.81641
688.0 0.001453 729.09399 733.69788
706.0 0.001416 729.09399 733.57794
676.0 0.001479 729.09399 733.46179
732.0 0.001366 729.09399 733.35382
680.0 0.001471 729.09399 733.25909
686.0 0.001458 729.09399 733.20245
643.0 0.001555 729.09399 733.29712
700.0 0.001429 729.09399 734.17786
664.0 0.001506 729.09399 734.85883
657.0 0.001522 729.09399 733.09723
690.0 0.001449 729.09399 732.75299
677.0 0.001477 729.09399 732.60950
655.0 0.001527 729.09399 732.51990
696.0 0.001437 729.09399 732.45679
673.0 0.001486 729.09399 732.40887
692.0 0.001445 729.09399 732.37830
736.0 0.001359 729.09399 732.35645
689.0 0.001451 729.09399 732.34265
689.0 0.001451 729.09399 732.33331
719.0 0.001391 729.09399 732.32843
654.0 0.001529 729.09399 732.32098
771.0 0.001297 729.09399 732.31750
743.0 0.001346 729.09399 732.33075
685.0 0.001460 729.09399 732.50006
703.0 0.001422 729.09399 732.84735
714.0 0.001401 729.09399 732.27625
692.0 0.001445 729.09399 732.11053
743.0 0.001346 729.09399 732.02551
725.0 0.001379 729.09399 731.96191
713.0 0.001403 729.09399 731.90851
710.0 0.001408 729.09399 731.86267
690.0 0.001449 729.09399 731.82074
680.0 0.001471 729.09399 731.79144
667.0 0.001499 729.09399 731.77057
737.0 0.001357 729.09399 731.75702
723.0 0.001383 729.09399 731.75336
691.0 0.001447 729.09399 731.77130
728.0 0.001374 729.09399 731.93512
724.0 0.001381 729.09399 732.10400
664.0 0.001506 729.09399 731.71600
720.0 0.001389 729.09399 731.61737
697.0 0.001435 729.09399 731.55884
648.0 0.001543 729.09399 731.53430
621.0 0.001610 729.09399 731.62830
709.0 0.001410 729.09399 731.49506
649.0 0.001541 729.09399 731.28851
697.0 0.001435 729.09399 731.19012
704.0 0.001420 729.09399 731.11115
720.0 0.001389 729.09399 731.04578
655.0 0.001527 729.09399 730.98352
697.0 0.001435 729.09399 730.88800
698.0 0.001433 729.09399 730.81433
634.0 0.001577 729.09399 730.74567
643.0 0.001555 729.09399 730.68127
696.0 0.001437 729.09399 730.62122
665.0 0.001504 729.09399 730.56836
722.0 0.001385 729.09399 730.53979
700.0 0.001429 729.09399 730.60126
714.0 0.001401 729.09399 730.46600
678.0 0.001475 729.09399 730.31293
700.0 0.001429 729.09399 730.22687
655.0 0.001527 729.09399 730.15424
703.0 0.001422 729.09399 730.08661
735.0 0.001361 729.09399 730.02399
722.0 0.001385 729.09399 729.96851
661.0 0.001513 729.09399 729.92090
658.0 0.001520 729.09399 729.88342
683.0 0.001464 729.09399 729.85767
649.0 0.001541 729.09399 729.84601
719.0 0.001391 729.09399 729.83655
682.0 0.001466 729.09399 729.82880
645.0 0.001550 729.09399 729.83240
700.0 0.001429 729.09399 729.84503
638.0 0.001567 729.09399 729.86395
699.0 0.001431 729.09399 729.89099
651.0 0.001536 729.09399 729.90613
653.0 0.001531 729.09399 729.89185
740.0 0.001351 729.09399 729.82770
714.0 0.001401 729.09399 729.70728
709.0 0.001410 729.09399 729.55029
632.0 . . .
loop_
_refln_index_h
_refln_index_k
_refln_index_l
_pd_refln_wavelength_id
_refln_observed_status
_refln_F_squared_meas
_refln_F_squared_calc
_refln_phase_calc
_refln_d_spacing
_gsas_i100_meas
0 0 1 1 o 360.351 363.337 0.00 9.39132 42.15
0 0 1 2 o 358.219 363.337 0.00 9.39132 20.69
1 0 -1 1 o 14.379 31.686 180.00 6.07541 1.12
1 0 -1 2 o 10.905 31.686 180.00 6.07541 0.42
1 0 0 1 o 1.314 1.518 0.00 6.25068 0.10
1 0 0 2 o 1.607 1.518 0.00 6.25068 0.06
0 1 0 1 o 168.726 152.707 180.00 6.20615 9.17
0 1 0 2 o 173.495 152.707 180.00 6.20615 4.65
0 1 -1 1 o 200.035 195.808 180.00 5.46113 9.26
0 1 -1 2 o 236.671 195.808 180.00 5.46113 5.41
0 1 1 1 o 2167.799 2093.663 0.00 4.93429 64.13
0 1 1 2 o 2148.931 2093.663 0.00 4.93429 31.39
1 -1 0 1 o 153.911 180.338 0.00 4.79950 6.00
1 -1 -1 1 o 395.075 456.306 0.00 4.53231 13.30
1 -1 0 2 o 161.174 180.338 0.00 4.79950 3.10
0 0 2 1 o 1817.050 1744.553 180.00 4.69566 52.58
1 -1 -1 2 o 376.335 456.306 0.00 4.53231 6.26
0 0 2 2 o 1855.648 1744.553 180.00 4.69566 26.51
1 0 -2 1 o 2.977 1.522 0.00 4.41652 0.11
1 0 -2 2 o 3.297 1.522 0.00 4.41652 0.06
1 0 1 1 o 165.839 135.272 0.00 4.62385 5.67
1 0 1 2 o 160.371 135.272 0.00 4.62385 2.71
1 1 -1 1 o 157.867 157.645 180.00 4.17283 5.49
1 1 -1 2 o 168.451 157.645 180.00 4.17283 2.89
1 -1 1 1 o 233.714 260.446 0.00 4.05490 6.11
1 1 0 1 o 1558.456 1570.348 180.00 4.09263 45.99
1 -1 1 2 o 196.735 260.446 0.00 4.05490 2.54
0 1 -2 1 o 90.086 76.175 180.00 3.95985 2.18
1 1 0 2 o 1478.355 1570.348 180.00 4.09263 21.55
0 1 -2 2 o 98.934 76.175 180.00 3.95985 1.18
1 -1 -2 1 o 747.676 709.973 0.00 3.61251 14.68
1 -1 -2 2 o 748.347 709.973 0.00 3.61251 7.25
0 1 2 1 o 28.209 27.786 0.00 3.56103 0.43
0 1 2 2 o 25.377 27.786 0.00 3.56103 0.19
1 1 -2 1 o 3951.628 3880.161 0.00 3.58440 100.00
1 1 -2 2 o 3923.568 3880.161 0.00 3.58440 49.03
1 1 1 1 o 42.428 68.536 0.00 3.43700 0.73
1 1 1 2 o 47.652 68.536 0.00 3.43700 0.40
2 0 -1 1 o 104.881 80.985 180.00 3.26102 2.48
2 0 -1 2 o 85.850 80.985 180.00 3.26102 1.01
1 0 2 1 o 573.502 482.537 0.00 3.32177 8.80
1 0 -3 1 o 18.783 19.612 0.00 3.19246 0.32
1 0 2 2 o 608.230 482.537 0.00 3.32177 4.61
1 0 -3 2 o 16.523 19.612 0.00 3.19246 0.14
1 -1 2 1 o 186.387 198.043 0.00 3.14810 2.73
2 0 -2 1 o 2233.201 2102.559 180.00 3.03770 45.37
1 -1 2 2 o 199.873 198.043 0.00 3.14810 1.44
2 0 -2 2 o 2190.399 2102.559 180.00 3.03770 21.98
0 2 0 1 o 756.734 727.301 0.00 3.10308 10.12
2 -1 -1 1 o 557.490 533.524 180.00 3.05027 10.18
0 0 3 1 o 185.913 181.052 0.00 3.13044 2.34
2 0 0 1 o 17.362 17.023 0.00 3.12534 0.35
0 2 -1 1 o 69.312 65.316 180.00 3.04787 0.97
0 2 0 2 o 748.796 727.301 0.00 3.10308 4.95
2 -1 -1 2 o 568.592 533.524 180.00 3.05027 5.13
0 0 3 2 o 185.492 181.052 0.00 3.13044 1.15
0 2 -1 2 o 68.646 65.316 180.00 3.04787 0.47
2 0 0 2 o 17.638 17.023 0.00 3.12534 0.17
2 -1 0 1 o 795.220 656.751 0.00 2.98741 13.40
2 -1 0 2 o 693.983 656.751 0.00 2.98741 5.79
2 -1 -2 1 o 82.813 114.845 180.00 2.82184 1.25
2 -1 -2 2 o 90.585 114.845 180.00 2.82184 0.67
0 1 -3 1 o 963.593 1216.585 180.00 2.92736 12.23
1 -2 0 1 o 47.862 42.386 180.00 2.97278 0.63
0 1 -3 2 o 990.632 1216.585 180.00 2.92736 6.21
1 -2 0 2 o 30.409 42.386 180.00 2.97278 0.20
1 -1 -3 1 o 19.655 25.071 180.00 2.80332 0.22
1 -1 -3 2 o 21.078 25.071 180.00 2.80332 0.12
1 1 -3 1 o 694.596 771.507 180.00 2.87583 10.55
1 -2 1 1 o 191.935 248.062 180.00 2.80838 2.32
1 1 -3 2 o 594.201 771.507 180.00 2.87583 4.47
1 -2 1 2 o 207.568 248.062 180.00 2.80838 1.23
1 -2 -1 1 o 53.567 67.680 0.00 2.86070 0.62
0 2 -2 1 o 1285.981 1238.463 180.00 2.73057 14.83
0 2 1 1 o 7.306 10.096 180.00 2.85443 0.08
1 -2 -1 2 o 35.994 67.680 0.00 2.86070 0.21
0 2 -2 2 o 1529.139 1238.463 180.00 2.73057 8.69
0 2 1 2 o 4.940 10.096 180.00 2.85443 0.03
2 0 -3 1 o 2058.079 1819.308 180.00 2.62268 28.82
1 1 2 1 o 45.020 51.255 180.00 2.74951 0.45
2 0 -3 2 o 2237.398 1819.308 180.00 2.62268 15.45
1 2 -1 1 o 423.600 346.824 0.00 2.67554 5.09
1 1 2 2 o 55.182 51.255 180.00 2.74951 0.27
2 1 -1 1 o 807.128 909.013 180.00 2.74702 12.95
1 2 -1 2 o 397.763 346.824 0.00 2.67554 2.36
2 0 1 1 o 75.072 76.557 0.00 2.73797 1.01
2 1 -1 2 o 1016.623 909.013 180.00 2.74702 8.03
0 1 3 1 o 25.827 21.216 0.00 2.67912 0.22
2 0 1 2 o 99.594 76.557 0.00 2.73797 0.66
0 1 3 2 o 24.835 21.216 0.00 2.67912 0.10
1 2 0 1 o 0.639 0.561 0.00 2.61948 0.01
1 2 0 2 o 0.618 0.561 0.00 2.61948 0.00
2 1 -2 1 o 240.211 275.506 180.00 2.64367 3.68
2 -1 1 1 o 3040.677 2808.410 0.00 2.67935 37.77
2 1 0 1 o 0.007 0.007 0.00 2.62947 0.00
2 1 -2 2 o 284.018 275.506 180.00 2.64367 2.14
2 -1 1 2 o 2995.563 2808.410 0.00 2.67935 18.37
2 -1 -3 1 o 261.103 274.329 0.00 2.45170 2.78
2 1 0 2 o 0.009 0.007 0.00 2.62947 0.00
1 -2 -2 1 o 141.912 27.035 180.00 2.54896 1.23
2 -1 -3 2 o 287.449 274.329 0.00 2.45170 1.51
1 -2 -2 2 o 69.859 27.035 180.00 2.54896 0.30
1 2 -2 1 o 14.945 7.730 180.00 2.52921 0.17
1 2 -2 2 o 5.139 7.730 180.00 2.52921 0.03
1 -2 2 1 o 0.024 0.035 0.00 2.47610 0.00
1 -2 2 2 o 0.026 0.035 0.00 2.47610 0.00
1 -1 3 1 o 289.623 387.910 0.00 2.47186 2.50
1 -1 3 2 o 317.171 387.910 0.00 2.47186 1.35
1 0 3 1 o 283.346 411.465 180.00 2.52249 2.37
1 0 -4 1 o 721.074 701.135 180.00 2.44232 6.58
1 0 3 2 o 53.872 411.465 180.00 2.52249 0.24
1 0 -4 2 o 690.397 701.135 180.00 2.44232 3.11
0 2 2 1 o 15.799 25.275 0.00 2.46715 0.12
2 -2 -1 1 o 2109.853 1743.021 0.00 2.40529 20.28
0 2 2 2 o 23.808 25.275 0.00 2.46715 0.09
2 -2 -1 2 o 2025.711 1743.021 0.00 2.40529 9.62
1 2 1 1 o 739.333 630.706 0.00 2.39417 5.91
0 2 -3 1 o 8.936 6.889 180.00 2.33590 0.08
2 1 -3 1 o 478.044 416.268 0.00 2.38148 5.73
1 2 1 2 o 741.363 630.706 0.00 2.39417 2.93
0 2 -3 2 o 8.038 6.889 180.00 2.33590 0.03
2 1 -3 2 o 612.583 416.268 0.00 2.38148 3.61
2 -2 0 1 o 191.024 156.458 0.00 2.39975 1.83
2 1 1 1 o 14.562 9.057 180.00 2.36082 0.13
2 -2 0 2 o 170.966 156.458 0.00 2.39975 0.81
2 1 1 2 o 13.711 9.057 180.00 2.36082 0.06
0 0 4 1 o 10.594 6.580 0.00 2.34783 0.07
2 -2 -2 1 o 63.967 38.100 0.00 2.26616 0.53
1 1 -4 1 o 753.502 690.854 180.00 2.31453 6.83
0 0 4 2 o 7.050 6.580 0.00 2.34783 0.02
1 -1 -4 1 o 106.761 138.073 0.00 2.23301 0.73
2 -2 -2 2 o 62.894 38.100 0.00 2.26616 0.26
1 1 -4 2 o 760.085 690.854 180.00 2.31453 3.40
2 -1 2 1 o 617.606 560.172 0.00 2.29888 5.17
1 -1 -4 2 o 13.782 138.073 0.00 2.23301 0.06
2 0 2 1 o 15.843 15.449 180.00 2.31192 0.14
2 0 -4 1 o 2.211 90.854 0.00 2.20826 0.02
1 2 -3 1 o 200.179 106.607 0.00 2.26088 1.78
2 -1 2 2 o 747.686 560.172 0.00 2.29888 3.08
0 1 -4 1 o 500.340 361.905 180.00 2.28045 3.68
2 0 2 2 o 16.896 15.449 180.00 2.31192 0.07
2 0 -4 2 o 54.712 90.854 0.00 2.20826 0.24
1 2 -3 2 o 161.581 106.607 0.00 2.26088 0.71
0 1 -4 2 o 632.605 361.905 180.00 2.28045 2.29
2 -2 1 1 o 58.520 31.965 0.00 2.25232 0.48
1 -2 -3 1 o 31.018 35.606 180.00 2.19103 0.20
2 -2 1 2 o 30.014 31.965 0.00 2.25232 0.12
1 -2 -3 2 o 81.943 35.606 180.00 2.19103 0.25
1 1 3 1 o -0.070 7.622 0.00 2.22178 0.00
3 0 -2 1 o 73.783 64.862 180.00 2.14837 0.74
3 0 -1 1 o 3.794 1.463 180.00 2.17100 0.04
3 -1 -1 1 o 5.872 7.435 0.00 2.14440 0.06
1 1 3 2 o -0.070 7.622 0.00 2.22178 0.00
2 -1 -4 1 o 188.182 218.090 180.00 2.08594 1.35
3 0 -2 2 o 16.137 64.862 180.00 2.14837 0.08
3 0 -1 2 o 2.596 1.463 180.00 2.17100 0.01
3 -1 -1 2 o 0.229 7.435 0.00 2.14440 0.00
3 -1 -2 1 o 137.989 170.214 180.00 2.10477 1.25
2 -1 -4 2 o 184.626 218.090 180.00 2.08594 0.66
1 -2 3 1 o 0.135 0.647 180.00 2.12194 0.00
3 -1 -2 2 o 150.736 170.214 180.00 2.10477 0.67
1 -2 3 2 o 0.475 0.647 180.00 2.12194 0.00
0 1 4 1 o 20.816 111.539 180.00 2.12019 0.12
2 -2 -3 1 o 683.583 778.698 180.00 2.04432 4.41
0 1 4 2 o 108.988 111.539 180.00 2.12019 0.29
2 -2 -3 2 o 665.359 778.698 180.00 2.04432 2.12
2 2 -1 1 o 77.632 238.091 0.00 2.11796 0.67
0 3 -1 1 o 81.402 96.936 0.00 2.06861 0.50
2 2 -1 2 o 244.900 238.091 0.00 2.11796 1.01
1 2 2 1 o 305.872 304.277 0.00 2.10419 1.73
2 1 -4 1 o 98.567 115.989 0.00 2.07507 0.84
0 3 -1 2 o 81.039 96.936 0.00 2.06861 0.25
0 2 3 1 o 14.846 16.111 0.00 2.09187 0.08
3 0 -3 1 o 433.452 474.254 180.00 2.02514 3.84
1 2 2 2 o 277.278 304.277 0.00 2.10419 0.78
0 3 0 1 o 47.971 57.412 180.00 2.06872 0.28
2 2 -2 1 o 152.895 182.842 180.00 2.08642 1.30
3 0 0 1 o 48.340 57.194 0.00 2.08356 0.43
2 1 -4 2 o 94.404 115.989 0.00 2.07507 0.40
3 -1 0 1 o 375.965 441.493 180.00 2.07669 3.12
0 2 3 2 o 13.701 16.111 0.00 2.09187 0.03
3 0 -3 2 o 492.731 474.254 180.00 2.02514 2.15
0 3 0 2 o 47.095 57.412 180.00 2.06872 0.14
2 2 -2 2 o 157.515 182.842 180.00 2.08642 0.66
3 0 0 2 o 48.618 57.194 0.00 2.08356 0.21
3 -1 0 2 o 366.756 441.493 180.00 2.07669 1.50
1 -3 0 1 o 294.492 363.738 0.00 2.06361 1.78
3 -1 -3 1 o 19.553 27.549 180.00 1.97383 0.15
1 -3 1 1 o 598.221 600.701 0.00 2.02159 3.53
2 1 2 1 o 6.669 7.696 0.00 2.05461 0.05
1 -3 0 2 o 347.645 363.738 0.00 2.06361 1.03
3 -1 -3 2 o 22.516 27.549 180.00 1.97383 0.09
2 2 0 1 o 1.425 1.504 0.00 2.04631 0.01
1 -3 1 2 o 664.300 600.701 0.00 2.02159 1.93
2 -2 2 1 o 333.788 387.630 180.00 2.02745 2.12
2 1 2 2 o 6.296 7.696 0.00 2.05461 0.02
2 2 0 2 o 1.113 1.504 0.00 2.04631 0.00
0 3 -2 1 o 294.606 447.673 0.00 1.97491 1.72
2 -2 2 2 o 423.796 387.630 180.00 2.02745 1.33
1 -1 4 1 o 85.869 77.903 180.00 2.00361 0.46
0 3 -2 2 o 330.226 447.673 0.00 1.97491 0.95
0 2 -4 1 o 187.350 282.727 0.00 1.97993 1.10
1 -1 4 2 o 58.549 77.903 180.00 2.00361 0.16
0 2 -4 2 o 187.505 282.727 0.00 1.97993 0.54
1 0 -5 1 o 7.674 11.042 180.00 1.96173 0.04
1 2 -4 1 o 0.335 0.552 0.00 1.97020 0.00
1 0 -5 2 o 12.390 11.042 180.00 1.96173 0.03
1 0 4 1 o 188.674 160.443 180.00 2.01469 0.95
1 2 -4 2 o 0.457 0.552 0.00 1.97020 0.00
1 -3 -1 1 o 106.581 89.853 180.00 2.00952 0.57
1 0 4 2 o 184.758 160.443 180.00 2.01469 0.46
2 2 -3 1 o 53.792 116.962 180.00 1.96423 0.42
3 1 -2 1 o 96.155 154.180 0.00 1.96298 0.82
0 3 1 1 o 61.747 114.691 0.00 1.97519 0.31
1 -3 -1 2 o 70.057 89.853 180.00 2.00952 0.19
2 -1 3 1 o 513.620 532.472 180.00 1.95433 2.85
3 1 -2 2 o 169.591 154.180 0.00 1.96298 0.70
1 -3 2 1 o 0.540 0.575 0.00 1.89924 0.00
3 1 -1 1 o 138.893 255.862 0.00 1.96572 1.14
2 2 -3 2 o 142.357 116.962 180.00 1.96423 0.53
0 3 1 2 o 63.701 114.691 0.00 1.97519 0.16
1 3 -1 1 o 7.517 4.794 180.00 1.91081 0.04
3 -2 -1 1 o 45.903 32.633 0.00 1.90801 0.30
2 -1 3 2 o 682.691 532.472 180.00 1.95433 1.87
1 -3 2 2 o 0.477 0.575 0.00 1.89924 0.00
3 1 -1 2 o 256.678 255.862 0.00 1.96572 1.03
2 0 3 1 o 40.554 32.730 0.00 1.94823 0.22
1 3 -1 2 o 4.031 4.794 180.00 1.91081 0.01
3 -2 -1 2 o 24.169 32.633 0.00 1.90801 0.08
1 -2 -4 1 o 237.396 241.521 180.00 1.87194 1.04
3 -2 -2 1 o 2.124 1.918 0.00 1.86753 0.01
2 0 3 2 o 43.954 32.730 0.00 1.94823 0.12
3 0 -4 1 o 10.867 6.705 180.00 1.84528 0.07
2 0 -5 1 o 62.269 53.572 0.00 1.86523 0.36
1 3 -2 1 o 0.520 0.487 0.00 1.86747 0.00
2 2 1 1 o 7.199 9.373 180.00 1.89875 0.04
1 -2 -4 2 o 322.935 241.521 180.00 1.87194 0.70
3 -2 -2 2 o 2.853 1.918 0.00 1.86753 0.01
1 3 0 1 o 141.069 165.037 0.00 1.87746 0.72
3 0 -4 2 o 9.146 6.705 180.00 1.84528 0.03
1 1 -5 1 o 168.097 123.064 0.00 1.90657 0.95
2 0 -5 2 o 83.355 53.572 0.00 1.86523 0.24
1 3 -2 2 o 0.727 0.487 0.00 1.86747 0.00
2 2 1 2 o 7.148 9.373 180.00 1.89875 0.02
1 3 0 2 o 179.014 165.037 0.00 1.87746 0.45
3 1 -3 1 o 3.245 3.883 180.00 1.88005 0.03
1 1 -5 2 o 70.919 123.064 0.00 1.90657 0.20
3 0 1 1 o 482.564 238.446 180.00 1.92021 3.19
3 -1 1 1 o 49.364 29.837 180.00 1.92821 0.33
3 -1 -4 1 o 131.708 101.378 180.00 1.79521 0.79
1 -1 -5 1 o 139.897 98.676 0.00 1.83641 0.61
3 1 -3 2 o 3.961 3.883 180.00 1.88005 0.02
3 0 1 2 o 348.152 238.446 180.00 1.92021 1.14
3 -1 1 2 o 61.950 29.837 180.00 1.92821 0.20
0 3 -3 2 o 9.431 6.964 0.00 1.82038 0.02
2 -2 -4 1 o 18.030 13.408 180.00 1.80626 0.09
3 -1 -4 2 o 129.140 101.378 180.00 1.79521 0.38
0 0 5 1 o 0.045 0.057 0.00 1.87826 0.00
1 -1 -5 2 o 123.323 98.676 0.00 1.83641 0.27
3 1 0 1 o 58.115 79.691 180.00 1.88730 0.41
3 -2 0 1 o 195.669 212.471 0.00 1.87209 1.22
2 -1 -5 1 o 43.172 34.415 180.00 1.77903 0.21
0 3 -3 1 o 9.085 6.964 0.00 1.82038 0.04
0 0 5 2 o 0.059 0.057 0.00 1.87826 0.00
2 -2 -4 2 o 17.599 13.408 180.00 1.80626 0.04
1 -3 -2 1 o 31.251 42.167 180.00 1.87937 0.14
1 -2 4 1 o 104.717 75.882 180.00 1.81441 0.48
3 1 0 2 o 66.780 79.691 180.00 1.88730 0.23
3 -2 0 2 o 296.456 212.471 0.00 1.87209 0.91
2 -1 -5 2 o 34.944 34.415 180.00 1.77903 0.08
0 1 -5 1 o 496.098 315.379 180.00 1.85515 2.33
3 -2 -3 1 o 2.966 3.234 0.00 1.76381 0.02
1 -3 -2 2 o 36.522 42.167 180.00 1.87937 0.08
1 -2 4 2 o 99.371 75.882 180.00 1.81441 0.23
0 1 -5 2 o 584.223 315.379 180.00 1.85515 1.35
2 -3 -1 1 o 54.811 34.273 180.00 1.85650 0.28
3 -2 -3 2 o 2.587 3.234 0.00 1.76381 0.01
2 -3 0 1 o 0.115 0.116 180.00 1.86608 0.00
2 -3 -1 2 o 75.584 34.273 180.00 1.85650 0.19
1 2 3 1 o 498.155 435.200 180.00 1.82596 1.99
2 -3 0 2 o 0.207 0.116 180.00 1.86608 0.00
2 -2 3 1 o 44.962 33.588 180.00 1.78998 0.21
2 -3 1 1 o 16.192 12.277 0.00 1.80517 0.08
1 1 4 1 o 270.685 183.590 180.00 1.83940 1.08
1 2 3 2 o 643.128 435.200 180.00 1.82596 1.26
2 1 -5 1 o 24.399 18.184 0.00 1.79365 0.14
2 -2 3 2 o 44.177 33.588 180.00 1.78998 0.10
2 -3 1 2 o 16.508 12.277 0.00 1.80517 0.04
1 3 -3 1 o 234.268 282.643 180.00 1.76150 1.20
1 1 4 2 o 190.933 183.590 180.00 1.83940 0.38
2 1 -5 2 o 25.118 18.184 0.00 1.79365 0.07
1 3 -3 2 o 219.852 282.643 180.00 1.76150 0.56
0 2 4 1 o 98.054 70.761 180.00 1.78052 0.35
2 -3 -2 1 o 359.006 264.977 0.00 1.77951 1.63
2 2 -4 1 o 974.072 732.387 0.00 1.79220 5.93
1 3 1 1 o 21.454 15.886 180.00 1.77839 0.09
0 3 2 1 o 70.998 53.722 0.00 1.82075 0.28
0 2 4 2 o 75.983 70.761 180.00 1.78052 0.14
2 -3 -2 2 o 270.934 264.977 0.00 1.77951 0.61
2 2 -4 2 o 1039.877 732.387 0.00 1.79220 3.12
1 3 1 2 o 15.327 15.886 180.00 1.77839 0.03
1 -3 3 1 o 11.718 20.106 0.00 1.73435 0.05
0 3 2 2 o 79.210 53.722 0.00 1.82075 0.16
2 1 3 1 o 53.103 39.172 0.00 1.77603 0.23
3 1 -4 1 o 81.305 107.970 180.00 1.74343 0.53
1 -3 3 2 o 6.175 20.106 0.00 1.73435 0.01
2 1 3 2 o 32.597 39.172 0.00 1.77603 0.07
3 1 -4 2 o 58.779 107.970 180.00 1.74343 0.19
0 1 5 1 o 588.895 734.088 180.00 1.74534 2.12
3 1 1 1 o 36.091 49.317 0.00 1.75309 0.20
0 1 5 2 o 434.674 734.088 180.00 1.74534 0.78
3 -2 1 1 o 7.869 6.888 0.00 1.77152 0.04
3 1 1 2 o 37.163 49.317 0.00 1.75309 0.10
3 0 -5 1 o 165.482 158.397 0.00 1.65249 0.86
3 -2 1 2 o 4.338 6.888 0.00 1.77152 0.01
2 2 2 1 o 0.083 1.106 180.00 1.71850 0.00
1 -3 -3 1 o 7.407 47.042 180.00 1.71174 0.03
3 -2 -4 1 o 160.325 156.635 0.00 1.62472 0.70
1 2 -5 1 o 8.231 34.474 180.00 1.70926 0.04
3 0 -5 2 o 186.220 158.397 0.00 1.65249 0.48
2 2 2 2 o 0.264 1.106 180.00 1.71850 0.00
2 -3 2 1 o 2.831 2.759 0.00 1.69210 0.01
0 2 -5 1 o 318.182 315.363 0.00 1.69128 1.32
3 -1 2 1 o 154.188 191.596 0.00 1.74414 0.77
1 -3 -3 2 o 32.744 47.042 180.00 1.71174 0.06
1 2 -5 2 o 28.220 34.474 180.00 1.70926 0.07
3 -2 -4 2 o 178.005 156.635 0.00 1.62472 0.38
3 0 2 1 o 2.377 6.801 180.00 1.72840 0.01
2 -3 2 2 o 2.331 2.759 0.00 1.69210 0.01
0 2 -5 2 o 258.383 315.363 0.00 1.69128 0.53
3 -1 2 2 o 116.781 191.596 0.00 1.74414 0.29
3 -1 -5 1 o 83.169 67.050 180.00 1.60834 0.38
0 3 -4 1 o 0.104 0.089 0.00 1.64438 0.00
2 -3 -3 1 o 1.451 1.527 0.00 1.65722 0.01
3 0 2 2 o 0.489 6.801 180.00 1.72840 0.00
3 -1 -5 2 o 89.496 67.050 180.00 1.60834 0.20
0 3 -4 2 o 0.093 0.089 0.00 1.64438 0.00
2 -3 -3 2 o 1.870 1.527 0.00 1.65722 0.00
4 -1 -2 1 o 254.096 253.158 180.00 1.62851 1.37
2 -1 4 1 o 22.131 35.899 180.00 1.67342 0.09
1 -1 5 1 o 37.324 60.181 180.00 1.67316 0.14
2 3 -1 1 o 29.607 28.440 180.00 1.65462 0.13
4 -1 -2 2 o 267.718 253.158 180.00 1.62851 0.71
2 -1 4 2 o 24.854 35.899 180.00 1.67342 0.05
1 -1 5 2 o 42.875 60.181 180.00 1.67316 0.08
2 3 -2 1 o 193.794 151.685 180.00 1.64782 0.91
3 2 -1 1 o 170.523 297.046 180.00 1.67283 0.94
4 0 -2 1 o 0.062 0.062 0.00 1.63051 0.00
2 3 -1 2 o 38.948 28.440 180.00 1.65462 0.09
4 -1 -1 1 o 592.026 611.973 180.00 1.62512 3.12
2 3 -2 2 o 176.179 151.685 180.00 1.64782 0.41
3 2 -1 2 o 195.392 297.046 180.00 1.67283 0.53
2 -2 -5 1 o 11.936 8.513 180.00 1.58827 0.04
4 0 -2 2 o 0.062 0.062 0.00 1.63051 0.00
1 3 -4 1 o 292.872 293.536 180.00 1.62116 1.25
1 0 -6 1 o 84.211 83.250 0.00 1.63358 0.31
4 -1 -3 1 o 3.646 2.696 180.00 1.58477 0.02
4 -1 -1 2 o 683.655 611.973 180.00 1.62512 1.77
3 2 -2 1 o 142.258 271.342 180.00 1.68001 0.83
2 0 -6 1 o 76.553 54.850 0.00 1.59623 0.31
1 -2 -5 1 o 19.318 15.728 180.00 1.61139 0.06
2 -2 -5 2 o 10.577 8.513 180.00 1.58827 0.02
2 0 4 1 o 4.968 6.042 0.00 1.66088 0.02
4 0 -3 1 o 145.049 102.678 0.00 1.59420 0.79
1 3 -4 2 o 361.788 293.536 180.00 1.62116 0.76
1 0 -6 2 o 77.848 83.250 0.00 1.63358 0.14
4 -1 -3 2 o 3.335 2.696 180.00 1.58477 0.01
1 0 5 1 o 5.450 11.942 0.00 1.67073 0.02
4 0 -1 1 o 9.975 9.931 180.00 1.61905 0.05
3 2 -2 2 o 109.368 271.342 180.00 1.68001 0.32
2 0 -6 2 o 77.123 54.850 0.00 1.59623 0.15
1 3 2 1 o 78.650 58.393 180.00 1.64098 0.26
1 -2 -5 2 o 21.134 15.728 180.00 1.61139 0.03
2 0 4 2 o 6.801 6.042 0.00 1.66088 0.01
4 0 -3 2 o 138.872 102.678 0.00 1.59420 0.37
2 3 0 1 o 16.317 13.151 0.00 1.61182 0.07
1 0 5 2 o 10.381 11.942 0.00 1.67073 0.02
0 3 3 1 o 70.285 46.397 0.00 1.64476 0.22
4 0 -1 2 o 12.952 9.931 180.00 1.61905 0.03
3 -2 2 1 o 2.217 2.312 180.00 1.63378 0.01
1 3 2 2 o 55.659 58.393 180.00 1.64098 0.09
3 -3 -1 1 o 68.583 60.068 180.00 1.61408 0.29
2 3 0 2 o 17.743 13.151 0.00 1.61182 0.04
3 1 -5 1 o 6.162 4.379 180.00 1.58561 0.03
0 3 3 2 o 43.671 46.397 0.00 1.64476 0.07
3 -2 2 2 o 2.036 2.312 180.00 1.63378 0.00
1 1 -6 1 o 18.193 13.653 0.00 1.60911 0.07
3 -3 -2 1 o 151.357 116.658 180.00 1.58184 0.61
2 3 -3 1 o 0.456 0.304 180.00 1.59317 0.00
3 2 0 1 o 1.394 1.297 0.00 1.61569 0.01
3 -3 -1 2 o 80.526 60.068 180.00 1.61408 0.17
3 1 -5 2 o 5.038 4.379 180.00 1.58561 0.01
1 -3 4 1 o 20.426 14.540 180.00 1.56108 0.07
3 2 -3 1 o 218.960 321.046 180.00 1.63533 1.21
1 1 -6 2 o 18.541 13.653 0.00 1.60911 0.03
2 2 -5 1 o 10.876 7.898 0.00 1.60923 0.05
3 -3 -2 2 o 139.710 116.658 180.00 1.58184 0.28
2 3 -3 2 o 0.404 0.304 180.00 1.59317 0.00
3 2 0 2 o 1.784 1.297 0.00 1.61569 0.00
2 -1 -6 1 o 53.173 40.546 0.00 1.53434 0.18
1 -3 4 2 o 17.549 14.540 180.00 1.56108 0.03
3 2 -3 2 o 217.682 321.046 180.00 1.63533 0.59
1 -2 5 1 o 397.073 277.485 180.00 1.56537 1.32
2 2 -5 2 o 10.784 7.898 0.00 1.60923 0.03
2 -2 4 1 o 5.022 4.301 180.00 1.57405 0.02
3 1 2 1 o 529.421 370.406 0.00 1.59580 2.16
0 4 -1 1 o 73.559 51.979 180.00 1.55858 0.24
2 -1 -6 2 o 55.449 40.546 0.00 1.53434 0.09
1 -2 5 2 o 363.443 277.485 180.00 1.56537 0.60
3 -3 0 1 o 49.254 36.328 180.00 1.59983 0.20
2 -3 3 1 o 267.503 214.308 180.00 1.55358 0.94
1 -1 -6 1 o 32.296 27.204 180.00 1.55197 0.10
4 -1 -4 1 o 42.341 42.728 0.00 1.50423 0.19
1 2 4 1 o 21.986 13.949 180.00 1.58774 0.06
4 -1 0 1 o 45.615 42.507 180.00 1.57546 0.22
2 -2 4 2 o 6.311 4.301 180.00 1.57405 0.01
3 1 2 2 o 545.177 370.406 0.00 1.59580 1.10
4 0 -4 1 o 0.465 0.363 0.00 1.51885 0.00
0 4 -1 2 o 57.925 51.979 180.00 1.55858 0.10
2 1 -6 1 o 0.503 0.353 0.00 1.55775 0.00
3 -3 0 2 o 62.304 36.328 180.00 1.59983 0.13
2 -3 3 2 o 248.210 214.308 180.00 1.55358 0.43
1 -1 -6 2 o 31.596 27.204 180.00 1.55197 0.05
1 2 4 2 o 15.311 13.949 180.00 1.58774 0.02
4 -1 -4 2 o 45.113 42.728 0.00 1.50423 0.10
4 -1 0 2 o 65.472 42.507 180.00 1.57546 0.15
4 0 -4 2 o 0.375 0.363 0.00 1.51885 0.00
4 -2 -2 1 o 81.844 59.457 180.00 1.52514 0.35
1 -4 0 1 o 376.561 232.864 0.00 1.56476 1.22
1 -4 1 1 o 75.487 61.978 0.00 1.55321 0.25
0 4 0 1 o 2.645 2.339 180.00 1.55154 0.01
0 4 -2 1 o 24.358 17.567 180.00 1.52394 0.08
2 1 -6 2 o 0.379 0.353 0.00 1.55775 0.00
0 0 6 1 o 76.454 46.347 180.00 1.56522 0.23
4 -2 -2 2 o 71.191 59.457 180.00 1.52514 0.15
2 -3 -4 1 o 94.649 77.914 180.00 1.51599 0.29
1 -4 0 2 o 300.069 232.864 0.00 1.56476 0.48
1 -4 1 2 o 70.523 61.978 0.00 1.55321 0.11
4 -2 -1 1 o 4.138 2.931 180.00 1.52905 0.02
4 0 0 1 o 1.363 0.859 0.00 1.56267 0.01
0 4 0 2 o 2.673 2.339 180.00 1.55154 0.00
0 4 -2 2 o 20.375 17.567 180.00 1.52394 0.03
1 -3 -4 1 o 33.444 28.187 0.00 1.53913 0.10
3 -3 -3 1 o 0.026 0.025 180.00 1.51077 0.00
0 1 -6 1 o 0.496 0.323 0.00 1.55886 0.00
3 -1 3 1 o 5.082 3.281 0.00 1.55952 0.02
3 -2 -5 1 o 1.891 1.336 0.00 1.47619 0.01
0 0 6 2 o 60.933 46.347 180.00 1.56522 0.09
0 2 5 1 o 99.258 71.922 180.00 1.53389 0.26
2 -3 -4 2 o 72.006 77.914 180.00 1.51599 0.11
4 -2 -1 2 o 3.895 2.931 180.00 1.52905 0.01
4 0 0 2 o 1.017 0.859 0.00 1.56267 0.00
1 -3 -4 2 o 41.240 28.187 0.00 1.53913 0.06
2 3 1 1 o 126.815 85.383 180.00 1.52989 0.43
3 -3 -3 2 o 0.023 0.025 180.00 1.51077 0.00
0 1 -6 2 o 0.340 0.323 0.00 1.55886 0.00
3 -1 3 2 o 3.257 3.281 0.00 1.55952 0.01
1 -4 2 1 o 57.770 63.990 0.00 1.50196 0.18
2 2 3 1 o 71.005 60.625 0.00 1.53842 0.22
4 -2 -3 1 o 345.525 256.486 180.00 1.48284 1.39
3 -2 -5 2 o 1.912 1.336 0.00 1.47619 0.00
0 2 5 2 o 104.405 71.922 180.00 1.53389 0.13
1 1 5 1 o 173.232 113.492 180.00 1.55943 0.48
4 1 -2 1 o 26.433 18.130 180.00 1.53007 0.13
2 3 1 2 o 120.780 85.383 180.00 1.52989 0.20
1 -4 2 2 o 65.727 63.990 0.00 1.50196 0.10
2 2 3 2 o 90.659 60.625 0.00 1.53842 0.14
4 -2 -3 2 o 369.882 256.486 180.00 1.48284 0.74
3 0 -6 1 o 7.977 5.434 180.00 1.47217 0.03
2 1 4 1 o 60.778 53.804 0.00 1.54331 0.19
3 -3 1 1 o 3.641 3.223 180.00 1.54257 0.01
1 1 5 2 o 91.673 113.492 180.00 1.55943 0.13
3 0 3 1 o 0.818 0.736 0.00 1.54128 0.00
3 2 1 1 o 52.353 35.961 0.00 1.52238 0.20
4 1 -2 2 o 25.244 18.130 180.00 1.53007 0.06
3 2 -4 1 o 84.568 122.654 180.00 1.54999 0.41
4 1 -3 1 o 1.305 1.519 0.00 1.50635 0.01
3 0 -6 2 o 7.819 5.434 180.00 1.47217 0.01
2 1 4 2 o 76.617 53.804 0.00 1.54331 0.12
2 3 -4 1 o 100.268 130.593 180.00 1.50354 0.40
3 -3 1 2 o 4.709 3.223 180.00 1.54257 0.01
3 0 3 2 o 1.171 0.736 0.00 1.54128 0.00
3 2 1 2 o 38.633 35.961 0.00 1.52238 0.07
3 2 -4 2 o 107.450 122.654 180.00 1.54999 0.26
4 1 -3 2 o 1.449 1.519 0.00 1.50635 0.00
0 3 -5 1 o 23.969 16.451 0.00 1.47353 0.08
4 1 -1 1 o 132.094 117.629 180.00 1.51400 0.61
2 3 -4 2 o 123.307 130.593 180.00 1.50354 0.24
0 4 -3 1 o 0.388 0.263 0.00 1.45525 0.00
1 -4 -1 1 o 52.001 34.093 0.00 1.53392 0.16
3 -1 -6 1 o 14.322 12.208 0.00 1.43509 0.05
0 3 -5 2 o 23.544 16.451 0.00 1.47353 0.04
1 4 -1 1 o 54.306 36.651 180.00 1.47442 0.17
4 1 -1 2 o 89.691 117.629 180.00 1.51400 0.21
0 4 -3 2 o 0.366 0.263 0.00 1.45525 0.00
1 4 -2 1 o 288.029 199.909 180.00 1.46007 0.91
1 3 -5 1 o 7.456 5.055 0.00 1.47220 0.03
4 -2 0 1 o 22.253 24.132 180.00 1.49371 0.09
0 4 1 1 o 22.398 35.201 180.00 1.50443 0.06
1 -4 -1 2 o 54.062 34.093 0.00 1.53392 0.08
1 2 -6 1 o 56.436 57.084 0.00 1.49134 0.20
3 -1 -6 2 o 14.247 12.208 0.00 1.43509 0.02
1 4 -1 2 o 52.914 36.651 180.00 1.47442 0.08
0 4 1 2 o 32.818 35.201 180.00 1.50443 0.05
4 -2 0 2 o 33.972 24.132 180.00 1.49371 0.07
3 -2 3 1 o 78.366 58.376 0.00 1.48526 0.26
1 4 -2 2 o 308.023 199.909 180.00 1.46007 0.48
1 3 -5 2 o 7.163 5.055 0.00 1.47220 0.01
4 -1 -5 1 o 1.322 1.110 0.00 1.40248 0.00
1 2 -6 2 o 84.215 57.084 0.00 1.49134 0.14
1 3 3 1 o 20.611 23.371 0.00 1.49203 0.06
0 1 6 1 o 59.489 37.687 180.00 1.47963 0.15
3 -2 3 2 o 86.942 58.376 0.00 1.48526 0.14
4 -2 -4 1 o 217.745 216.568 180.00 1.41092 0.78
1 4 0 1 o 9.261 5.837 180.00 1.45312 0.03
0 2 -6 1 o 13.134 9.191 180.00 1.46368 0.04
0 3 4 1 o 55.284 37.781 0.00 1.47389 0.13
1 3 3 2 o 36.152 23.371 0.00 1.49203 0.05
4 -1 -5 2 o 1.448 1.110 0.00 1.40248 0.00
4 1 -4 1 o 16.493 11.098 0.00 1.44800 0.07
0 1 6 2 o 59.456 37.687 180.00 1.47963 0.07
2 -4 1 1 o 46.524 33.029 180.00 1.46090 0.14
4 0 -5 1 o 75.657 67.048 0.00 1.41967 0.31
4 -1 1 1 o 47.402 57.993 0.00 1.49101 0.19
4 -2 -4 2 o 260.415 216.568 180.00 1.41092 0.46
1 4 0 2 o 7.944 5.837 180.00 1.45312 0.01
0 2 -6 2 o 14.151 9.191 180.00 1.46368 0.02
0 3 4 2 o 53.000 37.781 0.00 1.47389 0.06
3 -3 -4 1 o 2.275 2.201 180.00 1.41522 0.01
2 -4 0 1 o 0.225 0.168 180.00 1.48639 0.00
4 1 -4 2 o 13.460 11.098 0.00 1.44800 0.03
2 -4 1 2 o 52.836 33.029 180.00 1.46090 0.08
4 0 -5 2 o 65.356 67.048 0.00 1.41967 0.13
4 -1 1 2 o 99.180 57.993 0.00 1.49101 0.19
4 0 1 1 o 8.935 6.175 0.00 1.47408 0.03
3 -3 2 1 o 11.596 7.438 180.00 1.45483 0.04
2 -2 -6 2 o 27.668 20.272 0.00 1.40166 0.04
1 -4 3 1 o 0.003 0.003 0.00 1.42172 0.00
3 -3 -4 2 o 2.264 2.201 180.00 1.41522 0.00
2 -4 0 2 o 0.255 0.168 180.00 1.48639 0.00
4 1 0 1 o 5.445 3.902 0.00 1.46168 0.02
3 1 -6 1 o 301.378 273.277 0.00 1.42977 1.15
2 -1 5 1 o 0.128 0.070 0.00 1.45087 0.00
2 -2 -6 1 o 25.433 20.272 0.00 1.40166 0.07
4 0 1 2 o 8.618 6.175 0.00 1.47408 0.02
2 -4 -1 1 o 214.991 207.297 0.00 1.47544 0.65
3 -3 2 2 o 10.483 7.438 180.00 1.45483 0.02
1 4 -3 1 o 7.820 8.289 180.00 1.41301 0.02
1 -4 3 2 o 0.003 0.003 0.00 1.42172 0.00
4 1 0 2 o 6.376 3.902 0.00 1.46168 0.01
2 -3 4 1 o 114.619 125.217 180.00 1.41132 0.33
3 1 -6 2 o 324.345 273.277 0.00 1.42977 0.61
2 -1 5 2 o 0.099 0.070 0.00 1.45087 0.00
1 -4 -2 1 o 17.430 12.311 0.00 1.46764 0.05
2 2 -6 1 o 36.003 31.466 180.00 1.43791 0.13
2 -4 -1 2 o 245.328 207.297 0.00 1.47544 0.36
1 -2 -6 1 o 38.824 33.089 0.00 1.40366 0.09
1 4 -3 2 o 9.296 8.289 180.00 1.41301 0.01
2 -3 4 2 o 153.673 125.217 180.00 1.41132 0.21
3 2 -5 1 o 7.567 5.753 0.00 1.44155 0.03
1 -1 6 1 o 3.042 2.958 0.00 1.43149 0.01
1 -3 5 1 o 1.486 1.113 180.00 1.39903 0.00
3 1 3 1 o 173.075 145.232 0.00 1.43938 0.52
1 -4 -2 2 o 17.315 12.311 0.00 1.46764 0.02
2 2 -6 2 o 33.992 31.466 180.00 1.43791 0.06
1 -2 -6 2 o 45.741 33.089 0.00 1.40366 0.05
3 2 -5 2 o 5.256 5.753 0.00 1.44155 0.01
2 3 2 1 o 14.612 11.905 180.00 1.42529 0.04
2 -4 2 1 o 0.594 0.529 180.00 1.40419 0.00
1 -1 6 2 o 3.686 2.958 0.00 1.43149 0.00
3 1 3 2 o 146.666 145.232 0.00 1.43938 0.22
1 -3 5 2 o 1.531 1.113 180.00 1.39903 0.00
2 -3 -5 1 o 10.305 9.607 0.00 1.37517 0.02
2 0 -7 1 o 31.920 24.765 0.00 1.38650 0.09
2 3 2 2 o 12.557 11.905 180.00 1.42529 0.02
2 -4 2 2 o 0.719 0.529 180.00 1.40419 0.00
2 0 5 1 o 57.709 53.254 180.00 1.43705 0.15
2 -4 -2 1 o 7.009 7.321 0.00 1.43035 0.02
3 3 -2 1 o 0.265 0.327 180.00 1.41278 0.00
3 3 -1 1 o 14.333 11.138 180.00 1.40327 0.05
2 -3 -5 2 o 9.205 9.607 0.00 1.37517 0.01
2 0 -7 2 o 28.045 24.765 0.00 1.38650 0.04
3 2 2 1 o 2.744 3.940 0.00 1.41062 0.01
1 4 1 1 o 121.938 79.592 0.00 1.40049 0.31
2 -2 5 1 o 152.006 107.530 180.00 1.38970 0.39
1 0 -7 2 o 53.975 37.396 180.00 1.39715 0.07
0 4 -4 1 o 17.594 17.849 180.00 1.36528 0.05
1 0 -7 1 o 52.680 37.396 180.00 1.39715 0.14
3 -2 -6 1 o 2.491 4.870 0.00 1.33436 0.01
2 0 5 2 o 58.566 53.254 180.00 1.43705 0.08
2 -4 -2 2 o 9.673 7.321 0.00 1.43035 0.01
2 3 -5 1 o 64.122 46.643 180.00 1.39563 0.21
3 3 -2 2 o 0.380 0.327 180.00 1.41278 0.00
3 3 -1 2 o 15.419 11.138 180.00 1.40327 0.03
3 2 2 2 o 5.575 3.940 0.00 1.41062 0.01
1 4 1 2 o 122.777 79.592 0.00 1.40049 0.15
2 -2 5 2 o 124.190 107.530 180.00 1.38970 0.16
4 -2 1 1 o 0.020 0.015 0.00 1.42660 0.00
0 4 2 1 o 7.335 6.064 180.00 1.42722 0.02
4 -3 -2 1 o 24.550 26.419 180.00 1.36757 0.08
1 -3 -5 1 o 27.559 23.896 180.00 1.37928 0.06
0 4 -4 2 o 21.409 17.849 180.00 1.36528 0.03
4 1 -5 1 o 151.605 161.633 180.00 1.36608 0.58
1 0 6 1 o 22.316 16.321 0.00 1.42449 0.05
3 -2 -6 2 o 0.162 4.870 0.00 1.33436 0.00
2 3 -5 2 o 62.758 46.643 180.00 1.39563 0.10
4 -2 -5 1 o -0.887 21.849 0.00 1.32156 0.00
4 -2 1 2 o 0.017 0.015 0.00 1.42660 0.00
3 -1 4 1 o 10.915 6.900 180.00 1.39173 0.03
0 4 2 2 o 8.283 6.064 180.00 1.42722 0.01
3 3 -3 1 o 0.261 0.135 0.00 1.39094 0.00
1 -3 -5 2 o 22.639 23.896 180.00 1.37928 0.02
4 -3 -2 2 o 31.599 26.419 180.00 1.36757 0.05
4 1 -5 2 o 202.208 161.633 180.00 1.36608 0.38
1 0 6 2 o 16.203 16.321 0.00 1.42449 0.02
1 1 -7 1 o 6.220 4.668 0.00 1.38675 0.02
1 -2 6 1 o 8.643 9.347 180.00 1.36702 0.02
4 -3 -1 1 o 4.777 4.404 0.00 1.37526 0.02
2 -1 -7 1 o 135.215 150.727 0.00 1.34079 0.34
1 2 5 1 o 24.066 14.850 0.00 1.39197 0.05
1 4 -4 1 o 21.112 21.805 0.00 1.34195 0.06
4 -2 -5 2 o -0.887 21.849 0.00 1.32156 0.00
3 -1 4 2 o 7.634 6.900 180.00 1.39173 0.01
3 3 -3 2 o 0.139 0.135 0.00 1.39094 0.00
1 1 -7 2 o 5.486 4.668 0.00 1.38675 0.01
1 -2 6 2 o 11.479 9.347 180.00 1.36702 0.01
4 -3 -1 2 o 3.863 4.404 0.00 1.37526 0.01
2 1 -7 1 o 68.810 77.454 0.00 1.36584 0.21
4 1 1 1 o 0.933 0.841 0.00 1.38340 0.00
1 2 5 2 o 15.903 14.850 0.00 1.39197 0.02
2 -1 -7 2 o 56.809 150.727 0.00 1.34079 0.07
4 -3 -3 1 o 8.720 24.031 180.00 1.33235 0.03
1 4 -4 2 o 9.790 21.805 0.00 1.34195 0.01
2 2 4 1 o 14.298 13.316 0.00 1.37475 0.03
3 3 0 1 o 39.076 42.937 180.00 1.36421 0.12
1 -1 -7 1 o 1.667 1.744 0.00 1.34050 0.00
2 -4 -3 1 o 3.081 2.478 180.00 1.35972 0.01
2 1 -7 2 o 105.456 77.454 0.00 1.36584 0.15
4 1 1 2 o 0.903 0.841 0.00 1.38340 0.00
4 0 -6 1 o -1.382 27.417 0.00 1.31134 0.00
1 -4 4 1 o -0.093 0.972 180.00 1.32587 0.00
4 -3 -3 2 o -0.857 24.031 180.00 1.33235 0.00
2 2 4 2 o 10.883 13.316 0.00 1.37475 0.01
3 0 4 1 o 89.853 89.029 180.00 1.37381 0.24
3 3 0 2 o 62.714 42.937 180.00 1.36421 0.10
3 -3 -5 1 o -0.004 0.118 0.00 1.30954 0.00
1 -4 -3 1 o 137.581 103.604 0.00 1.37856 0.31
4 -1 2 1 o 1.739 1.063 180.00 1.38752 0.01
1 -1 -7 2 o 0.558 1.744 0.00 1.34050 0.00
4 -1 -6 1 o 6.496 12.247 0.00 1.29366 0.02
2 -4 -3 2 o 2.934 2.478 180.00 1.35972 0.00
3 -3 3 1 o 62.300 52.111 180.00 1.35163 0.17
4 0 -6 2 o 2.959 27.417 0.00 1.31134 0.01
1 -4 4 2 o -0.093 0.972 180.00 1.32587 0.00
3 0 4 2 o 70.577 89.029 180.00 1.37381 0.09
2 4 -2 1 o 9.044 11.823 0.00 1.33777 0.03
3 0 -7 1 o -0.312 12.693 0.00 1.31388 0.00
1 -4 -3 2 o 82.374 103.604 0.00 1.37856 0.09
3 -3 -5 2 o 0.025 0.118 0.00 1.30954 0.00
2 4 -1 1 o 2.639 3.704 180.00 1.33688 0.01
2 -4 3 1 o -1.961 57.835 0.00 1.32633 0.00
4 -3 0 1 o 202.027 139.240 0.00 1.35404 0.61
4 -1 2 2 o 1.506 1.063 180.00 1.38752 0.00
4 2 -2 1 o 24.561 25.050 180.00 1.37351 0.09
4 -1 -6 2 o 9.138 12.247 0.00 1.29366 0.01
3 -3 3 2 o 56.688 52.111 180.00 1.35163 0.07
3 -2 4 1 o 1.338 1.215 0.00 1.34273 0.00
4 2 -1 1 o 0.205 0.129 180.00 1.35711 0.00
3 -1 -7 1 o 12.299 15.349 180.00 1.28331 0.03
4 0 2 1 o 40.158 52.376 0.00 1.36898 0.13
1 3 -6 1 o 8.046 33.281 0.00 1.33043 0.02
0 2 6 1 o 82.399 86.918 180.00 1.33956 0.16
0 3 -6 1 o -1.203 33.987 0.00 1.31995 0.00
2 4 -2 2 o 1.841 11.823 0.00 1.33777 0.00
3 0 -7 2 o -0.288 12.693 0.00 1.31388 0.00
2 4 -1 2 o 0.568 3.704 180.00 1.33688 0.00
4 -3 0 2 o 172.167 139.240 0.00 1.35404 0.26
2 -4 3 2 o -1.961 57.835 0.00 1.32633 0.00
4 2 -2 2 o 20.165 25.050 180.00 1.37351 0.04
5 -1 -2 1 o -0.035 2.507 180.00 1.31353 0.00
3 -2 4 2 o 0.530 1.215 0.00 1.34273 0.00
5 -1 -3 1 o 3.883 16.982 0.00 1.30095 0.01
4 2 -3 1 o 10.585 9.505 0.00 1.36100 0.04
4 2 -1 2 o 0.152 0.129 180.00 1.35711 0.00
1 3 4 1 o 4.389 3.810 180.00 1.34874 0.01
3 -1 -7 2 o 12.778 15.349 180.00 1.28331 0.02
4 0 2 2 o 63.776 52.376 0.00 1.36898 0.10
3 -4 -1 1 o 88.781 54.980 180.00 1.35468 0.24
1 3 -6 2 o -0.538 33.281 0.00 1.33043 0.00
2 4 -3 1 o -1.090 53.795 180.00 1.31227 0.00
0 2 6 2 o 24.944 86.918 180.00 1.33956 0.03
3 -4 -2 1 o 1.949 6.783 0.00 1.33098 0.00
0 3 -6 2 o -1.203 33.987 0.00 1.31995 0.00
0 1 -7 1 o 14.588 12.952 0.00 1.34214 0.03
3 3 -4 1 o 41.337 31.177 180.00 1.34182 0.14
0 0 7 1 o 42.657 36.653 0.00 1.34162 0.09
5 -1 -2 2 o -0.030 2.507 180.00 1.31353 0.00
2 1 5 1 o 8.804 5.716 180.00 1.35414 0.02
4 2 -3 2 o 12.276 9.505 0.00 1.36100 0.02
5 -1 -3 2 o 9.501 16.982 0.00 1.30095 0.02
1 3 4 2 o 4.004 3.810 180.00 1.34874 0.00
3 -4 -1 2 o 71.882 54.980 180.00 1.35468 0.10
2 4 -3 2 o 1.518 53.795 180.00 1.31227 0.00
3 -4 -2 2 o -0.025 6.783 0.00 1.33098 0.00
1 1 6 1 o 36.021 29.475 180.00 1.34895 0.07
0 3 5 1 o -0.122 7.118 0.00 1.32026 0.00
4 -3 -4 1 o 23.649 28.161 0.00 1.27551 0.06
3 2 -6 1 o -0.123 11.515 180.00 1.32584 0.00
0 1 -7 2 o 5.074 12.952 0.00 1.34214 0.01
3 -4 0 1 o 0.315 0.377 180.00 1.35084 0.00
2 4 0 1 o -0.371 20.978 180.00 1.30974 0.00
3 3 -4 2 o 3.359 31.177 180.00 1.34182 0.01
0 0 7 2 o 12.167 36.653 0.00 1.34162 0.01
2 1 5 2 o 7.289 5.716 180.00 1.35414 0.01
5 0 -3 1 o 42.099 104.584 180.00 1.29717 0.15
1 4 2 1 o -0.901 37.082 0.00 1.32594 0.00
5 0 -2 1 o -0.316 4.448 180.00 1.30542 0.00
1 2 -7 1 o -0.416 9.717 0.00 1.31348 0.00
1 1 6 2 o 32.691 29.475 180.00 1.34895 0.03
0 3 5 2 o -0.122 7.118 0.00 1.32026 0.00
5 -1 -1 1 o 5.578 23.198 180.00 1.30078 0.02
3 -4 0 2 o 0.523 0.377 180.00 1.35084 0.00
3 2 -6 2 o -0.123 11.515 180.00 1.32584 0.00
2 4 0 2 o 4.563 20.978 180.00 1.30974 0.01
4 -3 -4 2 o 18.457 28.161 0.00 1.27551 0.02
5 0 -3 2 o 72.832 104.584 180.00 1.29717 0.13
1 4 2 2 o -0.901 37.082 0.00 1.32594 0.00
4 -2 2 1 o 145.234 157.227 0.00 1.33967 0.43
5 -1 -4 1 o 0.396 0.655 180.00 1.26512 0.00
3 1 -7 1 o 8.921 11.314 0.00 1.28748 0.03
5 0 -2 2 o 1.649 4.448 180.00 1.30542 0.00
4 2 -4 1 o -0.030 1.469 180.00 1.32184 0.00
4 2 0 1 o -0.110 14.063 0.00 1.31474 0.00
1 2 -7 2 o -0.416 9.717 0.00 1.31348 0.00
3 -4 1 1 o -1.209 37.181 0.00 1.32016 0.00
2 3 3 1 o -0.250 8.016 180.00 1.31313 0.00
5 -1 -1 2 o 13.671 23.198 180.00 1.30078 0.02
3 3 1 1 o 1.015 6.783 0.00 1.30244 0.00
0 4 3 1 o 16.615 83.900 180.00 1.33309 0.04
4 -2 2 2 o 54.238 157.227 0.00 1.33967 0.08
3 1 -7 2 o 10.168 11.314 0.00 1.28748 0.01
5 -1 -4 2 o 0.349 0.655 180.00 1.26512 0.00
4 2 -4 2 o -0.030 1.469 180.00 1.32184 0.00
4 2 0 2 o -0.110 14.063 0.00 1.31474 0.00
3 -4 1 2 o -1.209 37.181 0.00 1.32016 0.00
2 3 3 2 o -0.250 8.016 180.00 1.31313 0.00
5 0 -4 1 o 1.105 1.995 0.00 1.26545 0.00
2 -3 5 1 o 21.076 23.814 0.00 1.27779 0.05
5 -2 -2 1 o 4.557 8.147 180.00 1.26563 0.01
0 4 -5 1 o 3.008 4.882 180.00 1.26649 0.01
3 3 1 2 o 3.875 6.783 0.00 1.30244 0.01
0 4 3 2 o -1.284 83.900 180.00 1.33309 0.00
3 -4 -3 1 o 9.244 10.408 0.00 1.28380 0.02
4 1 -6 1 o 74.871 90.720 180.00 1.27263 0.24
5 -2 -3 1 o 26.757 30.721 180.00 1.25066 0.08
4 -2 -6 1 o 38.927 38.840 0.00 1.22585 0.10
5 0 -1 1 o 51.528 69.085 0.00 1.28885 0.17
2 -3 5 2 o 17.288 23.814 0.00 1.27779 0.02
5 0 -4 2 o 0.807 1.995 0.00 1.26545 0.00
5 -2 -2 2 o 2.832 8.147 180.00 1.26563 0.00
0 4 -5 2 o 1.963 4.882 180.00 1.26649 0.00
3 2 3 1 o 8.098 14.553 180.00 1.29499 0.02
2 -2 -7 1 o 2.539 1.957 0.00 1.24586 0.01
1 4 -5 1 o 1.281 3.696 180.00 1.25747 0.00
3 -4 -3 2 o 9.986 10.408 0.00 1.28380 0.01
4 1 -6 2 o 47.103 90.720 180.00 1.27263 0.07
0 2 -7 1 o 0.101 0.116 180.00 1.28392 0.00
5 -2 -3 2 o 43.489 30.721 180.00 1.25066 0.06
2 3 -6 1 o 5.013 5.446 180.00 1.28339 0.01
2 -4 -4 1 o 7.817 8.270 0.00 1.27448 0.02
4 -2 -6 2 o 22.936 38.840 0.00 1.22585 0.03
0 1 7 1 o 0.032 0.034 0.00 1.28254 0.00
2 4 -4 1 o 0.111 0.205 180.00 1.26461 0.00
5 0 -1 2 o 62.630 69.085 0.00 1.28885 0.10
4 -3 1 1 o -3.751 121.542 0.00 1.30765 0.00
3 1 4 1 o 0.140 0.238 0.00 1.29605 0.00
2 2 -7 1 o 2.715 3.050 0.00 1.28690 0.01
1 -4 -4 1 o 84.085 90.686 180.00 1.27952 0.16
3 2 3 2 o 12.840 14.553 180.00 1.29499 0.02
2 -2 -7 2 o 2.764 1.957 0.00 1.24586 0.00
1 4 -5 2 o 3.519 3.696 180.00 1.25747 0.00
2 -3 -6 2 o 66.736 48.257 180.00 1.24500 0.06
4 1 2 1 o 63.984 96.990 180.00 1.29135 0.18
0 2 -7 2 o 0.112 0.116 180.00 1.28392 0.00
2 3 -6 2 o 5.516 5.446 180.00 1.28339 0.01
2 -4 -4 2 o 5.347 8.270 0.00 1.27448 0.01
0 1 7 2 o 0.037 0.034 0.00 1.28254 0.00
2 4 -4 2 o 0.074 0.205 180.00 1.26461 0.00
2 -3 -6 1 o 67.058 48.257 180.00 1.24500 0.13
4 -3 1 2 o 38.659 121.542 0.00 1.30765 0.06
1 -3 6 1 o 0.052 0.114 0.00 1.25574 0.00
3 1 4 2 o 0.210 0.238 0.00 1.29605 0.00
2 2 -7 2 o 2.927 3.050 0.00 1.28690 0.00
1 -4 -4 2 o 71.506 90.686 180.00 1.27952 0.07
4 1 2 2 o 95.350 96.990 180.00 1.29135 0.13
3 -4 2 1 o 11.219 15.586 0.00 1.26772 0.03
5 -2 -1 1 o 1.379 5.433 0.00 1.25795 0.00
5 -2 -4 1 o 1.310 2.459 180.00 1.21533 0.00
2 -1 6 1 o 92.036 91.802 180.00 1.27445 0.19
0 5 -1 1 o 1.586 1.445 180.00 1.24848 0.00
5 -1 0 1 o 3.759 7.516 0.00 1.26481 0.01
1 -3 6 2 o 0.129 0.114 0.00 1.25574 0.00
2 -4 4 1 o 18.554 13.066 0.00 1.23805 0.04
5 -1 -5 1 o 3.202 5.289 180.00 1.21143 0.01
1 -5 1 1 o 19.096 33.595 0.00 1.25366 0.04
2 4 1 2 o 23.779 39.703 0.00 1.26083 0.03
0 5 -2 1 o 40.789 30.463 0.00 1.23399 0.08
2 4 1 1 o 5.034 39.703 0.00 1.26083 0.01
3 3 -5 1 o 1.054 1.039 0.00 1.27348 0.00
3 -4 2 2 o 2.356 15.586 0.00 1.26772 0.00
5 -2 -1 2 o 4.913 5.433 0.00 1.25795 0.01
2 -1 6 2 o 61.766 91.802 180.00 1.27445 0.06
5 -2 -4 2 o 1.609 2.459 180.00 1.21533 0.00
5 -1 0 2 o 1.216 7.516 0.00 1.26481 0.00
0 5 -1 2 o 2.432 1.445 180.00 1.24848 0.00
2 -4 4 2 o 17.682 13.066 0.00 1.23805 0.02
3 -2 -7 1 o 126.237 188.681 0.00 1.20643 0.26
1 -3 -6 1 o 119.322 79.080 180.00 1.23859 0.20
4 2 -5 1 o 0.151 0.746 180.00 1.26242 0.00
1 -2 -7 1 o 0.326 0.224 180.00 1.23783 0.00
1 -5 0 1 o 3.926 16.388 0.00 1.25596 0.01
4 -3 -5 1 o 5.809 8.724 0.00 1.20504 0.01
5 -1 -5 2 o 3.502 5.289 180.00 1.21143 0.00
5 0 -5 1 o 14.191 28.595 0.00 1.21508 0.04
3 -3 -6 1 o 2.361 3.542 0.00 1.20417 0.00
1 -5 1 2 o 48.223 33.595 0.00 1.25366 0.05
4 -1 3 1 o 13.904 13.926 0.00 1.27858 0.03
3 -3 4 1 o 5.382 3.674 180.00 1.24520 0.01
0 5 -2 2 o 35.079 30.463 0.00 1.23399 0.04
1 -4 5 1 o 20.798 19.961 180.00 1.22568 0.04
3 3 -5 2 o 0.526 1.039 0.00 1.27348 0.00
5 1 -3 1 o 0.254 0.148 180.00 1.24065 0.00
4 -1 -7 1 o 0.252 2.373 0.00 1.18733 0.00
0 5 0 1 o 1.691 0.913 0.00 1.24123 0.00
3 -2 -7 2 o 110.821 188.681 0.00 1.20643 0.11
1 -3 -6 2 o 117.261 79.080 180.00 1.23859 0.10
4 2 -5 2 o 0.305 0.746 180.00 1.26242 0.00
1 -2 -7 2 o 0.332 0.224 180.00 1.23783 0.00
3 -4 -4 1 o 0.384 0.789 180.00 1.22017 0.00
1 -5 0 2 o 18.834 16.388 0.00 1.25596 0.02
4 -3 -5 2 o 4.703 8.724 0.00 1.20504 0.01
5 0 -5 2 o 19.257 28.595 0.00 1.21508 0.03
1 -5 2 1 o 113.435 80.442 180.00 1.22974 0.23
3 -3 -6 2 o 1.789 3.542 0.00 1.20417 0.00
4 -1 3 2 o 5.954 13.926 0.00 1.27858 0.01
4 2 1 1 o 19.108 32.510 0.00 1.25317 0.05
3 -3 4 2 o 5.189 3.674 180.00 1.24520 0.01
5 1 -2 1 o 0.464 0.294 0.00 1.24422 0.00
1 -4 5 2 o 10.302 19.961 180.00 1.22568 0.01
2 -2 6 1 o 6.138 4.532 180.00 1.23593 0.01
5 0 0 1 o 1.252 1.432 0.00 1.25014 0.00
4 0 -7 1 o 3.851 5.581 180.00 1.20424 0.01
5 1 -3 2 o 0.210 0.148 180.00 1.24065 0.00
1 -1 7 1 o 9.463 8.666 0.00 1.24857 0.02
0 5 0 2 o 1.227 0.913 0.00 1.24123 0.00
4 -1 -7 2 o 0.653 2.373 0.00 1.18733 0.00
4 0 3 1 o -0.040 6.309 0.00 1.26025 0.00
3 -4 -4 2 o 0.356 0.789 180.00 1.22017 0.00
2 0 -8 1 o 6.770 11.280 180.00 1.22116 0.01
3 -1 5 1 o 65.516 43.490 180.00 1.24604 0.14
1 -5 2 2 o 57.905 80.442 180.00 1.22974 0.06
4 2 1 2 o 51.684 32.510 0.00 1.25317 0.07
5 1 -2 2 o 0.385 0.294 0.00 1.24422 0.00
2 0 6 1 o -1.705 46.147 180.00 1.26125 0.00
2 -2 6 2 o 6.268 4.532 180.00 1.23593 0.01
5 0 0 2 o 2.803 1.432 0.00 1.25014 0.00
4 0 -7 2 o 2.923 5.581 180.00 1.20424 0.00
5 1 -4 1 o 2.802 7.659 180.00 1.21619 0.01
1 -1 7 2 o 16.131 8.666 0.00 1.24857 0.01
4 0 3 2 o 3.862 6.309 0.00 1.26025 0.00
1 4 3 1 o 11.918 6.366 180.00 1.23996 0.02
2 0 -8 2 o 4.911 11.280 180.00 1.22116 0.01
3 -1 5 2 o 66.939 43.490 180.00 1.24604 0.07
4 -2 3 1 o 17.915 9.321 0.00 1.24447 0.04
4 -3 2 1 o 3.182 1.497 180.00 1.24334 0.01
5 -2 0 1 o 12.160 7.432 180.00 1.22882 0.03
2 0 6 2 o 24.435 46.147 180.00 1.26125 0.02
1 0 -8 1 o 4.918 14.628 180.00 1.21940 0.01
3 3 2 1 o 55.340 41.626 0.00 1.22688 0.12
5 1 -4 2 o 5.311 7.659 180.00 1.21619 0.01
1 2 6 1 o 23.367 15.709 0.00 1.23259 0.04
0 5 -3 1 o 1.428 2.158 0.00 1.19991 0.00
1 4 3 2 o 9.891 6.366 180.00 1.23996 0.01
5 -2 -5 1 o 2.597 2.977 180.00 1.16451 0.01
4 -2 3 2 o 11.907 9.321 0.00 1.24447 0.01
2 -1 -8 1 o -1.883 72.684 0.00 1.18643 0.00
4 -3 2 2 o 1.737 1.497 180.00 1.24334 0.00
5 -2 0 2 o 3.911 7.432 180.00 1.22882 0.01
1 0 -8 2 o 7.796 14.628 180.00 1.21940 0.01
0 4 4 1 o 77.107 60.870 180.00 1.23357 0.13
5 1 -1 1 o 16.441 12.972 180.00 1.22636 0.05
2 1 -8 1 o 25.570 39.665 0.00 1.21031 0.06
2 2 5 1 o 14.431 9.494 0.00 1.23243 0.03
3 3 2 2 o 13.395 41.626 0.00 1.22688 0.02
2 -5 1 1 o 1.083 1.700 0.00 1.21076 0.00
1 2 6 2 o 16.549 15.709 0.00 1.23259 0.01
2 4 -5 1 o 4.289 5.940 0.00 1.20161 0.01
0 5 -3 2 o 0.684 2.158 0.00 1.19991 0.00
1 5 -2 1 o 6.203 22.383 180.00 1.19237 0.01
1 1 -8 1 o 0.014 0.086 180.00 1.21585 0.00
3 0 5 1 o 7.622 3.941 0.00 1.22960 0.01
1 -2 7 1 o 3.124 4.310 180.00 1.20841 0.01
5 -2 -5 2 o 2.165 2.977 180.00 1.16451 0.00
2 -1 -8 2 o 19.729 72.684 0.00 1.18643 0.02
3 0 -8 1 o 5.194 16.207 0.00 1.17865 0.01
3 2 -7 1 o 1.842 4.706 180.00 1.21338 0.00
3 -2 5 2 o 5.079 6.537 0.00 1.21386 0.01
3 -2 5 1 o 2.573 6.537 0.00 1.21386 0.01
1 0 7 1 o 29.199 13.817 180.00 1.24030 0.05
0 5 1 1 o 40.958 114.755 0.00 1.21333 0.08
0 4 4 2 o 73.249 60.870 180.00 1.23357 0.06
1 -5 -1 1 o 0.615 0.886 180.00 1.23627 0.00
1 5 -1 1 o 1.214 2.029 180.00 1.19691 0.00
1 -5 3 1 o -2.473 95.746 180.00 1.18767 0.00
5 1 -1 2 o 3.183 12.972 180.00 1.22636 0.01
1 3 5 1 o 7.607 43.195 180.00 1.21904 0.01
4 -4 -1 1 o 8.995 15.643 0.00 1.21121 0.02
2 2 5 2 o 9.822 9.494 0.00 1.23243 0.01
2 1 -8 2 o 29.716 39.665 0.00 1.21031 0.03
4 -4 -2 1 o 7.407 9.922 180.00 1.20265 0.02
1 3 -7 1 o 19.475 26.830 0.00 1.20282 0.04
2 -5 1 2 o 1.306 1.700 0.00 1.21076 0.00
2 4 -5 2 o 2.270 5.940 0.00 1.20161 0.00
1 5 -2 2 o -0.279 22.383 180.00 1.19237 0.00
1 1 -8 2 o 0.066 0.086 180.00 1.21585 0.00
3 0 5 2 o 2.330 3.941 0.00 1.22960 0.00
1 -2 7 2 o 3.052 4.310 180.00 1.20841 0.00
2 -5 0 1 o 11.801 21.906 0.00 1.22170 0.02
3 -4 3 1 o 2.931 4.195 0.00 1.20094 0.01
3 0 -8 2 o 14.068 16.207 0.00 1.17865 0.02
3 2 -7 2 o 3.871 4.706 180.00 1.21338 0.00
1 0 7 2 o 20.206 13.817 180.00 1.24030 0.02
0 5 1 2 o 98.026 114.755 0.00 1.21333 0.09
1 -5 -1 2 o 1.888 0.886 180.00 1.23627 0.00
1 5 -1 2 o 0.111 2.029 180.00 1.19691 0.00
1 -5 3 2 o 15.212 95.746 180.00 1.18767 0.02
1 3 5 2 o 23.441 43.195 180.00 1.21904 0.02
4 -4 -1 2 o 11.975 15.643 0.00 1.21121 0.01
5 -1 -6 1 o 0.476 3.171 180.00 1.14655 0.00
5 -3 -2 1 o 0.031 0.119 0.00 1.17776 0.00
4 1 -7 1 o 1.512 3.450 0.00 1.17712 0.00
4 -4 -2 2 o 4.649 9.922 180.00 1.20265 0.01
1 3 -7 2 o 12.397 26.830 0.00 1.20282 0.01
3 4 -2 1 o 2.282 4.677 180.00 1.19553 0.01
0 3 -7 1 o 0.015 1.717 180.00 1.18674 0.00
4 -4 -3 1 o 17.665 28.866 180.00 1.17541 0.04
2 -5 0 2 o 5.356 21.906 0.00 1.22170 0.01
3 -4 3 2 o 1.399 4.195 0.00 1.20094 0.00
2 -4 -5 1 o -0.013 0.217 0.00 1.18420 0.00
3 -1 -8 1 o 0.090 0.164 0.00 1.15352 0.00
5 0 -6 1 o 1.184 2.340 0.00 1.15253 0.00
5 -3 -3 1 o 4.618 5.086 0.00 1.16269 0.01
2 4 2 1 o 18.528 30.922 0.00 1.19708 0.03
2 3 4 1 o 0.532 0.692 0.00 1.20359 0.00
2 -5 2 1 o 0.419 9.925 0.00 1.18098 0.00
5 -1 -6 2 o -0.004 3.171 180.00 1.14655 0.00
5 -3 -2 2 o 0.110 0.119 0.00 1.17776 0.00
4 1 -7 2 o 3.319 3.450 0.00 1.17712 0.00
4 3 -2 1 o 1.501 1.747 180.00 1.20831 0.00
3 4 -2 2 o -0.198 4.677 180.00 1.19553 0.00
0 3 -7 2 o 0.430 1.717 180.00 1.18674 0.00
1 -1 -8 1 o 6.695 20.441 0.00 1.17809 0.01
3 4 -1 1 o -1.245 31.494 180.00 1.18658 0.00
5 -1 1 1 o 0.774 1.335 0.00 1.21102 0.00
4 -4 -3 2 o 29.267 28.866 180.00 1.17541 0.03
1 5 -3 1 o 42.881 43.928 180.00 1.16933 0.08
1 4 -6 1 o 6.919 7.097 0.00 1.16864 0.01
2 -4 -5 2 o 0.098 0.217 0.00 1.18420 0.00
3 4 -3 1 o -0.237 3.484 0.00 1.18534 0.00
0 2 7 1 o -0.478 28.695 180.00 1.18493 0.00
0 4 -6 1 o 29.429 31.179 180.00 1.16795 0.06
4 2 -6 1 o 0.003 0.053 0.00 1.19074 0.00
3 -1 -8 2 o -0.003 0.164 0.00 1.15352 0.00
5 1 -5 1 o 1.124 1.628 0.00 1.17432 0.00
5 0 -6 2 o -0.149 2.340 0.00 1.15253 0.00
5 -3 -3 2 o 3.413 5.086 0.00 1.16269 0.00
2 4 2 2 o -1.080 30.922 0.00 1.19708 0.00
2 3 4 2 o 0.389 0.692 0.00 1.20359 0.00
1 5 0 1 o -0.234 2.641 0.00 1.18230 0.00
4 1 3 1 o 6.630 13.231 0.00 1.19566 0.02
2 -5 2 2 o 7.653 9.925 0.00 1.18098 0.01
3 3 -6 1 o 97.296 222.482 0.00 1.19480 0.26
4 3 -2 2 o 1.419 1.747 180.00 1.20831 0.00
1 -4 -5 1 o 1.684 26.686 180.00 1.18007 0.00
4 3 -1 1 o 3.484 9.712 0.00 1.19387 0.01
4 -2 -7 1 o 0.548 0.470 0.00 1.13152 0.00
0 3 6 1 o -0.294 8.174 0.00 1.18701 0.00
1 -1 -8 2 o 20.533 20.441 0.00 1.17809 0.02
3 4 -1 2 o 5.505 31.494 180.00 1.18658 0.01
5 -1 1 2 o 1.022 1.335 0.00 1.21102 0.00
2 -5 -1 1 o 1.028 2.577 0.00 1.21222 0.00
1 5 -3 2 o 41.212 43.928 180.00 1.16933 0.04
1 4 -6 2 o 6.535 7.097 0.00 1.16864 0.01
3 4 -3 2 o 1.111 3.484 0.00 1.18534 0.00
0 2 7 2 o 11.455 28.695 180.00 1.18493 0.01
0 4 -6 2 o 27.592 31.179 180.00 1.16795 0.03
4 2 -6 2 o -0.003 0.053 0.00 1.19074 0.00
0 5 -4 1 o 0.155 0.400 180.00 1.15082 0.00
5 1 -5 2 o 1.644 1.628 0.00 1.17432 0.00
4 -3 -6 1 o 7.324 4.058 0.00 1.12843 0.01
5 1 0 1 o -0.537 7.724 180.00 1.18967 0.00
5 0 1 1 o 0.351 0.761 0.00 1.19489 0.00
5 -3 -1 1 o 58.944 81.974 180.00 1.17461 0.14
4 -4 0 1 o 4.884 5.781 180.00 1.19987 0.01
1 5 0 2 o 1.783 2.641 0.00 1.18230 0.00
3 -4 -5 1 o 2.101 12.838 180.00 1.14762 0.00
4 1 3 2 o -0.523 13.231 0.00 1.19566 0.00
4 3 -3 1 o 11.523 19.204 180.00 1.20303 0.03
3 3 -6 2 o -6.881 222.482 0.00 1.19480 0.00
4 2 2 1 o 0.132 3.332 0.00 1.18041 0.00
1 -4 -5 2 o 24.223 26.686 180.00 1.18007 0.02
4 3 -1 2 o -0.366 9.712 0.00 1.19387 0.00
0 3 6 2 o 0.915 8.174 0.00 1.18701 0.00
4 -2 -7 2 o 0.967 0.470 0.00 1.13152 0.00
2 -5 -1 2 o 2.343 2.577 0.00 1.21222 0.00
3 1 -8 1 o 0.798 0.825 0.00 1.16242 0.00
2 1 6 1 o 52.148 62.014 180.00 1.20080 0.09
3 2 4 1 o -0.175 4.024 180.00 1.18450 0.00
0 5 -4 2 o -0.052 0.400 180.00 1.15082 0.00
5 1 0 2 o -0.537 7.724 180.00 1.18967 0.00
2 3 -7 1 o 0.099 0.154 0.00 1.17563 0.00
4 -3 -6 2 o 7.531 4.058 0.00 1.12843 0.01
5 0 1 2 o -0.006 0.761 0.00 1.19489 0.00
5 -3 -4 1 o 26.146 21.259 180.00 1.13140 0.06
5 -3 -1 2 o 89.309 81.974 180.00 1.17461 0.10
4 -4 0 2 o 1.623 5.781 180.00 1.19987 0.00
4 3 -3 2 o 7.913 19.204 180.00 1.20303 0.01
3 -4 -5 2 o -0.626 12.838 180.00 1.14762 0.00
4 2 2 2 o 2.995 3.332 0.00 1.18041 0.00
2 -3 6 1 o 0.425 0.513 0.00 1.15814 0.00
1 -5 -2 1 o 9.843 10.943 180.00 1.19752 0.02
2 1 6 2 o 19.929 62.014 180.00 1.20080 0.02
3 1 -8 2 o 0.576 0.825 0.00 1.16242 0.00
0 1 -8 1 o 0.163 0.344 180.00 1.17733 0.00
2 -4 5 1 o 7.360 35.424 180.00 1.14779 0.01
3 2 4 2 o 1.743 4.024 180.00 1.18450 0.00
1 1 7 1 o -0.017 0.383 180.00 1.18632 0.00
1 2 -8 1 o 4.931 4.395 0.00 1.16855 0.01
2 3 -7 2 o 0.172 0.154 0.00 1.17563 0.00
5 -3 -4 2 o 47.020 21.259 180.00 1.13140 0.05
0 0 8 1 o 47.435 55.162 0.00 1.17392 0.08
3 4 0 1 o 7.387 7.384 0.00 1.15973 0.02
4 -4 -4 1 o 20.920 28.378 180.00 1.13308 0.04
5 -2 1 1 o 0.051 0.758 0.00 1.18242 0.00
2 -3 6 2 o 0.213 0.513 0.00 1.15814 0.00
1 -5 -2 2 o 0.620 10.943 180.00 1.19752 0.00
1 -5 4 1 o 11.408 13.443 180.00 1.13279 0.02
3 4 -4 1 o 13.717 14.737 0.00 1.15741 0.03
0 1 -8 2 o 0.387 0.344 180.00 1.17733 0.00
2 -4 5 2 o -0.734 35.424 180.00 1.14779 0.00
4 -3 3 1 o 0.939 0.809 0.00 1.16912 0.00
1 5 -4 1 o 0.180 0.113 0.00 1.13081 0.00
2 -3 -7 1 o 28.272 14.304 180.00 1.12926 0.04
1 1 7 2 o 0.138 0.383 180.00 1.18632 0.00
1 2 -8 2 o 4.361 4.395 0.00 1.16855 0.00
4 3 0 1 o 22.998 22.872 0.00 1.16175 0.05
4 -1 4 1 o 3.515 3.667 0.00 1.17310 0.01
0 0 8 2 o 66.779 55.162 0.00 1.17392 0.05
1 -4 6 1 o 11.043 5.433 180.00 1.12857 0.02
3 4 0 2 o 3.755 7.384 0.00 1.15973 0.00
2 -5 -2 1 o -0.001 0.000 180.00 1.18370 0.00
4 -4 -4 2 o 71.853 28.378 180.00 1.13308 0.07
2 -5 3 1 o 0.016 1.751 0.00 1.13628 0.00
5 -2 1 2 o 0.602 0.758 0.00 1.18242 0.00
2 2 -8 1 o 3.798 4.190 0.00 1.15726 0.01
3 1 5 1 o 13.711 11.146 180.00 1.16988 0.02
3 -3 5 1 o -0.806 25.919 180.00 1.14318 0.00
3 4 -4 2 o 7.966 14.737 0.00 1.15741 0.01
1 -5 4 2 o 32.363 13.443 180.00 1.13279 0.03
1 5 1 1 o 11.227 21.359 180.00 1.15054 0.02
5 -2 -6 1 o 3.831 2.048 0.00 1.10399 0.01
0 5 2 1 o 10.626 7.404 180.00 1.16870 0.02
4 -3 3 2 o 0.822 0.809 0.00 1.16912 0.00
1 5 -4 2 o 0.320 0.113 0.00 1.13081 0.00
4 3 -4 1 o 6.648 8.160 0.00 1.17881 0.02
2 -3 -7 2 o 32.221 14.304 180.00 1.12926 0.02
4 3 0 2 o 14.915 22.872 0.00 1.16175 0.02
5 -3 0 1 o 1.379 2.511 0.00 1.15367 0.00
4 -1 4 2 o 4.386 3.667 0.00 1.17310 0.00
1 -4 6 2 o 11.125 5.433 180.00 1.12857 0.01
2 -5 -2 2 o 0.000 0.000 180.00 1.18370 0.00
2 -5 3 2 o 3.511 1.751 0.00 1.13628 0.00
2 2 -8 2 o 2.347 4.190 0.00 1.15726 0.00
3 1 5 2 o 11.293 11.146 180.00 1.16988 0.01
3 -3 5 2 o -0.806 25.919 180.00 1.14318 0.00
1 5 1 2 o -0.376 21.359 180.00 1.15054 0.00
4 -4 1 1 o 197.719 154.508 180.00 1.17025 0.41
5 -2 -6 2 o 4.815 2.048 0.00 1.10399 0.00
0 5 2 2 o 8.372 7.404 180.00 1.16870 0.01
2 -2 -8 1 o 0.234 0.190 0.00 1.11650 0.00
4 3 -4 2 o 10.684 8.160 0.00 1.17881 0.01
1 -3 7 2 o 1.906 0.762 180.00 1.13221 0.00
5 -3 0 2 o -0.003 2.511 0.00 1.15367 0.00
3 -3 -7 1 o 6.246 3.507 180.00 1.10510 0.01
1 -3 7 1 o 0.782 0.762 180.00 1.13221 0.00
4 0 -8 1 o 2.967 1.555 180.00 1.10413 0.01
3 -2 -8 1 o 14.774 6.209 0.00 1.09425 0.02
3 3 3 1 o -0.757 33.808 0.00 1.14567 0.00
2 4 -6 1 o 5.661 3.158 0.00 1.13044 0.01
1 4 4 1 o 0.947 1.962 180.00 1.15110 0.00
4 0 4 1 o 72.071 87.704 0.00 1.15596 0.14
5 1 -6 1 o 0.022 0.013 180.00 1.12021 0.00
4 -2 4 1 o 0.097 0.169 180.00 1.14944 0.00
4 -4 1 2 o 154.497 154.508 180.00 1.17025 0.16
2 -2 -8 2 o 0.247 0.190 0.00 1.11650 0.00
3 -4 4 1 o 9.046 3.417 180.00 1.12711 0.02
0 2 -8 1 o -0.982 25.443 0.00 1.14023 0.00
1 -3 -7 1 o 0.350 0.298 0.00 1.11754 0.00
4 -1 -8 1 o 0.030 0.016 180.00 1.08861 0.00
3 -3 -7 2 o 8.753 3.507 180.00 1.10510 0.01
2 5 -2 1 o 27.928 26.027 180.00 1.11720 0.05
4 0 -8 2 o 4.061 1.555 180.00 1.10413 0.00
5 -3 -5 1 o 6.197 4.068 180.00 1.08762 0.01
5 2 -3 1 o 8.183 14.353 180.00 1.14936 0.02
3 -2 -8 2 o 9.127 6.209 0.00 1.09425 0.01
5 2 -2 1 o 0.014 0.024 0.00 1.14932 0.00
3 3 3 2 o -0.757 33.808 0.00 1.14567 0.00
2 4 -6 2 o 9.002 3.158 0.00 1.13044 0.01
1 4 4 2 o -0.074 1.962 180.00 1.15110 0.00
4 0 4 2 o 70.513 87.704 0.00 1.15596 0.07
5 1 -6 2 o 0.014 0.013 180.00 1.12021 0.00
4 -2 4 2 o -0.017 0.169 180.00 1.14944 0.00
3 -4 4 2 o 6.089 3.417 180.00 1.12711 0.01
0 2 -8 2 o 14.043 25.443 0.00 1.14023 0.01
1 -3 -7 2 o 0.317 0.298 0.00 1.11754 0.00
3 -5 1 1 o 19.400 37.365 0.00 1.13283 0.04
4 -1 -8 2 o 0.026 0.016 180.00 1.08861 0.00
2 5 -2 2 o 27.475 26.027 180.00 1.11720 0.02
5 2 -3 2 o -0.375 14.353 180.00 1.14936 0.00
5 2 -2 2 o -0.001 0.024 0.00 1.14932 0.00
5 -3 -5 2 o 5.855 4.068 180.00 1.08762 0.01
0 1 8 1 o 14.201 8.690 0.00 1.13099 0.02
0 4 5 1 o 0.016 0.187 180.00 1.13645 0.00
5 1 1 1 o -0.076 0.563 180.00 1.13897 0.00
2 5 -1 1 o 0.584 0.630 180.00 1.11406 0.00
5 2 -4 1 o 10.196 14.920 0.00 1.13256 0.03
5 -1 -7 1 o 11.083 6.792 0.00 1.07666 0.02
2 -1 7 1 o 2.332 4.816 0.00 1.13301 0.00
1 -2 -8 1 o 6.209 3.284 180.00 1.10403 0.01
2 5 -3 1 o 0.008 0.003 180.00 1.10476 0.00
3 -5 0 1 o 6.075 4.451 0.00 1.14917 0.01
6 -1 -3 1 o 94.029 36.653 0.00 1.09453 0.21
3 -5 -1 1 o 10.254 5.877 0.00 1.14866 0.02
3 -5 1 2 o 136.829 37.365 0.00 1.13283 0.12
2 4 3 1 o 2.036 0.550 0.00 1.12559 0.00
3 4 1 1 o 10.120 8.911 0.00 1.11842 0.02
5 0 -7 1 o 13.416 9.484 180.00 1.08400 0.03
0 1 8 2 o 32.447 8.690 0.00 1.13099 0.02
2 -5 -3 1 o -0.207 6.141 180.00 1.13993 0.00
0 4 5 2 o 0.481 0.187 180.00 1.13645 0.00
5 -1 2 1 o -0.645 25.458 0.00 1.14609 0.00
3 4 -5 1 o 18.127 24.542 0.00 1.11529 0.04
1 -5 -3 1 o -0.435 21.863 180.00 1.14480 0.00
0 5 -5 1 o 0.097 0.036 180.00 1.09223 0.00
5 2 -1 1 o 1.864 2.680 0.00 1.13245 0.00
4 2 -7 1 o 0.032 0.037 0.00 1.11402 0.00
5 1 1 2 o 0.551 0.563 180.00 1.13897 0.00
5 2 -4 2 o 54.050 14.920 0.00 1.13256 0.07
2 5 -1 2 o 0.928 0.630 180.00 1.11406 0.00
3 -5 -2 1 o 0.238 0.158 180.00 1.13136 0.00
4 -4 2 1 o 1.744 0.514 180.00 1.12616 0.00
4 -4 -5 1 o 0.356 0.253 180.00 1.08042 0.00
2 -1 7 2 o 17.105 4.816 0.00 1.13301 0.01
5 -1 -7 2 o 13.314 6.792 0.00 1.07666 0.01
1 -2 -8 2 o 9.827 3.284 180.00 1.10403 0.01
3 -5 0 2 o -0.285 4.451 0.00 1.14917 0.00
6 -1 -4 1 o 49.215 33.837 0.00 1.07907 0.11
2 5 -3 2 o 0.014 0.003 180.00 1.10476 0.00
3 -5 -1 2 o -0.279 5.877 0.00 1.14866 0.00
6 -1 -3 2 o 51.970 36.653 0.00 1.09453 0.06
2 4 3 2 o 0.616 0.550 0.00 1.12559 0.00
6 -1 -2 1 o 6.491 2.327 0.00 1.09547 0.01
3 4 1 2 o 7.954 8.911 0.00 1.11842 0.01
2 -4 -6 1 o 1.185 0.401 0.00 1.09552 0.00
2 -5 -3 2 o -0.207 6.141 180.00 1.13993 0.00
5 0 -7 2 o 14.660 9.484 180.00 1.08400 0.02
4 3 -5 1 o -0.127 1.146 0.00 1.13886 0.00
5 -1 2 2 o -0.645 25.458 0.00 1.14609 0.00
4 3 1 1 o 0.026 0.031 0.00 1.11599 0.00
3 -1 6 1 o 54.344 20.498 0.00 1.12186 0.09
3 4 -5 2 o 30.103 24.542 0.00 1.11529 0.03
1 -5 -3 2 o -0.435 21.863 180.00 1.14480 0.00
5 2 -1 2 o 10.154 2.680 0.00 1.13245 0.01
0 5 -5 2 o 0.056 0.036 180.00 1.09223 0.00
4 2 -7 2 o 0.054 0.037 0.00 1.11402 0.00
2 -2 7 1 o 0.314 0.229 180.00 1.10825 0.00
3 -5 -2 2 o 0.820 0.158 180.00 1.13136 0.00
4 -4 2 2 o 0.626 0.514 180.00 1.12616 0.00
4 -4 -5 2 o 0.435 0.253 180.00 1.08042 0.00
6 -1 -4 2 o 59.565 33.837 0.00 1.07907 0.06
3 -4 -6 1 o 8.539 4.944 0.00 1.07238 0.01
6 -1 -2 2 o 3.250 2.327 0.00 1.09547 0.00
2 0 -9 1 o 3.389 2.683 180.00 1.08872 0.01
5 0 2 1 o 0.676 0.226 0.00 1.12966 0.00
2 -5 4 1 o 8.047 5.801 180.00 1.08166 0.01
3 2 -8 1 o 0.889 0.870 180.00 1.10959 0.00
2 -4 -6 2 o 0.552 0.401 0.00 1.09552 0.00
1 5 -5 1 o 68.006 49.585 0.00 1.08124 0.11
4 3 -5 2 o 0.700 1.146 0.00 1.13886 0.00
6 0 -3 1 o 0.616 0.476 0.00 1.08701 0.00
3 -1 6 2 o 16.900 20.498 0.00 1.12186 0.01
4 3 1 2 o 0.035 0.031 0.00 1.11599 0.00
2 5 0 1 o 32.008 9.794 0.00 1.09572 0.05
3 3 -7 1 o 12.582 14.645 0.00 1.11313 0.03
3 -5 2 1 o 22.397 9.332 0.00 1.10168 0.04
4 1 -8 1 o 4.174 3.262 180.00 1.08551 0.01
2 -2 7 2 o 0.567 0.229 180.00 1.10825 0.00
3 -2 6 1 o 0.413 0.152 180.00 1.10071 0.00
1 5 2 1 o 0.082 0.045 0.00 1.10557 0.00
6 0 -4 1 o 7.740 4.585 180.00 1.07418 0.02
3 -4 -6 2 o 10.876 4.944 0.00 1.07238 0.01
5 0 2 2 o 0.845 0.226 0.00 1.12966 0.00
2 0 -9 2 o 3.477 2.683 180.00 1.08872 0.00
0 4 -7 1 o 2.813 1.671 180.00 1.07496 0.00
3 2 -8 2 o 1.889 0.870 180.00 1.10959 0.00
2 -5 4 2 o 9.664 5.801 180.00 1.08166 0.01
4 2 3 1 o 43.769 21.627 180.00 1.10345 0.08
1 5 -5 2 o 82.857 49.585 0.00 1.08124 0.07
5 -2 2 1 o 0.308 0.042 180.00 1.12443 0.00
1 4 -7 1 o 48.029 35.657 0.00 1.08167 0.08
6 0 -3 2 o 0.634 0.476 0.00 1.08701 0.00
5 2 -5 1 o 138.937 54.184 0.00 1.10102 0.33
2 5 0 2 o 10.740 9.794 0.00 1.09572 0.01
3 3 -7 2 o 23.267 14.645 0.00 1.11313 0.02
3 -5 2 2 o 29.364 9.332 0.00 1.10168 0.02
4 1 -8 2 o 4.448 3.262 180.00 1.08551 0.00
1 -1 8 1 o 6.159 3.802 0.00 1.10593 0.01
4 -2 -8 1 o 1.121 0.333 180.00 1.04297 0.00
2 2 6 1 o 14.365 23.377 0.00 1.11089 0.02
3 -2 6 2 o 0.473 0.152 180.00 1.10071 0.00
3 -5 -3 1 o 0.778 0.245 180.00 1.09944 0.00
6 0 -2 1 o 9.049 7.304 0.00 1.08550 0.02
1 3 6 1 o 56.113 33.684 180.00 1.10513 0.07
1 -4 -6 1 o 36.433 32.855 0.00 1.08589 0.05
2 0 7 1 o 42.179 19.660 180.00 1.12104 0.06
5 -3 1 1 o 4.917 17.406 0.00 1.11764 0.01
1 -5 5 1 o 2.207 1.172 0.00 1.07069 0.00
4 -3 -7 1 o 34.368 11.780 0.00 1.05136 0.05
6 -2 -3 1 o 9.593 4.882 180.00 1.06901 0.02
2 5 -4 1 o 4.984 3.620 180.00 1.07822 0.01
6 -1 -5 1 o 21.725 7.377 0.00 1.05083 0.04
1 5 2 2 o 0.173 0.045 0.00 1.10557 0.00
4 -3 4 1 o 0.037 0.021 0.00 1.09172 0.00
1 3 -8 1 o 0.098 0.045 180.00 1.09101 0.00
6 0 -4 2 o 9.551 4.585 180.00 1.07418 0.01
4 1 4 1 o 28.422 13.555 0.00 1.10297 0.05
1 2 7 1 o 0.215 0.099 0.00 1.10231 0.00
0 4 -7 2 o 3.443 1.671 180.00 1.07496 0.00
4 2 3 2 o 74.609 21.627 180.00 1.10345 0.06
3 0 6 1 o 2.265 1.535 180.00 1.10726 0.00
2 3 5 1 o 1.737 0.776 0.00 1.10207 0.00
5 -2 -7 1 o 0.034 0.010 0.00 1.03906 0.00
5 -2 2 2 o -0.031 0.042 180.00 1.12443 0.00
6 -1 -1 1 o 20.808 16.221 0.00 1.08176 0.04
1 4 -7 2 o 58.700 35.657 0.00 1.08167 0.05
5 2 0 1 o 40.672 15.577 180.00 1.10085 0.09
5 2 -5 2 o 173.669 54.184 0.00 1.10102 0.20
3 0 -9 1 o 10.163 4.305 0.00 1.06415 0.02
6 -2 -2 1 o 2.242 1.280 0.00 1.07220 0.00
1 -1 8 2 o 11.519 3.802 0.00 1.10593 0.01
2 2 6 2 o 41.768 23.377 0.00 1.11089 0.03
4 -2 -8 2 o 1.265 0.333 180.00 1.04297 0.00
3 -5 -3 2 o 0.720 0.245 180.00 1.09944 0.00
6 0 -2 2 o 9.722 7.304 0.00 1.08550 0.01
1 3 6 2 o 112.822 33.684 180.00 1.10513 0.07
2 0 7 2 o 13.206 19.660 180.00 1.12104 0.01
1 -4 -6 2 o 39.837 32.855 0.00 1.08589 0.03
5 -3 1 2 o 3.541 17.406 0.00 1.11764 0.00
5 -3 -6 1 o 1.888 0.503 0.00 1.03573 0.00
1 -5 5 2 o 2.829 1.172 0.00 1.07069 0.00
6 -2 -3 2 o 12.317 4.882 180.00 1.06901 0.01
4 -3 -7 2 o 37.326 11.780 0.00 1.05136 0.03
2 5 -4 2 o 6.256 3.620 180.00 1.07822 0.01
6 -1 -5 2 o 23.756 7.377 0.00 1.05083 0.02
4 -3 4 2 o 0.023 0.021 0.00 1.09172 0.00
0 5 3 1 o 39.167 32.959 180.00 1.11270 0.05
2 -1 -9 1 o 1.727 0.633 180.00 1.06163 0.00
1 3 -8 2 o 0.061 0.045 180.00 1.09101 0.00
4 1 4 2 o 49.764 13.555 0.00 1.10297 0.04
2 1 -9 1 o 21.719 16.929 180.00 1.08340 0.04
6 -2 -4 1 o 7.755 2.621 0.00 1.05239 0.02
1 2 7 2 o 0.364 0.099 0.00 1.10231 0.00
3 0 6 2 o 4.365 1.535 180.00 1.10726 0.00
2 3 5 2 o 2.681 0.776 0.00 1.10207 0.00
5 -2 -7 2 o 0.034 0.010 0.00 1.03906 0.00
2 -4 6 1 o 2.454 0.969 180.00 1.06097 0.00
6 -1 -1 2 o 26.568 16.221 0.00 1.08176 0.03
5 2 0 2 o 52.523 15.577 180.00 1.10085 0.05
5 1 -7 1 o 7.286 2.565 0.00 1.05921 0.02
1 0 -9 1 o 3.164 2.621 180.00 1.08120 0.00
5 -4 -3 1 o 3.238 1.112 0.00 1.05878 0.01
3 0 -9 2 o 12.487 4.305 0.00 1.06415 0.01
6 -2 -2 2 o 2.924 1.280 0.00 1.07220 0.00
1 -2 8 1 o 76.583 60.550 180.00 1.08010 0.11
6 0 -5 1 o 10.223 3.390 180.00 1.04849 0.02
2 -5 -4 1 o 0.475 0.490 0.00 1.08586 0.00
5 -4 -2 1 o 0.524 0.312 180.00 1.07243 0.00
0 3 -8 1 o 3.361 1.952 180.00 1.07285 0.01
5 -3 -6 2 o 1.691 0.503 0.00 1.03573 0.00
0 5 3 2 o 25.814 32.959 180.00 1.11270 0.02
2 -1 -9 2 o 1.974 0.633 180.00 1.06163 0.00
2 1 -9 2 o 25.111 16.929 180.00 1.08340 0.02
6 -2 -4 2 o 8.338 2.621 0.00 1.05239 0.01
2 3 -8 1 o 17.428 11.775 0.00 1.07669 0.03
2 -4 6 2 o 2.713 0.969 180.00 1.06097 0.00
5 1 -7 2 o 7.594 2.565 0.00 1.05921 0.01
1 1 -9 1 o 11.269 9.465 0.00 1.08110 0.02
1 0 -9 2 o 4.408 2.621 180.00 1.08120 0.00
5 -4 -3 2 o 3.317 1.112 0.00 1.05878 0.00
3 -1 -9 1 o 0.567 0.171 0.00 1.04340 0.00
1 -2 8 2 o 101.918 60.550 180.00 1.08010 0.07
2 -5 -4 2 o 0.508 0.490 0.00 1.08586 0.00
0 3 7 1 o 4.934 2.977 180.00 1.07308 0.01
6 0 -5 2 o 11.496 3.390 180.00 1.04849 0.01
5 -4 -2 2 o 0.692 0.312 180.00 1.07243 0.00
5 -4 -1 1 o 0.000 0.000 180.00 1.07237 0.00
0 3 -8 2 o 4.313 1.952 180.00 1.07285 0.00
4 -4 3 1 o 0.008 0.006 180.00 1.07244 0.00
3 2 5 1 o 9.653 7.432 0.00 1.08348 0.01
1 0 8 1 o 80.700 21.358 180.00 1.09767 0.11
6 0 -1 1 o 16.829 9.382 180.00 1.06984 0.04
2 3 -8 2 o 20.443 11.775 0.00 1.07669 0.02
3 1 -9 1 o 50.591 16.931 0.00 1.05437 0.08
6 -2 -1 1 o 27.260 10.211 180.00 1.06158 0.05
1 1 -9 2 o 16.233 9.465 0.00 1.08110 0.01
5 1 2 1 o 45.364 45.285 0.00 1.07968 0.09
1 -5 -4 1 o 2.674 1.846 180.00 1.08375 0.00
3 -1 -9 2 o 0.671 0.171 0.00 1.04340 0.00
3 4 2 1 o 21.104 10.336 0.00 1.06718 0.03
2 -3 7 1 o 0.446 0.154 180.00 1.05332 0.00
0 3 7 2 o 6.454 2.977 180.00 1.07308 0.00
5 -4 -1 2 o 0.000 0.000 180.00 1.07237 0.00
4 -4 3 2 o 0.010 0.006 180.00 1.07244 0.00
3 -5 3 1 o 74.313 26.199 180.00 1.05924 0.11
3 -4 5 1 o 3.365 1.170 0.00 1.05196 0.00
3 2 5 2 o 10.498 7.432 0.00 1.08348 0.01
1 0 8 2 o 30.261 21.358 180.00 1.09767 0.02
4 -1 5 1 o 5.351 3.157 180.00 1.07565 0.01
6 0 -1 2 o 23.185 9.382 180.00 1.06984 0.02
2 5 1 1 o 17.127 7.412 0.00 1.06432 0.02
3 4 -6 1 o 23.018 9.718 180.00 1.06356 0.04
2 4 -7 1 o 35.484 11.824 0.00 1.05693 0.06
3 -5 -4 1 o 1.485 0.463 180.00 1.05645 0.00
6 -2 -5 1 o 14.140 4.684 0.00 1.02411 0.03
5 -4 -4 1 o 0.235 0.070 180.00 1.03290 0.00
3 1 -9 2 o 50.708 16.931 0.00 1.05437 0.04
6 -2 -1 2 o 31.006 10.211 180.00 1.06158 0.03
4 3 -6 1 o 0.332 2.054 180.00 1.08782 0.00
5 1 2 2 o 71.792 45.285 0.00 1.07968 0.07
1 -5 -4 2 o 2.460 1.846 180.00 1.08375 0.00
4 -4 -6 1 o 4.943 1.711 180.00 1.02216 0.01
0 2 8 1 o 61.098 21.476 180.00 1.06009 0.07
3 4 2 2 o 28.576 10.336 0.00 1.06718 0.02
2 -3 7 2 o 0.464 0.154 180.00 1.05332 0.00
5 2 -6 1 o 50.693 16.918 0.00 1.05828 0.11
1 -4 7 1 o 36.175 9.502 0.00 1.03847 0.05
3 -5 3 2 o 76.077 26.199 180.00 1.05924 0.06
3 -4 5 2 o 3.617 1.170 0.00 1.05196 0.00
3 3 4 1 o 5.093 2.214 0.00 1.06475 0.01
2 -3 -8 1 o 17.708 5.621 0.00 1.02821 0.02
0 5 -6 1 o 103.468 31.715 0.00 1.02917 0.15
4 -1 5 2 o 5.664 3.157 180.00 1.07565 0.00
2 5 1 2 o 22.390 7.412 0.00 1.06432 0.02
3 4 -6 2 o 30.197 9.718 180.00 1.06356 0.03
2 4 -7 2 o 33.903 11.824 0.00 1.05693 0.03
1 -1 -9 1 o 12.429 4.245 0.00 1.04991 0.02
3 -5 -4 2 o 1.386 0.463 180.00 1.05645 0.00
6 -2 -5 2 o 15.614 4.684 0.00 1.02411 0.01
5 -4 -4 2 o 0.194 0.070 180.00 1.03290 0.00
4 3 -6 2 o 1.266 2.054 180.00 1.08782 0.00
3 -3 6 1 o 18.071 6.075 180.00 1.04937 0.03
4 3 2 1 o 6.215 2.316 0.00 1.06141 0.01
1 -6 1 1 o 1.875 0.648 0.00 1.04832 0.00
4 -4 -6 2 o 6.018 1.711 180.00 1.02216 0.00
0 2 8 2 o 64.213 21.476 180.00 1.06009 0.04
5 -1 -8 1 o 0.406 0.118 180.00 1.00641 0.00
1 4 5 1 o 19.788 8.556 180.00 1.06500 0.02
2 5 -5 1 o 0.012 0.002 0.00 1.04049 0.00
4 -2 5 1 o 0.053 0.021 0.00 1.05955 0.00
0 6 -1 1 o 4.044 1.180 180.00 1.04066 0.01
4 4 -2 1 o 13.946 4.560 180.00 1.05898 0.03
3 -3 -8 1 o 4.500 1.226 0.00 1.01498 0.01
5 0 -8 1 o 0.079 0.021 180.00 1.01435 0.00
5 2 -6 2 o 48.260 16.918 0.00 1.05828 0.05
1 -4 7 2 o 34.206 9.502 0.00 1.03847 0.02
4 4 -2 2 o 13.097 4.560 180.00 1.05898 0.01
3 3 4 2 o 6.755 2.214 0.00 1.06475 0.00
4 4 -3 1 o 7.815 2.518 0.00 1.05765 0.01
2 -3 -8 2 o 15.422 5.621 0.00 1.02821 0.01
0 5 -6 2 o 89.722 31.715 0.00 1.02917 0.06
6 -1 -6 1 o 0.017 0.005 180.00 1.01271 0.00
5 -1 3 1 o 21.466 10.201 0.00 1.07618 0.04
1 -1 -9 2 o 13.937 4.245 0.00 1.04991 0.01
6 -1 0 1 o 0.004 0.003 0.00 1.05498 0.00
2 1 7 1 o 0.295 0.135 180.00 1.07560 0.00
6 1 -3 1 o 17.222 5.696 0.00 1.04838 0.04
6 1 -3 2 o 19.305 5.696 0.00 1.04838 0.02
1 -6 2 1 o 35.157 8.534 0.00 1.03630 0.05
3 -3 6 2 o 20.208 6.075 180.00 1.04937 0.01
4 3 2 2 o 7.111 2.316 0.00 1.06141 0.01
4 -5 -2 1 o 10.178 3.263 180.00 1.05408 0.02
5 -4 0 1 o 27.462 8.958 180.00 1.05860 0.05
0 6 -2 2 o 11.515 3.746 180.00 1.03430 0.01
1 -6 1 2 o 2.099 0.648 0.00 1.04832 0.00
1 4 5 2 o 26.586 8.556 180.00 1.06500 0.02
5 2 1 1 o 0.421 0.134 0.00 1.05807 0.00
4 -2 5 2 o 0.054 0.021 0.00 1.05955 0.00
1 -6 0 1 o 0.044 0.012 180.00 1.04749 0.00
2 5 -5 2 o 0.014 0.002 0.00 1.04049 0.00
4 4 -1 1 o 32.876 10.642 180.00 1.04705 0.06
0 6 -2 1 o 14.706 3.746 180.00 1.03430 0.02
5 -1 -8 2 o 0.403 0.118 180.00 1.00641 0.00
0 6 -1 2 o 4.624 1.180 180.00 1.04066 0.00
4 -5 -1 1 o 2.007 0.734 0.00 1.06208 0.00
6 1 -4 1 o 3.811 1.022 0.00 1.03897 0.01
3 -3 -8 2 o 5.370 1.226 0.00 1.01498 0.00
2 4 4 1 o 59.775 21.232 180.00 1.05209 0.07
5 0 -8 2 o 0.091 0.021 180.00 1.01435 0.00
6 -3 -3 1 o 18.049 5.409 180.00 1.01676 0.03
6 1 -2 1 o 1.535 0.496 180.00 1.04487 0.00
4 4 -3 2 o 6.311 2.518 0.00 1.05765 0.01
1 5 -6 1 o 27.252 9.550 0.00 1.02522 0.04
3 1 6 1 o 100.874 34.941 0.00 1.06079 0.13
5 -3 2 1 o 1.444 1.480 0.00 1.07059 0.00
4 0 5 1 o 158.561 54.099 0.00 1.06014 0.23
6 -1 -6 2 o 0.018 0.005 180.00 1.01271 0.00
1 2 -9 1 o 3.096 1.037 0.00 1.04962 0.00
5 -1 3 2 o 26.497 10.201 0.00 1.07618 0.02
2 1 7 2 o 0.250 0.135 180.00 1.07560 0.00
6 -1 0 2 o 0.004 0.003 0.00 1.05498 0.00
4 0 -9 1 o 20.304 5.113 180.00 1.01343 0.03
1 -6 2 2 o 28.535 8.534 0.00 1.03630 0.02
4 -5 -2 2 o 10.098 3.263 180.00 1.05408 0.01
6 0 -6 1 o 15.411 3.807 180.00 1.01257 0.03
2 2 -9 1 o 32.929 10.794 0.00 1.04702 0.05
2 -5 5 1 o 0.071 0.025 180.00 1.02191 0.00
5 -4 0 2 o 24.409 8.958 180.00 1.05860 0.02
1 5 3 1 o 142.273 51.859 0.00 1.05203 0.17
5 2 1 2 o 0.378 0.134 0.00 1.05807 0.00
1 -6 0 2 o 0.050 0.012 180.00 1.04749 0.00
4 4 -1 2 o 37.949 10.642 180.00 1.04705 0.03
4 -5 -1 2 o 2.526 0.734 0.00 1.06208 0.00
0 4 6 1 o 10.112 3.317 180.00 1.04593 0.01
4 -5 -3 1 o 5.017 1.266 180.00 1.03351 0.01
0 6 0 1 o 0.127 0.020 0.00 1.03436 0.00
6 1 -4 2 o 3.645 1.022 0.00 1.03897 0.00
2 4 4 2 o 65.656 21.232 180.00 1.05209 0.04
1 -3 8 1 o 24.541 8.168 0.00 1.02669 0.03
6 -3 -3 2 o 23.839 5.409 180.00 1.01676 0.02
6 1 -2 2 o 1.971 0.496 180.00 1.04487 0.00
6 -2 0 1 o 84.953 20.434 180.00 1.03835 0.15
5 -3 2 2 o 2.385 1.480 0.00 1.07059 0.00
3 1 6 2 o 111.541 34.941 0.00 1.06079 0.07
1 5 -6 2 o 28.555 9.550 0.00 1.02522 0.02
1 1 8 1 o 13.690 4.073 0.00 1.05748 0.02
4 2 -8 1 o 51.003 11.981 0.00 1.03754 0.09
4 0 5 2 o 166.495 54.099 0.00 1.06014 0.12
1 2 -9 2 o 3.466 1.037 0.00 1.04962 0.00
5 0 3 1 o 26.057 8.573 0.00 1.06029 0.04
4 4 -4 1 o 1.956 0.662 0.00 1.04321 0.00
0 1 -9 1 o 62.360 20.545 180.00 1.04804 0.08
6 -3 -4 1 o 15.767 3.806 0.00 1.00053 0.03
2 -2 -9 1 o 66.062 14.551 0.00 1.00871 0.08
6 0 0 1 o 4.613 1.430 0.00 1.04178 0.01
4 -1 -9 1 o 25.051 5.997 0.00 0.99951 0.04
4 0 -9 2 o 22.489 5.113 180.00 1.01343 0.02
2 2 -9 2 o 38.263 10.794 0.00 1.04702 0.03
0 6 -3 1 o 0.109 0.029 0.00 1.01596 0.00
5 -2 3 1 o 6.686 2.414 0.00 1.06043 0.01
6 0 -6 2 o 16.378 3.807 180.00 1.01257 0.02
2 -5 5 2 o 0.088 0.025 180.00 1.02191 0.00
6 -3 -2 1 o 106.501 39.147 180.00 1.02150 0.19
1 5 3 2 o 159.487 51.859 0.00 1.05203 0.10
5 -4 -5 1 o 10.427 2.362 180.00 0.99739 0.02
0 4 6 2 o 12.711 3.317 180.00 1.04593 0.01
4 -5 -3 2 o 3.719 1.266 180.00 1.03351 0.00
3 -2 -9 1 o 4.943 1.052 180.00 0.99705 0.01
0 6 0 2 o 0.090 0.020 0.00 1.03436 0.00
1 -5 6 1 o 0.022 0.006 180.00 1.00604 0.00
0 0 9 1 o 12.747 4.057 0.00 1.04348 0.02
1 -3 8 2 o 23.177 8.168 0.00 1.02669 0.01
2 -5 -5 1 o 33.147 12.212 0.00 1.02634 0.04
2 -4 -7 1 o 39.267 9.255 180.00 1.01221 0.04
6 -2 0 2 o 71.094 20.434 180.00 1.03835 0.06
6 -2 -6 1 o 4.845 0.826 180.00 0.98692 0.01
1 1 8 2 o 8.377 4.073 0.00 1.05748 0.00
1 -6 3 1 o 0.650 0.146 180.00 1.01270 0.00
4 2 -8 2 o 40.518 11.981 0.00 1.03754 0.04
4 -5 0 1 o 7.782 2.224 0.00 1.05663 0.01
3 5 -2 1 o 11.883 4.542 180.00 1.02587 0.02
5 0 3 2 o 27.557 8.573 0.00 1.06029 0.02
6 1 -5 1 o 2.899 0.930 180.00 1.01764 0.01
4 4 -4 2 o 3.495 0.662 0.00 1.04321 0.00
0 1 -9 2 o 67.708 20.545 180.00 1.04804 0.04
6 -3 -4 2 o 19.383 3.806 0.00 1.00053 0.02
2 -2 -9 2 o 59.046 14.551 0.00 1.00871 0.03
6 0 0 2 o 6.295 1.430 0.00 1.04178 0.01
4 -1 -9 2 o 31.434 5.997 0.00 0.99951 0.02
5 -2 3 2 o 8.791 2.414 0.00 1.06043 0.01
0 6 -3 2 o 0.144 0.029 0.00 1.01596 0.00
6 -3 -2 2 o 140.727 39.147 180.00 1.02150 0.12
3 3 -8 1 o 34.058 8.368 180.00 1.03345 0.06
0 5 4 1 o 0.020 0.009 180.00 1.05065 0.00
5 3 -2 1 o 35.587 11.444 0.00 1.04255 0.07
5 -4 -5 2 o 13.524 2.362 180.00 0.99739 0.01
3 5 -3 1 o 4.234 1.726 180.00 1.02141 0.01
1 -3 -8 1 o 0.012 0.006 180.00 1.01417 0.00
3 -2 -9 2 o 6.467 1.052 180.00 0.99705 0.00
0 0 9 2 o 19.365 4.057 0.00 1.04348 0.01
2 -6 1 1 o 1.502 0.521 0.00 1.02723 0.00
3 -4 -7 1 o 125.495 29.874 0.00 0.99873 0.15
1 -5 6 2 o 0.021 0.006 180.00 1.00604 0.00
2 -5 -5 2 o 31.355 12.212 0.00 1.02634 0.02
2 -4 -7 2 o 40.006 9.255 180.00 1.01221 0.02
2 -6 0 1 o 19.713 6.126 0.00 1.03181 0.03
4 -5 0 2 o 5.173 2.224 0.00 1.05663 0.00
1 -6 3 2 o 0.688 0.146 180.00 1.01270 0.00
6 -2 -6 2 o 4.935 0.826 180.00 0.98692 0.00
3 5 -2 2 o 11.844 4.542 180.00 1.02587 0.01
6 1 -5 2 o 4.121 0.930 180.00 1.01764 0.00
1 6 -2 1 o 25.072 5.830 180.00 1.00526 0.03
5 -3 -7 1 o 13.942 2.183 0.00 0.97978 0.02
3 5 -1 1 o 0.031 0.012 0.00 1.01820 0.00
6 1 -1 1 o 1.502 0.459 0.00 1.02882 0.00
4 -5 1 1 o 10.914 2.501 0.00 1.03834 0.02
1 -6 -1 1 o 3.773 0.826 0.00 1.03389 0.00
4 4 0 1 o 13.708 5.772 180.00 1.02316 0.02
2 -6 2 1 o 6.094 1.348 180.00 1.01079 0.01
2 5 2 1 o 25.211 10.792 0.00 1.02311 0.03
0 5 4 2 o 0.029 0.009 180.00 1.05065 0.00
3 3 -8 2 o 23.949 8.368 180.00 1.03345 0.02
5 3 -2 2 o 56.891 11.444 0.00 1.04255 0.05
4 2 4 1 o 3.526 1.227 0.00 1.02730 0.00
3 -5 4 1 o 3.389 0.789 180.00 1.00948 0.00
4 -3 -8 1 o 177.570 28.453 0.00 0.97744 0.23
4 1 -9 1 o 3.983 1.016 180.00 1.00087 0.01
6 -3 -1 1 o 0.663 0.187 0.00 1.01427 0.00
3 5 -3 2 o 6.006 1.726 180.00 1.02141 0.00
5 3 -3 1 o 72.751 23.757 0.00 1.04472 0.15
1 -3 -8 2 o 0.014 0.006 180.00 1.01417 0.00
5 -2 -8 2 o 0.059 0.007 180.00 0.97375 0.00
2 -6 1 2 o 1.285 0.521 0.00 1.02723 0.00
3 -4 -7 2 o 166.001 29.874 0.00 0.99873 0.10
2 -6 0 2 o 13.799 6.126 0.00 1.03181 0.01
4 -4 4 1 o 87.985 21.962 180.00 1.01372 0.12
3 -5 -5 1 o 50.644 11.468 0.00 1.00637 0.06
0 2 -9 1 o 2.769 1.104 0.00 1.02363 0.00
1 6 -1 1 o 0.222 0.047 180.00 1.00605 0.00
1 6 -2 2 o 22.951 5.830 180.00 1.00526 0.01
5 -2 -8 1 o 0.055 0.007 180.00 0.97375 0.00
5 3 -1 1 o 0.019 0.002 180.00 1.02785 0.00
5 -3 -7 2 o 13.868 2.183 0.00 0.97978 0.01
6 1 -1 2 o 1.103 0.459 0.00 1.02882 0.00
3 5 -1 2 o 0.051 0.012 0.00 1.01820 0.00
3 5 -4 1 o 1.231 0.277 0.00 1.00528 0.00
4 -5 1 2 o 8.271 2.501 0.00 1.03834 0.01
3 2 -9 1 o 0.946 0.308 180.00 1.01644 0.00
1 -6 -1 2 o 2.483 0.826 0.00 1.03389 0.00
4 4 0 2 o 16.902 5.772 180.00 1.02316 0.01
4 3 -7 1 o 16.101 5.046 0.00 1.03045 0.03
2 -6 2 2 o 5.666 1.348 180.00 1.01079 0.00
2 5 2 2 o 31.159 10.792 0.00 1.02311 0.02
5 1 -8 1 o 7.387 1.610 180.00 0.99581 0.01
0 6 1 1 o 0.059 0.024 180.00 1.01606 0.00
4 -3 5 1 o 1.291 0.372 180.00 1.01581 0.00
4 2 4 2 o 2.875 1.227 0.00 1.02730 0.00
4 -5 -4 1 o 44.497 11.368 0.00 1.00248 0.06
5 2 -7 1 o 106.131 22.952 180.00 1.00833 0.20
3 -5 4 2 o 3.071 0.789 180.00 1.00948 0.00
4 -3 -8 2 o 186.198 28.453 0.00 0.97744 0.12
4 1 -9 2 o 5.085 1.016 180.00 1.00087 0.00
5 3 -3 2 o 104.307 23.757 0.00 1.04472 0.10
6 -3 -1 2 o 0.794 0.187 0.00 1.01427 0.00
2 5 -6 1 o 33.254 6.890 0.00 0.99510 0.05
1 -5 -5 1 o 92.292 37.215 180.00 1.01931 0.10
0 6 -4 1 o 21.407 3.294 180.00 0.98745 0.03
4 -4 4 2 o 100.249 21.962 180.00 1.01372 0.07
3 -5 -5 2 o 43.248 11.468 0.00 1.00637 0.03
1 4 -8 1 o 57.428 14.664 0.00 1.00008 0.08
1 -4 -7 1 o 47.465 12.741 0.00 0.99965 0.05
0 2 -9 2 o 3.278 1.104 0.00 1.02363 0.00
4 4 -5 1 o 0.612 0.298 0.00 1.01719 0.00
1 6 -3 1 o 1.720 0.321 180.00 0.99318 0.00
6 -3 -5 2 o 67.356 9.701 0.00 0.97439 0.05
6 -1 -7 1 o 40.452 5.838 180.00 0.96802 0.07
5 -4 1 1 o 4.577 1.426 0.00 1.03262 0.01
1 6 -1 2 o 0.187 0.047 180.00 1.00605 0.00
5 3 -1 2 o 0.012 0.002 180.00 1.02785 0.00
0 1 9 1 o 29.301 5.975 0.00 1.01103 0.03
3 5 -4 2 o 1.055 0.277 0.00 1.00528 0.00
3 -1 7 1 o 86.269 29.364 0.00 1.01655 0.11
3 2 -9 2 o 1.479 0.308 180.00 1.01644 0.00
5 3 -4 1 o 13.278 2.776 0.00 1.03414 0.03
4 3 -7 2 o 10.249 5.046 0.00 1.03045 0.01
3 4 3 1 o 96.710 20.616 0.00 1.01048 0.12
5 1 -8 2 o 9.801 1.610 180.00 0.99581 0.01
6 -3 -5 1 o 61.292 9.701 0.00 0.97439 0.10
0 6 1 2 o 0.092 0.024 180.00 1.01606 0.00
4 -3 5 2 o 1.822 0.372 180.00 1.01581 0.00
4 -5 -4 2 o 50.942 11.368 0.00 1.00248 0.03
5 2 -7 2 o 85.682 22.952 180.00 1.00833 0.08
0 4 -8 1 o 19.241 3.125 0.00 0.98996 0.02
6 -1 1 1 o 1.818 0.710 180.00 1.01792 0.00
2 -1 8 1 o 43.749 16.354 0.00 1.01799 0.05
1 -5 -5 2 o 168.735 37.215 180.00 1.01931 0.09
2 5 -6 2 o 44.224 6.890 0.00 0.99510 0.03
1 -2 -9 1 o 18.688 3.760 180.00 0.99461 0.02
0 6 -4 2 o 21.798 3.294 180.00 0.98745 0.01
3 4 -7 1 o 25.748 5.707 180.00 1.00664 0.04
4 1 5 1 o 1.082 0.405 180.00 1.01683 0.00
5 1 3 1 o 23.067 8.417 0.00 1.01665 0.04
6 1 -6 1 o 32.884 4.954 0.00 0.98651 0.06
1 4 -8 2 o 76.086 14.664 0.00 1.00008 0.05
4 4 -5 2 o 1.441 0.298 0.00 1.01719 0.00
1 -4 -7 2 o 68.795 12.741 0.00 0.99965 0.03
5 -4 1 2 o 2.910 1.426 0.00 1.03262 0.00
1 6 -3 2 o 2.085 0.321 180.00 0.99318 0.00
1 -6 4 1 o 5.471 0.891 0.00 0.97980 0.01
0 1 9 2 o 25.511 5.975 0.00 1.01103 0.01
6 -1 -7 2 o 36.803 5.838 180.00 0.96802 0.03
4 -2 -9 1 o 39.768 6.269 180.00 0.96215 0.05
3 -1 7 2 o 139.406 29.364 0.00 1.01655 0.08
5 3 -4 2 o 8.666 2.776 0.00 1.03414 0.01
3 5 0 1 o 24.778 6.762 180.00 0.99920 0.03
6 0 -7 1 o 10.051 1.496 180.00 0.96960 0.02
3 4 3 2 o 84.169 20.616 0.00 1.01048 0.05
4 -5 2 1 o 53.189 11.197 180.00 1.00910 0.07
5 2 2 1 o 4.544 0.943 0.00 1.00809 0.01
5 -3 3 1 o 0.457 0.177 0.00 1.01689 0.00
3 -2 7 1 o 4.228 1.083 180.00 1.00264 0.01
0 4 -8 2 o 20.889 3.125 0.00 0.98996 0.01
2 -6 3 1 o 19.559 2.902 0.00 0.98413 0.02
4 3 3 1 o 120.627 32.351 0.00 1.00251 0.16
6 -1 1 2 o 3.577 0.710 180.00 1.01792 0.00
2 -1 8 2 o 77.089 16.354 0.00 1.01799 0.04
2 -2 8 1 o 52.203 13.875 0.00 1.00180 0.06
1 3 7 1 o 28.754 6.230 0.00 1.00639 0.03
1 -2 -9 2 o 24.888 3.760 180.00 0.99461 0.01
1 6 0 1 o 70.617 15.395 180.00 0.99546 0.08
3 4 -7 2 o 19.196 5.707 180.00 1.00664 0.02
2 3 6 1 o 1.974 0.368 180.00 1.01064 0.00
2 -6 -1 1 o 7.468 4.140 0.00 1.02405 0.01
4 1 5 2 o 1.963 0.405 180.00 1.01683 0.00
5 1 3 2 o 40.704 8.417 0.00 1.01665 0.03
6 1 -6 2 o 32.597 4.954 0.00 0.98651 0.03
1 3 -9 1 o 5.553 1.150 0.00 0.99419 0.01
1 -6 4 2 o 5.335 0.891 0.00 0.97980 0.00
2 -4 7 1 o 0.003 0.000 180.00 0.98041 0.00
4 -2 -9 2 o 29.197 6.269 180.00 0.96215 0.02
3 5 0 2 o 38.151 6.762 180.00 0.99920 0.03
6 0 -7 2 o 9.912 1.496 180.00 0.96960 0.01
4 -5 2 2 o 42.423 11.197 180.00 1.00910 0.03
5 -4 -6 1 o 10.729 2.375 0.00 0.95527 0.01
5 3 0 1 o 11.278 3.100 180.00 1.00215 0.02
5 -3 3 2 o 0.890 0.177 0.00 1.01689 0.00
5 2 2 2 o 3.361 0.943 0.00 1.00809 0.00
6 -3 0 1 o 32.814 7.630 0.00 0.99580 0.05
3 -2 7 2 o 4.803 1.083 180.00 1.00264 0.00
4 3 3 2 o 139.460 32.351 0.00 1.00251 0.09
2 -6 3 2 o 18.371 2.902 0.00 0.98413 0.01
1 6 -4 1 o 48.291 7.082 0.00 0.97097 0.06
4 -4 -7 1 o 1.604 0.256 0.00 0.96215 0.00
6 -2 1 1 o 2.897 0.666 180.00 1.00487 0.00
2 -2 8 2 o 64.028 13.875 0.00 1.00180 0.04
1 3 7 2 o 19.994 6.230 0.00 1.00639 0.01
2 -6 -1 2 o 9.726 4.140 0.00 1.02405 0.01
2 3 6 2 o 1.679 0.368 180.00 1.01064 0.00
1 6 0 2 o 101.407 15.395 180.00 0.99546 0.06
6 -2 -7 1 o 3.726 1.375 180.00 0.94382 0.01
1 3 -9 2 o 7.169 1.150 0.00 0.99419 0.00
2 2 7 1 o 0.114 0.024 0.00 1.00761 0.00
2 0 -10 1 o 16.112 2.410 180.00 0.98086 0.02
6 1 0 1 o 7.492 2.098 180.00 1.00189 0.01
2 -4 7 2 o 0.003 0.000 180.00 0.98041 0.00
5 3 0 2 o 13.701 3.100 180.00 1.00215 0.01
2 4 -8 1 o 50.412 7.311 0.00 0.98510 0.07
6 0 1 1 o 10.380 2.568 0.00 1.00414 0.02
5 -4 -6 2 o 8.512 2.375 0.00 0.95527 0.01
3 5 -5 1 o 52.742 8.089 180.00 0.97908 0.08
3 -4 6 1 o 1.959 0.281 180.00 0.97926 0.00
0 5 -7 1 o 114.756 16.131 0.00 0.96554 0.14
6 -3 0 2 o 49.849 7.630 0.00 0.99580 0.04
5 3 -5 1 o 32.599 5.981 0.00 1.01191 0.06
1 6 -4 2 o 52.010 7.082 0.00 0.97097 0.03
4 -4 -7 2 o 1.145 0.256 0.00 0.96215 0.00
4 4 1 1 o 30.300 4.620 0.00 0.98965 0.04
6 -2 1 2 o 2.289 0.666 180.00 1.00487 0.00
2 3 -9 1 o 11.318 1.671 180.00 0.98803 0.02
2 2 7 2 o 0.072 0.024 0.00 1.00761 0.00
6 -2 -7 2 o 2.766 1.375 180.00 0.94382 0.00
2 0 -10 2 o 14.431 2.410 180.00 0.98086 0.01
3 0 7 1 o 56.637 14.263 180.00 1.00374 0.07
6 1 0 2 o 9.350 2.098 180.00 1.00189 0.01
3 0 -10 1 o 36.716 5.023 0.00 0.96720 0.05
1 -6 -2 1 o 80.941 22.036 0.00 1.00896 0.09
5 -1 4 1 o 17.302 3.656 180.00 1.00594 0.02
2 -5 6 1 o 9.248 1.550 180.00 0.96086 0.01
1 2 8 1 o 0.007 0.001 180.00 0.99482 0.00
2 1 -10 1 o 17.254 2.657 180.00 0.97873 0.02
2 0 8 1 o 54.689 11.233 0.00 1.00735 0.06
2 4 -8 2 o 47.148 7.311 0.00 0.98510 0.03
6 0 1 2 o 9.470 2.568 0.00 1.00414 0.01
1 5 -7 1 o 0.963 0.128 0.00 0.96669 0.00
3 5 -5 2 o 49.989 8.089 180.00 0.97908 0.04
3 -4 6 2 o 1.920 0.281 180.00 0.97926 0.00
1 5 4 1 o 13.944 2.832 0.00 0.99425 0.01
0 5 -7 2 o 88.048 16.131 0.00 0.96554 0.05
5 3 -5 2 o 26.452 5.981 0.00 1.01191 0.02
3 2 6 1 o 23.772 4.204 180.00 0.99325 0.03
4 4 1 2 o 32.256 4.620 0.00 0.98965 0.02
6 2 -3 1 o 66.778 10.038 0.00 0.98759 0.12
3 3 5 1 o 69.639 10.320 180.00 0.98775 0.08
1 -1 9 1 o 15.516 2.434 180.00 0.99188 0.02
2 3 -9 2 o 11.640 1.671 180.00 0.98803 0.01
2 -6 -2 1 o 20.047 5.031 180.00 1.00476 0.02
4 -5 -5 1 o 1.099 0.166 0.00 0.96377 0.00
3 -6 1 1 o 62.481 9.020 0.00 0.98217 0.08
0 3 8 1 o 2.890 0.507 0.00 0.97598 0.00
5 -2 4 1 o 61.197 13.808 0.00 0.99489 0.08
6 -3 -6 1 o 0.434 0.189 180.00 0.94061 0.00
0 3 -9 1 o 1.587 0.275 180.00 0.97579 0.00
3 0 7 2 o 54.369 14.263 180.00 1.00374 0.03
5 -4 2 1 o 26.660 6.846 0.00 0.99704 0.04
1 -6 -2 2 o 45.227 22.036 0.00 1.00896 0.03
3 0 -10 2 o 31.235 5.023 0.00 0.96720 0.02
5 0 -9 1 o 0.741 0.237 0.00 0.94684 0.00
5 -1 4 2 o 9.635 3.656 180.00 1.00594 0.01
1 4 6 1 o 3.699 0.458 180.00 0.98470 0.00
1 6 1 1 o 14.432 2.518 180.00 0.97454 0.02
5 -1 -9 1 o 7.017 3.396 180.00 0.93880 0.01
1 2 8 2 o 0.011 0.001 180.00 0.99482 0.00
2 -5 6 2 o 6.576 1.550 180.00 0.96086 0.00
2 0 8 2 o 32.820 11.233 0.00 1.00735 0.02
2 1 -10 2 o 16.758 2.657 180.00 0.97873 0.01
1 5 4 2 o 19.106 2.832 0.00 0.99425 0.01
4 -1 6 1 o 40.933 6.050 180.00 0.98792 0.05
1 5 -7 2 o 0.789 0.128 0.00 0.96669 0.00
0 6 2 1 o 50.126 7.587 0.00 0.98760 0.05
2 -1 -10 1 o 17.339 3.256 180.00 0.95924 0.02
3 2 6 2 o 29.731 4.204 180.00 0.99325 0.02
0 5 5 1 o 2.111 0.293 0.00 0.98686 0.00
6 2 -4 1 o 123.977 18.236 0.00 0.98149 0.22
6 2 -3 2 o 67.915 10.038 0.00 0.98759 0.06
4 -2 6 1 o 18.152 2.896 180.00 0.97716 0.02
2 -5 -6 1 o 17.954 2.262 180.00 0.96528 0.02
4 -5 3 1 o 0.463 0.069 0.00 0.97164 0.00
1 0 -10 1 o 1.065 0.138 0.00 0.97082 0.00
3 3 5 2 o 71.442 10.320 180.00 0.98775 0.04
1 -1 9 2 o 18.033 2.434 180.00 0.99188 0.01
2 -6 -2 2 o 10.293 5.031 180.00 1.00476 0.01
3 -3 7 1 o 2.579 0.343 0.00 0.96506 0.00
4 -5 -5 2 o 0.742 0.166 0.00 0.96377 0.00
3 -6 1 2 o 53.242 9.020 0.00 0.98217 0.03
3 5 1 1 o 64.147 8.843 180.00 0.97068 0.08
0 3 8 2 o 3.722 0.507 0.00 0.97598 0.00
5 -2 4 2 o 92.027 13.808 0.00 0.99489 0.06
2 4 5 1 o 0.251 0.034 180.00 0.98047 0.00
2 5 3 1 o 9.723 1.750 0.00 0.97564 0.01
0 6 -5 1 o 0.950 0.251 180.00 0.95131 0.00
3 -1 -10 1 o 20.256 5.674 180.00 0.94992 0.02
0 3 -9 2 o 1.881 0.275 180.00 0.97579 0.00
6 -3 -6 2 o 0.357 0.189 180.00 0.94061 0.00
1 -2 9 1 o 0.117 0.013 0.00 0.97486 0.00
5 0 4 1 o 42.668 5.927 0.00 0.99108 0.06
5 -4 2 2 o 47.569 6.846 0.00 0.99704 0.03
1 -4 8 1 o 0.060 0.010 0.00 0.95690 0.00
6 2 -2 1 o 3.183 0.426 180.00 0.98286 0.01
5 0 -9 2 o 0.543 0.237 0.00 0.94684 0.00
3 1 -10 1 o 1.545 0.259 0.00 0.96151 0.00
1 4 6 2 o 3.290 0.458 180.00 0.98470 0.00
1 6 1 2 o 19.540 2.518 180.00 0.97454 0.01
2 -3 8 1 o 6.879 0.999 180.00 0.96236 0.01
3 -5 5 1 o 7.160 1.643 180.00 0.95606 0.01
5 -1 -9 2 o 6.630 3.396 180.00 0.93880 0.00
4 4 -6 1 o 0.643 0.090 180.00 0.98211 0.00
5 -5 -2 1 o 0.152 0.020 180.00 0.96675 0.00
2 6 -2 1 o 0.723 0.163 0.00 0.95541 0.00
4 -1 6 2 o 42.500 6.050 180.00 0.98792 0.03
0 6 2 2 o 53.981 7.587 0.00 0.98760 0.03
2 -1 -10 2 o 12.756 3.256 180.00 0.95924 0.01
0 5 5 2 o 2.083 0.293 0.00 0.98686 0.00
3 -6 0 1 o 1.247 0.186 0.00 0.99093 0.00
6 2 -4 2 o 107.069 18.236 0.00 0.98149 0.10
4 -2 6 2 o 20.802 2.896 180.00 0.97716 0.01
4 -5 3 2 o 0.547 0.069 0.00 0.97164 0.00
4 2 -9 1 o 4.093 0.498 180.00 0.96458 0.01
2 -5 -6 2 o 11.975 2.262 180.00 0.96528 0.01
3 -5 -6 1 o 55.086 14.145 0.00 0.95284 0.06
1 0 -10 2 o 1.229 0.138 0.00 0.97082 0.00
5 -3 -8 1 o 6.209 2.998 180.00 0.92297 0.01
3 -3 7 2 o 1.789 0.343 0.00 0.96506 0.00
3 5 1 2 o 72.571 8.843 180.00 0.97068 0.04
2 4 5 2 o 0.208 0.034 180.00 0.98047 0.00
2 5 3 2 o 12.961 1.750 0.00 0.97564 0.01
0 6 -5 2 o 0.743 0.251 180.00 0.95131 0.00
3 -1 -10 2 o 15.606 5.674 180.00 0.94992 0.01
1 -2 9 2 o 0.149 0.013 0.00 0.97486 0.00
5 0 4 2 o 47.581 5.927 0.00 0.99108 0.03
3 -6 2 1 o 0.446 0.057 0.00 0.96335 0.00
1 -4 8 2 o 0.047 0.010 0.00 0.95690 0.00
1 1 -10 1 o 1.445 0.223 0.00 0.97247 0.00
6 2 -2 2 o 2.758 0.426 180.00 0.98286 0.00
3 1 -10 2 o 0.992 0.259 0.00 0.96151 0.00
2 -3 8 2 o 4.487 0.999 180.00 0.96236 0.00
4 4 -6 2 o 0.443 0.090 180.00 0.98211 0.00
3 -5 5 2 o 5.762 1.643 180.00 0.95606 0.00
3 -6 -1 1 o 14.076 2.867 180.00 0.98877 0.02
5 -5 -3 1 o 10.197 2.420 180.00 0.95507 0.01
6 1 -7 1 o 13.559 4.139 0.00 0.94825 0.02
6 -4 -3 1 o 14.479 4.394 180.00 0.94852 0.02
5 -5 -2 2 o 0.120 0.020 180.00 0.96675 0.00
2 -6 4 1 o 0.351 0.097 0.00 0.94962 0.00
2 6 -2 2 o 0.592 0.163 0.00 0.95541 0.00
3 -3 -9 1 o 0.097 0.054 0.00 0.93444 0.00
2 6 -3 1 o 7.482 2.220 180.00 0.94919 0.01
6 2 -5 1 o 39.199 4.922 0.00 0.96514 0.07
1 -5 7 1 o 15.853 6.472 180.00 0.94222 0.02
6 -4 -2 1 o 0.020 0.004 0.00 0.95400 0.00
6 -4 -4 1 o 0.070 0.037 0.00 0.93376 0.00
3 -6 0 2 o 1.367 0.186 0.00 0.99093 0.00
2 -3 -9 1 o 2.562 1.201 0.00 0.94061 0.00
4 0 6 1 o 2.282 0.391 180.00 0.97412 0.00
4 2 -9 2 o 2.494 0.498 180.00 0.96458 0.00
3 -5 -6 2 o 43.900 14.145 0.00 0.95284 0.02
4 0 -10 1 o 6.773 3.603 0.00 0.93261 0.01
5 -3 -8 2 o 7.648 2.998 180.00 0.92297 0.00
1 6 -5 1 o 0.081 0.043 0.00 0.94061 0.00
5 -5 -1 1 o 147.804 18.750 180.00 0.96842 0.20
0 4 7 1 o 5.528 0.695 180.00 0.96378 0.00
1 -6 5 1 o 20.206 9.592 0.00 0.94034 0.02
0 2 9 1 o 0.454 0.103 180.00 0.95777 0.00
5 3 1 1 o 38.207 4.844 180.00 0.96784 0.05
1 0 9 1 o 116.349 15.194 0.00 0.98411 0.12
2 5 -7 1 o 0.095 0.035 0.00 0.94545 0.00
3 -6 2 2 o 0.267 0.057 0.00 0.96335 0.00
2 6 -1 1 o 84.515 22.402 180.00 0.95181 0.10
4 3 -8 1 o 3.574 0.507 180.00 0.97075 0.01
1 1 -10 2 o 1.858 0.223 0.00 0.97247 0.00
5 3 -6 1 o 4.386 0.637 0.00 0.98020 0.01
3 -6 -1 2 o 19.423 2.867 180.00 0.98877 0.01
5 2 -8 1 o 42.182 10.530 180.00 0.95482 0.07
6 -1 -8 2 o 0.298 0.118 0.00 0.91980 0.00
5 -5 -3 2 o 8.282 2.420 180.00 0.95507 0.01
6 1 -7 2 o 9.952 4.139 0.00 0.94825 0.01
6 -4 -3 2 o 10.710 4.394 180.00 0.94852 0.01
3 -4 -8 1 o 7.575 3.391 180.00 0.92921 0.01
2 -6 4 2 o 0.264 0.097 0.00 0.94962 0.00
2 -4 -8 1 o 1.526 1.039 180.00 0.93597 0.00
2 6 -3 2 o 5.645 2.220 180.00 0.94919 0.00
6 2 -5 2 o 25.083 4.922 0.00 0.96514 0.02
3 -3 -9 2 o 0.123 0.054 0.00 0.93444 0.00
6 -4 -2 2 o 0.016 0.004 0.00 0.95400 0.00
1 -5 7 2 o 10.840 6.472 180.00 0.94222 0.01
7 -1 -4 1 o 8.976 5.384 0.00 0.93493 0.01
6 -4 -4 2 o 0.089 0.037 0.00 0.93376 0.00
6 2 -1 1 o 44.043 5.534 180.00 0.96775 0.07
4 -1 -10 1 o 3.956 1.797 180.00 0.92025 0.00
2 -3 -9 2 o 1.860 1.201 0.00 0.94061 0.00
4 0 6 2 o 3.309 0.391 180.00 0.97412 0.00
6 -1 -8 1 o 0.258 0.118 0.00 0.91980 0.00
4 -4 5 1 o 33.141 8.477 180.00 0.95371 0.04
7 -1 -3 1 o 0.104 0.048 0.00 0.94081 0.00
4 0 -10 2 o 7.834 3.603 0.00 0.93261 0.00
5 -5 -1 2 o 148.523 18.750 180.00 0.96842 0.10
1 6 -5 2 o 0.063 0.043 0.00 0.94061 0.00
0 4 7 2 o 3.043 0.695 180.00 0.96378 0.00
5 1 -9 1 o 21.268 12.551 180.00 0.93323 0.03
6 1 1 1 o 2.581 0.322 180.00 0.96656 0.00
1 -1 -10 1 o 18.126 6.160 180.00 0.94637 0.02
1 -6 5 2 o 15.942 9.592 0.00 0.94034 0.01
0 2 9 2 o 0.384 0.103 180.00 0.95777 0.00
5 3 1 2 o 35.225 4.844 180.00 0.96784 0.02
1 0 9 2 o 98.730 15.194 0.00 0.98411 0.05
5 -2 -9 1 o 1.237 0.721 180.00 0.91070 0.00
2 5 -7 2 o 0.061 0.035 0.00 0.94545 0.00
4 3 -8 2 o 4.186 0.507 180.00 0.97075 0.00
2 6 -1 2 o 65.302 22.402 180.00 0.95181 0.04
5 3 -6 2 o 3.129 0.637 0.00 0.98020 0.00
3 5 -6 1 o 2.050 0.751 180.00 0.94511 0.00
5 -3 4 1 o 1.937 0.336 180.00 0.96034 0.00
6 -3 1 1 o 0.238 0.040 0.00 0.96786 0.00
6 -4 -1 1 o 0.082 0.025 0.00 0.94972 0.00
1 -5 -6 1 o 67.481 17.007 180.00 0.95511 0.06
5 2 -8 2 o 34.493 10.530 180.00 0.95482 0.03
3 -6 -2 1 o 16.904 2.920 0.00 0.97592 0.02
2 -6 -3 1 o 7.981 1.457 180.00 0.97581 0.01
3 3 -9 1 o 0.467 0.112 0.00 0.95861 0.00
3 -4 -8 2 o 6.358 3.391 180.00 0.92921 0.00
6 0 -8 1 o 12.854 6.698 180.00 0.92264 0.02
1 -6 -3 1 o 44.444 9.846 0.00 0.97507 0.05
2 -4 -8 2 o 2.245 1.039 180.00 0.93597 0.00
2 2 -10 1 o 1.352 0.385 0.00 0.95328 0.00
7 -1 -4 2 o 11.877 5.384 0.00 0.93493 0.01
6 2 -1 2 o 40.375 5.534 180.00 0.96775 0.03
6 -1 2 1 o 31.335 6.445 0.00 0.97387 0.05
4 -1 -10 2 o 5.279 1.797 180.00 0.92025 0.00
4 -4 5 2 o 26.661 8.477 180.00 0.95371 0.02
7 -1 -3 2 o 0.075 0.048 0.00 0.94081 0.00
6 1 1 2 o 1.915 0.322 180.00 0.96656 0.00
5 -5 -4 1 o 7.976 5.248 180.00 0.93440 0.01
3 4 4 1 o 71.324 19.020 0.00 0.95202 0.07
1 -1 -10 2 o 12.004 6.160 180.00 0.94637 0.01
7 -2 -3 1 o 16.767 7.665 0.00 0.92769 0.03
5 1 -9 2 o 27.909 12.551 180.00 0.93323 0.02
7 -2 -4 1 o 0.336 0.152 180.00 0.92058 0.00
2 1 8 1 o 0.655 0.103 180.00 0.97225 0.00
7 -1 -5 1 o 6.632 3.108 180.00 0.92019 0.01
5 -2 -9 2 o -0.041 0.721 180.00 0.91070 0.00
5 -4 3 1 o 0.306 0.084 0.00 0.95487 0.00
4 2 5 1 o 3.334 0.869 0.00 0.95498 0.00
2 6 -4 1 o 11.730 7.783 180.00 0.93373 0.01
3 5 -6 2 o 1.177 0.751 180.00 0.94511 0.00
5 2 3 1 o 5.700 1.454 0.00 0.95457 0.01
5 -3 4 2 o 1.248 0.336 180.00 0.96034 0.00
6 -3 1 2 o 0.241 0.040 0.00 0.96786 0.00
6 -4 -1 2 o 0.064 0.025 0.00 0.94972 0.00
1 -5 -6 2 o 56.243 17.007 180.00 0.95511 0.03
3 -6 -2 2 o 32.004 2.920 0.00 0.97592 0.02
4 4 2 1 o 15.420 4.552 0.00 0.94938 0.02
4 -3 6 1 o 7.369 2.791 0.00 0.94411 0.01
2 -6 -3 2 o 15.936 1.457 180.00 0.97581 0.01
2 6 0 1 o 21.359 14.755 180.00 0.93873 0.02
6 -4 -5 1 o 0.043 0.023 180.00 0.91098 0.00
7 -1 -2 1 o 7.183 4.899 180.00 0.93732 0.01
3 3 -9 2 o 0.372 0.112 0.00 0.95861 0.00
3 4 -8 1 o 1.790 0.587 180.00 0.94817 0.00
3 1 7 1 o 113.564 13.835 0.00 0.96702 0.12
1 -6 -3 2 o 72.598 9.846 0.00 0.97507 0.04
2 2 -10 2 o 1.109 0.385 0.00 0.95328 0.00
6 0 -8 2 o 17.930 6.698 180.00 0.92264 0.01
6 -1 2 2 o 48.124 6.445 0.00 0.97387 0.03
1 -3 9 1 o 0.010 0.006 0.00 0.93660 0.00
5 -4 -7 1 o 1.349 1.037 0.00 0.90942 0.00
6 -3 -7 1 o -0.230 5.736 180.00 0.90170 0.00
1 2 -10 1 o 4.313 1.153 0.00 0.95098 0.00
3 -6 3 1 o 5.159 3.757 180.00 0.93613 0.01
4 -3 -9 1 o 21.428 21.776 0.00 0.90856 0.02
6 2 -6 1 o 1.740 0.985 0.00 0.94002 0.00
7 0 -4 1 o 0.140 0.061 180.00 0.92847 0.00
3 4 4 2 o 54.713 19.020 0.00 0.95202 0.03
5 -5 -4 2 o 12.028 5.248 180.00 0.93440 0.01
7 -2 -3 2 o 13.797 7.665 0.00 0.92769 0.01
2 1 8 2 o 1.042 0.103 180.00 0.97225 0.00
7 -2 -4 2 o 0.470 0.152 180.00 0.92058 0.00
7 -1 -5 2 o 8.505 3.108 180.00 0.92019 0.01
1 6 2 1 o 6.714 2.395 0.00 0.94515 0.01
5 1 4 1 o 28.962 8.067 180.00 0.95353 0.04
5 -5 0 1 o 25.041 5.063 180.00 0.95990 0.03
5 -4 3 2 o 0.255 0.084 0.00 0.95487 0.00
4 2 5 2 o 2.771 0.869 0.00 0.95498 0.00
7 0 -3 1 o 0.495 0.306 0.00 0.93270 0.00
2 6 -4 2 o 17.764 7.783 180.00 0.93373 0.01
5 2 3 2 o 4.690 1.454 0.00 0.95457 0.00
6 -2 2 1 o 0.288 0.035 180.00 0.96410 0.00
4 -5 -6 1 o 1.358 0.654 180.00 0.92025 0.00
3 -2 -10 1 o 9.202 3.477 0.00 0.91311 0.01
4 4 2 2 o 11.770 4.552 0.00 0.94938 0.01
4 -3 6 2 o 3.931 2.791 0.00 0.94411 0.00
2 6 0 2 o 21.358 14.755 180.00 0.93873 0.01
7 -2 -2 1 o 27.029 13.567 0.00 0.92584 0.04
7 -1 -2 2 o 9.301 4.899 180.00 0.93732 0.01
3 1 7 2 o 93.176 13.835 0.00 0.96702 0.05
1 -3 -9 1 o 5.152 2.571 180.00 0.92589 0.00
6 -4 -5 2 o 0.001 0.023 180.00 0.91098 0.00
3 4 -8 2 o 1.321 0.587 180.00 0.94817 0.00
4 3 4 1 o 1.031 0.425 0.00 0.94280 0.00
6 -2 -8 1 o -0.118 4.607 180.00 0.89761 0.00
7 -2 -5 1 o -0.175 6.301 0.00 0.90510 0.00
6 0 2 1 o 62.670 11.644 180.00 0.96010 0.09
4 1 -10 1 o 1.844 1.026 180.00 0.92428 0.00
2 -2 -10 1 o 0.008 0.005 180.00 0.91821 0.00
3 -6 -3 1 o 0.166 0.071 180.00 0.95357 0.00
1 -3 9 2 o 0.014 0.006 0.00 0.93660 0.00
1 1 9 1 o 8.411 2.629 180.00 0.95320 0.01
5 -4 -7 2 o -0.033 1.037 0.00 0.90942 0.00
1 2 -10 2 o 3.208 1.153 0.00 0.95098 0.00
6 -3 -7 2 o -0.230 5.736 180.00 0.90170 0.00
3 -6 3 2 o 8.073 3.757 180.00 0.93613 0.00
4 -4 -8 1 o -0.143 4.923 0.00 0.90313 0.00
6 2 -6 2 o 1.243 0.985 0.00 0.94002 0.00
4 -3 -9 2 o -0.669 21.776 0.00 0.90856 0.00
7 0 -4 2 o 0.107 0.061 180.00 0.92847 0.00
3 5 2 1 o 6.220 5.534 180.00 0.93506 0.01
4 -5 4 1 o 23.093 9.773 0.00 0.92883 0.03
7 0 -5 1 o 35.573 12.049 0.00 0.91548 0.05
5 1 4 2 o 23.960 8.067 180.00 0.95353 0.01
1 6 2 2 o 3.290 2.395 0.00 0.94515 0.00
0 6 -6 1 o 0.472 0.293 0.00 0.91019 0.00
5 -5 0 2 o 16.680 5.063 180.00 0.95990 0.01
6 -2 2 2 o 0.108 0.035 180.00 0.96410 0.00
7 0 -3 2 o 0.625 0.306 0.00 0.93270 0.00
4 5 -3 1 o 0.452 0.350 180.00 0.93295 0.00
4 -5 -6 2 o 2.049 0.654 180.00 0.92025 0.00
3 -2 -10 2 o 2.077 3.477 0.00 0.91311 0.00
4 5 -2 1 o 4.791 3.254 0.00 0.93234 0.01
7 -2 -2 2 o 26.860 13.567 0.00 0.92584 0.02
4 3 4 2 o 0.453 0.425 0.00 0.94280 0.00
1 -3 -9 2 o 4.849 2.571 180.00 0.92589 0.00
7 -2 -5 2 o -0.175 6.301 0.00 0.90510 0.00
6 -2 -8 2 o -0.118 4.607 180.00 0.89761 0.00
6 0 2 2 o 39.299 11.644 180.00 0.96010 0.03
1 4 -9 1 o 1.793 0.936 180.00 0.92543 0.00
0 1 -10 1 o 76.933 29.048 180.00 0.94404 0.08
3 -6 -3 2 o 0.249 0.071 180.00 0.95357 0.00
4 1 -10 2 o 2.636 1.026 180.00 0.92428 0.00
2 -2 -10 2 o 0.009 0.005 180.00 0.91821 0.00
6 2 0 1 o 33.137 12.938 0.00 0.94365 0.05
1 1 9 2 o 8.128 2.629 180.00 0.95320 0.00
0 0 10 1 o 0.283 0.228 0.00 0.93913 0.00
3 2 -10 1 o 0.687 0.586 180.00 0.93402 0.00
7 -1 -6 1 o -0.044 1.212 180.00 0.89781 0.00
5 4 -2 1 o 1.925 1.806 0.00 0.93866 0.00
4 -4 -8 2 o -0.143 4.923 0.00 0.90313 0.00
3 5 2 2 o 14.788 5.534 180.00 0.93506 0.01
5 3 -7 1 o 0.002 0.001 180.00 0.94169 0.00
3 2 -10 2 o 1.552 0.586 180.00 0.93402 0.00
5 4 -3 1 o 2.083 0.946 0.00 0.94182 0.00
7 0 -2 1 o 0.058 0.023 180.00 0.92779 0.00
0 6 3 1 o 0.117 0.022 180.00 0.95148 0.00
4 -5 4 2 o 15.537 9.773 0.00 0.92883 0.01
7 0 -5 2 o 17.799 12.049 0.00 0.91548 0.01
0 6 -6 2 o -0.015 0.293 0.00 0.91019 0.00
4 4 -7 1 o 5.268 2.309 180.00 0.94084 0.01
1 -4 -8 1 o 0.854 0.558 0.00 0.92213 0.00
2 6 -5 1 o 6.647 3.614 180.00 0.91033 0.01
4 5 -3 2 o 0.912 0.350 180.00 0.93295 0.00
6 -4 0 1 o 0.408 0.428 0.00 0.93605 0.00
2 -6 5 1 o 31.915 21.537 180.00 0.90983 0.03
4 5 -2 2 o 7.148 3.254 0.00 0.93234 0.00
1 5 -8 1 o 0.874 0.856 180.00 0.90854 0.00
7 -1 -1 1 o 4.617 2.572 180.00 0.92478 0.01
4 1 6 1 o 0.173 0.168 180.00 0.93864 0.00
0 1 -10 2 o 30.719 29.048 180.00 0.94404 0.02
1 4 -9 2 o 1.994 0.936 180.00 0.92543 0.00
6 2 0 2 o 13.395 12.938 0.00 0.94365 0.01
0 4 -9 1 o 0.000 0.000 0.00 0.91362 0.00
4 5 -4 1 o 4.472 2.717 0.00 0.92448 0.01
0 0 10 2 o 0.231 0.228 0.00 0.93913 0.00
5 -5 -5 1 o 0.391 1.750 0.00 0.90646 0.00
7 -1 -6 2 o -0.044 1.212 180.00 0.89781 0.00
6 1 -8 1 o -0.040 1.021 0.00 0.90558 0.00
5 4 -2 2 o 2.040 1.806 0.00 0.93866 0.00
5 3 -7 2 o 0.000 0.001 180.00 0.94169 0.00
2 -6 -4 1 o 0.076 0.082 180.00 0.93968 0.00
5 4 -3 2 o 0.801 0.946 0.00 0.94182 0.00
0 2 -10 1 o 0.922 0.383 180.00 0.92758 0.00
0 6 3 2 o 0.003 0.022 180.00 0.95148 0.00
7 0 -2 2 o 0.038 0.023 180.00 0.92779 0.00
5 3 2 1 o 8.229 3.292 0.00 0.92764 0.01
4 5 -1 1 o 2.135 1.609 0.00 0.92268 0.00
1 5 5 1 o 2.343 2.570 180.00 0.93563 0.00
4 4 -7 2 o 1.897 2.309 180.00 0.94084 0.00
1 -4 -8 2 o 2.138 0.558 0.00 0.92213 0.00
3 -4 7 1 o 4.173 1.966 180.00 0.91111 0.00
5 -1 5 1 o 0.029 0.034 0.00 0.93836 0.00
5 4 -1 1 o 0.757 0.340 180.00 0.92639 0.00
2 6 -5 2 o -0.040 3.614 180.00 0.91033 0.00
6 -4 0 2 o 1.126 0.428 0.00 0.93605 0.00
1 6 -6 1 o -0.032 0.375 180.00 0.90443 0.00
7 -2 -1 1 o 4.405 1.170 0.00 0.91518 0.01
2 -6 5 2 o -0.733 21.537 180.00 0.90983 0.00
0 5 -8 1 o 0.012 0.487 0.00 0.90392 0.00
4 -2 -10 1 o -0.032 0.892 180.00 0.88952 0.00
1 -6 6 1 o -0.186 6.991 0.00 0.89700 0.00
5 -5 1 1 o 0.011 0.006 180.00 0.94198 0.00
1 5 -8 2 o -0.036 0.856 180.00 0.90854 0.00
7 -1 -1 2 o 6.046 2.572 180.00 0.92478 0.00
4 1 6 2 o 0.186 0.168 180.00 0.93864 0.00
5 4 -4 1 o 1.702 0.815 0.00 0.93558 0.00
7 0 -6 1 o -0.190 9.426 0.00 0.89478 0.00
3 -6 -4 1 o 8.359 5.995 180.00 0.92362 0.01
0 4 -9 2 o 0.000 0.000 0.00 0.91362 0.00
4 5 -4 2 o 6.510 2.717 0.00 0.92448 0.00
5 -5 -5 2 o -0.083 1.750 0.00 0.90646 0.00
6 1 -8 2 o -0.040 1.021 0.00 0.90558 0.00
2 -4 8 1 o 0.067 0.122 180.00 0.90721 0.00
3 -1 8 1 o 1.602 0.652 180.00 0.92707 0.00
2 -5 7 1 o -0.028 0.540 180.00 0.90118 0.00
5 -2 5 1 o 2.349 1.007 180.00 0.93089 0.00
2 4 -9 1 o 23.466 7.131 0.00 0.91729 0.03
2 -6 -4 2 o 0.034 0.082 180.00 0.93968 0.00
0 2 -10 2 o 0.552 0.383 180.00 0.92758 0.00
5 3 2 2 o 4.372 3.292 0.00 0.92764 0.00
2 6 1 1 o 7.460 2.061 0.00 0.91730 0.01
4 5 -1 2 o 6.109 1.609 0.00 0.92268 0.00
1 5 5 2 o 7.625 2.570 180.00 0.93563 0.00
2 -5 -7 1 o 0.000 0.615 180.00 0.90543 0.00
2 3 7 1 o 3.838 1.273 0.00 0.92950 0.00
3 -4 7 2 o -0.101 1.966 180.00 0.91111 0.00
5 -1 5 2 o 0.036 0.034 0.00 0.93836 0.00
3 -5 -7 1 o 0.002 0.109 0.00 0.89869 0.00
5 -2 5 2 o 1.898 1.007 180.00 0.93089 0.00
5 4 -1 2 o 0.516 0.340 180.00 0.92639 0.00
2 5 4 1 o 15.495 8.529 0.00 0.92511 0.01
7 -2 -1 2 o 1.827 1.170 0.00 0.91518 0.00
1 6 -6 2 o -0.032 0.375 180.00 0.90443 0.00
0 5 6 1 o 0.032 0.020 180.00 0.92435 0.00
7 -2 -6 2 o -0.308 8.619 0.00 0.88248 0.00
0 5 -8 2 o 0.012 0.487 0.00 0.90392 0.00
4 -2 -10 2 o -0.032 0.892 180.00 0.88952 0.00
5 -5 1 2 o 0.005 0.006 180.00 0.94198 0.00
6 2 -7 1 o 4.175 4.460 0.00 0.90816 0.01
5 0 -10 1 o -0.114 1.610 180.00 0.88330 0.00
1 -6 6 2 o -0.186 6.991 0.00 0.89700 0.00
5 4 -4 2 o 2.738 0.815 0.00 0.93558 0.00
7 -3 -3 1 o -0.002 0.223 0.00 0.89583 0.00
7 0 -6 2 o -0.190 9.426 0.00 0.89478 0.00
3 -6 -4 2 o 19.616 5.995 180.00 0.92362 0.01
7 -2 -6 1 o -0.308 8.619 0.00 0.88248 0.00
5 -1 -10 1 o -0.008 0.122 0.00 0.87550 0.00
3 -2 8 1 o 9.249 3.105 0.00 0.91793 0.01
3 -6 4 1 o -0.776 19.352 180.00 0.90263 0.00
6 1 2 1 o 0.272 0.131 0.00 0.92560 0.00
3 -5 6 2 o -0.169 8.108 180.00 0.90189 0.00
6 -4 -6 1 o -0.007 0.028 0.00 0.88190 0.00
3 -5 6 1 o -0.169 8.108 180.00 0.90189 0.00
3 -1 8 2 o 0.908 0.652 180.00 0.92707 0.00
1 3 8 1 o 13.285 10.533 0.00 0.92113 0.01
2 -4 8 2 o 0.012 0.122 180.00 0.90721 0.00
4 -6 -2 1 o 0.008 0.002 180.00 0.92825 0.00
7 -3 -4 1 o -0.028 0.934 0.00 0.88810 0.00
2 -5 7 2 o -0.028 0.540 180.00 0.90118 0.00
2 4 -9 2 o 18.870 7.131 0.00 0.91729 0.01
4 -6 -1 1 o 0.085 0.131 0.00 0.93524 0.00
2 6 1 2 o 5.932 2.061 0.00 0.91730 0.00
3 5 -7 1 o 0.126 2.497 180.00 0.90590 0.00
1 -6 -4 1 o 31.107 15.115 180.00 0.93497 0.03
2 -5 -7 2 o 0.000 0.615 180.00 0.90543 0.00
1 3 -10 1 o 1.450 0.691 0.00 0.91060 0.00
2 3 7 2 o 1.743 1.273 0.00 0.92950 0.00
3 -5 -7 2 o 0.002 0.109 0.00 0.89869 0.00
2 -1 9 1 o 3.298 2.467 0.00 0.92307 0.00
2 5 4 2 o 17.397 8.529 0.00 0.92511 0.01
7 0 -1 1 o 0.738 0.185 180.00 0.91417 0.00
0 5 6 2 o 0.050 0.020 180.00 0.92435 0.00
1 -2 -10 1 o -0.017 1.056 0.00 0.90388 0.00
0 1 10 1 o 4.184 0.905 0.00 0.91382 0.00
4 -6 0 1 o 0.443 0.813 0.00 0.93304 0.00
6 -3 2 1 o 4.903 7.408 0.00 0.93281 0.01
4 -6 1 1 o 4.036 3.532 180.00 0.92184 0.00
6 2 -7 2 o -0.140 4.460 0.00 0.90816 0.00
5 0 5 1 o 6.147 3.543 180.00 0.92477 0.01
7 1 -4 1 o -0.688 16.846 0.00 0.90244 0.00
5 0 -10 2 o -0.114 1.610 180.00 0.88330 0.00
4 -6 -3 1 o 10.356 2.761 0.00 0.91267 0.01
6 -1 -9 1 o -0.028 0.554 0.00 0.87057 0.00
4 5 -5 1 o 4.671 6.173 0.00 0.90764 0.01
2 -2 9 1 o 19.033 6.161 0.00 0.91238 0.02
7 -3 -3 2 o -0.002 0.223 0.00 0.89583 0.00
3 -2 8 2 o 9.512 3.105 0.00 0.91793 0.00
3 3 6 1 o 5.976 1.294 180.00 0.91650 0.01
5 -1 -10 2 o -0.008 0.122 0.00 0.87550 0.00
3 -6 4 2 o -0.776 19.352 180.00 0.90263 0.00
6 1 2 2 o 0.240 0.131 0.00 0.92560 0.00
7 -3 -2 1 o -0.065 1.280 180.00 0.89552 0.00
5 2 -9 1 o -0.114 1.436 0.00 0.90062 0.00
6 -4 -6 2 o -0.007 0.028 0.00 0.88190 0.00
4 -6 -2 2 o 0.001 0.002 180.00 0.92825 0.00
1 3 8 2 o 54.894 10.533 0.00 0.92113 0.02
7 -3 -4 2 o -0.028 0.934 0.00 0.88810 0.00
4 -6 -1 2 o 1.011 0.131 0.00 0.93524 0.00
7 1 -3 1 o -0.024 0.345 0.00 0.90491 0.00
1 -6 -4 2 o 131.272 15.115 180.00 0.93497 0.06
3 5 -7 2 o -0.039 2.497 180.00 0.90590 0.00
2 3 -10 1 o 2.656 1.606 180.00 0.90954 0.00
1 3 -10 2 o 0.001 0.691 0.00 0.91060 0.00
2 5 -8 1 o -0.001 0.048 180.00 0.89433 0.00
2 -1 9 2 o 9.388 2.467 0.00 0.92307 0.00
4 5 0 1 o -0.004 0.006 180.00 0.90480 0.00
6 0 -9 1 o -0.034 1.778 180.00 0.87423 0.00
5 -3 -9 1 o -0.006 0.076 180.00 0.86751 0.00
7 0 -1 2 o 0.209 0.185 180.00 0.91417 0.00
1 -7 1 1 o -0.001 0.006 0.00 0.89964 0.00
5 -4 4 1 o 5.756 4.169 0.00 0.90900 0.01
6 -3 -8 1 o 0.002 0.069 180.00 0.85994 0.00
2 4 6 1 o 11.142 2.751 0.00 0.91298 0.01
0 1 10 2 o 0.881 0.905 0.00 0.91382 0.00
4 -6 0 2 o 1.608 0.813 0.00 0.93304 0.00
6 -3 2 2 o 8.102 7.408 0.00 0.93281 0.01
1 -2 -10 2 o -0.017 1.056 0.00 0.90388 0.00
6 2 1 1 o 26.980 7.500 0.00 0.91252 0.04
2 2 8 1 o 0.058 0.039 0.00 0.91970 0.00
5 -5 2 1 o 0.153 0.026 0.00 0.91618 0.00
1 -7 2 1 o -0.084 1.282 180.00 0.89336 0.00
4 3 -9 1 o 12.719 4.220 180.00 0.91163 0.02
4 -6 1 2 o 17.365 3.532 180.00 0.92184 0.01
7 1 -5 1 o -0.083 3.762 0.00 0.89183 0.00
5 0 5 2 o 7.092 3.543 180.00 0.92477 0.00
7 -3 -5 1 o -0.058 1.261 180.00 0.87292 0.00
7 1 -4 2 o -0.688 16.846 0.00 0.90244 0.00
6 -1 3 1 o 1.145 0.436 0.00 0.92595 0.00
4 -6 -3 2 o 1.434 2.761 0.00 0.91267 0.00
1 4 7 1 o 0.502 0.185 0.00 0.91149 0.00
4 5 -5 2 o -0.315 6.173 0.00 0.90764 0.00
6 -1 -9 2 o -0.028 0.554 0.00 0.87057 0.00
2 -2 9 2 o 2.146 6.161 0.00 0.91238 0.00
3 6 -3 1 o -0.055 2.249 0.00 0.89185 0.00
3 3 6 2 o 3.269 1.294 180.00 0.91650 0.00
3 0 -11 1 o 0.013 0.555 0.00 0.88473 0.00
5 4 0 1 o 0.141 1.873 180.00 0.90603 0.00
7 -3 -2 2 o -0.065 1.280 180.00 0.89552 0.00
4 -1 7 1 o 20.822 10.492 180.00 0.91000 0.02
5 2 -9 2 o -0.114 1.436 0.00 0.90062 0.00
3 2 7 1 o 6.896 1.433 180.00 0.91360 0.01
1 6 3 1 o 3.681 2.073 0.00 0.90962 0.00
4 4 3 1 o -0.067 2.265 180.00 0.90512 0.00
7 -1 0 1 o -0.017 0.940 180.00 0.90422 0.00
7 1 -3 2 o -0.024 0.345 0.00 0.90491 0.00
4 -4 6 1 o -0.023 0.506 180.00 0.89499 0.00
2 3 -10 2 o -0.066 1.606 180.00 0.90954 0.00
5 4 -5 1 o 0.197 0.103 180.00 0.92049 0.00
7 -1 -7 1 o -0.006 0.065 0.00 0.86944 0.00
2 5 -8 2 o -0.001 0.048 180.00 0.89433 0.00
0 7 -2 1 o -0.216 4.914 180.00 0.88920 0.00
5 -3 5 1 o -0.156 2.585 0.00 0.90379 0.00
4 5 0 2 o -0.004 0.006 180.00 0.90480 0.00
5 -4 4 2 o -0.126 4.169 0.00 0.90900 0.00
1 -7 1 2 o -0.001 0.006 0.00 0.89964 0.00
6 0 -9 2 o -0.034 1.778 180.00 0.87423 0.00
6 -4 1 1 o 32.737 5.967 0.00 0.91416 0.04
5 -3 -9 2 o -0.006 0.076 180.00 0.86751 0.00
5 -4 -8 1 o -0.020 0.703 0.00 0.86224 0.00
2 4 6 2 o 1.694 2.751 0.00 0.91298 0.00
6 2 1 2 o 3.265 7.500 0.00 0.91252 0.00
4 -2 7 1 o 0.002 0.036 0.00 0.90296 0.00
2 2 8 2 o 0.183 0.039 0.00 0.91970 0.00
3 6 -2 1 o -0.017 2.748 0.00 0.89346 0.00
6 -3 -8 2 o 0.002 0.069 180.00 0.85994 0.00
5 -5 2 2 o 0.070 0.026 0.00 0.91618 0.00
4 3 -9 2 o 0.532 4.220 180.00 0.91163 0.00
4 -6 2 1 o -0.043 0.679 0.00 0.90259 0.00
1 -7 2 2 o -0.084 1.282 180.00 0.89336 0.00
4 2 -10 1 o 0.001 0.006 180.00 0.89683 0.00
7 1 -5 2 o -0.083 3.762 0.00 0.89183 0.00
1 -7 0 1 o -0.005 0.126 180.00 0.89775 0.00
6 -1 3 2 o 1.198 0.436 0.00 0.92595 0.00
2 0 -11 1 o -0.089 2.804 180.00 0.89164 0.00
4 -5 -7 1 o -0.011 0.455 180.00 0.87447 0.00
1 -5 8 1 o -0.071 0.809 0.00 0.88132 0.00
1 4 7 2 o 0.029 0.185 0.00 0.91149 0.00
4 2 -10 2 o 0.001 0.006 180.00 0.89683 0.00
7 -3 -5 2 o -0.058 1.261 180.00 0.87292 0.00
2 6 -6 1 o 0.012 0.062 180.00 0.88075 0.00
1 2 9 1 o -0.271 7.959 0.00 0.90514 0.00
0 7 -1 1 o -0.377 11.450 180.00 0.89189 0.00
3 6 -3 2 o -0.055 2.249 0.00 0.89185 0.00
6 -2 3 1 o -0.096 1.613 0.00 0.91900 0.00
3 0 -11 2 o 0.013 0.555 0.00 0.88473 0.00
5 -5 -6 1 o -0.076 2.700 0.00 0.87324 0.00
5 4 0 2 o -0.100 1.873 180.00 0.90603 0.00
4 -1 7 2 o -0.455 10.492 180.00 0.91000 0.00
3 2 7 2 o 1.230 1.433 180.00 0.91360 0.00
6 3 -3 1 o 0.003 0.000 180.00 0.91567 0.00
7 1 -2 1 o -0.028 0.698 0.00 0.89906 0.00
6 3 -2 1 o 6.074 2.608 180.00 0.91047 0.01
1 6 3 2 o -0.048 2.073 0.00 0.90962 0.00
3 -3 8 1 o -0.101 1.820 180.00 0.89016 0.00
1 -7 3 1 o -0.020 0.217 180.00 0.87938 0.00
3 0 8 1 o 2.217 0.401 180.00 0.91587 0.00
4 4 3 2 o -0.067 2.265 180.00 0.90512 0.00
7 -1 0 2 o -0.017 0.940 180.00 0.90422 0.00
2 -6 -5 1 o -0.141 3.096 180.00 0.89894 0.00
0 7 -3 1 o -0.014 0.100 180.00 0.87874 0.00
5 4 -5 2 o 0.646 0.103 180.00 0.92049 0.00
4 -4 6 2 o -0.023 0.506 180.00 0.89499 0.00
1 -4 9 1 o -0.008 0.128 0.00 0.88402 0.00
1 -5 -7 1 o -0.002 0.074 0.00 0.89349 0.00
5 -3 5 2 o -0.156 2.585 0.00 0.90379 0.00
6 -2 -9 1 o -0.063 2.501 180.00 0.85051 0.00
7 -1 -7 2 o -0.006 0.065 0.00 0.86944 0.00
0 7 -2 2 o -0.216 4.914 180.00 0.88920 0.00
0 3 9 1 o -0.210 5.616 0.00 0.89304 0.00
6 -4 1 2 o 6.279 5.967 0.00 0.91416 0.00
0 3 -10 1 o -0.061 4.001 180.00 0.89287 0.00
3 -1 -11 1 o -0.046 1.683 180.00 0.87020 0.00
4 -2 7 2 o 0.002 0.036 0.00 0.90296 0.00
7 -3 -1 1 o -0.087 1.702 180.00 0.88718 0.00
5 -4 -8 2 o -0.020 0.703 0.00 0.86224 0.00
7 -2 0 1 o -0.014 0.666 0.00 0.89660 0.00
3 6 -2 2 o -0.017 2.748 0.00 0.89346 0.00
3 6 -4 1 o -0.035 0.955 0.00 0.88235 0.00
4 -6 2 2 o -0.043 0.679 0.00 0.90259 0.00
3 -3 -10 1 o 0.001 0.075 180.00 0.86308 0.00
2 1 -11 1 o -0.095 1.798 0.00 0.89137 0.00
6 0 3 1 o 15.663 3.657 180.00 0.91266 0.02
6 3 -4 1 o 0.288 0.079 0.00 0.91223 0.00
1 -7 0 2 o -0.005 0.126 180.00 0.89775 0.00
2 0 -11 2 o -0.089 2.804 180.00 0.89164 0.00
3 6 -1 1 o -0.049 3.663 0.00 0.88707 0.00
5 2 4 1 o -0.054 0.521 0.00 0.90037 0.00
4 -5 -7 2 o -0.011 0.455 180.00 0.87447 0.00
1 -5 8 2 o -0.071 0.809 0.00 0.88132 0.00
5 3 -8 1 o -0.130 2.843 180.00 0.89903 0.00
0 7 0 1 o 0.007 0.071 180.00 0.88659 0.00
1 2 9 2 o -0.271 7.959 0.00 0.90514 0.00
2 0 9 1 o 40.670 8.199 0.00 0.91367 0.04
2 6 -6 2 o 0.012 0.062 180.00 0.88075 0.00
0 7 -1 2 o -0.377 11.450 180.00 0.89189 0.00
7 0 -7 1 o 0.008 0.091 0.00 0.86792 0.00
6 -2 3 2 o 7.737 1.613 0.00 0.91900 0.00
0 4 8 1 o -0.002 0.076 180.00 0.89026 0.00
5 -5 -6 2 o -0.076 2.700 0.00 0.87324 0.00
5 1 -10 1 o -0.074 1.766 180.00 0.87348 0.00
7 -2 -7 1 o -0.047 0.954 0.00 0.85431 0.00
3 5 3 1 o -0.016 0.572 0.00 0.89486 0.00
4 -6 -4 1 o -0.017 2.541 0.00 0.88975 0.00
3 4 5 1 o -0.187 5.630 0.00 0.89443 0.00
6 3 -3 2 o 0.001 0.000 180.00 0.91567 0.00
6 3 -2 2 o -0.091 2.608 180.00 0.91047 0.00
7 1 -2 2 o -0.028 0.698 0.00 0.89906 0.00
3 0 8 2 o 0.830 0.401 180.00 0.91587 0.00
3 -3 8 2 o -0.101 1.820 180.00 0.89016 0.00
1 -7 3 2 o -0.020 0.217 180.00 0.87938 0.00
3 5 3 2 o -0.016 0.572 0.00 0.89486 0.00
2 -6 -5 2 o -0.141 3.096 180.00 0.89894 0.00
2 6 2 1 o -0.060 1.341 0.00 0.88919 0.00
2 -7 1 1 o -0.008 0.084 0.00 0.88906 0.00
0 7 -3 2 o -0.014 0.100 180.00 0.87874 0.00
1 -4 9 2 o -0.008 0.128 0.00 0.88402 0.00
3 -6 -5 1 o -0.331 8.596 180.00 0.88827 0.00
2 -6 6 1 o -0.036 1.470 180.00 0.86718 0.00
2 -3 9 1 o -0.004 0.539 180.00 0.88358 0.00
1 -5 -7 2 o -0.002 0.074 0.00 0.89349 0.00
4 4 -8 1 o -0.007 0.083 0.00 0.89610 0.00
4 -5 5 1 o -0.013 0.474 0.00 0.88331 0.00
0 6 -7 1 o -0.085 2.130 0.00 0.86651 0.00
0 3 9 2 o -0.210 5.616 0.00 0.89304 0.00
6 -2 -9 2 o -0.063 2.501 180.00 0.85051 0.00
0 6 4 1 o 0.900 0.257 180.00 0.91038 0.00
0 3 -10 2 o -0.061 4.001 180.00 0.89287 0.00
3 1 -11 1 o -0.024 0.240 180.00 0.88166 0.00
3 -4 -9 1 o -0.238 6.016 180.00 0.86500 0.00
3 -1 -11 2 o -0.046 1.683 180.00 0.87020 0.00
7 -3 -1 2 o -0.087 1.702 180.00 0.88718 0.00
7 -2 0 2 o -0.014 0.666 0.00 0.89660 0.00
5 -2 -10 1 o -0.018 0.142 180.00 0.85141 0.00
7 -3 -6 1 o -0.008 0.190 0.00 0.85141 0.00
3 6 -4 2 o -0.035 0.955 0.00 0.88235 0.00
1 -1 10 1 o -0.017 1.086 0.00 0.89878 0.00
6 0 3 2 o 1.471 3.657 180.00 0.91266 0.00
3 4 -9 1 o -0.084 2.475 180.00 0.89071 0.00
6 3 -4 2 o 0.013 0.079 0.00 0.91223 0.00
2 1 -11 2 o -0.095 1.798 0.00 0.89137 0.00
3 -3 -10 2 o 0.001 0.075 180.00 0.86308 0.00
5 2 4 2 o -0.054 0.521 0.00 0.90037 0.00
3 6 -1 2 o -0.049 3.663 0.00 0.88707 0.00
1 6 -7 1 o -0.006 0.026 180.00 0.86469 0.00
2 -7 0 1 o -0.220 4.277 0.00 0.89068 0.00
3 3 -10 1 o -0.019 2.004 0.00 0.88988 0.00
5 3 -8 2 o -0.130 2.843 180.00 0.89903 0.00
2 0 9 2 o 5.217 8.199 0.00 0.91367 0.00
4 0 7 1 o -0.035 0.384 180.00 0.89781 0.00
0 7 0 2 o 0.007 0.071 180.00 0.88659 0.00
6 -5 -2 1 o -0.386 10.123 180.00 0.88008 0.00
7 0 -7 2 o 0.008 0.091 0.00 0.86792 0.00
6 3 -1 1 o -0.012 1.204 180.00 0.89706 0.00
6 -5 -3 1 o -0.070 2.674 180.00 0.87451 0.00
7 0 0 1 o -0.015 0.341 180.00 0.89295 0.00
7 1 -6 1 o -0.017 0.127 180.00 0.87391 0.00
0 4 8 2 o -0.002 0.076 180.00 0.89026 0.00
2 -1 -11 1 o -0.126 3.012 180.00 0.87404 0.00
5 1 -10 2 o -0.074 1.766 180.00 0.87348 0.00
4 -6 -4 2 o -0.017 2.541 0.00 0.88975 0.00
7 -2 -7 2 o -0.047 0.954 0.00 0.85431 0.00
3 4 5 2 o -0.187 5.630 0.00 0.89443 0.00
2 -7 2 1 o -0.009 0.545 0.00 0.87962 0.00
4 5 -6 1 o -0.018 0.206 0.00 0.88375 0.00
4 0 -11 1 o -0.127 3.516 0.00 0.86115 0.00
6 -4 -7 1 o -0.271 4.864 0.00 0.84843 0.00
2 6 2 2 o -0.060 1.341 0.00 0.88919 0.00
6 1 -9 1 o -0.001 0.313 180.00 0.86088 0.00
2 -7 1 2 o -0.008 0.084 0.00 0.88906 0.00
2 -4 -9 1 o -0.057 0.654 0.00 0.86722 0.00
3 -6 -5 2 o -0.331 8.596 180.00 0.88827 0.00
1 -2 10 1 o -0.075 0.936 0.00 0.88737 0.00
2 -6 6 2 o -0.036 1.470 180.00 0.86718 0.00
2 -3 9 2 o -0.004 0.539 180.00 0.88358 0.00
4 4 -8 2 o -0.007 0.083 0.00 0.89610 0.00
4 -5 5 2 o -0.013 0.474 0.00 0.88331 0.00
0 6 4 2 o 0.001 0.257 180.00 0.91038 0.00
0 7 -4 1 o -0.004 0.189 0.00 0.86130 0.00
0 6 -7 2 o -0.085 2.130 0.00 0.86651 0.00
3 1 -11 2 o -0.024 0.240 180.00 0.88166 0.00
3 -4 -9 2 o -0.238 6.016 180.00 0.86500 0.00
4 -4 -9 1 o 0.005 0.212 0.00 0.84682 0.00
7 1 -1 1 o -0.006 0.184 0.00 0.88534 0.00
4 -6 3 1 o -0.102 2.004 0.00 0.87674 0.00
1 -1 10 2 o -0.017 1.086 0.00 0.89878 0.00
1 0 -11 1 o -0.006 0.831 180.00 0.88070 0.00
3 4 -9 2 o -0.084 2.475 180.00 0.89071 0.00
5 -2 -10 2 o -0.018 0.142 180.00 0.85141 0.00
7 -3 -6 2 o -0.008 0.190 0.00 0.85141 0.00
6 3 -5 1 o -0.021 0.556 180.00 0.90044 0.00
2 -3 -10 1 o -0.005 0.044 0.00 0.86473 0.00
5 1 5 1 o -0.014 0.312 180.00 0.89269 0.00
2 -7 0 2 o -0.220 4.277 0.00 0.89068 0.00
3 3 -10 2 o -0.019 2.004 0.00 0.88988 0.00
1 6 -7 2 o -0.006 0.026 180.00 0.86469 0.00
4 -3 -10 1 o -0.053 0.671 180.00 0.84552 0.00
4 0 7 2 o -0.035 0.384 180.00 0.89781 0.00
3 -6 5 1 o -0.062 1.920 180.00 0.86506 0.00
4 3 5 1 o -0.037 0.716 180.00 0.88466 0.00
5 -5 3 1 o -0.003 0.037 0.00 0.88445 0.00
6 -5 -2 2 o -0.386 10.123 180.00 0.88008 0.00
4 5 1 1 o -0.042 0.415 180.00 0.88009 0.00
6 3 -1 2 o -0.012 1.204 180.00 0.89706 0.00
5 3 3 1 o -0.025 0.769 0.00 0.88413 0.00
6 -5 -3 2 o -0.070 2.674 180.00 0.87451 0.00
4 2 6 1 o -0.023 0.701 180.00 0.88801 0.00
7 0 0 2 o -0.015 0.341 180.00 0.89295 0.00
7 1 -6 2 o -0.017 0.127 180.00 0.87391 0.00
1 -6 -5 1 o -0.130 5.748 180.00 0.89130 0.00
1 1 -11 1 o -0.101 2.301 180.00 0.88323 0.00
2 -1 -11 2 o -0.126 3.012 180.00 0.87404 0.00
1 -7 -1 1 o -0.007 0.079 0.00 0.88783 0.00
2 -7 2 2 o -0.009 0.545 0.00 0.87962 0.00
4 -1 -11 1 o -0.031 0.192 180.00 0.85023 0.00
4 5 -6 2 o -0.018 0.206 0.00 0.88375 0.00
4 0 -11 2 o -0.127 3.516 0.00 0.86115 0.00
4 -3 7 1 o 0.022 0.546 0.00 0.87796 0.00
6 -4 -7 2 o -0.271 4.864 0.00 0.84843 0.00
6 1 -9 2 o -0.001 0.313 180.00 0.86088 0.00
6 -5 -4 1 o -0.018 1.551 180.00 0.86169 0.00
2 -4 -9 2 o -0.057 0.654 0.00 0.86722 0.00
3 6 0 1 o -0.120 5.441 0.00 0.87316 0.00
1 -2 10 2 o -0.075 0.936 0.00 0.88737 0.00
6 2 -8 1 o -0.005 0.055 180.00 0.87172 0.00
1 7 -2 1 o 0.007 0.169 180.00 0.86787 0.00
0 7 -4 2 o -0.004 0.189 0.00 0.86130 0.00
1 7 -1 1 o 0.001 0.009 180.00 0.86714 0.00
5 4 -6 1 o 0.358 0.100 180.00 0.89779 0.00
1 7 -3 1 o -0.053 2.032 180.00 0.86126 0.00
7 1 -1 2 o -0.006 0.184 0.00 0.88534 0.00
4 -6 3 2 o -0.102 2.004 0.00 0.87674 0.00
4 -4 -9 2 o 0.005 0.212 0.00 0.84682 0.00
1 0 -11 2 o -0.006 0.831 180.00 0.88070 0.00
6 3 -5 2 o -0.021 0.556 180.00 0.90044 0.00
3 6 -5 1 o -0.075 2.203 0.00 0.86569 0.00
5 1 5 2 o -0.014 0.312 180.00 0.89269 0.00
2 -3 -10 2 o -0.005 0.044 0.00 0.86473 0.00
5 4 1 1 o -0.012 0.503 180.00 0.87916 0.00
4 3 5 2 o -0.037 0.716 180.00 0.88466 0.00
5 -5 3 2 o -0.003 0.037 0.00 0.88445 0.00
3 -6 5 2 o -0.062 1.920 180.00 0.86506 0.00
4 -3 -10 2 o -0.053 0.671 180.00 0.84552 0.00
4 5 1 2 o -0.042 0.415 180.00 0.88009 0.00
5 3 3 2 o -0.025 0.769 0.00 0.88413 0.00
4 2 6 2 o -0.023 0.701 180.00 0.88801 0.00
6 -5 -1 1 o -0.010 0.181 0.00 0.87798 0.00
1 -6 -5 2 o -0.130 5.748 180.00 0.89130 0.00
1 -7 4 2 o -0.014 0.628 0.00 0.85877 0.00
1 1 -11 2 o -0.101 2.301 180.00 0.88323 0.00
1 -7 -1 2 o -0.007 0.079 0.00 0.88783 0.00
1 -7 4 1 o -0.014 0.628 0.00 0.85877 0.00
0 2 10 1 o -0.063 0.929 0.00 0.87267 0.00
4 -1 -11 2 o -0.031 0.192 180.00 0.85023 0.00
1 -6 7 1 o -0.256 7.185 0.00 0.85204 0.00
2 -7 3 1 o -0.014 0.544 0.00 0.86309 0.00
4 -3 7 2 o 0.022 0.546 0.00 0.87796 0.00
3 6 0 2 o -0.120 5.441 0.00 0.87316 0.00
6 -5 -4 2 o -0.018 1.551 180.00 0.86169 0.00
1 0 10 1 o -0.230 5.684 0.00 0.89164 0.00
6 2 -8 2 o -0.005 0.055 180.00 0.87172 0.00
1 7 -2 2 o 0.007 0.169 180.00 0.86787 0.00
4 1 -11 1 o -0.008 0.064 180.00 0.85575 0.00
6 -3 3 1 o -0.184 8.404 0.00 0.89312 0.00
4 -6 -5 1 o -0.053 3.294 0.00 0.86115 0.00
5 4 -6 2 o -0.004 0.100 180.00 0.89779 0.00
1 7 -1 2 o 0.001 0.009 180.00 0.86714 0.00
1 7 -3 2 o -0.053 2.032 180.00 0.86126 0.00
1 5 6 1 o -0.058 1.222 180.00 0.87850 0.00
6 3 -6 1 o -0.002 0.008 0.00 0.88122 0.00
6 1 3 1 o -0.059 3.461 180.00 0.88157 0.00
3 6 -5 2 o -0.075 2.203 0.00 0.86569 0.00
2 2 -11 1 o 0.013 0.418 0.00 0.87327 0.00
5 4 1 2 o -0.012 0.503 180.00 0.87916 0.00
0 7 1 1 o 0.111 1.437 0.00 0.87373 0.00
6 -5 -1 2 o -0.010 0.181 0.00 0.87798 0.00
3 5 -8 1 o -0.282 8.261 180.00 0.86379 0.00
6 3 0 1 o -0.319 9.911 180.00 0.87649 0.00
6 2 2 1 o -0.047 0.998 180.00 0.87655 0.00
1 7 -4 1 o -0.017 1.081 180.00 0.84780 0.00
3 -2 -11 1 o -0.058 1.583 0.00 0.84051 0.00
7 -3 0 1 o -0.044 1.243 180.00 0.87147 0.00
0 2 10 2 o -0.063 0.929 0.00 0.87267 0.00
1 5 -9 1 o 0.003 0.071 0.00 0.85264 0.00
1 -6 7 2 o -0.256 7.185 0.00 0.85204 0.00
2 -7 3 2 o -0.014 0.544 0.00 0.86309 0.00
3 -5 -8 1 o -0.050 1.087 0.00 0.84589 0.00
3 1 8 1 o -0.003 0.024 180.00 0.88640 0.00
1 0 10 2 o -0.230 5.684 0.00 0.89164 0.00
6 -3 3 2 o -0.184 8.404 0.00 0.89312 0.00
4 1 -11 2 o -0.008 0.064 180.00 0.85575 0.00
7 -4 -3 1 o 0.000 0.033 0.00 0.85061 0.00
1 -1 -11 1 o -0.028 1.349 180.00 0.86111 0.00
7 -1 1 1 o -0.015 0.059 0.00 0.87722 0.00
7 1 -7 1 o 0.001 0.066 0.00 0.84999 0.00
4 -6 -5 2 o -0.053 3.294 0.00 0.86115 0.00
2 5 5 1 o -0.085 4.085 0.00 0.87402 0.00
5 -6 -2 1 o -0.122 4.758 180.00 0.86961 0.00
6 3 -6 2 o -0.002 0.008 0.00 0.88122 0.00
1 5 6 2 o 0.562 1.222 180.00 0.87850 0.00
2 -7 -1 1 o -0.076 2.252 0.00 0.88437 0.00
6 1 3 2 o -0.059 3.461 180.00 0.88157 0.00
2 1 9 1 o 0.000 0.000 0.00 0.88593 0.00
6 -4 2 1 o -0.100 2.311 0.00 0.88576 0.00
1 2 -11 1 o 0.003 0.425 180.00 0.86827 0.00
2 2 -11 2 o 0.013 0.418 0.00 0.87327 0.00
7 -4 -4 1 o -0.127 3.268 180.00 0.84284 0.00
1 -3 10 1 o -0.033 0.673 0.00 0.85942 0.00
0 7 1 2 o -0.112 1.437 0.00 0.87373 0.00
6 -5 -5 1 o 0.013 0.502 180.00 0.84256 0.00
5 -1 6 1 o -0.018 0.921 0.00 0.87509 0.00
3 -5 7 1 o 0.004 0.962 180.00 0.84896 0.00
1 7 0 1 o -0.003 0.059 0.00 0.85914 0.00
6 3 0 2 o -0.319 9.911 180.00 0.87649 0.00
6 2 2 2 o -0.047 0.998 180.00 0.87655 0.00
3 5 -8 2 o -0.282 8.261 180.00 0.86379 0.00
1 -4 -9 1 o -0.008 0.246 180.00 0.85311 0.00
1 4 -10 1 o -0.083 1.369 180.00 0.85807 0.00
1 7 -4 2 o -0.017 1.081 180.00 0.84780 0.00
7 -3 0 2 o -0.044 1.243 180.00 0.87147 0.00
5 -2 6 1 o -0.098 1.670 180.00 0.87026 0.00
3 2 -11 1 o -0.283 5.296 180.00 0.86152 0.00
1 5 -9 2 o 0.003 0.071 0.00 0.85264 0.00
5 -4 5 1 o 0.015 1.489 0.00 0.86181 0.00
3 1 8 2 o -0.003 0.024 180.00 0.88640 0.00
7 -4 -2 1 o -0.146 4.238 0.00 0.85150 0.00
2 6 -7 1 o -0.018 0.077 0.00 0.84691 0.00
3 -5 -8 2 o -0.050 1.087 0.00 0.84589 0.00
0 5 7 1 o -0.121 1.846 180.00 0.86495 0.00
7 -1 1 2 o -0.015 0.059 0.00 0.87722 0.00
1 -1 -11 2 o -0.028 1.349 180.00 0.86111 0.00
7 -4 -3 2 o 0.000 0.033 0.00 0.85061 0.00
6 -5 0 1 o -0.238 5.743 0.00 0.86838 0.00
7 -2 1 1 o 0.004 0.051 0.00 0.87151 0.00
2 5 5 2 o -0.085 4.085 0.00 0.87402 0.00
7 1 -7 2 o 0.001 0.066 0.00 0.84999 0.00
5 -6 -2 2 o -0.122 4.758 180.00 0.86961 0.00
0 5 -9 1 o -0.073 1.965 0.00 0.84583 0.00
5 -6 -3 1 o 0.001 0.353 180.00 0.85987 0.00
1 -3 -10 1 o -0.120 3.758 180.00 0.85021 0.00
2 -7 -1 2 o -0.076 2.252 0.00 0.88437 0.00
2 1 9 2 o 0.000 0.000 0.00 0.88593 0.00
6 -4 2 2 o -0.100 2.311 0.00 0.88576 0.00
3 -6 -6 1 o -0.005 0.191 180.00 0.84965 0.00
1 2 -11 2 o 0.003 0.425 180.00 0.86827 0.00
2 -5 8 1 o -0.032 0.386 180.00 0.84448 0.00
7 2 -3 1 o 0.001 0.002 180.00 0.86233 0.00
1 6 4 1 o -0.055 2.267 0.00 0.87025 0.00
1 -3 10 2 o -0.033 0.673 0.00 0.85942 0.00
7 -2 1 2 o 0.004 0.051 0.00 0.87151 0.00
5 -1 6 2 o -0.018 0.921 0.00 0.87509 0.00
2 -5 -8 1 o -0.001 0.000 0.00 0.84848 0.00
3 -5 7 2 o 0.004 0.962 180.00 0.84896 0.00
5 -6 -1 1 o 1.307 1.152 180.00 0.87207 0.00
1 7 0 2 o -0.003 0.059 0.00 0.85914 0.00
7 2 -4 1 o -0.030 0.807 180.00 0.86139 0.00
3 -4 8 1 o -0.120 2.550 0.00 0.84845 0.00
3 -7 1 1 o 0.010 0.067 0.00 0.86196 0.00
1 -4 -9 2 o -0.008 0.246 180.00 0.85311 0.00
1 4 -10 2 o -0.083 1.369 180.00 0.85807 0.00
7 1 0 1 o -0.074 2.318 180.00 0.86480 0.00
4 1 7 1 o 0.002 0.130 180.00 0.86856 0.00
3 6 1 1 o -0.003 0.002 180.00 0.85276 0.00
5 -2 6 2 o -0.098 1.670 180.00 0.87026 0.00
3 2 -11 2 o -0.283 5.296 180.00 0.86152 0.00
2 -2 -11 1 o -0.053 3.292 180.00 0.84154 0.00
5 -4 5 2 o 0.015 1.489 0.00 0.86181 0.00
7 -4 -2 2 o -0.146 4.238 0.00 0.85150 0.00
1 1 10 1 o -0.009 0.029 180.00 0.86723 0.00
2 -6 -6 1 o -0.014 0.265 180.00 0.85587 0.00
6 -1 4 1 o -0.047 0.844 0.00 0.87673 0.00
2 6 -7 2 o -0.018 0.077 0.00 0.84691 0.00
0 5 7 2 o -0.121 1.846 180.00 0.86495 0.00
6 -5 0 2 o -0.238 5.743 0.00 0.86838 0.00
3 -7 0 1 o -0.102 3.952 0.00 0.86663 0.00
4 -6 4 1 o -0.015 0.865 180.00 0.84605 0.00
4 4 4 1 o -0.008 0.224 180.00 0.85925 0.00
0 4 -10 1 o -0.001 0.059 180.00 0.84564 0.00
0 5 -9 2 o -0.073 1.965 0.00 0.84583 0.00
5 -6 -3 2 o 0.001 0.353 180.00 0.85987 0.00
2 4 -10 1 o 0.003 0.076 0.00 0.85463 0.00
7 0 1 1 o -0.276 6.440 180.00 0.86570 0.00
2 -7 4 1 o -0.008 0.122 180.00 0.84064 0.00
4 5 -7 1 o 0.000 0.001 180.00 0.85450 0.00
1 -3 -10 2 o -0.120 3.758 180.00 0.85021 0.00
3 -7 2 1 o 0.002 0.124 0.00 0.85031 0.00
7 2 -5 1 o -0.032 0.767 0.00 0.85331 0.00
3 -6 -6 2 o -0.005 0.191 180.00 0.84965 0.00
1 6 4 2 o -0.055 2.267 0.00 0.87025 0.00
7 2 -3 2 o 0.001 0.002 180.00 0.86233 0.00
5 -6 -4 1 o -0.010 0.123 0.00 0.84357 0.00
2 5 -9 1 o -0.023 0.330 180.00 0.84380 0.00
5 2 -10 1 o -0.010 1.278 180.00 0.84771 0.00
2 -5 -8 2 o -0.001 0.000 0.00 0.84848 0.00
5 -6 -1 2 o 0.008 1.152 180.00 0.87207 0.00
7 2 -4 2 o -0.030 0.807 180.00 0.86139 0.00
5 2 -10 2 o -0.010 1.278 180.00 0.84771 0.00
3 -7 1 2 o 0.010 0.067 0.00 0.86196 0.00
3 -4 8 2 o -0.120 2.550 0.00 0.84845 0.00
3 6 -6 1 o -0.055 1.159 180.00 0.84307 0.00
7 1 0 2 o -0.074 2.318 180.00 0.86480 0.00
4 1 7 2 o 0.002 0.130 180.00 0.86856 0.00
2 6 3 1 o 0.000 0.000 0.00 0.85631 0.00
5 0 6 1 o -0.004 0.630 180.00 0.86283 0.00
3 6 1 2 o -0.003 0.002 180.00 0.85276 0.00
6 -2 4 1 o 0.637 0.316 0.00 0.87207 0.00
4 3 -10 1 o -0.106 4.005 180.00 0.85498 0.00
5 3 -9 1 o -0.225 4.911 180.00 0.85452 0.00
1 1 10 2 o -0.009 0.029 180.00 0.86723 0.00
6 -1 4 2 o 2.580 0.844 0.00 0.87673 0.00
2 -6 -6 2 o -0.014 0.265 180.00 0.85587 0.00
2 -4 9 1 o -0.005 0.019 0.00 0.84144 0.00
7 -4 -1 1 o 0.000 0.000 0.00 0.84546 0.00
2 3 8 1 o 0.011 0.140 0.00 0.85796 0.00
3 -7 0 2 o -0.102 3.952 0.00 0.86663 0.00
2 -7 -2 1 o 0.418 0.409 0.00 0.87061 0.00
4 5 2 1 o 0.001 0.279 0.00 0.85025 0.00
1 -7 -2 1 o 0.097 0.055 0.00 0.87064 0.00
4 -6 4 2 o -0.015 0.865 180.00 0.84605 0.00
4 4 4 2 o -0.008 0.224 180.00 0.85925 0.00
7 0 1 2 o -0.276 6.440 180.00 0.86570 0.00
0 4 -10 2 o -0.001 0.059 180.00 0.84564 0.00
2 4 -10 2 o 0.003 0.076 0.00 0.85463 0.00
4 5 -7 2 o 0.000 0.001 180.00 0.85450 0.00
5 4 -7 1 o -0.160 5.328 180.00 0.86915 0.00
3 -7 2 2 o 0.002 0.124 0.00 0.85031 0.00
5 -3 6 1 o -0.034 0.811 0.00 0.84915 0.00
6 3 -7 1 o -0.004 0.100 180.00 0.85599 0.00
7 2 -2 1 o 0.006 0.234 180.00 0.85607 0.00
7 2 -5 2 o -0.032 0.767 0.00 0.85331 0.00
5 -5 4 1 o -0.027 0.419 180.00 0.84877 0.00
3 5 4 1 o -0.051 0.880 0.00 0.85233 0.00
0 6 5 1 o 0.002 0.017 0.00 0.86670 0.00
0 1 -11 1 o 0.002 0.578 180.00 0.85863 0.00
5 4 2 1 o -0.166 4.653 180.00 0.84755 0.00
5 -6 0 1 o -0.005 1.785 180.00 0.86706 0.00
2 6 3 2 o 0.000 0.000 0.00 0.85631 0.00
6 -2 4 2 o -0.011 0.316 0.00 0.87207 0.00
5 0 6 2 o -0.004 0.630 180.00 0.86283 0.00
0 0 11 1 o -0.068 2.076 180.00 0.85376 0.00
4 3 -10 2 o -0.106 4.005 180.00 0.85498 0.00
0 7 2 1 o -0.094 3.294 180.00 0.85425 0.00
6 3 1 1 o -0.166 5.469 180.00 0.85022 0.00
5 3 -9 2 o -0.225 4.911 180.00 0.85452 0.00
0 1 -11 2 o 0.002 0.578 180.00 0.85863 0.00
6 0 4 1 o -0.010 0.209 0.00 0.86420 0.00
7 -4 -1 2 o 0.000 0.000 0.00 0.84546 0.00
2 3 8 2 o 0.011 0.140 0.00 0.85796 0.00
2 -7 -2 2 o -0.027 0.409 0.00 0.87061 0.00
1 -7 -2 2 o -0.007 0.055 0.00 0.87064 0.00
4 5 2 2 o 0.001 0.279 0.00 0.85025 0.00
3 -2 9 1 o -0.018 0.747 0.00 0.84469 0.00
5 5 -2 1 o -0.001 0.031 0.00 0.84461 0.00
5 4 -7 2 o -0.160 5.328 180.00 0.86915 0.00
5 5 -3 1 o -0.052 0.903 0.00 0.84805 0.00
1 7 1 1 o -0.102 2.535 180.00 0.84444 0.00
3 3 7 1 o -0.077 1.653 180.00 0.85165 0.00
5 -3 6 2 o -0.034 0.811 0.00 0.84915 0.00
3 -7 -1 1 o -0.439 13.067 0.00 0.86397 0.00
6 3 -7 2 o -0.004 0.100 180.00 0.85599 0.00
7 2 -2 2 o 0.006 0.234 180.00 0.85607 0.00
0 2 -11 1 o -0.055 1.028 180.00 0.84733 0.00
1 3 9 1 o -0.002 0.299 180.00 0.84743 0.00
5 -5 4 2 o -0.027 0.419 180.00 0.84877 0.00
2 4 7 1 o -0.022 0.969 180.00 0.85068 0.00
4 4 -9 1 o -0.088 2.195 180.00 0.85014 0.00
3 -1 9 1 o 0.013 0.233 0.00 0.85063 0.00
0 6 5 2 o 0.002 0.017 0.00 0.86670 0.00
3 5 4 2 o -0.051 0.880 0.00 0.85233 0.00
1 -6 -6 1 o 0.002 0.384 180.00 0.84628 0.00
5 4 2 2 o -0.166 4.653 180.00 0.84755 0.00
5 -6 0 2 o -0.005 1.785 180.00 0.86706 0.00
1 4 8 1 o 0.021 0.532 0.00 0.84557 0.00
0 0 11 2 o -0.068 2.076 180.00 0.85376 0.00
0 7 2 2 o -0.094 3.294 180.00 0.85425 0.00
6 3 1 2 o -0.166 5.469 180.00 0.85022 0.00
5 5 -4 1 o -0.003 0.326 0.00 0.84462 0.00
6 0 4 2 o -0.010 0.209 0.00 0.86420 0.00
5 2 5 1 o 0.001 1.315 180.00 0.84748 0.00
3 -2 9 2 o -0.018 0.747 0.00 0.84469 0.00
5 5 -2 2 o -0.001 0.031 0.00 0.84461 0.00
7 -3 1 1 o -0.026 0.256 0.00 0.84952 0.00
5 5 -3 2 o -0.052 0.903 0.00 0.84805 0.00
3 3 7 2 o -0.077 1.653 180.00 0.85165 0.00
3 -7 -1 2 o -0.439 13.067 0.00 0.86397 0.00
0 2 -11 2 o -0.055 1.028 180.00 0.84733 0.00
1 3 9 2 o -0.002 0.299 180.00 0.84743 0.00
2 4 7 2 o -0.022 0.969 180.00 0.85068 0.00
4 4 -9 2 o -0.088 2.195 180.00 0.85014 0.00
3 -1 9 2 o 0.013 0.233 0.00 0.85063 0.00
6 -3 4 1 o -0.040 1.912 0.00 0.85102 0.00
1 -6 -6 2 o 0.002 0.384 180.00 0.84628 0.00
7 -3 1 2 o -0.026 0.256 0.00 0.84952 0.00
5 -6 1 1 o -0.048 0.454 0.00 0.85496 0.00
2 3 -11 1 o 0.001 0.019 180.00 0.84039 0.00
6 -4 3 1 o -0.110 1.942 0.00 0.85273 0.00
1 4 8 2 o 0.021 0.532 0.00 0.84557 0.00
7 2 -1 1 o 0.009 0.500 180.00 0.84307 0.00
5 5 -4 2 o -0.003 0.326 0.00 0.84462 0.00
5 3 4 1 o -0.012 0.113 0.00 0.83942 0.00
3 4 6 1 o -0.033 0.517 180.00 0.83938 0.00
5 2 5 2 o 0.001 1.315 180.00 0.84748 0.00
3 -7 -2 1 o -0.009 1.893 0.00 0.85417 0.00
6 -5 1 1 o -0.026 0.508 180.00 0.85199 0.00
4 -1 8 1 o -0.009 0.475 180.00 0.84118 0.00
2 -1 10 1 o -0.049 0.946 0.00 0.84366 0.00
6 -3 4 2 o -0.040 1.912 0.00 0.85102 0.00
5 -6 1 2 o -0.048 0.454 0.00 0.85496 0.00
6 -4 3 2 o -0.110 1.942 0.00 0.85273 0.00
6 4 -3 1 o -0.098 3.467 0.00 0.84156 0.00
2 -7 -3 1 o -0.022 1.459 180.00 0.85042 0.00
3 2 8 1 o -0.020 0.703 0.00 0.84358 0.00
3 -7 -2 2 o -0.009 1.893 0.00 0.85417 0.00
6 -5 1 2 o -0.026 0.508 180.00 0.85199 0.00
2 2 9 1 o -0.002 0.016 180.00 0.84449 0.00
7 -1 2 1 o -0.010 0.613 180.00 0.84556 0.00
1 -7 -3 1 o -0.002 0.090 0.00 0.84743 0.00
2 -7 -3 2 o -0.022 1.459 180.00 0.85042 0.00
3 0 9 1 o 0.001 0.014 180.00 0.84083 0.00
7 -1 2 2 o -0.010 0.613 180.00 0.84556 0.00
1 -7 -3 2 o -0.002 0.090 0.00 0.84743 0.00
6 4 -4 1 o -0.265 6.336 0.00 0.84001 0.00
7 -2 2 1 o -0.038 0.949 0.00 0.84156 0.00
loop_
_publcif_info_datablock.id
_publcif_info_datablock.publ_exptl
_publcif_info_datablock.publ_geom
_publcif_info_datablock.structure
{f5d1667e-ac3d-4fb4-8d29-af62ab28acdc} y y y
loop_
_publcif_info_cif.paper_type
CE
loop_
_publcif_info_tables.block_id
_publcif_info_tables.reference_item
{f5d1667e-ac3d-4fb4-8d29-af62ab28acdc} '_publcif_info_datablock.publ_exptl'
