#------------------------------------------------------------------------------
#$Date: 2019-12-26 21:22:11 +0200 (Thu, 26 Dec 2019) $
#$Revision: 246100 $
#$URL: file:///home/coder/svn-repositories/cod/cif/2/31/17/2311742.cif $
#------------------------------------------------------------------------------
#
# This file is available in the Crystallography Open Database (COD),
# http://www.crystallography.net/. The original data for this entry
# were provided by IUCr Journals, http://journals.iucr.org/.
#
# The file may be used within the scientific community so long as
# proper attribution is given to the journal article from which the
# data were obtained.
#
data_2311742
loop_
_publ_author_name
'Ende, Martin'
'Effenberger, Herta'
'Miletich, Ronald'
_publ_section_title
;
 Evolution of the \a-BaMg(CO<sub>3</sub>)<sub>2</sub> low-temperature
 superstructure and the tricritical nature of its \a-\b phase transition.
;
_journal_issue                   'Pt 5'
_journal_name_full
'Acta crystallographica Section B, Structural science, crystal engineering and materials'
_journal_page_first              827
_journal_page_last               835
_journal_paper_doi               10.1107/S2052520617009295
_journal_volume                  73
_journal_year                    2017
_chemical_formula_sum            'C6 Ba3 Mg3 O18'
_chemical_formula_weight         845.01
_space_group_crystal_system      trigonal
_space_group_IT_number           167
_space_group_name_Hall           '-R 3 2"c'
_space_group_name_H-M_alt        'R -3 c :H'
_audit_creation_method           SHELXL-2014/7
_cell_angle_alpha                90
_cell_angle_beta                 90
_cell_angle_gamma                120
_cell_formula_units_Z            2
_cell_length_a                   5.00830(10)
_cell_length_b                   5.00830(10)
_cell_length_c                   33.3987(8)
_cell_measurement_reflns_used    9285
_cell_measurement_temperature    100(2)
_cell_measurement_theta_max      45
_cell_measurement_theta_min      1.5
_cell_volume                     725.51(3)
_computing_structure_refinement  'SHELXL-2014/7 (Sheldrick, 2014)'
_diffrn_ambient_temperature      100(2)
_diffrn_measured_fraction_theta_full 0.993
_diffrn_measured_fraction_theta_max 0.996
_diffrn_measurement_device_type  StoeStadiVari
_diffrn_radiation_type           MoK\a
_diffrn_radiation_wavelength     0.71073
_diffrn_reflns_av_R_equivalents  0.0296
_diffrn_reflns_av_unetI/netI     0.0130
_diffrn_reflns_Laue_measured_fraction_full 0.993
_diffrn_reflns_Laue_measured_fraction_max 0.996
_diffrn_reflns_limit_h_max       9
_diffrn_reflns_limit_h_min       -10
_diffrn_reflns_limit_k_max       9
_diffrn_reflns_limit_k_min       -10
_diffrn_reflns_limit_l_max       34
_diffrn_reflns_limit_l_min       -65
_diffrn_reflns_number            9285
_diffrn_reflns_point_group_measured_fraction_full 0.993
_diffrn_reflns_point_group_measured_fraction_max 0.996
_diffrn_reflns_theta_full        25.242
_diffrn_reflns_theta_max         45.577
_diffrn_reflns_theta_min         3.660
_exptl_absorpt_coefficient_mu    8.297
_exptl_absorpt_correction_T_max  0.8
_exptl_absorpt_correction_T_min  0.7
_exptl_absorpt_correction_type   numerical
_exptl_absorpt_process_details   '(Stoe & Cie GmbH 2016)'
_exptl_crystal_density_diffrn    3.868
_exptl_crystal_description       prismatic
_exptl_crystal_F_000             768
_exptl_crystal_size_max          0.060
_exptl_crystal_size_mid          0.030
_exptl_crystal_size_min          0.030
_refine_diff_density_max         0.542
_refine_diff_density_min         -0.577
_refine_diff_density_rms         0.124
_refine_ls_extinction_method     none
_refine_ls_goodness_of_fit_ref   1.012
_refine_ls_hydrogen_treatment    undef
_refine_ls_matrix_type           full
_refine_ls_number_parameters     17
_refine_ls_number_reflns         692
_refine_ls_number_restraints     0
_refine_ls_restrained_S_all      1.012
_refine_ls_R_factor_all          0.0178
_refine_ls_R_factor_gt           0.0099
_refine_ls_shift/su_max          0.000
_refine_ls_shift/su_mean         0.000
_refine_ls_structure_factor_coef Fsqd
_refine_ls_weighting_details
'w=1/[\s^2^(Fo^2^)+(0.0120P)^2^] where P=(Fo^2^+2Fc^2^)/3'
_refine_ls_weighting_scheme      calc
_refine_ls_wR_factor_gt          0.0199
_refine_ls_wR_factor_ref         0.0209
_reflns_Friedel_coverage         0.000
_reflns_number_gt                535
_reflns_number_total             692
_reflns_threshold_expression     'I > 2\s(I)'
_cod_data_source_file            xk5041sup1.cif
_cod_data_source_block           norse_100
_cod_original_sg_symbol_H-M      'R -3 c'
_cod_database_code               2311742
_shelx_shelxl_version_number     2014/7
_shelx_space_group_comment
;
The symmetry employed for this shelxl refinement is uniquely defined
by the following loop, which should always be used as a source of
symmetry information in preference to the above space-group names.
They are only intended as comments.
;
_shelx_estimated_absorpt_t_min   0.636
_shelx_estimated_absorpt_t_max   0.789
_shelx_res_file
;

    norse_100.res created by SHELXL-2014/7


TITL norse_100K_woo_a.res in R-3c
REM Old TITL norse_100k_woo in R-3c

REM SHELXT solution in R-3c
REM R1 0.027,  Rweak 0.000,  Alpha 0.038,  Orientation as input
REM Formula found by SHELXT:  C2 O6 Mg Ba

CELL  0.71073   5.0083   5.0083  33.3987   90.000   90.000  120.000
ZERR    2.000   0.0001   0.0001   0.0008    0.000    0.000    0.000
LATT  3
SYMM -Y, X-Y, Z
SYMM -X+Y, -X, Z
SYMM Y, X, 1/2-Z
SYMM X-Y, -Y, 1/2-Z
SYMM -X, -X+Y, 1/2-Z
SFAC C O MG BA
UNIT 12 36 6 6
L.S. 20
BOND $H
ACTA
SIZE 0.06 0.03 0.03
TEMP -173.15
LIST 4
FMAP 2
PLAN 20
REM EXTI    0.000013
WGHT    0.012000
FVAR       0.21657
BA1   4    0.000000    0.000000    0.250000    10.16667    0.00405    0.00405 =
         0.00603    0.00000    0.00000    0.00203
MG2   3    0.000000    0.000000    0.000000    10.16667    0.00406    0.00406 =
         0.00558    0.00000    0.00000    0.00203
O3    2    0.110204    0.817790    0.129279    11.00000    0.01177    0.00952 =
         0.01034   -0.00195   -0.00348    0.00851
C4    1    0.000000    0.000000    0.130425    10.33333    0.00497    0.00497 =
         0.00552    0.00000    0.00000    0.00248
HKLF 4

REM  norse_100K_woo_a.res in R-3c
REM R1 =  0.0099 for     535 Fo > 4sig(Fo)  and  0.0178 for all     692 data
REM     17 parameters refined using      0 restraints

END

WGHT      0.0120      0.0000

REM Highest difference peak  0.542,  deepest hole -0.577,  1-sigma level  0.124
Q1    1  -0.1290 -0.0568  0.1318  11.00000  0.05    0.54
Q2    1   0.0854  0.7800  0.1417  11.00000  0.05    0.49
Q3    1  -0.0147  0.6364  0.1378  11.00000  0.05    0.46
Q4    1  -0.0300  0.0929  0.2672  11.00000  0.05    0.42
Q5    1  -0.1247 -0.2958  0.2717  11.00000  0.05    0.37
Q6    1  -0.1099  0.5459  0.1486  11.00000  0.05    0.36
Q7    1  -0.1312  0.7237  0.1532  11.00000  0.05    0.35
Q8    1  -0.0395  0.7323  0.1089  11.00000  0.05    0.33
Q9    1  -0.0317  0.6164  0.0995  11.00000  0.05    0.32
Q10   1   0.3182  1.0994  0.1138  11.00000  0.05    0.32
Q11   1   0.2760  0.9079  0.1218  11.00000  0.05    0.31
Q12   1   0.3555  0.9628  0.1397  11.00000  0.05    0.31
Q13   1   0.0479  0.5643  0.1384  11.00000  0.05    0.31
Q14   1   0.1210  0.2505  0.2743  11.00000  0.05    0.29
Q15   1   0.3133  0.9881  0.1030  11.00000  0.05    0.29
Q16   1   0.1793  0.6918  0.1352  11.00000  0.05    0.29
Q17   1  -0.1408  0.7402  0.0997  11.00000  0.05    0.28
Q18   1  -0.1108  0.0289  0.1107  11.00000  0.05    0.28
Q19   1   0.0928  0.6078  0.1158  11.00000  0.05    0.28
Q20   1   0.3333  0.6667  0.1034  10.33333  0.05    0.25
;
_shelx_res_checksum              68761
_shelx_hkl_file
;
   0  -5  -7    3.68    6.41   0
   0  -5   5    4.17    7.51   0
   0  -4 -17    4.00    7.59   0
   0  -5  -1    1.67    7.42   0
   2  -3 -37    6.30    7.27   0
   0  -2 -19    2.49    7.22   0
   2  -2 -35   -3.64    7.76   0
   0  -4  13   -1.97    7.67   0
   2  -4 -36  631.46   14.66   0
   1  -4 -28 1048.85   16.82   0
   1  -3 -29   16.23    7.13   0
   1  -1  26 1247.85   26.91   0
   0  -4 -11    0.29    5.98   0
   0  -1 -14 1738.89   28.65   0
   1  -1 -25   -1.02    7.31   0
   1   1   0 3660.13   41.01   0
   0  -4  10  577.68   14.90   0
   0  -3 -15    0.08    7.20   0
   1   1  -3   61.30    8.29   0
   0  -2 -16 3362.92   32.22   0
   1  -6  13   22.69    7.10   0
   0  -2  17   -0.03    8.79   0
   1  -5 -21   27.40    6.45   0
   1  -2 -27   -1.78    6.93   0
   0  -4  -5    5.67    5.99   0
   0  -4   7   -0.35    6.57   0
   2  -3 -34  854.70   17.14   0
   0  -4  -2 1647.63   20.92   0
   0  -4   4 1868.78   23.01   0
   0  -3  15    3.59    6.59   0
   1  -6  10  676.91   14.21   0
   2  -4 -33   -2.08    6.60   0
   0  -3 -12 2286.89   24.36   0
   1  -3 -26  672.04   14.52   0
   1  -6  -2  436.29   11.45   0
   1  -6   4 1009.24   16.14   0
   1  -6   7    1.69    5.53   0
   1  -5 -18 1019.38   15.42   0
   0  -2 -13    2.13    5.28   0
   0  -1 -11    0.60    7.39   0
   1  -6   1   37.12    6.37   0
   0  -3  -9   -1.69    6.71   0
   1  -4 -22  487.20   11.52   0
   2  -2 -32  751.81   17.81   0
   2   1 -17   17.14    6.56   0
   0  -3  12 2668.18   32.33   0
   1  -5 -15   11.90    5.63   0
   0  -3  -6 2208.42   24.48   0
   0  -2 -10  200.43    9.35   0
   1  -5  18  500.10   13.91   0
   0  -3   9    4.82    5.58   0
   0   0   6 1473.68   55.56   0
   1  -5 -12 1400.97   17.46   0
   1  -2 -24 1967.61   24.73   0
   0  -3  -3   -1.62    5.26   0
   1  -4 -19   42.36    6.90   0
   2  -3 -31    9.02    6.30   0
   0  -3   0 2895.69   29.04   0
   1  -1 -22  521.60   16.74   0
   0  -1  -8 9713.05   69.12   0
   1  -5  -9   58.39    6.31   0
   3  -4 -35   10.87    7.07   0
   0  -2  -7    1.26    5.44   0
   0  -2  14  370.14   17.12   0
   1  -5  15   37.93    7.10   0
   1  -5  -6  495.19   11.76   0
  -3   4 -25    5.70    5.08   0
  -2  -1 -28 1717.65   23.15   0
  -3   3 -30  810.27   13.47   0
  -2   0 -29   -1.84    6.24   0
   0   0   9   -1.27    7.04   0
  -3  -1 -32 1291.70   20.54   0
  -3   1 -34  841.72   14.85   0
  -3   5 -14  515.33   12.71   0
  -2   3 -20 1748.39   21.06   0
  -2   2 -25    3.43    5.64   0
  -2   4  -9   -0.21    6.27   0
  -3   2 -32 1701.80   19.68   0
  -1  -2 -17   14.83    8.42   0
  -4   5 -24  958.93   15.24   0
  -4   6 -13    6.70    6.99   0
  -3   0 -33   -3.67    6.98   0
  -2   1 -27   -5.64    6.07   0
  -1   1 -17   -2.04    6.97   0
   0   0  12  271.62   13.21   0
  -1   0 -19   -1.25    5.56   0
  -3   3 -27   -2.85    7.06   0
  -3   5 -11    9.61    7.08   0
   0  -2  -1    0.44    7.81   0
  -4   6 -10  554.12   13.93   0
  -2   3 -17   23.08    6.50   0
  -4   5 -21   27.15    6.58   0
  -2   0 -26 1579.62   21.70   0
  -1   2  -9  104.14    9.35   0
  -3   2 -29   10.83    5.57   0
  -4  -2 -14  486.19   16.56   0
  -1  -1  -9   99.17   11.09   0
   0  -3  -3   -3.20    9.57   0
   2  -4  24 2145.94   39.91   0
   0  -2  -4 4999.72   51.47   0
   1  -5  12 1213.14   22.27   0
  -3  -3 -12 1047.57   20.61   0
  -2  -4  -7    0.95    8.23   0
   1  -3   4 3269.66   41.00   0
   2  -3  20 1588.84   44.60   0
  -3   3  -6 2106.73   39.54   0
  -2  -3 -11   17.20    8.50   0
  -1  -4  -6  504.12   14.76   0
   0  -5   2  544.21   15.67   0
   1  -5   9    5.55    9.03   0
  -4   1 -17    2.44    9.79   0
   1  -6  19   -1.91    8.95   0
  -4  -1 -18  503.71   16.87   0
  -3  -2 -16 2137.75   28.36   0
  -3  -1 -17    3.61    9.30   0
  -4  -2 -17    0.45    9.95   0
  -2  -4 -10  519.50   15.30   0
  -1  -2 -11   48.55    8.40   0
   2  -4  18 1268.99   28.91   0
   1  -6  16  853.58   18.63   0
   1   0  16 4933.80   59.23   0
  -3  -3 -15    6.99   10.07   0
   0  -3  -6 2245.75   29.74   0
   1  -2   3   62.52   10.78   0
  -1  -4  -9   46.42   10.24   0
   0  -5  -1    1.49    9.15   0
   1  -5   6 1109.99   20.22   0
   2  -3  17   18.22   12.29   0
  -4   0 -19    1.99    9.15   0
   0  -4  -5   -0.31    7.99   0
   0   1   8 9999.99   79.78   0
   1  -6  13   32.24    9.67   0
   1  -3   1   78.70    9.50   0
   2  -4  15    0.76    9.05   0
   0  -2  -7   -4.53    9.69   0
   1  -6  10  677.11   16.95   0
   1   0  19    1.37    8.18   0
   2  -5  19   20.68    9.52   0
  -2  -4 -13   -2.84    7.91   0
  -2  -1 -16 2268.55   32.91   0
   0  -5  -4 1549.50   22.49   0
   1  -5   3   53.62    8.90   0
  -3  -2 -19   18.70    9.83   0
  -1  -3 -13   17.11    8.67   0
   0  -1  -5   -1.05    9.86   0
   2  -5  16 2234.75   31.59   0
  -3  -3 -18  624.99   16.99   0
   1  -6   7    6.37    9.16   0
  -4  -1 -21   18.25   10.19   0
   0  -4  -8 1864.90   24.90   0
   1  -4  -1   54.18    9.01   0
  -1  -2 -14 1856.23   28.10   0
   0  -3  -9    1.02    8.34   0
  -3  -1 -20 1110.58   22.85   0
  -2  -2 -18 1357.83   23.48   0
   2  -5  13   -0.12    8.96   0
   2  -3  14 1834.00   42.21   0
   0   1  11   -0.91    7.77   0
  -2   2  -4 4702.12   66.13   0
   0  -5  -7   -0.71    7.71   0
   1  -6   4 1003.29   19.18   0
   1  -3  -2  777.50   19.51   0
   1  -2   0 3969.80   52.50   0
   2  -5  10  920.15   20.29   0
   2  -4   9    2.00    7.85   0
  -1  -4 -15    7.70    7.89   0
  -1  -3 -16 2474.22   28.85   0
   0  -4 -11    2.07    9.19   0
   1  -4  -4 1483.61   23.27   0
   2  -6  14  438.14   15.43   0
   1  -6   1   27.00    7.89   0
   1  -5  -3    5.70    7.52   0
  -4  -2 -23    2.49    9.29   0
  -3  -2 -22  423.13   14.24   0
   0  -2 -10  215.26   12.06   0
  -2  -3 -20  848.00   17.71   0
   0  -5 -10  928.10   17.42   0
   0  -3 -12 2237.87   28.36   0
   2  -5   7   27.69    9.09   0
  -2  -1 -19   -0.46    8.47   0
   2  -6  11   -4.26    8.23   0
   2  -3  11   47.67   11.14   0
  -1   0 -10 3729.18   63.09   0
   1  -6  -2  456.97   14.28   0
  -1  -2 -17   14.22    9.29   0
   1  -3  -5    6.48    8.95   0
  -2  -2 -21    4.22    7.89   0
   1  -5  -6  492.68   14.36   0
   2  -6   8 1163.61   20.76   0
  -1  -4 -18  966.84   18.77   0
   1  -4  -7   31.95    9.59   0
  -3  -1 -23   39.03    9.29   0
   0  -5 -13   -1.78    8.90   0
   0  -4 -14  455.98   13.74   0
   2  -5   4  943.10   19.61   0
  -1  -3 -19   37.79    8.24   0
  -4   3  -7   33.70    9.44   0
  -3   0 -21   -1.54    8.54   0
   2  -6   5   -0.64    8.51   0
  -2   0 -17   -0.59    6.95   0
  -3  -2 -25    2.25    8.56   0
  -2  -3 -23   17.47    8.15   0
   0  -3 -15    3.19    8.95   0
   0  -1  -8 9363.05   80.27   0
   2  -4   3    3.44    6.82   0
   2  -3   8 3607.08   50.34   0
   1  -5  -9   51.56    8.44   0
   2  -5   1    0.87    8.57   0
   0  -2 -13   -2.11    6.89   0
   1  -2  -3   67.78   10.10   0
   2  -6   2  759.40   17.09   0
   1  -3  -8 3575.61   37.26   0
  -1   1  -2 1843.90   56.64   0
   0  -5 -16  986.97   17.54   0
   0  -4 -17   -6.64    8.59   0
  -2  -2 -24 2343.98   29.12   0
  -2  -1 -22  542.62   16.83   0
   2  -6  -1    2.46    8.63   0
   2  -5  -2 1038.54   19.19   0
   1  -5 -12 1481.68   21.11   0
   2  -3   5   12.25    8.12   0
  -2  -3 -26  967.35   18.88   0
   0  -3 -18  679.65   16.74   0
  -3  -1 -26  849.01   19.94   0
   1  -4 -13   24.08    9.09   0
   2  -6  -4 1142.15   19.06   0
   0  -4 -20 1639.33   22.22   0
   1  -3 -11   33.89    8.08   0
   1  -5 -15   10.11    8.79   0
   0  -2 -16 3217.05   35.25   0
   1  -2  -6 1995.09   32.68   0
  -1  -3 -25    8.55    8.70   0
   2  -6  -7    4.20    7.29   0
  -2  -2 -27   -6.02    8.55   0
  -2   2   2 4970.11   51.69   0
  -1  -2 -23    8.46    7.45   0
   0  -1 -11   -1.57    9.50   0
  -3   0 -24 1315.21   27.44   0
   1  -4 -16 2534.35   27.39   0
   2  -5  -8 2620.66   28.01   0
   3  -6   9   25.68    9.02   0
  -2  -3 -29    3.83    8.94   0
   0  -3 -21    0.44    8.56   0
   2  -4  -6  933.15   19.40   0
  -2   0 -20 3917.36   48.68   0
   0  -4 -23   -4.28    7.28   0
   1  -5 -18 1023.30   17.96   0
   1  -1   5    1.65   15.83   0
   3  -5  14  471.15   17.46   0
  -2  -1 -25   15.99    9.08   0
   1  -3 -14 1783.95   25.33   0
   3  -6   6  644.09   16.89   0
   3  -5  11   17.22    9.32   0
   2  -5 -11   13.55    7.43   0
   3  -6   3    3.21    8.34   0
   3  -5   8 2644.16   33.99   0
  -3  -1 -29    5.25    8.07   0
   0  -2 -19    4.55    8.21   0
   1  -2  -9   96.98    9.80   0
  -3   1 -19    3.54   10.29   0
  -1  -3 -28  950.89   17.85   0
   1  -4 -19   37.07    7.98   0
   1  -1  23   -1.68    7.56   0
   2  -4  -9    2.86    7.23   0
  -1  -1 -21   39.50    7.18   0
   1  -5 -21   29.78    9.09   0
   3  -6   0 1374.42   21.65   0
   3  -5   5   22.85    8.42   0
  -3   2  -8 3405.85   60.45   0
  -2  -2 -30  296.22   12.46   0
  -1  -2 -26  680.41   16.75   0
  -1   1   1    1.14   10.17   0
   0  -3 -24 1923.99   24.22   0
   1  -3 -17   14.31    7.62   0
   2  -5 -14  516.32   13.48   0
   3  -5   2 1070.54   21.14   0
   2  -3  -4 3165.62   36.51   0
   3  -6  -3    8.24    8.09   0
   0  -1 -14 1741.89   30.62   0
   1  -1  20 1668.70   35.33   0
   1  -4 -22  474.33   13.85   0
   2  -4 -12  941.44   17.95   0
   3  -5  -1    7.84    8.09   0
  -2  -1 -28 1717.29   26.55   0
  -1  -3 -31   32.82    8.61   0
   1  -2 -12 4232.05   41.78   0
   3  -6  -6  629.37   15.34   0
   0  -2 -22 2224.61   27.66   0
   2  -5 -17    7.81    6.99   0
  -3   0 -27    0.14    7.69   0
   2  -3  -7   -1.98    6.42   0
   3  -5  -4  909.08   17.84   0
  -1  -2 -29   13.87    8.19   0
  -1   1   4 2452.36   43.02   0
   1  -1  17   -0.08    7.86   0
   2  -4 -15    0.24    7.00   0
   3  -6  -9   20.08    8.14   0
  -2  -2 -33    0.08    8.04   0
  -2   0 -23   -3.19    8.00   0
  -1  -1 -24 2053.09   28.89   0
   1  -4 -25    1.71    6.83   0
  -1   1   7   -0.54    8.55   0
   2  -5 -20  829.44   15.57   0
   3  -5  -7   28.77    8.24   0
  -2   1  -6 2041.62   37.26   0
   3   0 -15    0.04   11.12   0
  -3   2 -17   16.60   10.05   0
  -3   2  16 2171.91   69.37   0
  -5   4 -21   36.73   11.30   0
  -1   2 -33   20.91   11.39   0
  -2   1  -9   84.64   11.61   0
  -1   1  19    0.52   10.77   0
  -1   3 -40  673.77   20.45   0
  -3   2 -20 1702.66   27.57   0
  -3   3 -33   -5.52   10.90   0
  -2   1 -12 4050.04   46.76   0
  -2   3 -38  516.55   16.92   0
   0   1 -28 1708.46   34.06   0
   1   1 -30  824.77   28.84   0
  -4   3 -25  -13.76   10.68   0
   1   0  10 3788.02   50.02   0
   0   0  -6 1646.95   63.05   0
  -3   2 -23    7.34   10.32   0
  -2   2 -31   10.07   11.40   0
  -5   3  -5   18.56   10.79   0
  -5   3  -2 1037.79   22.87   0
  -2   1 -15   11.65    8.86   0
  -5   3   1    8.04   10.16   0
  -1   2 -36 1352.33   27.17   0
  -6   4  -7    9.44   10.37   0
  -6   4  -4 1103.93   21.73   0
  -6   4  -1   -6.44    9.96   0
  -4   3 -28  988.27   19.93   0
  -6   4 -10  504.86   16.47   0
  -6   4   2  767.34   20.50   0
  -5   3   4  927.17   23.75   0
  -3   3 -36  760.15   18.83   0
  -1   1 -26 1394.31   28.13   0
  -3   2 -26  692.80   19.11   0
  -2   1 -18 1273.72   26.37   0
  -2   1   9   87.40   19.67   0
  -2   3 -41    6.33   10.71   0
   0   0  -9   -2.46   14.37   0
  -6   4 -13    0.89    8.81   0
  -6   4   5   -1.45   10.65   0
  -5   3 -14  465.89   15.29   0
   1   0   7   -4.59    8.80   0
  -4   2  -9   -5.05   10.45   0
  -2   2 -34  386.69   16.61   0
  -5   3 -17   17.61    9.09   0
  -5   3   7   28.09   11.44   0
  -4   2   0 4532.24   47.43   0
  -4   3 -31   18.36   11.43   0
   0   1 -31   -1.02   10.01   0
   1   0 -17   -2.28   12.50   0
  -4   2   3    3.63    9.60   0
  -2   1 -21   48.33   11.50   0
  -4   2 -15    2.41    9.16   0
  -3   2 -29   11.13    9.31   0
  -1   2 -39    3.76   11.96   0
   0   0 -12  245.19   20.99   0
  -1   1 -29   -1.42   10.78   0
  -2   2  23    1.35   11.25   0
   1   1 -33   15.26   11.77   0
  -5   3 -23   10.13    9.11   0
  -4   2   6  887.38   25.30   0
  -2   1 -24 1999.49   30.88   0
  -2   2 -37   -3.11   10.79   0
  -1   1  16 5122.99   79.15   0
   1   0   4 2345.92   47.22   0
  -4   2 -21   -8.71   10.00   0
   0   0 -15   -0.51   11.24   0
  -1   1 -32 2331.01   34.74   0
   0   1 -34 1291.04   29.13   0
   2   0  -1    0.68    8.65   0
  -4   2 -24 2299.38   28.76   0
  -3   1  -7   -1.16    9.96   0
  -3   1 -13   56.21   11.71   0
  -3   1  -4 3146.80   41.66   0
  -3   2 -35    4.24    9.12   0
  -2   2 -40 1290.23   25.24   0
  -4   2 -27    4.22   10.66   0
  -4   2   9   -0.46   10.86   0
  -3   1 -16 2304.74   31.56   0
  -5   3  13   -0.87   10.59   0
   2   0 -13    0.80   13.24   0
  -3   1 -19   -0.94   10.37   0
   1   0   1   -0.40   12.93   0
  -2   1 -30  836.48   20.26   0
   2   0  -7    0.64    8.43   0
  -6   3 -12 1038.45   20.63   0
  -6   3  -9   23.57    9.15   0
  -6   3  -6  634.11   18.26   0
  -4   2 -30  283.08   14.13   0
  -1   1 -35   -5.47   11.32   0
   2   0 -10  180.03   18.90   0
  -6   3 -15    8.14    9.08   0
  -3   1 -22  580.01   17.22   0
  -3   2 -38  526.55   16.69   0
   0   0 -21   -0.38   10.99   0
  -6   3  -3   15.33    9.08   0
   0   1 -37   -1.29   11.12   0
  -2   2 -43   -0.06   11.47   0
  -1   0 -13   -2.89   11.80   0
  -1   0 -10 3885.52   54.36   0
  -6   3   0 1328.87   25.48   0
  -5   2  -7   33.01   10.68   0
  -4   2 -33   -7.89   10.23   0
  -3   1 -25   12.29   10.61   0
  -2   1 -33    5.87   10.81   0
  -5   2 -16 2190.25   28.17   0
  -1   0 -16 5553.16   57.97   0
  -1   0  -7   -1.81   11.28   0
  -5   2 -19   18.93    9.21   0
  -5   2  -4  899.33   21.36   0
   1   0 -23    2.17   12.34   0
  -6   3   3   11.34    9.77   0
  -5   2 -22  447.50   14.69   0
  -3   1 -28 1739.14   26.33   0
  -1   0 -19   12.00    8.45   0
  -1   1 -38  392.20   16.96   0
   0   0 -24 5354.68   60.16   0
  -5   2  -1    5.25    8.88   0
  -1   0  -4 2362.82   50.94   0
  -5   2 -25  -11.51   10.75   0
  -4   2  12  920.51   31.72   0
  -3   1   5   10.86    9.97   0
   1   0  -2 1749.61   53.59   0
  -3   1 -31    4.41    9.10   0
  -5   2   2  987.67   23.29   0
  -4   1 -17    1.37   10.48   0
  -4   1 -14  855.25   19.61   0
  -4   1 -11   69.60   10.14   0
   0   0 -27   -1.16    9.43   0
  -4   1 -20 1107.71   21.61   0
  -4   1  -8 3120.21   35.95   0
  -1   1 -41    2.97   11.49   0
  -2   1 -39   -0.77   10.86   0
  -4   1 -23   51.64    9.75   0
  -2   0 -14  374.14   16.75   0
  -2   2  20 3872.02   64.65   0
  -2   0 -17   -6.63    8.24   0
  -2   0 -11   -2.36    8.75   0
   1   0 -26 1391.82   40.07   0
  -5   2   5   19.43   10.83   0
  -4   1 -26  939.19   20.19   0
  -2   0 -20 4285.14   43.10   0
  -1   0 -28 1644.48   29.27   0
  -3   1 -37   -1.08   10.70   0
  -2   0  -8 2302.34   36.80   0
  -1   0  -1    2.38   11.96   0
   0   0 -30  197.42   15.02   0
  -4   1  -2  938.97   22.13   0
  -2   0 -23   -6.64   10.90   0
  -4   1 -29    4.64    8.84   0
  -2   1 -42  501.82   17.50   0
  -6   2 -14  462.93   16.13   0
  -1   0 -31    2.34   10.15   0
  -6   2 -11   10.10   10.14   0
  -2   0 -26 1589.62   26.22   0
  -2   0  -5   -1.97   11.18   0
  -6   2  -8 1125.27   21.84   0
  -3   1   8 3405.20   57.48   0
  -4   1   1   56.28   10.88   0
   0   0 -33   -0.92    9.97   0
   1   0 -29   -1.56   11.53   0
  -6   2  -5   -6.37    9.94   0
  -5   2   8 2540.16   39.69   0
  -2   1 -45    6.94   10.84   0
  -1   0 -34 1353.46   26.36   0
   0   1  11   -1.71    7.49   0
  -5   1 -18  532.12   16.21   0
  -5   1 -15   33.71   10.60   0
  -3   0 -18 1566.25   25.46   0
  -3   0 -15    2.12   10.54   0
  -2   0 -32  751.04   19.39   0
  -6   2  -2  766.05   19.46   0
  -5   1 -21    8.42    8.89   0
  -3   0 -21    3.41    8.94   0
  -3   0 -12 2774.98   34.36   0
  -2   0  -2 5152.72   58.40   0
   1   0  -5   -0.90   14.08   0
  -5   1  -9    0.62    9.93   0
  -3   0  -9   -2.18    9.84   0
  -4   1   4 1508.42   29.83   0
  -3   0 -27   -2.76    8.71   0
  -2   0 -35    4.88   10.19   0
  -1   0 -37   -1.53   10.00   0
   0   0 -36  821.16   22.83   0
  -6   2   1   -2.19    9.93   0
  -5   1  -6 1038.32   20.85   0
  -4   2  15   -0.25   13.60   0
  -3   0 -30  429.89   14.50   0
  -3   0  -6  626.97   18.21   0
   1   0 -32 2223.53   46.03   0
  -2   0 -38  419.24   16.07   0
  -5   1  -3   52.81   10.85   0
  -1   0 -40 1145.27   24.27   0
  -5   2  11   13.43   10.11   0
  -2   0   1   -2.80   10.52   0
   0   0 -39    1.09    9.69   0
  -4   0 -19    2.86    9.96   0
  -3   0 -36 1193.51   21.15   0
  -3   0  -3    0.56    8.97   0
  -1   0   2 1701.95   53.28   0
  -4   0 -25   -6.04   10.05   0
  -4   0 -16 2000.40   26.56   0
  -2   0 -41   -3.31   10.07   0
  -5   1   0 1753.29   27.87   0
  -4   0 -28  859.70   18.51   0
  -4   0 -13   -5.83    8.29   0
  -4   1   7   34.55   11.51   0
  -1   0 -43    1.82   10.30   0
  -4   0 -10  516.03   15.30   0
  -3   0 -39    7.27    8.86   0
  -2  -1 -19    0.81    7.65   0
  -5   0   1   -3.21    8.01   0
  -2  -1 -10 2235.22   28.75   0
  -1   0 -37    3.02    8.60   0
  -5   1  15    5.99    9.24   0
  -3  -1 -17   -2.09    7.18   0
  -3  -1 -14  885.72   17.38   0
  -4   0   8 1825.20   27.00   0
  -3  -1 -20 1113.47   18.83   0
  -3  -1 -11   69.31    8.49   0
  -2  -1  -7   -0.68    6.59   0
  -1  -1 -18 1295.09   23.96   0
  -1  -1 -15    3.81    8.22   0
   0   1   8 9622.77   79.85   0
  -3  -1 -23   35.83    8.75   0
  -3  -1  -8 3111.33   31.33   0
  -1  -1 -12 4178.97   43.04   0
  -5   0   4 1469.99   22.31   0
  -2   0  10  197.00   15.08   0
  -2  -1  -4 3112.67   34.74   0
  -1  -1  -9   96.41   10.94   0
  -3  -1  -5   15.70    7.60   0
  -2  -1 -28 1793.21   24.30   0
  -1  -1 -24 2078.90   28.87   0
  -4  -1 -18  527.66   13.43   0
  -4  -1 -15   41.37    7.73   0
  -2  -3 -41    1.79    8.01   0
  -2  -3 -26  976.21   16.45   0
  -1  -4 -12 1405.01   18.27   0
  -2  -3 -38  183.03   10.55   0
  -2  -2 -18 1342.70   18.57   0
  -1  -5 -26  412.34   12.00   0
  -1  -4 -54  159.41   10.75   0
  -1  -3  -7   40.24    6.22   0
   2  -5   7   22.41    6.61   0
   3  -9 -21   14.85    8.64   0
  -2  -3 -35   17.10    8.38   0
  -1  -5 -38  307.93   11.14   0
  -1  -5 -35    4.14    8.97   0
  -1  -5 -32  721.01   15.27   0
  -1  -5 -29   18.58    7.62   0
   0  -6 -18  404.85   11.84   0
   1  -7 -16 1016.04   17.53   0
   1  -6  -5    6.55    7.37   0
   1  -4   5   11.78    6.05   0
   2  -8 -17    2.07    9.11   0
  -1  -2  -5   14.04    5.47   0
   3  -9 -24  373.37   12.86   0
  -1  -4 -51    3.70    9.13   0
  -1  -4 -15    7.42    7.66   0
   0  -6 -45   14.19    9.09   0
   0  -6 -21    2.76    8.83   0
   2  -6   2  740.99   15.49   0
   3  -8  -7    7.17    7.85   0
  -2  -2 -45    2.43    7.57   0
  -2  -2 -21    6.59    5.91   0
   2  -8 -20  329.24   12.36   0
   0  -6 -42  320.38   12.89   0
   0  -6 -24  953.55   16.41   0
   0  -5 -10  901.06   15.94   0
   1  -5   0 1776.21   22.06   0
   2  -7  -6  624.80   14.47   0
  -2  -2 -42  732.87   15.57   0
  -1  -4 -48  301.62   12.35   0
  -1  -3 -10 1383.26   18.77   0
   0  -6 -39    5.31    9.09   0
   0  -6 -27    1.45    9.10   0
   1  -7 -22  299.30   12.18   0
   2  -8 -23    3.22    8.90   0
  -1  -4 -18 1015.54   16.04   0
  -1  -3 -55    6.90    9.28   0
   0  -6 -36  334.34   12.11   0
   0  -6 -33    0.44    9.22   0
   0  -6 -30  314.11   11.51   0
   1  -7 -43  -11.69   10.08   0
   1  -6  -8 1166.59   17.98   0
   2  -8 -26  405.58   13.42   0
  -2  -2 -39    1.51    7.68   0
  -2  -2 -27    5.36    6.00   0
   1  -7 -40  478.99   14.11   0
   1  -7 -25    9.23    9.54   0
  -2  -2 -36  619.81   14.34   0
  -2  -2 -33    9.55    7.10   0
  -2  -2 -30  315.38   11.21   0
  -1  -4 -45    1.85    9.00   0
  -1  -4 -21   26.08    7.95   0
   1  -7 -37   -0.99    9.27   0
   1  -7 -34  358.14   13.33   0
   1  -7 -31   19.44    9.84   0
   1  -7 -28  307.04   12.68   0
   2  -8 -35    5.24    8.37   0
   2  -8 -32  426.43   13.69   0
   3  -8 -10  400.86   12.78   0
  -2  -1 -43    2.55    6.95   0
  -2  -1 -22  566.40   13.53   0
   0  -5 -52  428.30   13.41   0
   0  -5 -13   -3.90    6.61   0
   0  -4  -5    0.73    5.68   0
   2  -7  -9   -3.59    7.51   0
  -1  -4 -42  405.53   12.20   0
  -1  -2  -8 3577.26   30.78   0
   4  -9 -17    2.96    8.80   0
  -1  -3 -52  471.60   14.05   0
  -1  -3 -13   31.06    6.27   0
   0  -4 -59    5.54    7.95   0
   1  -6 -11   23.64    7.84   0
   2  -6  -1   -0.36    6.76   0
  -2  -1 -40  668.66   15.21   0
  -2  -1 -25   17.69    5.65   0
  -2   0 -23   -1.12    5.41   0
  -1  -4 -33    1.42    8.61   0
  -1  -4 -30  317.35   11.55   0
  -1  -4 -27    9.49    7.31   0
   0  -5 -49    7.76    8.69   0
   3  -8 -13    9.45    8.07   0
   4  -9 -20  294.81   12.82   0
  -2  -1 -37    8.64    6.75   0
   0  -5 -16 1020.46   16.22   0
   1  -5  -3    6.16    5.66   0
   3  -7  -2  384.30   12.35   0
  -2  -1 -34  824.39   16.04   0
  -2  -1 -31    6.82    6.62   0
  -1  -3 -49   -1.23    8.56   0
   1  -4   2  978.93   17.57   0
   2  -7 -12  602.54   13.80   0
   2  -5   4  879.55   17.20   0
   4  -9 -23    8.63    8.85   0
  -1  -3 -16 2539.92   24.73   0
   0  -5 -19    8.73    8.24   0
   0  -4  -8 1838.94   21.63   0
   3  -8 -16  722.14   15.96   0
  -2   0 -35   -1.86    6.53   0
   0  -4 -56  207.67   11.60   0
   4  -9 -26  333.05   12.30   0
  -2   0 -29   -1.05    5.57   0
  -1  -3 -46  188.81   10.94   0
   0  -3  -3   -0.28    5.13   0
   2  -7 -15   12.76    8.20   0
  -1  -2 -11   41.66    6.27   0
   0  -5 -22  424.73   11.94   0
   1  -6 -47   -5.56    9.44   0
   1  -6 -17    6.77    8.54   0
   3  -8 -19    9.68    8.58   0
  -1  -3 -19   37.62    6.78   0
   0  -5 -25   -2.06    8.04   0
   2  -6  -4 1178.36   18.42   0
  -1  -3 -43   19.86    8.40   0
   0  -5 -37   -6.90    7.94   0
   0  -5 -34  486.07   13.60   0
   0  -5 -31   -7.92    8.96   0
   0  -5 -28  989.31   17.04   0
   0  -4 -53   -5.26    8.86   0
   1  -6 -44  354.65   12.91   0
   1  -5  -6  508.07   12.76   0
   2  -7 -45    2.27    9.27   0
   2  -7 -18  340.10   12.02   0
   3  -8 -22  244.68   11.70   0
   3  -7  -5   25.14    7.59   0
   3  -6   3   18.74    6.66   0
  -1  -3 -22  488.86   12.54   0
   0  -4 -11    3.23    5.89   0
   1  -6 -20  723.93   14.56   0
  -1  -3 -40  816.30   16.15   0
  -1  -2 -50  331.38   12.30   0
   1  -6 -41   18.10    9.48   0
   2  -7 -42  224.88   11.79   0
   3  -8 -37   -3.46    9.20   0
   3  -8 -28  340.77   13.22   0
   3  -8 -25   -3.13    8.86   0
   4  -8  -9    5.73    7.96   0
  -1  -3 -37   -7.49    7.78   0
  -1  -3 -25    5.46    7.59   0
   0  -4 -50  360.42   13.15   0
   1  -6 -38  325.00   13.11   0
   1  -6 -23    9.80    7.46   0
  -1  -3 -28 1036.76   17.03   0
  -1  -2 -14 1785.99   21.59   0
   0  -3 -57    1.03    8.59   0
   1  -6 -35   -4.65    9.33   0
   1  -6 -26  415.16   12.15   0
   2  -7 -39    9.06    9.09   0
   5  -9 -19   10.81    9.60   0
  -1  -2 -47    1.97    8.64   0
   1  -6 -32  704.86   14.77   0
   1  -6 -29   10.16    8.04   0
   1  -5 -54  153.52   10.42   0
   1  -4  -1   66.65    7.40   0
   2  -7 -36  326.68   12.46   0
   2  -7 -33   -6.30    9.43   0
   2  -7 -30  355.11   12.94   0
   2  -7 -27    1.48    9.69   0
   2  -6  -7   10.03    7.17   0
   0  -4 -14  412.09   11.22   0
   0  -3  -6 2165.19   23.91   0
   2  -5   1    4.55    6.32   0
   3  -7  -8  819.16   16.02   0
   4  -8 -12  502.31   13.92   0
   5  -9 -22  209.86   11.96   0
   0  -4 -47   -0.92    7.36   0
  -1  -2 -17   20.53    6.73   0
   1  -5 -51    4.93    8.94   0
   5  -9 -25    5.64    8.44   0
  -1  -2 -44  575.28   14.22   0
   0  -4 -44  802.67   16.30   0
   0  -4 -17    2.50    6.28   0
   0  -3 -54  251.84   11.51   0
   5  -9 -28  219.65   11.54   0
   1  -5 -12 1405.06   19.01   0
   2  -6 -10  554.68   13.41   0
   3  -7 -11    3.42    7.93   0
   3  -6   0 1347.59   20.56   0
   4  -8 -15   -2.28    8.37   0
  -1  -2 -41   10.65    7.50   0
   1  -4 -58  279.00   11.84   0
  -1  -2 -20 1674.88   20.56   0
   0  -4 -20 1618.48   19.75   0
   0  -3 -51    8.84    8.47   0
   0  -3  -9    1.48    6.31   0
   2  -6 -49    0.95    8.62   0
   3  -7 -47    2.68    9.33   0
   4  -8 -18  367.57   11.90   0
  -1  -2 -23    3.89    6.68   0
   0  -4 -35   -3.47    8.32   0
   0  -4 -23   -0.35    6.63   0
   1  -5 -45    1.31    9.26   0
   1  -5 -15    6.02    7.11   0
   3  -7 -14  551.88   13.76   0
   4  -8 -39    5.16    9.76   0
  -1  -2 -35    1.15    7.01   0
   0  -4 -29   -8.09    7.66   0
   0  -4 -26 1029.46   16.37   0
   2  -6 -46  281.05   12.22   0
   2  -6 -13   -1.10    6.36   0
   4  -8 -21    7.18    7.99   0
  -1  -2 -32 1657.10   21.02   0
  -1  -2 -29   14.74    7.02   0
  -1  -1 -45    1.32    6.90   0
   1  -5 -42  464.96   14.07   0
   1  -4 -55    6.04    9.34   0
   2  -5  -2  999.22   16.82   0
   3  -7 -44  365.88   13.50   0
   4  -8 -24  582.10   14.88   0
   4  -7  -4  908.89   17.57   0
   0  -3 -48  673.49   15.36   0
   1  -5 -18 1008.82   16.64   0
   3  -7 -17   34.75    8.58   0
   4  -8 -30  225.36   11.75   0
   4  -8 -27   -1.48    8.73   0
   1  -5 -39   16.27    9.10   0
   2  -6 -43    0.43    9.04   0
   2  -5 -56  255.73   11.78   0
   3  -7 -41    7.19   10.06   0
   3  -5   5   17.12    6.47   0
   0  -3 -12 2297.69   24.11   0
   1  -5 -21   36.30    8.26   0
   3  -7 -38  304.93   13.08   0
   3  -7 -20  722.22   15.46   0
   3  -6  -3   10.78    6.80   0
  -1  -1 -42  515.80   13.63   0
   1  -5 -36  856.92   15.74   0
   1  -5 -24  945.14   16.36   0
   1  -4 -52  480.27   13.85   0
   1  -3 -59    0.56    8.10   0
   2  -6 -40  509.15   13.52   0
   2  -6 -19    6.19    7.75   0
   5  -8 -11    2.83    7.91   0
   0  -3 -45    2.30    8.18   0
   1  -5 -33    1.02    7.67   0
   1  -5 -30  325.44   11.83   0
   1  -5 -27   17.98    8.51   0
   2  -6 -37   -6.94    9.36   0
   3  -7 -35    0.41    8.58   0
   3  -7 -32  515.94   14.34   0
   0  -2 -52  339.59   12.44   0
   2  -6 -34  362.19   12.87   0
   2  -6 -22  552.70   13.04   0
   2  -5 -53   -4.91    9.27   0
   3  -7 -29   18.53    8.17   0
   4  -7  -7   18.24    7.38   0
  -1  -1 -39    0.25    6.63   0
   2  -6 -31   -5.29    9.02   0
   2  -6 -28  727.13   15.41   0
   2  -6 -25    8.31    7.19   0
   2  -5  -5   22.65    6.69   0
   5  -8 -14  273.28   11.73   0
   0  -3 -15    3.53    5.50   0
   1  -4 -49   -3.84    9.28   0
   2  -4 -60  304.47   12.10   0
  -1  -1 -36 1244.93   19.09   0
   1  -3 -56  450.71   14.82   0
   3  -6 -51   -0.23    9.49   0
   3  -6  -6  642.45   14.33   0
   0  -3 -39   -1.81    7.46   0
   5  -8 -17   -1.95    8.12   0
  -1  -1 -33   16.31    6.92   0
   0  -3 -18  664.53   13.54   0
   0  -2 -49    1.50    7.23   0
   1  -4 -46  186.03   11.18   0
   1  -4 -10 1325.31   18.78   0
   4  -7 -46  202.92   11.57   0
  -1  -1 -30  837.22   16.03   0
  -1  -1 -27    2.35    6.07   0
  -1  -1 -24 2024.90   23.71   0
   5  -8 -35   -7.29    9.19   0
   5  -8 -20  415.68   13.35   0
   0  -3 -21   -2.87    6.08   0
   2  -5  -8 2562.96   25.65   0
   2  -4 -57    2.52    8.90   0
   5  -8 -32  447.49   13.64   0
   5  -8 -23    0.41    8.64   0
   0  -3 -30  848.62   15.69   0
   0  -3 -24 2149.01   22.92   0
   2  -5 -47    7.91    7.83   0
   3  -6  -9   10.88    7.49   0
   4  -7 -43   -9.08    9.74   0
   5  -8 -29    1.41    8.82   0
   5  -8 -26  378.06   12.78   0
   0  -3 -27    0.73    6.26   0
   0  -2 -46  529.45   14.02   0
   1  -3 -53    1.35    9.10   0
   3  -6 -45    5.05   10.04   0
   4  -7 -13   24.26    8.47   0
   1  -4 -13   21.75    6.29   0
   4  -7 -40  330.55   12.83   0
   2  -5 -44  525.59   13.76   0
  -8   6 -26  414.62   18.68   0
  -4   1  -8 3061.67   34.71   0
  -9   5  -5   20.73   13.51   0
  -7   7 -35    0.01   13.15   0
  -6   4 -28  736.06   20.97   0
  -5   2 -16 2307.83   29.44   0
  -2   1 -18 1237.31   25.01   0
  -9   6 -18  403.93   18.27   0
  -7   3 -10  565.62   18.83   0
  -6   3 -21   15.41   11.68   0
  -5   4 -33   14.80   13.41   0
  -4   4 -35    0.27   12.82   0
  -3   2 -26  686.74   19.47   0
  -8   4 -12  465.95   18.61   0
  -8   5 -22  244.05   15.91   0
  -7   4 -23    7.78   14.22   0
  -5   5 -37   14.57   13.89   0
  -7   6 -34  343.39   19.22   0
  -4   1 -11   69.62    9.98   0
  -4   2 -24 2398.84   31.61   0
  -4   3 -31   18.19   12.42   0
  -9   6 -21   -0.83   14.56   0
  -8   6 -29   -1.83   13.53   0
  -7   3 -13   31.09   11.60   0
  -6   5 -35   13.51   14.11   0
  -5   2 -19   22.30   10.55   0
  -3   3 -33   -5.00   11.18   0
  -8   4 -15  -18.79   14.01   0
  -8   7 -33   17.03   13.17   0
  -5   1   3    2.88    9.46   0
  -5   1   6  473.52   16.89   0
  -5   1   9   52.39   10.16   0
  -2   2 -28 1359.94   26.48   0
  -8   5 -25   15.05   14.49   0
  -6   2 -11    4.25   11.94   0
  -6   3 -24  908.49   21.83   0
  -9   5 -14  187.40   15.49   0
  -7   3 -16  708.20   20.62   0
  -7   4 -26  287.19   17.59   0
  -6   6 -39   -4.07   13.19   0
  -5   1   0 1696.68   26.42   0
  -5   1  -3   67.13   11.30   0
  -4   1 -14  807.80   18.98   0
  -3   1 -19    0.97    8.90   0
  -9   6 -24  387.67   17.46   0
  -8   4 -18  394.01   18.66   0
  -5   2 -22  455.03   17.19   0
  -5   4 -36  801.17   22.65   0
  -9   5 -17   25.46   13.80   0
  -7   6 -37   -3.14   14.26   0
  -6   2 -14  486.27   16.46   0
  -4   2 -27    3.09   11.77   0
  -4   4 -38  259.42   16.46   0
  -3   2 -29   13.11   10.89   0
  -9   4   5   19.07   14.57   0
  -8   3   1   -0.72   12.84   0
  -8   3   7    6.14   11.51   0
  -8   5 -28  358.54   18.20   0
  -7   3 -19   -7.79   13.04   0
  -5   5 -40  386.76   18.75   0
  -4   3 -34  863.12   22.49   0
  -9   4  -1    2.28   14.12   0
  -9   4   2  341.66   17.72   0
  -8   3  -2  413.76   18.10   0
  -6   5 -38  300.00   18.36   0
  -9   6 -27   14.47   14.11   0
  -8   4 -21   10.94   15.11   0
  -6   2 -17   -5.89   12.52   0
  -4   1 -17   -6.65    9.52   0
  -9   4  -4  309.90   17.50   0
  -9   5 -20  294.31   16.97   0
  -8   3  -5   -5.55   13.29   0
  -7   2   3   12.54   11.73   0
  -5   1  -9    5.96    9.63   0
  -9   4  -7   22.14   14.02   0
  -8   6 -35    5.45   14.98   0
  -7   2   0  976.50   22.45   0
  -7   2   9    5.10   11.75   0
  -7   3 -22  332.17   17.64   0
  -5   2 -25    5.65   10.84   0
  -3   1 -22  596.76   17.30   0
  -3   3 -36  835.99   22.27   0
  -7   2  -3    5.87   11.68   0
  -7   5 -36  351.48   18.25   0
  -3   0  -3   -5.79    7.76   0
 -10   5  -3    9.81   12.38   0
  -8   4 -24  593.38   20.11   0
  -8   5 -31   -3.11   13.65   0
  -7   6 -40  468.73   20.11   0
  -6   3 -30  352.80   17.77   0
  -5   1 -12 1177.85   22.21   0
  -2   2 -31   -0.90    9.33   0
  -9   5 -23    7.96   13.15   0
  -7   2  -6  287.73   14.32   0
  -7   4 -32  538.03   19.81   0
  -6   2 -20  940.96   20.91   0
  -5   4 -39   22.40   14.28   0
  -4   1 -20 1149.73   22.24   0
  -2   1 -24 2017.19   29.89   0
  -6   4 -37    3.40   15.03   0
  -3   2 -32 1646.42   28.05   0
  -7   2  -9   18.08   10.78   0
  -7   3 -25   29.31   15.39   0
  -6   5 -41    5.92   14.53   0
  -5   3 -35    9.82   13.76   0
  -4   3 -37   -5.65   12.56   0
  -4   4 -41    3.63   13.68   0
  -2   0 -11   -0.76    7.93   0
  -5   2 -28  607.74   18.29   0
  -8   4 -27    9.33   13.34   0
  -6   2 -23    9.37   11.44   0
  -3   0  -9   -1.41    8.20   0
  -3   1 -25   16.16    9.57   0
  -8   3 -17   10.45   14.50   0
  -6   1   2  482.35   17.32   0
  -6   3 -33   12.06   14.24   0
  -4   1 -23   43.07   12.33   0
  -6   1  -1   28.80    9.92   0
  -6   1   5    3.05   10.27   0
  -5   1 -18  542.74   18.18   0
  -7   2 -15   13.44   11.35   0
  -7   3 -28  716.08   20.16   0
  -7   6 -43   15.13   14.01   0
  -6   1  -4 1018.50   21.26   0
  -6   1   8 1119.90   23.90   0
  -4   2 -33    8.75   12.35   0
  -2   0 -14  390.61   15.64   0
  -9   4 -19    5.83   13.16   0
  -9   5 -29    4.35   13.90   0
  -8   4 -30  239.56   16.89   0
  -6   1  -7    0.15   11.77   0
  -6   2 -26  554.42   19.58   0
  -6   4 -40  523.48   20.99   0
  -5   2 -31    8.15   13.35   0
  -5   4 -42  422.73   19.37   0
  -4   0  -1   -4.50    9.54   0
  -4   0   2 1530.49   26.78   0
  -3   0 -12 2898.19   33.82   0
  -3   3 -39   -0.98   11.19   0
  -8   3 -20  404.54   16.88   0
  -5   3 -38  172.70   15.94   0
  -4   0   5    2.54    8.81   0
  -2   1 -27   -1.78    7.91   0
  -7   2 -18  653.18   18.78   0
  -6   5 -44  346.33   18.34   0
  -5   1 -21   13.26   12.01   0
  -3   2 -35    4.10   11.06   0
  -2   2 -34  353.21   16.09   0
  -9   4 -22  244.80   16.68   0
  -4   0   8 1743.55   30.31   0
  -4   1 -26  901.78   20.48   0
  -4   3 -40  760.54   21.99   0
  -8   3 -23   -1.17   14.40   0
  -7   3 -31  -16.33   12.84   0
  -7   4 -38  285.35   17.93   0
  -7   5 -42  226.93   17.63   0
  -3   0 -15   -8.27    8.66   0
  -8   4 -33   -7.75   14.75   0
  -7   2 -21   -6.31   13.26   0
  -6   2 -29    9.35   14.04   0
  -4   0 -10  524.98   16.26   0
  -2   0 -17   -1.55    7.85   0
  -9   3  -3   23.42   13.14   0
  -9   3  -6  334.01   18.06   0
  -9   4 -25    1.33   12.89   0
  -6   1 -16  875.91   21.26   0
  -5   1 -24 1334.62   23.69   0
  -4   0  11    0.97    8.67   0
  -9   3  -9  -13.82   13.55   0
  -8   2  -4  365.64   17.04   0
  -8   2   2  382.83   17.12   0
  -8   3 -26  370.57   18.20   0
  -8   5 -40  332.86   17.53   0
  -6   4 -43    6.59   14.03   0
  -4   0 -13   -9.34    9.29   0
  -4   1 -29   -0.20   12.20   0
  -3   0 -18 1636.27   25.68   0
  -9   3 -12  265.99   16.75   0
  -8   2  -7    2.32   13.51   0
  -7   2 -24  597.97   19.07   0
  -5   3 -41   -5.38   14.26   0
  -5   4 -45   -6.91   14.25   0
  -2   1 -30  834.06   20.62   0
  -8   2 -10  397.50   17.90   0
  -6   1 -19   -3.87   13.00   0
  -6   2 -32  643.84   21.09   0
  -6   3 -39  -12.24   15.06   0
  -3   1 -31    5.01    9.54   0
  -9   3 -15   19.57   14.18   0
  -9   4 -28  228.82   15.84   0
  -8   4 -36  334.44   17.36   0
  -7   4 -41   22.42   15.89   0
  -7   5 -45   -1.22   13.40   0
  -5   1 -27    6.51   12.52   0
  -3   2 -38  544.53   18.59   0
  -2   0 -20 4136.70   40.48   0
  -8   2 -13   -4.85   13.58   0
  -8   3 -29   -2.43   14.44   0
  -5   0  -2  499.08   16.99   0
  -4   3 -43   14.22   12.72   0
  -7   2 -27   -2.16   12.67   0
  -6   1 -22  367.32   17.50   0
  -5   0  -5    1.29    9.20   0
  -5   0   1   -7.38   10.14   0
  -5   2 -37    4.47   13.86   0
  -3   0 -21    1.35    9.18   0
  -2   2 -37   -2.93   10.37   0
  -7   1  -5   24.93   12.71   0
  -7   1   1    5.90   12.80   0
  -7   3 -37   11.24   14.49   0
  -4   0 -19    3.60   10.69   0
  -4   2 -39    2.58   12.83   0
  -7   1  -8 1075.94   22.98   0
  -7   1 -11   16.33   13.10   0
  -7   1   4  423.67   17.06   0
  -6   2 -35   -3.48   12.46   0
  -6   4 -46  247.90   17.43   0
  -5   0   7   -0.65   10.33   0
  -5   1 -30  529.66   19.18   0
  -5   3 -44  496.36   20.49   0
  -2   0 -23    9.47    9.57   0
  -1   1 -29   -1.38    9.27   0
  -7   2 -30  199.49   16.48   0
  -7   4 -44  329.34   19.00   0
  -6   3 -42  346.80   18.47   0
  -5   0 -14  871.07   20.54   0
  -3   1 -34  916.10   21.40   0
  -4   0 -22  970.37   20.58   0
  -2   1 -33   15.31    9.86   0
  -8   2 -22  210.69   17.02   0
  -5   2 -40  844.10   23.29   0
  -9   3 -24  493.08   18.07   0
  -5   0 -17    0.29   10.39   0
  -3   2 -41   14.07   11.29   0
  -8   3 -35   -2.50   14.02   0
  -7   2 -33   13.78   15.33   0
  -6   1 -28  761.32   21.33   0
  -5   1 -33   17.54   13.18   0
  -4   3 -46  176.82   15.71   0
  -8   2 -25    1.52   14.60   0
  -4   0 -25   10.67   11.77   0
  -4   2 -42  733.96   20.39   0
  -3   0 -27   11.54   10.91   0
  -9   3 -27   27.58   13.68   0
  -7   1 -20  507.44   17.42   0
  -6   3 -45   -5.02   15.57   0
  -5   0 -20 1024.61   21.30   0
  -1   0 -22  512.35   16.61   0
  -6   4 -49    4.22   14.58   0
  -3   1 -37    7.06   11.51   0
  -7   1 -23   26.01   14.74   0
  -7   4 -47    4.66   14.79   0
  -6   0  -3    0.67   10.51   0
  -6   1 -31   -2.30   13.52   0
  -5   3 -47    2.17   14.32   0
  -9   2  -5   -3.13   13.93   0
  -8   2 -28  327.68   17.63   0
  -8   3 -38  154.87   15.56   0
  -7   2 -36  567.18   20.06   0
  -7   3 -43   11.33   13.90   0
  -6   0  -9   -6.50   10.56   0
  -5   0 -23   -5.46   11.09   0
  -5   1 -36  559.36   20.37   0
  -5   2 -43    0.66   14.37   0
  -4   0 -28  848.45   21.01   0
  -2   1 -36 1292.87   25.03   0
  -9   2 -11    6.48   13.43   0
  -9   2  -8  434.90   18.44   0
  -4   1 -38  281.15   15.01   0
  -1   1 -32 2237.29   33.88   0
  -6   0   3    0.53   10.53   0
  -3  -1  -8 3065.11   34.73   0
  -3   0 -30  433.09   15.51   0
  -9   2 -14  248.01   16.65   0
  -5   0 -26  399.33   17.05   0
  -4   2 -45   12.24   12.60   0
  -3  -1 -11   69.14   10.82   0
  -3  -1  -2  968.25   20.93   0
  -3   2 -44  575.68   19.36   0
  -2  -1 -10 2270.70   30.93   0
  -2  -1  -7   -3.49    7.47   0
  -2  -1  -4 2985.65   36.48   0
  -2   0 -29   -3.99    8.27   0
  -9   2 -17    7.14   12.83   0
  -8   1  -6  358.94   17.22   0
  -8   2 -31  -17.88   13.31   0
  -6   0 -18  629.57   19.56   0
  -1   0 -25   -1.91    7.12   0
  -8   1 -12  349.38   17.77   0
  -8   1  -9    0.48   13.30   0
  -8   1  -3   13.64   12.68   0
  -7   2 -39    2.63   14.20   0
  -6   3 -48  351.63   18.80   0
  -4   0 -31    9.97   12.43   0
  -3  -1 -14  806.35   18.68   0
  -3  -1   1   48.39    8.66   0
  -2  -1 -13   64.18   10.61   0
  -9   2 -20  325.85   16.56   0
  -7   1 -29   20.77   14.12   0
  -7   3 -46  159.86   17.12   0
  -6   0 -21  -10.07   12.99   0
  -3   1 -40  697.85   19.86   0
  -8   1 -15    8.29   12.75   0
  -6   2 -44  493.17   19.84   0
  -5   2 -46  140.95   16.39   0
  -5   3 -50  428.77   19.15   0
  -4  -1  -6 1128.20   21.66   0
  -4  -1  -3   56.97   10.81   0
  -4   1 -41   15.44   12.60   0
  -3  -1 -17    1.38    8.78   0
  -8   1 -18  263.79   16.33   0
  -6   1 -37   16.38   15.10   0
  -4  -1 -12 1223.01   22.30   0
  -2  -1 -16 2359.67   29.88   0
  -4  -1 -15   31.33   10.24   0
  -4  -1   0 1743.74   27.57   0
  -2   0 -32  763.00   18.72   0
  -2   1 -39    5.22    9.76   0
  -7   1 -32  540.59   18.99   0
  -4   0 -34  442.03   16.45   0
  -3  -1 -20 1106.97   21.02   0
  -2  -1 -19   -5.09    9.65   0
  -4  -1 -18  526.88   16.65   0
  -4  -1   3    4.00    9.04   0
  -1   0 -28 1538.11   26.49   0
  -8   2 -37  -13.68   13.74   0
  -7   0 -10  395.68   17.38   0
  -7   0  -7   -9.87   12.65   0
  -6   0 -27    8.29   14.52   0
  -6   3 -51   11.15   15.55   0
  -4   2 -48  585.57   19.99   0
  -1   1 -35   -3.63    8.72   0
  -7   0  -4  367.40   16.77   0
  -4  -1 -21   11.86   12.06   0
  -3  -1 -23   44.94   10.08   0
  -3   0 -36 1294.67   24.22   0
  -3   1 -43    7.21   11.78   0
  -7   0 -16  878.50   21.92   0
  -7   0  -1    4.62   11.68   0
  -7   1 -35   13.62   13.82   0
  -6   2 -47    1.12   15.24   0
  -5  -1 -10  726.79   19.49   0
  -5  -1  -7   10.32   11.18   0
  -4   1 -44  560.88   19.89   0
  -8   1 -27   -0.34   13.79   0
  -6   0 -30  217.45   16.39   0
  -5  -1  -4 1007.45   21.76   0
  -5   0 -35    5.42   13.18   0
  -5   2 -49   10.26   14.17   0
  -2   0 -35    9.45   10.30   0
  -7   0 -19    1.15   11.15   0
  -5  -1  -1   27.69   10.83   0
  -4  -1 -24 1345.90   23.34   0
  -4  -1   6  462.24   16.39   0
  -3  -1 -26  884.61   20.50   0
  -1  -1 -15    6.21    7.70   0
  -5  -1 -19  -11.95   11.90   0
  -2  -1 -25   17.26   10.35   0
  -8   1 -30  188.78   15.85   0
  -7   1 -38  127.27   15.41   0
  -5   1 -45   12.65   15.02   0
  -2   1 -42  524.54   18.41   0
  -1  -1 -18 1278.56   23.80   0
  -1   0 -31    0.78    8.52   0
  -6   0 -33  -10.43   12.99   0
  -5  -1 -22  359.94   16.13   0
  -5  -1   2  475.10   16.74   0
  -4  -1 -27   17.53   11.02   0
  -3   0 -39   -9.95   11.60   0
  -7   0 -25   13.09   12.68   0
  -3  -1 -29   -1.51    9.82   0
  -9   1 -10  170.69   16.15   0
  -4   1 -47   17.85   13.48   0
  -3   1 -46  264.60   15.44   0
  -2  -1 -28 1793.93   26.56   0
  -8   1 -33   -7.99   14.36   0
  -7   0 -28  287.29   16.72   0
  -5  -1 -25    5.93   11.49   0
  -5   2 -52  301.06   19.22   0
  -4  -1 -30  529.89   18.08   0
  -4  -1   9   42.08   10.50   0
  -2   0 -38  429.78   16.26   0
  -1  -1 -21   46.72    8.45   0
  -7   1 -41   15.61   12.73   0
  -5  -1   5   -0.70    9.54   0
  -6  -1 -14  233.62   15.41   0
  -6  -1  -8 1049.39   22.63   0
  -6   1 -46  165.97   16.07   0
  -5  -1 -28  737.11   20.84   0
  -5   1 -48  523.30   19.93   0
  -3  -1 -32 1293.48   22.86   0
  -7   0 -31   -2.92   13.31   0
  -6  -1  -5   23.18   11.99   0
  -5   0 -41    8.00   11.87   0
  -3   0 -42  571.50   18.70   0
  -1   0 -34 1321.60   24.79   0
  -6  -1  -2  569.78   18.12   0
  -4  -1 -33    9.85   11.44   0
  -4   0 -43   -3.04   13.14   0
  -8   0 -17  -14.03   13.28   0
  -8   0 -11    5.92   12.51   0
  -7   1 -44  338.91   17.94   0
  -6   0 -39   19.76   14.65   0
  -5  -1 -31   -4.25   13.84   0
  -6  -1 -23   11.63   11.99   0
  -6   2 -53   -0.58   14.03   0
  -4   1 -50  416.98   18.14   0
  -3  -1 -35   27.51   11.30   0
  -8   0 -20  311.85   17.08   0
  -7   0 -34  328.02   16.59   0
  -6  -1   1    3.37   10.33   0
  -3   1 -49    0.87   12.74   0
  -2   0 -41   15.07   10.42   0
  -8   0 -23   -2.21   12.67   0
  -6  -1 -26  509.27   17.24   0
  -6   1 -49   15.80   13.66   0
  -4  -1 -36  584.98   17.99   0
  -3  -2 -13    0.96   10.23   0
  -6   0 -42  350.29   18.20   0
  -5   1 -51    4.07   13.11   0
  -3  -2 -16 2176.20   27.77   0
  -3   0 -45   -3.88   11.97   0
  -8   0 -26  163.38   14.31   0
  -7   0 -37    0.81   13.44   0
  -6  -1 -29    8.96   13.46   0
  -4  -2 -11   -3.31   10.94   0
  -3  -2 -19    6.97    9.75   0
  -2  -2 -12  927.26   19.91   0
  -1   0 -37    0.47    8.75   0
  -4  -2 -17   -4.34    9.82   0
  -4  -2  -8 1140.59   22.28   0
  -3  -2 -22  456.23   16.34   0
  -3  -2  -4  912.25   20.08   0
  -2  -2 -18 1334.21   22.89   0
  -2  -2 -15   -1.58    8.34   0
  -2  -2  -9    1.34    9.00   0
  -5  -1 -37    0.07   14.50   0
  -4  -2 -20  995.08   20.70   0
  -4  -2  -5    3.11   10.19   0
  -4  -1 -39   -0.28   12.54   0
  -1  -1 -30  804.22   18.94   0
  -7  -1 -18  288.54   16.81   0
  -7  -1 -15   19.40   12.26   0
  -7  -1 -12  336.79   16.62   0
  -7  -1  -9  -11.90   12.28   0
  -6  -1 -32  496.82   19.28   0
  -5   0 -47   14.78   13.55   0
  -4  -2 -23   10.95   12.36   0
  -3  -2 -25   -8.11   10.83   0
  -2  -2 -21    3.24    8.64   0
  -2  -1 -37   -3.13   10.69   0
  -7  -1 -21   -2.34   13.65   0
  -6   0 -45   13.06   13.70   0
  -4   1 -53   12.55   12.13   0
  -3  -2  -1    7.13    8.99   0
  -2   0 -44 1286.90   24.31   0
  -7  -1  -6  358.35   16.53   0
  -4  -2 -26  595.80   18.30   0
  -4  -2  -2  770.86   19.30   0
  -2  -2 -24 2433.97   28.78   0
  -7  -1 -24  540.40   18.55   0
  -6  -1 -35    6.92   13.57   0
  -5  -2 -15   -0.22   10.25   0
  -5  -2 -12  712.31   19.79   0
  -5  -2  -9   10.35   11.28   0
  -5  -1 -40  437.21   18.92   0
  -5   1 -54  172.54   15.06   0
  -4   0 -49   19.98   13.39   0
  -3  -2 -28  612.80   16.95   0
  -3  -1 -41    4.75   10.23   0
  -5  -2 -21    2.24   12.17   0
  -2  -2 -27    5.06   10.73   0
  -1  -1 -33   20.04    9.38   0
  -5  -2  -6  301.09   14.75   0
  -4  -2 -29   -6.11   11.06   0
  -4  -2   1    4.48    9.42   0
  -3  -2 -31   10.37   11.80   0
  -3  -2   2 1001.18   21.25   0
  -1   0 -40 1088.26   22.92   0
  -6  -1 -38  132.40   15.68   0
  -5  -2 -24  598.05   17.60   0
  -2  -1 -40  718.76   18.04   0
  -7  -1 -30  209.78   15.10   0
  -5  -2 -27    7.03   12.97   0
  -5  -2  -3    2.57   10.34   0
  -4  -2 -32  657.38   18.96   0
  -2  -2 -30  301.27   14.40   0
  -2  -2   0 4275.53   41.49   0
  -1  -2 -17   14.85    7.92   0
  -1  -2 -14 1760.12   25.45   0
  -1  -2 -11   40.09    9.34   0
  -5  -1 -43   -2.31   14.12   0
  -3  -1 -44  574.84   18.40   0
  -2   0 -47   -1.05   10.37   0
  -1  -2 -20 1763.87   25.02   0
  -4  -1 -45    8.49   11.16   0
  -4   0 -52  346.49   17.43   0
  -3  -2 -34  721.85   18.36   0
  -1  -2 -23    6.67    9.61   0
  -1  -2  -8 3448.87   36.35   0
  -1  -1 -36 1356.35   23.77   0
  -7  -1 -33   10.48   11.65   0
  -6  -1 -41   -8.54   13.39   0
  -5  -2 -30  186.40   14.34   0
  -5  -2   0  990.69   21.68   0
  -4  -2 -35   -1.09   13.36   0
  -3   0 -51    4.16   12.09   0
  -6  -2 -19    9.95   12.29   0
  -6  -2 -16  725.25   20.24   0
  -6  -2 -13   -5.05   12.00   0
  -2  -2 -33   10.62    9.43   0
  -2  -1 -43   -4.23   11.13   0
   0  -1 -23    5.97    6.49   0
  -6  -2 -22  224.30   15.28   0
  -6  -2 -10  416.06   16.67   0
  -5  -2 -33   16.62   13.21   0
  -5   0 -53   17.67   12.70   0
  -3  -2 -37    4.97   11.55   0
  -3  -2   5   15.50    8.42   0
  -1  -2 -26  674.05   16.69   0
  -6  -2  -7   -5.90   11.66   0
  -3  -1 -47    7.13   12.35   0
  -2  -2   3    1.99    7.37   0
  -1  -2  -5   11.77    7.07   0
  -1   0 -43    3.72    9.40   0
  -6  -1 -44  328.52   17.23   0
  -4  -2 -38  247.84   14.82   0
  -4  -1 -48  529.01   18.45   0
  -1  -1 -39   -0.61    9.63   0
   0   0 -33   -2.21    8.11   0
  -6  -2 -28  335.70   16.47   0
  -5  -2 -36  536.13   18.83   0
  -4   0 -55   -0.30   13.77   0
  -6  -2 -31   -3.14   12.90   0
  -5  -1 -49   -7.47   14.15   0
  -3  -3 -18  595.73   17.23   0
  -3  -3 -15    9.70   10.60   0
  -2  -1 -46  278.20   14.75   0
  -5  -2 -39   -7.29   13.06   0
  -4  -2 -41   -1.12   11.83   0
  -3  -3 -21   16.29    9.89   0
  -2  -2 -39   -6.66   11.11   0
   0  -1 -29   -7.55    7.86   0
  -6  -2 -34  347.68   16.39   0
  -4  -1 -51    9.06   13.49   0
  -3  -3 -24  953.84   19.64   0
  -3  -1 -50  428.98   17.59   0
  -2  -3 -17   15.22   10.11   0
  -4  -3 -22  317.06   14.55   0
  -4  -3 -13   39.51    9.96   0
  -3  -3 -27   -2.85   11.36   0
  -3  -3  -9   28.78    8.76   0
  -2  -3 -23    9.49   10.97   0
  -2  -3 -20  830.22   18.00   0
  -2  -3 -14  488.99   14.59   0
  -1  -1 -42  526.26   16.69   0
  -7  -2 -17   -3.62   13.00   0
  -4  -3 -25   21.42   11.10   0
  -4  -3 -10  574.60   17.53   0
  -2  -3 -11   13.15    8.30   0
  -1  -2 -35    6.28    9.76   0
  -7  -2 -20  314.79   15.85   0
  -6  -2 -37   -3.17   12.57   0
  -5  -2 -42  331.90   17.24   0
  -4  -3 -28  683.94   19.40   0
  -4  -2 -44  446.67   16.93   0
  -3  -3  -6  606.54   16.14   0
  -2  -3 -26  922.80   19.02   0
   0  -1 -32 2239.45   30.32   0
  -7  -2 -11   -2.38   10.55   0
  -4  -3  -7    6.64   10.78   0
  -2  -2 -42  753.39   18.19   0
  -2  -1 -49    1.24   12.43   0
  -5  -3 -20  396.73   16.85   0
  -5  -3 -17    2.69   12.05   0
  -4  -3 -31    0.36   12.53   0
  -2  -3 -29    2.48    9.45   0
  -5  -3 -14  283.77   14.22   0
  -4  -3  -4  945.52   20.56   0
  -3  -3  -3   11.31    9.49   0
  -3  -2 -46  159.24   14.24   0
  -1  -2 -38  564.28   16.97   0
   0  -2 -19   -3.49    7.86   0
   0  -2 -16 3362.40   35.24   0
  -5  -3 -11    7.66   11.90   0
  -5  -2 -45  -13.17   13.41   0
  -4  -3 -34  330.61   16.86   0
  -4  -1 -54  169.69   15.10   0
  -3  -1 -53    2.93   11.91   0
  -2  -3 -32 1121.41   20.72   0
  -2  -3  -5   18.34    9.04   0
  -1  -3 -19   39.20   10.08   0
   0  -2 -22 2257.85   28.29   0
  -5  -3 -29   -2.03   12.39   0
  -5  -3  -8  827.09   20.01   0
  -3  -3 -36  616.15   18.79   0
  -2  -2 -45    0.41   11.62   0
  -1  -3 -22  501.41   14.57   0
  -1  -3 -16 2453.14   27.97   0
  -1  -1 -45    6.61    9.63   0
   0  -2 -13   -0.54    6.81   0
   0  -1 -35    2.20    7.96   0
  -2  -3 -35   11.67   11.50   0
  -1  -3 -25    1.34    8.46   0
  -1  -3 -13   27.02    8.00   0
  -5  -3 -32  475.42   17.31   0
  -4  -3 -37    7.83   13.17   0
  -4  -3  -1   19.15    9.89   0
  -3  -3   0 1308.77   22.85   0
  -1  -3 -28 1019.51   20.16   0
   0  -2 -28 1300.38   22.19   0
  -5  -3  -5   -1.26   10.53   0
  -3  -2 -49    0.38   12.10   0
  -2  -3  -2  989.79   19.98   0
  -2  -1 -52  636.09   18.84   0
  -1  -3 -10 1312.78   21.17   0
  -1  -2 -41    4.47   10.33   0
  -5  -3 -35   18.01   12.32   0
  -4  -2 -50  251.88   15.33   0
  -1  -3 -31   29.15   10.68   0
  -6  -3 -21   -4.21   11.70   0
  -6  -3 -18  235.99   14.15   0
  -4  -3 -40  349.28   16.47   0
   0  -2 -31    2.86    8.31   0
  -6  -3 -27    6.41   12.91   0
  -6  -3 -24  502.40   16.71   0
  -6  -3 -15   29.52   12.31   0
  -3  -1 -56  320.24   16.23   0
  -2  -2 -48  570.01   17.26   0
  -1  -3  -7   36.17    7.78   0
  -1  -1 -48  615.80   18.38   0
   0  -1 -38  365.27   14.08   0
  -5  -3 -38  155.11   13.49   0
  -5  -3  -2  345.98   15.19   0
  -3  -3 -42  306.68   14.81   0
  -4  -3 -43    9.00   12.88   0
  -3  -3   3   16.97    8.63   0
  -3  -2 -52  333.06   15.91   0
  -1  -2 -44  551.57   17.13   0
   0  -2 -34  360.11   13.70   0
  -4  -2 -53   -3.19   11.77   0
  -2  -3   1    8.59    6.66   0
  -3  -4 -23    4.65   11.74   0
  -3  -4 -20  730.74   17.73   0
  -3  -4 -26  309.87   14.22   0
  -3  -4 -14  556.73   16.53   0
  -2  -4 -22  534.11   16.47   0
  -2  -4 -19   14.62   10.53   0
  -2  -2 -51    7.09   11.54   0
  -4  -4 -18  407.38   16.13   0
  -3  -4 -29   19.85   10.68   0
  -2  -4 -25   -2.62    9.81   0
  -2  -4 -16 1097.35   19.90   0
  -2  -3 -44  521.81   17.60   0
   0  -2 -37   -9.15    8.63   0
   0  -1 -41   -2.60    8.19   0
  -4  -4 -27    0.21   12.04   0
  -4  -4 -15   -0.53   11.28   0
  -3  -4 -32  535.43   17.75   0
  -3  -4 -11    9.59    8.75   0
  -2  -4 -28  707.27   17.45   0
  -1  -3 -40  753.24   18.54   0
  -1  -2 -47   -6.69    9.61   0
   0  -3 -24 2104.31   26.43   0
   0  -3 -21   12.21    7.38   0
   0  -3 -18  656.18   16.39   0
  -4  -4 -30  229.59   14.77   0
  -3  -3 -48  369.99   16.94   0
  -3  -2 -55   -2.13   11.42   0
  -2  -4 -31  -18.85   11.65   0
   0  -3 -27  -10.95    9.15   0
   0  -3 -15    2.68    8.50   0
  -3  -4 -35   -3.76   12.19   0
  -3  -4  -8  815.02   18.84   0
  -4  -4 -33    6.30   12.77   0
  -4  -4  -9   11.74   10.93   0
  -3  -3   6  615.23   17.32   0
  -2  -4 -34  371.61   14.38   0
  -2  -3 -47    3.61   11.64   0
  -2  -3   4  889.67   19.49   0
  -1  -4 -21   19.37   10.64   0
  -1  -3  -1   57.95    7.69   0
   0  -2 -40 1364.70   23.01   0
  -5  -4 -22  224.49   14.80   0
  -2  -2 -54  103.60   12.82   0
  -1  -4 -27   33.95   10.85   0
  -1  -4 -18  986.64   18.63   0
  -1  -3 -43   16.67   10.59   0
   0  -3 -12 2268.21   27.11   0
  -5  -4 -28  195.78   14.90   0
  -5  -4 -25   -3.33   12.28   0
  -5  -4 -19    4.93   12.19   0
  -5  -4 -16  653.52   18.60   0
  -4  -4 -36  345.86   16.10   0
  -3  -4 -38  336.34   15.26   0
  -3  -4  -5   29.52    9.99   0
  -2  -4  -7    1.46    7.90   0
  -1  -4 -15    7.35    8.42   0
   0  -3 -33   -6.27    9.30   0
  -4  -4  -6  372.94   15.03   0
  -3  -3 -51   14.61   11.35   0
  -1  -4 -12 1409.29   21.92   0
  -1  -2 -50  358.59   15.13   0
  -5  -4 -13   -0.01   11.34   0
  -4  -4 -39   -0.66   11.90   0
  -3  -4 -41   15.66   12.40   0
  -1  -4 -33   -4.87   11.05   0
   0  -3  -9   -0.36    6.71   0
  -2  -4 -40  542.71   16.58   0
  -2  -4  -4 1152.42   20.73   0
  -2  -3 -50  441.02   17.18   0
  -1  -3 -46  182.73   13.13   0
   0  -3 -36  800.05   17.39   0
   0  -2 -43   -6.49    9.06   0
  -5  -4 -10  258.95   14.06   0
  -3  -4  -2  402.66   14.60   0
  -1  -4 -36  841.15   18.88   0
  -1  -4  -9   42.58    9.63   0
  -4  -4  -3    4.96   10.08   0
  -1  -3   2  952.36   19.45   0
  -3  -4 -44  343.10   14.79   0
   0  -3 -39   -1.50    9.65   0
   0  -3  -6 2100.33   26.36   0
  -2  -4  -1    6.01    8.64   0
  -2  -3 -53   -0.54   11.35   0
  -2  -3   7   24.38    7.60   0
  -1  -3 -49   -8.38   10.48   0
   0  -4 -26 1009.20   19.01   0
   0  -4 -23    4.84    8.01   0
   0  -4 -20 1688.26   23.25   0
   0  -4 -29   11.58    9.71   0
   0  -4 -17   -7.31    8.51   0
   0  -2 -46  523.51   15.92   0
  -3  -5 -25   14.76   11.23   0
  -3  -4   1   17.68    9.20   0
  -2  -5 -24  783.46   18.71   0
  -2  -5 -21    8.81   10.56   0
  -1  -4 -42  441.26   14.86   0
   1  -2 -27    0.40    7.11   0
   1  -2 -24 1902.46   26.13   0
   1  -2 -21   43.24    7.89   0
  -3  -5 -28  352.47   14.81   0
  -3  -5 -19    4.58    9.67   0
  -2  -5 -30  379.23   15.50   0
   0  -4 -32  693.76   16.27   0
   0  -4 -14  419.66   13.94   0
  -3  -5 -31   -3.17   11.13   0
  -3  -5 -16  756.85   17.38   0
  -1  -4  -3   -0.53    8.18   0
   1  -2 -30  814.31   18.34   0
  -4  -5 -26  331.92   15.21   0
  -4  -5 -23   10.67   11.03   0
  -3  -5 -34  347.23   15.04   0
  -3  -5 -13    0.96   10.53   0
  -2  -5 -33    7.23   10.55   0
  -2  -4 -49    3.74   11.52   0
  -2  -3 -56  274.05   15.25   0
  -1  -4 -45   -1.90   10.98   0
  -1  -3 -52  499.22   16.51   0
   0  -3  -3   -3.73    7.29   0
  -4  -5 -17   12.80   11.84   0
  -2  -5 -36  350.72   15.23   0
  -2  -5 -12  587.85   16.57   0
  -2  -4   2  754.16   17.50   0
  -1  -5 -29   25.30   10.82   0
  -1  -5 -26  392.09   13.99   0
  -1  -5 -23    3.61    9.48   0
   0  -4 -11   -4.84    7.32   0
   0  -3 -45    4.37    9.46   0
   1  -2 -33   12.19    8.77   0
   1  -1 -31    0.24    6.54   0
  -3  -5 -37    1.98   12.19   0
  -3  -5 -10  399.42   15.14   0
  -1  -5 -32  709.26   18.11   0
  -1  -5 -17    2.69    8.99   0
  -1  -3   5   11.98    7.09   0
   0  -4 -38  252.21   13.22   0
  -4  -5 -14  178.08   12.45   0
  -3  -4   4  913.21   19.95   0
  -2  -5 -39    8.80   11.26   0
   1  -3 -29    9.75    8.30   0
   1  -3 -20 1741.05   23.99   0
  -2  -5  -9   -1.14    8.40   0
  -1  -5 -35  -11.05   11.71   0
  -1  -5 -14  596.44   15.14   0
  -1  -4 -48  311.37   14.40   0
   0  -4  -8 1845.13   23.96   0
  -4  -5 -11   -9.30   10.43   0
  -3  -5  -7    6.18   10.08   0
  -1  -4   0 1767.05   24.28   0
   0  -4 -41   -3.33    8.54   0
   0  -3 -48  715.52   18.46   0
   1  -3 -32 1635.41   23.60   0
   1  -3 -17   22.61    7.17   0
   1  -2 -36 1267.65   22.07   0
  -2  -5 -42  250.29   13.78   0
  -1  -5 -38  330.64   14.93   0
  -1  -3 -55    0.81   10.53   0
  -2  -5  -6  626.52   16.57   0
   1  -3 -35   -1.54    8.49   0
  -4  -5  -8  601.77   16.94   0
  -1  -5 -41   21.17   11.12   0
   0  -5 -28 1007.63   19.50   0
   0  -5 -25    1.22    8.68   0
   0  -5 -22  428.30   13.44   0
   0  -4 -44  811.31   18.43   0
  -3  -5  -4  442.81   15.02   0
  -2  -5 -45  -13.66   11.11   0
  -2  -4   5   -1.42    7.63   0
  -1  -5  -8 1133.54   19.93   0
  -1  -4 -51    7.98   11.39   0
   0  -5 -31   -7.96    9.17   0
   0  -5 -19   -0.86    8.43   0
   0  -4  -5   -2.23    6.71   0
   1  -2 -39    7.18    7.62   0
   0  -5 -34  505.06   15.55   0
   0  -5 -16  952.39   18.25   0
   1  -4 -25   -3.84    8.82   0
   1  -4 -22  495.46   14.32   0
   1  -3 -38  566.68   15.44   0
  -2  -5  -3   11.76    9.29   0
   0  -3 -51   -2.50    9.33   0
   1  -4 -19   39.02    9.05   0
   0  -5 -13    4.97    8.72   0
   0  -4 -47   -3.58   10.05   0
   1  -3 -11   44.16    7.11   0
  -1  -5  -5    4.91    7.72   0
  -1  -4 -54  153.99   13.78   0
  -1  -4   3   61.04    7.56   0
   1  -4 -34  801.77   16.75   0
   1  -4 -16 2530.41   27.08   0
   1  -3 -41   13.38    8.78   0
  -3  -5  -1    3.99    9.48   0
  -2  -6 -29   11.24   11.00   0
  -2  -6 -26  423.24   14.98   0
  -1  -5 -47   -9.02   11.72   0
  -3  -6 -24  364.68   14.28   0
  -2  -6 -32  447.27   15.87   0
  -1  -6 -25   11.34   11.40   0
  -1  -3   8 2964.62   34.25   0
   0  -5 -10  859.91   17.42   0
   1  -4 -37    6.16    9.25   0
  -3  -6 -21    8.45   11.30   0
  -2  -6 -35    5.44   10.94   0
  -2  -6 -17    2.51    9.98   0
  -1  -6 -31   23.57   11.17   0
  -1  -6 -28  318.05   13.34   0
  -1  -6 -22  314.49   12.96   0
   0  -4 -50  364.78   14.89   0
   1  -4 -13   20.54    7.23   0
  -1  -6 -19   36.93    9.52   0
   1  -3  -8 3518.05   33.00   0
  -6   0 -18  651.46   17.10   0
  -5   0 -20 1051.04   20.16   0
  -1  -2   7    1.11    5.45   0
  -9   1 -10  200.65   12.98   0
  -6  -2  14  249.74   13.08   0
  -6  -2  20  334.23   14.12   0
  -5  -2   0 1024.34   18.97   0
  -5  -2  33   -4.94   10.82   0
  -3  -2  -4  902.34   16.71   0
  -8   0  -8  464.32   14.87   0
  -7  -1  -3    4.59    9.87   0
  -6  -2  11   -1.10    9.32   0
  -6  -2  23    0.80    9.87   0
  -8   1 -18  273.63   13.49   0
  -6  -2   8  826.82   18.53   0
  -4  -2  -5    2.36    7.87   0
  -4  -1 -15   39.95    7.86   0
  -2  -2  -3    4.50    7.52   0
  -8  -1  11   -0.27   10.36   0
  -7   0 -16  824.38   18.91   0
  -6  -2   5    5.69   11.39   0
  -6  -2  26  404.32   14.98   0
  -5  -2  -3    3.71   10.37   0
  -1  -2   4 3083.45   31.62   0
  -7  -1  -6  373.16   14.54   0
  -7   1 -23   18.49    9.71   0
  -9   1 -13    7.77    9.66   0
  -8   0 -11   12.64   10.69   0
  -6  -2   2  361.57   14.97   0
  -6  -2  29   -0.86   10.26   0
  -4   0 -22  915.42   18.90   0
  -3  -2  -7   27.34    7.53   0
  -8  -1   5    1.61    9.57   0
  -6   0 -21    1.56    9.91   0
  -5  -1 -16  929.42   18.52   0
  -4  -2  -8 1200.09   19.93   0
  -3  -3  15   10.54    8.44   0
  -3  -3  18  600.20   15.41   0
  -8  -1   2  253.39   13.70   0
  -6  -2  32  350.50   14.29   0
  -5  -2  -6  303.03   13.66   0
  -3  -3  21   17.33    8.83   0
  -3   0 -21    1.25    7.62   0
  -6  -2  -1   13.59   10.63   0
  -6  -1 -14  243.84   12.01   0
  -5   0 -23    1.88    8.71   0
  -4  -3  17   28.05    9.67   0
  -3  -3   9   19.09    9.03   0
  -2  -2  -6  936.46   17.55   0
  -1  -2   1   82.25    7.68   0
  -8   1 -21   -2.42    9.64   0
  -7   0 -19   -0.49   10.41   0
  -4  -3  11   20.55    8.47   0
  -4  -3  20  726.43   16.15   0
  -4  -1 -18  554.92   15.22   0
  -3  -3  24  877.82   18.01   0
  -2  -3  13   -0.26    7.70   0
  -2  -3  16 2258.14   26.13   0
  -8  -1  -1   12.39   11.08   0
  -8   0 -14  340.84   14.68   0
  -7  -2  10  318.44   13.94   0
  -7  -2  13   -6.21   10.64   0
  -7  -2  19   -1.67    9.93   0
  -4  -3   8  796.40   16.52   0
  -4  -3  23   15.16    9.55   0
  -3  -3   6  663.37   14.81   0
  -3  -2 -10  886.88   17.23   0
  -3  -1 -17    1.27    6.34   0
  -2  -3  19   19.63    6.83   0
  -7  -2  22  151.90   12.24   0
  -6  -2  -4  359.15   15.03   0
  -5  -2  -9   14.84    9.78   0
  -4  -3  26  292.98   12.98   0
  -4  -2 -11   -0.94    9.17   0
  -3  -3  27    2.22    8.21   0
  -2  -3  22  430.16   13.50   0
  -7  -2   7    8.03   10.21   0
  -7  -1 -12  350.76   15.00   0
  -4  -3   5   31.67    8.64   0
  -3  -3   3   19.49    9.13   0
  -2  -3   7   18.66    8.19   0
  -8  -1  -4  368.48   14.50   0
  -7  -2   4  406.06   14.94   0
  -6  -1 -17   27.52   10.92   0
  -5  -3  16  723.15   16.39   0
  -5  -3  19   -2.10    9.95   0
  -5  -1 -19    0.05    9.70   0
  -2  -3  25    2.77    7.61   0
  -6  -2  -7    2.22   11.17   0
  -5  -3  10  418.13   13.72   0
  -5  -3  22  235.32   12.80   0
  -4  -3   2  409.22   13.06   0
  -4  -3  29   13.24    9.05   0
  -3  -3  30  326.51   12.84   0
  -1  -2  -2  748.00   16.15   0
  -8   0 -17    0.66   10.00   0
  -7  -2   1    2.72   10.34   0
  -6   0 -24  721.29   18.11   0
  -5  -3   7    4.97    9.16   0
  -5  -3  25   -1.90   10.62   0
  -3  -3   0 1329.59   19.57   0
  -2  -3   4  888.60   16.30   0
  -2  -2  -9    5.24    6.33   0
  -7   0 -22  246.51   13.36   0
  -4  -3  -1   22.33   10.10   0
  -4   0 -25    4.42    8.53   0
  -2  -3  28  561.87   15.72   0
  -7  -1 -15    7.14   10.43   0
  -4  -1 -21   19.78    8.62   0
  -3  -2 -13    6.92    6.91   0
  -7  -2  -2  237.11   12.61   0
  -6  -2 -10  373.70   14.58   0
  -5  -3   1   -3.04   10.51   0
  -5  -3  28  350.17   14.22   0
  -5   0 -26  382.46   14.19   0
  -3  -3  -3   19.04    9.02   0
  -2  -3   1    1.35    6.91   0
  -4  -3  -4  991.57   18.70   0
  -3  -1 -20 1130.52   19.83   0
  -1  -3  14  831.09   17.01   0
  -1  -3  17    3.46    6.71   0
  -8  -1 -10  213.23   13.14   0
  -6  -3  12  323.77   13.93   0
  -6  -3  18  413.04   14.39   0
  -6  -1 -20  480.97   15.04   0
  -5  -1 -22  362.42   14.17   0
  -1  -3  11   66.24    8.14   0
  -8   0 -20  300.96   14.36   0
  -6  -3   9   10.08   10.17   0
  -6  -3  21    7.15    9.69   0
  -5  -3  -2  378.57   13.49   0
  -2  -3  -2 1026.29   17.88   0
  -1  -3  20 1083.83   19.87   0
  -1  -2  -5    9.28    6.16   0
  -6  -3   6  207.19   11.88   0
  -6  -3  24  358.88   13.75   0
  -3  -3  -6  636.23   14.66   0
  -3   0 -24 1341.71   23.28   0
  -2  -2 -12  948.83   17.17   0
  -7  -1 -18  274.48   14.12   0
  -6  -3   3    8.82   10.46   0
  -4  -3  -7   16.13   10.01   0
  -4  -2 -17   -7.94    8.79   0
  -1  -3  23   37.04    7.69   0
  -8  -1 -13    6.97    9.82   0
  -7  -2  -8  443.54   15.47   0
  -6  -3  27    8.96    9.18   0
  -5  -3  -5  -15.25    9.20   0
  -1  -3   5   15.38    6.32   0
  -2  -3  -5   28.91    7.95   0
  -4  -1 -24 1361.32   21.86   0
  -3  -3  -9   23.34    9.20   0
  -6  -1 -23   24.43   10.97   0
  -5  -3  -8  833.54   18.48   0
  -5  -2 -18  654.71   15.97   0
  -4  -3 -10  561.16   15.53   0
  -3  -4  13   33.26    9.58   0
  -3  -4  16  654.55   16.22   0
  -1  -3   2  950.49   16.93   0
  -1  -3  26  749.88   17.63   0
  -6  -3  -3   26.70    9.88   0
  -6  -2 -16  735.93   16.76   0
  -5  -1 -25   25.98    9.86   0
  -4  -4  15   -2.92   10.34   0
  -3  -4  19    6.75    9.10   0
  -1  -2  -8 3437.72   32.26   0
  -7  -1 -21    4.64   10.69   0
  -4  -4  18  398.76   14.30   0
  -4   0 -28  803.03   18.81   0
  -3  -4   7   12.53    8.41   0
  -2  -1 -19    2.08    6.69   0
  -4  -4   6  339.85   13.95   0
  -4  -4  21   -1.03    9.56   0
  -4  -2 -20  962.04   18.61   0
  -3  -4   4  943.85   18.22   0
  -3  -4  22  326.73   12.15   0
  -3  -1 -23   40.32    8.08   0
  -2  -4  14  452.44   13.63   0
  -2  -3  -8 2624.79   26.32   0
  -6  -3  -6  331.50   13.74   0
  -5  -3 -11   19.70   10.67   0
  -3  -3 -12 1059.35   18.45   0
  -3  -2 -19   18.29    8.38   0
  -2  -4  11   -0.91    7.14   0
  -2  -4  17    0.49    8.28   0
  -1  -3  -1   63.20    7.53   0
  -7  -2 -14  253.58   13.73   0
  -5  -4  14  162.61   13.20   0
  -4  -4   3   16.00    8.84   0
  -4  -4  24  570.64   15.87   0
  -4  -3 -13   27.81    8.94   0
  -3  -4   1   11.02   10.04   0
  -3  -4  25   22.51    9.18   0
  -2  -4  20  914.74   17.92   0
  -6  -2 -19   15.83   10.50   0
  -5  -4   8  648.05   16.52   0
  -5  -4  17   13.47   10.28   0
  -5  -2 -21    3.22   10.28   0
  -2  -4   5    1.07    8.61   0
  -6  -3  -9   -2.93   10.71   0
  -6  -1 -26  544.39   16.43   0
  -5  -4   5   11.71   11.37   0
  -5  -4  20  318.75   13.85   0
  -4  -4   0  787.38   16.81   0
  -4  -4  27   -1.44    8.93   0
  -2  -4  23    5.13    7.98   0
  -7  -1 -24  519.73   17.01   0
  -5  -4  23    2.79   10.31   0
  -3  -4  -2  394.28   12.74   0
  -2  -4   2  749.59   15.38   0
  -2  -3 -11   10.64    7.91   0
  -1  -3  -4 1434.28   20.15   0
  -5  -4   2  372.34   14.88   0
  -4  -4  -3    3.35   10.44   0
  -4  -1 -27   24.84    8.64   0
  -1  -2 -11   47.02    6.68   0
  -7  -2 -17    6.12   10.97   0
  -5  -4  26  316.08   14.06   0
  -5  -1 -28  735.57   17.84   0
  -4  -2 -23    4.39    8.70   0
  -3  -3 -15   -1.24    7.77   0
  -2  -4  -1   -0.73    8.59   0
  -2  -4  26  538.88   14.93   0
  -5  -4  -1   15.56   11.10   0
  -3  -4  -5   40.56    8.53   0
  -3   0 -27   -2.69    6.57   0
  -6  -2 -22  230.57   13.51   0
  -4  -4  -6  358.37   14.64   0
  -3  -2 -22  450.43   13.05   0
  -1  -4  12 1191.69   19.31   0
  -1  -4  15   40.38    8.21   0
  -5  -4  -4  291.12   13.89   0
  -5  -2 -24  580.37   15.97   0
  -2  -4  -4 1140.04   18.71   0
  -1  -4   9    8.00    6.66   0
  -1  -4  18  511.29   14.16   0
  -1  -3  -7   49.23    7.18   0
  -3  -4  -8  797.43   17.00   0
  -3  -1 -26  880.16   18.32   0
  -2  -3 -14  479.27   13.04   0
  -2  -1 -22  571.06   15.16   0
  -7  -2 -20  314.58   13.67   0
  -6  -3 -15   20.77   11.00   0
  -4  -4  -9    3.05   10.55   0
  -4  -3 -19   -2.56    9.37   0
  -1  -4  21   12.18    7.53   0
   0  -3  12 2693.83   30.38   0
  -5  -4  -7   19.45   10.98   0
  -1  -4   3   56.80    7.83   0
   0  -3   9   -1.50    6.45   0
   0  -3  15    3.73    6.34   0
  -2  -4  -7    1.37    7.70   0
  -1  -2 -14 1696.95   23.20   0
  -6  -2 -25    2.57   11.14   0
  -5  -3 -20  418.96   15.47   0
  -4  -2 -26  566.70   15.74   0
  -3  -4 -11   13.27    9.52   0
  -1  -4   0 1753.39   22.08   0
  -1  -4  24 1265.75   21.47   0
   0  -3  18 1457.14   24.12   0
  -5  -4 -10  284.94   13.63   0
  -4  -4 -12  515.50   15.56   0
  -3  -5  11    1.65   10.36   0
  -3  -5  14  291.46   13.42   0
  -2  -2 -21    0.03    7.10   0
  -1  -3 -10 1362.00   19.61   0
  -6  -3 -18  246.53   12.96   0
  -5  -2 -27   13.27    9.69   0
  -4  -1 -30  510.39   15.32   0
  -3  -5  17    1.73    9.81   0
  -3  -2 -25    1.92    8.28   0
   0  -3   3   -3.03    6.57   0
  -4  -5  10  262.58   12.74   0
  -4  -5  13   -0.76    9.80   0
  -4  -5  16  636.95   16.34   0
  -4  -3 -22  328.52   13.41   0
  -3  -5   5    9.59    8.60   0
  -3  -5  20  393.82   15.31   0
  -2  -4 -10  519.00   13.68   0
  -1  -4  -3    2.86    7.73   0
  -4  -5  19    6.88    9.83   0
  -3  -5   2  404.27   14.29   0
  -3  -4 -14  542.02   15.56   0
  -3  -3 -21   19.72    8.02   0
  -2  -5   9   -3.72    9.34   0
  -2  -5  12  730.26   16.54   0
  -2  -5  15   10.30    9.07   0
  -5  -4 -13    1.83   10.45   0
  -4  -5   1  -20.93   11.21   0
  -4  -4 -15    3.93   10.18   0
  -3  -5  23    2.82   10.64   0
  -2  -5  18  657.14   16.16   0
  -5  -3 -23    8.38   10.51   0
  -4  -5  22  202.29   11.67   0
  -3  -5  -1    0.16    8.83   0
  -2  -5   3    1.91    9.54   0
   0  -3   0 2818.75   28.89   0
  -6  -3 -21   13.78   11.14   0
  -4  -5  -2  373.56   14.34   0
  -2  -5  21    3.92    8.50   0
  -2  -4 -13   11.30    9.10   0
  -1  -4  -6  487.39   12.85   0
  -1  -3 -13   29.34    6.61   0
  -6  -2 -28  300.91   14.48   0
  -5  -5   3    0.11   10.97   0
  -4  -2 -29    1.54    9.22   0
  -3  -5  -4  427.35   14.58   0
  -3  -1 -29    3.50    7.39   0
  -2  -5   0  961.88   17.53   0
  -3  -4 -17   20.39    9.59   0
  -2  -5  24  557.05   16.04   0
  -2  -1 -25   20.57    6.90   0
  -5  -5   0  444.36   14.66   0
  -5  -2 -30  183.99   12.28   0
  -4  -5  -5   16.41   10.28   0
  -4  -3 -25   28.60    9.11   0
  -2  -5  -3   -0.03    8.40   0
   0  -3  -3    1.40    5.77   0
  -3  -5  -7   -0.68    8.94   0
  -3  -2 -28  605.83   15.69   0
  -2  -2 -24 2316.02   26.35   0
  -1  -5  10  699.26   15.93   0
  -1  -5  13   32.96    8.53   0
  -1  -4  -9   56.36    7.90   0
   0  -4  10  551.62   14.15   0
  -6  -3 -24  501.80   16.82   0
  -5  -5  -3    2.35   11.07   0
  -5  -3 -26  404.69   15.60   0
  -4  -5  -8  639.89   16.64   0
  -2  -4 -16 1065.63   18.39   0
  -1  -5  16  923.69   17.86   0
   0  -4  13   -2.28    5.62   0
  -2  -5  -6  666.36   15.17   0
  -1  -3 -16 2483.58   25.92   0
   0  -4  16 1943.25   25.24   0
  -5  -5  -6  227.53   12.68   0
  -5  -4 -19    7.69    9.83   0
  -3  -5 -10  420.47   13.47   0
  -1  -5   1   29.91    8.13   0
  -1  -5  19    6.39    8.11   0
  -4  -5 -11   12.51   11.13   0
  -4  -4 -21    8.70   10.95   0
  -1  -4 -12 1500.44   20.76   0
   0  -4   1    0.69    7.23   0
   0  -4  19   -3.17    6.50   0
   0  -3  -6 2168.49   24.95   0
  -2  -5  -9  -11.67    8.48   0
  -2  -3 -23   22.66    8.43   0
  -1  -5  -2  465.68   13.02   0
  -1  -5  22  342.16   12.66   0
  -4  -3 -28  667.18   17.22   0
  -4  -2 -32  612.79   17.12   0
  -3  -5 -13   -1.71   10.36   0
  -3  -3 -27    1.24    9.24   0
  -2  -4 -19    3.67    7.94   0
  -1  -5  -5    1.30    9.17   0
  -1  -2 -20 1628.21   22.50   0
   0  -4  -2 1598.74   20.82   0
  -6  -3 -27    5.54    9.84   0
  -5  -3 -29   -2.25   10.99   0
  -4  -5 -14  188.68   12.91   0
  -3  -6   9   -2.36   10.28   0
  -2  -5 -12  598.67   15.41   0
   0  -4  22  844.07   18.15   0
  -4  -4 -24  574.88   16.38   0
  -3  -6  12  285.68   13.49   0
  -3  -6  15   29.29   10.40   0
  -3  -4 -23   -6.52   10.08   0
  -2  -2 -27    1.69    7.23   0
  -1  -4 -15    9.33    8.58   0
   0  -3  -9    2.44    5.93   0
  -3  -2 -31    4.09    8.16   0
  -2  -6   7   -9.77    9.89   0
  -2  -6  10  384.74   14.23   0
  -2  -6  13    1.64    9.83   0
  -1  -5  -8 1178.33   19.12   0
   0  -4  -5    4.12    6.51   0
  -3  -6   0  654.35   16.05   0
  -3  -6  18  232.86   12.79   0
  -2  -6  16  724.20   17.07   0
  -4  -5 -17   17.25   10.89   0
  -3  -6  -3   -8.51   10.75   0
  -2  -6   1    2.88    8.61   0
  -2  -5 -15   12.79   10.09   0
  -2  -3 -26  941.14   18.08   0
  -2  -1 -28 1726.18   25.33   0
  -5  -4 -25    6.29   10.37   0
  -4  -3 -31    1.50    9.89   0
  -3  -6  21   -3.31    9.45   0
  -2  -6  -2  386.53   13.99   0
  -2  -6  19   -4.18    8.73   0
   0  -5   8 1223.75   18.90   0
   0  -5  11   -4.85    7.80   0
  -3  -6  -6  174.83   12.75   0
  -1  -5 -11   21.08    8.04   0
  -1  -4 -18  992.64   17.85   0
   0  -5   2  493.72   13.69   0
   0  -5  14  829.13   16.98   0
   0  -4  -8 1785.37   21.78   0
  -4  -4 -27   -1.84   10.61   0
  -3  -5 -19   14.10    8.98   0
  -3  -4 -26  314.98   13.88   0
  -3  -3 -30  359.81   12.86   0
  -2  -6  -5  -14.15   10.14   0
  -1  -6   8  999.40   18.42   0
  -1  -6  11   16.46    9.32   0
   0  -3 -12 2242.48   24.99   0
  -5  -3 -32  461.18   15.38   0
  -2  -5 -18  346.93   13.64   0
  -1  -6  14  236.30   12.05   0
  -1  -3 -22  485.29   13.46   0
   0  -5  -1   -1.36    8.15   0
   0  -5  17    4.79    7.59   0
  -3  -6  -9    5.32   10.56   0
  -1  -2 -23    7.65    5.79   0
  -2  -6  -8  829.77   16.77   0
  -2  -4 -25   -3.36    9.41   0
  -1  -6  -1    8.41    8.23   0
  -1  -6  17   12.81    9.07   0
  -1  -5 -14  599.43   14.38   0
   0  -5  -4 1525.92   20.76   0
   0  -5  20  982.33   18.93   0
   0  -4 -11    6.02    7.67   0
  -5  -4 -28  233.30   12.64   0
  -3  -6 -12  345.14   14.23   0
  -3  -2 -34  705.18   17.72   0
  -2  -6 -11   13.05   10.80   0
  -2  -2 -30  282.85   11.77   0
  -1  -6  -4  440.86   13.21   0
  -1  -6  20  433.51   13.95   0
  -4  -5 -23    5.31   10.58   0
  -4  -3 -34  342.91   15.15   0
  -3  -4 -29    2.89   10.53   0
  -2  -5 -21   -5.39    9.37   0
  -2  -3 -29    6.26    6.97   0
   0  -5  -7    5.65    8.33   0
   0  -3 -15    5.54    6.91   0
  -1  -6  -7   26.56    8.87   0
  -1  -5 -17   12.21    9.36   0
  -3  -6 -15    5.42   10.44   0
  -3  -3 -33   16.29    8.92   0
   0  -4 -14  452.73   12.38   0
  -3  -5 -25   -5.12   10.74   0
  -2  -6 -14  227.87   11.58   0
  -1  -3 -25    3.40    7.48   0
   0  -5 -10  906.22   17.01   0
  -2  -4 -28  707.00   16.46   0
  -1  -6 -10  389.46   12.97   0
   0  -6   6  358.08   12.75   0
   0  -6   9   -0.98    8.13   0
  -4  -5 -26  356.93   14.02   0
  -2  -1 -31    3.77    6.56   0
   0  -6   0 1227.78   19.49   0
   0  -6  12  705.84   16.09   0
  -3  -6 -18  413.51   14.69   0
  -2  -7   5    3.10    9.58   0
  -2  -7   8  450.00   14.14   0
  -2  -7  11   -3.99    9.44   0
  -2  -6 -17    5.49   10.17   0
  -1  -5 -20  734.52   15.64   0
  -1  -2 -26  687.80   15.88   0
   0  -6  15    9.76    8.16   0
  -2  -7  -1    8.83   10.22   0
  -2  -7  14  251.49   12.12   0
  -1  -6 -13    4.44    8.61   0
   0  -6  -3    2.92    9.05   0
   0  -5 -13   -9.18    8.61   0
   0  -4 -17    1.85    7.77   0
   0  -3 -18  637.40   14.27   0
   1  -4   8 3094.88   30.19   0
  -4  -4 -33    4.81    9.78   0
  -2  -7  -4  393.26   14.68   0
  -2  -3 -32 1088.95   19.64   0
   1  -4  11   72.98    7.79   0
  -3  -5 -28  379.08   14.36   0
  -2  -7  17   -0.49    8.74   0
  -1  -7   3   10.59   10.34   0
  -1  -7   6  344.85   13.60   0
  -1  -7   9   -0.46    9.87   0
   0  -6  -6  603.28   15.33   0
   0  -6  18  617.97   15.64   0
   1  -4  -1   56.97    7.85   0
   1  -3   1   81.42    7.31   0
  -2  -7  -7    3.00   10.04   0
  -2  -6 -20  357.32   14.05   0
  -2  -2 -33   -1.68    7.23   0
  -1  -7  12  331.43   13.26   0
  -1  -6 -16 1048.24   19.12   0
   1  -4  14  849.78   17.75   0
  -4  -5 -29    7.73    9.93   0
  -3  -3 -36  553.05   16.15   0
  -2  -5 -27    5.72   10.53   0
  -2  -4 -31   -4.33    8.76   0
  -1  -7  -3    7.83   10.50   0
  -1  -7  15    6.55   10.68   0
  -1  -3 -28  997.83   18.16   0
   0  -6  -9    0.73    9.30   0
   0  -5 -16  974.89   17.62   0
   1  -5   6 1091.26   18.33   0
  -1  -4 -27    5.57    8.61   0
   1  -5   9    3.36    6.13   0
   1  -4  -4 1442.48   19.95   0
   1  -3  -2  735.70   15.76   0
  -2  -7 -10  327.38   13.10   0
   0  -4 -20 1652.07   21.16   0
   1  -5   0 1761.66   21.71   0
   1  -5  12 1195.49   19.60   0
  -1  -7  18  263.63   12.57   0
  -1  -6 -19   36.26   10.49   0
   0  -6 -12  579.46   14.66   0
   0  -2 -19    2.55    6.35   0
   1  -5  -3    5.06    7.70   0
   1  -4  17    1.40    5.94   0
  -3  -5 -31    4.76   10.11   0
  -3  -4 -35   -1.28    9.79   0
  -2  -7 -13    7.79   10.12   0
  -1  -7  -9   21.12   10.29   0
   1  -5  15   38.59    7.53   0
   1  -4  -7   33.19    6.80   0
   1  -3  -5   13.92    5.90   0
  -1  -2 -29   14.32    6.82   0
   0  -7   4  399.67   14.20   0
   0  -7   7   -0.65    9.39   0
   0  -5 -19    2.50    7.43   0
  -2  -5 -30  357.59   14.21   0
  -2  -3 -35   10.43    8.53   0
   0  -7  10  400.07   13.59   0
   1  -5  -6  503.54   12.82   0
  -2  -7 -16  417.03   14.36   0
  -1  -6 -22  299.60   13.29   0
   0  -7  -2  411.68   13.02   0
   0  -7  13    5.62    9.23   0
   0  -6 -15    0.44    8.23   0
   1  -4 -10 1386.00   19.81   0
  -3  -6 -27   13.55   10.94   0
  -2  -4 -34  356.64   13.52   0
  -1  -4 -30  306.89   12.14   0
   0  -7  -5    5.80    9.17   0
   1  -6   4 1046.05   17.51   0
   1  -6   7    2.57    6.90   0
   1  -5  -9   50.81    8.31   0
   1  -5  18  511.16   14.28   0
   1  -4  20  985.86   20.43   0
   1  -3  -8 3532.71   31.94   0
  -1  -7 -15   14.39   10.72   0
  -1  -3 -31   35.43    8.11   0
   0  -7  16  789.74   17.28   0
   1  -6  -2  490.34   13.76   0
   1  -6  10  701.16   15.16   0
   0  -7  -8  911.50   18.00   0
   0  -6 -18  409.54   13.52   0
   1  -6  13   34.09    8.33   0
  -3  -5 -34  332.56   13.65   0
  -2  -7 -19    4.72    9.15   0
  -1  -5 -29   14.15    9.09   0
   0  -3 -24 1916.00   23.32   0
   1  -6  -5    2.67    7.41   0
   1  -5 -12 1479.24   20.21   0
   1  -4 -13   22.31    7.81   0
  -2  -5 -33    8.50   10.00   0
   0  -7 -11   -3.86   10.19   0
   0  -2 -22 2142.38   26.19   0
  -1  -8   4  392.50   14.13   0
  -1  -7 -18  426.68   14.09   0
   1  -6  -8 1135.65   17.84   0
   1  -6  16  911.57   17.78   0
   1  -3 -11   45.68    6.68   0
  -2  -7 -22  150.27   12.49   0
  -2  -6 -29   -1.81   11.05   0
  -1  -8   1    5.90    9.17   0
  -1  -8   7    9.49   10.05   0
  -1  -8  10  218.49   12.77   0
   0  -6 -21   -5.20    9.73   0
   0  -4 -26 1032.20   18.09   0
  -1  -8  -5    2.15   10.28   0
   0  -7 -14  267.59   13.33   0
   1  -6 -11   16.70    8.78   0
   1  -5 -15   10.76    8.41   0
  -2  -4 -37   -2.45    8.89   0
  -1  -7 -21    7.07   10.20   0
  -1  -4 -33    7.92    8.97   0
   1  -6  19    3.16    8.12   0
   1  -4 -16 2444.81   25.00   0
  -1  -8  -8  336.87   13.16   0
   1  -7   2  568.89   14.16   0
   1  -7   5   31.10    8.17   0
   1  -7   8 1049.88   18.78   0
  -3  -5 -37    7.08    9.21   0
  -1  -5 -32  697.94   15.81   0
  -1  -3 -34  825.36   17.21   0
   0  -8   2  205.08   12.48   0
   0  -8   5    9.01   10.31   0
   0  -7 -17   16.81   10.51   0
   0  -3 -27   -0.94    6.96   0
   1  -7  -4  438.23   14.11   0
   1  -7  11   10.82    8.96   0
   1  -6 -14  587.77   14.47   0
   1  -3 -14 1839.26   22.88   0
  -2  -5 -36  345.95   14.17   0
  -1  -8 -11   -4.67    9.91   0
   0  -8  -1   -4.25   10.25   0
   0  -8   8  499.43   14.68   0
   0  -6 -24  961.81   17.56   0
   1  -5 -18  967.06   17.10   0
  -1  -7 -24  421.16   14.68   0
   0  -8  11    1.35    9.50   0
   1  -7  -7   23.35    8.60   0
   1  -7  14  227.10   12.42   0
   0  -8  -7   -4.93    9.78   0
   0  -4 -29   -7.60    8.13   0
   1  -7 -10  385.96   13.68   0
   1  -6 -17   24.96    9.32   0
   1  -4 -19   39.46    7.12   0
  -1  -6 -31    7.67   10.52   0
   0  -8  14  279.12   12.81   0
   0  -2 -25    0.25    6.47   0
  -1  -1 -30  778.93   18.51   0
   0  -8 -10  371.86   14.08   0
   1  -7  17   17.06    9.12   0
   1  -3 -17   25.26    7.14   0
  -1  -5 -35   -8.48    9.63   0
  -1  -4 -36  807.37   17.56   0
   1  -7 -13   -8.21    8.35   0
   1  -5 -21   26.23    7.66   0
   0  -8 -13   12.53    9.98   0
   0  -7 -23    7.07   10.23   0
   1  -6 -20  770.77   16.20   0
  -2  -6 -35    5.96   10.44   0
   1  -4 -22  504.50   13.52   0
   2  -5  -2 1031.55   17.56   0
   2  -5   4  914.82   16.92   0
  -2  -5 -39   -0.80    9.34   0
   0  -8 -16  350.83   13.86   0
   0  -5 -31  -11.05    7.71   0
   0  -3 -30  795.93   16.50   0
   1  -8   0  683.35   16.61   0
   1  -8   3   13.69    9.93   0
   1  -8   6  358.72   13.62   0
   1  -7 -16 1029.48   17.87   0
   2  -6   2  731.16   14.92   0
   2  -6   5    4.27    7.65   0
   2  -5   7   19.55    7.28   0
  -1  -6 -34  377.39   14.29   0
  -1  -3 -37   -0.18    7.58   0
  -1  -2 -35    0.09    7.35   0
   0  -4 -32  721.50   15.90   0
   1  -8  -6  211.55   12.80   0
   1  -8   9   -2.89    9.51   0
   2  -6  -4 1176.61   18.73   0
   2  -6   8 1160.20   19.05   0
   2  -5  -5   25.70    6.74   0
   0  -6 -30  297.95   13.32   0
   1  -6 -23   13.16    9.46   0
   1  -5 -24  933.48   16.58   0
   2  -6  -7    4.99    8.48   0
   2  -5  10  893.87   17.38   0
  -1  -7 -30  140.93   12.08   0
   0  -8 -19   -6.71   10.51   0
   1  -8  -9   21.43   10.35   0
   1  -7 -19   14.82    8.82   0
   2  -6  11    4.72    7.38   0
   2  -5  -8 2534.48   25.30   0
   2  -7   0  994.30   17.89   0
   2  -6 -10  530.22   13.82   0
   2  -4  -3   -4.21    6.71   0
   2  -4   0 4453.71   34.96   0
  -1  -5 -38  301.11   13.32   0
  -1  -4 -39   11.44    8.87   0
   1  -8 -12  426.00   14.00   0
   2  -7   3   -5.16    7.40   0
   2  -5 -11    1.92    6.98   0
   2  -5  13    3.95    6.59   0
   2  -4   6  928.92   17.66   0
   0  -5 -34  482.38   14.31   0
   1  -7 -22  307.54   13.30   0
   2  -7  -6  652.14   14.76   0
   2  -6  14  461.60   13.63   0
   2  -4  -6  945.59   16.57   0
   0  -8 -22  152.68   12.37   0
   1  -8 -15   -3.19   10.00   0
   2  -7  -9    6.46    8.85   0
   2  -7   9   12.68    8.60   0
   2  -6 -13    3.91    7.39   0
   2  -4   9    0.97    5.96   0
  -1  -7 -33   -2.17    9.52   0
  -1  -6 -37    5.64    9.68   0
   0  -6 -33   -3.65    8.67   0
   0  -3 -33    2.39    7.43   0
   2  -5 -14  482.73   12.43   0
   2  -4  -9   -1.04    7.21   0
   0  -4 -35   -1.42    8.16   0
   1  -3 -23    8.91    6.00   0
   2  -7 -12  612.51   14.96   0
   2  -7  12  699.39   16.07   0
   2  -6 -16 1093.18   18.30   0
   0  -8 -25    3.65   10.68   0
   1  -8 -18  419.66   14.03   0
   1  -7 -25   -3.20    9.98   0
   2  -6  17   -4.91    7.93   0
   2  -5  16 2170.25   27.07   0
   1  -4 -28  989.04   17.59   0
   2  -8  -2  405.55   14.12   0
   2  -8   1   -3.00    9.96   0
   2  -5 -17    4.28    8.21   0
   2  -4 -12  959.93   16.50   0
   2  -4  12  934.36   18.46   0
   0  -7 -32  504.17   15.06   0
   1  -9  -5   -1.09    9.61   0
   1  -9  -2  228.05   12.79   0
   1  -9   1    9.72   10.19   0
   1  -9   4  376.55   13.39   0
   1  -5 -30  299.74   12.18   0
   2  -8   4  377.85   13.70   0
   2  -7 -15    8.39    8.45   0
   2  -7  15    3.36    8.02   0
  -1  -5 -41   18.18    9.99   0
   0  -5 -37   -2.33    8.91   0
   1  -9   7    6.62    9.49   0
   1  -8 -21   10.30    9.65   0
   2  -8  -8  835.50   17.30   0
   2  -8   7   -1.44    8.85   0
   2  -6 -19   -2.46    7.69   0
   0  -6 -36  333.21   13.97   0
   1  -7 -28  316.69   13.66   0
   2  -7 -18  339.91   12.73   0
   2  -4 -15    2.19    7.34   0
  -1  -6 -40  462.16   14.75   0
   0  -2 -31   -1.10    7.08   0
   1  -9 -11    9.33    8.93   0
   2  -8 -11    0.92    8.73   0
   2  -8  10  364.13   13.45   0
   2  -5 -20  820.90   15.53   0
   1  -3 -26  667.66   14.49   0
   2  -8 -14  224.94   13.06   0
   2  -6 -22  558.76   14.81   0
   0  -7 -35   -7.27   10.66   0
   0  -4 -38  250.95   11.57   0
   2  -8  13    3.74    9.92   0
   2  -7 -21    1.22    9.83   0
   2  -4  15    1.54    5.98   0
   0  -3 -36  751.01   16.48   0
   1  -4 -31   26.32    8.21   0
   2  -4 -18 1376.84   19.58   0
   1  -5 -33   14.40    7.57   0
   2  -8 -17  -11.23    8.78   0
   2  -5 -23   29.16    8.07   0
   2  -3  -1   79.79    7.23   0
   0  -6 -39   -2.84   10.05   0
   1  -8 -27    0.35   10.28   0
   2  -9  -1    0.05   10.32   0
   2  -6 -25    6.41    9.28   0
   0  -5 -40  394.66   14.11   0
   2  -9  -4  361.68   14.20   0
   2  -9   2  227.13   11.92   0
   2  -8 -20  374.00   14.14   0
   2  -7 -24  802.58   17.51   0
   2  -3  -7   -2.38    5.62   0
   2  -9 -10  335.85   13.59   0
   2  -9   5   10.74    9.22   0
   1  -6 -35   -3.37    9.95   0
   1  -3 -29   11.29    7.13   0
   1  -2 -21   34.77    5.96   0
   2  -4 -21   -1.71    6.37   0
   2  -3 -10 2221.96   25.16   0
   3  -7  -5   15.35    7.88   0
   3  -7   1   29.28    7.55   0
   3  -6  -6  650.07   14.80   0
   3  -6  -3   12.11    7.21   0
   3  -6   3   13.99    7.85   0
   1  -7 -34  344.73   13.70   0
   2  -9 -13    6.85   10.08   0
   2  -8 -23   -2.39   10.39   0
   3  -7  -8  789.29   15.77   0
   3  -7   4  955.39   17.12   0
   3  -6  -9   20.22    8.84   0
   1  -5 -36  806.95   16.92   0
   1  -4 -34  815.98   16.78   0
   2  -7 -27   14.67    8.46   0
   3  -7 -11   14.56    8.12   0
   3  -7   7    9.01    8.43   0
   3  -6   6  648.34   15.04   0
   0  -4 -41    0.31    8.18   0
   0  -2 -34  344.76   12.23   0
   2  -9 -16  410.86   14.40   0
   2  -3 -13   52.07    6.84   0
   3  -8  -1   -4.57    9.54   0
   3  -8   2  406.16   13.72   0
   3  -6 -12 1055.86   17.20   0
   0  -6 -42  307.92   14.54   0
   0  -3 -39    4.29    8.08   0
   3  -8 -10  415.96   14.23   0
   3  -7 -14  539.89   13.77   0
   3  -6   9   19.60    7.77   0
   3  -5  -4  901.61   16.62   0
   2  -9 -19    8.64    9.95   0
   2  -8 -26  432.67   14.34   0
   3  -8   5   13.78    9.23   0
   3  -7  10  571.54   15.00   0
   3  -6 -15   -1.48    7.58   0
   3  -5  -7   20.56    7.99   0
   0  -5 -43   -0.01    9.17   0
   1  -8 -33   -7.43   10.57   0
   1  -6 -38  284.56   12.97   0
   2  -3 -16 2298.09   25.49   0
   3  -8 -13   -3.12   10.34   0
   3  -8   8  818.46   17.92   0
   3  -7 -17   32.44    8.69   0
   3  -5 -10  909.37   16.61   0
   1  -7 -37   11.74   10.09   0
   1  -2 -24 1923.40   24.85   0
   3  -6 -18  604.22   14.85   0
   3  -5   5   14.79    7.52   0
   2  -9 -22  163.64   12.34   0
   3  -8 -16  761.04   15.83   0
   3  -7 -20  717.33   16.24   0
   3  -7  13   29.25    8.33   0
   3  -6  12 1055.07   18.82   0
   3  -5 -13    7.80    7.65   0
   1  -5 -39    9.78    8.81   0
   1  -4 -37   -0.91    8.16   0
   2  -8 -29    1.34   10.48   0
   3  -9  -6  181.79   11.91   0
   3  -9  -3    3.51    9.59   0
   3  -9   0  649.48   16.50   0
   3  -8  11    0.03    8.86   0
   2  -4 -27   -8.75    6.51   0
   3  -9   3   20.89   10.26   0
   3  -8 -19    6.58   10.17   0
   3  -6 -21   19.72    9.36   0
   3  -5   8 2607.55   27.75   0
   2  -7 -33    4.96   10.45   0
   2  -5 -32 1093.49   18.59   0
   2  -3 -19    1.17    5.87   0
   3  -9 -12  330.90   13.18   0
   3  -7 -23  -16.70    9.73   0
   3  -5 -16 2239.19   23.82   0
   2  -6 -34  364.43   13.82   0
   1  -7 -40  452.49   14.46   0
   1  -6 -41    9.63    9.97   0
   3  -9 -15    3.54    9.53   0
   3  -8 -22  233.17   11.34   0
   3  -6  15   -2.80    7.16   0
   3  -5 -19   28.42    8.57   0
   3  -9 -18  421.75   14.39   0
   3  -9   9    1.38    9.26   0
   3  -6 -24  910.78   16.65   0
   3  -5  11   12.01    7.17   0
   1  -2 -27   -0.07    6.01   0
   2  -4 -30  283.39   11.38   0
   3  -7 -26  313.49   13.48   0
   1  -5 -42  447.11   15.13   0
   1  -3 -35    6.11    7.03   0
   3  -8 -25   18.09    9.62   0
   3  -4  -5   18.09    7.16   0
   1  -4 -40  756.12   17.33   0
   2  -5 -35    9.28    8.61   0
   3  -9 -21    2.21   10.43   0
   3  -5 -22  452.37   12.51   0
   3  -4  -8 3153.58   28.53   0
   3  -4  -2  969.31   16.89   0
   2  -8 -35   -4.56   10.18   0
   2  -6 -37    1.84    8.22   0
   3  -6 -27    2.97    7.83   0
   3  -4 -11   65.90    7.58   0
   1  -7 -43    3.88   11.22   0
   3  -9 -24  389.14   14.18   0
   3  -8 -28  363.65   13.67   0
   3  -7 -29   21.56    8.70   0
   3  -5  14  486.41   14.42   0
   1  -6 -44  349.06   13.47   0
   3  -4 -14  863.52   15.66   0
   3  -4   4 1477.49   21.34   0
   4  -8  -9   -9.39    9.70   0
   4  -8  -3    6.19    7.91   0
   4  -8   0  795.79   17.25   0
   4  -7 -10  594.33   14.92   0
   4  -7  -7   20.92    7.67   0
   4  -7  -1   20.41    9.06   0
   2  -7 -39    1.45   10.63   0
   2  -4 -33    8.91    7.88   0
   2  -3 -25   16.46    6.19   0
   3  -5 -25    2.91    7.12   0
   4  -8 -12  494.20   14.93   0
   4  -7 -13   28.46    9.36   0
   4  -7   2  418.03   13.22   0
   3  -4 -17    1.41    7.50   0
   4  -8 -15  -11.73    9.80   0
   4  -8   3    6.04    8.04   0
   1  -2 -30  781.54   16.82   0
   2  -5 -38  182.98   11.10   0
   3  -9 -27    7.55    9.10   0
   3  -8 -31   -6.48    9.83   0
   4  -9  -5   17.72   10.40   0
   4  -9  -2  356.92   13.73   0
   4  -7   5   27.24    8.13   0
   4  -6  -5   -2.21    8.35   0
   2  -6 -40  496.85   15.20   0
   3  -4   7   41.41    7.13   0
   4  -9   1    1.91    9.16   0
   4  -8 -18  378.82   14.25   0
   4  -8   6  358.46   13.23   0
   4  -6 -11   -2.75    8.59   0
   4  -6  -8 1203.83   18.27   0
   4  -9 -14  205.62   11.54   0
   4  -7 -19   -2.16    8.33   0
  -5  -2 -15   10.78   10.03   0
  -4  -4  -3   -4.21    9.61   0
  -1  -4   0 1789.01   23.30   0
   0  -4   7    0.87    6.69   0
  -6  -3  -6  344.08   14.55   0
  -6  -2 -13   -7.84    9.88   0
  -4  -5  10  266.76   14.18   0
  -3  -4  -5   26.17   10.64   0
  -1  -5  10  684.25   16.44   0
   0  -5  23    3.60    8.55   0
   0  -5  26  375.25   13.51   0
  -2  -5   6  287.77   12.34   0
  -2  -4  -4 1148.87   19.10   0
   0  -5  20 1007.86   19.06   0
   0  -5  29    0.32    8.45   0
  -3  -5   5   -1.95    9.76   0
  -3  -3 -12 1033.07   19.54   0
   0  -3   0 2815.14   29.59   0
  -5  -3 -11    7.74   10.75   0
  -4  -5   7   10.46   10.37   0
  -4  -2 -17   -4.56    9.01   0
  -3  -2 -16 2240.71   27.56   0
  -1  -5   7    3.53    9.03   0
  -1  -3  -7   40.40    8.07   0
   0  -5  17    1.28    7.25   0
   1  -4  23   37.70    8.47   0
   1  -4  26  827.98   19.03   0
  -4  -3 -13   24.20   11.00   0
  -2  -5   3   -1.53   10.06   0
   0  -4   4 1763.04   22.72   0
  -3  -5   2  393.69   14.92   0
  -1  -4  -3    7.90    8.76   0
   0  -5  14  827.43   16.55   0
   1  -4  20 1086.46   20.33   0
  -6  -3  -9    1.23   11.08   0
  -4  -5   4  280.81   13.58   0
  -2  -6  22  204.04   12.83   0
  -2  -6  25    1.99   10.28   0
  -2  -6  28  297.23   14.23   0
  -2  -4  -7    6.14    8.19   0
  -1  -5   4 1011.38   18.09   0
   1  -4  17    7.40    7.00   0
  -5  -2 -18  674.97   18.13   0
  -3  -6  24  492.71   15.40   0
  -3  -6  27    6.85   11.13   0
  -2  -6  19   13.00   11.19   0
  -2  -6  31   -7.37   10.56   0
  -2  -5   0  972.98   18.91   0
  -2  -2 -15   -4.43    7.30   0
  -5  -5   6  227.73   13.12   0
  -4  -5   1   -7.99   11.20   0
  -4  -4  -9   12.69   10.83   0
  -3  -5  -1   13.41   11.34   0
  -1  -6  23   24.11   10.74   0
  -1  -2 -11   44.23    7.77   0
   0  -4   1    3.44    7.92   0
  -5  -4  -7    0.01   11.13   0
  -5  -3 -14  303.70   14.38   0
  -4  -1 -21   13.90    8.63   0
  -3  -6  15   20.12   11.93   0
  -3  -3 -15    8.67    9.26   0
  -2  -6  34  247.56   12.84   0
  -1  -6  26  508.73   15.21   0
  -1  -6  29    4.48    9.76   0
   0  -3  -3   -3.30    6.29   0
   1  -4  14  811.47   16.84   0
  -2  -6  13    3.13    9.04   0
  -1  -6  17   11.88   10.94   0
  -1  -6  32  463.00   16.42   0
  -1  -5   1   45.87    9.97   0
  -1  -4  -6  495.49   14.38   0
   0  -5   8 1241.82   19.40   0
  -4  -3 -16  701.46   17.83   0
  -3  -6  12  296.61   13.93   0
  -1  -3 -10 1334.66   20.91   0
  -4  -5  -2  348.89   15.55   0
  -3  -5  -4  456.83   15.76   0
  -2  -6  10  365.10   13.59   0
  -2  -5  -3   11.37    9.25   0
  -2  -4 -10  553.03   15.47   0
   1  -4  11   64.80    8.27   0
  -4  -2 -20  929.53   19.71   0
  -3  -6   9    5.85   10.98   0
  -3  -2 -19   15.16    8.98   0
  -1  -6  11    9.25   10.51   0
   0  -5   5    5.92    8.73   0
  -4  -4 -12  524.50   16.97   0
  -2  -6   7    4.91   10.90   0
  -5  -4 -10  282.80   14.95   0
  -1  -5  -2  496.95   13.93   0
   0  -6  21    9.35    9.42   0
   0  -6  24  732.32   17.47   0
   0  -4  -2 1593.46   21.52   0
   1  -5  24 1293.38   21.75   0
  -3  -6   6  374.29   14.62   0
  -1  -6   8 1012.75   19.28   0
   0  -6  18  631.55   16.21   0
   0  -6  27    5.31    9.43   0
   1  -5  21   16.11    8.17   0
  -5  -3 -17   15.48   10.84   0
  -3  -5  -7   -6.92   10.49   0
  -2  -6   4  362.85   14.64   0
  -2  -5  -6  646.26   15.89   0
  -1  -4  -9   58.49    9.24   0
   0  -6  15    0.89    9.81   0
   1  -5  18  521.96   14.18   0
  -6  -3 -15   25.69   11.01   0
  -3  -4 -14  563.51   16.09   0
  -3  -3 -18  627.77   16.41   0
   0  -5   2  507.47   13.64   0
   0  -3  -6 2149.49   25.73   0
   1  -5  15   40.25    8.37   0
  -5  -5  -3    3.87   11.69   0
  -3  -6   3   24.60   10.94   0
  -1  -6   5   20.49    9.20   0
   0  -6  12  711.29   16.64   0
  -4  -3 -19    2.95   10.38   0
  -2  -6   1   -0.96   11.00   0
  -1  -5  -5    1.04    8.49   0
  -5  -4 -13    1.26   11.63   0
  -4  -5  -8  659.30   17.88   0
  -4  -4 -15    1.38   10.89   0
  -2  -3 -17    7.54    8.39   0
  -1  -3 -13   21.93    7.08   0
   0  -4  -5    4.56    7.98   0
   1  -5  12 1152.85   19.09   0
  -3  -6   0  679.55   17.66   0
  -2  -5  -9    3.08   10.49   0
  -1  -6   2  562.15   15.98   0
   0  -5  -1    2.08    8.43   0
  -5  -5  -6  226.34   12.98   0
  -4  -2 -23   -5.11    8.79   0
  -2  -7  20  326.60   13.64   0
  -2  -6  -2  395.22   14.94   0
   0  -6   6  337.90   13.43   0
   1  -5   9    9.38    6.89   0
  -5  -3 -20  411.78   16.08   0
  -3  -4 -17   20.87   10.53   0
  -3  -2 -22  437.86   14.42   0
  -2  -7  17    5.04   11.26   0
  -2  -1 -19    0.99    6.65   0
  -1  -7  21    0.62   10.57   0
  -1  -7  24  526.94   16.30   0
  -1  -5  -8 1135.21   19.51   0
  -1  -4 -12 1411.20   20.65   0
  -4  -5 -11   -8.13   11.17   0
  -3  -6  -3    4.41   10.65   0
  -1  -7  18  285.72   14.05   0
  -1  -7  27   12.24    9.67   0
  -1  -6  -1   15.47    9.37   0
  -5  -4 -16  647.66   18.27   0
  -2  -7  11   -4.54   10.92   0
  -2  -4 -16 1037.42   18.67   0
  -1  -7  15   10.14   10.07   0
   0  -5  -4 1464.80   21.33   0
   0  -3  -9   -5.49    7.35   0
   1  -4   2  953.02   17.83   0
  -4  -4 -18  369.71   15.58   0
  -3  -5 -13  -10.71   11.07   0
  -3  -3 -21   23.26    9.71   0
  -3  -1 -23   37.33    8.21   0
  -2  -6  -5   12.67   10.97   0
  -2  -5 -12  602.98   15.50   0
   0  -6   3   -1.52    8.55   0
   0  -4  -8 1856.90   23.54   0
   1  -6  19   -1.27    8.69   0
   1  -6  22  355.16   13.40   0
   1  -6  25   19.61    8.91   0
   1  -3   1   80.70    8.67   0
  -4  -3 -22  342.31   14.31   0
  -2  -7   8  456.67   15.34   0
   1  -6  16  885.81   18.15   0
  -3  -6  -6  197.46   12.24   0
  -1  -7   9   12.89    9.61   0
   0  -7  22  231.25   13.13   0
   1  -6  13   22.82    9.58   0
  -2  -7   5   -5.13   11.51   0
  -2  -3 -20  839.89   18.00   0
  -1  -5 -11   19.43   10.16   0
   0  -7  16  812.26   18.48   0
   0  -7  19    1.97   10.66   0
   0  -7  25    3.29    9.37   0
   0  -6   0 1175.84   19.85   0
   1  -5   3   57.42    8.48   0
  -4  -5 -14  201.94   13.40   0
  -2  -2 -21    2.42    7.30   0
  -1  -7   6  382.73   14.74   0
  -1  -4 -15    6.55    8.51   0
   0  -7  13  -12.40   10.77   0
   1  -6  10  728.76   16.51   0
  -3  -4 -20  759.80   18.09   0
   0  -5  -7    6.71    7.84   0
   1  -4  -1   58.83    8.39   0
  -3  -6  -9   14.41   11.20   0
  -3  -5 -16  777.93   18.84   0
  -2  -7   2  222.11   13.05   0
  -1  -6  -7   29.51   10.52   0
   0  -7  10  398.20   14.57   0
  -5  -4 -19    5.92   11.17   0
  -2  -4 -19   -0.39    8.33   0
  -1  -7   3   21.92    9.54   0
  -1  -2 -17   20.32    6.35   0
   0  -6  -3    2.50    9.35   0
  -4  -4 -21   11.82   10.75   0
   0  -4 -11    1.41    7.02   0
   1  -5   0 1703.01   22.11   0
  -2  -7  -1    5.46   11.00   0
  -1  -5 -14  610.59   15.72   0
   0  -3 -12 2171.85   25.82   0
   1  -3  -2  745.66   16.48   0
  -4  -5 -17    3.87   11.27   0
  -3  -3 -24  883.42   19.20   0
  -3  -2 -25    8.15    7.86   0
  -2  -6 -11   -3.34    9.68   0
  -1  -7   0  662.63   16.25   0
  -4  -3 -25    9.32   10.26   0
  -1  -6 -10  376.62   14.35   0
   0  -7   4  364.10   13.37   0
   0  -5 -10  904.64   17.00   0
   0  -6  -6  604.39   15.05   0
   1  -7  17   15.52    9.86   0
   1  -7  20  443.18   14.94   0
   1  -4  -4 1431.58   20.66   0
  -3  -5 -19    4.21   11.12   0
  -3  -4 -23    0.20   10.36   0
  -2  -7  -4  381.62   14.67   0
  -2  -5 -18  317.78   13.06   0
  -2  -3 -23    9.14    8.78   0
  -1  -7  -3   -0.05   11.20   0
  -1  -3 -19   39.43    7.36   0
   0  -7   1   -1.97   11.09   0
   1  -7  14  240.94   12.30   0
   1  -7  23   15.53    9.74   0
   1  -6   1   35.51    9.81   0
   1  -5  -3    2.98    7.21   0
   1  -7  11    8.77   10.06   0
   2  -5  19   19.95    7.97   0
   2  -4  18 1221.99   22.95   0
  -2  -4 -22  529.59   15.61   0
  -1  -8  13    4.07   10.27   0
   0  -4 -14  431.68   13.31   0
   2  -5  16 2248.29   27.81   0
   2  -4  15   -1.55    6.55   0
  -4  -4 -24  586.07   17.77   0
  -2  -7  -7  -19.55   11.50   0
  -1  -6 -13    9.32   10.80   0
  -1  -5 -17    3.55    9.98   0
   1  -7   8 1058.53   19.51   0
   2  -5  13    1.89    7.65   0
  -4  -5 -20  320.08   14.74   0
  -3  -6 -15    8.03   10.90   0
  -1  -7  -6  206.64   12.24   0
   0  -7  -2  384.74   13.59   0
   0  -6  -9    4.57    8.88   0
   0  -5 -13    0.42    7.92   0
   1  -6  -2  495.81   14.29   0
   1  -3  -5   16.50    6.44   0
   2  -4  12  918.24   19.00   0
   0  -8  14  324.03   13.95   0
   0  -8  17   -7.98   10.92   0
   0  -8  20  302.91   14.15   0
   0  -8  23    0.37   10.03   0
   1  -5  -6  475.73   13.04   0
   1  -4  -7   36.05    8.38   0
   2  -5  10  911.04   18.14   0
   0  -8  11  -11.82   10.73   0
   0  -3 -15    0.19    6.27   0
   2  -6  17    1.04    8.09   0
   2  -6  20  931.60   19.50   0
  -3  -5 -22  226.01   13.81   0
  -3  -3 -27    4.28    8.97   0
  -2  -5 -21   -5.72    8.88   0
  -1  -8   4  397.77   14.69   0
   0  -7  -5   -0.41   10.89   0
   2  -6  14  468.33   14.23   0
   2  -4   9   -1.26    6.53   0
  -2  -7 -10  337.94   13.86   0
  -1  -7  -9   15.81   11.47   0
  -1  -4 -21   35.21    8.15   0
   0  -8   8  483.80   15.75   0
   1  -6  -5    4.34    9.70   0
   2  -6  11    8.02    8.37   0
   2  -5   7   31.56    7.99   0
  -3  -6 -18  402.20   16.29   0
  -3  -4 -26  289.50   14.40   0
  -1  -8   1   -3.46   11.41   0
  -1  -6 -16 1044.30   20.06   0
   0  -6 -12  584.68   15.12   0
  -1  -3 -22  473.89   14.03   0
   0  -5 -16 1025.22   18.67   0
   0  -4 -17   -4.77    7.79   0
   1  -5  -9   59.78    9.29   0
   2  -6   8 1182.22   19.76   0
  -4  -5 -23   18.80   11.61   0
  -2  -4 -25   -0.91    8.15   0
  -2  -3 -26  938.59   18.99   0
   0  -7  -8  920.25   18.99   0
   1  -7  -1   18.19    9.78   0
   2  -5   4  919.23   17.60   0
   2  -4   6  902.28   18.06   0
  -1  -8  -2  277.66   13.50   0
  -1  -7 -12  443.28   15.59   0
   0  -8   2  186.20   13.18   0
   1  -8  15    3.02   10.29   0
   1  -8  18  249.57   13.06   0
   1  -8  21    4.01   10.96   0
   1  -4 -10 1372.44   20.70   0
   1  -8  12  329.13   14.06   0
   1  -6  -8 1189.53   19.77   0
   1  -3  -8 3562.55   33.15   0
   2  -6   5   -1.84    8.41   0
  -2  -6 -20  351.13   14.34   0
  -2  -5 -24  801.95   18.69   0
   0  -8  -1  -10.43   11.19   0
   0  -6 -15  -10.13    9.86   0
   1  -8   9  -11.04   10.24   0
  -3  -5 -25   -8.69   11.65   0
  -1  -8  -5   11.54   11.58   0
   1  -7  -4  444.70   13.91   0
   2  -7  12  695.24   16.85   0
  -3  -6 -21    1.35   11.84   0
  -1  -4 -24  977.50   18.90   0
   0  -7 -11    4.34    9.59   0
   1  -5 -12 1442.06   21.10   0
   2  -7   9    1.88    9.50   0
  -1  -7 -15    8.89   11.09   0
  -1  -5 -23    5.67    9.49   0
   0  -8  -4  470.18   15.94   0
   0  -5 -19    6.50    9.05   0
  -2  -2 -27   -2.16    7.26   0
   1  -7  -7   22.08   10.74   0
   1  -6 -11    8.13    8.62   0
   2  -7   6  307.14   13.21   0
  -3  -4 -29   14.42   10.67   0
  -1  -8  -8  345.35   14.50   0
   1  -4 -13   23.03    8.38   0
   2  -5  -2 1000.90   18.04   0
  -2  -6 -23    9.18   10.90   0
  -2  -4 -28  689.09   17.45   0
  -2  -1 -25   21.21    7.55   0
  -1  -3 -25    6.96    7.87   0
  -1  -2 -23    9.68    7.13   0
   0  -7 -14  265.56   13.77   0
   0  -6 -18  417.66   15.01   0
   2  -7   3   -1.69    9.04   0
   2  -4   0 4470.56   36.96   0
   0  -8  -7   12.88   11.46   0
   1  -3 -11   42.91    7.92   0
  -3  -6 -24  419.05   16.34   0
  -2  -5 -27    6.26   10.84   0
  -2  -3 -29    3.91    8.34   0
  -1  -7 -18  413.49   15.37   0
   1  -7 -10  365.65   14.41   0
  -3  -5 -28  371.84   15.87   0
  -2  -7 -19   14.34   10.33   0
  -1  -8 -11   17.66   11.91   0
   1  -8  -3   -4.73   11.24   0
   1  -5 -15    4.78    7.65   0
   2  -6  -4 1201.34   18.96   0
   2  -8  10  384.75   14.68   0
   2  -8  13    6.58    9.99   0
   2  -8  16  754.40   17.82   0
   2  -5  -5   26.77    7.40   0
  -1  -5 -26  385.47   14.97   0
  -1  -4 -27   14.88    9.22   0
   0  -8 -10  361.16   14.45   0
   0  -7 -17    7.82   11.02   0
   2  -4  -3    0.75    7.35   0
   0  -6 -21   -1.75   10.54   0
   1  -9  10  184.19   13.49   0
   1  -8  -6  214.82   13.68   0
   2  -8   7   -7.03    9.00   0
   2  -7  -3   15.53    8.58   0
  -2  -6 -26  428.54   15.41   0
   1  -9   7    1.61   10.79   0
   1  -7 -13   -3.23   10.78   0
   1  -4 -16 2457.60   26.23   0
   2  -8   4  392.85   14.59   0
   2  -6  -7    6.67    7.66   0
  -2  -7 -22  174.04   12.57   0
  -1  -6 -25    6.37   11.50   0
  -3  -6 -27    2.37   12.62   0
  -2  -4 -31   -1.27    9.49   0
   0  -8 -13   -3.23   10.53   0
   1  -9   4  368.14   14.09   0
   1  -8  -9   14.17   11.48   0
   1  -6 -17   12.74    8.68   0
   1  -5 -18 1022.60   17.94   0
   2  -8   1    1.69   10.59   0
   2  -7  -6  649.50   16.01   0
   2  -5  -8 2602.97   26.71   0
  -2  -5 -30  333.07   14.55   0
   1  -3 -14 1767.19   23.25   0
  -1  -3 -28  977.75   18.97   0
   0  -7 -20  347.28   13.63   0
   0  -2 -19    0.01    6.48   0
   1  -9   1   16.41   11.05   0
   2  -6 -10  534.64   14.81   0
   2  -4  -6  888.13   16.89   0
  -2  -2 -30  277.34   12.18   0
   1  -7 -16 1001.50   18.59   0
  -1  -5 -29   17.55   10.51   0
  -1  -2 -26  652.62   16.13   0
   0  -8 -16  362.38   14.69   0
   1  -8 -12  404.52   15.43   0
   2  -7  -9   -7.34   10.20   0
   3  -6  12 1071.74   19.78   0
   3  -6  15    7.35    7.77   0
  -2  -6 -29   -0.76   10.94   0
  -1  -7 -24  412.07   16.16   0
   1  -4 -19   31.75    8.37   0
   2  -8  -5   -3.63   10.98   0
   2  -5 -11    8.71    7.63   0
   3  -7  13   27.78    9.15   0
   3  -6   9   14.34    8.25   0
  -1  -6 -28  320.41   14.78   0
  -1  -4 -30  287.98   12.27   0
   0  -4 -26 1022.74   18.79   0
   0  -3 -24 1898.95   24.49   0
   2  -9   8  463.83   15.71   0
   2  -9  11   -4.29    9.78   0
   2  -9  14  228.22   12.41   0
   3  -7  10  563.41   15.63   0
   3  -7  16  668.72   16.82   0
   3  -6   6  662.25   15.99   0
   0  -7 -23   -1.32   10.81   0
   1  -9  -5    3.04    9.76   0
   1  -5 -21   31.39    8.44   0
   2  -9   5    1.12   11.04   0
   2  -6 -13   -8.91    9.65   0
   2  -4  -9    2.59    7.55   0
   3  -7   7   17.91    8.10   0
   1  -8 -15   10.79   11.16   0
   1  -7 -19   27.90    9.61   0
   2  -7 -12  601.38   16.09   0
   3  -7   4  968.15   18.69   0
   3  -6   3   18.93    8.35   0
   0  -8 -19    8.34   10.14   0
   1  -9  -8  343.41   15.11   0
   1  -3 -17   14.74    7.71   0
   2  -8  -8  837.94   17.52   0
   3  -5  11   15.40    7.36   0
   3  -5  14  469.18   14.68   0
  -2  -5 -33   -0.42   10.86   0
  -2  -4 -34  332.91   14.72   0
   0  -6 -27   -3.32   10.66   0
   0  -5 -28  946.22   18.99   0
   2  -5 -14  519.32   14.08   0
   3  -8  11   10.07    9.97   0
   3  -7   1   20.16    9.58   0
   3  -6   0 1391.07   20.92   0
   3  -5   8 2569.90   28.83   0
  -1  -7 -27   -9.89   11.09   0
   1  -6 -23   18.11   10.41   0
   2  -9  -1    3.56   10.79   0
   3  -8   8  835.96   18.39   0
   3  -8  14  297.06   13.27   0
   3  -5   5   24.80    8.06   0
  -1  -5 -32  666.72   17.32   0
   2  -8 -11   18.18   10.71   0
   2  -7 -15   10.39    9.99   0
   2  -6 -16 1104.04   19.37   0
   3  -8   5    3.46   10.14   0
   3  -7  -2  417.31   14.12   0
  -2  -6 -32  433.34   15.63   0
  -1  -6 -31   27.90   11.15   0
  -1  -3 -31   21.66    8.47   0
   1  -9 -11   -4.28   11.66   0
   1  -4 -22  477.79   13.31   0
   2  -4 -12  938.98   17.35   0
   2  -3  -4 3130.71   32.17   0
   3  -8   2  396.37   14.66   0
   3  -5   2 1014.96   18.65   0
   0  -8 -22  169.12   12.25   0
   0  -2 -22 2188.96   27.35   0
  -1  -4 -33    5.61    9.17   0
   0  -4 -29    2.34    8.64   0
   3  -8  -1    3.67   10.17   0
   0  -3 -27   -2.41    7.56   0
   2  -8 -14  241.16   12.66   0
   2  -5 -17   14.39    7.82   0
   3  -6  -6  627.87   15.61   0
  -1  -2 -29   12.68    7.16   0
   0  -6 -30  321.10   14.52   0
   1  -8 -21    4.78   11.59   0
   2  -7 -18  346.00   14.49   0
   2  -6 -19   13.97    9.48   0
  -1  -7 -30  125.76   12.86   0
   0  -5 -31    4.77    9.37   0
   1  -6 -26  430.04   13.77   0
   1  -3 -20 1722.73   22.72   0
   3  -9   9   -3.08   10.71   0
   3  -7  -8  808.02   17.21   0
   0  -7 -29    3.19   11.45   0
   1  -7 -25   10.00    9.46   0
   2  -9 -10  347.58   13.87   0
   2  -4 -15    5.84    7.79   0
   2  -3  -7    0.51    5.96   0
   3  -9   6  360.71   14.90   0
   2  -8 -17   16.48   11.67   0
   3  -9   3   25.31   11.22   0
   3  -6  -9   14.23    9.29   0
  -1  -6 -34  356.13   14.74   0
  -1  -5 -35    3.74   10.25   0
   3  -9   0  626.99   16.65   0
   2  -9 -13   -8.43   10.69   0
   2  -7 -21    0.34    9.19   0
   2  -5 -20  832.46   16.51   0
   3  -7 -11   16.16    8.84   0
   3  -9  -3    6.04   11.04   0
   3  -8 -10  400.60   14.58   0
   3  -5  -7   28.32    7.39   0
  -1  -3 -34  800.56   17.89   0
   0  -6 -33    2.73   11.07   0
   0  -4 -32  719.72   16.93   0
   2  -8 -20  349.21   14.81   0
   3  -6 -12 1082.96   18.29   0
   3  -4   7   37.99    7.81   0
   3  -4  10 1305.72   23.19   0
  -1  -7 -33   -0.81   11.28   0
  -1  -4 -36  807.46   18.35   0
   1  -2 -15    8.16    5.99   0
   2  -9 -16  431.65   15.66   0
   2  -3 -10 2213.26   26.13   0
   3  -9  -6  175.55   12.58   0
   3  -7 -14  578.76   15.92   0
   3  -4   4 1455.96   22.76   0
   0  -7 -32  505.59   16.39   0
   0  -5 -34  471.25   15.64   0
   0  -3 -30  809.54   17.24   0
   0  -2 -25    4.27    5.72   0
   2  -4 -18 1353.15   19.93   0
   3  -8 -13    6.27   11.22   0
   3  -5 -10  869.75   16.62   0
   3  -4   1   69.54    8.11   0
   1  -8 -27   -0.20   11.15   0
   2  -5 -23    9.10    8.19   0
   3  -6 -15    6.35    9.02   0
  -1  -6 -37    3.83   10.97   0
   1  -4 -28  947.20   17.59   0
   2  -9 -19    5.64   11.62   0
   2  -8 -23    4.84   11.55   0
   2  -6 -25   -2.74    8.74   0
   3  -7 -17   30.80   10.55   0
  -1  -5 -38  278.05   13.41   0
   3  -9 -12  317.00   14.55   0
   3  -8 -16  728.38   17.53   0
   4  -8   3   -2.28    9.93   0
   4  -8   6  371.41   14.19   0
   4  -8   9    5.59    9.14   0
   4  -7   5   23.22    9.34   0
   4  -7   8  844.84   18.12   0
   4  -7  11   12.85    8.43   0
   1  -7 -31   11.16   10.65   0
   1  -6 -32  691.15   17.94   0
   2  -3 -13   55.72    7.32   0
   3  -5 -13    1.81    8.47   0
   4  -8   0  797.07   17.94   0
   4  -7   2  405.36   13.17   0
   0  -6 -36  346.49   14.46   0
   2  -4 -21    4.76    8.30   0
   4  -7  -1   12.61    9.54   0
   0  -7 -35   -4.24   10.73   0
   0  -4 -35   -6.10    9.00   0
   3  -6 -18  604.85   14.89   0
   3  -4  -5   13.33    6.62   0
   4  -8  -3    4.85    9.92   0
   2  -9 -22  175.12   11.77   0
   2  -8 -26  414.87   15.82   0
   2  -6 -28  725.83   17.23   0
   2  -5 -26  964.04   18.20   0
   3  -9 -15    5.72   10.60   0
   3  -8 -19    7.67   11.63   0
   3  -7 -20  741.61   16.61   0
   4  -9   4  294.50   13.35   0
   4  -9   7    9.76    9.43   0
   4  -7  -4  999.16   18.05   0
   4  -6   7    0.54    7.93   0
  -1  -4 -39    4.60   10.19   0
   0  -5 -37    8.59    9.90   0
   1  -5 -33   16.45    9.98   0
   4  -9   1   -6.26   10.49   0
   4  -8  -6  372.53   14.54   0
   4  -6   1    2.16    8.43   0
   4  -6   4 1167.28   19.69   0
   4  -6  10  522.95   15.15   0
  -1  -3 -37   -7.24    8.02   0
   0  -3 -33   -2.94    8.12   0
   3  -5 -16 2221.36   24.76   0
   4  -9  -2  363.69   14.40   0
   0  -2 -28 1323.42   21.64   0
   1  -7 -34  344.58   14.96   0
   1  -4 -31   24.05    7.71   0
   2  -3 -16 2325.29   26.49   0
   3  -9 -18  426.90   15.04   0
   3  -6 -21   27.61    9.99   0
   3  -4  -8 3079.64   29.59   0
   4  -9  -5   21.33   11.84   0
   4  -6  -2  783.91   17.01   0
   4  -6  13    0.16    7.93   0
   1  -6 -35    7.50   10.62   0
   2  -7 -30  322.72   14.35   0
   3  -8 -22  227.77   13.48   0
   3  -7 -23    0.20   10.82   0
   1  -8 -33    1.21   11.76   0
   2  -8 -29    9.31   10.95   0
   2  -4 -24 2389.72   25.86   0
   4  -9  -8  619.70   17.04   0
   4  -6  -5   12.57    8.71   0
   0  -7 -38  115.55   12.65   0
   0  -6 -39   11.47   10.32   0
   3  -5 -19   25.26    9.18   0
   3  -4 -11   66.72    8.83   0
   2  -5 -29   -6.02    8.00   0
   3  -9 -21   13.93   11.26   0
   0  -4 -38  247.78   12.51   0
   3  -6 -24  948.85   18.36   0
   4  -7 -13   25.84    8.87   0
  -1  -2 -35    1.52    7.78   0
   0  -5 -40  391.69   15.97   0
   1  -5 -36  814.72   18.26   0
   3  -8 -25   -2.46   10.12   0
   3  -7 -26  278.35   14.35   0
   4  -8 -15   -1.74   10.63   0
   1  -7 -37    2.18   11.14   0
   1  -3 -29   17.21    6.71   0
   2  -3 -19    5.79    6.61   0
   4  -6 -11   -0.93    9.17   0
   1  -6 -38  284.10   14.38   0
   1  -4 -34  803.85   16.70   0
   2  -4 -27    5.60    8.62   0
   3  -5 -22  418.40   13.87   0
   3  -4 -14  857.47   16.26   0
   4  -7 -16  695.19   17.06   0
   4  -8 -18  387.49   15.17   0
   4  -5   3    2.16    7.45   0
   0  -3 -36  764.59   17.52   0
   3  -8 -28  380.68   15.02   0
   4  -6 -14  485.44   14.31   0
   4  -5   0 1748.92   23.32   0
   4  -5   6  507.58   14.72   0
   0  -6 -42  284.61   14.33   0
   0  -2 -31   -0.70    7.00   0
   3  -7 -29    4.85   11.26   0
   3  -6 -27    1.30    8.66   0
   4  -9 -17   13.71   10.47   0
   4  -5  -3   62.00    8.92   0
   4  -5   9   53.24    8.57   0
   3  -9 -27   12.03   11.96   0
   3  -4 -17    1.49    7.65   0
   4  -7 -19    9.73    8.98   0
   2  -7 -36  341.07   15.14   0
   2  -3 -22  580.86   14.65   0
   4  -8 -21   16.19   10.99   0
   1  -7 -40  499.38   16.07   0
   1  -5 -39   13.25   10.02   0
   1  -2 -24 2038.91   25.83   0
   3  -5 -25   -5.84    7.91   0
   4  -9 -20  297.58   13.99   0
   4  -6 -17  -12.77    8.29   0
   4  -5  12 1310.62   23.30   0
   0  -4 -41    3.74    8.96   0
   1  -3 -32 1605.91   22.91   0
   3  -8 -31   -3.24   11.63   0
   4  -7 -22  351.47   14.37   0
   4  -5  -9   13.43    8.43   0
   5  -9  -1  -11.50   10.77   0
   5  -9   2  343.33   13.96   0
   5  -8  -2  375.49   14.11   0
   5  -8   1   -0.69    9.79   0
   5  -8   4  449.82   14.99   0
   5  -8   7    3.84    9.96   0
   0  -5 -43   10.57   10.13   0
   1  -6 -41   16.42   10.45   0
   1  -4 -37   -0.25    9.03   0
   3  -6 -30  364.03   14.35   0
   5  -9  -4  302.55   13.55   0
   5  -8  -5   -0.52    9.96   0
   2  -6 -37    0.19   10.68   0
   2  -5 -35   20.96    9.31   0
   3  -7 -32  566.40   15.55   0
   3  -4 -20 1124.96   18.91   0
   4  -8 -24  585.14   17.03   0
   5  -9  -7   18.44   11.53   0
   4  -9 -23    3.84   10.35   0
   4  -6 -20  995.01   17.94   0
   4  -5 -12 1136.83   18.50   0
   5  -8  -8  837.32   17.40   0
   5  -7   0  983.21   19.10   0
   5  -7   3   13.88    8.93   0
   3  -5 -28  626.29   15.53   0
   5 -10   0  381.69   15.06   0
   5  -9 -10  271.55   13.47   0
   5  -8 -11   -2.63   11.01   0
   5  -7  -3   -0.66    9.42   0
   5  -7   6  667.89   16.91   0
   0  -3 -39   -2.01    8.48   0
   2  -7 -39   13.25   10.78   0
   2  -3 -25   10.39    7.09   0
   2  -2 -11   -0.12    5.87   0
   3  -3  -6  629.99   15.60   0
   4  -7 -25   26.28    9.75   0
   5 -10  -3    0.45    9.52   0
   5  -7  -6  280.85   13.25   0
   3  -8 -34  305.21   14.88   0
   4  -9 -26  371.66   15.05   0
   4  -8 -27   -6.43   10.95   0
   4  -5 -15   42.73    8.21   0
   5  -9 -13    5.01   10.48   0
   5  -7  -9    2.31    9.65   0
   0  -2 -34  344.91   12.84   0
   1  -7 -43    7.31   11.14   0
   1  -5 -42  447.02   15.31   0
   2  -4 -33   -5.24    8.51   0
   3  -7 -35   -1.74   11.23   0
   3  -6 -33   13.03    9.05   0
   3  -4 -23   37.42    8.95   0
   4  -6 -23    0.04    8.52   0
   1  -2 -27   -2.96    6.00   0
   3  -3  -9   -2.00    6.24   0
   1  -6 -44  363.85   14.62   0
   1  -3 -35   -3.28    8.10   0
   2  -5 -38  178.30   12.12   0
   2  -2 -14  387.44   12.99   0
   4  -7 -28  689.43   17.35   0
   4  -5 -18  508.70   14.45   0
   5  -8 -17  -12.62   11.18   0
   3  -5 -31   14.59    8.56   0
   3  -3 -12 2754.35   28.38   0
   4  -9 -29   17.64   11.60   0
   4  -8 -30  211.11   12.87   0
   4  -6 -26  580.93   16.14   0
   5  -9 -19   21.24   10.84   0
   5  -7 -15   13.00    8.63   0
   2  -7 -42  232.96   14.09   0
   3  -4 -26  904.97   17.48   0
   5  -8 -20  378.05   14.87   0
   5  -6  -4 1055.77   19.29   0
   5  -6  -1   35.73    9.08   0
   5  -6   2  492.41   14.67   0
   4  -5 -21   17.07    9.47   0
   5  -6  -7   -5.60    8.96   0
   5  -6   5    4.47    8.34   0
   2  -4 -36  593.13   15.43   0
   2  -2 -17   -0.47    6.96   0
   3  -3 -15    0.66    7.53   0
   4  -7 -31   -3.60    9.55   0
   4  -4  -1    2.25    7.10   0
   5  -9 -22  222.75   13.37   0
   5  -7 -18  658.94   15.82   0
   4  -8 -33   -6.78   10.97   0
   4  -4   2 1636.08   23.83   0
   1  -5 -45   -8.83    9.90   0
   1  -2 -30  817.45   17.23   0
   2  -6 -43   -2.75   10.13   0
   2  -5 -41    5.91   10.08   0
   4  -6 -29   -6.58    9.03   0
   5  -8 -23  -13.75   10.06   0
   5  -6   8 1163.87   21.20   0
   1  -3 -38  566.82   15.29   0
   3  -8 -40  335.39   14.31   0
   4  -5 -24 1298.59   20.28   0
   4  -4 -10  536.65   14.23   0
   4  -4   5    2.93    6.78   0
   5  -7 -21   -9.84    8.97   0
   0  -2 -37    1.53    7.31   0
   1  -6 -47   -2.69   10.63   0
   1  -4 -43   14.39    9.47   0
   2  -3 -31    5.76    8.15   0
   3  -4 -29    2.02    7.72   0
   3  -3 -18 1601.83   22.01   0
   5  -9 -25   -0.32   10.97   0
   2  -7 -45    5.21   10.35   0
   3  -7 -41   21.01   11.21   0
   3  -6 -39   -4.85    9.00   0
   4  -7 -34  344.59   13.26   0
   5  -8 -26  379.73   14.96   0
   5  -6 -16  973.56   18.46   0
   2  -2 -20 4092.23   34.85   0
   4  -8 -36  289.09   14.30   0
   4  -6 -32  620.43   16.22   0
   4  -4 -13   -4.41    7.00   0
   4  -4   8 1843.39   27.00   0
   5  -7 -24  596.06   16.57   0
   6  -9  -6  358.51   14.02   0
   6  -9  -3   17.43    9.99   0
   6  -9   0  613.17   16.90   0
   0  -1 -29    1.65    6.57   0
   2  -4 -39   -0.92    9.20   0
   4  -5 -27    6.82    9.82   0
   5  -9 -28  198.11   13.86   0
   6  -9  -9   17.72    9.91   0
   4  -4 -16 1926.63   23.52   0
   5  -6 -19    4.94    8.42   0
   6  -9 -12  287.08   13.76   0
   6  -8  -7   11.17   10.31   0
   6  -8  -4  375.07   14.03   0
   6  -8  -1   12.78   10.16   0
   2  -6 -46  238.78   13.89   0
   3  -4 -32 1288.95   20.44   0
   3  -3 -21    2.35    6.82   0
   5  -8 -29    6.67   11.59   0
   6  -8 -10  399.18   15.03   0
   6  -8   2  365.52   14.02   0
   1  -2 -33   12.57    7.85   0
   2  -5 -44  484.10   15.27   0
   4  -7 -37   32.44   11.48   0
   5  -7 -27    0.57    9.63   0
   6  -9 -15   14.35   10.38   0
   2  -3 -34  867.14   17.42   0
   2  -2 -23    4.60    7.12   0
   3  -6 -42  319.77   14.24   0
   4  -6 -35   -4.80   10.68   0
   4  -4 -19   -2.24    8.07   0
   4  -4  11    1.59    7.33   0
   5  -6 -22  353.97   12.96   0
   6  -8 -13    5.97    8.70   0
   1  -3 -41    8.00    8.64   0
   3  -7 -44  363.28   14.58   0
   4  -8 -39   -7.48   11.59   0
   4  -5 -30  517.58   15.21   0
   5  -5  -5    8.87    8.16   0
   5  -5  -2  513.57   14.61   0
   6  -9 -18  239.83   13.32   0
   6  -8 -16  762.35   18.21   0
   1  -4 -46  168.75   12.01   0
   3  -3 -24 1365.88   20.55   0
   5  -8 -32  490.48   15.84   0
   5  -5  -8 1218.99   19.43   0
   5  -5   1    3.69    7.73   0
   3  -5 -40  834.23   18.14   0
   5  -7 -30  181.05   11.90   0
   5  -6 -25   15.59   10.36   0
   6  -7  -8 1024.17   19.59   0
   6  -7  -5   35.19    9.45   0
   6  -7  -2  587.37   16.30   0
   2  -4 -42  748.73   17.28   0
   4  -4 -22  935.91   16.98   0
   5  -5 -14  850.47   17.23   0
   5  -5   4 1530.81   23.67   0
   6  -7 -11   11.78   10.31   0
   6  -7   1   -0.42    9.20   0
   1  -1 -22  510.45   14.62   0
   4  -6 -38  242.01   12.07   0
   4  -5 -33   17.75    9.06   0
   5  -8 -35   14.34   11.37   0
   5  -5 -17   -0.68    9.21   0
   6  -9 -24  499.52   15.54   0
   6  -8 -22  205.58   13.18   0
   6  -7 -14  225.46   11.75   0
   6  -7   4  449.23   14.87   0
   3  -3 -27   -8.77    7.08   0
   5  -7 -33    4.05   10.16   0
   5  -6 -28  718.98   16.20   0
   2  -1 -21   46.98    8.81   0
   3  -1 -26  705.22   18.11   0
   6  -3 -33   23.96   13.96   0
   7  -6 -29   11.34   12.90   0
   8  -5 -32  477.20   19.90   0
   4  -2 -30  289.82   15.13   0
   5  -2 -32 1069.25   23.18   0
   5   0 -28  981.58   21.90   0
   6  -6 -27    1.03   12.76   0
   6   1 -22  304.13   16.40   0
   8  -4 -33   11.78   14.35   0
   8  -1 -27    6.20   13.23   0
   4   1 -24  953.90   21.15   0
   6  -5 -31    9.91   13.22   0
   7   0 -26  412.82   17.84   0
   8   0 -22  174.90   14.23   0
   3   2 -17    8.20    9.74   0
   7  -2 -33   20.53   14.70   0
   8  -6 -31   -4.85   14.94   0
   6  -2 -34  341.52   16.98   0
   6  -1 -32  670.84   19.17   0
   7  -1 -31   26.89   13.80   0
   4  -4 -28  871.90   20.35   0
   4   2 -19   -3.05   10.45   0
   5  -5 -29    4.45   11.30   0
   7  -3 -35  -16.97   15.01   0
   7   1 -21   10.31   14.14   0
   8  -3 -34  351.64   17.96   0
   8  -2 -32  427.88   18.66   0
   2   0 -22 2264.73   29.19   0
   4  -1 -31   27.95   12.37   0
   4   0 -29    4.29   11.85   0
   2  -3 -19    4.30    8.70   0
   2   2 -15   -1.16    8.36   0
   3  -4 -23   36.81   11.41   0
   3  -2 -28 1828.14   26.49   0
   5  -1 -33   20.74   13.34   0
   5   1 -26  424.78   17.31   0
   6   1 -25    4.63   13.26   0
   2   1 -20 1679.25   25.75   0
   3   0 -27    4.43    9.07   0
   5  -4 -33    6.48   12.90   0
   5   0 -31   -4.57   12.99   0
   6  -4 -35   -2.81   11.81   0
   6  -3 -36  555.59   19.88   0
   8  -5 -35   -7.77   14.01   0
   8  -1 -30  107.25   15.20   0
   8   0 -25   11.37   12.01   0
   3  -3 -27   -6.97   10.01   0
   3  -1 -29   25.30   11.21   0
   5  -2 -35    8.56   12.81   0
   7  -6 -32  498.82   20.57   0
   7   0 -29   -1.05   13.30   0
   8  -4 -36  295.36   18.01   0
   2  -1 -24 2201.08   29.48   0
   4  -2 -33   -9.94   12.08   0
   4   1 -27   -2.78   10.92   0
   7  -2 -36  335.83   17.94   0
   3   2 -20  805.37   20.14   0
   5   2 -21    3.52   11.64   0
   6  -5 -34  432.62   19.14   0
   6  -1 -35    0.61   13.80   0
   8  -6 -34  322.03   18.99   0
   4   2 -22  521.45   17.85   0
   6  -2 -37    1.75   15.23   0
   7  -5 -36  547.84   20.98   0
   7  -3 -38  325.68   18.48   0
   7   1 -24  420.21   18.03   0
   8  -3 -37   -6.92   14.17   0
   8  -2 -35   -2.35   12.70   0
   4  -4 -31   -3.24   11.64   0
   4  -1 -34  853.03   20.58   0
   4   0 -32  698.37   18.50   0
   5   1 -29   12.50   13.09   0
   6   1 -28  315.89   16.52   0
   2   0 -25    4.73    8.73   0
   4  -5 -27   18.88   10.85   0
   5  -1 -36  834.48   20.35   0
   2   1 -23   12.82    9.47   0
   2   2 -18 1323.62   23.85   0
   3  -2 -31    3.69   11.09   0
   3   0 -30  817.60   18.98   0
   6  -3 -39   10.12   15.07   0
   7   0 -32  531.91   19.36   0
   8  -5 -38  153.77   15.76   0
   5  -4 -36  543.34   19.58   0
   5   2 -24  786.25   21.16   0
   7  -6 -35   17.70   13.66   0
   7  -2 -39   21.14   15.03   0
   2  -3 -22  563.61   18.08   0
   3  -4 -26  885.26   22.18   0
   3  -1 -32 1651.97   25.31   0
   3   2 -23   20.96   10.84   0
   4  -3 -35   18.46   12.43   0
   4  -2 -36  607.35   19.41   0
   7  -4 -40  306.00   18.18   0
   7  -1 -37    8.05   13.83   0
   7   1 -27    4.56   12.35   0
   2  -1 -27   -1.22   10.34   0
   3  -3 -30  444.77   15.86   0
   4   2 -25    8.20   10.91   0
   6  -5 -37    9.44   13.85   0
   6  -2 -40  526.69   20.59   0
   6  -1 -38  271.10   16.58   0
   8  -6 -37   -3.78   14.50   0
   3   3 -15    3.28    9.58   0
   7  -5 -39    3.70   15.94   0
   7  -3 -41    7.66   14.64   0
   4   0 -35   10.21   13.09   0
   5   1 -32  705.26   21.05   0
   6   1 -31   20.46   13.77   0
   4  -1 -37   11.27   13.09   0
   5  -1 -39   16.58   13.81   0
   7   0 -35  -19.65   14.46   0
   1  -1 -19    2.19    7.56   0
   1   1 -18 1238.49   23.59   0
   2   0 -28 1367.76   24.08   0
   2   2 -21    1.45    9.59   0
   4  -4 -34  412.66   17.60   0
   5  -5 -35  -11.58   12.60   0
   5   0 -37  -11.52   13.82   0
   1   0 -20 1707.17   27.13   0
   2   1 -26  675.24   18.51   0
   3  -2 -34  883.11   21.25   0
   3   0 -33    7.22   10.02   0
   4  -5 -30  544.31   19.86   0
   5   2 -27   12.41   12.00   0
   6  -4 -41    2.24   13.45   0
   6  -3 -42  310.52   16.82   0
   7   1 -30  129.49   15.77   0
   2   3 -13   -2.80    9.53   0
   3   2 -26  925.68   21.44   0
   5  -4 -39   10.46   13.59   0
   5  -2 -41    1.89   12.14   0
   7  -6 -38  124.42   16.35   0
   7  -2 -42  241.35   16.55   0
   7  -1 -40  443.73   19.01   0
   3  -1 -35    3.93   10.33   0
   3   1 -31   33.40   10.27   0
   3   3 -18  570.71   19.18   0
   4  -2 -39    2.25   13.53   0
   4   2 -28  681.67   19.99   0
   6  -1 -41   13.63   13.97   0
   7  -4 -43   -3.44   15.37   0
   3  -4 -29    3.47   10.65   0
   3  -3 -33    5.10   10.97   0
   4  -3 -38  296.75   14.89   0
   6  -5 -40  415.10   19.90   0
   6  -2 -43   -6.02   13.75   0
   6   1 -34  328.57   18.37   0
   7  -3 -44  338.99   18.69   0
   2  -3 -25   22.60   10.08   0
   2  -1 -30  845.34   19.43   0
   5   1 -35    9.79   14.30   0
   7  -5 -42  325.86   19.46   0
   4   0 -38  230.82   14.63   0
   7   0 -38  114.30   14.64   0
   1   2 -16 2237.74   32.47   0
   2   2 -24 2327.66   31.25   0
   4  -1 -40  725.30   19.88   0
   5   0 -40  423.19   18.74   0
   5   2 -30  356.65   17.52   0
   1  -1 -22  561.36   17.52   0
   1   1 -21   42.14    8.87   0
   2   0 -31    3.16    9.51   0
   2   1 -29   23.05   11.10   0
   2   3 -16 2150.69   32.26   0
   3   0 -36  762.75   20.54   0
   4  -4 -37   -6.68   12.61   0
   6  -3 -45    7.33   14.74   0
   7   1 -33   13.48   12.25   0
   1   0 -23   -0.02    8.18   0
   3   2 -29    2.33   11.71   0
   3   3 -21   29.40   12.15   0
   4   2 -31    5.71   13.23   0
   5  -2 -44  498.53   19.71   0
   7  -2 -45   11.36   15.32   0
   7  -1 -43   29.58   14.34   0
   3   1 -34  800.18   19.75   0
   4  -5 -33   12.48   13.06   0
   5  -4 -42  382.39   18.65   0
   6  -1 -44  385.15   19.23   0
   7  -4 -46  182.88   18.06   0
   3  -1 -38  549.29   17.67   0
   4  -2 -42  766.99   21.67   0
   5   1 -38  310.03   18.13   0
   6  -2 -46  257.69   18.07   0
   4  -3 -41   13.78   11.52   0
   6  -5 -43    1.36   16.89   0
   7  -5 -45   -7.17   17.14   0
   7  -3 -47    6.84   15.85   0
   2  -1 -33   14.05    9.94   0
   3  -4 -32 1355.13   26.34   0
   3  -3 -36 1278.32   24.01   0
   4   0 -41    4.80   11.99   0
   1   2 -19    5.29    7.77   0
   2  -3 -28 1828.43   29.55   0
   2   2 -27    5.55    9.12   0
   2   3 -19   21.12   10.32   0
   4  -1 -43   13.86   12.48   0
   5  -1 -45  -14.39   12.97   0
   5   0 -43   -5.24   14.47   0
   5   2 -33   -4.74   13.66   0
   1   1 -24 2101.51   28.95   0
   2  -4 -21    2.01    8.43   0
   2   0 -34  364.34   15.82   0
   2   1 -32 1575.44   25.96   0
   3   0 -39   -2.19   12.58   0
   3   2 -32 1031.96   23.13   0
   3   3 -24  911.52   22.09   0
   1  -2 -21   40.16    9.89   0
   1  -1 -25   -3.64    9.53   0
   3   1 -37   16.17   12.65   0
   4  -4 -40  843.84   22.91   0
   4   2 -34  334.26   17.50   0
   6  -4 -47  -13.18   14.94   0
   5  -5 -41    1.97   14.21   0
   5  -2 -47   -4.39   12.96   0
   6  -1 -47    9.38   15.19   0
   6   1 -40  471.46   19.47   0
   3  -1 -41    9.45   11.65   0
   4  -2 -45    2.67   14.18   0
   5  -4 -45    8.95   14.64   0
   5   1 -41    5.25   14.18   0
   6  -2 -49   -4.30   15.57   0
   1   2 -22  568.02   17.64   0
   2   3 -22  445.13   16.96   0
   4  -3 -44  538.69   20.18   0
   2  -1 -36 1332.20   23.78   0
   2   2 -30  310.32   15.38   0
   3  -3 -39   -9.91   12.39   0
   4   0 -44  801.15   20.83   0
   5   2 -36  339.93   17.59   0
   6  -5 -46  183.76   18.95   0
   1   1 -27   -6.93    8.75   0
   3  -4 -35   10.40   11.98   0
   3   3 -27   10.81   11.32   0
   4  -1 -46  185.35   17.43   0
   5  -1 -48  295.30   17.04   0
   5   0 -46  242.64   18.10   0
   2  -3 -31   13.80   10.37   0
   2   0 -37   -1.00   12.24   0
   2   1 -35   10.97   10.30   0
   3   0 -42  418.10   18.50   0
   3   2 -35   -1.91   10.98   0
   4   2 -37  -13.55   14.10   0
   1  -2 -24 2027.80   31.01   0
   1  -1 -28 1728.49   27.39   0
   1   0 -29   -0.54    9.12   0
   1   3 -14  806.31   22.48   0
   2  -4 -24 2255.94   35.90   0
   3   1 -40  753.53   21.23   0
   5  -3 -49    6.89   15.11   0
   4  -4 -43   -4.77   14.02   0
   5  -2 -50  454.03   20.11   0
   6  -1 -50  183.41   17.11   0
   6   1 -43    3.50   13.69   0
   2   3 -25   -2.08   10.65   0
   3  -1 -44  601.03   18.58   0
   5  -5 -44  407.98   18.79   0
   2   2 -33    7.02    9.88   0
   3   3 -30  365.83   17.02   0
   4  -2 -48  608.90   19.68   0
   4   0 -47  -17.23   15.56   0
   5  -4 -48  482.37   20.98   0
   5   2 -39    2.25   13.85   0
   6  -2 -52  285.95   17.20   0
   1   1 -30  836.91   19.56   0
   1   3 -17    1.05    8.96   0
   2  -1 -39    2.65   10.61   0
   4  -3 -47    3.43   15.12   0
   2   1 -38  516.45   18.49   0
   3   2 -38  180.29   13.65   0
   4  -1 -49    2.39   15.95   0
   4   2 -40  507.66   19.58   0
   4   3 -32  492.24   19.25   0
   5  -1 -51   13.53   15.81   0
   5   0 -49  -10.59   13.90   0
   6  -5 -49  -19.55   17.02   0
   1   0 -32 2360.51   30.20   0
   2  -3 -34  847.40   21.75   0
   2  -2 -38  406.11   15.92   0
   2   0 -40 1341.67   24.32   0
   3  -4 -38  312.87   16.56   0
   3   0 -45   -3.98   12.33   0
   3   1 -43    4.09   13.44   0
   1  -2 -27    0.18    9.43   0
   1  -1 -31   -0.03    9.02   0
   2   3 -28  603.82   18.96   0
   1   3 -20 1093.55   23.85   0
   2  -4 -27   -3.36    9.59   0
   5  -3 -52  338.58   17.98   0
   5  -2 -53   14.08   14.98   0
   5   1 -47    6.37   14.41   0
   3  -1 -47    0.93   12.34   0
   3   3 -33   15.82   12.83   0
   4  -4 -46  334.58   18.22   0
   5   2 -42  225.70   16.33   0
   6  -4 -53   10.65   15.74   0
   1   1 -33   24.01   10.14   0
   2  -1 -42  536.72   18.57   0
   4  -2 -51    1.49   15.78   0
   4   0 -50  351.76   18.54   0
   4   3 -35    9.24   13.77   0
   5  -4 -51   12.18   16.04   0
   2   1 -41    3.61   13.34   0
   3   2 -41    2.04   11.59   0
   4  -3 -50  382.62   19.26   0
   4   2 -43   -5.63   13.97   0
   5   0 -52  446.58   20.19   0
   0   1 -19   -3.04    8.01   0
   1   0 -35    8.02    9.99   0
   1   3 -23   43.97   10.76   0
   2  -2 -41    1.92   12.60   0
   2   0 -43    6.23   11.65   0
   2   3 -31   -1.90   11.93   0
   3  -3 -45    1.29   13.77   0
   3   0 -48  665.55   21.11   0
   4  -1 -52  462.03   18.73   0
   5  -1 -54  168.45   17.58   0
   1  -2 -30  777.77   20.43   0
   1  -1 -34 1291.46   23.66   0
   2  -3 -37    5.67   11.61   0
   3  -4 -41  -10.93   12.66   0
   3   1 -46  190.42   14.64   0
   3   3 -36  586.49   19.70   0
   0   0 -21   -6.43    9.56   0
   1   1 -36 1282.00   24.41   0
   2  -4 -30  277.16   15.16   0
   3  -1 -50  358.56   18.69   0
   5  -3 -55    0.03   15.07   0
   5  -2 -56  251.70   18.77   0
   5   1 -50  210.47   16.11   0
   5   2 -45    7.50   14.65   0
   0   1 -22  543.01   17.00   0
   1   3 -26  873.55   21.56   0
   4  -4 -49   17.80   14.80   0
   4   3 -38  285.45   16.48   0
   1   0 -38  397.17   17.03   0
   2  -1 -45   -7.86   11.95   0
   2   1 -44  555.54   20.07   0
   2   3 -34  707.75   20.72   0
   3   2 -44  480.71   17.97   0
   4   0 -53    1.09   13.54   0
   4   2 -46  232.23   16.97   0
   1  -3 -23    7.69    8.90   0
   1  -1 -37    4.83   10.96   0
   2   0 -46  522.31   19.77   0
   4  -3 -53   12.95   15.52   0
   5  -4 -54  191.87   17.02   0
   5   0 -55   -2.88   14.45   0
   0   1 -25   -8.69   10.16   0
   1  -2 -33   21.04    9.21   0
   2  -3 -40  742.42   21.26   0
   2  -2 -44 1237.67   24.27   0
   3  -3 -48  382.01   19.27   0
   3   0 -51   21.39   12.56   0
   3   1 -49    7.59   12.42   0
   3   3 -39    7.68   13.76   0
   4  -1 -55    0.61   14.76   0
   5  -1 -57  -11.16   16.47   0
   1   1 -39    1.14   12.60   0
   1   3 -29   15.34   11.07   0
   3  -4 -44  539.22   21.11   0
   2  -4 -33    1.49   10.13   0
   4   3 -41    0.34   15.20   0
   0   2 -23   -5.17    8.56   0
   1   2 -37    9.36   11.68   0
   2   3 -37   11.13   13.11   0
   3  -1 -53   -6.35   16.02   0
   3   2 -47    1.73   15.22   0
   5  -3 -58  301.08   19.65   0
   0   0 -27    0.28    8.70   0
   0   1 -28 1684.19   27.03   0
   1  -3 -26  664.46   20.46   0
   1   0 -41    1.33   10.93   0
   2  -1 -48  619.54   19.45   0
   2   1 -47    0.07   12.36   0
   4   0 -56  198.28   17.38   0
   4   2 -49    5.52   14.16   0
   1  -2 -36 1316.18   25.45   0
   1   3 -32 1286.77   25.20   0
   2   0 -49   -4.69   14.52   0
   4  -4 -52  347.87   19.65   0
   0   2 -26 1479.82   25.38   0
   2  -2 -47    7.07   13.14   0
   3   0 -54  250.06   18.49   0
   3   1 -52  477.67   20.31   0
   3   3 -42  330.45   18.33   0
   4  -3 -56  346.88   20.11   0
   4  -1 -58  301.22   18.96   0
   2  -3 -43    2.75   13.05   0
   3  -3 -51   -3.80   15.21   0
   0   0 -30  201.62   12.69   0
   0   1 -31    2.44    9.43   0
   1   2 -40  698.82   20.69   0
   2  -4 -36  592.16   19.86   0
   3  -4 -47    1.26   14.81   0
   4   3 -44  300.78   16.92   0
   0   2 -29   -5.42   10.08   0
   1  -3 -29   12.03   10.07   0
   3  -1 -56  495.86   21.31   0
   3   2 -50  401.93   18.90   0
   1   3 -35   14.34   10.62   0
   2  -1 -51   -4.94   12.29   0
   2   1 -50  333.79   16.84   0
   3  -2 -55    3.78   14.20   0
   4   2 -52  287.55   18.20   0
   0   3 -18 1578.99   28.65   0
   0   3 -15   -0.58    8.74   0
   1  -2 -39   -6.28    9.77   0
   1   4 -21   16.82   11.32   0
   3   3 -45    2.82   13.55   0
   4   0 -59  -11.65   15.01   0
   0   0 -33   -1.45    9.61   0
   0   1 -34 1349.64   23.73   0
   0   3 -21    6.40    9.90   0
   1   1 -45    8.35   11.92   0
   2   3 -43   -8.66   14.45   0
   3   0 -57    7.11   15.15   0
   3   1 -55    3.31   14.95   0
   4  -4 -55  -11.51   14.49   0
   0   2 -32  807.61   19.60   0
   1  -3 -32 1634.82   29.04   0
   1   2 -43   -2.88   11.88   0
   2  -3 -46  307.59   17.02   0
   3  -3 -54  238.23   18.64   0
   4  -1 -61    5.67   15.02   0
   0   3 -24 1418.07   26.25   0
   1   3 -38  301.36   15.30   0
   2  -4 -39   -1.82   11.41   0
   4  -3 -59   -8.85   16.01   0
   4   3 -47   11.25   13.81   0
   1   0 -47   -8.00   11.97   0
   1   4 -27   22.03   12.42   0
   2   1 -53    8.46   15.06   0
   3  -4 -50  427.21   19.90   0
   3   2 -53    7.68   14.45   0
   0   0 -36  841.33   19.92   0
   0   1 -37    0.42   10.32   0
   0   2 -35    3.33   12.12   0
   0   3 -27    7.91   10.72   0
   1  -2 -42  518.89   17.31   0
   2  -1 -54  266.89   18.72   0
   2   4 -35  -14.55   12.61   0
   3  -2 -58  281.31   18.14   0
   3  -1 -59   -2.94   15.85   0
   3   3 -48  359.16   19.03   0
   1   1 -48  629.35   21.08   0
   2   0 -55   -2.53   15.98   0
   1  -3 -35    5.74   10.56   0
   1   2 -46  272.94   15.83   0
   1   3 -41    4.46   13.34   0
   1   4 -30  508.89   18.50   0
   2  -2 -53    0.71   15.12   0
   3   1 -58  311.56   18.05   0
   0   3 -30  441.35   16.15   0
   2  -3 -49    5.66   13.97   0
   3   0 -60  275.51   17.48   0
   0   0 -39    0.38   10.51   0
   0   1 -40 1135.64   22.80   0
   0   2 -38  441.54   17.65   0
   1   0 -50  579.94   19.28   0
   2   4 -38  245.62   16.62   0
   3  -3 -57  -10.38   14.25   0
   0   3 -33    2.51   11.73   0
   1  -2 -45    1.44   13.28   0
   1   4 -33   13.79   12.22   0
   2   1 -56  453.42   20.03   0
   3   2 -56  255.33   17.39   0
   1  -3 -38  540.40   19.18   0
   1   1 -51   19.24   14.67   0
   1   3 -44  516.88   19.71   0
   2   3 -49    8.34   15.10   0
   3  -4 -53   13.31   13.45   0
   3  -1 -62  165.18   17.63   0
   3   3 -51   11.55   13.75   0
   1   2 -49    0.46   12.39   0
   2   0 -58  202.14   18.39   0
   3  -2 -61    4.46   15.07   0
   0  -2 -22 2249.19   35.14   0
   0   0 -42 1280.38   25.10   0
   0   1 -43    1.92   13.33   0
   0   2 -41  -13.02   11.08   0
   0   3 -36 1194.06   24.81   0
   1   4 -36  546.59   19.60   0
   2  -2 -56  244.53   18.20   0
   2   4 -41   10.72   13.53   0
   3   1 -61   23.17   14.78   0
   0  -2 -25   -3.49    9.63   0
   1   0 -53   -4.37   14.63   0
   2  -3 -52  669.43   21.57   0
   3   0 -63   -7.10   14.99   0
   1  -2 -48  600.96   20.17   0
   0  -2 -28 1380.07   26.68   0
   1  -3 -41    1.11   12.34   0
   1   1 -54  251.22   18.02   0
   1   2 -52  658.67   21.93   0
   1   3 -47   23.64   14.21   0
   2   1 -59   -3.31   14.33   0
   3  -3 -60  445.77   20.08   0
   0   0 -45   16.52   13.58   0
   0   1 -46  220.62   15.61   0
   0   2 -44 1251.18   24.42   0
   0   3 -39   12.77   10.85   0
   1   4 -39  -13.47   13.33   0
   2   3 -52  344.15   17.73   0
   2   4 -44  457.65   18.66   0
   0  -2 -31   -3.66   10.42   0
   0   4 -25    5.24   10.34   0
   0   4 -22  910.62   23.00   0
   2   0 -61    7.59   15.82   0
   0   4 -28  831.04   21.81   0
   0   4 -19   -1.43   10.02   0
  -1   1 -26 1429.21   25.04   0
  -1   1 -23    4.41    8.67   0
  -1   1 -20 1685.70   28.40   0
  -1   2 -24 2121.20   30.49   0
   1  -2 -51   -1.42   14.28   0
   1   3 -50  414.38   19.25   0
   1   4 -42  345.49   17.68   0
   2  -3 -55   -5.92   13.71   0
   2  -2 -59    4.40   14.38   0
  -1   1 -29   -3.94    9.37   0
  -1   2 -27    1.36    9.24   0
  -1   2 -21   49.90    9.36   0
   0  -2 -34  370.43   15.17   0
   0  -1 -44  692.05   20.66   0
   0   2 -47   -2.88   11.98   0
   0   4 -31   -1.84   11.57   0
   1  -3 -44  580.00   20.03   0
   1   1 -57    8.09   16.04   0
   1   2 -55  -16.11   15.64   0
   2   4 -47   -0.72   15.30   0
  -1   2 -30  827.07   19.84   0
  -1   2 -18 1284.87   25.15   0
   0   0 -48  857.23   21.41   0
   0   1 -49   -2.13   12.21   0
   2   1 -62  133.80   15.67   0
   2   3 -55    3.87   15.34   0
  -1   1 -32 2292.86   30.37   0
   0   4 -34  421.82   17.69   0
  -1   2 -33   12.68   10.30   0
   0  -2 -37   -3.45    9.38   0
   1   4 -45   11.54   13.69   0
   2   0 -64  375.07   19.93   0
  -1   0 -25    4.28    9.44   0
  -1   1 -35    1.64   10.12   0
   0  -1 -47    5.00   13.23   0
   0   2 -50  385.38   18.97   0
   0   4 -37    9.14   12.31   0
   1  -3 -47  -10.11   14.21   0
   1   0 -59   17.76   15.98   0
   1   3 -53    5.79   14.35   0
  -1   0 -28 1631.46   26.54   0
  -1   0 -22  544.90   17.31   0
  -1   2 -36 1264.77   23.51   0
  -1   3 -25   19.87   10.70   0
   0   0 -51    3.18   14.34   0
   0   1 -52  658.47   21.56   0
   1  -2 -54  275.67   16.32   0
   1  -1 -58  421.04   19.44   0
   2  -3 -58  272.62   18.30   0
   2  -2 -62  217.33   18.48   0
  -1   0 -31   -0.00    9.44   0
  -1   1 -38  405.16   15.72   0
  -1   3 -22  557.43   17.21   0
   0  -2 -40 1311.71   25.95   0
   1   1 -60  392.08   20.00   0
   1   2 -58  235.43   16.75   0
   2   3 -58  288.50   17.17   0
  -1   0 -19    1.22    8.16   0
  -1   2 -39  -12.13   12.67   0
  -1   3 -19    0.62    9.47   0
   0   4 -40  846.56   22.43   0
   1   4 -48  504.14   19.98   0
   0   2 -53   19.23   14.91   0
  -1   0 -37   -1.69   10.99   0
  -1   1 -41   -2.92   11.03   0
   0  -2 -43    9.06   12.30   0
   0  -1 -50  557.38   18.55   0
   0   1 -55  -15.06   15.97   0
   1  -3 -50  349.82   18.03   0
   1   0 -62  131.49   16.42   0
   1   3 -56  351.79   19.68   0
  -1   2 -42  507.32   17.65   0
   0   0 -54   67.91   13.43   0
   0   4 -43   -5.30   13.91   0
   1  -2 -57    5.94   14.16   0
   2   4 -53    6.10   12.11   0
  -1   3 -16 2243.20   33.71   0
   1  -1 -61    8.40   13.92   0
   1   1 -63   13.15   14.76   0
   1   2 -61   -0.43   15.77   0
   1   4 -51   -1.44   14.53   0
   2  -3 -61   -4.04   16.10   0
   2  -2 -65  -11.17   14.25   0
  -1   0 -40 1128.88   22.89   0
  -1   1 -44  728.90   19.84   0
  -1   3 -40  702.44   19.49   0
  -1   2 -45   -6.82   11.82   0
   0  -2 -46  552.32   19.44   0
   0  -1 -53   -8.72   13.68   0
   0   4 -46  284.59   17.48   0
  -1   0 -43    6.81   12.89   0
  -1   3 -43   -0.69   13.39   0
   0   0 -57  -11.23   14.72   0
   0   1 -58  418.90   19.58   0
   1  -3 -53   -3.41   15.68   0
   1   3 -59    3.75   15.49   0
  -1   1 -47   -2.05   12.04   0
  -1   4 -29    1.03   11.21   0
   1  -2 -60  410.51   20.20   0
   1   0 -65  -20.09   15.05   0
  -1  -1 -33    7.45   10.97   0
  -1  -1 -27   -2.14    9.68   0
  -1   2 -48  605.74   19.29   0
  -1   4 -32 1294.32   25.46   0
  -1   4 -26  896.21   21.97   0
   0   4 -49   -3.22   14.62   0
   1  -1 -64  248.10   17.31   0
   1   4 -54  164.07   15.48   0
  -1  -1 -24 2023.24   31.17   0
  -1   0 -46  230.35   16.23   0
  -1   3 -46  270.30   16.63   0
  -1   4 -35   24.07   12.51   0
  -1   4 -23   53.91   11.37   0
   0  -2 -49    6.08   13.56   0
   0   2 -59   -0.86   14.89   0
  -1  -1 -36 1333.31   24.43   0
  -1   1 -50  595.22   20.06   0
  -1   4 -38  285.68   16.50   0
   0  -1 -56  505.45   18.47   0
  -1  -1 -39   -2.89   11.66   0
  -1   2 -51   -5.96   13.86   0
   0  -3 -33    3.76   11.03   0
   0  -3 -30  791.24   21.98   0
   0  -3 -27   -0.89    9.53   0
   0   0 -60  456.35   19.62   0
   0   1 -61    6.24   14.83   0
  -1  -1 -21   36.76    9.89   0
  -1   3 -49   16.46   13.72   0
  -1   4 -41   11.57   12.64   0
  -1   4 -20 1103.89   24.28   0
   0   4 -52  317.23   17.72   0
   1  -3 -56  440.81   19.94   0
   0  -3 -36  794.59   21.62   0
   0  -3 -24 1917.68   34.79   0
   0  -2 -52  380.62   18.04   0
   1  -2 -63   14.01   14.09   0
  -1  -1 -42  538.34   17.74   0
  -1   1 -53   11.14   12.62   0
  -1   4 -44  559.35   20.13   0
   0  -3 -39    2.48   12.05   0
   0  -1 -59   -7.74   15.09   0
   0   5 -41    9.77   13.12   0
  -1   2 -54  299.92   17.02   0
  -1  -1 -45   17.87   12.98   0
  -1   3 -52  651.32   19.93   0
  -1   4 -17   -4.76    9.47   0
   0   1 -64  241.04   17.76   0
   0   4 -55   -8.08   13.71   0
   0   5 -44  395.07   19.40   0
  -2   2 -34  360.54   15.98   0
  -2   2 -31    5.79   11.50   0
  -1   4 -47   14.49   13.82   0
   0  -3 -42  394.96   17.88   0
   0  -2 -55   -9.40   14.48   0
  -2   2 -37   -1.21   10.57   0
  -2   2 -28 1385.06   24.09   0
  -1   1 -56  469.30   18.14   0
  -2   2 -40 1353.19   25.04   0
  -2   2 -25    0.52   10.56   0
  -2   3 -35    0.43   11.56   0
  -2   3 -32 1616.55   25.89   0
  -2   3 -29   17.19   11.46   0
  -1  -1 -48  654.42   20.32   0
  -1   2 -57   -0.99   13.54   0
  -1   3 -55   11.91   14.35   0
   0  -1 -62  116.36   16.49   0
   0   2 -65   -9.61   14.33   0
   0   5 -47    1.53   13.62   0
  -2   1 -36 1323.83   24.59   0
  -2   1 -33   22.53   10.19   0
  -2   1 -30  834.10   19.58   0
  -2   3 -38  536.18   18.59   0
  -1   4 -50  421.06   19.53   0
   0   4 -58  190.96   16.83   0
  -2   1 -39    9.27   10.80   0
  -2   1 -27    5.25    9.17   0
  -2   2 -43    3.25   11.28   0
  -2   3 -41    5.15   12.50   0
  -2   3 -26  656.15   17.84   0
  -1   5 -33   25.75   13.24   0
  -2   1 -42  542.71   18.83   0
  -2   2 -22 2252.74   30.24   0
  -1  -1 -51    7.49   13.96   0
  -1   1 -59    5.07   14.12   0
  -1   5 -36  548.57   19.15   0
  -1   5 -30  498.25   18.92   0
   0  -2 -58  200.83   16.35   0
   0   5 -50  168.16   17.01   0
  -2   1 -24 2176.06   29.56   0
  -2   2 -46  554.84   18.06   0
  -2   3 -44  576.96   19.86   0
  -1   2 -60  425.51   18.88   0
  -1   3 -58  258.49   17.99   0
  -1   4 -53   17.60   14.09   0
  -1   5 -39    4.69   12.61   0
  -1   5 -27   19.60   10.78   0
  -2   1 -45   20.16   12.77   0
  -1   5 -42  352.84   17.61   0
   0  -1 -65   -0.35   14.96   0
  -2   2 -49    8.16   13.29   0
  -2   3 -47   -1.83   13.84   0
  -2   4 -36  635.11   19.51   0
  -2   4 -33   -4.18   11.65   0
  -1  -2 -38  558.28   18.57   0
  -1  -2 -35    7.34   10.44   0
  -1  -2 -32 1653.46   28.26   0
  -2   1 -48  637.46   20.33   0
  -2   1 -21   42.77   10.83   0
  -2   2 -19    4.75    8.37   0
  -2   4 -39    7.83   10.89   0
  -2   4 -30  300.64   14.11   0
  -1  -2 -29   14.95   10.15   0
  -1  -1 -54  272.80   17.54   0
  -1   1 -62  112.65   16.66   0
  -1   5 -45   12.41   12.82   0
  -2   3 -50  346.05   17.96   0
  -2   4 -27    0.59   10.61   0
  -1  -2 -41    5.51   11.73   0
  -1   2 -63   -1.40   14.07   0
  -1   3 -61    6.33   14.59   0
   0  -2 -61   10.08   13.48   0
  -2   2 -52  365.30   18.79   0
  -1  -2 -44  582.32   19.35   0
  -1  -2 -26  667.51   20.15   0
  -1   0 -61   -6.77   14.13   0
  -1   5 -48  491.73   19.60   0
  -2   1 -51   16.38   14.00   0
  -2   4 -24 2413.55   32.02   0
  -2   3 -53   11.38   14.48   0
  -1  -1 -57    0.74   13.22   0
  -1   1 -65   -5.56   14.33   0
  -1   4 -59   -9.32   13.52   0
  -2   1 -18 1340.76   24.89   0
  -2   2 -55  -11.73   15.18   0
  -1  -2 -47   -0.65   12.12   0
  -1   5 -51   -2.92   12.94   0
  -2   1 -54  295.92   17.57   0
  -2   2 -16 3223.79   36.99   0
  -1   0 -64  234.97   17.35   0
  -2   0 -23   11.24    9.47   0
  -2   3 -56  507.64   19.34   0
  -2   4 -21    7.60   10.10   0
  -1  -2 -50  354.17   16.92   0
  -1  -2 -23    4.19    8.65   0
  -2   0 -50  366.93   16.23   0
  -2   2 -58  203.03   16.68   0
  -1  -1 -60  397.72   19.24   0
  -1   5 -54  169.73   14.94   0
  -2   1 -57    6.83   14.36   0
  -2   5 -40  821.23   21.85   0
  -2   5 -37   10.53   12.06   0
  -2   5 -34  696.74   20.12   0
  -2   0 -53    1.71   13.33   0
  -2   3 -59   17.49   14.65   0
  -2   5 -43    5.47   12.31   0
  -2   5 -31    9.23   11.32   0
  -1  -2 -53    6.78   14.31   0
  -2  -1 -37   10.69   11.37   0
  -2   0 -20 3918.28   40.22   0
  -2   1 -60  424.97   18.97   0
  -2   2 -61    6.66   13.58   0
  -2   4 -18 1347.04   25.20   0
  -2   5 -46  148.54   13.56   0
  -2   5 -28  592.36   18.69   0
  -1  -1 -63   -2.26   13.42   0
  -3   2 -38  568.75   18.04   0
  -3   3 -42  421.45   17.20   0
  -3   3 -39    3.83   10.86   0
  -3   3 -36  835.06   19.57   0
  -3   3 -33    6.67   11.66   0
  -2  -1 -43    2.75   12.07   0
  -2  -1 -40  702.29   18.65   0
  -2  -1 -34  864.12   20.78   0
  -2   0 -56  236.40   16.91   0
  -2   1 -15    7.97    7.88   0
  -2   3 -14 1691.44   28.35   0
  -2   5 -49    1.32   13.71   0
  -3   2 -44  615.52   19.54   0
  -3   2 -41    6.37   11.44   0
  -3   2 -35    5.70   10.53   0
  -3   2 -32 1690.69   26.31   0
  -3   3 -45   18.18   12.68   0
  -2  -1 -31    5.96   10.22   0
  -2   2 -13    4.17    7.47   0
  -2   3 -62  170.31   15.81   0
  -1  -2 -56  441.97   18.14   0
  -3   3 -30  830.14   19.00   0
  -2  -1 -46  286.16   15.90   0
  -2   5 -25   -0.11    9.89   0
  -3   2 -47   -1.30   11.55   0
  -3   2 -29   21.34   11.16   0
  -3   3 -48  645.08   19.04   0
  -2   2 -64  376.96   17.19   0
  -2   5 -52  306.23   17.39   0
  -3   3 -27    2.20    9.38   0
  -2  -1 -49    5.62   12.80   0
  -2  -1 -28 1692.21   26.49   0
  -2   0 -59    4.33   13.09   0
  -3   1 -43   -3.25   11.97   0
  -3   1 -40  673.96   18.25   0
  -3   1 -37   -3.60   10.25   0
  -3   1 -34  911.39   20.77   0
  -3   3 -51   -8.76   11.98   0
  -3   4 -46  176.06   13.67   0
  -2   5 -55   -5.68   13.96   0
  -3   2 -26  665.41   17.31   0
  -8   3 -17   -1.75   11.85   0
  -7   3 -25   26.13   12.46   0
  -6   3 -30  371.34   15.48   0
  -9   3   3    7.84   12.40   0
  -9   3   9   18.94   10.94   0
  -9   3  12  286.73   14.77   0
  -7   2 -15   15.82   11.98   0
  -7   4 -32  538.58   18.28   0
  -9   3   0  631.27   17.76   0
  -9   3  15   12.28   12.11   0
  -9   5 -26  319.32   15.12   0
  -8   2   8  807.67   19.51   0
  -8   4 -27    5.99   12.08   0
  -6   1 -10  720.67   17.98   0
  -6   1  23    1.42    9.41   0
  -6   2 -23    8.96    9.24   0
  -9   3  -3   32.89   12.42   0
  -8   2   2  392.14   14.83   0
  -8   2  11   -2.93    9.89   0
  -4   0  -7   -1.35    7.77   0
  -4   0  20 1552.54   25.39   0
  -3   0 -12 2810.03   31.54   0
  -8   2  -1    9.05   10.46   0
  -5   2 -28  600.21   17.71   0
  -4   2 -30  306.49   14.14   0
  -9   3  -6  345.75   15.21   0
  -8   2  -4  379.28   16.01   0
  -8   2  17   -3.31   11.22   0
  -7   2 -18  666.52   18.41   0
  -4   1 -23   47.28   10.02   0
  -7   3 -28  642.06   18.78   0
  -6   1 -13   17.64    9.88   0
  -5   0   4 1422.39   22.01   0
  -5   0  10  864.31   18.72   0
  -4   0 -10  545.05   15.81   0
  -9   3  -9    2.13   12.66   0
  -9   3  21    4.59   11.28   0
  -9   4 -22  214.58   14.96   0
  -8   2  -7   -9.95   12.04   0
  -5   0   1    1.12    8.35   0
  -5   0  13    1.72    9.35   0
  -9   5 -29    6.25   10.85   0
  -8   2  20  325.16   14.90   0
  -7   1  10  363.09   15.20   0
  -6   2 -26  542.66   17.54   0
  -6   3 -33    5.65   12.13   0
  -5   0  -2  510.67   14.65   0
  -4   0  23    0.52    7.74   0
  -3   1 -25   24.76    8.35   0
  -9   3 -12  277.06   15.47   0
  -8   2 -10  384.10   16.39   0
  -8   3 -23   17.08   11.95   0
  -8   4 -30  197.73   14.75   0
  -7   1  -2  585.95   17.15   0
  -7   1  13   -7.60   10.84   0
  -5   0  16  929.95   19.65   0
  -3   0 -15    0.82    8.37   0
  -6   1 -16  944.11   19.22   0
  -5   0  -5   -6.59    8.64   0
  -4   0 -13   -1.19    9.29   0
  -8   2  23   -6.91    9.91   0
  -7   1  -5   32.24   10.48   0
  -7   1  16  989.07   20.67   0
  -9   3 -15   11.54   12.68   0
  -9   4 -25    5.56   12.16   0
  -8   2 -13  -16.94   12.13   0
  -5   0  19   -6.12    9.07   0
  -5   2 -31    1.95   10.24   0
  -7   1  -8 1033.97   21.19   0
  -7   1  19   24.85   10.42   0
  -7   3 -31    7.83   11.37   0
  -4   1 -26  958.53   20.50   0
  -8   3 -26  381.84   16.47   0
  -7   2 -24  607.37   17.81   0
  -6   1 -19    7.49    9.53   0
  -6   2 -29  -10.55   11.42   0
  -5   1 -24 1360.51   23.06   0
  -7   1 -11   14.20   12.01   0
  -5   0 -11    2.33    9.85   0
  -4   0 -16 1997.10   26.47   0
  -4   2 -33    2.50    8.66   0
  -9   3 -18  240.13   14.45   0
  -8   4 -33   -1.09   11.95   0
  -7   1  22  269.41   14.09   0
  -5   0  22  382.94   15.32   0
  -2   0 -17    2.95    6.15   0
  -6   0   3    4.32   10.62   0
  -6   0   9    3.98   10.25   0
  -9   2   1    6.17   12.24   0
  -9   2   7   -3.95   11.28   0
  -9   4 -28  225.33   13.90   0
  -7   1 -14  222.51   14.57   0
  -6   0   0 1244.20   21.02   0
  -9   2  -2  217.00   14.74   0
  -9   2  10  318.56   15.12   0
  -8   2 -19   -5.86   12.06   0
  -6   0  -3    2.75    9.77   0
  -6   0  12  572.52   15.65   0
  -5   0 -14  822.45   17.86   0
  -3   1 -28 1792.11   27.99   0
  -9   2  13    3.08   10.87   0
  -8   3 -29   10.36   11.42   0
  -7   2 -27    5.68   11.65   0
  -7   3 -34  333.85   17.04   0
  -6   0  15   -6.15   10.33   0
  -3  -1   4 1443.96   23.03   0
  -9   2  -5    4.75   11.21   0
  -6   0  -6  375.28   13.85   0
  -5   1 -27   19.76    9.05   0
  -5   2 -34  725.89   20.41   0
  -3  -1   1   70.22    8.46   0
  -2  -1   2  724.61   18.07   0
  -9   2  -8  483.64   17.07   0
  -9   2  16  362.13   15.73   0
  -8   1   0  659.82   18.33   0
  -8   1   6  200.91   14.57   0
  -8   1   9   20.61   11.17   0
  -7   1 -17    9.52   10.27   0
  -6   2 -32  616.55   18.85   0
  -4   1 -29    5.19    9.27   0
  -3  -1  -2  993.47   18.77   0
  -3  -1  10 1289.50   21.84   0
  -8   1  -3   28.94   11.92   0
  -8   1  12  398.56   15.78   0
  -6   0  -9    3.87    9.81   0
  -6   0  18  398.27   14.87   0
  -5   0 -17    3.01    9.00   0
  -3   0 -21   -1.52    6.97   0
  -2  -1  -1   86.83    8.61   0
  -9   2 -11    1.79   12.52   0
  -9   2  19   -0.56   10.93   0
  -9   3 -24  489.33   16.74   0
  -6   1 -25   13.26   11.73   0
  -4  -1   3    9.90    8.57   0
  -3  -1  -5    9.55    7.55   0
  -3  -1  13   16.56    7.89   0
  -8   1  -6  382.29   15.18   0
  -8   1  15   12.02   10.55   0
  -6   0 -12  721.92   18.13   0
  -4  -1   0 1733.12   23.77   0
  -4  -1   9   48.88    9.65   0
  -2  -1  -4 3099.32   33.18   0
  -8   1  -9    9.10   12.02   0
  -8   3 -32  456.07   17.62   0
  -7   2 -30  178.97   13.94   0
  -4  -1  -3   56.21   10.28   0
  -9   2 -14  279.10   14.92   0
  -8   1  18  380.91   16.77   0
  -6   0  21    5.64    9.54   0
  -5   0 -20 1022.32   20.27   0
  -4  -1  12 1408.87   22.99   0
  -3  -1  -8 3111.68   31.16   0
  -8   2 -25   -0.77   11.20   0
  -6   0 -15    8.51   10.75   0
  -5   1 -30  541.57   17.17   0
  -4  -1  -6 1083.69   19.41   0
  -3  -1  16 2325.86   30.46   0
  -2  -1  -7    6.75    7.81   0
  -9   3 -27   15.83   11.47   0
  -8   1 -12  332.76   14.87   0
  -7   0  -1    1.67   11.59   0
  -7   0   5    1.27   11.74   0
  -7   0   8  933.71   20.31   0
  -9   2 -17    4.92   11.77   0
  -7   0  11   10.68   10.70   0
  -6   2 -35    0.80   11.50   0
  -4  -1  -9    2.02    9.17   0
  -4  -1  15    5.85    7.35   0
  -3  -1 -11   62.55    9.31   0
  -3   0 -24 1318.19   22.60   0
  -5  -1   2  498.65   15.80   0
  -4   1 -32 1316.38   23.81   0
  -3   1 -31    8.23    8.41   0
  -7   0  -7  -10.42   10.12   0
  -7   0  14  249.94   13.44   0
  -7   2 -33    6.48   12.22   0
  -6   0 -18  634.30   16.92   0
  -5  -1  -1   30.37    9.44   0
  -5  -1   8 1152.17   20.19   0
  -4   0 -25    0.77    9.37   0
  -2  -1 -10 2204.15   28.06   0
  -9   2 -20  283.03   14.59   0
  -8   2 -28  327.81   16.18   0
  -8   3 -35   16.93   12.06   0
  -5  -1  -4 1053.21   19.43   0
  -5  -1  11   14.50    9.53   0
  -4  -1 -12 1205.30   20.68   0
  -4  -1  18  980.73   20.08   0
  -3  -1  19   39.71    8.33   0
  -8   1 -18  270.42   14.80   0
  -7   0 -10  390.60   15.03   0
  -5  -1  -7    2.97   10.14   0
  -3  -1 -14  850.43   17.97   0
  -7   0  17   -1.83   10.75   0
  -7   1 -26  522.38   16.27   0
  -5  -1  14  582.12   16.54   0
  -2   0 -23    0.80    7.34   0
  -9   1   5   21.80   12.06   0
  -7   0 -13   10.08   12.49   0
  -6   0 -21    1.95    9.81   0
  -6   1 -31    8.47   11.68   0
  -5  -1 -10  747.65   18.13   0
  -5   1 -33   16.93   10.85   0
  -9   1   8  313.48   14.38   0
  -4  -1 -15   28.54    8.96   0
  -2  -1 -13   62.19    8.94   0
  -8   1 -21    3.63   12.23   0
  -8   2 -31   -0.94   11.46   0
  -7   0  20  316.03   14.21   0
  -5  -1  17    6.93    9.36   0
  -5   0 -26  376.93   14.23   0
  -4  -1  21   23.50    8.60   0
  -9   1  -7   16.49   12.21   0
  -7   0 -16  847.23   18.72   0
  -5  -1 -13   24.68   11.37   0
  -3  -1 -17   -3.46    7.58   0
  -3   0 -27   -3.50    7.04   0
  -9   1 -10  177.70   14.64   0
  -7   1 -29    2.19   12.24   0
  -6  -1   7   28.97   10.67   0
  -3  -1  22  408.14   15.18   0
  -6  -1  -5   34.42   11.62   0
  -6  -1  10  377.15   15.07   0
  -4  -1 -18  525.63   14.98   0
  -4   1 -35   16.92    9.26   0
  -8   0  -2  178.47   12.98   0
  -8   0   7   -1.47   10.93   0
  -7   0 -19   -1.86   12.51   0
  -6  -1  -8 1016.30   20.76   0
  -5  -1 -16  971.99   20.16   0
  -5  -1  20  707.86   18.10   0
  -8   0  -5    1.29   10.84   0
  -8   0  10  339.76   14.78   0
  -6  -1  13    4.07   10.58   0
  -6   1 -34  432.46   16.76   0
  -5   0 -29   -4.90   10.96   0
  -2  -1 -16 2188.98   27.31   0
  -8   0  -8  457.88   16.91   0
  -8   2 -34  312.78   15.41   0
  -6  -1 -11    3.54   11.08   0
  -5   1 -36  579.71   17.99   0
  -8   0  13   11.56   10.63   0
  -7   1 -32  548.95   18.29   0
  -6   0 -27   15.29   12.10   0
  -4  -1 -21   19.03   10.22   0
  -2   0 -26 1517.78   25.88   0
  -8   0 -11    3.36   11.38   0
  -8   1 -27  -11.71   11.51   0
  -7   0 -22  248.26   13.24   0
  -6  -1  16  974.47   20.42   0
  -5  -1 -19    2.39    9.58   0
  -4   0 -31    7.67    9.80   0
  -8   0  16  289.23   14.62   0
  -6  -1 -14  244.64   12.96   0
  -3   0 -30  453.24   15.00   0
  -8   0 -14  334.06   15.52   0
  -7  -1   3    9.30   11.98   0
  -6  -1 -17   16.10   12.12   0
  -6  -1  19   33.59   11.03   0
  -4  -2   1   -1.87    9.67   0
  -3  -2  -1    3.44    7.51   0
  -3  -2   2  955.89   18.17   0
  -8   0 -17   -0.56   11.53   0
  -7  -1  -3   24.14   12.24   0
  -7  -1   6  226.94   13.68   0
  -6   0 -30  208.32   14.59   0
  -6   1 -37   22.56   11.46   0
  -5  -1 -22  350.11   13.87   0
  -5   0 -32  778.51   19.32   0
  -4  -2  -2  745.22   16.70   0
  -3  -2  -4  876.24   17.42   0
  -3  -1 -23   34.64    8.16   0
  -8   1 -30  199.86   13.76   0
  -7  -1  -6  399.14   15.10   0
  -7  -1   9   27.03   11.12   0
  -4  -2  -5  -15.29    8.49   0
  -4  -2   7    6.20    7.97   0
  -3  -2  -7   27.80    8.10   0
  -3  -2   8 2498.04   28.45   0
  -7  -1  -9    1.24   11.70   0
  -7   1 -35   15.91   11.68   0
  -4  -2  -8 1161.19   20.78   0
  -4  -2  10  536.59   15.63   0
  -8   0 -20  313.83   15.05   0
  -7  -1  12  386.01   14.85   0
  -6  -1 -20  484.87   15.46   0
  -3  -2  11   19.31    8.17   0
  -2  -2   0 4537.21   38.02   0
  -2  -2   3    7.40    7.52   0
  -7  -1 -12  363.92   14.64   0
  -7   0 -28  301.59   15.24   0
  -5  -2  -3   -0.24   10.39   0
  -5  -2   0  948.68   18.96   0
  -4  -2 -11   11.24   10.32   0
  -4   0 -34  411.15   15.38   0
  -2  -2  -3    3.38    6.81   0
  -7  -1  15    9.45   11.97   0
  -5  -2  -6  308.42   14.38   0
  -5  -2   6  661.22   16.46   0
  -4  -2  13    0.42    8.72   0
  -4  -1 -27   11.66   10.31   0
  -2  -2  -6  932.75   17.78   0
  -7  -1 -15    6.86   12.04   0
  -6  -1 -23   21.25   12.56   0
  -6   0 -33    9.04   11.53   0
  -5  -2  -9   10.55   11.39   0
  -5  -2   9   -0.63    9.75   0
  -3  -2 -13   -7.18    7.93   0
  -3  -2  14  488.62   14.93   0
  -3  -1 -26  878.05   17.85   0
  -2   0 -29    0.83    7.70   0
  -8   1 -33   -1.23   11.75   0
  -5   0 -35    7.24   10.64   0
  -4  -2 -14  484.30   14.56   0
  -3   0 -33   -2.02    8.10   0
  -2  -2  -9    4.99    8.21   0
  -2  -2   9    1.45    7.06   0
  -5  -2 -12  709.23   17.84   0
  -5  -2  12  589.79   16.82   0
  -7  -1 -18  274.42   14.54   0
  -7   0 -31   -1.42   11.36   0
  -7   1 -38  126.65   13.59   0
  -5  -1 -28  768.71   19.09   0
  -4  -2 -17    2.28   10.43   0
  -4  -2  16 1021.12   20.13   0
  -3  -2 -16 2247.74   25.94   0
  -2  -2 -12  933.57   17.66   0
  -8  -1  -1   -5.04   11.76   0
  -8  -1   2  235.88   13.50   0
  -6  -2   2  383.84   14.06   0
  -5  -2 -15    1.86    9.68   0
  -4  -1 -30  542.11   16.38   0
  -3  -2  17   -0.91    7.93   0
  -2  -2  12  911.50   19.20   0
  -8  -1  -7    6.36   11.28   0
  -8  -1   5   17.55   11.20   0
  -7  -1 -21    0.96   11.03   0
  -6  -2  -7    2.00    9.84   0
  -3  -1 -29    9.44    8.83   0
  -2  -1 -25   26.18    8.08   0
  -8  -1 -10  218.37   13.75   0
  -8  -1   8  310.55   13.91   0
  -6  -2 -10  378.46   15.76   0
  -6  -2   8  834.91   19.34   0
  -6   0 -36  508.72   17.70   0
  -5  -2 -18  654.94   17.58   0
  -4  -2 -20  992.20   18.88   0
  -4  -2  19    2.99    8.47   0
  -4   0 -37   -3.83    9.47   0
  -3  -2 -19   26.81    8.39   0
  -2  -2 -15   -7.53    8.46   0
  -5  -1 -31    6.85   11.61   0
  -8  -1  11   -0.29   10.49   0
  -7  -1 -24  517.87   16.72   0
  -7   0 -34  372.08   16.19   0
  -6  -2 -13   12.74   10.90   0
  -6  -2  11    9.82    9.14   0
  -6  -1 -29    3.10   11.57   0
  -5  -2  18  309.28   13.76   0
  -5   0 -38  401.83   16.03   0
  -5  -2 -21   11.62   11.53   0
  -2  -2  15    4.32    7.07   0
  -6  -2 -16  766.44   19.31   0
  -6  -2  14  236.47   13.33   0
  -4  -2 -23    3.60    9.15   0
  -3  -2  20  750.34   18.57   0
  -3   0 -36 1240.54   23.05   0
  -2  -2 -18 1368.88   21.50   0
  -4  -1 -33   17.78   10.38   0
  -2   0 -32  772.71   19.41   0
  -1  -2  -5   14.05    7.79   0
  -1  -2  -2  723.07   16.67   0
  -1  -2   1   84.60    8.22   0
  -7  -2   1    9.25   11.93   0
  -7  -2  -8  476.11   16.93   0
  -7  -2  -5    3.19   10.54   0
  -7  -2   4  373.49   14.87   0
  -6  -2 -19    6.18   10.48   0
  -6  -1 -32  537.35   17.38   0
  -6   0 -39    9.79   11.86   0
  -5  -2 -24  607.35   17.70   0
  -5  -1 -34  434.03   16.21   0
  -3  -1 -32 1303.98   22.38   0
  -2  -1 -28 1764.52   25.45   0
  -1  -2  -8 3496.53   34.14   0
  -7  -2   7   -6.61   11.45   0
  -7   0 -37   -6.03   10.86   0
  -6  -2  17   -0.84   10.16   0
  -4  -3  -4  941.48   19.64   0
  -4  -3  -1    6.43    9.94   0
  -3  -3  -3    4.75    9.61   0
  -3  -3   0 1316.82   21.29   0
  -7  -2 -11   -4.57   12.23   0
  -4  -3  -7   -3.80   10.76   0
  -3  -3  -6  638.32   15.25   0
  -1  -1 -21   39.50    7.86   0
  -7  -2 -14  257.35   14.64   0
  -7  -2  10  302.12   14.72   0
  -7  -1 -30  189.59   14.09   0
  -6  -2 -22  215.48   13.20   0
  -4  -3 -10  561.83   16.14   0
  -4  -3   5   14.74    8.72   0
  -3  -3  -9   13.33   10.07   0
  -3  -3   6  627.67   16.07   0
  -2  -2  18 1224.29   23.08   0
  -1  -2 -11   42.75    7.45   0
  -4  -3   8  830.59   18.37   0
  -7  -2 -17   -0.78   12.11   0
  -5  -3  -5   -7.71    9.52   0
  -5  -3   1   -1.30   11.66   0
  -4  -3 -13   20.89   11.35   0
  -4  -1 -36  514.11   16.38   0
  -3  -3 -12 1068.79   18.90   0
  -7  -2  13   -2.43   10.59   0
  -6  -2 -25    1.69   11.52   0
  -6  -1 -35   23.06   12.55   0
  -5  -3  -8  827.34   18.02   0
  -5  -3   4  448.40   14.49   0
  -4  -2 -29    8.70   10.38   0
  -3  -3   9   23.32    7.68   0
  -2  -3  -5   23.46    8.88   0
  -2  -3  -2  984.36   18.52   0
  -1  -2 -14 1827.57   24.85   0
  -5  -3 -11   -5.90    9.99   0
  -5  -3   7    8.09   10.54   0
  -5  -1 -37    6.92   11.66   0
  -4  -3 -16  695.02   17.26   0
  -4  -3  11    3.53    9.45   0
  -3  -3 -15    0.42    8.38   0
  -3  -2 -28  590.88   15.28   0
  -3  -1 -35   14.03   10.33   0
  -2  -3  -8 2631.18   27.86   0
  -2  -3   1   -2.56    7.19   0
  -2  -2 -24 2229.57   26.80   0
  -7  -2 -20  296.77   14.71   0
  -7  -1 -33    0.83   10.90   0
  -5  -3 -14  275.92   14.55   0
  -2  -1 -31    6.43    7.76   0
  -5  -3  10  405.48   14.83   0
  -5  -2 -30  178.93   12.28   0
  -3  -3  12 1026.72   19.62   0
  -2  -3 -11   12.94    7.94   0
  -5  -3 -17   -1.60   12.14   0
  -4  -3 -19   -0.37    9.39   0
  -4  -3  14  533.75   15.44   0
  -3  -3 -18  601.87   15.23   0
  -2  -3   7   26.10    7.30   0
  -1  -2 -17   26.45    7.85   0
  -1  -1 -24 2033.66   28.24   0
  -6  -3  -6  366.98   15.42   0
  -6  -3   0  626.60   17.77   0
  -6  -3   3    3.84   11.82   0
  -4  -2 -32  623.65   17.09   0
  -2  -3 -14  492.38   14.45   0
  -6  -3  -9    0.50   10.79   0
  -6  -1 -38  128.49   13.43   0
  -5  -3  13    3.97    9.41   0
  -4  -1 -39   14.56   10.99   0
  -3  -2 -31   14.41    9.77   0
  -6  -3 -12  281.97   15.10   0
  -6  -3   6  180.28   12.97   0
  -5  -3 -20  404.12   16.19   0
  -4  -3 -22  322.44   13.57   0
  -3  -3 -21   21.69    8.96   0
  -3  -3  15    6.04    8.17   0
  -2  -3  10  875.39   18.17   0
  -2  -2 -27    1.87    7.08   0
  -2  -2  21   -2.39    6.63   0
  -6  -3 -15    8.71   12.00   0
  -6  -2 -31   -1.22   11.69   0
  -5  -2 -33    4.11   10.92   0
  -5  -1 -40  401.63   16.13   0
  -4  -3  17   24.98    9.42   0
  -2  -3 -17    6.19    7.95   0
  -6  -3   9   15.61   11.12   0
  -6  -3 -18  245.06   14.19   0
  -5  -3 -23   -3.60   12.12   0
  -5  -3  16  686.79   17.72   0
  -4  -3 -25   29.93   10.77   0
  -3  -3 -24  931.08   19.00   0
  -3  -1 -38  288.17   13.21   0
  -6  -3  12  310.35   14.25   0
  -4  -2 -35    5.16   10.77   0
  -2  -3 -20  818.95   16.53   0
  -2  -3  13    0.32    7.78   0
  -2  -1 -34  876.93   18.95   0
  -6  -1 -41   -6.20   12.57   0
  -3  -3  18  579.83   16.02   0
  -1  -3  -7   40.97    8.21   0
  -1  -3  -4 1460.91   21.22   0
  -1  -3  -1   57.67    8.59   0
  -6  -3 -21    3.61   11.40   0
  -6  -2 -34  350.20   15.10   0
  -5  -3 -26  393.13   15.60   0
  -5  -2 -36  513.16   16.71   0
  -2  -2 -30  287.12   12.70   0
  -1  -3   2  974.19   18.52   0
  -1  -1 -27   -2.38    6.49   0
  -1  -3 -10 1364.50   20.39   0
  -1  -2 -23   10.84    7.35   0
  -4  -4  -9    9.30   11.65   0
  -4  -4  -6  358.09   13.57   0
  -3  -4  -8  812.49   17.71   0
  -3  -4  -5   23.00    8.97   0
  -3  -4  -2  400.43   13.56   0
  -1  -3 -13   29.03    8.52   0
  -4  -4 -12  492.16   16.57   0
  -4  -4   3   -6.94   10.33   0
  -3  -4 -11   17.96   10.17   0
  -4  -2 -38  250.26   13.79   0
  -3  -4   4  975.62   18.46   0
  -2  -3  16 2213.51   27.99   0
  -6  -2 -37    1.05   11.64   0
  -5  -4  -7   17.86   11.23   0
  -5  -4  -1    2.30   10.70   0
  -4  -4 -15   -4.06   11.24   0
  -4  -4   6  355.51   14.67   0
  -4  -3 -31  -15.72   11.62   0
  -3  -4 -14  537.61   15.14   0
  -1  -3 -16 2496.73   26.74   0
  -6  -3 -27   21.21   11.13   0
  -5  -4 -10  298.82   14.94   0
  -5  -4   2  358.97   14.64   0
  -5  -2 -39    5.91   10.83   0
  -3  -4   7   12.17    9.55   0
  -3  -3 -30  369.42   14.49   0
  -3  -2 -37    6.31    9.44   0
  -2  -4  -7    6.80    8.00   0
  -2  -4  -4 1135.52   18.98   0
  -2  -4  -1   -2.55    9.09   0
  -2  -2 -33   -1.94    8.79   0
  -1  -3   8 3116.97   32.08   0
  -5  -4 -13   15.20   11.79   0
  -5  -4   5   22.40   11.57   0
  -4  -4 -18  393.17   15.81   0
  -4  -4   9    8.83    9.77   0
  -3  -4 -17   27.78    9.40   0
  -2  -4 -10  519.69   14.32   0
  -1  -2 -26  682.45   16.19   0
  -5  -4 -16  680.46   18.05   0
  -5  -3 -32  479.73   16.47   0
  -3  -4  10  564.05   15.78   0
  -2  -4 -13   -5.53    9.65   0
  -2  -1 -37    4.34    8.16   0
  -1  -3 -19   39.51    8.78   0
  -5  -4   8  640.53   18.22   0
  -4  -4 -21    6.48   11.04   0
  -3  -4 -20  737.68   17.74   0
  -2  -4   5    5.32    8.66   0
  -5  -4 -19   27.95   11.80   0
  -4  -4  12  516.04   15.80   0
  -4  -3 -34  349.37   15.06   0
  -2  -4 -16 1065.48   18.57   0
  -1  -1 -30  789.79   18.62   0
  -4  -2 -41   -1.82   10.55   0
  -3  -3 -33   12.87   10.29   0
  -2  -3 -29   -4.45    7.75   0
  -2  -3  19   16.91    7.80   0
  -1  -3  11   63.88    8.07   0
  -5  -4  11   -2.93   10.69   0
  -4  -4 -24  594.68   17.21   0
  -3  -4 -23   -7.09    9.15   0
  -3  -4  13   32.75    9.38   0
  -2  -4 -19    7.88    9.41   0
  -2  -4   8 1126.42   19.07   0
  -5  -4 -22  223.57   13.86   0
  -5  -3 -35   16.76   10.97   0
  -5  -2 -42  309.04   14.54   0
  -4  -4  15    1.00    9.00   0
  -3  -2 -40  791.46   18.75   0
  -2  -2 -36  609.92   16.18   0
  -1  -2 -29   11.95    8.05   0
  -4  -4 -27   -3.37   11.34   0
  -3  -4 -26  281.05   13.54   0
  -2  -4 -22  546.49   15.49   0
  -2  -4  11    1.13    8.28   0
  -1  -4  -9   57.33    8.99   0
  -1  -4  -6  467.44   13.20   0
  -1  -4  -3   -8.49    7.25   0
  -5  -4 -25   -1.32   10.41   0
  -4  -3 -37    9.64   11.33   0
  -2  -3 -32 1076.60   19.81   0
  -1  -4 -12 1417.84   20.96   0
  -1  -4   0 1749.54   22.53   0
  -1  -3 -25   -6.95    8.24   0
  -3  -4  16  643.17   16.51   0
  -3  -3 -36  556.34   15.80   0
  -1  -3  14  813.57   18.15   0
  -5  -3 -38  166.13   13.23   0
  -2  -4 -25   -7.44    9.57   0
  -1  -4 -15    6.19    7.72   0
  -3  -5  -7    8.34   11.08   0
  -2  -4  14  468.23   14.34   0
  -4  -5  -8  666.39   17.21   0
  -3  -5 -10  402.10   13.77   0
  -1  -4 -18  997.24   18.34   0
  -1  -4   6 1082.62   19.04   0
  -1  -1 -33   16.69    7.29   0
   0  -3  -6 2246.36   26.43   0
  -4  -5 -11   -0.74   10.67   0
  -4  -5  -2  341.88   14.00   0
  -4  -5   1   -6.33   11.05   0
  -3  -5 -13   12.48    9.29   0
  -3  -5   2  372.12   14.95   0
  -1  -3 -28  978.75   18.55   0
  -1  -2 -32 1620.05   23.96   0
   0  -3  -9    2.63    6.27   0
   0  -3  -3   -2.17    6.05   0
  -4  -5 -14  203.15   12.80   0
  -4  -3 -40  333.41   14.97   0
  -3  -5 -16  730.99   17.73   0
  -2  -5  -9  -16.37   10.22   0
  -2  -5  -6  667.97   16.40   0
  -2  -3 -35    9.99    9.36   0
  -2  -2 -39    2.11    8.34   0
   0  -3 -12 2235.41   25.70   0
   0  -3   0 2937.80   30.57   0
   0  -2 -19   -1.63    6.66   0
  -4  -5 -17   11.66   11.09   0
  -4  -5   4  269.07   13.35   0
  -4  -4 -33    1.24   10.75   0
  -3  -5   5   12.41    9.79   0
  -3  -4 -32  561.55   16.72   0
  -3  -3 -39    1.32   10.50   0
  -2  -5 -12  598.12   15.91   0
  -2  -5  -3   16.68    8.60   0
  -1  -4 -21   21.36    8.12   0
  -5  -5  -6  218.27   12.69   0
  -5  -5  -3   -0.23   10.18   0
  -3  -5 -19   -4.65   11.56   0
  -2  -5 -15   15.99   10.59   0
  -1  -4   9   -1.66    7.53   0
   0  -3 -15   -4.36    6.37   0
  -5  -5   0  406.61   14.41   0
  -4  -5 -20  311.62   14.21   0
  -4  -5   7    8.20    9.83   0
  -2  -5   3   -4.84    9.53   0
  -2  -4  17    0.75    7.82   0
  -1  -3  17    0.74    7.17   0
   0  -3   3    2.58    6.75   0
  -5  -5   3   -6.26   10.53   0
  -3  -5 -22  249.89   13.71   0
  -3  -5   8  826.84   17.32   0
  -2  -5 -18  320.41   13.83   0
  -2  -4 -31    0.14    9.94   0
  -4  -5 -23    5.82   11.13   0
  -2  -5   6  291.47   12.77   0
  -1  -3 -31   29.89    7.56   0
   0  -3 -18  642.10   14.66   0
   0  -2 -22 2140.53   27.18   0
  -4  -5  10  255.84   13.01   0
  -4  -4 -36  347.14   14.54   0
  -4  -3 -43    9.69   10.73   0
  -3  -4 -35    9.52   10.29   0
  -2  -5 -21   11.63    9.97   0
  -2  -3 -38  192.15   11.87   0
  -1  -4  12 1147.41   19.87   0
  -3  -5 -25   -4.04    9.83   0
  -3  -5  11    1.86    9.57   0
  -3  -3 -42  320.23   15.27   0
  -1  -5  -8 1172.23   19.56   0
  -1  -5  -5   -2.06    8.72   0
  -1  -2 -35    3.13    7.31   0
  -4  -5 -26  341.53   14.30   0
  -2  -5   9    9.41    9.02   0
  -1  -5 -11   18.81    8.54   0
  -1  -5  -2  489.98   14.36   0
   0  -4  -8 1849.41   23.04   0
  -2  -5 -24  821.79   17.17   0
  -2  -4 -34  355.15   14.44   0
  -1  -5 -14  639.60   15.19   0
   0  -4 -11    5.20    6.83   0
   0  -4  -5    1.01    6.74   0
   0  -4  -2 1582.72   21.81   0
  -1  -5 -17    7.35    9.94   0
   0  -4 -14  432.25   13.30   0
  -4  -4 -39  -12.75   10.36   0
  -3  -5  14  281.68   12.58   0
  -3  -4 -38  318.20   14.21   0
  -1  -5   4 1043.16   18.61   0
   0  -4   1    7.35    7.12   0
   0  -2 -25    1.13    6.55   0
  -2  -5 -27    9.25    8.99   0
  -2  -5  12  690.74   16.53   0
  -1  -5 -20  743.40   16.95   0
  -1  -4 -30  326.36   13.07   0
  -1  -4  15   40.82    8.06   0
   0  -4 -17    1.40    6.98   0
   0  -3 -24 1973.24   24.49   0
  -2  -3 -41    2.93    9.27   0
   0  -3   9    2.14    6.17   0
  -3  -6  -9   10.48   11.34   0
  -2  -4 -37    0.65   10.18   0
  -1  -5   7    6.98    8.62   0
  -1  -3  20  973.50   20.98   0
   0  -4 -20 1671.96   22.21   0
  -3  -6 -12  342.24   14.42   0
  -3  -6  -3    0.10   10.09   0
  -1  -5 -23    2.58    8.78   0
  -3  -6 -15    7.05   10.25   0
  -3  -6   0  661.87   16.55   0
  -2  -6 -11    2.85   10.64   0
  -3  -6 -18  445.81   15.12   0
  -3  -5 -34  340.77   14.54   0
  -3  -4 -41   16.64   10.88   0
  -2  -6 -14  237.45   13.50   0
  -1  -4 -33    5.71    9.39   0
  -1  -3 -37    6.94    8.06   0
   0  -3 -27    0.63    7.30   0
  -3  -6   3   21.67   10.67   0
  -2  -6 -17   22.61   10.65   0
  -2  -6   1   -2.59   10.08   0
  -1  -5  10  720.89   16.45   0
   0  -4   7   -5.74    6.06   0
   0  -2 -28 1347.43   22.21   0
  -3  -6 -21   12.00   10.94   0
  -2  -5 -33    0.41   10.16   0
   0  -5 -13   -3.70    8.81   0
   0  -5 -10  900.78   16.75   0
   0  -5  -7   -2.81    7.27   0
   0  -5  -4 1508.62   21.17   0
  -3  -6   6  364.59   13.61   0
  -2  -6 -20  363.13   14.01   0
  -2  -6   4  369.30   14.13   0
  -2  -4 -40  539.26   15.70   0
  -1  -4  18  494.80   14.65   0
   0  -3  12 2654.10   31.19   0
  -3  -6 -24  401.43   14.62   0
  -1  -6 -13    9.38   10.43   0
  -1  -6 -10  354.70   12.99   0
  -1  -6  -7   31.81   10.40   0
  -1  -6  -4  459.76   14.49   0
   0  -5 -16 1012.73   17.44   0
   0  -5  -1    1.28    7.25   0
   0  -4 -26 1001.05   18.17   0
  -3  -5 -37    2.24    9.96   0
  -2  -6 -23   -0.52    9.43   0
  -1  -6 -16  982.54   19.10   0
  -1  -5  13   20.55    8.82   0
  -1  -4 -36  837.86   17.77   0
   0  -5 -19    3.34    9.07   0
   0  -3 -30  789.93   16.78   0
  -3  -6   9    7.47    9.39   0
  -3  -4 -44  322.37   13.56   0
  -2  -6   7    0.62    9.75   0
   0  -4  10  530.84   14.22   0
  -3  -6 -27   17.90    9.56   0
  -2  -6 -26  445.94   14.85   0
  -2  -5 -36  356.22   14.44   0
  -1  -6 -19   12.32    9.35   0
  -1  -6   2  567.72   15.22   0
  -1  -5 -32  721.20   17.30   0
   0  -5 -22  392.59   12.55   0
   0  -5   5    3.19    7.81   0
   0  -4 -29   -7.59    8.18   0
   0  -2 -31    2.15    7.22   0
  -2  -6  10  364.08   13.59   0
  -1  -6 -22  319.73   12.67   0
  -2  -4 -43   -2.94    9.86   0
  -1  -6   5   28.07    8.20   0
  -1  -6 -25    0.77   10.28   0
  -1  -5  16  877.42   17.83   0
  -1  -4 -39   11.35    8.92   0
  -2  -5 -39   -3.91   10.27   0
  -1  -5 -35    1.50   10.16   0
   0  -5   8 1228.54   19.62   0
   0  -4  13    2.35    6.92   0
   0  -3 -33   -1.35    7.48   0
  -2  -6  13   -2.88    9.10   0
  -1  -6   8 1021.57   18.10   0
   0  -6 -15    1.10    9.73   0
   0  -6 -12  590.87   14.48   0
   0  -6  -9    3.75    8.15   0
   0  -6  -6  627.16   14.70   0
   0  -4 -32  709.87   16.28   0
  -2  -7 -10  319.14   14.09   0
  -2  -6 -32  428.69   13.98   0
   0  -6  -3    7.78    7.76   0
   0  -5 -28  944.22   17.37   0
   1  -4 -13   25.09    7.85   0
   1  -4 -10 1331.87   19.31   0
   1  -4  -7   40.91    7.15   0
   1  -3 -11   42.52    6.74   0
   1  -3  -8 3574.87   32.39   0
  -2  -7 -13   -7.06   10.49   0
  -2  -7  -4  358.45   13.97   0
   0  -6 -18  434.47   13.28   0
   1  -4  -4 1470.94   20.67   0
   1  -3 -14 1767.37   22.90   0
   1  -3  -5   15.95    6.15   0
  -2  -7 -16  392.18   13.71   0
  -2  -7  -1    5.30   10.62   0
  -1  -6  11   14.40    8.87   0
   0  -6 -21    8.02    9.93   0
   1  -4 -16 2476.64   25.56   0
  -1  -6 -31   17.40   10.24   0
  -1  -5 -38  284.55   13.46   0
   0  -6   3    6.40    8.63   0
   0  -5 -31    8.32    9.19   0
   0  -5  11   -1.59    6.20   0
   0  -2 -34  338.12   12.78   0
   1  -4  -1   67.40    8.05   0
   1  -3  -2  762.81   16.01   0
  -2  -6 -35   -5.40    9.44   0
  -1  -7 -12  413.30   13.52   0
  -1  -7  -9   12.81    9.71   0
   1  -4 -19   40.88    7.09   0
  -1   3 -25   14.67    9.82   0
  -1   4 -29    4.10   10.45   0
   0   4 -37   -8.03   13.78   0
   0   6 -36  444.41   19.32   0
   1   4 -42  332.40   18.57   0
  -2   6 -20  961.07   20.97   0
  -2   7 -18  627.06   19.96   0
   1   3 -41   11.73   11.90   0
  -1   2 -18 1285.42   24.15   0
  -1   6 -31    0.05   11.99   0
   0   5 -38  379.35   17.27   0
  -1   7 -29   -2.77   13.44   0
  -1   8 -24  522.32   19.26   0
   0   2 -32  823.36   20.83   0
   0   3 -36 1264.31   23.72   0
   1   5 -43    2.42   15.55   0
   1   6 -41    5.50   14.83   0
   2   5 -45   -4.77   13.50   0
   3   2 -47    4.75   14.07   0
   3   3 -48  335.18   18.52   0
  -1   5 -33   26.78   14.12   0
   0   1 -25    2.29   10.32   0
   2   1 -41   13.25   13.05   0
   4   2 -49    3.13   16.41   0
  -2   4 -18 1341.45   24.43   0
  -2   6 -23    9.36   10.75   0
  -2   7 -21    4.16   13.34   0
   1   2 -40  727.12   20.97   0
   2  -1 -27    0.04    8.40   0
  -1   3 -28 1775.26   26.76   0
  -1   4 -32 1303.02   23.62   0
   0   6 -39    1.33   15.51   0
   2   2 -45    3.54   14.47   0
  -1   2 -21   41.55    9.51   0
  -1   6 -34  402.23   19.44   0
  -1   8 -27   12.10   13.46   0
   0   4 -40  862.51   21.38   0
   0   7 -37    2.58   14.32   0
   1   1 -36 1317.16   25.33   0
   1   4 -45   16.65   15.52   0
   3   1 -46  187.14   16.95   0
  -2   7 -24  600.79   20.48   0
   2   0 -37    5.71   11.16   0
   3   0 -42  435.95   18.64   0
  -2   4 -21   -1.14   11.02   0
  -2   5 -25    0.45   10.62   0
  -2   8 -19   -5.35   12.77   0
   0   3 -39    0.60   13.70   0
   1   0 -29    0.20    9.53   0
   1   6 -44  316.55   18.02   0
  -1   5 -36  521.43   19.94   0
   0   2 -35    8.38   12.42   0
   1   5 -46  195.65   16.75   0
  -1   3 -31    5.18   11.55   0
  -1   8 -30  209.73   16.84   0
   0   1 -28 1636.05   27.54   0
   2   3 -49    2.78   14.83   0
   3   3 -51   10.22   14.76   0
  -2   7 -27    6.39   14.49   0
  -2   8 -22  205.31   15.87   0
  -1   2 -24 2176.17   30.58   0
  -1   6 -37    9.40   14.81   0
   0   6 -42  308.45   17.87   0
   1   2 -43   11.79   13.78   0
   2   1 -44  566.71   21.05   0
   2   4 -50  254.81   18.75   0
   3   2 -50  420.01   20.82   0
  -2   4 -24 2386.96   31.37   0
  -2   5 -28  618.65   19.30   0
   0   4 -43    3.57   14.64   0
  -2   3 -14 1751.13   29.04   0
   0   5 -44  389.25   18.41   0
   2   2 -48  598.38   21.94   0
  -3   6  -9   13.69   10.88   0
  -3   6  -6  627.77   19.79   0
  -2   8 -25   12.15   14.65   0
  -1   5 -39   -7.89   15.29   0
   1   1 -39    8.63   10.51   0
   1   3 -47   28.58   15.09   0
   2  -1 -30  798.59   22.72   0
  -3   6 -12 1073.29   23.85   0
  -2   7 -30  198.09   17.18   0
  -1   8 -33   -2.62   14.92   0
   0   3 -42  583.20   20.45   0
   3   1 -49    2.17   14.65   0
  -3   7 -13   34.00   12.31   0
  -2   3 -17   29.46   10.76   0
  -1   3 -34  916.29   21.32   0
  -1   4 -38  291.51   15.93   0
  -1   6 -40  417.44   19.56   0
   0   6 -45    6.97   16.17   0
   1   0 -32 2327.96   33.64   0
   1   5 -49    0.29   13.83   0
   2   0 -40 1308.14   27.06   0
  -3   6 -15    5.22   11.58   0
  -2   4 -27    5.20   10.44   0
  -2   5 -31    7.58   11.69   0
  -1   2 -27   -3.97    9.67   0
   0   4 -46  304.00   18.82   0
   2   3 -52  333.42   18.92   0
  -3   6 -18  623.46   19.53   0
  -2   3 -20 1748.70   28.09   0
   0   5 -47    0.63   15.40   0
   1   2 -46  284.55   18.24   0
   2   4 -53   -8.37   14.71   0
   3   2 -53  -13.34   15.03   0
  -3   5  -8 2553.64   35.86   0
  -2   7 -33    2.74   13.84   0
  -1   5 -42  363.64   19.64   0
   2   1 -47  -15.41   14.03   0
  -3   5 -11    9.13    8.81   0
  -3   5  -5   18.70    9.84   0
  -2   4 -30  295.20   15.02   0
  -2   5 -34  711.55   21.17   0
  -2   6 -35   -7.48   15.39   0
  -1   3 -37   13.30   13.77   0
  -1   7 -41  -18.46   15.04   0
   1   1 -42  519.07   19.66   0
   1   3 -50  426.01   20.00   0
   2   2 -51   -6.52   15.76   0
  -3   5 -14  480.60   17.77   0
  -3   6 -21   24.23   12.87   0
  -3   7 -22  305.89   17.79   0
  -2   8 -31   -1.14   15.37   0
  -1   2 -30  854.85   20.42   0
  -1   4 -41   18.38   12.84   0
  -1   6 -43    0.74   14.35   0
   0   3 -45   -0.20   12.90   0
   0   6 -48  299.94   19.51   0
  -3   5 -17    7.91   11.36   0
  -2   3 -23   13.45    9.80   0
   2  -1 -33   12.76   10.79   0
   1   0 -35    3.18   11.00   0
  -3   6 -24  897.93   21.66   0
  -3   7 -25   37.08   14.50   0
  -3   8 -20  379.13   18.69   0
  -2   4 -33   -7.11   13.65   0
   0   4 -49    7.60   16.25   0
   0   5 -50  174.85   17.51   0
   2   0 -43   -0.99   12.61   0
  -3   5 -20  819.81   20.53   0
  -2   5 -37   -3.62   12.81   0
  -2   6 -38  266.64   16.72   0
  -2   8 -34  324.35   18.03   0
  -1   5 -45    9.61   14.18   0
  -1   7 -44  350.80   19.60   0
   1   2 -49  -12.87   14.90   0
   2   3 -55    1.47   16.66   0
  -3   8 -23    0.96   13.54   0
  -2   3 -26  666.87   18.63   0
  -1   2 -33   14.71   10.95   0
  -1   4 -44  565.58   20.59   0
  -1   6 -46  177.75   17.86   0
   1   4 -54  154.06   17.41   0
  -3   6 -27   -0.61   11.79   0
  -3   7 -28  647.03   22.16   0
   1   3 -53    6.33   16.28   0
   2   1 -50  339.04   19.01   0
   0   1 -37   12.17   11.78   0
   0   2 -44 1225.39   25.25   0
   1   1 -45    1.51   11.93   0
   2   2 -54   95.61   17.63   0
  -3   8 -26  344.82   18.97   0
  -2   3 -29   16.03   12.55   0
  -2   4 -36  583.35   18.87   0
  -2   6 -41   -2.43   15.55   0
  -2   8 -37   -6.37   14.23   0
  -3   6 -30  364.98   18.20   0
  -2   5 -40  823.98   21.99   0
  -1   1 -20 1636.39   28.51   0
  -1   5 -48  488.55   21.54   0
   1   0 -38  402.37   17.58   0
   2  -1 -36 1276.14   28.61   0
  -3   7 -31   13.20   15.52   0
   0   5 -53    9.80   14.26   0
  -3   4 -13   19.19   10.87   0
  -3   8 -29    1.34   15.31   0
  -1   3 -43    6.77   12.94   0
  -1   4 -47   -2.39   16.90   0
  -1   6 -49   10.73   16.08   0
   1   2 -52  629.80   23.33   0
   2   0 -46  547.17   21.04   0
  -3   4 -16 2361.33   33.07   0
  -3   4 -10 1296.73   25.89   0
  -3   5 -29    1.02   13.56   0
  -2   3 -32 1656.71   28.23   0
  -1   1 -23    3.62    9.07   0
  -3   4  -7   35.45   10.98   0
  -3   7 -34  313.99   18.79   0
  -2   4 -39   -8.46   12.71   0
  -2   5 -43   -0.35   16.40   0
  -2   6 -44  464.74   20.84   0
   0   1 -40 1123.28   25.08   0
   0   2 -47    4.85   14.10   0
   0   3 -51  -13.22   14.52   0
   0   0 -27   -0.28    9.85   0
   1   1 -48  626.61   21.98   0
   1   3 -56  321.92   20.90   0
   2   1 -53    0.08   15.94   0
  -3   4 -22  493.49   17.20   0
  -3   5 -32 1098.01   24.84   0
  -1   1 -26 1469.45   27.11   0
  -1   2 -39   -0.38   12.95   0
  -1   5 -51   10.01   15.91   0
   2   2 -57   10.63   15.54   0
  -2   2 -16 3265.88   39.57   0
  -2   2 -13    0.15    9.98   0
  -2   3 -35    0.72   13.88   0
  -2   7 -45   -1.12   15.65   0
  -1   3 -46  262.78   18.23   0
   1   0 -41   -3.97   12.21   0
  -3   4 -25   -1.68   12.63   0
  -3   7 -37   -5.18   15.89   0
  -3   8 -35    4.01   15.90   0
  -2   2 -19   -0.32   10.67   0
  -2   4 -42  774.94   22.67   0
  -1   4 -50  413.07   18.88   0
  -2   5 -46  134.64   18.21   0
  -2   6 -47    0.29   15.95   0
   2  -1 -39   -2.37   10.83   0
  -3   5 -35    7.89   12.88   0
  -2   2 -22 2383.12   33.29   0
  -1   1 -29    9.55   11.35   0
   0   0 -30  188.83   13.83   0
   0   1 -43    5.80   13.62   0
   0   3 -54  243.74   19.37   0
   1   2 -55    7.43   16.69   0
   2   0 -49    2.14   13.56   0
  -4   7 -17   23.34   13.21   0
  -4   7 -14  550.56   20.35   0
  -3   4 -28  987.28   22.32   0
  -3   6 -39    6.00   15.60   0
   0   2 -50  371.53   18.42   0
  -4   7 -20  706.93   22.31   0
  -3   8 -38  160.08   16.34   0
  -2   2 -25    1.08   11.70   0
  -2   3 -38  534.50   18.94   0
  -1   5 -54  173.98   18.48   0
   1  -1 -28 1632.10   31.81   0
   1   1 -51   13.52   14.66   0
   1   3 -59    0.23   16.03   0
  -4   7 -23    5.74   13.53   0
  -3   4 -31   32.49   14.14   0
  -2   4 -45   -5.51   15.10   0
  -1   3 -49   -5.64   16.48   0
  -4   6 -19   11.00   12.88   0
  -4   6 -16 1057.34   24.89   0
  -4   6 -13   -3.48   11.91   0
  -3   5 -38  181.68   15.73   0
  -2   5 -49    9.74   17.28   0
  -1   1 -32 2242.21   31.82   0
  -1   4 -53   -1.07   15.49   0
   1   0 -44  700.50   22.14   0
  -4   6 -22  530.08   20.28   0
  -4   7 -26  287.96   18.48   0
  -2   2 -28 1357.78   25.10   0
   0   0 -33   -0.68    9.27   0
  -2   3 -41   18.82   15.05   0
   0   1 -46  213.84   17.23   0
  -4   6 -25   12.55   11.55   0
  -4   7 -29   17.42   15.74   0
  -4   8 -27   -1.29   15.63   0
  -3   4 -34  831.73   21.61   0
  -3   5 -41   -6.88   16.82   0
   0   2 -53    4.20   15.86   0
   0   3 -57    4.73   17.24   0
   1  -1 -31    1.98    9.92   0
   1   2 -58  297.11   20.08   0
  -4   6 -28  728.19   22.49   0
  -2   2 -31   -2.24   10.90   0
  -2   4 -48  627.29   22.95   0
  -1   5 -57   18.98   16.04   0
  -4   7 -32  519.22   21.22   0
  -4   8 -30  214.97   17.72   0
  -3   6 -45    8.08   16.36   0
   0   0 -36  817.13   22.27   0
   1   1 -54  279.59   19.82   0
  -3   4 -37    2.50   12.70   0
  -2   5 -52  357.57   19.74   0
  -2   6 -53    1.41   14.82   0
  -4   6 -31   -3.27   12.53   0
  -4   8 -33   11.57   15.87   0
  -3   3 -21    2.94   10.14   0
  -3   3 -18  646.21   18.98   0
  -2   2 -34  366.64   17.88   0
  -2   3 -44  572.44   20.24   0
   1   0 -47    0.15   13.54   0
  -4   5 -21   29.62   12.45   0
  -4   5 -18  983.87   24.06   0
  -4   5 -15   20.62   12.05   0
  -4   7 -35    2.93   16.12   0
  -3   3 -24 2030.01   30.11   0
  -3   5 -44  500.19   20.23   0
  -1   2 -48  613.45   21.89   0
   0   1 -49   -2.23   14.88   0
   1  -1 -34 1288.12   28.90   0
  -4   5 -24  994.94   24.20   0
  -4   6 -34  336.45   18.79   0
  -3   3 -27   -1.51   12.96   0
  -2   4 -51  -10.64   16.77   0
  -4   5 -12 1487.50   28.90   0
  -4   8 -36  315.03   18.92   0
  -1   3 -55    4.55   17.91   0
   0   0 -39    2.89   12.33   0
   0   2 -56  230.04   20.23   0
   0   3 -60  420.00   22.23   0
  -4   7 -38  294.75   20.07   0
  -2   2 -37    7.98   11.78   0
  -2   3 -47   -6.67   15.51   0
  -2   5 -55   -7.56   17.11   0
   1   2 -61   -6.87   15.78   0
  -3   3  -9   -2.10    9.69   0
  -4   5  -9   43.28   11.69   0
  -4   8 -39   -0.69   16.15   0
  -3   4 -43   23.77   15.75   0
  -1   1 -41    5.53   11.49   0
   1   0 -50  589.37   23.19   0
   1   1 -57   -4.59   16.26   0
  -4   5 -33   -5.87   14.25   0
  -4   7 -41    7.62   15.81   0
  -3   3 -33    0.40   11.98   0
  -3   6 -51  -10.69   17.06   0
  -2   2 -40 1358.85   26.94   0
  -2   4 -54   95.32   19.02   0
  -1   2 -51    3.77   13.72   0
   1  -1 -37    1.63   11.16   0
   0   0 -42 1307.50   27.77   0
   0   1 -52  602.81   21.67   0
  -3   3 -36  773.94   22.88   0
  -3   5 -50  427.49   21.19   0
  -2   3 -50  353.10   20.70   0
   0   2 -59   -2.96   18.03   0
  -4   5 -36  845.59   22.63   0
  -3   4 -46  196.44   18.41   0
  -2   5 -58  306.87   21.04   0
  -1   3 -58  265.10   19.61   0
  -4   6 -43   22.72   16.98   0
  -4   7 -44  327.50   20.59   0
  -2   2 -43   -3.54   14.25   0
  -4   5 -39   11.09   16.45   0
  -3   3 -39    2.37   15.28   0
  -1   2 -54  253.39   19.92   0
  -2   4 -57  -16.53   17.39   0
  -4   4 -26  961.25   22.80   0
  -4   4 -17    1.80   12.13   0
  -3   4 -49   -3.83   17.15   0
  -3   5 -53    7.72   16.51   0
   0   0 -45   -4.19   12.20   0
   0   1 -55   -9.49   16.04   0
  -5   7 -27   12.16   15.28   0
  -5   7 -21   -3.95   14.30   0
  -5   8 -28  333.70   21.29   0
  -4   4 -29    9.69   12.08   0
  -4   5 -42  426.96   21.33   0
  -4   6 -46  239.57   19.33   0
  -1   1 -47  -18.14   15.03   0
  -5   7 -30  361.30   20.24   0
  -4   4 -32  703.81   22.42   0
  -4   4 -14  421.98   17.70   0
  -3   3 -42  428.17   18.72   0
  -2   1 -27  -11.28   12.18   0
  -2   1 -24 2071.66   31.38   0
  -2   1 -21   41.22   10.43   0
  -1   0 -22  486.57   17.82   0
  -1   3 -61   10.57   18.15   0
   0   2 -62  207.54   20.12   0
  -5   8 -31   15.92   15.88   0
  -4   5  -3    1.96   11.23   0
  -2   1 -18 1310.48   27.14   0
  -1   0 -19    0.07    8.96   0
  -5   7 -33   -4.28   15.37   0
  -5   8 -34  312.08   20.90   0
  -4   4 -35   10.79   15.30   0
  -2   1 -30  831.46   21.23   0
  -1   2 -57   21.03   16.60   0
   1  -1 -43    0.29   12.19   0
  -5   6 -26  404.84   19.78   0
  -5   6 -23    1.78   14.02   0
  -4   4 -11    3.56   10.69   0
  -4   5 -45   10.94   14.65   0
  -4   6 -49    1.08   17.05   0
  -3   3 -45  -12.13   15.53   0
  -3   4 -52  446.08   21.41   0
  -3   5 -56  289.96   21.09   0
  -1   0 -31   -1.03   10.04   0
   0   0 -48  819.67   24.20   0
  -5   6 -29    2.61   15.64   0
  -5   6 -20  708.93   22.49   0
  -5   7 -36  364.79   20.46   0
  -4   4 -38  247.23   18.26   0
  -2   1 -33   14.95   11.32   0
  -2   1 -15    7.85    9.42   0
  -1   1 -50  592.80   22.50   0
   0   1 -58  399.85   21.60   0
  -5   6 -32  723.15   23.63   0
  -5   6 -17   15.05   13.23   0
  -5   8 -37   -2.01   16.06   0
  -3   2 -29   21.20   12.77   0
  -3   2 -26  672.16   19.54   0
  -3   2 -23    9.62   10.66   0
  -3   2 -20 1695.75   29.25   0
  -1   0 -34 1312.30   26.76   0
  -5   7 -39    9.58   15.89   0
  -2   1 -36 1287.77   25.64   0
  -5   6 -35   15.26   13.66   0
  -5   6 -14  622.98   22.34   0
  -4   4 -41    7.80   14.06   0
  -4   6 -52  318.05   20.19   0
  -3   2 -32 1670.39   28.23   0
  -3   2 -17   30.31   11.74   0
  -3   3 -48  711.30   22.33   0
  -3   4 -55    6.08   16.90   0
  -4   4  -8 1763.94   31.81   0
  -3   2 -35    8.86   13.67   0
  -2   2 -52  348.76   20.74   0
  -1   0 -37   12.98   10.86   0
  -1   2 -60  390.21   21.08   0
   0  -1 -26 1356.59   29.21   0
   0   0 -51   -4.13   14.80   0
   0   2 -65    6.57   16.87   0
  -5   6 -38  301.96   17.83   0
  -5   7 -42  225.92   19.02   0
  -2   3 -59   18.25   15.95   0
  -1   1 -53   -7.58   16.21   0
   0  -1 -29   -2.75   10.79   0
  -4   4 -44  771.82   23.01   0
  -4   5 -51  -15.83   17.07   0
  -3   2 -38  567.02   21.25   0
  -3   2 -14 1789.37   30.71   0
  -5   5 -28  998.31   25.64   0
  -5   5 -25    6.83   14.13   0
  -5   6 -11   13.57   12.05   0
  -3   3 -51    3.17   17.78   0
  -1   0 -40 1095.75   24.79   0
   0  -1 -32 2175.63   34.40   0
   0   1 -61   -6.21   16.83   0
  -5   5 -22  393.44   19.14   0
  -5   7 -45    1.13   17.46   0
  -4   3 -28 1018.28   24.33   0
  -4   3 -25  -11.00   13.46   0
  -3   4 -58  318.52   20.30   0
  -5   5 -19   -5.32   12.55   0
  -4   3 -31   28.58   15.08   0
  -4   4 -47   -4.87   15.77   0
  -3   2 -41    8.81   13.21   0
  -2   2 -55    5.93   16.92   0
   0  -1 -35    0.37   11.44   0
  -4   3 -34  846.96   23.74   0
  -4   5 -54  164.31   19.18   0
  -2   3 -62  121.42   18.64   0
  -1   0 -43   -6.30   13.13   0
  -1   2 -63    9.63   17.78   0
   0   0 -54   81.24   16.52   0
  -5   5 -16  985.73   24.59   0
  -4   3 -19   43.73   11.64   0
  -3   2 -11   45.27   11.48   0
  -3   3 -54  272.79   19.97   0
  -2   1 -45   -2.13   12.95   0
  -5   5 -40  382.05   21.60   0
  -4   3 -37   -6.27   13.11   0
  -4   4 -50  362.49   21.57   0
  -4   4  -5   -1.10   10.10   0
  -3   2 -44  609.11   20.86   0
   0  -1 -38  385.01   18.12   0
  -4   3 -40  790.26   22.59   0
  -2   1 -48  607.78   22.61   0
  -2   2 -58  220.94   19.45   0
  -1   0 -46  203.40   17.42   0
  -5   5 -13   -2.60   11.87   0
  -3   2 -47    0.81   16.05   0
   0  -1 -41    2.05   12.12   0
  -5   6 -50  231.24   18.91   0
  -4   3 -43   10.59   16.64   0
  -4   4 -53   14.27   17.37   0
  -1   1 -59    1.67   15.43   0
  -5   5 -46  225.90   20.31   0
  -4   3 -13   21.08   11.57   0
  -6   7 -34  359.88   20.95   0
  -6   7 -31   24.30   15.64   0
  -6   7 -25    6.94   15.20   0
  -6   8 -35    8.85   14.39   0
  -5   4 -30  314.44   18.98   0
  -2   1 -51   -6.84   16.29   0
  -1   0 -49   -2.21   14.65   0
  -5   4 -33   -5.20   13.50   0
  -4   3 -46  182.86   16.97   0
  -2   2 -61   -0.79   17.32   0
   0  -1 -44  668.89   22.57   0
  -6   7 -37   12.28   16.85   0
  -5   4 -36  843.22   23.28   0
  -4   4 -56  197.86   19.15   0
  -6   7 -40  499.16   22.36   0
  -5   4 -39   12.45   16.49   0
  -5   4 -21   18.27   12.16   0
  -4   3 -49    9.91   14.63   0
  -4   3 -10 1277.69   26.87   0
  -1   1 -62  110.05   17.43   0
  -6   6 -36  319.01   20.84   0
  -6   6 -33    2.48   14.25   0
  -6   6 -27    3.00   13.53   0
  -6   6 -24  986.52   25.83   0
  -6   7 -43   -4.44   17.30   0
  -5   4 -42  490.93   22.83   0
  -5   4 -18 1012.36   24.44   0
  -3   1 -34  906.01   23.41   0
  -3   1 -31    5.08   11.96   0
  -3   1 -28 1809.29   29.30   0
   0  -1 -47    7.19   13.36   0
  -5   5 -52  453.22   20.66   0
  -4   4 -59    2.92   16.96   0
  -3   1 -37   -3.62   14.78   0
  -3   1 -25   26.26   11.49   0
  -2   0 -29    6.89   12.53   0
  -6   6 -39   -8.59   17.11   0
  -6   6 -21   -1.21   13.96   0
  -5   4 -45   20.36   17.10   0
  -4   3 -52  506.70   23.27   0
  -2   0 -26 1548.68   27.83   0
  -2   2 -64  386.98   21.21   0
  -6   6 -42  298.59   20.38   0
  -5   4 -15    7.34   12.72   0
  -5   5  -7    0.54   12.16   0
  -4   2 -33  -15.18   13.01   0
  -4   2 -30  281.81   16.30   0
  -4   2 -27    3.00   14.03   0
  -3   1 -40  675.84   22.40   0
  -3   1 -22  597.09   18.81   0
  -2   0 -38  405.02   18.80   0
  -4   2 -24 2387.05   33.54   0
  -2   0 -23   -2.84    9.98   0
  -2   1 -57    0.80   15.86   0
  -1   0 -55   -2.77   15.13   0
  -6   6 -45   11.32   17.53   0
  -6   6 -18  414.97   19.58   0
  -5   4 -48  305.40   19.50   0
  -4   2 -39   -3.72   13.85   0
  -4   3 -55    7.05   18.02   0
  -3   1 -19    2.01   11.99   0
  -2   0 -41    4.12   14.03   0
  -4   2 -42  765.76   24.27   0
  -4   2 -21    7.95   12.19   0
  -2   0 -20 4159.26   44.90   0
  -6   5 -32  705.02   24.08   0
  -6   5 -29   31.29   15.62   0
  -5   4 -51   -3.06   18.27   0
  -4   3  -7   46.17    9.89   0
  -2   0 -44 1301.12   28.13   0
  -6   5 -26  399.85   20.23   0
  -6   6 -15    4.36   14.40   0
  -5   4 -12 1427.53   28.51   0
  -3   2 -59    1.93   16.14   0
  -1  -1 -33   22.84   12.78   0
  -1  -1 -30  798.49   22.38   0
  -6   5 -23    6.70   14.69   0
  -5   3 -35   20.31   16.08   0
  -5   3 -32 1068.58   24.43   0
  -5   3 -29   -4.18   15.19   0
  -4   2 -18 1345.43   26.33   0
  -4   3 -58  289.15   20.64   0
  -3   1 -16 2280.71   33.54   0
  -2   1 -60  401.03   21.10   0
  -1  -1 -36 1329.44   27.75   0
  -1  -1 -27    4.55   10.90   0
  -1   0 -58  394.27   21.35   0
  -5   3 -38  190.32   16.38   0
  -5   3 -26  914.12   22.78   0
  -3   1 -49   12.28   15.32   0
  -2   0 -47   13.45   15.02   0
  -1  -1 -39    0.65   12.87   0
  -6   5 -44  393.22   20.66   0
  -5   3 -41  -17.79   16.89   0
  -5   3 -23   15.16   13.88   0
  -5   4 -54  186.08   18.23   0
  -4   2 -48  625.49   24.17   0
  -2   0 -17   -1.87    9.68   0
  -6   5 -20  744.37   22.90   0
  -3   2 -62  144.64   18.38   0
  -1  -1 -42  528.06   20.85   0
  -1  -1 -24 1918.98   31.83   0
  -6   5 -47    9.26   16.59   0
  -5   3 -44  525.67   20.77   0
  -4   2 -15    7.41   11.75   0
  -3   1 -52  642.38   24.02   0
  -2   0 -50  391.55   20.00   0
  -5   4 -57    3.45   16.71   0
  -5   4  -9   57.10   12.80   0
  -4   2 -51  -13.38   14.72   0
  -2   1 -63   -4.33   17.40   0
  -6   5 -17   18.21   13.39   0
  -5   3 -47    9.97   14.66   0
  -3   1 -13   55.63   10.96   0
  -1  -1 -45   12.99   13.91   0
  -7   7 -35   -2.32   16.42   0
  -7   7 -32  518.35   21.98   0
  -6   5 -50  198.69   18.04   0
  -7   7 -38  110.67   16.49   0
  -7   7 -29   -1.34   14.36   0
  -6   4 -34  321.67   19.82   0
  -5   3 -50  426.22   21.85   0
  -4   3  -4 1442.93   29.80   0
  -3   1 -55    1.19   17.41   0
  -2   0 -53   22.80   16.43   0
  -2   0 -14  365.01   16.31   0
  -6   4 -40  546.14   23.18   0
  -6   4 -37    5.31   14.10   0
  -1  -1 -48  610.75   22.16   0
  -6   5 -14  608.11   21.16   0
  -4   2 -12  898.53   21.91   0
  -6   4 -43   -2.01   15.86   0
  -6   4 -25    6.99   12.50   0
  -5   3 -53  -10.51   17.22   0
  -7   6 -37   -2.37   15.84   0
  -7   6 -34  361.92   20.44   0
  -7   6 -31   21.54   15.21   0
  -6   4 -46  279.45   19.96   0
  -3   1 -58  243.84   20.13   0
  -2   0 -56  221.11   19.49   0
  -1  -1 -51   -8.90   14.89   0
  -7   6 -40  482.18   22.27   0
  -7   6 -28  296.13   18.83   0
  -5   3 -14  497.07   17.89   0
  -5   4  -6  474.32   19.05   0
  -4   1 -38  321.91   17.04   0
  -4   1 -35   24.28   13.23   0
  -4   1 -29  -16.92   14.12   0
  -3   1 -10 2211.05   33.84   0
  -7   6 -43  -10.43   15.38   0
  -6   4 -49   19.74   17.16   0
  -5   3 -56  294.27   20.17   0
  -4   1 -41    1.68   13.57   0
  -3   0 -33   -0.85   11.57   0
  -3   0 -30  459.89   19.05   0
  -7   6 -25   -2.67   15.45   0
  -5   2 -34  717.74   23.07   0
  -5   2 -31   -6.46   15.06   0
  -4   1 -44  535.96   21.60   0
  -4   1 -26  953.20   22.36   0
  -4   2 -60  325.93   20.22   0
  -3   0 -42  542.17   21.28   0
   0  -2 -37   -2.95   11.43   0
   0  -2 -34  384.44   18.50   0
  -6   4 -19   -0.19   11.69   0
  -6   5 -11   13.26   13.55   0
  -5   2 -28  629.27   21.30   0
  -3   0 -27    8.74   11.07   0
  -3   1 -61    0.46   15.76   0
  -2   0 -59    2.03   15.38   0
  -2   0 -11    0.52    9.18   0
   0  -2 -40 1309.85   29.57   0
   0  -2 -31    2.90   11.03   0
  -7   6 -22  283.17   18.14   0
  -6   4 -52  294.17   20.98   0
  -5   2 -43   -2.14   17.48   0
  -4   1 -23   29.06   13.73   0
  -3   0 -45   17.46   15.16   0
  -5   2 -46  143.54   18.97   0
  -5   2 -25   -1.59   13.42   0
  -5   3 -11   13.42   11.81   0
  -3   0 -24 1412.15   25.80   0
   0  -2 -28 1355.54   29.45   0
  -7   5 -39   11.80   17.28   0
  -7   5 -36  338.08   20.14   0
  -7   5 -33    8.93   16.56   0
  -3   0 -48  384.36   20.37   0
  -2  -1 -37    2.10   13.38   0
  -2  -1 -34  908.63   23.53   0
  -7   5 -30  384.18   19.73   0
  -7   6 -19   26.62   14.47   0
  -6   4 -16 1075.28   24.04   0
  -5   2 -49    1.86   16.40   0
  -4   1 -20 1120.36   24.06   0
  -2  -1 -40  736.71   22.32   0
  -2  -1 -31    0.58   11.62   0
  -7   5 -27    7.81   15.60   0
  -6   3 -39    3.23   14.69   0
  -6   3 -36  596.41   21.36   0
  -6   3 -33   27.73   13.74   0
  -6   3 -30  381.75   19.64   0
  -5   2 -22  426.01   17.47   0
  -3   0 -21    2.07   12.00   0
  -2  -1 -43   -4.97   14.00   0
   0  -2 -25   -1.01   11.08   0
  -6   3 -42  329.80   18.73   0
  -4   1 -53   11.74   16.92   0
  -3   0 -51   -3.60   13.49   0
  -7   5 -24  805.69   24.19   0
  -6   3 -45   -2.57   17.40   0
  -6   3 -27   -7.30   12.86   0
  -6   5  -8 1104.05   26.97   0
  -5   2 -52  317.67   19.59   0
  -3   1  -7    0.99    8.87   0
  -2  -1 -46  271.89   17.49   0
  -6   4 -13  -10.69   12.45   0
  -5   2 -19   29.75   11.81   0
  -5   4  -3    9.68   10.96   0
  -4   1 -17    1.19   12.10   0
  -3   0 -54  249.32   19.51   0
  -5   2 -55   12.14   16.48   0
  -4   1 -56  352.94   20.52   0
  -3   0 -18 1610.72   27.94   0
  -2  -1 -49   10.46   14.57   0
  -7   5 -21    6.39   13.88   0
  -6   3 -51   -0.02   17.33   0
  -5   3  -8 2590.26   35.00   0
  -5   2 -16 2246.88   31.19   0
  -4   1 -59   20.52   16.62   0
  -3   0 -57   -6.81   14.78   0
  -2  -1 -52  616.82   22.88   0
  -7   4 -41   -3.69   15.84   0
  -7   4 -32  506.08   21.44   0
  -7   4 -44  376.76   19.77   0
  -7   4 -29   26.19   16.27   0
  -7   5 -18  321.58   18.27   0
  -4   1 -14  840.03   20.71   0
  -7   4 -47   13.09   15.77   0
  -6   3 -18  611.05   20.31   0
  -6   4 -10  524.40   19.19   0
  -3   0 -15   -7.47    9.41   0
  -7   4 -26  326.27   18.79   0
  -5   1 -39    9.07   13.64   0
  -5   1 -33    8.74   14.71   0
  -4   0 -37   -9.73   14.10   0
  -3   0 -60  418.19   20.32   0
  -2  -1 -55    4.44   15.14   0
  -1  -2 -41   12.29   12.74   0
  -1  -2 -38  544.24   20.16   0
  -1  -2 -35    4.05   11.97   0
  -8   6 -35   -2.88   14.26   0
  -8   6 -32  427.49   21.61   0
  -5   1 -45   24.65   16.93   0
  -5   1 -30  559.28   20.02   0
  -4   0 -34  443.12   17.97   0
  -2  -1 -19    7.05    9.29   0
  -1  -2 -44  583.63   22.14   0
  -1  -2 -32 1619.18   29.55   0
  -7   4 -23    9.74   14.53   0
  -4   0 -46  327.71   20.02   0
  -4   0 -31   12.02   11.77   0
  -8   6 -29   -0.27   14.94   0
  -6   2 -41    9.09   13.93   0
  -6   2 -35   -4.97   13.23   0
  -6   2 -32  642.10   21.14   0
  -6   3 -15   15.99   12.63   0
  -5   1 -27   13.24   12.22   0
  -5   3  -5   19.39    9.31   0
  -4   0 -28  843.31   22.53   0
  -3   1  -4 3038.81   39.46   0
  -1  -2 -29   21.95   11.19   0
  -6   2 -29   -2.08   14.99   0
  -4   0 -49   -9.32   15.49   0
  -4   1 -11   70.32   10.77   0
  -8   6 -26  410.90   19.94   0
  -6   2 -47   -0.58   15.13   0
  -5   1 -24 1342.79   25.60   0
  -4   0 -25    0.43   12.31   0
  -4   2  -3    0.16    9.82   0
  -3  -1 -41   -6.35   13.58   0
  -3  -1 -38  280.82   15.69   0
  -3  -1 -35   24.47   13.62   0
  -7   4 -20  744.68   21.06   0
  -6   2 -50  278.63   19.08   0
  -6   2 -26  546.60   19.98   0
  -6   4  -7   -3.39   11.17   0
  -4   0 -52  341.20   19.82   0
  -3  -1 -44  537.70   20.80   0
  -3   0 -12 2835.21   34.95   0
  -1  -2 -26  671.50   20.76   0
  -8   5 -37   -2.80   15.61   0
  -3  -1 -47    6.82   14.51   0
  -2  -1 -16 2243.82   31.90   0
  -8   5 -34  322.96   18.29   0
  -7   3 -40  357.73   18.88   0
  -7   3 -37   30.40   15.60   0
  -7   3 -34  351.78   19.72   0
  -7   5 -12  583.20   20.56   0
  -6   2 -53   12.15   16.36   0
  -5   1 -21   14.55   12.62   0
  -7   3 -43  -15.34   14.72   0
  -6   2 -23   -0.79   11.84   0
  -4   7 -14  550.15   15.76   0
  -4   8 -15   -5.53   11.29   0
  -3   5 -26  958.76   18.86   0
  -3   6 -30  332.66   14.11   0
  -2   4 -33  -20.93    9.43   0
  -2   7 -39   12.69   11.78   0
  -1   3 -37    1.16    8.92   0
  -4   9  -7   10.42   10.53   0
   0   1 -31    1.42    7.97   0
  -4   6 -10  542.52   16.29   0
  -4   6  -7   -0.99    7.97   0
  -4   6  -4 1153.08   21.69   0
  -4   7 -17   34.40    9.80   0
  -4   8 -18  382.10   16.02   0
  -4   9 -10  251.48   14.73   0
  -3   4 -19   32.84    9.62   0
  -3   8 -32  485.45   17.04   0
  -1   5 -45   23.13   12.61   0
   1   4 -51    2.38   12.39   0
  -4   6 -13   -8.76    9.91   0
  -4   6  -1    6.13    8.92   0
  -4   9 -13   12.90   11.96   0
  -2   6 -41   -3.27   12.92   0
  -1   6 -46  182.99   13.67   0
   0   3 -45    1.40   10.48   0
  -4   8 -21   -9.34   12.66   0
  -4   9 -16  618.22   18.10   0
  -3   5 -29    9.21    9.61   0
  -3   6 -33   23.12   11.54   0
  -3   7 -34  320.67   14.63   0
   0   5 -50  192.10   13.99   0
  -4   6   2  724.49   18.67   0
  -3   4 -22  511.26   15.55   0
  -2   3 -29   15.52    9.53   0
  -2   4 -36  575.45   17.38   0
  -2   5 -40  814.78   19.99   0
  -2   7 -42  342.10   16.10   0
  -1   4 -44  541.38   17.90   0
   1   2 -46  247.77   14.50   0
  -4   9 -19   11.38   11.73   0
  -3   8 -35   21.54   12.97   0
  -1   3 -40  737.71   18.97   0
   0   2 -41    0.46   10.22   0
   0   4 -49   -7.05   11.41   0
  -1   2 -33   14.10    9.33   0
  -4   9 -22  199.30   13.97   0
  -3   5 -32 1071.06   20.90   0
  -3   7 -37    9.51   12.68   0
  -2   2 -13    0.63    6.84   0
  -4   7 -26  303.97   15.27   0
  -3   4 -25   15.21    8.64   0
  -3   6 -36  553.82   16.69   0
  -2   6 -44  458.12   17.13   0
  -1   5 -48  472.53   17.49   0
  -1   6 -49   11.17   12.00   0
   0   1 -34 1295.18   23.52   0
   1   0 -32 2195.60   33.35   0
  -4   6 -22  559.67   15.79   0
  -2   2 -16 3240.28   34.12   0
  -2   3 -32 1678.25   24.77   0
  -4   9 -25   11.34   12.47   0
  -3   8 -38  143.83   13.89   0
  -2   7 -45   -6.30   11.16   0
   0   3 -48  380.30   16.68   0
  -4   5  -9   48.16    9.79   0
  -4   5  -6  513.29   15.83   0
  -4   6 -25    6.77   10.89   0
  -4   7 -29   18.65   13.07   0
  -1   4 -47   18.93   12.59   0
   0   5 -53   -0.32   11.49   0
  -4   8 -30  236.15   14.64   0
  -3   4 -28 1042.44   19.55   0
  -3   5 -35   12.48   10.26   0
  -3   6 -39   12.22   13.19   0
  -3   7 -40  345.30   16.19   0
  -2   2 -19   -0.88    7.35   0
  -1   3 -43    7.48   11.18   0
  -4   5  -3    3.25    8.36   0
  -4   9 -28  235.73   15.13   0
  -1   2 -36 1301.61   22.19   0
   0   2 -44 1241.44   23.78   0
   0   4 -52  278.24   16.17   0
  -4   5 -18 1040.78   20.18   0
  -4   6 -28  746.20   18.70   0
  -4   5   0 1720.65   26.73   0
  -4   7 -32  499.66   18.04   0
  -2   2 -22 2351.91   28.44   0
  -1   5 -51    8.39   11.86   0
  -4   5 -21   31.30   10.78   0
  -4   8 -33    9.26   11.64   0
  -3   3 -12 2188.51   27.80   0
  -3   3  -9    3.76    6.84   0
  -3   4 -31    9.04    9.78   0
  -3   5 -38  195.57   13.96   0
  -2   5 -46  119.50   14.08   0
   0   1 -37    3.68    8.92   0
  -3   3 -15    1.85    7.40   0
  -3   6 -42  330.73   16.77   0
  -3   7 -43    5.50   12.17   0
  -5   8 -13   -6.90   11.50   0
  -5   8 -10  404.90   16.04   0
  -5   8  -7   -0.60   11.10   0
  -4   6 -31    3.27   10.57   0
   0   3 -51   -3.66   13.09   0
   1   0 -35   -1.22    8.61   0
  -5   8 -16  713.52   18.30   0
  -5   9 -14  180.97   14.21   0
  -5   9 -11   -2.72   10.86   0
  -4   5   3   58.13    9.14   0
  -4   7 -35    1.55   11.58   0
  -4   8 -36  319.88   16.42   0
  -3   3  -3    0.05    6.43   0
  -2   2 -25    1.75    7.64   0
  -1   1 -26 1369.23   23.60   0
  -1   2 -39    9.60   10.12   0
  -1   3 -46  307.17   15.31   0
  -1   4 -50  386.27   15.81   0
  -5   7 -12  601.58   17.96   0
  -5   8 -19   -6.99   12.33   0
  -5   9 -17   18.68   11.55   0
  -3   3 -21    5.92    9.29   0
  -3   4 -34  865.26   18.71   0
  -2   6 -50  270.06   15.21   0
  -5   7 -15    8.57   11.32   0
  -5   7  -9    2.28   10.57   0
  -5   8 -22  229.57   14.93   0
  -5   9 -20  283.98   15.56   0
  -4   5 -27   25.94   11.03   0
  -4   6 -34  374.05   16.03   0
  -3   5 -41   -2.55   11.80   0
  -2   4 -45   -6.82   12.10   0
   0   2 -47    1.88   10.77   0
  -5   7 -18  344.49   15.53   0
  -5   7  -6  640.87   18.19   0
  -3   7 -46  170.51   14.45   0
  -2   5 -49   -1.67   12.39   0
  -1   5 -54  158.68   14.88   0
  -5   7 -21   -1.07   11.80   0
  -5   7  -3    8.33    9.80   0
  -5   8 -25   -2.59   12.76   0
  -5   9 -23    5.53   11.85   0
  -4   7 -38  325.60   15.53   0
  -4   8 -39   -0.95   13.02   0
  -3   3 -24 2075.62   26.17   0
  -3   6 -45   12.95   11.36   0
  -2   2 -28 1336.94   21.95   0
  -4   5 -30  312.22   14.61   0
  -3   4 -37  -18.30   10.97   0
  -1   1 -29    5.85    8.68   0
   0   1 -40 1080.15   22.45   0
  -5   9 -26  352.72   15.46   0
  -4   5   6  950.00   22.66   0
  -4   6 -37    4.97   12.75   0
  -3   3 -27   -1.84    8.51   0
  -3   5 -44  492.87   17.77   0
  -2   3 -41   11.52    9.61   0
  -1   2 -42  529.53   17.11   0
  -1   3 -49   10.33   11.91   0
  -1   4 -53    0.54   12.30   0
  -2   4 -48  605.20   19.30   0
  -2   6 -53   -7.57   13.18   0
  -5   6 -17    7.13   10.75   0
  -5   6 -14  627.29   16.77   0
  -5   6 -11   25.72   10.43   0
  -5   9 -29   23.54   12.44   0
  -4   4 -17   -2.61    8.33   0
  -4   4  -8 1812.14   26.01   0
  -4   5 -33    2.88   10.53   0
  -2   5 -52  342.55   17.20   0
   0   0 -27   -2.15    7.32   0
  -5   6  -8 1180.47   22.35   0
  -4   4 -20 1665.16   23.67   0
  -4   6 -40  523.59   18.41   0
  -3   3 -30  841.51   18.88   0
  -3   4 -40  827.33   20.06   0
  -1   1 -32 2294.15   29.80   0
  -5   6  -5    4.99    9.49   0
  -5   7 -30  351.83   16.73   0
  -4   4 -23   -1.97   10.55   0
  -4   4  -5    1.35    8.09   0
  -5   8 -34  336.34   16.23   0
  -4   7 -44  346.05   16.67   0
  -2   3 -44  576.48   18.05   0
  -5   6 -26  409.07   16.36   0
   0   1 -43   -2.13    9.60   0
  -5   6  -2  454.13   15.66   0
  -5   7 -33   -8.16   11.66   0
  -4   4 -26  977.24   19.27   0
  -3   3 -33    8.59    9.12   0
  -1   2 -45    0.88   10.89   0
  -4   4  -2 1620.28   25.78   0
  -4   6 -43    1.10   11.79   0
  -2   4 -51  -13.07   12.85   0
  -1   3 -52  601.30   19.56   0
  -1   4 -56  349.36   17.36   0
   0   0 -30  179.65   11.71   0
  -5   6 -29    2.80   10.76   0
  -5   8 -37   -2.07   13.24   0
  -4   4 -29    4.67   10.99   0
  -4   5 -39    1.76   12.79   0
  -2   5 -55    8.92   12.25   0
  -1   1 -35   -3.61    9.20   0
  -5   7 -36  367.76   17.11   0
  -4   7 -47    1.60   12.36   0
  -2   2 -37   -0.07   10.15   0
  -5   6 -32  735.73   19.35   0
  -5   6   1   26.73   10.14   0
  -3   3 -36  829.33   18.52   0
  -3   5 -50  439.63   17.47   0
  -2   3 -47   -7.02   11.99   0
  -6   9 -15    7.35   12.85   0
  -5   8 -40  334.71   15.90   0
  -4   4 -32  749.98   17.90   0
  -4   6 -46  264.06   15.50   0
  -6   8 -17   15.66   12.11   0
  -6   8 -14  215.67   14.59   0
  -6   9 -21   -6.37   12.73   0
  -5   5 -13    7.91    9.99   0
  -5   7 -39   14.23   12.70   0
  -4   4   1   -0.29    7.98   0
  -4   5 -42  454.10   17.71   0
  -3   4 -46  185.12   14.58   0
  -6   8 -20  326.92   16.25   0
  -6   8 -11    8.00   11.55   0
  -6   9 -24  388.31   16.93   0
  -5   5 -22  415.74   15.84   0
  -5   5 -10  886.47   19.56   0
  -5   6 -35  -17.63   12.89   0
  -1   1 -38  391.58   15.24   0
  -1   2 -48  626.08   19.03   0
   0   0 -33   -6.91    9.03   0
  -6   8 -23    5.33   13.24   0
  -5   5 -25   -6.48   11.65   0
  -4   4 -35   -9.86   12.07   0
  -2   2 -40 1289.39   22.95   0
  -2   4 -54  113.10   14.94   0
  -1   3 -55    3.24   14.45   0
  -6   8 -26  407.38   16.64   0
  -6   9 -27   14.61   11.68   0
  -5   5  -7    3.97    9.30   0
  -5   5 -28 1025.68   20.91   0
  -5   7 -42  243.76   15.65   0
  -4   6 -49  -10.88   12.93   0
  -3   5 -53    0.49   13.03   0
  -2   3 -50  343.57   16.66   0
  -6   7 -22  312.64   16.32   0
  -6   7 -19   22.17   12.15   0
  -6   7 -16 1011.55   21.77   0
  -6   7 -13    7.36   11.48   0
  -6   8 -29    6.15   12.81   0
  -4   5 -45   -7.80   11.38   0
  -3   2 -20 1670.04   24.35   0
  -3   2 -17   18.07    8.00   0
  -3   2 -14 1715.96   25.21   0
  -3   4 -49   -5.12   13.15   0
  -6   7 -25   -7.41   12.82   0
  -6   7 -10  382.89   15.84   0
  -5   5 -31   -1.90   11.60   0
  -5   5  -4 1434.81   24.28   0
  -4   4 -38  251.89   13.91   0
  -3   2 -23    5.33    8.27   0
  -2   1 -18 1323.02   23.53   0
  -3   2 -11   33.91    8.15   0
  -2   1 -21   43.72    8.29   0
  -2   1 -15    7.67    7.25   0
  -2   2 -43   -2.28   10.86   0
  -1   1 -41   -5.06    9.69   0
  -5   6 -41    4.03   12.09   0
  -5   7 -45   10.91   12.93   0
  -4   3 -19   41.02    9.99   0
  -4   3 -16 2502.91   29.54   0
  -4   4   4 1646.94   28.50   0
  -3   2 -26  658.88   17.22   0
  -2   1 -24 2055.40   28.04   0
  -1   2 -51   -6.45   11.85   0
   0   0 -36  801.73   20.57   0
  -5   5 -34  495.07   16.10   0
  -4   3 -22  475.14   14.83   0
  -4   3 -13   16.74    9.56   0
  -4   4 -41    2.38   11.79   0
  -2   4 -57   -3.59   13.23   0
  -4   3 -25    8.72    9.11   0
  -3   2 -29   10.67    9.08   0
  -3   2  -8 3383.83   36.16   0
  -3   5 -56  262.52   16.59   0
  -5   5  -1    0.99    8.51   0
  -3   3 -45  -11.24   12.25   0
  -3   4 -52  472.72   18.05   0
  -2   3 -53   15.63   12.06   0
  -6   7 -34  374.33   16.59   0
  -5   5 -37  -20.74   11.17   0
  -5   6 -44  403.53   16.70   0
  -4   3 -28 1042.82   19.81   0
  -3   2 -32 1697.11   25.24   0
  -6   6 -21    4.63   10.18   0
  -6   6 -18  429.58   15.28   0
  -6   6 -15    4.21   10.81   0
  -4   4 -44  800.43   20.63   0
  -2   2 -46  546.03   18.06   0
  -1   1 -44  704.47   20.27   0
  -6   6 -27   -1.09   13.14   0
  -6   6 -12  559.77   17.70   0
  -4   3 -31   26.10   10.10   0
  -3   2  -5   12.16    8.06   0
   0   0 -39   -2.36    9.39   0
  -6   7 -37   14.41   12.29   0
  -5   4 -21   27.96   11.16   0
  -5   4 -18  999.35   20.62   0
  -6   6 -30  316.83   16.25   0
  -6   6  -9    0.00   10.34   0
  -5   4 -24  980.27   19.70   0
  -5   6 -47   -6.21   12.37   0
  -3   3 -48  696.14   20.26   0
  -2   1 -33   17.35    9.64   0
  -2   4 -60  289.30   16.05   0
  -5   4 -27   29.51   10.07   0
  -5   5   2  482.49   16.38   0
  -3   4 -55   -2.48   12.44   0
  -1   0 -22  511.29   16.52   0
  -6   7 -40  507.36   17.37   0
  -5   4 -30  300.16   15.17   0
  -5   5 -43   -0.51   13.35   0
  -2   3 -56  462.93   18.60   0
  -7   9 -22  132.46   15.04   0
  -6   6  -6  588.27   17.69   0
  -4   3 -37  -15.40   11.94   0
  -4   3  -4 1453.80   24.59   0
  -2   2 -49    5.70   11.83   0
  -1   0 -25    0.96    6.72   0
  -6   6 -36  354.69   16.99   0
  -5   4 -33    7.02   11.86   0
  -5   4  -9   54.63    9.06   0
  -5   6 -50  231.10   15.69   0
  -4   5 -54  152.18   14.24   0
  -2   1 -36 1275.51   22.47   0
  -1   1 -47   -8.68   10.60   0
  -7   8 -24  409.29   17.88   0
  -7   8 -21    4.34   11.85   0
  -7   8 -18  426.76   18.11   0
  -6   7 -43   11.56   12.93   0
  -1   0 -28 1577.02   25.91   0
  -7   8 -27   12.16   12.21   0
  -7   8 -15    9.31   12.17   0
  -5   5 -46  224.28   15.98   0
  -4   3 -40  814.65   19.83   0
  -4   4 -50  356.47   17.53   0
  -3   3 -51   -0.38   13.35   0
  -7   8 -30  130.55   14.50   0
  -6   6 -39    5.01   11.99   0
  -6   6  -3   -2.57   10.87   0
  -5   4 -36  849.29   19.58   0
  -5   4  -6  505.22   16.04   0
  -3   2 -41   13.00    9.70   0
  -3   4 -58  313.77   17.19   0
  -2   1 -39   -6.81   10.20   0
  -1   0 -31   -0.69    8.40   0
  -6   5 -26  421.78   16.64   0
  -6   5 -23   10.34   12.04   0
  -6   5 -17    7.75   11.12   0
  -7   8 -33   -8.97   11.90   0
  -6   5 -29   -0.82   13.00   0
  -5   4 -39    9.39   13.07   0
  -4   3  -1   68.49    9.31   0
  -4   5 -57   10.12   12.43   0
  -2   2 -52  357.95   16.86   0
  -7   7 -23    2.43   12.85   0
  -7   7 -20  359.33   17.01   0
  -6   5 -14  630.32   16.79   0
  -6   6 -42  306.54   15.90   0
  -5   5 -49   -7.33   12.96   0
  -7   7 -26  413.21   17.46   0
  -7   7 -17    6.76   11.42   0
  -6   5 -32  684.98   19.83   0
  -4   4 -53   10.81   14.35   0
  -3   2 -44  559.09   18.07   0
  -3   3 -54  254.91   16.41   0
  -1   0 -34 1304.72   24.11   0
  -7   7 -29   -5.87   13.05   0
  -6   5 -11   19.78   10.85   0
  -5   4  -3    3.45    9.02   0
  -2   1 -42  527.40   17.39   0
  -6   5 -35   -2.32   11.33   0
  -6   6 -45  -10.60   13.25   0
  -7   7 -11    2.15   12.87   0
  -4   3 -46  169.12   14.62   0
  -6   5 -38  334.51   16.73   0
  -6   5  -8 1113.46   22.07   0
  -4   2 -24 2386.46   29.08   0
  -4   2 -21    2.09   10.09   0
  -3   2 -47    6.48   12.06   0
  -2   2 -55    6.30   13.70   0
  -1   0 -37    5.28    9.01   0
  -5   4 -45   -1.64   11.50   0
  -4   2 -27   11.29    9.44   0
  -4   2 -18 1334.47   22.05   0
  -7   7 -38  118.83   13.97   0
  -6   6 -48  410.57   18.08   0
  -5   3 -26  983.52   20.73   0
  -5   3 -23   15.69    9.83   0
  -5   3 -20  848.33   19.08   0
  -4   2 -30  303.50   13.35   0
  -4   4 -56  189.63   15.37   0
  -3   3 -57    7.03   14.60   0
  -2   1 -45    1.51   11.02   0
  -6   5 -41    7.04   12.12   0
  -5   3 -29   -1.43    9.99   0
  -5   3 -17    8.01    9.77   0
  -5   4   0 1707.43   27.19   0
  -4   2 -33    0.09   11.39   0
  -4   2 -15    0.73    8.17   0
  -4   3 -49    8.41   12.86   0
  -4   3   2  934.00   21.61   0
  -3   1 -25   22.04    8.84   0
  -3   1 -22  572.33   15.76   0
  -7   6 -25    0.22   10.72   0
  -7   6 -22  336.27   14.84   0
  -7   6 -19   34.34   12.45   0
  -6   5  -5   11.01    9.79   0
  -5   3 -32 1111.13   22.12   0
  -3   1 -28 1811.73   25.63   0
  -3   1 -19    9.30    8.05   0
  -1   0 -40 1080.40   22.86   0
  -7   6 -31   22.11   12.95   0
  -7   6 -16  991.25   22.05   0
  -5   3 -14  477.77   15.75   0
  -4   2 -36  596.95   18.03   0
  -4   2 -12  912.26   19.56   0
  -3   2 -50  338.45   16.98   0
  -7   6 -34  351.91   17.39   0
  -6   5 -44  394.23   16.26   0
  -5   3 -35    9.37   11.12   0
  -3   1 -16 2241.39   28.46   0
  -7   6 -13    5.12   11.69   0
  -6   4 -28  730.96   19.29   0
  -6   4 -25  -13.54   10.43   0
  -6   4 -22  546.64   17.68   0
  -2   1 -48  639.99   18.90   0
  -7   6 -37   10.92   13.19   0
  -6   4 -31   11.46   12.14   0
  -6   4 -19    3.40    9.82   0
  -5   3 -38  184.48   14.77   0
  -4   3 -52  469.68   18.60   0
  -4   4 -59   14.56   13.55   0
  -6   5 -47   -2.33   12.93   0
  -6   5  -2  454.24   16.08   0
  -4   2  -9    1.86    8.86   0
  -3   1 -37   -0.36   10.93   0
  -3   1 -13   50.53    8.74   0
  -3   3 -60  253.56   15.73   0
  -1   0 -43    0.47    9.62   0
  -7   6 -10  388.46   15.74   0
  -5   3 -41   -4.01   13.46   0
  -3   2 -53   22.41   12.85   0
  -8   8 -25   -7.77   11.62   0
  -8   8 -22  151.24   13.60   0
  -6   4 -37   12.26   12.56   0
  -6   4 -13    3.53    9.84   0
  -4   2 -42  739.98   19.97   0
  -8   8 -19    5.72   11.31   0
  -5   3  -8 2506.80   29.83   0
  -5   4   3   51.96    9.80   0
  -3   1 -40  727.86   18.99   0
  -2   1 -51    6.19   11.36   0
  -7   6 -43   13.87   13.05   0
  -6   4 -40  531.26   18.89   0
  -6   5 -50  204.37   14.45   0
  -5   3 -44  497.00   18.62   0
  -5   4 -54  165.87   15.08   0
  -4   3 -55    4.64   13.22   0
  -3   1 -10 2220.50   29.25   0
  -2   0 -29    1.63    9.24   0
  -7   5 -27   12.63   12.92   0
  -6   4 -10  565.03   16.68   0
  -4   2 -45    1.25   11.90   0
  -2   0 -32  805.17   19.54   0
  -2   0 -20 3885.72   38.39   0
  -7   5 -30  351.86   17.37   0
  -7   5 -21    2.75   12.33   0
  -3   1 -43   14.05   11.45   0
  -8   7 -27    3.72   12.46   0
  -8   7 -24  417.92   18.09   0
  -7   5 -33   18.62   13.94   0
  -7   5 -18  332.80   15.70   0
  -6   4 -43   -9.01   13.89   0
  -6   5   1   29.15    9.64   0
  -3   2 -56  442.06   18.53   0
  -2   0 -35    5.38    9.67   0
  -2   0 -17    0.79    8.42   0
  -8   7 -30  109.60   14.71   0
  -8   7 -21    8.94   12.02   0
  -7   5 -36  349.85   16.98   0
  -5   3  -5   14.27    8.32   0
   0  -1 -32 2181.63   34.87   0
  -8   7 -33    4.70   11.71   0
  -8   7 -18  404.10   16.85   0
  -7   5 -15   19.74   11.78   0
  -6   4  -7    4.16   10.06   0
  -5   4 -57   -4.79   12.46   0
  -4   2 -48  619.37   19.97   0
  -4   3 -58  289.13   17.36   0
  -7   5 -39   -6.42   13.20   0
  -6   4 -46  245.27   16.63   0
  -3   1  -7    3.56    7.32   0
  -2   0 -38  412.84   15.87   0
  -8   7 -15    3.77   11.45   0
  -2   0 -14  381.17   14.91   0
  -7   5 -42  258.70   16.24   0
  -5   2 -28  620.13   18.33   0
  -6   4 -49    4.01   13.46   0
  -5   2 -31   13.04   12.32   0
  -5   2 -25    8.34    9.79   0
  -5   2 -22  437.87   15.81   0
  -4   2 -51    5.87   12.59   0
  -2   0 -41   -1.53   10.19   0
  -6   3 -30  373.35   16.08   0
  -6   3 -27    0.74   10.81   0
  -6   3 -24  951.93   21.06   0
  -6   4  -4 1153.76   22.50   0
  -5   2 -34  725.67   19.71   0
  -5   3  -2 1021.57   21.41   0
  -3   1 -49   -2.72   12.19   0
  -8   6 -29  -14.12   13.10   0
  -8   6 -26  401.66   16.97   0
  -7   5 -45   12.07   14.00   0
  -7   5  -9    5.01   10.85   0
  -6   3 -33   13.84   11.17   0
  -6   3 -21   32.78   10.35   0
  -5   2 -37   13.79   12.57   0
  -5   2 -19   20.68    9.58   0
  -5   4   6  940.09   22.89   0
  -4   1 -29    8.37   11.01   0
  -4   1 -26  946.65   19.35   0
  -8   6 -23  -13.34   13.66   0
  -6   3 -36  599.71   19.24   0
  -6   3 -18  629.88   18.03   0
  -5   3 -53   12.28   12.31   0
  -4   1 -32 1371.81   23.01   0
  -4   1 -23   35.47    9.63   0
  -8   6 -20  376.76   17.33   0
  -5   2 -40  814.94   20.63   0
  -5   2 -16 2189.64   27.45   0
  -4   1 -20 1111.99   20.45   0
  -2   0 -44 1221.91   24.27   0
  -8   6 -17    3.26   12.78   0
  -7   4 -29   27.77   13.11   0
  -7   4 -26  302.66   16.12   0
  -6   3 -39  -14.05   11.27   0
  -4   2 -54   89.94   14.53   0
  -3   1  -4 3010.35   35.17   0
  -7   4 -32  558.65   17.93   0
  -7   4 -23  -11.67   12.54   0
  -7   5  -6  645.75   18.43   0
  -5   2 -13   -6.00   10.07   0
  -4   1 -17   -0.74    8.53   0
  -3   1 -52  624.70   19.81   0
  -7   4 -35    9.64   11.27   0
  -6   3 -42  329.59   15.85   0
  -5   3 -56  296.84   16.05   0
  -8   6 -14  230.26   15.10   0
  -7   4 -38  313.86   16.75   0
  -6   4  -1   -3.60    9.29   0
  -4   1 -41    0.44   12.10   0
  -4   2   0 4350.77   42.10   0
  -2   0 -47    0.73   10.93   0
  -7   4 -17   27.39   10.56   0
  -6   3 -45  -12.95   13.10   0
  -5   3   1    8.19    8.49   0
  -4   1 -14  810.28   18.01   0
  -7   4 -41   -0.32   13.87   0
  -5   2 -46  132.90   12.79   0
  -5   2 -10  886.85   19.51   0
  -4   2 -57    0.85   12.42   0
  -3   0 -33    1.99   10.55   0
  -3   0 -24 1385.33   23.48   0
  -1  -1 -30  803.09   20.22   0
  -1  -1 -27    1.81    8.47   0
  -8   6 -11   -2.88   11.99   0
  -7   4 -14  550.76   17.67   0
  -4   1 -44  522.69   16.89   0
  -3   1 -55    0.25   13.91   0
  -1  -1 -33   25.86    8.96   0
  -1  -1 -24 2018.69   30.39   0
  -7   4 -44  366.55   17.31   0
  -7   5  -3   16.82   10.44   0
  -6   3  -9   19.53   10.48   0
  -3   0 -21   -2.54    8.22   0
  -8   5 -34  342.49   16.49   0
  -8   5 -31    1.38   12.10   0
  -8   5 -25   -5.89   13.27   0
  -5   2 -49    7.28   13.29   0
  -4   1 -11   56.26    9.26   0
  -1  -1 -36 1297.26   25.13   0
  -8   5 -37   -1.90   13.05   0
  -8   5 -22  243.33   15.32   0
  -7   4 -11   -1.27   11.45   0
  -4   1 -47    9.71   12.47   0
  -3   0 -39   -5.19    9.46   0
  -3   0 -18 1636.49   25.00   0
  -1  -1 -21   42.56    7.86   0
  -8   5 -19   -5.59   12.11   0
  -7   4 -47   -0.45   13.89   0
  -9   7 -22  137.47   13.29   0
  -6   3 -51    7.14   11.72   0
  -6   4   2  749.03   19.44   0
  -3   0 -42  521.66   17.81   0
  -1  -1 -39    7.18    9.88   0
  -8   5 -16  760.24   19.98   0
  -6   3  -6  631.75   17.66   0
  -5   2 -52  354.71   17.90   0
  -4   1 -50  440.73   18.29   0
  -7   4  -8  828.20   19.89   0
  -6   2 -29   11.35   11.90   0
  -4   1  -8 3118.59   33.21   0
  -3   0 -15    1.02    7.75   0
  -6   2 -35  -12.39   12.68   0
  -6   2 -26  569.97   16.78   0
  -6   2 -23   11.35   12.31   0
  -4   2   3    1.92    7.74   0
  -3   0 -45    1.32   11.15   0
  -8   5 -13    3.07   11.54   0
  -7   3 -31   -4.12   13.78   0
  -7   3 -28  681.58   19.89   0
  -7   3 -25   23.55   13.62   0
  -5   1 -33   20.04   12.48   0
  -5   1 -30  542.10   17.80   0
  -5   1 -27    7.79   11.12   0
  -5   3   4  867.63   20.55   0
  -7   3 -37   26.21   14.10   0
  -6   2 -20  922.70   19.50   0
  -5   1 -36  546.50   18.06   0
  -5   1 -24 1326.20   23.28   0
  -5   2 -55    3.68   12.56   0
  -5   2  -4  926.93   19.83   0
  -9   6 -27    6.86   12.81   0
  -7   3 -22  301.75   14.74   0
  -6   2 -41    5.50   13.58   0
  -5   1 -21    9.02   11.35   0
  -4   1 -53    9.10   13.18   0
  -3   0 -12 2881.72   32.25   0
  -9   6 -24  376.19   16.28   0
  -7   3 -40  353.22   17.49   0
  -7   3 -19    6.77   11.57   0
  -7   4  -5   16.64   10.84   0
  -6   2 -17    0.68   11.48   0
  -6   3  -3    6.90    9.88   0
  -3   0 -48  396.37   16.87   0
  -9   6 -21    9.27   14.07   0
  -8   5 -10  426.61   16.64   0
  -5   1 -42  356.36   17.16   0
  -2  -1 -31   12.32    9.43   0
  -2  -1 -28 1832.64   27.19   0
  -8   4 -36  354.85   17.35   0
  -8   4 -33    2.35   13.45   0
  -8   4 -30  214.97   14.76   0
  -8   4 -27  -15.06   13.38   0
  -7   3 -43   -2.64   12.40   0
  -5   1 -18  532.89   15.60   0
  -4   1  -5   15.15    7.88   0
  -2  -1 -34  879.43   20.54   0
  -6   4   5   -3.82    9.53   0
  -4   0 -28  863.40   19.44   0
  -4   1 -56  351.38   17.41   0
  -2  -1 -37    7.09   10.01   0
  -2  -1 -25   21.98    8.28   0
  -8   4 -39  -14.49   12.08   0
  -8   4 -21    1.34   13.13   0
  -7   3 -46  197.35   14.99   0
  -6   2 -47   -3.62   11.98   0
  -5   1 -45   13.45   13.35   0
  -5   1 -15   40.41   10.58   0
  -4   0 -37   -2.75   11.54   0
  -4   0 -25    2.09    9.30   0
  -3   0 -51    4.72   11.21   0
  -8   5  -7    3.07   11.29   0
  -7   3 -13   24.06   11.76   0
  -4   0 -22  918.64   19.73   0
  -3   0  -9   -3.10    8.73   0
  -2  -1 -40  722.64   19.45   0
  -9   6 -15   22.46   11.27   0
  -8   4 -18  368.17   15.14   0
  -6   2 -50  268.86   16.75   0
  -5   2  -1    6.80    7.61   0
  -7   4  -2  407.61   15.99   0
  -6   3   0 1328.37   23.61   0
  -5   1 -48  512.45   19.07   0
  -8   4 -15    4.23   11.90   0
  -5   1 -12 1171.60   20.65   0
  -4   0 -43    5.89   11.75   0
  -4   0 -19    7.02    8.64   0
  -2  -1 -43    5.12   10.41   0
  -9   5 -29    0.22   12.12   0
  -9   5 -26  341.98   16.75   0
  -6   2 -53    4.57   11.96   0
  -5   1 -51   -6.51   12.22   0
  -5   3   7   17.77    8.71   0
  -9   5 -23    2.01   13.02   0
  -8   4 -12  488.53   17.85   0
  -4   0 -46  314.68   16.36   0
  -4   0 -16 1957.16   25.73   0
  -4   2   6  909.62   21.47   0
  -9   5 -20  287.92   16.09   0
  -5   1  -9    3.22    9.90   0
  -3   0  -6  630.12   16.99   0
  -2  -1 -16 2175.54   28.64   0
  -7   2 -36  533.94   18.82   0
  -7   2 -33   -0.09   13.57   0
  -7   2 -30  177.46   15.45   0
  -7   2 -27    8.09   12.53   0
  -7   3  -7    7.40   11.18   0
  -9   5 -17    0.94   12.70   0
  -7   2 -24  573.18   18.14   0
  -7   4   1   22.40   10.18   0
  -6   1 -34  420.32   17.61   0
  -6   1 -31    7.68   10.90   0
  -6   1 -28  743.99   19.82   0
  -5   1 -54  150.51   14.32   0
  -4   0 -49   -2.19   11.80   0
  -4   0 -13    0.28    9.45   0
  -3  -1 -32 1328.64   23.75   0
  -3  -1 -29    6.04   10.39   0
  -8   3 -32  464.46   17.58   0
  -8   3 -29   12.07   12.76   0
  -8   4  -9    3.02   11.79   0
  -7   2 -39   -7.25   12.40   0
  -6   1 -37    9.64   11.04   0
  -6   1 -25   22.25   10.80   0
  -5   2   2 1019.99   20.31   0
  -3  -1 -35   17.50   10.98   0
  -8   3 -38  158.17   14.79   0
  -8   3 -35    5.91   11.95   0
  -8   3 -26  359.63   17.22   0
  -7   2 -21   -8.28   10.80   0
  -6   1 -22  359.64   15.92   0
  -6   2  -5   -8.33    9.40   0
  -6   3   3   17.52    9.01   0
  -3  -1 -38  300.69   14.98   0
  -9   5 -14  181.70   14.38   0
  -8   3 -23   13.97   12.59   0
  -2  -1 -13   60.51    8.49   0
  -7   2 -45   -1.56   12.52   0
  -7   2 -18  652.92   17.40   0
  -6   1 -19  -10.66   11.55   0
  -5   0 -32  750.89   19.22   0
  -5   0 -29   -9.69   11.20   0
  -5   1  -6 1054.77   19.66   0
  -4   0 -52  302.03   16.71   0
  -3  -1 -41    0.24   11.28   0
  -7   3  -4  987.10   20.76   0
  -5   0 -38  381.37   17.32   0
  -5   0 -26  389.93   14.75   0
  -4   0 -10  524.34   14.90   0
  -3  -1 -20 1130.79   21.25   0
  -8   4  -6  356.46   15.53   0
  -7   2 -15   10.28   11.66   0
  -6   1 -46  198.07   15.51   0
  -5   0 -23    3.54   10.88   0
  -9   5 -11    4.33   10.81   0
  -8   3 -17    1.14   12.58   0
  -6   1 -16  871.68   19.00   0
  -5   0 -41   -6.54   10.45   0
  -3   0  -3    0.07    7.21   0
  -9   4 -25   -0.11   11.44   0
  -6   1 -49   -6.11   13.11   0
  -6   2  -2  775.18   18.37   0
  -5   0 -20 1032.52   20.76   0
  -3  -1 -17   -0.98    9.38   0
  -9   4 -22  198.73   14.19   0
  -5   0 -44  423.12   16.84   0
  -3  -1 -47    1.04   11.48   0
  -8   3 -14  275.13   13.75   0
  -6   1 -13   35.33    9.90   0
  -2  -1 -10 2177.17   28.63   0
  -9   4 -19   10.79   12.14   0
  -7   3  -1   26.20   10.14   0
  -5   0 -47    8.62   11.76   0
  -5   0 -17    5.61    9.30   0
  -5   2   5   15.82    8.81   0
  -4   0  -7    1.16    7.77   0
  -8   4  -3    2.11   10.82   0
  -3  -1 -14  875.62   18.85   0
  -1  -2 -32 1632.98   27.05   0
  -4  -1 -33   19.00   10.01   0
   1  -4 -19   32.32    7.14   0
   7  -7   2  422.77   14.18   0
   7  -6   7   33.72    9.90   0
   4  -9 -14  175.08   13.30   0
   6  -7  -8 1011.28   19.66   0
   3  -9 -15   14.49   11.94   0
   5  -3   5   16.10    7.57   0
   6  -5  -1   37.05    9.11   0
   8  -9  11   -2.02    9.80   0
   8  -8  13   -2.41   10.28   0
   1  -5 -21   35.55    9.54   0
   1  -3 -17   18.33    6.41   0
   4  -6 -17    4.37    8.36   0
   4  -5 -15   50.28    8.41   0
   5  -6 -13   20.70   10.50   0
   3  -7 -20  729.13   18.05   0
   5  -9 -13  -10.22   10.87   0
   6  -9  -9    3.63   10.90   0
   6  -8 -10  411.56   14.59   0
   6  -4   7   -2.18    7.95   0
   7  -7  -1   -4.49   10.90   0
   7  -6   4  439.88   14.46   0
   8  -8  10  345.20   15.43   0
   2  -7 -21   -5.24   10.70   0
   3  -8 -19    6.89   11.59   0
   3  -5 -19   22.32    7.98   0
   5  -7 -15    6.85    9.48   0
   8  -9   8  313.12   14.23   0
   2  -6 -22  546.42   16.17   0
   3  -3 -12 2806.92   28.75   0
   4  -7 -19   -1.05   10.19   0
   2  -3 -16 2364.63   27.38   0
   3  -4 -17    2.66    7.77   0
   6  -7 -11   24.24   11.01   0
   7  -9  -5   -2.30   11.46   0
   2  -8 -20  351.22   15.87   0
   4  -9 -17   17.85   11.34   0
   4  -4 -13    0.11    7.20   0
   6  -5  -4 1062.29   19.06   0
   8  -9   5    5.05   10.09   0
   8  -8   7  -11.00   10.75   0
   2  -2 -11    1.90    7.01   0
   3  -9 -18  417.27   16.69   0
   5  -8 -17   -6.04   11.41   0
   5  -3   2 1041.91   19.61   0
   6  -9 -12  294.27   14.64   0
   6  -6  -9   -4.02    8.52   0
   6  -4   4 1182.11   21.14   0
   7  -8  -6  388.86   15.07   0
   7  -7  -4  390.66   14.70   0
   7  -6   1   -0.46    9.63   0
   6  -8 -13   -7.08    9.73   0
   1  -6 -23    2.89    9.43   0
   4  -6 -20  994.05   18.44   0
   4  -5 -18  545.51   14.99   0
   4  -3  -8 3195.06   30.98   0
   5  -6 -16  899.25   17.61   0
   7  -5   9    5.46    8.55   0
   8  -8   4  466.39   15.12   0
   8  -7   9    5.86   11.44   0
   2  -5 -23   17.28    9.00   0
   5  -7 -18  647.23   16.34   0
   7  -9  -8  480.03   15.74   0
   1  -4 -22  454.44   14.40   0
   3  -8 -22  240.74   14.00   0
   3  -7 -23    2.27    9.35   0
   3  -2  -7    2.94    6.70   0
   4  -8 -21   11.70   11.81   0
   3  -5 -22  441.48   13.93   0
   5  -5 -14  849.28   16.66   0
   6  -7 -14  261.48   12.37   0
   7  -8  -9   13.91   10.95   0
   7  -6  -2  599.22   15.26   0
   2  -7 -24  798.14   19.27   0
   6  -9 -15   11.63   11.44   0
   6  -6 -12  743.90   17.16   0
   6  -5  -7    8.19    7.64   0
   6  -4   1   -0.43    7.93   0
   7  -5   6  658.80   16.70   0
   8  -9  -1    1.12   10.33   0
   8  -8   1    2.62   11.12   0
   8  -7   6  217.32   12.89   0
   3  -6 -24  879.64   18.69   0
   3  -3 -15   -4.88    7.70   0
   5  -8 -20  431.41   15.78   0
   6  -8 -16  769.44   17.28   0
   2  -6 -25    4.32    8.73   0
   3  -9 -21    0.90   11.79   0
   3  -4 -20 1105.61   19.06   0
   4  -4 -16 1952.03   23.51   0
   5  -3  -1    3.88    6.26   0
   7  -9 -11    2.83   11.03   0
   4  -2   0 4468.66   40.57   0
   5  -6 -19    9.54   10.31   0
   8  -7   3    1.38    9.65   0
   2  -3 -19    3.54    7.81   0
   4  -6 -23    4.47   10.05   0
   5  -7 -21    5.18    9.33   0
   7  -6  -5   27.58    8.64   0
   7  -5   3   14.36    8.70   0
   8  -8  -2  189.32   13.47   0
   0  -4 -23    2.94    7.31   0
   4  -5 -21   16.61    8.01   0
   4  -3 -11   70.57    8.73   0
   6  -7 -17    8.16   11.56   0
   0  -3 -21    0.74    6.69   0
   3  -8 -25  -16.88   11.85   0
   3  -7 -26  311.06   14.70   0
   5  -5 -17    4.90    9.48   0
   6  -9 -18  256.96   14.41   0
   6  -6 -15   -5.15    9.80   0
   6  -4  -2  787.18   17.20   0
   1  -6 -26  380.37   14.66   0
   5  -4 -12 1139.67   18.60   0
   6  -8 -19    1.88   11.93   0
   7  -9 -14  256.68   14.38   0
   8  -7   0  691.34   17.56   0
   2  -5 -26  936.72   19.03   0
   2  -2 -14  384.71   12.54   0
   4  -9 -23   18.88   11.86   0
   5  -9 -22  225.64   13.86   0
   5  -8 -23   18.63   11.38   0
   7  -5   0 1034.19   20.21   0
   8  -8  -5    5.00   10.65   0
   3  -2 -10 2264.70   27.22   0
   5  -3  -4  944.00   17.64   0
   7  -6  -8 1047.21   19.86   0
   1  -4 -25   -0.34    7.98   0
   2  -7 -27    5.76   10.85   0
   3  -6 -27   11.39   10.16   0
   4  -4 -19    1.73    8.30   0
   5  -6 -22  374.69   13.91   0
   7  -8 -15    0.16   11.80   0
   7  -7 -13    9.74   10.72   0
   3  -3 -18 1629.53   22.40   0
   4  -2  -3    0.70    6.55   0
   5  -7 -24  607.91   17.06   0
   6  -7 -20  490.10   15.85   0
   8  -7  -3   14.39    9.93   0
   1  -5 -27   21.03    8.70   0
   3  -4 -23   37.75    8.12   0
   4  -6 -26  581.87   15.87   0
   6  -9 -21    7.85   11.32   0
   6  -4  -5    1.15    7.07   0
   8  -8  -8  481.32   15.58   0
   4  -8 -27   -2.27   11.39   0
   4  -5 -24 1331.25   20.78   0
   5  -5 -20  991.98   18.64   0
   6  -8 -22  204.44   13.51   0
   6  -6 -18  633.34   15.55   0
   7  -9 -17    7.75   11.20   0
   7  -5  -3    3.09    9.07   0
   4  -3 -14  870.10   16.47   0
   5  -4 -15   35.51    9.06   0
   7  -6 -11   14.92    9.55   0
   1  -3 -23   13.68    7.16   0
   3  -8 -28  375.79   15.47   0
   3  -7 -29   26.27   10.63   0
   4  -9 -26  351.63   15.30   0
   4  -7 -28  650.53   17.61   0
   5  -9 -25    0.28   11.13   0
   7  -8 -18  294.92   14.43   0
   8  -7  -6  373.39   14.50   0
   8  -6   2  395.95   14.66   0
   2  -3 -22  547.92   13.99   0
   5  -3  -7   28.58    6.91   0
   7  -7 -16  840.88   17.60   0
   8  -8 -11    0.82   11.09   0
   2  -5 -29    5.01    9.10   0
   5  -7 -27    2.66   11.02   0
   5  -6 -25   15.41    9.41   0
   6  -9 -24  503.22   16.56   0
   6  -7 -23   18.47    9.77   0
   6  -5 -16  963.10   18.44   0
   6  -4  -8 1152.14   19.14   0
   7  -5  -6  282.84   12.40   0
   2  -7 -30  322.36   15.60   0
   2  -4 -27    5.96    8.42   0
   2  -2 -17   -1.23    7.14   0
   3  -6 -30  343.98   13.96   0
   3  -2 -13   59.02    8.24   0
   4  -4 -22  923.17   17.27   0
   6  -6 -21   -6.99    9.81   0
   7  -9 -20  325.55   13.85   0
   8  -6  -1    6.99    9.59   0
   4  -2  -6  910.81   17.78   0
   6  -8 -25    7.71   11.76   0
   8  -7  -9   -1.02    9.91   0
   3  -4 -26  935.45   18.17   0
   3  -3 -21    1.79    6.93   0
   4  -8 -30  210.07   14.04   0
   4  -5 -27   24.59    9.96   0
   5  -5 -23    1.06    8.17   0
   5  -4 -18  531.38   14.77   0
   7  -8 -21    9.39   11.07   0
   7  -7 -19   -3.05   10.81   0
   9  -8  -1    5.72   10.32   0
   0  -3 -24 1926.77   27.56   0
   2  -6 -31   -8.54    9.62   0
   4  -3 -17   -5.16    6.82   0
   5  -9 -28  245.74   14.40   0
   5  -3 -10  896.99   17.61   0
   1  -4 -28  949.52   18.54   0
   4  -9 -29    0.82   10.55   0
   4  -7 -31   12.00   10.96   0
   6  -4 -11   -4.15    8.54   0
   7  -5  -9    8.60    9.24   0
   8  -6  -4  375.78   14.50   0
   3  -8 -31    4.05   10.64   0
   3  -7 -32  531.33   16.50   0
   6  -7 -26  552.07   16.96   0
   6  -3   3   12.31    8.09   0
   7  -9 -23    6.15   11.04   0
   8  -7 -12  352.21   14.26   0
   5  -6 -28  727.16   17.45   0
   6  -5 -19    1.03    8.27   0
   9  -8  -4  367.08   14.73   0
   5  -7 -30  186.73   11.91   0
   6  -6 -24  738.72   16.55   0
   1  -3 -26  670.02   16.16   0
   3  -5 -31   12.08    9.55   0
   4  -4 -25    3.88    7.73   0
   7  -8 -24  557.15   16.57   0
   7  -7 -22  241.81   13.58   0
   8  -6  -7   -0.15    9.91   0
   3  -6 -33   16.61   10.28   0
   3  -2 -16 2340.70   26.72   0
   5  -5 -26  380.65   12.90   0
   5  -4 -21   19.45    9.39   0
   6  -3   0 1373.09   22.99   0
   7  -5 -12  737.30   16.81   0
   9  -8  -7   -0.86   10.51   0
   4  -8 -33   -1.71   11.79   0
   4  -5 -30  545.01   15.54   0
   6  -4 -14  453.33   13.87   0
   8  -7 -15    2.16   10.54   0
   2  -4 -30  294.33   11.77   0
   2  -2 -20 4088.22   34.84   0
   3  -4 -29    8.94    8.59   0
   3  -3 -24 1381.36   20.12   0
   4  -3 -20 1105.44   18.17   0
   5  -8 -32  469.05   16.20   0
   7  -4  -1   29.28    9.34   0
   4  -7 -34  342.05   15.20   0
   6  -7 -29   -8.55   11.26   0
   6  -5 -22  366.54   13.96   0
   8  -6 -10  405.61   14.42   0
   2  -6 -34  326.75   14.30   0
   5  -6 -31  -16.68   10.81   0
   6  -6 -27  -10.18   10.65   0
   9  -8 -10  195.85   12.12   0
   3  -7 -35    5.32   10.69   0
   5  -2   1    5.86    7.33   0
   6  -8 -31    3.02   10.85   0
   6  -3  -3   12.11    7.69   0
   7  -8 -27   12.63   11.34   0
   7  -5 -15    8.88    9.36   0
   0  -2 -22 2159.01   29.13   0
   1  -4 -31   27.51    8.57   0
   7  -4  -4  982.35   19.05   0
   8  -7 -18  256.39   13.53   0
   9  -7  -5    9.81   10.11   0
   1  -5 -33   11.31    8.76   0
   4  -4 -28  825.22   16.43   0
   5  -5 -29   -6.46    9.67   0
   5  -4 -24 1358.23   20.65   0
   8  -6 -13    4.34   10.66   0
   0  -3 -27    0.19    7.00   0
   3  -5 -34  694.91   17.04   0
   7  -6 -23   16.09   11.07   0
   3  -6 -36  566.91   16.42   0
   3  -2 -19    5.15    6.60   0
   4  -6 -35    6.79    8.87   0
   4  -5 -33   11.64   10.21   0
   4  -3 -23   40.91    8.76   0
   5  -8 -35   -0.39   11.75   0
   6  -5 -25    4.47    9.98   0
   6  -3  -6  654.77   15.98   0
   8  -8 -23   -3.71   10.65   0
   2  -5 -35   17.38    9.50   0
   3  -3 -27   -2.86    8.49   0
   4  -8 -36  349.54   14.91   0
   5  -2  -2 1002.22   19.77   0
   6  -7 -32  522.94   15.37   0
   7  -5 -18  661.11   16.66   0
   7  -4  -7    6.44    8.63   0
   1  -3 -29   15.79    7.67   0
   2  -4 -33    0.83    8.75   0
   6  -6 -30  203.09   11.94   0
   7  -8 -30  223.53   13.40   0
   7  -7 -28  300.58   14.20   0
   2  -2 -23    2.21    6.66   0
   4  -7 -37   15.27   10.71   0
   5  -6 -34  420.27   13.98   0
   6  -8 -34  323.86   14.22   0
   8  -6 -16  754.43   17.50   0
   8  -5  -5    1.71    9.21   0
   4  -2 -15    2.57    7.47   0
   9  -7 -11    1.17   10.09   0
   2  -6 -37    6.86    9.35   0
   3  -7 -38  311.20   14.84   0
   4  -4 -31   -1.36    9.05   0
   5  -5 -32  777.35   17.30   0
   5  -4 -27   17.84    9.86   0
   5  -3 -19   24.07    7.46   0
   5  -2  -5   16.60    7.33   0
   6  -3  -9   18.01    8.26   0
   7  -6 -26  503.09   15.85   0
   7  -4 -10  589.17   15.65   0
   8  -8 -26  168.11   13.35   0
   8  -5  -8  822.48   18.29   0
   7  -5 -21   15.41    8.38   0
   1  -4 -34  778.49   17.70   0
   3  -5 -37    0.41    8.36   0
   3  -2 -22  588.31   14.08   0
   4  -6 -38  241.36   13.68   0
   4  -3 -26  921.66   16.93   0
   5  -8 -38  147.04   12.20   0
   6  -7 -35   27.74   10.07   0
   6  -6 -33   -7.97   11.50   0
   7  -7 -31   -1.45   10.90   0
   8  -6 -19    1.15   10.54   0
   9  -7 -14  249.71   13.42   0
   2  -1 -15    2.59    6.19   0
   3  -6 -39   13.54   10.02   0
   4  -8 -39   -5.43   11.14   0
   6  -4 -23    8.66    9.60   0
   6  -3 -12 1106.98   19.37   0
   7  -8 -33    0.50   10.04   0
   0  -2 -25   -0.46    6.73   0
   3  -3 -30  442.98   12.93   0
   5  -6 -37   14.56   11.32   0
   5  -2  -8 2628.31   29.08   0
   7  -4 -13   24.74    9.48   0
   8  -5 -11    5.77    9.47   0
   2  -5 -38  174.48   11.84   0
   4  -7 -40  336.94   14.51   0
   4  -2 -18 1313.54   19.67   0
   5  -7 -39    3.34   10.97   0
   5  -3 -22  435.99   12.86   0
   7  -6 -29   -1.88   11.28   0
   0  -3 -30  777.68   18.12   0
   1  -3 -32 1578.35   23.16   0
   2  -4 -36  592.95   15.90   0
   2  -2 -26 1564.80   21.59   0
   3  -1 -11   44.57    7.79   0
   5  -5 -35    0.83   10.00   0
   5  -4 -30  537.83   14.34   0
   8  -6 -22  218.84   13.63   0
   9  -7 -17   -0.38   10.58   0
   1  -2 -27    1.33    7.03   0
   4  -4 -34  412.85   13.53   0
   6  -5 -31   10.33    8.99   0
   6  -7 -38  124.37   12.82   0
   6  -3 -15    5.54    8.68   0
   7  -7 -34  370.92   14.33   0
   7  -4 -16  705.00   16.34   0
   8  -5 -14  280.24   13.36   0
   1  -1 -19    1.61    5.67   0
   3  -7 -41    6.51   10.88   0
   3  -2 -25   19.51    8.30   0
   4  -3 -29   13.51    7.64   0
   5  -2 -11   12.29    6.36   0
   6  -6 -36  479.74   15.61   0
   6  -4 -26  591.10   15.31   0
   3  -5 -40  811.70   18.34   0
   4  -6 -41    6.80   11.00   0
   2  -1 -18 1315.05   20.56   0
   4  -2 -21    3.38    6.74   0
   5  -3 -25    5.44    7.63   0
   7  -6 -32  506.24   14.89   0
   8  -6 -25   -3.22   10.76   0
   9  -7 -20  293.42   13.85   0
   3  -6 -42  320.89   13.98   0
   3  -3 -33   -1.78    7.74   0
   5  -4 -33   -1.40   10.18   0
   8  -7 -30  191.33   12.60   0
   8  -5 -17   -6.05    9.82   0
   1  -4 -37    1.19    8.28   0
   3  -4 -38  293.38   11.99   0
   3  -1 -14 1756.25   23.40   0
   4  -7 -43    6.51   11.37   0
   5  -7 -42  307.67   14.42   0
   5  -5 -38  411.28   14.81   0
   5  -2 -14  505.44   14.06   0
   6  -5 -34  410.06   15.17   0
   6  -3 -18  603.89   15.33   0
   7  -4 -19    4.53    8.18   0
   2  -2 -29   -3.33    7.48   0
   4  -4 -37  -11.93    9.53   0
   7  -7 -37    8.36   11.40   0
   2  -5 -41   -0.47    9.39   0
   2  -4 -39    3.15    9.12   0
   4  -1  -4 1485.26   23.96   0
   6  -7 -41   -4.37   11.15   0
   6  -4 -29    6.20    9.83   0
   9  -6 -15   21.77    9.35   0
   0  -2 -28 1347.59   22.51   0
   4  -3 -32 1368.89   20.00   0
   6  -6 -39  -12.71   10.26   0
   8  -6 -28  315.93   14.45   0
   8  -5 -20  401.12   14.27   0
   1  -3 -35   -1.68    7.07   0
   1  -2 -30  801.61   16.89   0
   3  -2 -28 1832.41   22.54   0
   4  -2 -24 2377.99   25.34   0
   5  -3 -28  616.09   14.54   0
   7  -6 -35    3.63   10.43   0
   7  -5 -30  180.18   12.66   0
   8  -7 -33   18.10   11.18   0
   0  -3 -33   -2.31    7.31   0
   1  -1 -22  517.77   13.87   0
   2  -1 -21   40.17    7.56   0
   3  -1 -17   26.88    7.62   0
   4  -6 -44  462.93   15.41   0
   4  -5 -42  354.89   14.37   0
   5  -2 -17    5.67    8.10   0
   6  -3 -21   20.15    7.72   0
   3  -5 -43    1.36   10.43   0
   3  -3 -36 1318.41   20.68   0
   4  -1  -7   36.82    7.29   0
   5  -4 -36  541.71   15.73   0
   6  -5 -37   14.67   10.55   0
   9  -6 -18  215.70   12.99   0
   2  -3 -37    4.11    8.27   0
   5  -7 -45   -4.78   11.15   0
   8  -5 -23   11.42   10.33   0
   3  -6 -45    7.45    9.92   0
   3  -4 -41   11.33    9.93   0
   6  -4 -32  636.99   15.24   0
   7  -3  -8  769.81   18.13   0
   2  -2 -32  825.20   16.61   0
   4  -7 -46  166.21   12.42   0
   4  -4 -40  819.70   17.12   0
   4  -3 -35    7.69    9.28   0
   4  -1 -10 1341.97   21.35   0
   6  -6 -42  359.20   14.63   0
   7  -5 -33   -9.54   10.38   0
   7  -4 -25   35.72   10.29   0
   1  -4 -40  724.83   17.33   0
   4  -2 -27   -3.32    7.44   0
   5  -3 -31   12.46    8.45   0
   7  -6 -38  115.32   11.50   0
   9  -6 -21    3.43   10.44   0
   3  -2 -31   -2.31    7.34   0
   3  -1 -20 1747.41   22.81   0
   7  -3 -11   12.13    8.17   0
   0  -1 -23   -1.80    6.11   0
   2  -1 -24 2192.86   25.39   0
   5  -4 -39   -3.50   10.80   0
   8  -5 -26  369.26   14.42   0
   1  -3 -38  537.47   15.14   0
   1  -2 -33   16.38    7.78   0
   1  -1 -25   -5.86    5.92   0
   4  -6 -47    6.92   10.44   0
   4  -5 -45   21.45    8.98   0
   4  -1 -13   32.73    7.55   0
   5  -6 -46  168.54   12.75   0
   6  -5 -40  412.45   14.62   0
   6  -4 -35    1.13   10.90   0
   0  -2 -31   -0.76    6.64   0
   3  -5 -46  141.18   12.27   0
   5  -5 -44  414.97   15.29   0
   6  -2  -7   -1.47    7.35   0
   7  -4 -28  684.07   15.74   0
   7  -3 -14  574.93   15.33   0
   8  -4 -15    4.92    9.11   0
   9  -6 -24  493.15   15.57   0
   2  -3 -40  712.39   16.63   0
   5  -3 -34  702.26   16.48   0
   7  -5 -36  536.56   16.19   0
   4  -4 -43    0.21    8.74   0
   4  -3 -38  304.13   12.90   0
   4  -2 -30  295.63   11.20   0
   6  -6 -45   -2.42   10.53   0
   6  -2 -10  533.59   14.71   0
   7  -6 -41    3.63   10.65   0
   8  -5 -29   10.56   10.64   0
   3  -2 -34  908.50   17.23   0
   3  -1 -23   11.40    6.64   0
   7  -3 -17   29.51    8.73   0
   8  -4 -18  374.00   14.12   0
   6  -2 -13   -7.93    7.89   0
   9  -6 -27    7.89    9.43   0
   2  -1 -27    0.75    6.49   0
   5  -4 -42  337.25   13.66   0
   5  -2 -26  977.33   17.76   0
   6  -5 -43   -5.39   10.66   0
   6  -4 -38  254.69   13.20   0
   8  -6 -37   -2.60   10.09   0
   2  -4 -45    4.44    9.15   0
   4  -5 -48  482.85   16.01   0
   7  -3 -20  718.01   16.77   0
   0  -1 -26 1347.06   22.02   0
   1  -2 -36 1285.28   20.71   0
   4  -6 -50  245.16   13.80   0
   5  -6 -49    7.35   10.95   0
   5  -3 -37    6.67    9.56   0
   6  -2 -16 1060.28   18.98   0
   7  -5 -39    0.86   10.02   0
   8  -5 -32  451.66   14.50   0
   8  -4 -21    1.48    9.49   0
   1  -3 -41    9.52    8.45   0
   3  -1 -26  690.71   14.69   0
   4  -2 -33    6.28    7.70   0
   7  -6 -44  344.93   13.69   0
   3  -5 -49   -4.57    9.55   0
   4  -3 -41    3.97    8.45   0
   6  -6 -48  250.62   13.11   0
   0  -2 -34  338.39   12.57   0
   2  -3 -43   13.37    7.67   0
   3  -4 -47   11.42   10.02   0
   3  -2 -37   -1.16    7.86   0
   5  -2 -29   14.07    9.19   0
   6  -3 -33    8.29    9.84   0
   6  -2 -19   -2.90    8.33   0
   7  -3 -23    2.03    9.09   0
   8  -4 -24  580.29   16.03   0
   2  -1 -30  828.68   15.95   0
   4  -1 -22  477.94   12.89   0
   6  -5 -46  197.31   12.87   0
   6  -4 -41    7.87   10.35   0
   5  -4 -45    6.89    9.92   0
   8  -5 -35    2.26    9.99   0
   2   0 -13    2.84    6.62   0
   3  -1 -29    6.71    8.10   0
   4  -2 -36  593.27   15.08   0
   5  -3 -40  846.10   17.76   0
   5  -1  -6  494.72   15.11   0
   5  -1  -3   -3.61    7.45   0
   3  -3 -45    2.15    9.66   0
   4  -5 -51    8.72   10.13   0
   5  -1  -9   55.93    8.29   0
   6  -2 -22  550.80   14.86   0
   7  -3 -26  312.05   13.39   0
   8  -4 -27    1.16    9.84   0
   9  -5 -25    7.89   10.36   0
   1  -2 -39    0.31    8.10   0
   4  -3 -44  541.76   15.28   0
   4  -1 -25   -2.36    8.22   0
   5  -2 -32 1106.89   18.22   0
   5  -1 -12 1469.50   21.95   0
   6  -3 -36  596.43   15.77   0
   7  -4 -37   21.48    9.99   0
   0  -1 -29    1.25    5.39   0
   3  -2 -40  715.98   16.06   0
   4  -6 -53    6.08    9.45   0
   4  -4 -49    3.24   10.40   0
   1  -3 -44  549.57   15.13   0
   2  -2 -41    1.01    8.55   0
   2  -1 -33   15.09    8.54   0
   2   0 -16 3231.42   31.26   0
   3  -5 -52  337.34   15.07   0
   5  -1 -15    6.89    7.75   0
   6  -4 -44  479.17   15.60   0
   6  -2 -25    9.72    9.02   0
   2  -3 -46  262.31   11.60   0
   3  -4 -50  415.04   14.99   0
   5  -4 -48  511.93   15.65   0
   6  -5 -49    0.86   10.32   0
   7  -5 -45  -12.16   10.32   0
   7  -3 -29   19.37   10.37   0
   8  -4 -30  228.36   12.12   0
   0  -2 -37    0.41    6.89   0
   3  -1 -32 1614.58   21.06   0
   4  -2 -39   -2.49    8.30   0
   4  -1 -28  989.94   17.70   0
   5  -3 -43    2.06   10.62   0
   1  -1 -34 1249.28   19.79   0
   1   0 -20 1683.96   23.05   0
   2   0 -19    1.63    5.90   0
   5  -2 -35    9.85    8.36   0
   5  -1 -18 1017.91   18.33   0
   6  -3 -39   -2.52   10.69   0
   7  -4 -40  333.18   13.35   0
   3  -3 -48  382.57   14.06   0
   3   0  -9    3.07    6.22   0
   6  -2 -28  727.40   16.18   0
   4  -5 -54  164.37   12.18   0
   4  -3 -47    5.55    8.66   0
   5  -5 -53  -12.60   10.83   0
   5  -1 -21   27.13    8.50   0
   7  -3 -32  488.51   15.40   0
   8  -4 -33   -4.40    9.93   0
   0  -1 -32 2213.88   26.75   0
   1  -2 -42  519.33   14.28   0
   2  -4 -51   -3.25   10.68   0
   2  -1 -36 1323.50   20.03   0
   3  -2 -43    2.72    8.21   0
   4  -4 -52  318.19   14.09   0
   6  -4 -47    6.69   10.66   0
   1   0 -23   -5.29    6.73   0
   2  -2 -44 1220.64   20.09   0
   2   0 -22 2303.10   25.19   0
   3  -1 -35    0.64    7.43   0
   4  -2 -42  781.66   17.13   0
   4  -1 -31   23.30    7.87   0
   2  -3 -49   -4.95    9.59   0
   3  -4 -53   13.50   10.80   0
   5  -4 -51   10.87    9.76   0
   5  -3 -46  151.85   10.94   0
   5  -2 -38  176.72   10.68   0
   5  -1 -24  959.91   17.77   0
   6  -2 -31    3.00    9.17   0
   7  -4 -43    5.35   10.25   0
   1  -3 -47    0.86    8.32   0
   3  -5 -55   -0.63   10.07   0
   3   0 -18  634.00   14.30   0
   6  -3 -42  331.12   12.68   0
   7  -3 -35   -8.71    9.93   0
   0  -2 -40 1260.30   21.49   0
   1  -1 -37   -2.42    7.63   0
   2   0 -25    6.12    7.39   0
   7  -2 -15   10.60    8.17   0
   8  -4 -36  320.31   13.66   0
   3   0 -21    1.82    7.18   0
   4  -3 -50  405.49   14.32   0
   4  -1 -34  852.77   16.71   0
   8  -3 -22  232.71   12.26   0
   1   0 -26 1407.64   20.23   0
   2  -1 -39    1.61    7.30   0
   3  -3 -51   -0.02    8.82   0
   3  -2 -46  282.89   11.57   0
   3  -1 -38  559.13   13.92   0
   6  -4 -50  268.35   12.99   0
   0  -1 -35    0.45    6.92   0
   4  -2 -45    5.46    9.45   0
   5  -2 -41   -2.14    8.54   0
   7  -4 -46  188.75   12.06   0
   7  -3 -38  299.13   13.62   0
   7  -2 -21    9.02    8.79   0
   8  -3 -25   -0.50   10.46   0
   1  -2 -45    5.87    8.39   0
   2  -2 -47    5.35    8.67   0
   2   0 -28 1391.11   19.99   0
   3   0 -24 2052.18   23.86   0
   4  -4 -55    0.05   10.87   0
   5  -3 -49    2.93    9.43   0
   6  -3 -45    0.08   10.63   0
   8  -4 -39    2.46    9.51   0
   7  -2 -24  816.49   17.33   0
   1  -1 -40 1105.30   18.86   0
   1   0 -29    3.04    7.30   0
   2  -3 -52  624.94   16.38   0
   3  -4 -56  344.43   15.05   0
   4  -1 -37    8.28    8.03   0
   8  -3 -28  346.06   13.93   0
   3  -1 -41   11.61    8.87   0
   3   0 -27    2.95    7.36   0
   2   0 -31   -5.71    7.89   0
   4   0 -14  429.54   12.94   0
   4   0 -11   -1.78    6.80   0
   5  -2 -44  488.88   13.92   0
   6  -4 -53    3.94    9.64   0
   6  -1 -14  609.45   15.44   0
   6  -1 -11   20.58    8.49   0
   7  -2 -27    8.87    9.00   0
  -1  -1 -30  781.36   18.42   0
   0  -2 -43   -0.64    7.30   0
   3  -3 -54  225.50   12.74   0
   4  -2 -48  592.80   16.19   0
   4   0 -17   -0.49    6.15   0
   4   0  -8 1848.60   25.47   0
   5  -1 -33    5.87    8.03   0
   6  -3 -48  344.40   13.65   0
   6  -1 -17    9.32    7.98   0
   8  -3 -31    6.29    9.85   0
   0  -1 -38  380.13   12.82   0
   0   0 -27    1.24    6.32   0
   4  -1 -40  814.21   16.75   0
   4   0 -20 1640.09   22.07   0
   5  -3 -52  356.01   13.29   0
   6  -2 -40  489.57   15.23   0
   6  -1 -20  765.64   16.62   0
   1  -2 -48  602.69   15.37   0
   1   0 -32 2278.40   24.72   0
   2  -2 -50  363.29   13.53   0
   3   0 -30  813.41   15.62   0
   4  -4 -58  197.67   11.99   0
   4   0  -5   -1.38    6.77   0
   7  -2 -30  349.91   13.22   0
   3  -1 -44  594.70   15.39   0
   5  -1 -36  835.41   17.16   0
   6  -1 -23    8.26    8.47   0
   1  -1 -43   -3.96    6.90   0
   2   0 -34  361.77   11.75   0
   5  -2 -47    8.43    8.89   0
   8  -3 -34  308.59   12.90   0
   2  -3 -55   -1.51    9.15   0
   3   0 -33   -3.35    7.98   0
   4  -3 -56  326.24   13.95   0
   6  -1 -26  430.07   13.67   0
   7  -2 -33    6.24    9.44   0
   0   0 -30  175.45    8.97   0
   1   0 -35    4.35    7.58   0
   3  -4 -59    1.37   10.04   0
   4  -2 -51   -7.38    8.78   0
   4  -1 -43   12.43    8.58   0
   6  -3 -51    6.84   10.67   0
   6  -2 -43  -15.18   10.30   0
   3  -3 -57   -0.16    9.59   0
   5  -3 -55   -4.23   10.04   0
   5  -1 -39    9.26    9.77   0
   6  -1 -29   13.73    9.13   0
   8  -3 -37    5.92    9.65   0
  -1  -1 -33   14.23    6.55   0
   0  -1 -41    0.43    7.20   0
   2   0 -37    6.49    7.23   0
   4   0 -29    6.42    7.12   0
   7  -3 -47   12.32   10.37   0
   2  -2 -53   -3.71    9.81   0
   3  -1 -47   -0.01    8.30   0
   3   0 -36  801.03   15.70   0
   5  -2 -50  434.23   14.75   0
   7  -2 -36  334.49   12.94   0
   0   0 -33    1.49    6.63   0
   1  -2 -51    8.72    8.69   0
   1  -1 -46  209.65   11.23   0
   2  -1 -48  619.59   15.34   0
   4   0 -32  734.40   15.84   0
   6  -2 -46  266.36   13.06   0
   6  -1 -32  705.79   16.14   0
   4  -1 -46  178.74   10.79   0
   5  -1 -42  436.92   14.79   0
   2   0 -40 1357.37   19.91   0
   3  -2 -55   16.15   10.40   0
   4  -3 -59   -0.55    9.75   0
   4  -2 -54  100.88   10.90   0
   7  -2 -39   15.67    9.46   0
   3   0 -39   -6.96    7.88   0
   5  -3 -58  286.39   12.75   0
   5   0 -19    1.11    7.71   0
   5   0 -16 1010.93   18.46   0
   6  -1 -35    3.80    9.36   0
   0  -1 -44  689.34   15.89   0
   3  -3 -60  419.02   14.78   0
   3  -1 -50  331.42   13.27   0
   4   0 -35   -9.37    7.80   0
   5  -2 -53    4.15   10.42   0
   5   0 -22  417.31   13.35   0
   5   0 -13    2.06    7.05   0
   3  -3 -27    8.68    8.16   0
   4  -5 -30  516.94   15.91   0
   4   0 -14  433.54   13.61   0
   5  -6 -31    8.75   10.49   0
   6  -1 -17   22.53    9.27   0
   7  -7 -31   -3.81   11.18   0
   8  -7 -30  201.11   14.02   0
   8  -2 -14  232.34   13.33   0
   9  -6 -27    9.31   10.97   0
   9  -5 -25   -4.51   11.14   0
   2   0 -13    2.01    5.90   0
   3  -2 -25   19.62    7.43   0
   4  -3 -29    3.36    9.35   0
   5  -5 -32  756.55   18.54   0
   5  -2 -26  966.12   18.53   0
   6   0  -6  632.45   16.46   0
   7  -6 -32  496.21   16.77   0
   7  -3 -26  310.86   14.31   0
   8  -5 -29    4.70   10.29   0
   9  -3 -15    9.65   11.22   0
   2  -4 -24 2287.07   30.15   0
   3   0 -15   -0.64    6.28   0
   4  -1 -22  489.94   14.07   0
   8  -4 -27  -12.06   11.03   0
   3   1  -4 1461.86   24.56   0
   4  -4 -31   13.78    8.79   0
   4  -2 -27   -1.44    9.06   0
   5  -1 -21   21.93    8.39   0
   6  -6 -33    8.48   11.19   0
   6  -4 -32  622.13   17.27   0
   6  -2 -25   -2.68    9.78   0
   7  -1 -13   11.60    9.34   0
   3  -5 -28  583.70   17.06   0
   5   0 -13   -6.50    8.49   0
   9  -4 -23    8.84   10.83   0
   3  -4 -29    4.89    8.68   0
   4   1  -3    1.73    7.57   0
   5  -3 -31   10.35   10.51   0
   6  -5 -34  438.50   16.03   0
   6  -3 -30  350.02   13.54   0
   7  -5 -33  -12.01   11.71   0
   7  -4 -31   -3.44    9.78   0
   8  -2 -17   -5.71   10.02   0
   2  -3 -25   18.49    7.50   0
   6   0  -9   -6.84    8.52   0
   9  -5 -28  234.18   14.21   0
   9  -3 -18  434.34   15.02   0
   3  -1 -23    4.26    7.14   0
   6  -1 -20  754.48   16.45   0
   8  -7 -33   -5.77   11.58   0
   8  -5 -32  473.85   16.12   0
   8  -3 -25    0.57   11.36   0
   7  -7 -34  323.61   14.76   0
   7  -3 -29   10.53    9.76   0
   7  -1 -16 1025.26   19.80   0
   2  -1 -21   44.45    7.28   0
   5  -2 -29    2.64    9.95   0
   7  -6 -35   17.26   12.07   0
   8  -4 -30  225.71   12.74   0
   3   0 -18  652.52   15.55   0
   3   1  -7   36.09    7.80   0
   4  -5 -33   32.98    9.51   0
   4  -1 -25   -8.89    9.03   0
   5  -5 -35    3.91    9.97   0
   5  -1 -24  959.06   17.99   0
   5   0 -16  992.45   18.87   0
   6  -2 -28  738.06   17.08   0
   2   0 -16 3298.72   32.43   0
   3  -2 -28 1730.01   23.05   0
   4   1  -6  496.81   14.92   0
   6  -4 -35   -4.46   10.92   0
   6   0 -12  569.37   15.86   0
   9  -3 -21   12.68   10.19   0
   4  -2 -30  278.15   11.93   0
   6  -6 -36  454.44   16.54   0
   6  -3 -33   17.15   10.64   0
   7  -4 -34  320.27   13.98   0
   4  -4 -34  389.03   13.38   0
   8  -3 -28  366.41   15.24   0
   9  -2 -13    2.21   10.33   0
   5  -4 -36  532.43   16.31   0
   6  -5 -37   10.37   11.75   0
   7  -3 -32  510.14   16.76   0
   7  -2 -27   -1.21   11.17   0
   7  -1 -19   26.43   10.69   0
   8  -5 -35    7.76   11.40   0
   2  -4 -27   -2.37    7.23   0
   8  -4 -33  -13.59   11.74   0
   8  -1 -12  416.56   15.91   0
   3  -4 -32 1312.96   22.13   0
   3  -1 -26  687.21   15.45   0
   5   0 -19    1.00    8.73   0
   6   0 -15   -1.36    9.30   0
   8  -2 -23    2.96   10.57   0
   9  -4 -29    2.29   11.50   0
   9  -3 -24  388.58   15.02   0
   2  -3 -28 1758.81   25.13   0
   3   1 -10 1327.75   21.58   0
   4   1  -9   50.42    8.57   0
   5  -2 -32 1098.87   19.27   0
   5  -1 -27   11.06    8.36   0
   6  -2 -31   -0.98   10.76   0
   7  -7 -37   -4.16   11.55   0
   7  -6 -38  107.33   12.71   0
   8  -6 -37    1.90   10.73   0
   2  -1 -24 2188.96   26.17   0
   3   0 -21    1.00    7.96   0
   4  -1 -28 1022.35   18.31   0
   5  -6 -37   19.10   10.81   0
   5  -5 -38  384.93   15.09   0
   7  -4 -37   14.15   11.53   0
   7  -1 -22  313.85   14.17   0
   2   0 -19   -3.54    6.19   0
   3  -3 -33    1.85    8.09   0
   3  -2 -31    7.17    7.61   0
   4  -5 -36  514.04   16.13   0
   4  -2 -33  -13.78    8.34   0
   6  -6 -39    0.83   11.64   0
   6  -3 -36  580.91   15.77   0
   8  -3 -31   -4.42   10.26   0
   8  -1 -15    2.89    9.47   0
   5  -3 -37    9.63   10.75   0
   7  -3 -35   14.80   11.16   0
   7  -2 -30  321.49   13.29   0
   8  -5 -38  143.86   13.14   0
   4  -4 -37   -3.50    9.81   0
   4   0 -23    2.21    7.32   0
   4   1 -12 1450.08   22.75   0
   5   0 -22  428.60   14.34   0
   5   1  -8 1127.83   21.01   0
   6  -5 -40  404.82   15.74   0
   6   0 -18  401.26   14.33   0
   8  -4 -36  333.91   14.28   0
   8  -2 -26  412.76   15.45   0
   9  -3 -27   17.54   10.26   0
   9  -2 -19    6.19   10.47   0
   3   1 -13   22.30    7.69   0
   5  -4 -39   -0.09    9.08   0
   5  -1 -30  311.18   13.23   0
   3  -1 -29    8.04    7.59   0
   5  -2 -35    9.73    9.25   0
   6  -2 -34  357.52   13.53   0
   8  -1 -18  396.82   15.70   0
   1  -3 -23    6.34    6.76   0
   2  -2 -29   -2.61    6.52   0
   3   0 -24 2059.56   25.01   0
   4  -1 -31   23.00    9.94   0
   7  -6 -41    1.59   10.67   0
   7  -1 -25   -1.39   10.88   0
   3  -4 -35   21.03    8.98   0
   5   1 -11   27.76    9.64   0
   7  -4 -40  309.72   14.61   0
   7   0 -14  252.98   13.84   0
   8  -3 -34  359.34   14.74   0
   2  -4 -30  281.83   12.54   0
   2  -1 -27    0.62    8.00   0
   4   1 -15    4.54    8.19   0
   6  -3 -39  -11.08   11.66   0
   6   0 -21    6.08    9.56   0
   7  -2 -33   15.50   11.24   0
   8  -2 -29   17.95   10.93   0
   9  -2 -22  151.48   11.45   0
   2  -3 -31    5.94    8.20   0
   2   0 -22 2371.56   26.55   0
   4  -2 -36  598.63   15.57   0
   4   0 -26 1038.36   19.12   0
   5  -5 -41    0.13   10.33   0
   5   0 -25   -5.53    9.07   0
   7  -5 -42  301.82   15.15   0
   3  -3 -36 1255.97   21.38   0
   3   1 -16 2422.66   27.41   0
   5  -3 -40  852.31   18.82   0
   6  -6 -42  341.48   14.82   0
   8  -4 -39    0.29   11.54   0
   8  -1 -21    8.33   10.16   0
   1  -2 -24 1912.16   26.67   0
   4  -5 -39   -0.90   10.03   0
   5  -1 -33   15.00   10.41   0
   6  -5 -43   12.76   11.09   0
   6  -2 -37   11.38   11.11   0
   7  -1 -28  342.34   14.70   0
   3  -1 -32 1656.24   22.99   0
   4  -4 -40  815.30   18.68   0
   5  -2 -38  173.80   13.10   0
   5   1 -14  602.09   15.96   0
   6  -1 -32  682.17   17.28   0
   7   0 -17    8.74    9.89   0
   3   0 -27   -5.07    8.22   0
   4  -1 -34  828.59   17.59   0
   4   1 -18 1031.75   19.20   0
   6   0 -24 1006.74   19.24   0
   8  -3 -37    5.09   10.90   0
   7  -6 -44  302.89   14.47   0
   7  -4 -43   11.39   11.09   0
   7  -2 -36  347.94   14.56   0
   2  -2 -32  786.54   17.20   0
   4   0 -29   -5.77    9.01   0
   6  -3 -42  363.52   15.04   0
   8  -1 -24  433.76   14.88   0
   2  -1 -30  868.78   17.42   0
   2   0 -25    4.99    6.73   0
   4  -3 -41    3.51   10.29   0
   4  -2 -39   -6.03    9.71   0
   5   1 -17   20.44    8.93   0
   7  -5 -45   11.40   12.06   0
   7  -3 -41    4.74   10.78   0
   7   0 -20  344.26   14.50   0
   3  -4 -38  277.81   13.11   0
   5  -1 -36  815.83   18.51   0
   7  -1 -31   20.07   10.87   0
   1  -3 -26  662.58   17.79   0
   2   1 -17   23.70    6.60   0
   5  -5 -44  396.23   15.70   0
   6  -2 -40  510.57   16.40   0
   6  -1 -35    0.54   11.16   0
   6   0 -27   -5.76   10.53   0
   2  -3 -34  843.21   18.30   0
   3  -3 -39    4.47    8.76   0
   4   1 -21   33.98    7.77   0
   5  -2 -41   -8.32   11.14   0
   6  -6 -45    0.45   10.51   0
   6  -5 -46  174.56   14.04   0
   1   0 -20 1629.93   23.35   0
   3  -1 -35   -9.57    8.09   0
   3   0 -30  821.33   16.56   0
   4  -5 -42  340.83   14.65   0
   4  -4 -43    1.25   10.25   0
   4  -1 -37    9.44   10.17   0
   5  -4 -45   34.70   11.25   0
   7  -2 -39  -15.93   11.08   0
   8  -1 -27   -0.99   10.14   0
   1  -2 -27   -0.72    6.79   0
   4   0 -32  728.74   17.22   0
   5   1 -20  739.28   17.38   0
   7   0 -23  -11.02    9.81   0
   6  -3 -45   -6.15   11.50   0
   7  -4 -46  173.38   12.32   0
   7  -3 -44  353.22   15.40   0
   2  -2 -35    7.95    8.28   0
   2   0 -28 1387.71   20.43   0
   2   1 -20 1741.73   23.49   0
   6  -4 -47    7.34   11.29   0
   7  -1 -34  345.87   14.09   0
   2  -1 -33    7.04    8.91   0
   4  -3 -44  561.04   16.58   0
   4  -2 -42  741.72   16.94   0
   4   1 -24  960.21   18.02   0
   5  -1 -39   13.11    9.80   0
   6  -1 -38  308.02   14.67   0
   6   0 -30  298.15   13.17   0
   5   1 -23    0.87    9.50   0
   6  -2 -43  -11.52   10.92   0
   7   0 -26  411.75   15.47   0
   8  -1 -30  117.82   11.47   0
   3  -4 -41    9.73    9.16   0
   3   0 -33    0.31    8.88   0
   5  -5 -47    4.85   11.30   0
   5  -2 -44  469.83   16.16   0
   5   0 -34  462.34   15.36   0
   1   0 -23    2.23    6.31   0
   3  -3 -42  557.23   16.14   0
   3  -1 -38  526.43   14.33   0
   4  -1 -40  780.10   17.11   0
   4   0 -35    1.62   10.14   0
   6   1 -19   20.87    9.88   0
   7  -2 -42  240.02   13.18   0
   2  -3 -37    4.19    8.81   0
   3   2  -5   22.86    8.18   0
   5  -4 -48  504.81   16.35   0
   6  -5 -49    7.95   11.66   0
   7  -1 -37    8.94   10.71   0
   1  -3 -29   14.34    7.31   0
   1   1 -15    8.73    7.08   0
   2   0 -31   -0.31    8.46   0
   2   1 -23    5.01    7.10   0
   3   2  -8 2510.87   31.67   0
   4  -4 -46  305.40   13.91   0
   4   1 -27    1.54    7.92   0
   6  -3 -48  334.96   14.99   0
   6   0 -33   -0.39   11.24   0
   7  -3 -47  -10.61   11.18   0
   1  -2 -30  805.49   17.85   0
   5  -1 -42  456.43   15.80   0
   5   1 -26  439.62   14.74   0
   6  -1 -41   21.42   11.72   0
   7   0 -29    1.09   10.14   0
   8  -1 -33    3.38    9.83   0
   2  -2 -38  424.03   14.13   0
   2  -1 -36 1312.64   21.07   0
   4  -2 -45   -9.35   10.73   0
   6  -4 -50  266.26   14.97   0
   6  -2 -46  225.22   14.03   0
   6   1 -22  287.70   13.76   0
   3   0 -36  842.22   17.95   0
   3   1 -28  966.31   17.77   0
   3   2 -11   21.45    7.44   0
   4  -3 -47   -2.50   10.70   0
   5   0 -37    2.45   10.59   0
   1   0 -26 1430.72   21.21   0
   3  -2 -43   10.14    8.59   0
   4  -1 -43    2.20   10.95   0
   4   0 -38  251.04   13.29   0
   5  -3 -49    1.78   10.08   0
   5  -2 -47  -13.04   11.49   0
   7  -2 -45   -2.68   11.76   0
   1   1 -18 1339.81   21.19   0
   2   1 -26  679.31   15.17   0
   3  -1 -41    6.89    8.74   0
   3   2 -14  486.11   14.63   0
   4   2 -13    4.40    8.79   0
   5   1 -29   30.01   10.28   0
   6   0 -36  347.57   14.43   0
   3  -4 -44  538.02   15.88   0
   5  -5 -50  200.54   13.87   0
   6   1 -25   -0.94   10.08   0
   7   0 -32  543.95   16.23   0
   2   0 -34  376.16   12.39   0
   3  -3 -45   -0.18   10.23   0
   5  -4 -51   -8.75   10.73   0
   6  -3 -51   -2.47   11.89   0
   6  -1 -44  378.37   15.48   0
   2  -3 -40  708.35   17.31   0
   2   2  -9    1.79    6.57   0
   3   1 -31   30.03    8.47   0
   3   2 -17   10.49    7.97   0
   4  -4 -49   -7.13   10.84   0
   4   2 -16 1069.65   20.42   0
   5  -1 -45   12.55    9.68   0
   1  -2 -33   10.91    7.85   0
   2   2 -12  933.49   19.05   0
   3   0 -39    1.77   10.16   0
   5   0 -40  367.48   13.91   0
   6  -4 -53    3.34   11.74   0
   6  -2 -49    9.23   11.21   0
   1   0 -29    5.39    6.84   0
   1   1 -21   45.40    7.38   0
   2  -2 -41    2.89    8.77   0
   2   1 -29   18.17    8.86   0
   4   0 -41   -7.72   10.04   0
   5   1 -32  707.74   17.60   0
   6   1 -28  299.03   13.83   0
   3  -2 -46  298.46   13.66   0
   3  -1 -44  612.80   16.61   0
   3   2 -20  845.04   17.75   0
   4  -3 -50  403.66   15.66   0
   4  -1 -46  193.27   13.69   0
   4   2 -19   -1.60    8.53   0
   5  -3 -52  336.97   14.87   0
   5  -2 -50  424.85   16.08   0
   6   0 -39   18.42   10.06   0
   7   0 -35   11.11   11.30   0
   2   2 -15   -0.04    6.15   0
   1  -1 -34 1285.63   20.84   0
   2   0 -37    4.47    7.97   0
   3   1 -34  790.86   16.89   0
   1   1 -24 2131.35   25.17   0
   2   2 -18 1342.49   21.38   0
   4   2 -22  553.72   15.72   0
   5  -1 -48  324.18   15.33   0
   5   0 -43   -3.91   11.78   0
   6  -1 -47    8.95   10.53   0
   6   1 -31   16.06   10.99   0
   2   1 -32 1700.00   22.98   0
   3  -4 -47    3.83   10.03   0
   3  -3 -48  410.37   15.00   0
   3   0 -42  425.90   15.02   0
   3   2 -23   21.34    8.81   0
   5  -4 -54  181.05   13.11   0
   5   1 -35   10.87   11.00   0
   1   0 -32 2344.62   26.24   0
   2  -3 -43    4.53    8.98   0
   4   0 -44  774.89   18.43   0
   6  -2 -52  300.83   14.82   0
   7   0 -38  111.54   12.38   0
   1  -2 -36 1244.40   20.82   0
   2   2 -21   -1.86    7.73   0
   4  -4 -52  309.71   14.34   0
   4  -1 -49   -6.63   11.73   0
   4   2 -25    1.97    9.15   0
   1  -3 -35    0.36    8.04   0
   2  -2 -44 1216.27   20.43   0
   3  -2 -49  -10.34   10.53   0
   3  -1 -47   -1.67   10.50   0
   3   1 -37    4.94    8.65   0
   3   2 -26  940.15   18.57   0
   5  -2 -53   -7.99   11.63   0
   5   2 -21    1.71    9.41   0
   1   1 -27   -0.08    6.99   0
   2   0 -40 1326.96   20.60   0
   4  -3 -53    0.26   10.55   0
   5  -3 -55   -2.89   11.86   0
   6   1 -34  368.60   14.31   0
   1  -1 -37    5.11    8.38   0
   2   1 -35   -0.15    9.30   0
   4   1 -39   17.01    9.30   0
   5  -1 -51    3.54   11.23   0
   5   0 -46  232.82   13.58   0
   5   1 -38  297.24   14.34   0
   6  -1 -50  224.55   13.87   0
   0   0 -21   -0.91    5.74   0
   3   0 -45    7.82   10.12   0
   4   2 -28  703.31   17.22   0
   5   2 -24  773.22   18.48   0
   1   0 -35  -11.84    7.10   0
   3  -3 -51    5.73   12.02   0
   3   2 -29    3.48    8.78   0
   4   0 -47    5.88   11.19   0
   1   1 -30  859.57   16.63   0
   3   1 -40  813.22   18.14   0
   4  -2 -54   85.91   12.24   0
   6   1 -37    0.85   11.28   0
   0  -1 -26 1335.57   22.61   0
   1  -2 -39    5.77    8.21   0
   2  -3 -46  297.28   13.26   0
   4  -1 -52  451.79   16.64   0
   5   2 -27    3.35    9.95   0
   0   0 -24 5370.56   41.52   0
   2  -2 -47   -4.34    9.68   0
   2   0 -43    8.48    8.55   0
   3  -2 -52  645.07   17.73   0
   4  -4 -55   11.72   10.84   0
   4   1 -42  448.87   14.36   0
   4   2 -31   -5.59    8.51   0
   5   1 -41   11.16   10.06   0
   1  -1 -40 1112.39   19.97   0
   3   2 -32 1048.37   19.71   0
   4  -3 -56  350.69   15.39   0
   5  -3 -58  292.25   14.16   0
   5   0 -49    1.86   11.53   0
   1   0 -38  390.80   13.55   0
   1   1 -33   19.56    8.74   0
   1   2 -19    4.57    6.35   0
   3   0 -48  667.24   17.03   0
   5  -1 -54  161.20   12.35   0
   5   2 -30  353.75   14.45   0
   2   2 -30  294.93   11.75   0
   3   1 -43   -0.38   10.32   0
   4   0 -50  333.00   15.43   0
   4   2 -34  362.74   14.54   0
   6   1 -40  469.72   15.42   0
   0  -1 -29   -1.04    6.81   0
   1   2 -22  545.08   14.04   0
   2  -1 -48  621.73   16.48   0
   2   0 -46  537.50   15.54   0
   2   1 -41   17.55   10.09   0
   3  -3 -54  229.51   13.41   0
   4  -2 -57   -2.42   11.52   0
   4  -1 -55   16.99   11.71   0
   4   1 -45   19.99    9.48   0
   5   1 -44  343.41   13.88   0
   0   1 -19    2.95    6.17   0
   1  -2 -42  508.69   15.10   0
   1   2 -25   12.65    8.40   0
   2   2 -33    6.23    8.86   0
   5   2 -33    4.00   10.24   0
   1   0 -41    3.62    9.30   0
   2  -3 -49    8.16    9.15   0
   2  -2 -50  384.11   14.62   0
   3  -2 -55    8.92   11.94   0
   4   2 -37   -1.95   10.96   0
   5   0 -52  408.10   14.75   0
   0   1 -22  562.15   14.36   0
   1  -1 -43    2.03    7.60   0
   3   0 -51    3.01   10.97   0
   3   1 -46  176.57   12.39   0
   5  -1 -57   -8.43   11.03   0
   6   1 -43    9.97   11.07   0
   0  -1 -32 2250.83   27.77   0
   1   2 -28 1777.40   23.28   0
   4  -3 -59    8.17   10.46   0
   4   0 -53   -3.94   10.30   0
   5   2 -36  345.22   15.69   0
   0   1 -25   -1.40    7.61   0
   2  -1 -51   -3.49   10.59   0
   2   1 -44  616.99   16.54   0
   2   2 -36  616.61   16.18   0
   4   1 -48  315.89   14.90   0
   1   1 -39   -0.11    9.50   0
   2   0 -49    3.69   10.52   0
   3   3 -18  617.09   16.87   0
   3   3 -15    0.94    8.66   0
   4   2 -40  476.88   16.18   0
   0  -2 -31    0.35    7.40   0
   1   2 -31    9.58    8.83   0
   3   3 -21   19.64    8.90   0
   4  -1 -58  304.26   14.18   0
   0   1 -28 1691.47   22.59   0
   1  -2 -45    1.44    9.01   0
   3  -3 -57    8.73   11.00   0
   3   1 -49  -14.07   11.39   0
   4  -2 -60  295.84   14.92   0
   5   0 -55    3.56    9.92   0
   5   2 -39   15.32   10.91   0
   1  -1 -46  212.52   11.27   0
   2  -2 -53    0.47    9.83   0
   2   2 -39    3.20   10.05   0
   3   0 -54  261.95   13.98   0
   3   3 -24  895.44   18.72   0
   0  -1 -35    0.66    6.42   0
   2   1 -47    4.97   10.67   0
   2   3 -19   21.09    8.41   0
   2   3 -16 2273.27   28.33   0
   2   3 -13   -1.09    8.05   0
   3  -2 -58  275.98   14.44   0
   4   0 -56  206.36   14.01   0
   4   1 -51    9.15   11.06   0
   0   1 -31   -1.65    7.76   0
   1   1 -42  517.26   15.49   0
   1   2 -34  883.34   17.14   0
   2   3 -22  470.14   13.54   0
   3   3 -27    4.09    9.35   0
   4   2 -43  -14.46   11.16   0
   2  -1 -54  274.67   14.30   0
   2   0 -52  337.03   13.46   0
   2   3 -25   -3.00    8.82   0
   3   2 -44  491.42   16.06   0
   4   3 -26  274.51   13.43   0
   0  -2 -34  349.10   13.46   0
   2   2 -42  763.47   17.46   0
   2   3 -10  853.99   19.43   0
   3   3 -30  363.57   14.10   0
   5   2 -42  209.08   13.55   0
   1  -2 -48  619.31   16.82   0
   1   2 -37    7.62    9.64   0
   2   3 -28  624.64   16.19   0
   3  -1 -59    2.09   10.71   0
   3   1 -52  496.93   15.56   0
   4   3 -29    7.48   10.09   0
   0  -1 -38  382.51   12.58   0
   0   1 -34 1348.78   20.25   0
   1  -1 -49    1.94    9.83   0
   2   1 -50  339.06   14.80   0
   3   0 -57    8.04   10.97   0
   4   2 -46  234.06   13.58   0
   0   0 -39   -1.65    8.44   0
   0   2 -23    8.48    7.75   0
   0   2 -20 4033.21   34.87   0
   0   2 -17   -4.19    6.16   0
   1   1 -45   -6.10    8.62   0
   2  -2 -56  225.74   12.80   0
   2   3 -31    2.57    9.43   0
   3   3 -33   15.44    9.03   0
   4   0 -59    4.20   10.86   0
   4   1 -54  137.84   12.15   0
   4   3 -32  531.23   17.14   0
   0   2 -14  386.95   13.47   0
   2   2 -45   -7.32   10.63   0
   2   3  -7   21.80    8.05   0
   3  -2 -61    5.49   10.46   0
   3   2 -47    2.62   11.30   0
   5   2 -45    9.57   10.16   0
   0  -2 -37   -1.98    8.19   0
   0   1 -37    4.70    8.40   0
   0   2 -26 1531.90   21.58   0
   1   2 -40  699.10   15.96   0
   2  -1 -57    1.19   10.98   0
   3   3 -36  591.67   16.74   0
   0   2 -29   -4.10    8.33   0
   1   3 -23   40.26    7.73   0
   1   3 -17   -4.48    6.45   0
   2   3 -34  706.41   16.24   0
   3   1 -55   -3.25   11.11   0
   4   3 -35   -2.45    9.99   0
   0  -1 -41    2.79    8.37   0
   1   1 -48  658.47   17.14   0
   1   3 -14  845.90   18.20   0
   2   1 -53   -0.84   11.29   0
   4   2 -49   -2.75   11.24   0
   0   0 -42 1283.81   21.02   0
   1  -2 -51    4.33    9.65   0
   1  -1 -52  639.11   16.86   0
   3  -1 -62  140.78   12.39   0
   3   0 -60  255.34   13.97   0
   3   2 -50  427.78   15.74   0
   4   1 -57    0.21   10.85   0
   0   2 -32  804.05   16.34   0
   1   2 -43   -3.03    8.76   0
   2   2 -48  614.45   15.88   0
   3   3 -39   -1.22    8.87   0
   4   3 -38  295.88   13.89   0
   1   3 -11   72.88    8.41   0
   2  -2 -59  -11.87   10.68   0
   0  -2 -40 1311.18   22.79   0
   0   2 -35   10.41    9.20   0
   1   0 -53   -1.14    9.70   0
   0  -1 -44  691.01   16.85   0
   1   1 -51    9.18   10.30   0
   1   3 -35   20.77    9.67   0
   2  -1 -60  381.90   14.89   0
   3   1 -58  280.36   13.68   0
   3   3 -42  335.06   14.67   0
   4   3 -41   26.90   10.88   0
   0   0 -45    8.25    7.67   0
   0   1 -43   -9.34    9.50   0
   1   2 -46  285.94   12.71   0
   2   1 -56  471.81   15.42   0
   2   2 -51   -7.22   11.07   0
   3   2 -53    4.00   11.18   0
   0   2 -38  417.31   13.89   0
   1  -1 -55   -2.97   10.30   0
   1  -2 -54  274.24   13.57   0
   1   3 -38  294.04   13.24   0
   1   3  -8 2947.51   35.15   0
   3   3 -45    3.01   11.14   0
   4   3 -44  319.79   13.85   0
   0  -1 -47    3.92    8.84   0
   0   0 -48  850.54   18.31   0
   0   2 -41    6.58    9.24   0
   1   0 -56  505.89   16.36   0
   1   1 -54  268.00   13.93   0
   1   2 -49    2.28    9.08   0
   2  -2 -62  201.44   13.96   0
   2   0 -61    2.61    9.93   0
   3   1 -61    4.36   10.89   0
  -1   0 -25    1.71    6.66   0
   0   3 -27   -0.61    8.27   0
   0   3 -24 1340.70   20.89   0
   1   3 -41    7.55    8.77   0
   2   1 -59    7.12   10.85   0
   2   2 -54  109.90   11.49   0
   3   2 -56  279.14   13.98   0
  -1   0 -28 1594.42   23.59   0
  -1   0 -22  496.26   14.37   0
  -1   1 -26 1423.76   21.68   0
  -1   1 -23   -3.61    7.17   0
   0   3 -30  449.63   13.94   0
   2  -1 -63    7.20   11.03   0
   3   3 -48  345.71   14.20   0
  -1   1 -29    4.25    7.63   0
   1  -1 -58  399.19   15.07   0
   4   3 -47    0.85   10.78   0
  -1   0 -31    1.05    6.15   0
   0   3 -33    3.48    7.80   0
   1   2 -52  647.75   17.43   0
   1   3 -44  525.26   15.78   0
   2   4 -26  569.18   15.91   0
   2   4 -23   -3.81    8.81   0
   0  -1 -50  599.84   16.44   0
   0   0 -51    0.20    9.81   0
   1   0 -59  -10.87   11.00   0
   2   3 -49    5.86   10.81   0
   2   4 -29    0.33    9.34   0
   2   4 -20  967.39   20.14   0
  -1   0 -34 1289.69   20.60   0
   0   3 -36 1244.63   19.70   0
   0   3 -15    2.49    5.91   0
   2   0 -64  377.16   15.20   0
   2   2 -57   12.52   10.45   0
   2   4 -32  602.17   16.86   0
   3   3 -51  -13.22   10.78   0
   3   4 -31   -3.66    9.77   0
   0   2 -47    5.49   10.36   0
   1   3 -47    5.90   10.74   0
   2   1 -62  144.50   11.69   0
   2   4 -35   -3.54   10.27   0
   3   4 -34  337.74   13.83   0
  -1   0 -37    0.01    7.92   0
  -1   2 -27    0.42    7.86   0
  -1   2 -24 2214.96   26.00   0
   0   3 -39   12.78    8.49   0
   1   2 -55   23.90   11.56   0
   1   4 -27   13.56    9.20   0
  -1  -1 -30  838.81   19.16   0
  -1  -1 -27    0.15    6.48   0
  -1   2 -30  862.48   16.58   0
   1   4 -30  511.27   15.37   0
   1   4 -24 1299.30   21.46   0
   2   3 -52  325.70   14.16   0
   2   4 -38  244.11   13.66   0
   3   4 -37   13.88   10.03   0
  -1   2 -33   18.13    7.74   0
  -1   2 -21   44.82    7.42   0
   0   0 -54   77.78   11.40   0
   0   3 -42  565.65   15.58   0
   0   3 -12 2765.15   31.21   0
   1  -1 -61    0.44   10.64   0
   1   4 -33   16.83   10.03   0
   1   4 -21   18.85    8.38   0
  -1  -1 -33   13.41    7.19   0
  -1   0 -40 1115.50   20.05   0
   0  -1 -53   -7.79    9.57   0
   0   2 -50  370.86   13.53   0
   1   0 -62  121.74   12.48   0
   1   3 -50  399.59   15.60   0
   2   2 -60  297.01   13.39   0
   3   4 -40  328.22   13.92   0
  -1   2 -18 1328.38   20.92   0
   1   4 -18  513.09   14.99   0
   2   4 -41   -1.72   10.00   0
  -1  -1 -36 1302.41   22.71   0
  -1   2 -39    3.53    9.30   0
   0   1 -55   -1.84   10.96   0
   0   3 -45    9.79    9.99   0
   1   2 -58  249.61   13.79   0
   1   4 -39    2.35    9.70   0
   2   3 -55   -9.89   10.99   0
  -1   0 -43   -2.65    8.58   0
   2   4 -44  458.36   15.32   0
   3   4 -43   -0.64   11.04   0
  -1   1 -44  698.82   15.87   0
   0   2 -53    4.43    9.33   0
   1   3 -53   18.19   10.32   0
   1   4 -15   40.97    8.43   0
  -1  -1 -39    2.53    7.58   0
  -1   2 -42  500.89   14.12   0
  -1   2 -15    4.49    6.14   0
   0   0 -57    2.29    8.93   0
   0   3 -48  351.36   14.15   0
   1  -1 -64  219.86   13.41   0
   1   1 -63   -7.09   10.84   0
  -1   3 -31   14.70    8.94   0
  -1   3 -28 1805.81   22.62   0
   0  -1 -56  462.74   15.54   0
   0   3  -9   -0.40    6.30   0
   0   4 -28  823.57   16.58   0
   0   4 -25   -6.19    8.39   0
   1   0 -65    0.77   10.89   0
   2   4 -47   -0.22   10.43   0
   3   4 -46  165.26   12.73   0
  -1   0 -46  208.14   11.87   0
  -1   1 -47    6.68    9.40   0
  -1   3 -34  901.34   17.08   0
  -1   3 -25   11.07    7.44   0
   0   1 -58  421.87   15.18   0
   0   4 -22  941.34   18.19   0
   1   2 -61  -10.89   10.53   0
   2   3 -58  293.69   12.97   0
  -1  -1 -42  521.37   15.81   0
  -1   2 -45    5.39    8.67   0
  -1   3 -37   10.42    9.42   0
  -1   3 -22  573.08   14.10   0
   0   2 -56  242.61   13.16   0
   0   4 -37    1.64    8.47   0
   1   3 -56  365.34   14.22   0
   0   3 -51   -5.64    9.78   0
   0   4 -40  836.92   17.85   0
   1   4 -12 1108.28   21.25   0
   2   4 -50  231.28   13.91   0
  -1   3 -40  705.52   15.91   0
   0   0 -60  445.58   15.05   0
   0   4 -19   -1.89    6.65   0
  -1   0 -49    6.64    8.87   0
  -1   1 -50  556.30   14.97   0
  -1   2 -48  614.90   15.35   0
  -1   3 -19    6.50    6.63   0
   0   4 -43   11.14   10.19   0
  -1  -1 -45    3.00    8.08   0
  -1   3 -43   -1.68    8.77   0
   0   1 -61   11.68   10.41   0
   0   2 -59    6.88   11.02   0
   0   3 -54  217.32   13.33   0
   1   3 -59   -5.12   10.67   0
   0   4 -16 1947.48   25.38   0
   2   4 -53   -5.59    9.97   0
  -1   3 -46  283.28   13.06   0
  -1   3 -16 2268.87   26.58   0
   0   4 -46  312.27   12.66   0
  -1   0 -52  629.50   16.39   0
  -1   1 -53   -3.28    8.95   0
   0   0 -63    5.89   10.72   0
   0   3 -57    0.73   10.58   0
   0   4 -49  -10.93   10.42   0
   1   4 -54  149.09   12.29   0
  -1   4 -32 1317.70   19.90   0
   2   2 -21   -5.69    7.23   0
   4   3 -20  749.28   17.69   0
   5   1 -32  720.97   16.76   0
   5   2 -27   11.01   10.97   0
   5   3 -19   -0.81   11.02   0
   6   3 -15   16.42   10.58   0
   7  -2 -39   -5.40   11.42   0
   7  -1 -37  -12.72   10.67   0
   3   4  -7    9.57    8.36   0
   6  -3 -39   -3.35   11.03   0
   6   0 -36  310.77   14.75   0
   7   2 -22  161.48   12.86   0
   1   1 -18 1358.25   21.66   0
   1   3  -8 3076.17   32.87   0
   2   3 -16 2255.58   26.56   0
   3  -1 -32 1616.98   23.28   0
   3   2 -26  939.80   18.59   0
   5  -3 -37    5.77   10.08   0
   5  -2 -38  158.32   11.23   0
   7   0 -35  -11.73   10.75   0
   7   1 -30  133.22   11.53   0
   3  -2 -31    2.44    6.83   0
   4   0 -35    2.11    8.72   0
   6  -2 -40  501.43   16.92   0
   2   1 -26  695.06   15.33   0
   4  -2 -36  600.52   16.42   0
   4   1 -33    9.02    9.08   0
   5   0 -37   14.11   11.31   0
   6   3 -18  397.83   14.70   0
   1   2 -16 2273.29   26.60   0
   2  -1 -27    0.22    7.31   0
   2   4  -5   -2.51    8.02   0
   3   1 -31   29.34    9.92   0
   3   3 -21   17.50    8.20   0
   3   4 -10  565.79   15.89   0
   5   3 -22  250.27   13.76   0
   6   1 -34  368.41   14.85   0
   7  -3 -41    7.07   11.13   0
   2   0 -28 1388.34   20.91   0
   2   2 -24 2323.92   26.43   0
   3   0 -33    8.60    8.08   0
   4  -1 -37   10.63    8.55   0
   4   3 -23    0.48   10.50   0
   5   1 -35    7.06   11.19   0
   5   2 -30  344.80   15.04   0
   1   0 -20 1683.54   24.24   0
   4  -3 -35   17.32    9.13   0
   4   4 -12  452.84   15.02   0
   7   1 -33   -9.01   11.60   0
   1   3 -11   75.72    7.65   0
   2   3 -19   19.81    8.64   0
   6   0 -39   -5.14   11.33   0
   6   3 -21   18.61   12.16   0
   7  -2 -42  227.51   13.77   0
   2   4  -8 1142.37   20.82   0
   3   2 -29    0.23    8.36   0
   3   4 -13   28.62    9.49   0
   4   2 -31  -15.49    9.38   0
   7   0 -38  118.24   11.57   0
   1   1 -21   45.29    8.34   0
   3  -3 -30  447.51   15.33   0
   4   0 -38  253.45   13.51   0
   5  -2 -41   -4.10   10.87   0
   5   3 -25   -1.30   10.94   0
   6  -3 -42  322.00   16.40   0
   1   2 -19    1.97    7.24   0
   2  -2 -26 1490.68   24.29   0
   2   1 -29   12.55    8.69   0
   3  -1 -35    2.88    8.94   0
   4   1 -36  830.65   17.63   0
   4   3 -26  296.48   13.84   0
   4   4 -15   -5.42    9.59   0
   5  -3 -40  819.83   19.52   0
   5   0 -40  397.83   15.35   0
   2   4 -11    6.12    8.22   0
   3   1 -34  824.85   17.51   0
   5   2 -33   -6.69   11.53   0
   6  -2 -43   -4.43   10.72   0
   6   1 -37    5.50   10.63   0
   1   3 -14  813.82   16.82   0
   2   2 -27    5.03    7.72   0
   3  -2 -34  856.11   18.42   0
   3   0 -36  779.60   17.45   0
   3   4 -16  688.63   16.91   0
   4  -2 -39    5.52    9.48   0
   5  -1 -42  421.90   15.70   0
   5   1 -38  293.32   15.17   0
   6   3 -24  396.43   14.57   0
   2  -1 -30  796.00   17.46   0
   2   0 -31    5.50    7.99   0
   4  -1 -40  774.67   18.11   0
   7  -3 -44  320.25   15.51   0
   3   2 -32 1065.32   19.01   0
   4   2 -34  336.70   13.60   0
   4   4 -18  347.58   13.89   0
   5   3 -28  378.64   15.50   0
   6   0 -42  304.06   14.53   0
   1   0 -23   -1.26    6.22   0
   2   4 -14  479.24   14.53   0
   6  -1 -44  344.82   14.47   0
   7  -2 -45   12.63   10.89   0
   3   4 -19   -6.19    9.75   0
   4  -3 -38  297.66   14.25   0
   1   1 -24 2140.06   25.39   0
   1   2 -22  571.86   14.30   0
   4   0 -41    4.95    9.31   0
   4   1 -39    5.78    9.65   0
   5   0 -43    7.92   11.80   0
   5   2 -36  346.99   15.25   0
   6   1 -40  483.47   16.09   0
   6   2 -35   21.15   10.88   0
   6   3 -27   10.30   10.26   0
   1   4  -3   54.45    8.55   0
   2   2 -30  314.59   12.68   0
   3  -1 -38  533.43   15.65   0
   3   1 -37   -5.28    9.72   0
   4   4 -21   11.34   10.06   0
   5  -2 -44  475.74   16.57   0
   5   1 -41    9.48   12.18   0
   6  -3 -45   17.38   12.59   0
   2   4 -17   -1.95    8.81   0
   6  -2 -46  250.58   14.38   0
   1   4  -6 1055.66   20.71   0
   2  -2 -29   -1.14    7.07   0
   3   0 -39   -0.31    9.59   0
   3   2 -35   17.95   10.66   0
   4   2 -37    7.49    9.76   0
   5  -3 -43    2.68   10.53   0
   5  -1 -45   -2.55   11.67   0
   5   3 -31    0.79   11.95   0
   2   0 -34  371.96   13.39   0
   3  -3 -33    2.79    7.59   0
   3  -2 -37    2.26    8.64   0
   3   4 -22  345.49   14.06   0
   4  -2 -42  739.26   18.15   0
   4  -1 -43   22.83   10.84   0
   6   0 -45  -10.02   11.40   0
   7  -3 -47   -0.78   12.77   0
   1   4  -9    3.31    7.48   0
   2  -1 -33   10.73    8.73   0
   4   4 -24  575.04   16.71   0
   6  -1 -47    5.67   11.42   0
   1   0 -26 1393.67   21.41   0
   1   1 -27    0.80    8.15   0
   1   2 -25   27.17    7.59   0
   2   4 -20  961.06   19.04   0
   4   1 -42  417.99   15.72   0
   5   2 -39   12.45   11.77   0
   5   4 -23    7.43   11.38   0
   6   1 -43    6.24   11.75   0
   2   1 -35   15.16    9.08   0
   2   2 -33   -2.68    9.86   0
   1   4 -12 1185.99   21.11   0
   3   1 -40  788.61   18.27   0
   3   3 -33    6.80   11.03   0
   3   4 -25   11.72   10.36   0
   5   1 -44  360.38   15.27   0
   5   3 -34  316.96   14.32   0
   3   2 -38  182.48   12.49   0
   4  -3 -41    7.48   10.38   0
   4   2 -40  509.74   16.90   0
   5  -2 -47   12.35   11.42   0
   1   3 -23   35.01    8.15   0
   3  -1 -41    3.41    8.26   0
   4   4 -27    1.70   10.78   0
   6  -2 -49    7.77   11.31   0
   1   2 -28 1769.82   23.66   0
   1   4 -15   38.51    8.73   0
   2   4 -23   -3.49    8.03   0
   5  -1 -48  291.32   14.45   0
   5   4 -26  340.67   14.66   0
   0   2 -14  386.05   12.90   0
   1  -1 -25    0.87    6.74   0
   2   3 -31   12.17    8.68   0
   4  -1 -46  166.46   13.22   0
   5   2 -42  243.24   14.31   0
   1   1 -30  859.01   16.95   0
   2  -2 -32  833.30   18.83   0
   2  -1 -36 1332.13   22.00   0
   3  -2 -40  730.24   17.84   0
   3   4 -28  654.01   16.40   0
   4  -2 -45   -2.15   10.55   0
   4   1 -45    4.81   11.46   0
   6  -1 -50  201.94   13.39   0
   0   3  -9    0.68    6.46   0
   1   3 -26  874.11   17.75   0
   2   1 -38  553.82   14.93   0
   4   4 -30  213.04   14.04   0
   1   4 -18  509.17   14.23   0
   3   1 -43    6.50    9.62   0
   3   2 -41  -21.50   11.17   0
   4   2 -43   14.38   11.56   0
   4   3 -38  299.79   13.87   0
   5   1 -47    7.93   11.91   0
   5   4 -29    2.03    9.99   0
   0   2 -17    5.53    7.36   0
   0   3 -12 2739.08   30.77   0
   1   2 -31   -2.98    7.77   0
   2   3 -34  717.17   16.53   0
   3   4 -31   -4.34   10.67   0
   1   4 -21   16.95    8.44   0
   3  -1 -44  571.14   15.75   0
   5  -2 -50  412.68   15.97   0
   5  -1 -51   13.12   12.48   0
   5   2 -45    9.92   11.40   0
   6  -2 -52  310.08   15.92   0
   1   1 -33    8.33    8.62   0
   1   3 -29    1.88    9.50   0
   2   2 -39    3.65   10.56   0
   2   4 -29   -6.76    9.74   0
   2   5 -15    7.38    9.19   0
   3   3 -39   -0.85   11.68   0
   4   4 -33    1.72   11.00   0
   0   1 -19    1.62    6.30   0
   0   2 -20 4197.07   36.28   0
   1  -1 -28 1647.10   24.79   0
   2   1 -41    1.01   10.71   0
   4  -1 -49   -3.54   11.51   0
   4   1 -48  319.90   14.26   0
   4   3 -41   15.77   11.16   0
   2  -1 -39    3.55    9.00   0
   3   1 -46  179.91   13.31   0
   3   2 -44  497.66   16.82   0
   4  -2 -48  642.22   17.99   0
   4   2 -46  223.32   14.42   0
   1   4 -24 1295.04   21.58   0
   2  -2 -35   -3.84    8.30   0
   2   3 -37   -3.98   10.27   0
   3  -2 -43   -2.78    9.45   0
   3   4 -34  328.34   15.12   0
   5   1 -50  183.82   12.92   0
   1   2 -34  854.00   17.22   0
   3   5 -23    4.77    9.78   0
   1   3 -32 1332.03   21.14   0
   2   5 -21    7.15    9.62   0
   4   4 -36  305.37   14.21   0
   0   1 -22  541.69   14.47   0
   0   2 -23   -3.48    6.88   0
   1   1 -36 1356.80   21.61   0
   2   2 -42  749.28   17.93   0
   3  -1 -47    0.47   10.49   0
   3   0 -48  676.23   18.04   0
   3   3 -42  311.41   15.37   0
   0   3 -21   -0.09    6.89   0
   1   4 -27   17.28    8.42   0
   2   0 -43    6.39    8.60   0
   3   5 -26  360.59   15.31   0
   4   3 -44  322.54   15.24   0
   5  -2 -53   -9.11   12.75   0
   5  -1 -54  162.10   13.86   0
   2   1 -44  616.90   17.04   0
   2   3 -40  839.54   18.84   0
   2   5 -24  599.45   17.53   0
   3   4 -37   16.33   11.86   0
   4   1 -51   10.02   10.98   0
   4   2 -49   13.69   12.07   0
   0   4 -10  514.93   15.35   0
   0   4  -7   -0.92    6.73   0
   1  -1 -31   -3.30    6.40   0
   1   2 -37   -6.79   10.09   0
   1   5 -13   28.93    8.86   0
   3   1 -49   -0.81   11.49   0
   3   2 -47    0.29    9.87   0
   4  -1 -52  438.85   16.70   0
   0   1 -25    2.16    7.86   0
   0   2 -26 1554.18   21.94   0
   0   3 -24 1353.11   21.32   0
   0   4 -13    6.31    7.72   0
   1   3 -35   16.03   10.38   0
   1   5 -16  901.24   19.15   0
   2  -1 -42  519.07   15.93   0
   4   0 -53    3.63   11.54   0
   4   4 -39   -7.40   11.55   0
   0   4 -16 1941.16   25.96   0
   2  -2 -38  437.82   14.89   0
   3  -2 -46  299.76   14.19   0
   3   3 -45   -1.26   12.06   0
   3   5 -29   -2.36   10.34   0
   4  -2 -51    0.51   10.45   0
   1   1 -39    2.95    9.15   0
   1   5 -19   -2.60    8.74   0
   2   2 -45    3.96   10.78   0
   2   5 -27   10.40   10.58   0
   3   0 -51    0.53   11.29   0
   3   4 -40  324.64   14.14   0
   4   3 -47    8.78   10.41   0
   0   0 -21   -2.09    5.93   0
   0   2 -29    1.40    8.14   0
   0   3 -27   -7.21    8.92   0
   0   4 -19   -3.73    6.97   0
   1   0 -38  366.68   13.85   0
   1   5 -22  359.24   14.08   0
   2   0 -46  517.01   15.21   0
   2   1 -47  -10.67   11.07   0
   2   3 -43    5.43    9.79   0
   3  -1 -50  353.29   15.00   0
   4   1 -54  147.99   13.27   0
   0   1 -28 1736.58   23.42   0
   1  -1 -34 1339.01   22.28   0
   1   2 -40  689.21   16.33   0
   1   3 -38  280.40   12.60   0
   2   5 -30  179.23   13.07   0
   3   2 -50  425.71   15.31   0
   3   5 -32  461.17   16.34   0
   4   2 -52  288.00   15.26   0
   0   4 -22  961.83   18.93   0
   3   1 -52  432.78   15.74   0
   4  -1 -55   10.01   12.00   0
   1   5 -25   15.25    9.98   0
   2  -1 -45    7.41    9.52   0
   3   3 -48  339.79   15.24   0
   4   0 -56  201.48   14.36   0
   0   3 -30  445.59   13.50   0
   1   1 -42  534.97   15.52   0
   2   2 -48  643.27   17.98   0
   0   2 -32  792.79   16.53   0
   2  -2 -41    0.54    8.48   0
   2   3 -46  130.59   12.82   0
   2   5 -33   -2.80   10.42   0
   3   5 -35    9.74   11.49   0
   0   1 -31    3.97    7.28   0
   1   0 -41   -5.77    9.27   0
   1   2 -43   15.84    9.22   0
   1   3 -41   11.01    9.28   0
   2   0 -49    0.42   11.00   0
   3  -2 -49    0.33   10.06   0
   3   0 -54  242.06   14.69   0
   3   2 -53   -8.47   11.44   0
   0   3 -33   -3.22    8.26   0
   1  -1 -37   -8.26    8.46   0
   3  -1 -53   -3.38   11.70   0
   0   2 -35   -0.94    7.93   0
   1   4 -39    1.09   10.77   0
   1   5 -31   -0.59   11.04   0
   2   4 -44  449.92   16.61   0
   2   5 -36  541.07   16.81   0
   3   3 -51   15.58   11.85   0
   0   1 -34 1342.06   21.18   0
   2  -1 -48  653.18   17.71   0
   2   2 -51   -4.11   11.82   0
   4  -1 -58  297.82   16.29   0
   0   5 -17   -1.56    8.34   0
   0   5 -14  815.23   18.50   0
   0   5 -11   -4.13    8.47   0
   1   3 -44  502.37   15.31   0
   2   3 -49    2.34   10.68   0
   4   0 -59    4.63   11.00   0
   0   3 -36 1251.35   20.32   0
   0   5 -20  977.67   19.60   0
   1   0 -44  702.45   17.45   0
   1  -2 -30  806.62   19.83   0
   1   5 -34  394.32   14.01   0
   2  -2 -44 1280.53   23.39   0
   2   0 -52  364.91   15.59   0
   2   5 -39   12.65   10.93   0
   3   2 -56  273.93   14.49   0
   0   2 -38  403.53   13.30   0
   0   5 -23   -8.45    9.33   0
   1  -1 -40 1153.44   21.22   0
   1   4 -42  371.29   13.63   0
   2   4 -47   -3.14   11.68   0
   3   0 -57    1.56   10.88   0
   0   1 -37    2.10    7.97   0
   3  -1 -56  477.36   17.27   0
   3   1 -58  292.98   14.64   0
   0   3 -39    1.60   10.42   0
   0   5 -26  384.35   13.37   0
   1   3 -47    2.85    9.97   0
   1   5 -37   18.24   11.20   0
   2   2 -54  102.40   12.91   0
   2   3 -52  343.43   15.40   0
   0   0 -33   -1.45    8.02   0
   1   2 -49  -11.38    9.76   0
   2   5 -42  312.85   14.43   0
  -1   3 -19    3.17    7.77   0
  -1   3 -16 2309.08   27.80   0
   0   2 -41    0.28   10.30   0
   0   4 -37    1.17    9.07   0
   0   5 -29   -8.24    9.95   0
   1   4 -45   13.55   11.54   0
   2  -1 -51    4.29   10.66   0
  -1   3 -22  581.73   15.40   0
   1  -2 -33   10.81    8.15   0
   1   0 -47    0.07    8.46   0
   2   1 -56  473.68   16.99   0
   2   4 -50  243.42   14.41   0
  -1   2 -21   42.09    8.72   0
  -1   2 -18 1320.48   21.63   0
  -1   2 -15    4.40    6.56   0
   0   3 -42  529.63   16.10   0
   1  -1 -43    1.76    9.19   0
   1   5 -40  395.77   15.42   0
   2   0 -55   -4.66   11.09   0
  -1   3 -25   22.48    7.85   0
   0   5 -32  740.62   17.15   0
   1   3 -50  445.26   16.82   0
   3   0 -60  276.59   14.39   0
  -1   2 -24 2146.05   26.00   0
  -1   4 -20 1087.89   19.98   0
  -1   4 -17    0.24    7.76   0
   0   0 -36  786.31   17.11   0
   0   4 -40  799.82   17.77   0
   1   2 -52  623.13   18.26   0
   1   6 -29   -0.03   10.03   0
   2   2 -57   -6.23   11.65   0
   2   3 -55   -4.58   11.98   0
   2   5 -45   -5.11   10.44   0
   3   1 -61    8.99   11.17   0
  -1   3 -28 1767.04   23.45   0
  -1   4 -14  822.42   17.60   0
   0   2 -44 1288.31   21.16   0
   0   5 -35   -0.75   10.91   0
   1   4 -48  500.58   17.23   0
   3  -1 -59    3.08   11.86   0
  -1   2 -27   -4.61    7.43   0
   1   5 -43   -8.61   11.29   0
   1   6 -32  477.85   17.27   0
  -1   3 -31    1.38    9.42   0
  -1   4 -11   59.79    7.68   0
   0   3 -45    4.77    9.57   0
   1  -2 -36 1301.46   23.99   0
   1   0 -50  557.14   15.98   0
   2  -1 -54  298.02   14.48   0
   2   4 -53  -14.14   12.46   0
   2   6 -37    9.14   12.13   0
  -1   2 -30  835.20   17.20   0
  -1   4 -29   11.56    9.51   0
   0   0 -39   -1.56    8.89   0
   0   4 -43    3.87    9.82   0
   1   3 -53    0.91   11.89   0
   2   1 -59   -6.20   11.66   0
   0  -1 -26 1364.64   24.01   0
   0   2 -47    6.86   11.19   0
   0   5 -38  399.37   14.37   0
   1  -1 -46  207.90   12.77   0
   1   6 -35   10.56   11.03   0
   2   0 -58  211.59   13.67   0
  -1   3 -34  850.08   17.34   0
  -1   4 -32 1315.97   21.44   0
  -1   4  -8 2978.02   34.77   0
   0   6 -24  711.33   18.30   0
   0   6 -21    4.42    9.26   0
   1   1 -54  283.44   13.42   0
   1   2 -55   -2.21   11.71   0
   1   4 -51    5.47   10.97   0
   1   5 -46  168.13   13.29   0
   2   3 -58  303.25   13.84   0
  -1   1 -20 1696.40   25.21   0
  -1   2 -33   15.69    8.04   0
   0   3 -48  396.37   15.34   0
   0   6 -27   -6.42   10.35   0
  -1   1 -23   -0.33    6.67   0
  -1   5 -24 1337.48   22.31   0
  -1   5 -21    8.03    9.22   0
  -1   5 -18  523.33   15.52   0
   0  -1 -29   -5.37    7.13   0
   0   4 -46  304.43   13.75   0
   1   6 -38  130.72   12.95   0
  -1   1 -26 1420.49   22.03   0
  -1   3 -37    4.25    8.85   0
  -1   4 -35   12.59    9.24   0
  -1   5 -27   17.18    9.85   0
  -1   5 -15   37.26    8.92   0
   0   0 -42 1338.71   22.44   0
   0   6 -30  199.32   12.71   0
   1  -2 -39    4.19    8.63   0
   1   0 -53   15.18   11.27   0
  -1   2 -36 1326.91   20.79   0
   0   2 -50  393.75   15.73   0
   1   3 -56  341.46   15.03   0
   2  -1 -57    0.65   10.68   0
  -1   1 -29   -2.13    7.21   0
  -1   5 -30  521.14   15.94   0
   0  -1 -32 2261.06   29.34   0
   0   6 -33    0.64   10.41   0
   1  -1 -49    6.08    9.84   0
   1   4 -54  176.71   12.83   0
   1   6 -41   10.88   12.37   0
   2   1 -62  142.98   13.73   0
  -1   3 -40  701.27   17.57   0
  -1   4 -38  309.07   12.96   0
  -1   5 -12 1134.52   21.77   0
   0   1 -49   -2.38   10.65   0
   0   3 -51   -2.00   12.44   0
   0   4 -49   -2.67   12.35   0
   1   1 -57   -8.97   11.41   0
   2   0 -61   -3.68   11.30   0
  -1   1 -32 2333.85   27.16   0
  -1   2 -39    9.70    9.98   0
  -1   5 -33   20.76    9.09   0
   0   6 -36  473.94   16.63   0
   0  -1 -35    2.93    8.05   0
   0   0 -45    0.57   10.03   0
  -1   3 -43   14.41   11.10   0
  -1   4 -41   -7.15    9.52   0
   0   2 -53   -3.67   11.42   0
   1   0 -56  484.90   16.82   0
   1   3 -59    0.45   11.86   0
  -1   2 -42  524.78   16.05   0
  -1   5  -9    8.13    7.97   0
   0   6 -39   -4.50   10.76   0
   1   4 -57    6.44   11.65   0
   0   1 -52  646.82   18.05   0
   0   3 -54  220.73   13.69   0
   1  -1 -52  659.05   18.52   0
  -1   4 -44  521.93   17.11   0
   0  -1 -38  409.65   14.55   0
   1   1 -60  399.17   16.75   0
  -1   3 -46  286.34   14.34   0
  -1   6 -25   18.01   10.04   0
  -1   6 -22  334.66   14.25   0
   0   0 -48  821.84   19.26   0
   0   5 -50  183.19   13.97   0
   0   6 -42  343.71   14.88   0
  -1   2 -45   10.86   10.10   0
  -1   5 -42  347.15   15.57   0
  -1   6 -28  730.84   18.53   0
  -1   6 -19    1.63    8.90   0
  -1   6 -31    0.99   10.61   0
   0   4 -55   12.90   11.74   0
   1   0 -59    2.70   11.99   0
  -1   4 -47    3.18   10.44   0
  -1   6 -34  412.81   16.19   0
   0  -1 -41   -2.65   10.03   0
   0   3 -57  -11.78   10.78   0
   0   6 -45   -0.23   11.95   0
  -1   3 -49   -5.58   11.65   0
   0   1 -55  -11.17   11.99   0
   1  -1 -55    0.01   12.05   0
  -2   4 -27    3.54    9.42   0
  -2   4 -24 2239.97   27.21   0
  -1   2 -48  653.71   17.42   0
  -1   5 -45   17.74   10.63   0
  -1   6 -37   14.51   11.08   0
   0   0 -51    5.49   10.62   0
   0   5 -53    3.20   10.70   0
   1   1 -63    5.53   11.52   0
  -2   3 -29   14.40    9.48   0
  -2   3 -26  693.93   16.26   0
  -2   3 -23   16.73    8.53   0
  -2   4 -30  303.40   12.52   0
  -1   0 -28 1565.15   24.19   0
  -1   0 -25    1.96    7.44   0
  -1   1 -44  708.41   17.81   0
  -1   4 -50  394.55   16.29   0
  -2   3 -32 1668.80   23.63   0
  -2   3 -20 1718.84   24.34   0
  -2   4 -33   -1.81    8.82   0
  -1   0 -31    2.69    8.08   0
  -1   6 -40  380.31   16.25   0
   0   4 -58  193.30   14.05   0
   0   6 -48  278.29   14.07   0
  -2   4 -36  605.61   16.87   0
  -2   5 -28  586.80   16.43   0
  -2   5 -25   -0.69    9.47   0
  -1   3 -52  645.65   18.20   0
  -1   5 -48  477.98   17.18   0
   0  -1 -44  700.36   17.97   0
   0   3 -60  432.32   16.53   0
  -2   3 -35    3.61    8.72   0
  -2   5 -22  441.91   14.82   0
  -1   0 -34 1271.55   21.93   0
   0   1 -58  384.82   15.98   0
   1   0 -62   98.32   12.40   0
  -2   3 -17   15.21    7.25   0
  -2   4 -39    6.40   11.03   0
  -2   4 -15   -1.22    7.98   0
  -1   1 -47   -3.29    9.84   0
  -1   4 -53   -0.83   11.96   0
  -1   6 -43   -6.14   11.56   0
   0   0 -54   68.27   12.28   0
  -2   3 -38  529.14   15.34   0
  -2   5 -19   15.99    7.83   0
  -1   0 -37    3.59    8.82   0
  -1   5 -51   -2.42   12.88   0
  -2   2 -31   10.61    9.25   0
  -2   2 -28 1391.38   21.58   0
  -2   2 -25   -1.55    8.19   0
  -2   5 -37   -4.45    9.61   0
  -1   3 -55   -6.04   12.71   0
   0  -1 -47   -1.54   10.58   0
  -2   2 -22 2356.21   28.24   0
  -2   3 -41   -1.38    9.59   0
  -2   4 -42  737.47   17.55   0
  -2   5 -16 2267.58   28.67   0
  -1   6 -46  187.15   13.61   0
   0   3 -63   -5.99   11.70   0
  -2   2 -34  373.83   13.16   0
  -2   3 -14 1735.50   24.97   0
  -2   5 -40  780.58   18.28   0
  -1   0 -40 1151.59   21.28   0
  -1   1 -50  596.30   17.22   0
  -2   2 -37    6.67   10.00   0
  -2   3 -44  580.39   17.31   0
  -2   4 -45   -5.19   11.17   0
  -2   4 -12  891.37   18.69   0
  -2   6 -29   -5.69   10.51   0
  -1   4 -56  324.58   15.23   0
  -1   5 -54  188.68   14.08   0
  -1   7 -32  476.16   16.32   0
   0   1 -61   11.84   11.92   0
  -2   2 -19    6.04    7.08   0
  -2   5 -43   -1.23   12.24   0
  -2   6 -32  618.09   17.76   0
  -2   6 -23   -4.17    9.91   0
  -1   6 -49    4.81   11.65   0
  -1   7 -35   25.66   10.87   0
   0   0 -57    4.33   11.70   0
   1   0 -65    9.33   10.71   0
  -2   2 -40 1359.58   22.51   0
  -2   5 -13   -3.48    8.02   0
  -2   6 -35    2.64   11.22   0
  -1   0 -43   11.16    9.66   0
  -1   3 -58  272.40   14.93   0
   0  -1 -50  566.63   18.13   0
  -2   3 -47    4.08   11.66   0
  -2   4 -48  591.77   17.98   0
  -2   5 -46  149.29   13.94   0
  -2   6 -38  225.27   14.03   0
  -1   1 -53   -6.61   11.26   0
  -1   2 -57   17.57   11.95   0
  -1   7 -38  102.58   12.71   0
   0   2 -65    6.51   11.68   0
  -2   2 -43    3.36   10.70   0
  -2   2 -16 3369.42   34.55   0
  -1   4 -59    6.55   12.15   0
  -1   7 -41    9.06   12.40   0
  -2   6 -41  -11.63   12.20   0
  -1   0 -46  216.88   13.04   0
  -1   5 -57   13.77   10.95   0
  -2   4 -51    9.93   12.74   0
  -2   4  -9   -0.98    7.78   0
  -2   5 -49    7.59   12.16   0
  -2   6 -17    2.69    9.14   0
  -2   3 -50  345.77   14.47   0
  -1   7 -32  481.47   15.92   0
  -1   8 -27   17.60   11.65   0
   0   5 -41    3.69    9.91   0
   0   7 -37   -1.23   10.84   0
   1   0 -29   -3.13    6.98   0
  -2   5 -25    1.42    9.87   0
  -2   6 -26  585.57   16.23   0
   1   6 -44  285.46   14.28   0
  -2   3  -8 3483.90   35.64   0
  -2   4 -21   -0.51    7.56   0
  -2   8 -19    1.09   10.34   0
  -1   5 -36  511.90   16.61   0
   0   2 -35    1.75    7.83   0
  -1   3 -31   15.57    8.92   0
  -1   4 -35   18.27   10.24   0
   0   1 -28 1541.77   23.21   0
   2   3 -49   -2.22   10.80   0
   3   3 -51   -0.84   10.36   0
  -2   3 -11   44.60    8.28   0
  -2   8 -22  188.91   13.66   0
  -1   2 -24 2193.61   26.96   0
  -1   6 -37    9.76   11.69   0
  -1   7 -35   18.20   11.55   0
   0   6 -42  318.66   14.49   0
   1   2 -43    1.62   10.22   0
   2   1 -44  585.95   17.71   0
   2   4 -50  234.50   14.93   0
  -2   5 -28  618.13   16.23   0
  -2   6 -29   11.69   10.26   0
  -2   3 -14 1827.44   25.13   0
  -2   4 -24 2362.49   26.48   0
   0   5 -44  389.38   16.22   0
   1   4 -48  475.21   16.56   0
  -3   6  -9   24.24    9.15   0
  -3   6  -6  656.66   16.74   0
  -3   6  -3   11.58    8.33   0
  -3   7  -7   10.78    9.19   0
  -3   7  -4  924.85   19.82   0
  -2   8 -25   -7.46   11.31   0
  -1   5 -39    7.04   12.08   0
   1   1 -39    0.53    8.01   0
   1   3 -47    7.74   11.10   0
  -3   6 -12 1051.90   19.99   0
  -3   7 -10  565.67   16.39   0
  -2   7 -30  176.58   13.81   0
   0   3 -42  515.95   16.16   0
  -3   6   0 1284.77   23.11   0
  -3   7 -13   30.89   10.22   0
  -2   3 -17   20.09    8.34   0
  -2   6 -32  605.29   17.36   0
  -2   9 -17   12.73   10.95   0
  -1   3 -34  896.62   17.88   0
  -1   4 -38  309.47   14.09   0
  -1   6 -40  442.56   16.67   0
  -1   7 -38  131.49   13.32   0
   1   5 -49   -4.14   12.17   0
  -3   6 -15    7.75    9.16   0
  -3   7 -16  686.88   17.44   0
  -2   4 -27    1.21    8.27   0
  -2   5 -31   12.85    9.30   0
  -1   2 -27   -3.20    7.02   0
   0   1 -31    0.56    8.01   0
   0   6 -45    2.87   10.82   0
   1   0 -32 2177.49   29.67   0
  -2   8 -28  305.99   14.82   0
  -2   9 -20  296.67   14.58   0
   2   3 -52  330.45   15.87   0
  -3   5  -8 2587.89   29.64   0
  -3   6 -18  600.05   16.26   0
  -3   8 -11    5.88   10.47   0
  -2   3 -20 1791.49   24.31   0
  -2   7 -33   -2.46   12.02   0
   0   4 -46  308.97   13.38   0
   1   2 -46  285.04   14.29   0
   2   4 -53   -4.47   10.70   0
  -3   5 -11   10.15    8.54   0
  -3   5  -5   22.59    8.19   0
  -3   7 -19   -2.60    8.88   0
  -3   8 -14  253.18   13.87   0
  -3   5 -14  475.26   14.36   0
  -3   5  -2 1018.64   20.72   0
  -2   4 -30  307.74   12.40   0
  -2   5 -34  723.51   17.58   0
  -2   6 -35   -3.43   10.11   0
  -1   7 -41   -7.86   11.72   0
   1   4 -51    3.36   10.90   0
   2   2 -51   -5.90   12.52   0
  -3   7 -22  308.81   14.45   0
  -3   8 -17   -0.80   11.09   0
  -1   2 -30  824.69   17.64   0
  -1   3 -37    0.10    8.88   0
  -1   4 -41    7.74    9.67   0
  -1   6 -43   -6.11   10.86   0
   0   3 -45   -4.03   11.11   0
   1   1 -42  530.55   16.61   0
   1   3 -50  377.92   16.05   0
  -2   3 -23   11.70    7.68   0
   0   2 -41    1.18    9.84   0
   0   6 -48  249.35   14.71   0
  -3   5   1    7.30    7.44   0
  -3   8 -20  416.15   15.92   0
  -2   7 -36  517.27   16.40   0
   0   1 -34 1314.31   22.22   0
  -3   5 -20  838.67   17.93   0
  -3   7 -25   17.52    9.54   0
  -2   4 -33   -8.63   10.37   0
  -2   6 -38  246.13   15.08   0
   0   4 -49   12.10   12.13   0
   1   0 -35   -0.85    8.79   0
  -3   8 -23   -2.76   11.47   0
  -2   5 -37   10.95    9.70   0
  -1   5 -45    6.75   12.38   0
   0   5 -50  173.56   14.61   0
  -3   6 -27   -8.29   10.78   0
  -2   3 -26  689.34   15.80   0
  -1   6 -46  181.22   13.71   0
   1   2 -49   -2.00   10.95   0
  -3   5 -23   20.89    8.58   0
  -3   8 -26  375.38   15.83   0
  -2   7 -39    3.80   11.62   0
   1   4 -54  153.04   13.22   0
  -3   9 -18  222.55   13.85   0
  -2   8 -37    5.29   11.30   0
   0   3 -48  383.72   16.24   0
  -3   5 -26  980.04   19.27   0
  -3   6 -30  351.51   14.48   0
  -2   6 -41    5.87   12.11   0
   0   2 -44 1269.91   22.62   0
   1   1 -45    1.75   11.01   0
   1   3 -53    1.84   12.16   0
  -3   7 -31   -8.57    9.81   0
  -3   8 -29   -9.03   11.66   0
  -3   9 -21    2.46   10.42   0
  -2   3 -29   13.88    8.23   0
  -2   5 -40  833.71   18.27   0
   0   1 -37   -0.85    8.63   0
  -3   4  -7   42.08    8.31   0
   0   4 -52  313.03   15.75   0
   0   5 -53   -3.85   12.33   0
  -3   4 -16 2474.96   27.86   0
  -3   5 -29   -8.79   10.54   0
  -3   9 -24  472.45   15.94   0
  -2   7 -42  346.50   14.72   0
  -1   6 -49   -6.00   11.84   0
  -3   4 -19   38.04    9.51   0
  -3   6 -33   26.88   10.07   0
  -3   7 -34  324.22   15.01   0
  -3   8 -32  437.25   16.79   0
  -1   3 -43   -3.93    9.28   0
   1   0 -38  385.32   14.89   0
  -3   4  -4 1451.78   23.58   0
  -3   9 -27   16.93   12.67   0
  -2   3 -32 1721.30   23.38   0
  -2   4 -39    3.10    9.69   0
  -2   6 -44  491.10   16.86   0
  -1   1 -23   -0.55    7.97   0
  -3   4 -22  481.74   14.09   0
  -2   5 -43   -3.74   10.43   0
   0   3 -51   -7.49   11.33   0
   1   2 -52  640.90   19.19   0
   1   4 -57   12.49   10.79   0
  -3   5 -32 1075.07   19.62   0
  -3   6 -36  617.11   18.05   0
   0   2 -47   -2.80   10.57   0
  -4   7 -14  564.48   16.51   0
  -4   7 -11    4.26    9.50   0
  -3   4 -25   -6.01    9.56   0
  -3   4  -1   56.18    8.12   0
  -3   7 -37   -8.59   11.94   0
  -2   2 -16 3283.43   33.55   0
  -2   2 -13    0.41    6.63   0
  -2   7 -45  -14.92   10.97   0
   0   1 -40 1126.64   21.33   0
   1   3 -56  328.12   15.43   0
  -4   7 -17   29.61   10.60   0
  -4   7  -8  799.16   18.71   0
  -4   8 -15   -0.22   10.78   0
  -4   8 -12  500.85   16.65   0
  -2   3 -35    6.04   10.02   0
  -1   2 -39  -10.48    9.68   0
   1   1 -48  612.54   18.31   0
  -4   7 -20  706.58   18.11   0
  -4   8 -18  374.89   15.22   0
  -3   5 -35    9.65   11.25   0
  -2   2 -19    2.39    6.95   0
  -2   4 -42  732.58   17.69   0
  -2   6 -47    5.79   11.68   0
  -1   3 -46  270.04   13.07   0
  -1   4 -50  399.49   16.91   0
   0   0 -27   -2.63    6.01   0
   0   4 -55  -12.28   12.48   0
  -4   7 -23  -15.15   10.74   0
  -4   7  -5   20.38    9.72   0
  -4   8 -21    7.56   10.73   0
  -3   6 -39  -10.97   12.56   0
  -2   5 -46  140.77   12.64   0
  -4   6 -19   -8.30    9.99   0
  -4   6 -16 1030.77   19.38   0
  -4   6 -13    3.63    7.85   0
  -4   6 -10  516.84   15.74   0
  -3   7 -40  328.01   15.36   0
  -3   8 -38  127.67   12.22   0
  -2   2 -22 2286.91   27.24   0
   1   0 -41    2.91    9.26   0
  -4   7 -26  291.23   14.08   0
  -4   8 -24  574.95   17.91   0
   0   3 -54  236.05   14.95   0
  -4   6  -7    0.56    8.85   0
  -3   4 -31   29.90   10.80   0
  -3   5 -38  195.38   13.21   0
  -2   2 -25    2.90    7.30   0
  -2   3 -38  552.76   15.30   0
  -1   5 -54  150.57   13.49   0
   0   2 -50  358.67   15.78   0
  -4   8 -27   -2.81   10.95   0
  -4   9 -19    3.27   10.36   0
  -2   4 -45    3.63   11.48   0
  -1   2 -42  510.88   15.11   0
   0   0 -30  199.25   11.60   0
   0   1 -43   -1.61    9.35   0
  -4   6  -4 1117.87   21.52   0
  -4   9 -22  208.51   13.00   0
  -3   6 -42  350.82   14.48   0
  -3   7 -43   -0.87   12.18   0
  -2   5 -49   -3.01   11.79   0
  -2   6 -50  252.34   14.02   0
  -1   3 -49    0.64   11.82   0
  -1   4 -53    9.95   11.79   0
  -4   6 -28  715.47   18.14   0
  -4   8 -30  211.41   14.10   0
  -4   9 -25   -8.08   12.35   0
  -3   4 -34  855.43   18.88   0
  -2   2 -28 1386.40   21.57   0
   0   4 -58  202.56   13.78   0
  -3   5 -41  -20.06   11.99   0
  -1   1 -32 2139.02   26.94   0
  -4   8 -33  -11.33   12.65   0
  -4   9 -28  209.75   13.68   0
  -4   5 -21   16.11   10.39   0
  -4   5 -15    3.51    7.89   0
  -4   5 -12 1426.67   22.72   0
  -4   6 -31    8.41    9.64   0
  -4   6  -1   -3.24    8.78   0
  -3   3 -18  650.16   16.33   0
  -3   3 -15    3.92    6.93   0
  -3   6 -45    5.68   12.49   0
  -2   2 -31   -0.48    9.01   0
  -1   2 -45    7.74   10.48   0
   0   0 -33   -1.40    8.84   0
  -4   7 -35    3.78   12.13   0
  -3   3 -21    5.69    7.50   0
  -3   3 -12 2194.28   27.23   0
  -3   4 -37    8.53   11.17   0
  -3   7 -46  199.09   13.29   0
  -2   6 -53    0.59   11.71   0
   0   3 -57    0.89   11.31   0
  -4   5 -24  964.98   18.57   0
  -4   5  -9   60.09    9.29   0
  -3   3 -24 2113.71   26.07   0
  -1   1 -35   -0.10    8.59   0
  -1   3 -52  642.07   18.68   0
   0   1 -46  206.42   12.86   0
   0   2 -53   -4.72   11.25   0
  -4   5 -27   19.04   10.89   0
  -4   6 -34  338.89   14.04   0
  -3   3  -9   -5.51    6.48   0
  -3   5 -44  520.27   15.96   0
  -1   4 -56  347.16   15.90   0
  -4   7 -38  322.45   15.38   0
  -3   3 -27   -0.47    9.46   0
  -2   2 -34  373.76   13.13   0
  -4   5  -6  498.05   15.19   0
  -3   4 -40  800.29   18.21   0
  -3   6 -48  349.45   15.37   0
  -4   6 -37    3.49   10.08   0
  -2   4 -51   -1.37   12.63   0
  -1   2 -48  617.31   17.98   0
   0   0 -36  819.80   19.21   0
  -4   7 -41    7.89   12.51   0
  -3   3 -30  821.61   17.37   0
  -3   5 -47    3.80   12.29   0
  -1   1 -38  418.26   14.65   0
  -4   5 -33   11.75    9.85   0
  -2   3 -47   -0.05   11.51   0
  -2   5 -55   -7.69   10.80   0
  -4   5  -3   -1.65    7.73   0
  -4   6 -40  536.66   17.90   0
  -3   3 -33    9.93    9.69   0
  -3   4 -43    7.97   12.11   0
  -1   3 -55  -10.59   12.10   0
   0   1 -49   -3.06   10.17   0
  -5   8 -22  235.45   13.85   0
  -5   8 -19    0.43   10.94   0
  -5   8 -16  684.31   18.32   0
  -3   6 -51   -7.01   11.22   0
  -1   4 -59   -0.95   11.55   0
   0   2 -56  201.37   14.60   0
  -5   7 -21    5.57   10.36   0
  -5   7 -18  319.96   14.45   0
  -5   8 -25   -2.90   10.78   0
  -4   5 -36  851.97   18.58   0
  -4   7 -44  319.41   15.32   0
  -5   7 -24  825.72   19.26   0
  -5   8 -28  370.15   15.43   0
  -4   4 -20 1666.82   23.78   0
  -4   6 -43    7.73   12.82   0
  -3   3 -36  839.04   18.41   0
  -3   5 -50  451.95   16.83   0
  -2   2 -40 1318.66   22.30   0
  -2   4 -54   76.71   12.85   0
  -1   1 -41   -4.64    9.55   0
   0   0 -39    5.74    8.51   0
  -5   7 -27   20.54   11.94   0
  -5   7 -12  618.23   17.33   0
  -5   9 -23    6.76   10.41   0
  -4   4 -23    1.68    8.44   0
  -4   4 -17    2.53    7.82   0
  -3   4 -46  191.39   14.09   0
  -1   2 -51    4.37   10.87   0
  -5   7 -30  350.82   15.91   0
  -5   8 -31   -3.49   11.30   0
  -5   9 -26  316.90   14.24   0
  -4   4 -26 1052.67   19.03   0
  -4   5 -39    5.43   10.40   0
  -2   3 -50  361.26   15.96   0
  -5   7  -9    3.12    9.44   0
  -5   9 -29    9.79   10.54   0
  -4   4 -29    3.08    9.75   0
  -4   7 -47  -10.56   11.90   0
  -5   6 -23    7.70   10.67   0
  -5   6 -20  757.54   18.28   0
  -4   4 -11   -3.19    7.22   0
  -4   6 -46  256.77   14.94   0
  -3   3 -39   -2.45    9.27   0
  -2   2 -43    0.74   10.68   0
  -1   3 -58  264.41   15.77   0
  -5   6 -17   14.68    8.81   0
  -4   4 -32  704.42   17.43   0
  -4   5 -42  474.09   16.71   0
  -1   1 -44  695.34   18.14   0
  -5   6 -14  632.33   17.14   0
  -5   8 -37   -6.85   12.17   0
  -2   4 -57    8.64   12.87   0
   0   0 -42 1285.99   24.04   0
  -4   4 -35   -4.91   11.32   0
  -4   4  -8 1815.08   25.26   0
  -2   3 -53   16.00   12.36   0
  -1   2 -54  271.53   15.24   0
  -5   6 -32  697.66   18.68   0
  -5   6 -11   23.32   10.08   0
  -4   6 -49    8.26   12.42   0
  -2   1 -24 2074.72   27.04   0
  -2   1 -21   47.95    7.86   0
  -5   7 -39    3.00   11.68   0
  -4   5 -45  -10.75   10.68   0
  -2   1 -27    2.20    8.38   0
  -2   1 -18 1251.21   21.67   0
  -2   2 -46  530.20   16.76   0
  -5   6 -35    0.44   12.35   0
  -4   4 -38  274.20   14.84   0
  -2   1 -15   11.15    8.11   0
  -5   6  -8 1113.83   21.51   0
  -4   4  -5   -2.86    7.66   0
  -3   2 -23    6.18    7.65   0
  -3   2 -20 1696.61   23.77   0
  -1   1 -47    5.51   10.14   0
  -1   3 -61   -7.30   11.46   0
  -5   6 -38  331.46   15.11   0
  -5   7 -42  251.02   14.86   0
  -4   5 -48  336.62   16.38   0
  -3   2 -29   17.69    9.89   0
  -3   2 -17   27.51    7.52   0
  -2   4 -60  316.81   15.68   0
  -1   0 -25    6.49    6.41   0
   0   0 -45    2.51   10.02   0
  -5   5 -25   -3.07   10.20   0
  -4   4 -41   10.75   11.75   0
  -4   6 -52  295.04   14.97   0
  -2   3 -56  478.08   17.35   0
  -1   0 -28 1533.18   24.85   0
  -5   5 -28 1024.25   20.56   0
  -3   2 -32 1664.49   24.29   0
  -3   2 -14 1772.31   24.80   0
  -2   2 -49    4.65   10.40   0
  -1   2 -57    0.12   11.16   0
  -5   5 -31    3.90   11.03   0
  -5   5 -16  980.69   19.03   0
  -5   6 -41   14.94   12.30   0
  -5   6  -5    7.18    9.31   0
  -5   7 -45    9.68   12.06   0
  -3   3 -48  696.42   19.36   0
  -1   0 -31    6.22    7.84   0
  -3   2 -35   -1.23   10.17   0
  -3   4 -55   14.29   12.76   0
  -2   1 -36 1262.55   22.02   0
  -5   5 -13   -3.05    7.93   0
  -4   3 -25    6.64    8.49   0
  -4   3 -22  475.45   14.35   0
  -4   5 -51    8.89   11.69   0
  -3   2 -11   40.73    8.80   0
  -1   1 -50  562.33   17.52   0
  -6   8 -26  425.21   16.27   0
  -6   8 -23   -2.92   11.15   0
  -6   8 -20  362.94   16.85   0
  -5   6 -44  387.92   16.35   0
  -4   3 -28  999.98   18.87   0
  -4   3 -19   41.21    8.40   0
  -4   4  -2 1560.51   25.68   0
  -1   0 -34 1289.88   22.94   0
  -6   8 -29    8.96   11.47   0
  -6   9 -27   11.72   12.79   0
  -5   5 -37   -0.89   10.24   0
  -4   3 -31   30.68    9.28   0
  -4   3 -16 2426.63   28.29   0
  -2   1 -39    1.63    9.61   0
  -2   2 -52  345.40   16.17   0
  -2   3 -59    4.77   12.52   0
  -6   8 -32  427.10   16.32   0
  -6   8 -17   -2.00   10.95   0
  -5   5 -10  897.30   18.45   0
  -4   3 -34  801.87   18.42   0
  -4   4 -47  -11.19   12.84   0
  -3   3 -51   -0.49   11.94   0
  -6   7 -28  319.26   15.52   0
  -6   7 -25    5.04   10.00   0
  -6   7 -22  307.31   15.24   0
  -6   7 -19   16.55   11.29   0
  -5   5 -40  405.28   16.63   0
  -5   6 -47  -12.04   12.54   0
  -4   5 -54  159.46   14.14   0
  -3   4 -58  326.18   16.82   0
  -1   0 -37   -5.51    8.63   0
  -6   7 -31   27.40   12.52   0
  -6   8 -35   -9.73   12.13   0
  -4   3 -37   -6.13   11.22   0
  -4   3 -13   24.84    7.83   0
  -6   7 -34  353.90   15.67   0
  -6   7 -16 1003.16   21.06   0
  -3   2  -8 3408.99   35.44   0
  -2   1 -42  492.93   16.32   0
  -1   1 -53   -2.78   10.94   0
  -5   5 -43   -4.11   10.84   0
  -5   5  -7   -1.65    8.71   0
  -4   4 -50  354.57   16.64   0
  -6   7 -13   -0.44   10.54   0
  -5   4 -27   14.57   10.94   0
  -5   4 -24 1005.86   19.90   0
  -5   6 -50  209.04   14.63   0
  -4   3 -40  792.23   18.25   0
  -3   2 -44  611.85   17.62   0
  -3   3 -54  250.67   15.50   0
  -2   2 -55   -9.23   11.74   0
  -1   0 -40 1094.66   21.91   0
  -5   4 -30  310.33   14.74   0
  -5   4 -21   30.34   10.73   0
  -2   3 -62  131.54   13.34   0
  -6   6 -27   -4.80    9.92   0
  -6   6 -24 1002.68   20.09   0
  -6   6 -21   -4.84   10.81   0
  -6   7 -40  468.79   16.92   0
  -5   4 -33    7.79   12.01   0
  -5   5 -46  251.01   15.67   0
  -4   4   1   -1.20    7.30   0
  -3   4 -61    5.63   11.65   0
  -2   1 -45  -10.29   10.72   0
  -6   6 -33    2.16   12.09   0
  -6   6 -18  402.42   15.68   0
  -4   3 -43    8.61   10.31   0
   0  -1 -29   -1.40    7.22   0
  -6   6 -36  331.20   16.34   0
  -6   7 -43   26.26   13.03   0
  -5   5  -4 1427.57   24.13   0
  -3   2 -47    9.96   11.03   0
  -1   0 -43    2.10    9.29   0
  -6   6 -15    7.09   10.31   0
  -5   4 -39    8.73   12.97   0
  -5   5 -49    5.79   12.40   0
  -3   2  -5   10.64    6.63   0
  -3   3 -57    3.36   11.79   0
   0  -1 -32 2137.28   31.85   0
  -6   6 -39   -1.28   12.24   0
  -2   1 -48  621.83   18.18   0
  -2   2 -58  210.67   14.40   0
  -5   4 -12 1402.35   22.86   0
   0  -1 -35    5.21    8.36   0
  -6   6 -42  282.56   15.95   0
  -6   6 -12  570.57   17.03   0
  -5   4 -42  472.28   16.04   0
  -4   4 -56  203.07   15.73   0
  -3   2 -50  360.03   15.95   0
  -5   5 -52  429.40   16.89   0
  -1   0 -46  203.23   13.12   0
  -5   4 -45    9.08   13.15   0
  -6   5 -32  697.63   18.96   0
  -6   5 -29   19.39   10.50   0
  -6   6 -45   -2.44   12.86   0
  -4   2 -27  -16.25    9.66   0
  -3   1 -31    8.62    9.39   0
  -3   1 -28 1773.47   24.58   0
  -3   1 -25   31.44    8.29   0
  -3   3 -60  260.55   16.14   0
  -2   1 -51    3.96   11.37   0
  -6   5 -35    4.62   12.43   0
  -6   5 -20  750.67   18.44   0
  -6   6  -9    9.82    9.46   0
  -5   4  -9   51.40    8.87   0
  -5   5  -1   -2.08    8.70   0
  -4   2 -33    7.39   10.16   0
  -4   2 -30  292.18   12.82   0
  -4   2 -24 2419.32   27.80   0
  -3   1 -22  580.97   15.40   0
  -7   8 -30  139.46   12.92   0
  -7   8 -27   12.41   11.27   0
  -7   8 -24  404.93   17.50   0
  -5   4 -48  329.59   16.54   0
  -4   2 -21    0.23    8.28   0
  -4   3 -52  443.60   17.59   0
  -4   3  -4 1456.37   23.79   0
  -4   4 -59    3.61   13.01   0
  -3   2 -53   15.19   12.44   0
  -7   8 -33    7.16   12.14   0
  -7   8 -21    1.47   12.79   0
  -6   5 -38  306.53   14.84   0
  -6   5 -17   18.22    9.95   0
  -6   6 -48  411.01   16.70   0
  -4   2 -36  594.74   16.34   0
  -3   1 -37    0.41   10.42   0
  -3   1 -19    2.28    7.62   0
  -6   5 -41    3.48   12.90   0
  -5   3 -29   -3.29   11.13   0
  -4   2 -39   12.84   10.82   0
  -4   2 -18 1340.89   21.45   0
  -2   0 -29   -5.34    8.73   0
  -7   7 -32  525.56   18.12   0
  -7   7 -29    4.57   11.74   0
  -7   7 -26  412.93   16.82   0
  -5   3 -32 1105.57   20.41   0
  -5   3 -26  958.03   19.00   0
  -5   3 -23   15.32   10.88   0
  -3   1 -40  715.71   18.38   0
  -2   0 -32  787.26   18.47   0
  -2   1 -54  277.36   15.50   0
  -7   7 -35    2.30   12.81   0
  -6   5 -14  620.11   17.45   0
  -6   6  -6  625.96   18.46   0
  -5   3 -35    8.83   10.39   0
  -5   4 -51   11.96   12.96   0
  -5   4  -6  523.44   15.72   0
  -4   3 -55   14.22   13.37   0
  -3   1 -16 2310.62   28.16   0
  -3   2 -56  490.32   18.14   0
  -2   0 -35    3.43    9.48   0
  -7   7 -20  346.82   16.06   0
  -6   5 -44  405.77   15.93   0
  -5   3 -38  188.67   13.96   0
  -5   3 -20  838.44   17.89   0
  -4   2 -15    3.30    7.85   0
  -7   7 -38  110.13   14.28   0
  -3   1 -43   13.42    9.49   0
  -2   0 -38  410.08   15.25   0
  -2   0 -20 3914.21   37.92   0
  -7   7 -17   -2.27   11.43   0
  -6   5 -47    5.45   13.08   0
  -6   5 -11   29.00   10.15   0
  -5   3 -41    7.08   12.90   0
  -5   3 -17    5.44    9.91   0
  -4   2 -45   -5.16   11.22   0
  -3   1 -13   48.62    9.43   0
  -7   6 -28  320.54   16.41   0
  -6   4 -31    4.63   11.61   0
  -6   4 -28  732.15   18.57   0
  -5   3 -44  520.78   17.88   0
  -4   2 -12  946.46   18.67   0
  -4   3 -58  321.87   16.12   0
  -4   3  -1   63.59    8.96   0
  -3   1 -46  268.88   14.76   0
  -2   0 -41   -2.61    9.86   0
  -7   6 -25   15.00   12.61   0
  -7   7 -14  248.61   14.49   0
  -6   4 -34  344.00   14.68   0
  -6   4 -25   10.81    9.97   0
  -6   5 -50  228.08   15.10   0
  -5   3 -14  487.90   15.37   0
  -4   2 -48  610.82   18.69   0
  -3   2 -59  -10.19   11.94   0
  -2   0 -17   -5.61    6.72   0
  -7   6 -37    0.18   12.92   0
  -6   4 -37  -10.99   10.92   0
  -5   4  -3   -0.22    8.92   0
  -6   4 -40  516.10   18.10   0
  -6   5  -8 1134.22   22.04   0
  -5   3 -47   -5.43   10.92   0
  -3   1 -49   -3.54   12.00   0
  -2   0 -44 1265.77   23.56   0
  -7   6 -19   25.09   11.82   0
  -7   6 -43    3.42   12.53   0
  -6   4 -43  -15.95   12.44   0
  -4   2 -51    7.74   10.86   0
  -4   2  -9    1.23    8.70   0
  -3   1 -10 2249.40   29.18   0
  -7   6 -16 1047.33   21.94   0
  -2   0 -47   -5.49   10.48   0
  -2   0 -14  372.09   14.27   0
  -6   4 -46  265.05   15.70   0
  -3   1 -52  635.33   19.24   0
  -1  -1 -33   11.99    9.26   0
  -1  -1 -30  820.24   19.83   0
  -1  -1 -27    3.51    7.99   0
  -4   2 -54   90.73   14.45   0
  -1  -1 -36 1290.54   24.38   0
  -7   5 -33  -11.63   12.56   0
  -7   5 -30  356.22   16.50   0
  -6   5  -5   15.97    9.87   0
  -5   3 -53   -1.06   12.72   0
  -1  -1 -24 2017.92   29.83   0
  -7   5 -36  368.17   17.15   0
  -7   5 -24  799.74   20.02   0
  -7   6 -13   -3.90   10.82   0
  -6   4 -49   -2.59   13.02   0
  -6   4 -13   -2.72    8.88   0
  -2   0 -50  366.25   16.93   0
  -1  -1 -39   -0.50    8.94   0
  -7   5 -39  -11.16   13.45   0
  -5   2 -34  729.48   19.28   0
  -5   2 -31    2.89   10.06   0
  -5   2 -28  623.06   17.80   0
  -5   3  -8 2515.84   29.48   0
  -5   4   0 1714.42   27.38   0
  -4   1 -32 1314.90   22.19   0
  -4   1 -29    1.97    9.22   0
  -5   2 -37    7.41   10.55   0
  -5   2 -25  -12.60    9.55   0
  -4   1 -26  932.62   18.93   0
   3  -6 -21   19.72    9.86   0
   6  -6 -18  609.37   17.05   0
   7  -9 -14  257.18   14.08   0
   7  -6 -14  257.09   13.79   0
   8  -8 -11   -6.91   10.77   0
   8  -4   6  363.67   14.33   0
   9  -7  -2  225.83   12.77   0
   3  -7 -20  737.76   18.83   0
   4  -1  -1   60.82    8.17   0
   6  -5 -16  933.23   17.79   0
   6  -3  -6  630.76   15.08   0
   7  -7 -16  881.76   19.88   0
   2  -2 -14  366.93   12.69   0
   4  -4 -19    1.45    7.80   0
   5  -7 -21   11.42   10.86   0
   5  -2  -5   23.28    6.94   0
   3  -2 -13   63.03    7.59   0
   5  -8 -20  398.53   16.34   0
   5  -5 -20 1018.66   19.30   0
   6  -8 -19   -0.52   10.62   0
   7  -5 -12  727.71   17.33   0
   8  -7 -12  349.06   15.29   0
   1  -3 -17   18.06    7.16   0
   3  -5 -22  429.94   14.69   0
   4  -7 -22  330.11   14.57   0
   5  -3 -13   -0.79    8.59   0
   7  -4  -7    1.17    8.32   0
   8  -6 -10  374.94   15.50   0
   8  -5  -5    7.32   10.41   0
   8  -4   3    2.99    9.74   0
   9  -8  -7    3.28   10.94   0
   3  -3 -18 1568.23   22.27   0
   5  -1   6  965.60   21.08   0
   6  -9 -18  264.53   14.16   0
   6  -4 -14  475.69   14.66   0
   6  -2   2  782.10   17.79   0
   7  -3   1   22.15    8.83   0
   4  -6 -23    2.68    8.43   0
   5  -4 -18  528.34   14.25   0
   7  -8 -18  291.63   14.92   0
   8  -8 -14  362.18   14.63   0
   1  -4 -19   37.20    7.77   0
   2  -4 -21   -1.41    7.76   0
   4  -8 -21    9.49   10.49   0
   4  -3 -17    3.49    7.22   0
   7  -9 -17    2.51   10.88   0
   7  -6 -17   12.33   10.63   0
   6  -6 -21    3.78   10.43   0
   6  -5 -19   -2.58   10.37   0
   6  -3  -9   22.60    7.82   0
   7  -7 -19   -8.04   11.34   0
   9  -6  -3   21.37   10.59   0
   9  -5   5   12.66    9.59   0
   4  -2 -12  961.47   17.65   0
   8  -7 -15    7.36   11.32   0
   8  -5  -8  817.90   18.77   0
   8  -4   0  766.88   17.92   0
   9  -8 -10  233.82   13.34   0
   5  -2  -8 2567.41   28.28   0
   6  -8 -22  219.12   13.86   0
   7  -5 -15    0.79    9.09   0
   7  -4 -10  582.16   15.77   0
   8  -6 -13   -5.74   10.74   0
   3  -6 -24  897.40   19.55   0
   3  -1  -8 3335.67   33.85   0
   4  -4 -22  931.25   18.40   0
   4  -1  -4 1503.63   23.40   0
   5  -8 -23    4.16   11.63   0
   5  -7 -24  585.95   16.67   0
   6  -2  -1   -0.82    8.00   0
   7  -3  -2  424.56   14.48   0
   5  -5 -23    3.46    8.52   0
   5  -1   3   55.44    8.88   0
   8  -8 -17   -5.96   10.65   0
   9  -5   2  353.90   13.96   0
   2  -5 -23    8.11    8.40   0
   5  -3 -16 2228.91   25.28   0
   6  -9 -21    7.72   11.85   0
   6  -4 -17   -7.61    8.30   0
   7  -9 -20  333.79   15.64   0
   9  -6  -6  361.40   15.35   0
   3  -2 -16 2363.45   26.91   0
   4  -7 -25   28.87   11.05   0
   5  -4 -21   22.47    9.06   0
   7  -6 -20  498.05   15.98   0
   8  -4  -3   10.45    9.38   0
   3  -5 -25    2.87    9.00   0
   4  -6 -26  562.52   16.62   0
   7  -7 -22  229.91   13.96   0
   8  -5 -11    2.13   10.64   0
   2  -2 -17    1.63    6.11   0
   3  -3 -21    4.60    7.14   0
   6  -6 -24  706.01   16.85   0
   6  -5 -22  375.89   14.49   0
   7  -5 -18  666.14   16.79   0
   7  -3  -5   20.92    9.37   0
   8  -6 -16  749.84   18.10   0
   9  -5  -1   -1.97    9.64   0
   9  -6  -9   -8.43   11.52   0
   4  -2 -15    4.65    6.81   0
   6  -8 -25  -12.85   11.16   0
   6  -2  -4 1186.50   20.64   0
   8  -8 -20  308.75   14.65   0
   5  -7 -27    8.95   11.20   0
   8  -4  -6  365.13   14.16   0
   1  -3 -20 1649.98   25.49   0
   4  -1  -7   35.76    7.69   0
   5  -8 -26  365.33   15.42   0
   5  -5 -26  405.56   14.52   0
   5  -1   0 1769.62   25.92   0
   6  -9 -24  500.31   17.91   0
   6  -4 -20  982.12   18.55   0
   9  -7 -14  272.02   13.23   0
   9  -5  -4  302.14   14.16   0
   4  -5 -27   17.75    8.70   0
   4  -4 -25   -2.10    7.96   0
   5  -3 -19   14.70    8.21   0
   7  -6 -23   15.25   10.49   0
   3  -6 -27    5.79    9.09   0
   3  -1 -11   42.74    7.03   0
   5  -6 -28  703.78   17.91   0
   5  -4 -24 1344.14   21.31   0
   7  -7 -25   19.27   11.20   0
   7  -3  -8  844.81   17.89   0
   8  -7 -21   12.97   10.66   0
   8  -6 -19   -6.24   11.10   0
   3  -4 -26  866.14   17.96   0
   4  -7 -28  658.76   18.98   0
   6  -6 -27  -19.20   11.35   0
   7  -5 -21   -7.08   10.90   0
   9  -6 -12  290.23   13.67   0
   6  -5 -25   18.53    9.36   0
   6  -2  -7   -8.83    8.23   0
   8  -8 -23    4.17   11.41   0
   8  -4  -9    8.92   10.18   0
   2  -5 -26  936.68   19.46   0
   3  -2 -19    2.53    6.86   0
   4  -6 -29   -7.03   10.22   0
   4  -3 -23   29.74    9.47   0
   9  -7 -17   -1.69   10.91   0
   9  -5  -7    5.44   10.14   0
   3  -3 -24 1360.08   21.13   0
   6  -8 -28  337.32   14.88   0
   4  -2 -18 1375.51   20.21   0
   5  -1  -3    4.16    7.02   0
   6  -7 -29    4.08   11.70   0
   7  -8 -27    8.18   11.56   0
   2  -2 -20 4127.65   36.05   0
   5  -7 -30  178.89   13.59   0
   6  -9 -27    2.71   12.75   0
   6  -4 -23   -4.04    8.64   0
   7  -6 -26  512.92   15.38   0
   7  -3 -11    5.43    9.43   0
   9  -6 -15   33.98   11.32   0
   4  -1 -10 1259.37   20.26   0
   5  -8 -29    4.40   11.62   0
   5  -5 -29   -0.65    8.89   0
   5  -3 -22  472.92   13.61   0
   7  -7 -28  298.89   14.53   0
   4  -5 -30  505.33   15.46   0
   4  -4 -28  839.07   17.10   0
   6  -2 -10  549.49   15.05   0
   7  -5 -24  619.82   15.83   0
   8  -4 -12  489.53   14.63   0
   9  -5 -10  268.26   13.97   0
   5  -6 -31   -0.36   10.86   0
   5  -4 -27   12.63    8.74   0
   6  -5 -28  729.21   17.36   0
   8  -8 -26  184.74   13.55   0
   9  -7 -20  321.17   13.49   0
   2  -4 -27   -1.25    8.26   0
   3  -1 -14 1850.87   24.22   0
   2  -3 -25   20.03    6.81   0
   2  -1 -15   10.12    6.28   0
   3  -6 -30  345.83   14.21   0
   4  -7 -31    0.98   10.78   0
   5  -1  -6  498.86   14.52   0
   3  -4 -29   -1.50    7.54   0
   3  -2 -22  580.42   14.88   0
   4  -6 -32  596.05   17.15   0
   4  -3 -26  946.37   17.99   0
   6  -8 -31   -7.95   11.00   0
   7  -8 -30  179.23   13.03   0
   7  -3 -14  536.00   14.75   0
   8  -7 -27   -0.32   11.51   0
   9  -5 -13   -4.03   11.16   0
   1  -3 -23   13.29    7.08   0
   4  -2 -21    1.58    7.95   0
   6  -7 -32  514.48   16.79   0
   6  -4 -26  599.93   15.39   0
   7  -6 -29    5.83    9.80   0
   7  -4 -22  351.13   14.28   0
   8  -6 -25    6.72   10.45   0
   8  -4 -15    8.40   10.38   0
   3  -5 -31    2.91    9.31   0
   3  -3 -27   -0.66    8.30   0
   6  -3 -21   24.31    8.53   0
   7  -7 -31   -4.70   11.49   0
   7  -5 -27   -5.64   11.03   0
   9  -7 -23   -2.10   10.65   0
   1  -4 -25    5.61    7.36   0
   2  -5 -29    4.51    8.15   0
   5  -7 -33    2.66   11.82   0
   5  -5 -32  744.53   18.03   0
   5  -3 -25   -0.58    8.14   0
   6  -2 -13   -0.67    7.32   0
   5  -8 -32  463.07   16.78   0
   8  -5 -23   12.52   11.19   0
   2  -2 -23   -2.78    7.40   0
   4  -5 -33   22.15    9.90   0
   4  -4 -31   -7.99    8.20   0
   5  -6 -34  397.08   15.43   0
   5  -4 -30  513.11   14.63   0
   5  -1  -9   54.69    8.44   0
   6  -5 -31    4.01    9.45   0
   7  -3 -17   34.43   10.10   0
   8  -3  -7    2.58    9.51   0
   9  -5 -16  649.33   17.53   0
   1  -2 -21   40.68    7.50   0
   5  -2 -20  805.19   17.13   0
   8  -4 -18  385.15   15.05   0
   3  -1 -17   19.52    6.90   0
   7  -2  -6  631.86   16.44   0
   8  -7 -30  205.08   13.36   0
   8  -6 -28  319.79   14.29   0
   6  -8 -34  318.49   14.63   0
   6  -4 -29   11.23    9.03   0
   6  -3 -24  936.61   18.55   0
   7  -8 -33   14.87   10.14   0
   7  -6 -32  536.41   15.92   0
   7  -4 -25   29.98    9.37   0
   2  -4 -30  288.21   12.42   0
   2  -3 -28 1731.90   23.86   0
   2  -1 -18 1339.87   21.40   0
   3  -6 -33   12.30    9.77   0
   3  -4 -32 1295.70   21.32   0
   4  -7 -34  314.46   14.32   0
   4  -3 -29    2.45    7.98   0
   4  -2 -24 2387.88   26.44   0
   6  -7 -35   17.53   12.26   0
   6  -2 -16 1089.22   18.75   0
   7  -5 -30  179.52   13.04   0
   3  -2 -25   15.99    7.28   0
   4  -6 -35   -4.40   10.51   0
   5  -3 -28  583.63   15.77   0
   8  -5 -26  388.03   14.75   0
   8  -3 -10  392.72   14.61   0
   9  -5 -19   15.00   11.22   0
   3  -3 -30  441.76   13.95   0
   7  -3 -20  755.69   17.28   0
   3  -5 -34  678.97   17.00   0
   5  -4 -33   25.72   10.74   0
   5  -1 -12 1436.44   21.46   0
   6  -5 -34  419.34   15.70   0
   7  -2  -9    2.28    8.35   0
   8  -4 -21    5.40   10.93   0
   9  -4 -11   -0.18    9.83   0
   5  -2 -23    7.26    8.76   0
   8  -6 -31   13.53   11.38   0
   1  -3 -26  658.15   16.55   0
   4  -5 -36  522.44   16.05   0
   5  -6 -37    5.16    9.78   0
   7  -4 -28  681.29   17.16   0
   8  -7 -33    4.60    9.80   0
   8  -3 -13   -6.62    9.81   0
   2  -5 -32 1025.62   20.26   0
   2  -2 -26 1558.81   22.31   0
   3  -1 -20 1704.66   22.49   0
   4   0  -2 1516.42   25.57   0
   6  -4 -32  600.36   15.51   0
   6  -3 -27   -4.99   10.03   0
   6  -2 -19   -8.42    7.92   0
   7  -6 -35    6.85   10.24   0
   1  -4 -28  973.26   20.47   0
   6  -8 -37   -5.65   12.63   0
   6  -1  -5    8.16    7.57   0
   7  -5 -33    9.17   11.41   0
   7  -2 -12  593.78   16.66   0
   8  -5 -29  -15.01   11.30   0
   9  -6 -27    6.42   10.61   0
   9  -5 -22  217.92   13.30   0
   9  -4 -14  178.14   11.91   0
   4  -3 -32 1276.88   20.08   0
   4  -2 -27   -3.57    7.62   0
   4  -1 -19   42.41    8.55   0
   5  -3 -31    1.34   10.03   0
   6  -7 -38  138.41   13.22   0
   7  -3 -23   -1.89   10.25   0
   8  -4 -24  578.64   16.55   0
   1  -2 -24 1945.96   26.07   0
   3  -2 -28 1814.39   23.58   0
   3   0  -9    0.67    5.38   0
   5  -1 -15    7.93    6.89   0
   2  -1 -21   41.56    7.20   0
   3  -4 -35   14.09    7.98   0
   4  -6 -38  246.12   13.52   0
   6  -5 -37   14.89   11.17   0
   8  -3 -16  708.00   17.19   0
   1  -1 -19   -2.44    6.62   0
   2  -4 -33    1.14    8.10   0
   2  -3 -31   12.61    6.93   0
   4   0  -5   -6.90    6.49   0
   5  -7 -39    0.62   10.73   0
   5  -4 -36  505.96   15.93   0
   5  -2 -26  983.55   18.45   0
   6  -1  -8 1171.60   21.14   0
   7  -4 -31   -2.26   11.14   0
   6  -3 -30  390.03   14.44   0
   6  -2 -22  530.55   14.33   0
   7  -2 -15    1.78    9.22   0
   9  -5 -25    0.93   10.46   0
   9  -4 -17   18.33   10.44   0
   3  -5 -37    5.01    9.24   0
   5  -6 -40  411.93   15.63   0
   6  -4 -35    3.24    9.36   0
   7  -6 -38  123.05   12.69   0
   8  -5 -32  484.08   15.77   0
   3  -1 -23   12.75    7.00   0
   4  -5 -39    5.81   10.32   0
   5  -1 -18 1022.06   18.64   0
   7  -5 -36  562.12   15.58   0
   8  -4 -27    8.38   10.29   0
   4  -2 -30  300.27   12.65   0
   4  -1 -22  490.07   13.40   0
   6  -1 -11   18.01    8.50   0
   8  -3 -19   -3.47   10.25   0
   1  -3 -29   11.57    7.38   0
   2   0 -13   -5.45    6.78   0
   4  -3 -35   23.25    8.63   0
   4   0  -8 1848.82   25.79   0
   5  -3 -34  723.34   16.27   0
   6  -7 -41    3.15   11.64   0
   9  -4 -20  309.15   14.06   0
   3  -2 -31   11.69    8.35   0
   7  -2 -18  364.54   13.61   0
   8  -6 -37    5.90   10.69   0
   9  -5 -28  211.49   13.22   0
   2  -1 -24 2152.04   25.53   0
   5  -5 -41    4.22   10.47   0
   5  -2 -29    4.70    8.26   0
   6  -5 -40  402.76   14.81   0
   7  -4 -34  323.53   13.16   0
   4  -6 -41    0.15    9.83   0
   5  -4 -39   -1.33    9.25   0
   6  -6 -42  328.91   14.52   0
   6  -3 -33    9.74   10.69   0
   1  -2 -27    3.72    6.90   0
   2  -3 -34  886.19   17.97   0
   5  -7 -42  326.25   14.44   0
   5  -1 -21   24.11    8.92   0
   6  -4 -38  240.82   12.35   0
   6  -1 -14  637.44   16.09   0
   7  -6 -41    8.75   10.74   0
   7  -5 -39   -2.57   11.11   0
   8  -5 -35   -6.37   10.09   0
   8  -3 -22  224.42   13.25   0
   1  -1 -22  526.56   14.44   0
   2  -4 -36  596.30   15.81   0
   3  -1 -26  669.93   15.61   0
   4  -1 -25    6.27    8.23   0
   4   0 -11   -1.79    5.95   0
   5  -6 -43    6.99   11.53   0
   9  -4 -23    9.62    9.89   0
   3  -5 -40  816.37   18.53   0
   4  -5 -42  333.06   14.45   0
   7  -2 -21    8.37    9.40   0
   2   0 -16 3323.83   32.64   0
   4  -3 -38  299.90   13.20   0
   4  -2 -33   -5.49    8.13   0
   5  -3 -37    8.61    9.02   0
   5  -2 -32 1062.84   19.25   0
   6  -7 -44  318.39   14.16   0
   6  -1 -17   16.46    8.71   0
   7  -4 -37   19.01   10.89   0
   3  -2 -34  870.99   17.50   0
   4   0 -14  428.87   13.51   0
   6  -5 -43   12.09   10.82   0
   6  -3 -36  584.68   16.50   0
   8  -3 -25   -6.49    9.61   0
   2  -1 -27   -3.26    6.59   0
   5  -5 -44  378.10   15.08   0
   5  -4 -42  341.16   14.45   0
   8  -5 -38  159.90   12.11   0
   9  -4 -26  342.73   13.65   0
   1  -3 -32 1568.87   23.82   0
   3   0 -18  648.76   15.42   0
   6  -6 -45   -5.24   11.43   0
   6  -4 -41    7.09    9.44   0
   7  -5 -42  333.39   14.46   0
   7  -2 -24  800.21   18.01   0
   3  -4 -41    2.85    8.19   0
   3  -3 -39    1.96    9.14   0
   3  -1 -29   16.77    7.57   0
   4  -6 -44  469.09   15.95   0
   4  -1 -28 1036.36   17.82   0
   5   0  -7   -0.38    7.50   0
   1  -2 -30  833.09   17.29   0
   2  -3 -37    9.63    8.63   0
   4  -4 -43    3.42   10.18   0
   6  -1 -20  766.47   17.11   0
   1  -1 -25   -4.14    5.99   0
   2   0 -19    4.07    6.10   0
   4  -2 -36  613.55   15.24   0
   4   0 -17    0.27    7.46   0
   5  -6 -46  195.89   13.62   0
   5  -3 -40  819.63   17.40   0
   5  -2 -35    6.23   10.11   0
   7  -4 -40  334.32   14.61   0
   8  -3 -28  379.53   13.95   0
   2  -4 -39    2.02    8.48   0
   4  -5 -45    9.75   10.28   0
   4  -3 -41    8.17    8.79   0
   5   0 -10  888.56   18.59   0
   7  -3 -35    4.98   10.43   0
   9  -4 -29    5.19    9.71   0
   3  -5 -43   -1.39    9.83   0
   6  -3 -39    8.93    9.35   0
   7  -2 -27    4.49   10.38   0
   2  -1 -30  864.96   17.10   0
   3  -2 -37    7.86    8.09   0
   3   0 -21   -2.89    6.54   0
   6  -1 -23   11.31    9.25   0
   4  -1 -31   26.14    8.24   0
   5  -5 -47   -9.49   10.72   0
   5   0 -13   -5.94    7.50   0
   6  -4 -44  502.97   15.09   0
   7  -5 -45   -3.41   10.70   0
   3  -1 -32 1660.54   21.78   0
   4   0 -20 1646.44   22.19   0
   6  -6 -48  271.83   14.10   0
   6  -2 -34  341.05   12.98   0
   8  -3 -31   -3.85   10.95   0
   0  -2 -25    1.11    5.99   0
   2   0 -22 2320.46   25.84   0
   3  -4 -44  526.69   15.73   0
   3  -3 -42  536.60   15.61   0
   4  -2 -39   11.99    9.43   0
   5  -3 -43    3.16   11.31   0
   1  -3 -35   -2.63    7.57   0
   5  -2 -38  182.06   11.06   0
   7  -4 -43  -12.30   10.94   0
   7  -3 -38  307.51   13.95   0
   7  -2 -30  364.23   14.49   0
   8  -4 -39   14.35   10.22   0
   1  -2 -33   17.99    7.74   0
   2  -3 -40  715.74   16.66   0
   3   0 -24 2044.14   24.45   0
   4  -3 -44  538.07   15.93   0
   5  -6 -49    1.56   11.32   0
   5   0 -16 1020.00   19.05   0
   6  -3 -42  330.86   14.33   0
   6  -1 -26  401.49   13.69   0
   4  -5 -48  493.23   16.36   0
   1   0 -20 1716.42   23.72   0
   2  -4 -42  749.07   17.57   0
   2  -2 -38  398.46   13.53   0
   2  -1 -33    1.10    8.48   0
   3  -2 -40  676.95   15.47   0
   4  -1 -34  811.55   16.47   0
   6  -4 -47    1.71   11.21   0
   6  -2 -37   -3.90   10.19   0
   8  -3 -34  312.22   13.51   0
   8  -2 -23   -0.07    9.82   0
   3  -5 -46  128.72   11.76   0
   3  -1 -35    4.82    9.02   0
   5   0 -19   -0.34    8.25   0
   7  -1 -19   27.55   10.15   0
   2   0 -25   -3.54    6.69   0
   5  -5 -50  209.71   12.84   0
   5  -1 -33   14.32    8.49   0
   7  -2 -33    6.25   10.63   0
   3   0 -27   -1.93    7.71   0
   4  -2 -42  723.80   17.21   0
   5  -3 -46  133.37   12.41   0
   5  -2 -41   -1.86    9.13   0
   6  -1 -29   31.84    9.88   0
   7  -4 -46  181.60   12.66   0
   7  -3 -41   14.82   11.01   0
   9  -3 -27   11.28    8.80   0
   3  -3 -45    2.66    8.46   0
   6  -3 -45    1.69   11.37   0
   8  -2 -26  408.64   14.37   0
   0  -2 -28 1331.89   22.76   0
   0  -1 -23    0.53    5.15   0
   3  -4 -47    9.63    9.91   0
   4  -4 -49   11.51   10.94   0
   4  -1 -37   -7.88    9.88   0
   5   0 -22  412.66   13.70   0
   7  -1 -22  289.81   12.94   0
   8  -3 -37   -2.85   10.04   0
   1  -3 -38  514.93   14.93   0
   1  -2 -36 1290.74   20.99   0
   1   0 -23    2.73    6.09   0
   2  -3 -43    3.51    8.96   0
   6  -2 -40  499.85   16.01   0
   2  -1 -36 1334.31   20.48   0
   3  -2 -43   10.03    8.43   0
   3  -1 -38  533.77   14.82   0
   5  -1 -36  832.17   17.57   0
   6  -4 -50  246.74   13.66   0
   6  -1 -32  690.54   17.06   0
   7  -2 -36  331.46   13.79   0
   2  -2 -41   -2.11    7.44   0
   3   0 -30  826.53   16.95   0
   4  -5 -51   -5.35   10.00   0
   5  -4 -51   11.30   10.65   0
   8  -2 -29   -2.91    9.38   0
   2  -4 -45   -2.89    8.80   0
   4  -2 -45   -4.61   10.55   0
   5  -2 -44  487.27   16.02   0
   5   0 -25    1.57    8.78   0
   7  -3 -44  366.78   13.67   0
   7  -1 -25    4.22    9.48   0
   3   1  -7   36.16    7.51   0
   5  -5 -53   -2.81   10.21   0
   5  -3 -49  -23.28   10.86   0
   3  -3 -48  360.17   14.56   0
   3   1 -10 1316.21   22.22   0
   4  -1 -40  792.20   17.09   0
   6  -3 -48  354.61   14.62   0
   0  -1 -26 1321.23   21.76   0
   2   1 -11   39.58    6.52   0
   3   1 -13   28.59    7.39   0
   4  -4 -52  316.57   14.84   0
   6  -2 -43   -7.19   10.17   0
   6  -1 -35    5.57   10.59   0
   6   0 -18  412.67   14.08   0
   7  -2 -39    6.35   10.04   0
   8  -2 -32  407.84   15.56   0
   2  -1 -39   12.75    8.76   0
   2   0 -31    4.18    7.09   0
   3  -4 -50  383.37   14.49   0
   3  -1 -41    3.56    9.89   0
   3   0 -33    2.94    8.79   0
   4   0 -32  728.58   16.39   0
   5  -1 -39   11.05    8.95   0
   5   0 -28 1004.21   18.64   0
   7  -1 -28  317.55   13.72   0
   0  -2 -31   -3.09    6.83   0
   1  -2 -39    1.93    8.08   0
   2  -3 -46  253.47   12.57   0
   3   1 -16 2438.00   27.67   0
   6  -4 -53    6.22   11.16   0
   1  -3 -41    7.10    7.93   0
   2  -2 -44 1240.23   20.37   0
   5  -2 -47   11.36   10.77   0
   7  -3 -47  -11.14   11.13   0
   2   1 -17   22.30    7.33   0
   4  -5 -54  153.30   13.03   0
   5  -4 -54  153.64   12.01   0
   1   0 -29    0.87    6.43   0
   3   1 -19   40.87    8.09   0
   4  -1 -43    0.90   10.50   0
   4   1 -12 1405.97   22.94   0
   4   1  -9   52.27    8.29   0
   5  -3 -52  327.84   14.42   0
   5   0 -31    7.63    8.90   0
   6  -3 -51   12.66   10.86   0
   6  -2 -46  252.06   13.69   0
   6  -1 -38  313.45   13.62   0
   7  -1 -31   13.60   10.22   0
   8  -2 -35   -5.50    9.41   0
   0  -1 -29    1.18    6.65   0
   1  -1 -37    2.50    8.04   0
   2   0 -34  363.19   11.97   0
   4   0 -35   -8.11    8.92   0
   5  -1 -42  466.45   15.46   0
   6   0 -24  975.57   19.24   0
   2   1 -20 1698.92   22.33   0
   3  -3 -51    2.41   10.34   0
   3  -1 -44  578.29   15.86   0
   3   0 -36  812.12   16.20   0
   4   1 -15   12.56    7.42   0
   2  -1 -42  499.03   13.82   0
   3   1 -22  494.77   13.16   0
   4  -4 -55   -0.58   10.94   0
   4  -3 -53   -5.97   10.07   0
   4   1 -18 1011.33   18.69   0
   0   0 -21    1.53    5.38   0
   3  -4 -53   14.06   10.19   0
   5  -2 -50  449.09   15.35   0
   5   0 -34  480.91   14.78   0
   6   0 -27   -3.83    9.39   0
   7  -1 -34  366.42   14.16   0
   0  -2 -34  355.17   12.97   0
   1   0 -32 2362.86   25.44   0
   2  -3 -49   -0.33    9.08   0
   2  -2 -47   -4.91    9.11   0
   2   1 -23   14.68    6.65   0
   4  -2 -51    8.47   11.06   0
   1  -3 -44  564.92   15.56   0
   1   1 -15    7.35    5.91   0
   2   0 -37    1.87    7.48   0
   4  -1 -46  178.99   11.40   0
   4   0 -38  262.57   11.57   0
   4   1 -21   21.14    8.50   0
   5  -4 -57   17.84   10.18   0
   5  -1 -45   16.87   10.38   0
   6  -2 -49    0.66   10.31   0
   3   0 -39   -1.70    8.28   0
   5  -3 -55    7.96    9.67   0
   0  -1 -32 2315.72   27.31   0
   0   0 -24 5238.62   40.13   0
   1  -1 -40 1069.10   18.31   0
   1   1 -18 1311.99   20.39   0
   2   1 -26  686.80   15.41   0
   3  -1 -47   12.85   10.15   0
   4   1 -24  945.22   18.10   0
   6   0 -30  322.94   13.54   0
   7  -1 -37    4.05    9.78   0
   3  -3 -54  224.40   13.12   0
   1   0 -35    9.59    8.02   0
   1   1 -21   48.61    7.04   0
   3  -2 -52  647.47   16.71   0
   4  -3 -56  348.21   14.19   0
   5  -2 -53  -13.61   11.20   0
   2   0 -40 1270.55   19.93   0
   4  -4 -58  188.22   13.00   0
   4  -1 -49   -1.77   11.13   0
   4   0 -41    0.74    8.48   0
   4   1 -27   11.33    8.55   0
   6   0 -33    2.80    9.88   0
   0  -2 -37    0.82    7.14   0
   1  -2 -45    7.29    8.67   0
   2  -2 -50  378.94   13.69   0
   2   1 -29    9.69    7.02   0
   3   0 -42  425.57   13.24   0
   4  -2 -54   99.40   11.44   0
   5  -1 -48  291.71   13.08   0
   5   1 -17   10.78    8.10   0
   6  -2 -52  326.01   13.98   0
   1   1 -24 2161.85   24.57   0
   3   1 -31   18.13    7.77   0
   2  -8  -8  825.29   19.22   0
   3  -6  -9   20.20    8.67   0
   4  -9   1    7.97   11.93   0
   4  -7  -4  976.52   18.32   0
   5  -5   7    9.42    8.24   0
   1  -6 -14  622.16   16.78   0
   4  -8  -3   14.25   11.27   0
   6  -9  18  402.77   14.64   0
   6  -8  14  258.40   13.54   0
   6  -6  18  419.13   14.43   0
   1  -8  -9    6.23   11.15   0
   1  -5 -15   14.52    8.80   0
   2  -9  -4  381.56   15.82   0
   3  -8  -7  -10.63   11.31   0
   4  -6  -5   -1.56    9.47   0
   4  -5  -3   55.35    8.03   0
   6  -7  13   -1.96    9.78   0
   0  -6 -15    0.95   10.89   0
   0  -5 -16  972.77   19.93   0
   2  -7 -12  607.32   16.74   0
   4  -3   7   36.31    7.38   0
   5  -9   5   22.63   10.52   0
   6  -9  15    3.96   10.71   0
   1  -7 -13    4.90    9.59   0
   5  -8   1   16.73   10.92   0
   5  -4  12 1414.25   23.01   0
   6  -8  11   -1.16   10.54   0
   6  -6  15   -1.88    8.73   0
   1  -9  -5    6.80   10.64   0
   2  -4 -12  932.28   17.48   0
   3  -5 -10  900.46   17.20   0
   3  -3  -3    2.19    6.07   0
   5  -7   0 1009.84   18.44   0
   0  -3 -15    1.88    6.79   0
   2  -5 -14  494.86   14.32   0
   3  -7 -11    3.79   10.92   0
   4  -7  -7   27.81   10.11   0
   5  -5   4 1468.87   21.95   0
   6  -9  12  349.06   14.69   0
   6  -7  10  362.94   14.47   0
   2  -8 -11    7.34   11.94   0
   3  -4  -8 3108.85   29.90   0
   4  -8  -6  381.10   14.11   0
   5  -9   2  367.57   15.01   0
   0  -7 -14  240.89   15.29   0
   0  -4 -17    3.19    7.66   0
   2  -9  -7   -2.22   11.23   0
   3  -6 -12 1057.60   18.70   0
   6  -8   8  843.58   17.60   0
   6  -6  12  587.53   15.93   0
   4  -5  -6 1138.54   19.24   0
   5 -10   6  207.80   12.56   0
   5  -8  -2  400.48   15.08   0
   6  -9   9   11.19   10.84   0
   1  -8 -12  422.36   16.67   0
   2  -3 -10 2221.86   26.72   0
   5  -7  -3   12.67    9.96   0
   5  -4   9   52.02    8.38   0
   6  -7   7   27.35   10.53   0
   1  -6 -17   15.50   10.00   0
   2  -7 -15   20.02   11.12   0
   4  -9  -5   12.87   11.23   0
   1  -7 -16 1004.29   21.27   0
   2  -6 -16 1022.57   18.89   0
   4  -3   4 1508.75   23.51   0
   5 -10   3   -3.70   12.13   0
   5  -9  -1    4.15   10.36   0
   6  -8   5   10.32    9.15   0
   6  -6   9    0.89    9.09   0
   1  -5 -18  973.54   19.26   0
   4  -8  -9   -6.42   11.87   0
   4  -7 -10  584.67   15.55   0
   5  -5   1   -8.12    7.22   0
   0  -6 -18  407.47   16.26   0
   2  -9 -10  344.49   15.97   0
   3  -9  -9   26.53   10.90   0
   3  -7 -14  583.54   16.85   0
   3  -5 -13    8.72    8.88   0
   6  -7   4  466.72   15.41   0
   0  -5 -19    0.53    9.01   0
   2  -8 -14  234.08   14.61   0
   4  -4  -4 1782.56   23.52   0
   5  -8  -5   -3.16    9.59   0
   5  -6  -4 1047.76   19.26   0
   2  -4 -15   -3.33    8.01   0
   3  -6 -15    8.91    9.40   0
   3  -3  -6  619.25   14.91   0
   4  -9  -8  653.59   17.85   0
   5  -9  -4  322.04   15.07   0
   5  -7  -6  271.70   13.25   0
   6  -9   3   -0.24   11.48   0
   7  -9  19   -3.95   10.42   0
   7  -8  18  403.50   14.48   0
   3  -4 -11   73.73    8.14   0
   4  -6 -11    5.95    8.22   0
   4  -5  -9   10.27    8.99   0
   5 -10   0  428.70   14.71   0
   5  -4   6  499.83   14.57   0
   6  -6   6  658.30   16.61   0
   6  -5  14  600.42   16.21   0
   1  -8 -15   14.15   11.49   0
   7  -9  16  383.43   15.05   0
   7  -8  15    6.05   10.35   0
   4  -8 -12  533.85   16.83   0
   6  -7   1    5.43   10.29   0
   2  -7 -18  345.49   14.89   0
   3  -9 -12  341.84   15.18   0
   4  -7 -13   41.52    9.88   0
   7  -9  13    1.39   10.06   0
   1  -6 -20  727.85   17.97   0
   2  -9 -13   -4.46   12.17   0
   2  -6 -19   -0.20    9.72   0
   4  -3   1   60.64    8.18   0
   5 -10  -3   -2.56   10.97   0
   6  -9   0  649.52   16.76   0
   6  -5  11   26.81    8.95   0
   7  -8  12  393.94   15.00   0
   1  -7 -19   29.12   11.10   0
   1  -4 -19   46.42    8.42   0
   2  -8 -17   -8.01   11.95   0
   2  -3 -13   51.96    8.50   0
   4  -9 -11    9.04   11.34   0
   5  -9  -7   22.62   10.48   0
   5  -7  -9    4.95   10.06   0
   5  -6  -7   -1.46    8.24   0
   6  -6   3   -1.73    7.77   0
   3  -8 -16  731.31   17.42   0
   3  -5 -16 2313.57   26.20   0
   5  -4   3    0.19    7.58   0
   7  -9  10  319.72   14.35   0
   7  -7  14  248.73   13.25   0
   4  -6 -14  473.11   14.53   0
   4  -4  -7   -6.27    6.76   0
   7  -8   9    6.84   10.46   0
   1  -5 -21   29.16    8.00   0
   3  -6 -18  572.43   15.03   0
   4  -5 -12 1222.20   19.77   0
   6  -9  -3    6.95   11.23   0
   6  -8  -4  362.86   14.94   0
   6  -5   8 1170.25   20.70   0
   1  -8 -18  414.95   17.35   0
   4  -8 -15   -5.46   11.95   0
   5 -10  -6  213.26   13.99   0
   5  -8 -11    9.35   11.36   0
   7  -9   7   10.48   11.03   0
   7  -7  11    2.49    9.20   0
  -1  -3 -19   38.92    8.46   0
   2  -4 -18 1364.02   20.78   0
   3  -9 -15    1.69   12.40   0
   3  -4 -14  854.00   16.49   0
   3  -3  -9    1.98    6.14   0
   4  -7 -16  715.38   16.47   0
   5  -9 -10  281.83   14.51   0
   6  -6   0 1267.99   20.22   0
   7  -8   6  218.24   12.83   0
   0  -5 -22  405.86   14.55   0
   2  -9 -16  408.41   17.07   0
   2  -7 -21    4.04   10.73   0
   5  -6 -10  708.50   16.68   0
   5  -7 -12  749.71   16.62   0
   7  -9   4  393.75   14.45   0
   7  -7   8  945.63   19.56   0
   2  -8 -20  378.04   16.25   0
   3  -8 -19   -9.39   12.04   0
   4  -3  -2  994.60   18.75   0
   6  -9  -6  352.00   14.14   0
   6  -8  -7    9.04   11.20   0
   6  -5   5    3.80    8.27   0
   1  -7 -22  316.12   14.74   0
   1  -6 -23    6.61    9.82   0
   7  -8   3   -1.95   10.82   0
   3  -5 -19   23.68    8.83   0
   4  -6 -17    2.87    8.46   0
   4  -4 -10  501.84   13.30   0
   5  -8 -14  307.05   14.56   0
   6  -6  -3  -11.76    9.39   0
   3  -6 -21    7.95    9.41   0
   4  -8 -18  377.10   14.20   0
   4  -5 -15   40.51    9.48   0
   5  -9 -13   -3.21   10.89   0
   5  -5  -8 1244.27   19.43   0
   7  -9   1    7.48   10.19   0
   7  -7   5    0.30    9.81   0
   3  -9 -18  434.73   15.23   0
   4  -7 -19    1.28   10.20   0
   2  -3 -16 2242.79   26.05   0
   5  -7 -15   13.81   10.81   0
   5  -6 -13   19.29    9.78   0
   6  -9  -9   13.04   10.47   0
   6  -7  -8  998.81   18.51   0
   6  -5   2  495.07   14.47   0
   7  -8   0  723.01   17.82   0
   0  -4 -23    4.18    8.71   0
   1  -5 -24  940.08   19.21   0
   2  -9 -19   11.54   11.45   0
   3  -4 -17    1.28    8.21   0
   6  -8 -10  384.65   13.80   0
   7  -9  -2  215.88   13.71   0
   2  -7 -24  799.45   19.25   0
   2  -5 -23    9.71    7.80   0
   3  -3 -12 2809.57   28.94   0
   5  -4  -3   61.47    7.69   0
   6  -6  -6  379.45   13.76   0
   7  -7   2  441.38   14.88   0
   0  -3 -21    0.28    7.60   0
   3  -8 -22  217.13   12.94   0
   3  -7 -23    1.99    9.05   0
   5  -9 -16  642.14   17.71   0
   5  -8 -17    8.07   11.37   0
   2  -8 -23    2.73   10.84   0
   7  -8  -3    4.85   11.08   0
   0  -5 -25    8.78    9.38   0
   2  -6 -25    5.41    8.16   0
   2  -2 -11   -0.17    5.89   0
   4  -6 -20  971.83   18.11   0
   4  -4 -13    6.53    7.75   0
   5  -5 -11   -2.22    7.57   0
   6  -9 -12  293.75   14.62   0
   6  -7 -11    9.91   10.17   0
   6  -5  -1   35.85    8.96   0
   7  -6   7   37.74    9.28   0
   1  -7 -25   -0.90   10.69   0
   3  -9 -21    1.10   12.04   0
   3  -5 -22  458.90   14.28   0
   4  -9 -20  281.09   14.61   0
   4  -5 -18  548.04   14.88   0
   6  -8 -13   -7.20   10.86   0
   7  -7  -1   -7.23   10.29   0
   1  -6 -26  391.34   14.80   0
   4  -7 -22  330.87   13.21   0
   5  -7 -18  672.54   16.17   0
   5  -6 -16  954.08   17.76   0
   8  -9   8  303.03   13.60   0
   5  -4  -6 1143.39   19.27   0
   7  -6   4  468.19   14.87   0
   3  -8 -25   -0.16   11.46   0
   5  -9 -19   11.18   10.86   0
   5  -8 -20  424.10   14.71   0
   6  -9 -15   20.10   11.86   0
   7  -7  -4  391.65   14.39   0
   8  -9   5    5.89    9.47   0
   2  -7 -27   -0.43   11.26   0
   2  -3 -19    1.66    6.59   0
   3  -7 -26  314.29   14.22   0
   3  -4 -20 1120.17   18.40   0
   5  -5 -14  860.45   17.33   0
   6  -7 -14  234.42   13.38   0
   6  -5  -4 1074.29   18.57   0
   1  -5 -27   16.53    9.12   0
   1  -4 -25   -0.04    6.84   0
   2  -8 -26  414.23   17.24   0
   3  -3 -15   -0.42    6.54   0
   4  -6 -23   -5.47    9.70   0
   5  -3   5   20.41    7.43   0
   6  -8 -16  750.35   17.06   0
   4  -9 -23   17.56   11.03   0
   4  -4 -16 1956.35   23.91   0
   5  -7 -21    3.11   11.00   0
   6  -4   7   -1.15    7.91   0
   8  -9   2  243.96   12.66   0
   2  -6 -28  681.42   17.55   0
   3  -2  -7    2.04    6.91   0
   4  -7 -25   36.26   10.86   0
   4  -5 -21   10.89    9.16   0
   5  -6 -19    2.65    8.63   0
   8  -8   4  473.42   15.68   0
   3  -5 -25   -3.82    8.64   0
   7  -9 -11    1.04   10.30   0
   7  -7  -7   -3.86    8.67   0
   5  -9 -22  212.43   13.85   0
   5  -8 -23   12.00   11.21   0
   6  -9 -18  265.98   13.37   0
   6  -5  -7   -5.65    8.69   0
   8  -9  -1    5.19    9.87   0
   1  -6 -29   22.23    9.93   0
   1  -3 -23    6.69    7.34   0
   2  -2 -14  376.23   12.45   0
   5  -3   2 1047.73   20.47   0
   6  -7 -17   17.97    9.40   0
   7  -6  -2  579.34   15.94   0
   8  -8   1    4.65   10.71   0
   0  -3 -24 1961.67   27.04   0
   3  -8 -28  387.87   15.94   0
   5  -5 -17    0.85    8.83   0
   6  -8 -19   -5.89   10.10   0
   6  -4   4 1198.78   21.16   0
   1  -2 -18 1245.28   21.21   0
   3  -7 -29   25.87   11.53   0
   4  -8 -27    1.86   11.26   0
   7  -9 -14  279.07   14.50   0
   3  -4 -23   39.54    8.03   0
   4  -9 -26  360.25   14.87   0
   4  -6 -26  570.91   16.00   0
   4  -3 -11   78.79    7.79   0
   5  -7 -24  609.13   16.96   0
   6  -6 -15    1.17    8.45   0
   8  -9  -4  363.24   14.55   0
   5  -6 -22  371.74   13.14   0
   1  -2 -36 1291.94   20.41   0
   3  -3 -39    3.91    7.65   0
   3  -2 -31   11.66    7.11   0
   4  -3 -35    8.19    8.01   0
   5  -2  -8 2649.62   28.56   0
   6  -6 -42  313.84   13.11   0
   6  -3 -15    4.18    6.78   0
   7  -4 -16  696.20   16.10   0
   8  -5 -14  280.35   13.53   0
   2  -1 -24 2023.01   23.66   0
   5  -2 -11    8.64    7.45   0
   6  -3 -18  621.12   15.10   0
   3  -1 -17   23.40    6.45   0
   4  -4 -43    3.77    8.33   0
   5  -5 -44  421.14   13.90   0
   5  -4 -39   -2.47    9.88   0
   6  -4 -32  632.60   15.88   0
   7  -6 -38  129.14   12.03   0
   7  -4 -19   -1.56    8.91   0
   8  -6 -28  310.59   12.88   0
   3  -6 -51   -9.00   10.84   0
   3  -5 -49    9.39   10.34   0
   4  -6 -50  242.36   12.72   0
   4  -2 -27    2.83    8.15   0
   5  -3 -31    8.16    7.98   0
   5  -2 -14  497.18   13.47   0
   8  -5 -17   -4.79    8.79   0
   0  -2 -37    2.52    6.88   0
   0  -1 -29   -7.64    6.76   0
   2  -3 -43    4.44    9.14   0
   4  -5 -48  466.76   15.06   0
   6  -5 -40  403.22   13.64   0
   3  -2 -34  876.97   16.20   0
   6  -6 -45   -1.17   10.86   0
   6  -3 -21   36.58    7.64   0
   7  -5 -33    7.51    9.38   0
   7  -4 -22  340.27   13.30   0
   1  -3 -44  555.59   15.31   0
   2  -4 -48  624.50   16.42   0
   2  -1 -27   -4.34    7.45   0
   3  -4 -47    9.06    8.53   0
   3  -1 -20 1719.04   21.68   0
   5  -2 -17    6.01    7.65   0
   8  -6 -31   -4.86    9.98   0
   8  -5 -20  399.20   14.16   0
   1  -2 -39   -5.26    7.75   0
   6  -4 -35    5.95    9.80   0
   4  -2 -30  310.02   11.13   0
   5  -5 -47   -1.83   10.04   0
   5  -4 -42  360.74   13.51   0
   5  -3 -34  714.12   15.19   0
   6  -3 -24  937.02   17.44   0
   7  -6 -41  -10.17   10.06   0
   7  -4 -25   26.30   10.09   0
   6  -5 -43    9.27   10.29   0
   7  -5 -36  538.09   15.31   0
   8  -5 -23    7.44    9.81   0
   3  -1 -23   11.56    6.55   0
   4  -3 -41   -3.34    9.80   0
   8  -6 -34  322.56   13.09   0
   3  -5 -52  331.35   13.46   0
   3  -2 -37    9.12    7.38   0
   4  -6 -53   -2.33    9.46   0
   4  -5 -51  -11.54    9.85   0
   6  -6 -48  283.88   12.83   0
   0  -1 -32 2291.00   27.28   0
   2  -3 -46  267.32   11.64   0
   2  -1 -30  857.61   15.91   0
   3  -3 -45    4.05    9.42   0
   7  -4 -28  712.78   16.77   0
   8  -5 -26  375.07   13.65   0
   0  -2 -40 1271.30   21.62   0
   3  -4 -50  422.45   14.81   0
   4  -2 -33   -4.31    7.46   0
   5  -3 -37    0.63    8.41   0
   7  -6 -44  314.15   13.25   0
   9  -6 -21    3.04    9.45   0
   2  -2 -41   -2.74    8.47   0
   3  -1 -26  670.61   14.30   0
   4  -1 -10 1353.64   21.00   0
   4  -1  -7   39.53    7.27   0
   5  -4 -45   21.59   10.37   0
   7  -5 -39   18.29    9.94   0
   1  -3 -47    2.56    8.48   0
   1  -2 -42  516.81   14.41   0
   2  -4 -51   -3.95    8.85   0
   4  -1 -13   22.18    7.37   0
   4  -1  -4 1497.96   23.56   0
   6  -5 -46  201.92   12.30   0
   8  -5 -29   -2.94   10.34   0
   1  -1 -34 1275.31   19.26   0
   4  -3 -44  524.09   15.27   0
   5  -2 -26  932.77   16.52   0
   7  -4 -31   -0.03    8.24   0
   2  -1 -33   11.86    7.64   0
   3  -2 -40  691.70   14.94   0
   6  -4 -41   -3.26   10.16   0
   3  -1 -29   15.46    8.15   0
   4  -2 -36  616.76   14.42   0
   5  -3 -40  834.90   17.19   0
   2  -3 -49    2.71    9.36   0
   3  -5 -55    2.20   10.29   0
   3  -3 -48  382.46   14.18   0
   4  -5 -54  152.80   12.52   0
   4  -1 -19   41.85    6.99   0
   5  -2 -29   -2.67    8.52   0
   7  -5 -42  322.93   13.64   0
   8  -5 -32  486.98   14.74   0
   9  -6 -27   10.38    8.67   0
   0  -1 -35    3.22    7.05   0
   5  -4 -48  511.07   15.18   0
   6  -3 -33    7.62    8.36   0
   7  -3 -14  534.59   14.76   0
   7  -3 -11    9.63    7.91   0
   1   0 -20 1685.87   22.89   0
   2  -2 -44 1255.41   20.20   0
   3  -4 -53   11.51    9.52   0
   4  -1 -22  486.43   13.37   0
   6  -5 -49   -4.03    9.97   0
   0  -2 -43    8.48    8.10   0
   1  -1 -37    1.86    7.33   0
   4  -4 -52  283.61   13.23   0
   6  -4 -44  497.77   15.19   0
   8  -4 -18  347.43   13.91   0
   1  -2 -45    8.99    8.17   0
   2  -1 -36 1314.83   19.10   0
   2   0 -13    2.32    6.84   0
   3  -2 -43    9.22    7.99   0
   3  -1 -32 1660.74   20.81   0
   4  -3 -47    7.89    8.40   0
   4  -2 -39    0.33    8.07   0
   5  -3 -43  -11.21    9.57   0
   5  -2 -32 1119.26   18.64   0
   7  -3 -20  744.90   16.45   0
   8  -5 -35   -1.32    9.64   0
   1  -3 -50  322.39   13.20   0
   2  -4 -54   89.08   10.96   0
   6  -3 -36  587.39   14.51   0
   6  -2 -13    3.28    7.51   0
   6  -2 -10  541.59   14.44   0
   7  -5 -45   10.84    9.87   0
   8  -4 -21    7.97    8.97   0
  -1  -1 -33   13.19    6.32   0
   1   0 -23    3.76    5.59   0
   2   0 -16 3273.36   30.87   0
   6  -2 -16 1098.12   18.90   0
   6  -2  -7    1.49    7.48   0
   7  -3 -23    5.80    9.01   0
   0   0 -24 5237.88   41.03   0
   2   0 -19   -1.57    6.88   0
   3  -3 -51   -1.71    9.57   0
   5  -4 -51    3.46    9.67   0
   6  -2 -19    6.79    8.34   0
   8  -4 -24  586.95   15.55   0
   0  -1 -38  368.56   13.08   0
   2  -3 -52  611.41   15.92   0
   3  -1 -35    8.93    8.32   0
   4  -1 -28 1012.42   17.41   0
   5  -2 -35   22.16    9.36   0
   8  -5 -38  148.02   10.94   0
   1   0 -26 1394.62   20.24   0
   2  -2 -47    1.07    8.74   0
   4  -2 -42  763.92   15.70   0
   6  -4 -47    8.39    9.50   0
   6  -3 -39   11.32   10.12   0
   6  -2 -22  535.28   14.10   0
   7  -4 -40  334.28   13.15   0
   7  -3 -26  325.24   11.84   0
   1  -1 -40 1098.90   18.59   0
   2   0 -22 2393.84   25.29   0
   3  -4 -56  328.00   13.55   0
   4  -4 -55    2.16    9.71   0
   5  -3 -46  146.72   10.52   0
   8  -4 -27   -1.47    8.87   0
   6  -2 -25    1.48    8.59   0
   7  -3 -29   11.10    9.85   0
   0   0 -27    0.51    5.98   0
   1  -2 -48  598.63   15.21   0
   4  -1 -31   26.15    7.54   0
   5  -2 -38  168.58   10.92   0
   2   0 -25    1.09    6.09   0
   3  -1 -38  552.64   13.36   0
   6  -3 -42  338.86   13.51   0
   8  -4 -30  221.55   12.37   0
   1   0 -29    1.60    5.77   0
   3  -3 -54  238.23   12.57   0
   4  -2 -45   -8.11    9.44   0
   6  -4 -50  268.00   12.61   0
   6  -2 -28  692.77   14.81   0
   7  -4 -43    8.27    8.96   0
   7  -3 -32  543.92   14.99   0
   4  -1 -34  820.69   16.11   0
   5  -3 -49   -3.15    9.73   0
   5  -1 -15   16.94    7.29   0
   5  -1 -12 1468.33   20.99   0
   2  -2 -50  353.45   11.96   0
   2   0 -28 1353.87   18.74   0
   5  -1 -18  997.66   16.77   0
  -8   5 -22  251.48   17.01   0
  -6   3   3    9.09   10.12   0
  -5   4 -48  312.97   18.10   0
  -4   3 -46  200.58   17.26   0
  -2   1 -36 1294.57   25.64   0
  -8   5 -25   19.65   13.31   0
  -8   5  -1    2.31   11.52   0
  -7   4 -29   19.61   13.45   0
  -5   2 -25  -10.61   10.98   0
  -5   2  -1    3.82    8.33   0
  -7   4   4  900.13   21.30   0
  -6   3 -30  379.43   16.91   0
  -5   3 -41   -3.75   13.29   0
  -8   5 -28  365.06   18.32   0
  -3   1 -31   -1.66    9.20   0
  -3   2 -44  553.06   19.58   0
  -9   6 -18  432.65   19.73   0
  -9   6  -9   13.62   14.50   0
  -7   4 -32  535.54   19.97   0
  -6   4 -43    0.08   13.61   0
  -6   5 -50  210.65   19.08   0
  -5   2 -28  604.81   17.67   0
  -4   2 -39    2.22   12.69   0
  -9   6 -21   17.61   15.43   0
  -9   6  -6  198.01   18.10   0
  -6   3 -33   23.50   14.02   0
  -4   1 -17   -5.26   11.68   0
  -4   1 -14  875.80   19.94   0
  -4   1 -11   68.98   11.92   0
  -8   5 -31  -11.51   15.17   0
  -4   1  -8 2993.66   35.59   0
  -4   3 -49   -2.11   14.56   0
  -1   0 -25    3.21    8.89   0
  -9   6  -3   13.58   13.22   0
  -7   4 -35   -8.96   14.75   0
  -5   2 -31   13.05   11.97   0
  -5   3 -44  516.76   19.73   0
  -5   4 -51    2.95   13.94   0
  -4   1 -20 1056.09   21.94   0
  -3   1 -34  926.35   21.66   0
  -2   1 -39   -0.86   10.92   0
;
_shelx_hkl_checksum              26420
loop_
_space_group_symop_operation_xyz
'x, y, z'
'-y, x-y, z'
'-x+y, -x, z'
'y, x, -z+1/2'
'x-y, -y, -z+1/2'
'-x, -x+y, -z+1/2'
'x+2/3, y+1/3, z+1/3'
'-y+2/3, x-y+1/3, z+1/3'
'-x+y+2/3, -x+1/3, z+1/3'
'y+2/3, x+1/3, -z+5/6'
'x-y+2/3, -y+1/3, -z+5/6'
'-x+2/3, -x+y+1/3, -z+5/6'
'x+1/3, y+2/3, z+2/3'
'-y+1/3, x-y+2/3, z+2/3'
'-x+y+1/3, -x+2/3, z+2/3'
'y+1/3, x+2/3, -z+7/6'
'x-y+1/3, -y+2/3, -z+7/6'
'-x+1/3, -x+y+2/3, -z+7/6'
'-x, -y, -z'
'y, -x+y, -z'
'x-y, x, -z'
'-y, -x, z-1/2'
'-x+y, y, z-1/2'
'x, x-y, z-1/2'
'-x+2/3, -y+1/3, -z+1/3'
'y+2/3, -x+y+1/3, -z+1/3'
'x-y+2/3, x+1/3, -z+1/3'
'-y+2/3, -x+1/3, z-1/6'
'-x+y+2/3, y+1/3, z-1/6'
'x+2/3, x-y+1/3, z-1/6'
'-x+1/3, -y+2/3, -z+2/3'
'y+1/3, -x+y+2/3, -z+2/3'
'x-y+1/3, x+2/3, -z+2/3'
'-y+1/3, -x+2/3, z+1/6'
'-x+y+1/3, y+2/3, z+1/6'
'x+1/3, x-y+2/3, z+1/6'
loop_
_atom_site_label
_atom_site_type_symbol
_atom_site_fract_x
_atom_site_fract_y
_atom_site_fract_z
_atom_site_U_iso_or_equiv
_atom_site_adp_type
_atom_site_occupancy
_atom_site_site_symmetry_order
_atom_site_calc_flag
_atom_site_refinement_flags_posn
_atom_site_refinement_flags_adp
_atom_site_refinement_flags_occupancy
Ba1 Ba 0.0000 0.0000 0.2500 0.00471(2) Uani 1 6 d S T P
Mg2 Mg 0.0000 0.0000 0.0000 0.00457(7) Uani 1 6 d S T P
O3 O 0.11020(13) 0.81779(13) 0.12928(2) 0.00912(9) Uani 1 1 d . . .
C4 C 0.0000 0.0000 0.13043(3) 0.00515(11) Uani 1 3 d S T P
loop_
_atom_site_aniso_label
_atom_site_aniso_U_11
_atom_site_aniso_U_22
_atom_site_aniso_U_33
_atom_site_aniso_U_23
_atom_site_aniso_U_13
_atom_site_aniso_U_12
Ba1 0.00405(2) 0.00405(2) 0.00603(3) 0.000 0.000 0.00203(1)
Mg2 0.00406(11) 0.00406(11) 0.00558(16) 0.000 0.000 0.00203(5)
O3 0.0118(2) 0.0095(2) 0.01034(17) -0.00195(14) -0.00348(15) 0.0085(2)
C4 0.00497(17) 0.00497(17) 0.0055(2) 0.000 0.000 0.00248(8)
loop_
_atom_type_symbol
_atom_type_description
_atom_type_scat_dispersion_real
_atom_type_scat_dispersion_imag
_atom_type_scat_source
C C 0.0033 0.0016 'International Tables Vol C Tables 4.2.6.8 and 6.1.1.4'
O O 0.0106 0.0060 'International Tables Vol C Tables 4.2.6.8 and 6.1.1.4'
Mg Mg 0.0486 0.0363 'International Tables Vol C Tables 4.2.6.8 and 6.1.1.4'
Ba Ba -0.3244 2.2819 'International Tables Vol C Tables 4.2.6.8 and 6.1.1.4'
loop_
_geom_angle_atom_site_label_1
_geom_angle_atom_site_label_2
_geom_angle_atom_site_label_3
_geom_angle
_geom_angle_site_symmetry_1
_geom_angle_site_symmetry_3
O3 Ba1 O3 123.74(2) 35_445 26_445
O3 Ba1 O3 137.64(2) 35_445 25_455
O3 Ba1 O3 92.660(17) 26_445 25_455
O3 Ba1 O3 92.660(17) 35_445 34_545
O3 Ba1 O3 137.64(2) 26_445 34_545
O3 Ba1 O3 67.23(2) 25_455 34_545
O3 Ba1 O3 92.659(17) 35_445 36
O3 Ba1 O3 67.23(2) 26_445 36
O3 Ba1 O3 123.74(2) 25_455 36
O3 Ba1 O3 92.658(17) 34_545 36
O3 Ba1 O3 67.23(2) 35_445 27
O3 Ba1 O3 92.659(17) 26_445 27
O3 Ba1 O3 92.658(17) 25_455 27
O3 Ba1 O3 123.74(2) 34_545 27
O3 Ba1 O3 137.64(2) 36 27
O3 Ba1 O3 176.304(11) 35_445 27_545
O3 Ba1 O3 57.15(2) 26_445 27_545
O3 Ba1 O3 43.90(2) 25_455 27_545
O3 Ba1 O3 85.188(13) 34_545 27_545
O3 Ba1 O3 84.451(13) 36 27_545
O3 Ba1 O3 116.470(19) 27 27_545
O3 Ba1 O3 57.15(2) 35_445 36_455
O3 Ba1 O3 176.304(11) 26_445 36_455
O3 Ba1 O3 85.188(13) 25_455 36_455
O3 Ba1 O3 43.90(2) 34_545 36_455
O3 Ba1 O3 116.470(19) 36 36_455
O3 Ba1 O3 84.451(13) 27 36_455
O3 Ba1 O3 122.24(2) 27_545 36_455
O3 Ba1 O3 43.90(2) 35_445 34_655
O3 Ba1 O3 84.450(13) 26_445 34_655
O3 Ba1 O3 176.304(12) 25_455 34_655
O3 Ba1 O3 116.470(19) 34_545 34_655
O3 Ba1 O3 57.15(2) 36 34_655
O3 Ba1 O3 85.190(13) 27 34_655
O3 Ba1 O3 134.87(2) 27_545 34_655
O3 Ba1 O3 97.574(13) 36_455 34_655
O3 Ba1 O3 84.450(13) 35_445 25_565
O3 Ba1 O3 43.90(2) 26_445 25_565
O3 Ba1 O3 116.470(19) 25_455 25_565
O3 Ba1 O3 176.304(12) 34_545 25_565
O3 Ba1 O3 85.190(13) 36 25_565
O3 Ba1 O3 57.15(2) 27 25_565
O3 Ba1 O3 97.574(13) 27_545 25_565
O3 Ba1 O3 134.87(2) 36_455 25_565
O3 Ba1 O3 59.83(2) 34_655 25_565
O3 Ba1 O3 85.189(13) 35_445 26_345
O3 Ba1 O3 116.470(19) 26_445 26_345
O3 Ba1 O3 57.15(2) 25_455 26_345
O3 Ba1 O3 84.452(13) 34_545 26_345
O3 Ba1 O3 176.304(12) 36 26_345
O3 Ba1 O3 43.89(2) 27 26_345
O3 Ba1 O3 97.574(13) 27_545 26_345
O3 Ba1 O3 59.83(2) 36_455 26_345
O3 Ba1 O3 122.24(2) 34_655 26_345
O3 Ba1 O3 97.573(13) 25_565 26_345
O3 Ba1 O3 116.470(19) 35_445 35_435
O3 Ba1 O3 85.189(13) 26_445 35_435
O3 Ba1 O3 84.452(13) 25_455 35_435
O3 Ba1 O3 57.15(2) 34_545 35_435
O3 Ba1 O3 43.89(2) 36 35_435
O3 Ba1 O3 176.304(12) 27 35_435
O3 Ba1 O3 59.83(2) 27_545 35_435
O3 Ba1 O3 97.574(13) 36_455 35_435
O3 Ba1 O3 97.573(13) 34_655 35_435
O3 Ba1 O3 122.24(2) 25_565 35_435
O3 Ba1 O3 134.87(2) 26_345 35_435
O3 Mg2 O3 180.00(4) 30_455 18_544
O3 Mg2 O3 86.95(2) 30_455 28
O3 Mg2 O3 93.05(2) 18_544 28
O3 Mg2 O3 93.05(2) 30_455 16_444
O3 Mg2 O3 86.95(2) 18_544 16_444
O3 Mg2 O3 180.00(4) 28 16_444
O3 Mg2 O3 86.95(2) 30_455 29_445
O3 Mg2 O3 93.05(2) 18_544 29_445
O3 Mg2 O3 86.95(2) 28 29_445
O3 Mg2 O3 93.05(2) 16_444 29_445
O3 Mg2 O3 93.05(2) 30_455 17_554
O3 Mg2 O3 86.95(2) 18_544 17_554
O3 Mg2 O3 93.05(2) 28 17_554
O3 Mg2 O3 86.95(2) 16_444 17_554
O3 Mg2 O3 180.00(4) 29_445 17_554
O3 Mg2 Ba1 40.505(15) 30_455 13_444
O3 Mg2 Ba1 139.495(15) 18_544 13_444
O3 Mg2 Ba1 49.391(16) 28 13_444
O3 Mg2 Ba1 130.609(16) 16_444 13_444
O3 Mg2 Ba1 98.493(17) 29_445 13_444
O3 Mg2 Ba1 81.507(17) 17_554 13_444
O3 Mg2 Ba1 139.495(15) 30_455 25
O3 Mg2 Ba1 40.505(15) 18_544 25
O3 Mg2 Ba1 130.609(16) 28 25
O3 Mg2 Ba1 49.391(16) 16_444 25
O3 Mg2 Ba1 81.507(17) 29_445 25
O3 Mg2 Ba1 98.493(17) 17_554 25
Ba1 Mg2 Ba1 180.0 13_444 25
O3 Mg2 Ba1 81.507(17) 30_455 25_445
O3 Mg2 Ba1 98.493(17) 18_544 25_445
O3 Mg2 Ba1 139.494(15) 28 25_445
O3 Mg2 Ba1 40.506(15) 16_444 25_445
O3 Mg2 Ba1 130.609(16) 29_445 25_445
O3 Mg2 Ba1 49.391(16) 17_554 25_445
Ba1 Mg2 Ba1 102.791(1) 13_444 25_445
Ba1 Mg2 Ba1 77.209(1) 25 25_445
O3 Mg2 Ba1 98.493(17) 30_455 13_554
O3 Mg2 Ba1 81.507(17) 18_544 13_554
O3 Mg2 Ba1 40.506(15) 28 13_554
O3 Mg2 Ba1 139.494(15) 16_444 13_554
O3 Mg2 Ba1 49.391(16) 29_445 13_554
O3 Mg2 Ba1 130.609(16) 17_554 13_554
Ba1 Mg2 Ba1 77.209(1) 13_444 13_554
Ba1 Mg2 Ba1 102.791(1) 25 13_554
Ba1 Mg2 Ba1 180.0 25_445 13_554
O3 Mg2 Ba1 130.609(16) 30_455 25_455
O3 Mg2 Ba1 49.391(16) 18_544 25_455
O3 Mg2 Ba1 81.507(16) 28 25_455
O3 Mg2 Ba1 98.493(16) 16_444 25_455
O3 Mg2 Ba1 139.495(15) 29_445 25_455
O3 Mg2 Ba1 40.506(15) 17_554 25_455
Ba1 Mg2 Ba1 102.791(1) 13_444 25_455
Ba1 Mg2 Ba1 77.209(1) 25 25_455
Ba1 Mg2 Ba1 77.209(1) 25_445 25_455
Ba1 Mg2 Ba1 102.791(1) 13_554 25_455
O3 Mg2 Ba1 49.391(16) 30_455 13_544
O3 Mg2 Ba1 130.609(16) 18_544 13_544
O3 Mg2 Ba1 98.493(16) 28 13_544
O3 Mg2 Ba1 81.507(16) 16_444 13_544
O3 Mg2 Ba1 40.506(15) 29_445 13_544
O3 Mg2 Ba1 139.495(15) 17_554 13_544
Ba1 Mg2 Ba1 77.209(1) 13_444 13_544
Ba1 Mg2 Ba1 102.791(1) 25 13_544
Ba1 Mg2 Ba1 102.791(1) 25_445 13_544
Ba1 Mg2 Ba1 77.209(1) 13_554 13_544
Ba1 Mg2 Ba1 180.0 25_455 13_544
C4 O3 Mg2 138.67(5) 1_565 16_554
C4 O3 Ba1 101.33(4) 1_565 25_455
Mg2 O3 Ba1 110.90(2) 16_554 25_455
C4 O3 Ba1 87.11(3) 1_565 25_565
Mg2 O3 Ba1 100.35(2) 16_554 25_565
Ba1 O3 Ba1 116.471(19) 25_455 25_565
O3 C4 O3 119.913(5) 3_455 2_665
O3 C4 O3 119.911(5) 3_455 1_545
O3 C4 O3 119.911(5) 2_665 1_545
O3 C4 Ba1 70.01(3) 3_455 25_445
O3 C4 Ba1 148.77(6) 2_665 25_445
O3 C4 Ba1 56.22(3) 1_545 25_445
O3 C4 Ba1 148.77(6) 3_455 25
O3 C4 Ba1 56.22(3) 2_665 25
O3 C4 Ba1 70.01(3) 1_545 25
Ba1 C4 Ba1 99.066(18) 25_445 25
O3 C4 Ba1 56.22(3) 3_455 25_455
O3 C4 Ba1 70.01(3) 2_665 25_455
O3 C4 Ba1 148.77(6) 1_545 25_455
Ba1 C4 Ba1 99.065(18) 25_445 25_455
Ba1 C4 Ba1 99.065(18) 25 25_455
loop_
_geom_bond_atom_site_label_1
_geom_bond_atom_site_label_2
_geom_bond_distance
_geom_bond_site_symmetry_2
Ba1 O3 2.7904(5) 35_445
Ba1 O3 2.7904(5) 26_445
Ba1 O3 2.7904(6) 25_455
Ba1 O3 2.7904(6) 34_545
Ba1 O3 2.7904(5) 36
Ba1 O3 2.7904(5) 27
Ba1 O3 3.0971(6) 27_545
Ba1 O3 3.0971(6) 36_455
Ba1 O3 3.0972(6) 34_655
Ba1 O3 3.0972(6) 25_565
Ba1 O3 3.0972(6) 26_345
Ba1 O3 3.0972(6) 35_435
Mg2 O3 2.0558(6) 30_455
Mg2 O3 2.0558(6) 18_544
Mg2 O3 2.0558(6) 28
Mg2 O3 2.0558(6) 16_444
Mg2 O3 2.0558(6) 29_445
Mg2 O3 2.0558(6) 17_554
Mg2 Ba1 4.01345(6) 13_444
Mg2 Ba1 4.01345(6) 25
Mg2 Ba1 4.01345(6) 25_445
Mg2 Ba1 4.01345(6) 13_554
Mg2 Ba1 4.01347(7) 25_455
Mg2 Ba1 4.01347(7) 13_544
O3 C4 1.2816(6) 1_565
O3 Mg2 2.0559(6) 16_554
O3 Ba1 2.7904(5) 25_455
O3 Ba1 3.0972(6) 25_565
C4 O3 1.2816(6) 3_455
C4 O3 1.2816(6) 2_665
C4 O3 1.2816(6) 1_545
C4 Ba1 3.2916(4) 25_445
C4 Ba1 3.2916(4) 25
C4 Ba1 3.2916(4) 25_455
