#------------------------------------------------------------------------------
#$Date: 2019-12-26 21:22:11 +0200 (Thu, 26 Dec 2019) $
#$Revision: 246100 $
#$URL: file:///home/coder/svn-repositories/cod/cif/2/31/17/2311759.cif $
#------------------------------------------------------------------------------
#
# This file is available in the Crystallography Open Database (COD),
# http://www.crystallography.net/. The original data for this entry
# were provided by IUCr Journals, http://journals.iucr.org/.
#
# The file may be used within the scientific community so long as
# proper attribution is given to the journal article from which the
# data were obtained.
#
data_2311759
loop_
_publ_author_name
'Ende, Martin'
'Effenberger, Herta'
'Miletich, Ronald'
_publ_section_title
;
 Evolution of the \a-BaMg(CO<sub>3</sub>)<sub>2</sub> low-temperature
 superstructure and the tricritical nature of its \a-\b phase transition.
;
_journal_issue                   'Pt 5'
_journal_name_full
'Acta crystallographica Section B, Structural science, crystal engineering and materials'
_journal_page_first              827
_journal_page_last               835
_journal_paper_doi               10.1107/S2052520617009295
_journal_volume                  73
_journal_year                    2017
_chemical_formula_sum            'C6 Ba3 Mg3 O18'
_chemical_formula_weight         845.01
_space_group_crystal_system      trigonal
_space_group_IT_number           166
_space_group_name_Hall           '-R 3 2"'
_space_group_name_H-M_alt        'R -3 m :H'
_audit_creation_method           SHELXL-2014/7
_cell_angle_alpha                90
_cell_angle_beta                 90
_cell_angle_gamma                120
_cell_formula_units_Z            1
_cell_length_a                   5.0256(10)
_cell_length_b                   5.0256(10)
_cell_length_c                   16.782(6)
_cell_measurement_reflns_used    3849
_cell_measurement_temperature    440(2)
_cell_measurement_theta_max      45
_cell_measurement_theta_min      1.5
_cell_volume                     367.07(17)
_computing_structure_refinement  'SHELXL-2014/7 (Sheldrick, 2014)'
_diffrn_ambient_temperature      440(2)
_diffrn_measured_fraction_theta_full 0.848
_diffrn_measured_fraction_theta_max 0.960
_diffrn_measurement_device_type  StoeStadiVari
_diffrn_radiation_type           MoK\a
_diffrn_radiation_wavelength     0.71073
_diffrn_reflns_av_R_equivalents  0.0272
_diffrn_reflns_av_unetI/netI     0.0129
_diffrn_reflns_Laue_measured_fraction_full 0.848
_diffrn_reflns_Laue_measured_fraction_max 0.960
_diffrn_reflns_limit_h_max       9
_diffrn_reflns_limit_h_min       -9
_diffrn_reflns_limit_k_max       10
_diffrn_reflns_limit_k_min       -9
_diffrn_reflns_limit_l_max       16
_diffrn_reflns_limit_l_min       -33
_diffrn_reflns_number            3849
_diffrn_reflns_point_group_measured_fraction_full 0.848
_diffrn_reflns_point_group_measured_fraction_max 0.960
_diffrn_reflns_theta_full        25.242
_diffrn_reflns_theta_max         45.495
_diffrn_reflns_theta_min         12.536
_exptl_absorpt_coefficient_mu    8.200
_exptl_absorpt_correction_T_max  0.8
_exptl_absorpt_correction_T_min  0.7
_exptl_absorpt_correction_type   numerical
_exptl_absorpt_process_details   '(Stoe & Cie GmbH 2016)'
_exptl_crystal_density_diffrn    3.823
_exptl_crystal_description       prismatic
_exptl_crystal_F_000             384
_exptl_crystal_size_max          0.060
_exptl_crystal_size_mid          0.030
_exptl_crystal_size_min          0.030
_refine_diff_density_max         0.805
_refine_diff_density_min         -0.763
_refine_diff_density_rms         0.105
_refine_ls_extinction_method     none
_refine_ls_goodness_of_fit_ref   1.116
_refine_ls_hydrogen_treatment    undef
_refine_ls_matrix_type           full
_refine_ls_number_parameters     14
_refine_ls_number_reflns         413
_refine_ls_number_restraints     0
_refine_ls_restrained_S_all      1.116
_refine_ls_R_factor_all          0.0136
_refine_ls_R_factor_gt           0.0136
_refine_ls_shift/su_max          0.000
_refine_ls_shift/su_mean         0.000
_refine_ls_structure_factor_coef Fsqd
_refine_ls_weighting_details
'w=1/[\s^2^(Fo^2^)+(0.0178P)^2^+0.1629P] where P=(Fo^2^+2Fc^2^)/3'
_refine_ls_weighting_scheme      calc
_refine_ls_wR_factor_gt          0.0318
_refine_ls_wR_factor_ref         0.0318
_reflns_Friedel_coverage         0.000
_reflns_number_gt                413
_reflns_number_total             413
_reflns_threshold_expression     'I > 2\s(I)'
_cod_data_source_file            xk5041sup1.cif
_cod_data_source_block           norse_460
_cod_original_cell_volume        367.1(2)
_cod_original_sg_symbol_H-M      'R -3 m'
_cod_database_code               2311759
_shelx_shelxl_version_number     2014/7
_shelx_space_group_comment
;
The symmetry employed for this shelxl refinement is uniquely defined
by the following loop, which should always be used as a source of
symmetry information in preference to the above space-group names.
They are only intended as comments.
;
_shelx_estimated_absorpt_t_min   0.639
_shelx_estimated_absorpt_t_max   0.791
_shelx_res_file
;

    norse_460_a.res created by SHELXL-2014/7


TITL norse_440_a.res in R-3m
REM Old TITL norse_440 in R3m

REM SHELXT solution in R-3m
REM R1 0.034,  Rweak 0.143,  Alpha 0.055,  Orientation as input
REM Formula found by SHELXT:  C2 O6 Mg Ba

CELL  0.71073   5.0256   5.0256  16.7817   90.000   90.000  120.000
ZERR    1.000   0.0010   0.0010   0.0062    0.000    0.000    0.000
LATT  3
SYMM -Y, X-Y, Z
SYMM -X+Y, -X, Z
SYMM Y, X, -Z
SYMM X-Y, -Y, -Z
SYMM -X, -X+Y, -Z
SFAC C O MG BA
UNIT 6 18 3 3
L.S. 20
TEMP 166.85
SIZE 0.06 0.03 0.03
BOND $H
LIST 4
ACTA
FMAP 2
PLAN 20
REM EXTI    0.003620
WGHT    0.017800    0.162900
FVAR       0.68121
BA1   4    0.000000    0.000000    0.500000    10.08333    0.01375    0.01375 =
         0.01956    0.00000    0.00000    0.00688
MG2   3    0.000000    0.000000    0.000000    10.08333    0.01058    0.01058 =
         0.01629    0.00000    0.00000    0.00529
O3    2    0.853671    0.707341    0.257628    10.50000    0.03809    0.01143 =
         0.03127    0.00462    0.00231    0.00572
C4    1    0.000000    0.000000    0.260754    10.16667    0.01212    0.01212 =
         0.01398    0.00000    0.00000    0.00606
HKLF 4

REM  norse_440_a.res in R-3m
REM R1 =  0.0136 for     413 Fo > 4sig(Fo)  and  0.0136 for all     413 data
REM     14 parameters refined using      0 restraints

END

WGHT      0.0178      0.1629

REM Highest difference peak  0.805,  deepest hole -0.763,  1-sigma level  0.105
Q1    1   0.0000  0.0000  0.4645  10.16667  0.05    0.52
Q2    1  -0.0634 -0.1268  0.2579  10.50000  0.05    0.48
Q3    1   0.6667  0.3333  0.2122  10.16667  0.05    0.31
Q4    1   0.8805  0.7611  0.2058  10.50000  0.05    0.31
Q5    1  -0.0186 -0.1802  0.4794  11.00000  0.05    0.29
Q6    1   0.9057  0.8114  0.3668  10.50000  0.05    0.27
Q7    1   0.7131  0.4261  0.1820  10.50000  0.05    0.25
Q8    1   0.7128  0.7004  0.1964  11.00000  0.05    0.24
Q9    1   0.0000  0.0000  0.3617  10.16667  0.05    0.23
Q10   1   0.6644  0.5913  0.2986  11.00000  0.05    0.23
Q11   1   0.6913  0.7679  0.2970  11.00000  0.05    0.23
Q12   1   0.8405  0.4203  0.2441  10.50000  0.05    0.22
Q13   1   0.8634  0.4317  0.2023  10.50000  0.05    0.22
Q14   1   0.0000  0.0000  0.1855  10.16667  0.05    0.22
Q15   1   0.0947 -0.0947  0.0301  10.50000  0.05    0.22
Q16   1   0.6403  0.7584  0.2065  11.00000  0.05    0.21
Q17   1  -0.1188  0.1188  0.4433  10.50000  0.05    0.21
Q18   1   0.6572  0.4790  0.2755  11.00000  0.05    0.21
Q19   1   0.9873  0.5736  0.2100  11.00000  0.05    0.19
Q20   1   0.6745  0.5527  0.1852  11.00000  0.05    0.19
;
_shelx_res_checksum              29898
_shelx_hkl_file
;
   1   2  -4 7268.82   64.65   0
   2   3  -4 4507.57   48.39   0
   4   4   0  907.76   31.36   0
   6   3  -3  251.85   26.44   0
   0   3   3 1138.18   28.24   0
   1   3  -2 2852.04   40.10   0
   1   4   3 1761.76   33.19   0
   3   1 -10 1771.68   35.76   0
   3   4  -1  415.72   24.44   0
   5   1 -11  345.27   23.71   0
   5   4   1  224.29   27.11   0
   6   2  -8  516.43   27.13   0
   3   5  10  353.82   27.01   0
   2   5   9  628.34   27.91   0
   3   5   7  210.18   23.45   0
   3   5  13  112.75   25.79   0
   2   4  -2 1708.47   33.91   0
   2   5  12  487.36   26.02   0
   7   2  -7  173.74   25.78   0
   0   4   8 3019.35   41.84   0
   0   4  11 1333.92   30.94   0
   2   5   6  835.72   28.35   0
   4   2 -10 1113.15   30.30   0
   4   4  -3  337.80   25.71   0
   4   5   8  514.31   27.26   0
   4   5  11   65.64   22.46   0
   6   4   2  179.11   23.26   0
   1   4   0 2891.07   39.30   0
   2   5  15  111.96   22.86   0
   3   5   4  746.76   28.66   0
   3   5  16  261.96   25.30   0
   4   5  14   81.80   23.80   0
   5   3  -7  190.65   24.97   0
   0   4  14 1143.16   31.88   0
   4   5   5  193.15   24.59   0
   1   5  11  383.62   24.50   0
   3   4  -4  982.93   29.01   0
   4   3  -8  714.64   28.25   0
   6   3  -6  171.70   24.31   0
   1   5   8 1168.23   29.86   0
   2   5   3  224.53   23.32   0
   0   3   0 5920.07   56.20   0
   1   5  14  624.75   27.13   0
   3   5   1  363.91   25.81   0
   4   5   2  180.87   24.76   0
   1   3  -5 2306.09   36.35   0
   2   2  -9 2097.19   36.60   0
   2   5   0 1107.91   31.57   0
   5   5   3  131.83   25.16   0
   0   4   2 3363.55   42.25   0
   2   4  -5  645.10   24.92   0
   3   3  -9  755.22   27.22   0
   4   4  -6  387.26   25.16   0
   5   4  -5  180.12   23.30   0
   1   4  -3  738.77   24.80   0
   1   5   2 1404.76   30.83   0
   4   5  -1  216.55   26.42   0
   3   2 -11  478.92   23.33   0
   3   5  -2  465.23   27.10   0
   0   5  10 1217.41   30.60   0
   3   4  -7  611.98   25.49   0
   5   5   0  291.26   24.26   0
   0   5   7 1217.60   29.32   0
   3   6   9   98.36   24.47   0
   5   3 -10  324.38   25.10   0
   0   5  13  362.54   22.75   0
   2   6   8  530.96   26.23   0
   2   6  11  160.16   22.45   0
   3   6   6  231.59   26.10   0
   3   6  12  293.27   25.31   0
   6   3  -9  120.31   22.78   0
   1   5  -1  626.81   26.26   0
   2   5  -3  738.27   27.23   0
   2   6   5  280.20   25.52   0
   2   6  14  218.15   23.82   0
   0   3  -3 4548.56   49.73   0
   0   4  -1 2883.66   39.01   0
   1   6  10  407.02   26.24   0
   3   6   3  213.23   23.75   0
   4   3 -11  253.66   23.12   0
   1   6   7  218.81   21.82   0
   5   4  -8  450.72   26.57   0
   1   6  13  387.48   25.29   0
   3   5  -5  339.23   24.18   0
   1   6   4 1055.91   31.53   0
   4   4  -9  294.19   23.33   0
   0   5   1  626.24   24.92   0
   1   4  -6 2234.97   35.54   0
   3   6   0  423.15   28.08   0
  -1   4  10 1754.67   35.18   0
   2   1 -11  907.94   28.03   0
   2   3 -10 1111.89   27.77   0
   4   6   1   97.53   23.82   0
  -1   4   7 1420.19   30.40   0
   1   5  -4 1517.43   31.69   0
   1   6   1  576.46   27.69   0
   2   6  -1  340.40   24.91   0
   0   6   6  727.46   27.60   0
   0   6   9  579.79   24.80   0
   4   5  -7  106.16   23.48   0
   0   6  12  806.30   28.40   0
   0   4  -4 3247.20   40.51   0
   3   6  -3   68.26   23.17   0
   4   6  -2  115.20   22.63   0
   0   5  -2 2273.26   35.70   0
   0   6   3  450.30   24.94   0
   3   5  -8  638.06   27.31   0
  -1   5   9  779.47   25.81   0
   1   6  -2  439.11   26.19   0
   2   7   7  152.37   23.74   0
  -1   5   6 1821.49   33.14   0
   2   2 -12 3488.84   46.49   0
   2   6  -4  669.58   27.62   0
   2   7  10  161.59   21.74   0
   5   4 -11  118.12   23.87   0
   2   7   4  281.11   25.42   0
  -1   4   1 1840.67   32.71   0
  -1   5  12 1587.93   34.66   0
   0   3  -6 4295.95   47.94   0
   1   7   6  213.14   25.40   0
   1   7   9  179.00   23.50   0
   0   6   0 1588.92   31.95   0
   1   5  -7  662.34   26.73   0
   4   4 -12  458.00   25.98   0
   1   7  12  284.00   24.63   0
   2   4 -11  586.30   25.11   0
   2   5  -9  217.10   23.56   0
   1   2 -10 2945.90   42.64   0
   1   7   3  235.93   23.57   0
   4   5 -10  115.12   23.10   0
   0   5  -5 1343.18   29.65   0
   1   6  -5  379.58   23.65   0
  -1   6   8 1156.27   30.47   0
   0   7   8  795.84   29.02   0
   1   7   0  597.86   28.90   0
  -1   5   0 2839.08   38.62   0
  -1   6   5  873.60   27.11   0
   0   7   5  361.67   23.59   0
   2   6  -7  119.92   22.91   0
   2   7  -2  235.88   26.68   0
   3   4 -13  229.34   22.92   0
  -1   3  -1 1498.34   30.94   0
  -1   6  11  320.89   22.53   0
   0   4  -7  585.31   22.09   0
   0   6  -3  616.81   25.56   0
   0   7  11  127.83   22.64   0
   3   5 -11  139.55   23.76   0
  -1   4  -2 2797.04   38.38   0
   1   3 -11  672.05   24.34   0
   0   7   2  270.80   23.87   0
   1   7  -3  116.04   23.35   0
   3   6  -9  244.62   25.37   0
   3   3 -15  255.37   22.36   0
   0   7  -1  318.54   24.14   0
   1   6  -8  969.15   30.39   0
   2   7  -5  222.48   24.83   0
  -1   5  -3  713.64   24.24   0
   2   5 -12  661.63   28.39   0
  -1   6  -1  623.16   24.04   0
   0   5  -8 1334.25   29.74   0
   0   6  -6  609.78   25.46   0
   1   8   5   67.19   23.20   0
  -1   7   7  212.42   21.85   0
   1   4 -12 1146.19   30.05   0
   2   6 -10  282.17   24.95   0
  -1   7   4 1114.17   29.61   0
  -1   7  10  368.48   23.52   0
   1   8   2  205.74   25.41   0
   4   5 -13  158.68   22.12   0
   1   7  -6  242.00   26.24   0
   2   4 -14  689.86   26.53   0
  -1   4  -5 2341.07   35.21   0
   0   7  -4  994.93   29.86   0
   0   8   7  163.18   23.69   0
  -1   3  -4 7492.64   62.44   0
  -1   7   1  583.99   24.21   0
   0   8   4  334.17   24.55   0
   0   8  10  168.51   22.85   0
  -1   6  -4 1507.32   32.48   0
   1   8  -1  134.75   22.77   0
   3   5 -14  200.54   22.91   0
   0   8   1  167.41   24.95   0
  -2   5   5 1467.65   30.15   0
  -2   5   8 3541.83   46.04   0
  -1   5  -6 2273.62   35.02   0
   3   6 -12  179.84   23.32   0
  -1   7  -2  464.11   25.79   0
   1   6 -11  214.78   23.62   0
   2   2 -15  337.73   20.50   0
  -2   6   4 1590.93   32.86   0
  -2   6   7  487.59   23.60   0
   0   6  -9  440.11   24.10   0
  -2   4   6 1611.53   32.38   0
   0   8  -2  336.22   26.56   0
   1   5 -13  327.49   23.75   0
   1   8  -4  170.48   25.24   0
  -2   6  10 1119.22   31.05   0
  -1   8   6  224.07   24.48   0
   0   7  -7  182.05   22.58   0
  -2   4   3 1742.72   32.31   0
  -2   4   9 2061.60   39.55   0
  -1   8   3  252.24   23.39   0
  -1   8   9  212.36   22.91   0
   1   2 -13 1036.59   28.35   0
   2   6 -13  248.60   24.81   0
   1   3 -14 1254.85   30.10   0
   2   3 -16 1117.53   29.91   0
   2   5 -15  272.79   23.64   0
  -1   6  -7  754.04   25.74   0
  -2   5  -1 1600.25   30.52   0
  -2   7   3  254.30   22.41   0
  -1   7  -5  329.46   22.93   0
  -1   8   0  549.64   25.86   0
   2   7 -11   63.52   21.94   0
  -2   7   9  634.96   26.08   0
  -1   4  -8 4358.09   46.37   0
   0   8  -5  186.52   23.01   0
  -2   4   0 9117.29   66.84   0
  -2   6  -2 1704.37   32.94   0
   1   8  -7   94.89   20.78   0
  -1   5  -9 1378.24   30.95   0
   1   4 -15  287.30   21.75   0
  -1   3  -7 3590.69   43.70   0
  -1   8  -3  133.88   22.56   0
   0   3 -12 3111.70   41.01   0
   0   7 -10  228.21   23.15   0
   0   4 -13 1369.17   29.39   0
   1   6 -14  183.36   23.42   0
   1   7 -12  256.58   25.41   0
  -2   5  -4 4523.14   46.59   0
  -2   8   5  285.74   24.02   0
  -1   7  -8 1028.98   30.63   0
  -2   7  -3  793.15   26.89   0
  -2   8   2  374.18   25.32   0
  -1   9   5   85.89   22.45   0
   0   8  -8  229.12   25.78   0
  -2   6  -5  643.38   24.17   0
  -2   8   8  507.38   26.13   0
  -1   6 -10  850.78   26.86   0
  -1   9   2  174.88   24.13   0
  -2   4  -3 1729.85   31.12   0
  -1   8  -6  260.52   23.62   0
  -2   8  -1  304.28   24.75   0
   0   5 -14 1064.01   28.42   0
   2   6 -16  216.84   23.21   0
  -1   9  -1  129.59   22.11   0
  -2   7  -6  695.79   27.76   0
   0   7 -13  288.23   25.61   0
  -2   8  -4  681.79   27.58   0
  -1   9  -4  178.00   24.81   0
  -2   6  -8 1351.64   30.98   0
  -2   9   4  315.61   24.77   0
  -1   7 -11  234.73   23.31   0
  -1   8  -9  289.28   26.06   0
  -3   6   3  840.40   26.11   0
  -2   9   1   64.00   23.87   0
  -2   9   7  168.55   22.28   0
   0   6 -15  219.51   23.19   0
   1   7 -15   54.33   22.00   0
  -3   6   6 1409.55   31.31   0
  -3   7   2 1192.88   29.13   0
  -3   7   5  655.09   24.50   0
  -2   4  -6 1652.39   30.87   0
   1   6 -17  198.55   22.89   0
  -3   7   8  702.97   26.31   0
  -2   3  -2 6889.04   60.74   0
  -2   9  -2  258.98   22.89   0
  -3   8   4  744.11   28.52   0
  -2   7  -9  267.46   21.84   0
  -2   8  -7  152.61   23.58   0
  -1   9  -7  115.67   21.30   0
   1   4 -18  704.26   26.39   0
  -3   5   4 4616.91   49.79   0
  -3   6   9  757.40   25.88   0
  -3   8   1  364.84   24.52   0
   0   4 -16  801.46   26.52   0
  -3   8   7  220.90   22.04   0
   1   2 -16 2122.36   39.15   0
  -3   6  -3  868.44   25.79   0
  -2   9  -5  225.78   25.40   0
   0   3 -15  985.56   27.35   0
  -3   5   7  726.81   24.83   0
  -3   7  -4  925.22   27.40   0
  -2   5 -10 1133.17   27.67   0
  -1   8 -12  284.39   25.50   0
   0   5 -17  414.69   23.72   0
  -1   7 -14  178.63   23.42   0
   0   7 -16  337.29   25.77   0
  -3   9   3  251.11   24.15   0
  -2   8 -10  267.30   25.71   0
  -1   5 -15  321.40   22.96   0
  -3   8  -5  295.15   24.89   0
  -3   9   0  392.32   25.92   0
  -3   9   6  178.23   22.38   0
  -2   4  -9 2201.82   34.44   0
  -1   4 -14 1300.23   28.98   0
  -3   6  -6 1432.10   29.72   0
  -2   3  -5 4654.30   49.07   0
  -2   7 -12  712.32   27.65   0
  -3   7  -7  630.02   25.27   0
  -1   6 -16  608.49   26.62   0
   0   6 -18  175.56   20.70   0
  -3   5  -5 1440.89   29.27   0
   0   2 -14 2186.30   37.92   0
  -3   8  -8  660.75   26.76   0
  -1   3 -13 1024.04   26.90   0
  -3   4   2 2822.96   39.54   0
  -1   8 -15   54.75   19.58   0
  -3   6  -9  803.38   25.35   0
  -2   8 -13  251.76   24.80   0
  -2   9 -11   83.64   23.37   0
  -3   4  -1 1861.72   32.19   0
  -3   4   5 2336.84   38.44   0
  -3   7 -10  747.29   25.85   0
  -1   7 -17  209.99   24.24   0
  -4   7   1  376.86   23.17   0
  -4   8   3  315.34   23.33   0
  -4   7   4 1002.78   28.65   0
  -4   8   0  882.13   28.10   0
  -3   5  -8 3649.59   42.01   0
  -4   8   6  383.54   24.25   0
  -2   3  -8 4574.96   47.84   0
   0   4 -19  210.31   20.44   0
   0   7 -19   39.26   21.70   0
  -3   8 -11  161.36   25.07   0
  -3   9  -9  246.53   22.65   0
  -4   7   7  622.38   25.05   0
  -4   9  -1  220.90   23.94   0
  -4   9   2  212.50   21.44   0
  -3   4  -4 5813.78   52.14   0
   0   5 -20  291.40   22.62   0
  -4   6   2 1732.76   32.04   0
  -4   9   5  185.90   21.98   0
  -1   5 -18  701.18   25.03   0
  -4   7  -5  663.55   25.45   0
  -3   4   8 3979.71   53.45   0
  -1   4 -17  892.77   26.65   0
   0   3 -18  909.56   27.08   0
  -4   8  -6  434.73   25.04   0
  -3   6 -12 1149.63   28.77   0
  -1   6 -19  178.57   22.45   0
  -3   7 -13  274.23   23.29   0
  -2   8 -16  240.27   24.53   0
  -4   6  -4 1700.59   31.65   0
  -3   5 -11  523.52   23.81   0
  -3   9 -12  199.88   24.67   0
  -2   5 -16 1175.60   29.77   0
  -2   6 -17  254.22   22.64   0
  -4   7  -8  736.26   25.39   0
  -4   9  -7  126.52   23.53   0
  -3   4  -7 1417.14   28.51   0
  -4   8  -9  311.93   25.93   0
  -3   8 -14  213.73   22.20   0
  -1   7 -20  239.31   23.22   0
  -4   6  -7  473.96   22.83   0
  -2   7 -18  197.12   22.10   0
  -1   3 -16 2240.22   36.77   0
  -2   4 -15  407.56   21.80   0
  -4   5   3  777.08   24.73   0
  -4   5  -3 1735.79   31.20   0
  -4   9 -10  126.05   22.62   0
  -4   7 -11  268.91   22.43   0
  -4   8 -12  518.37   26.72   0
  -3   4 -10 1842.39   32.04   0
   0   2 -17  532.80   23.00   0
  -5   8  -1  374.50   23.40   0
  -5   8   2  434.33   24.28   0
  -5   9   1  205.82   22.90   0
  -4   6 -10 1169.96   28.34   0
  -5   9  -2  170.10   21.89   0
  -4   5  -6 1847.62   31.47   0
  -1   5 -21  279.72   24.72   0
  -5   9   4  550.20   26.10   0
  -4   5   6 2240.49   37.32   0
  -3   8 -17  142.90   23.58   0
  -5   7   0 1090.55   28.96   0
  -5   8   5  295.27   22.95   0
  -5  10   0  299.70   22.67   0
  -3   3  -3 1166.35   27.05   0
  -2   6 -20  359.07   24.29   0
  -1   4 -20  709.93   25.17   0
  -5   7   3  782.24   25.04   0
  -5   8  -7  222.66   22.32   0
  -5  10  -3  110.86   19.35   0
  -2   5 -19  152.73   18.97   0
  -4   7 -14  601.72   24.99   0
  -2   2  -7  733.19   23.48   0
  -5   7  -6  872.29   26.72   0
  -5   9  -8  476.17   25.27   0
  -4   5  -9  763.81   24.03   0
  -2   3 -14 2576.68   37.44   0
  -2   7 -21   79.88   21.20   0
  -4   6 -13  634.41   24.38   0
  -4   8 -15  115.15   21.39   0
  -5   7   6  690.17   25.40   0
  -3   3  -6 5826.55   52.36   0
  -3   4 -13 1217.92   27.56   0
  -3   6 -18  446.58   24.10   0
  -5   8 -10  331.15   23.46   0
  -3   7 -19  170.66   21.88   0
  -2   4 -18  614.95   24.73   0
  -5   7  -9  671.39   27.15   0
  -1   2 -15 1128.11   28.23   0
  -5   6   1  604.82   22.76   0
  -5   9 -11  130.23   23.17   0
  -3   5 -17  724.11   25.97   0
  -5   6  -5  875.93   25.72   0
  -4   4  -2 3292.27   40.02   0
  -1   3 -19  537.95   22.89   0
  -4   4   1 2854.05   38.56   0
  -4   5 -12 1720.01   32.76   0
  -3   8 -20  174.21   20.91   0
  -5   6   4 1523.61   31.25   0
  -4   4  -5  836.73   23.39   0
  -3   3  -9 2808.95   37.46   0
  -5   6  -8 1223.06   28.75   0
  -6   9  -3  267.27   23.41   0
  -6   9   0  436.47   25.63   0
  -5   9 -14   77.21   21.19   0
  -4   4   4 3265.37   43.20   0
  -4   4  -8 3033.93   38.12   0
  -7   1 -11  248.50   26.47   0
  -5   2 -13 1123.62   30.23   0
  -4  -2  -5  595.96   26.19   0
  -2   0  -8 6638.07   61.95   0
  -7   4 -14  563.98   28.71   0
  -3  -1  -8 4282.75   50.71   0
  -3   2 -11  996.68   27.63   0
  -5   0 -11  439.69   23.75   0
  -7   7 -11  126.04   23.53   0
  -4  -1  -9 1386.98   33.06   0
  -2   1  -9 2760.77   41.48   0
  -9   4 -13  188.07   27.46   0
  -7   6 -13  368.93   27.54   0
  -6   2 -14  735.42   28.33   0
  -5   3 -14  715.48   26.45   0
  -2   3  -8 4430.74   55.05   0
  -6  -1  -8 1002.98   31.82   0
  -6   1 -13  338.96   25.21   0
  -4   3 -13 1241.88   30.17   0
  -9   2 -11   66.02   24.71   0
  -8   7 -12  337.93   26.54   0
  -7   0 -10  251.26   25.27   0
  -6   3 -15  248.46   26.19   0
  -6   5 -14  620.87   29.19   0
  -3   4 -10 1795.33   36.19   0
  -8   0  -8  236.92   24.73   0
  -5   6 -11  343.29   24.96   0
  -9   5 -14   85.05   22.83   0
  -8   4 -15  103.50   26.82   0
  -8   6 -14  212.72   26.22   0
  -7   5 -15  142.10   23.26   0
  -6   0 -12  943.60   30.53   0
  -5  -1 -10  888.96   29.78   0
  -7   2 -15  269.47   25.81   0
  -2   2 -10 7243.10   64.65   0
  -4   1 -14 1236.59   30.64   0
  -7   1 -14  234.76   24.75   0
  -4   0 -13 1333.15   32.16   0
  -4   5 -12 1607.08   35.43   0
  -3  -2  -7  744.61   27.12   0
  -5   1 -15  293.42   23.76   0
  -3   0 -12 3205.83   42.73   0
  -3   1 -13 1104.79   29.64   0
  -5   2 -16 1126.60   31.16   0
  -4   2 -15  358.85   23.31   0
  -4   4 -14 1143.15   30.91   0
  -4  -2  -8 1350.66   33.48   0
  -6  -1 -11  227.86   23.84   0
  -6   2 -17  224.97   26.76   0
  -8   0 -11   90.89   23.19   0
  -8   3 -17  130.13   27.62   0
  -7   0 -13  316.80   26.83   0
  -7   6 -16  352.86   26.77   0
  -6   1 -16  551.61   28.13   0
  -6   6 -15  166.99   23.79   0
  -4  -1 -12 1168.53   31.25   0
  -3  -1 -11  689.84   25.06   0
  -8   7 -15   56.44   22.67   0
  -5   3 -17  687.84   27.43   0
  -3   2 -14 2603.46   39.30   0
  -6   3 -18  472.95   28.66   0
  -2   0 -11 3958.26   47.37   0
  -8   4 -18  143.12   24.75   0
  -8   6 -17  121.53   25.53   0
  -6   5 -17  322.53   25.21   0
  -4   3 -16 1505.92   33.55   0
  -6   0 -15  198.13   25.77   0
  -8   1 -15   27.48   22.33   0
  -5  -1 -13  400.44   25.66   0
  -5   5 -16  744.96   29.67   0
  -2   1 -12 4076.63   47.53   0
  -7   2 -18  156.97   26.41   0
  -5   6 -14  616.33   27.43   0
  -7   3 -19  181.95   24.87   0
  -3   4 -13 1173.72   31.01   0
  -2   3 -11  940.70   28.09   0
  -5   4 -18  541.64   27.64   0
  -5   1 -18  726.96   29.86   0
  -4   0 -16  802.27   29.15   0
  -4   1 -17  862.64   28.29   0
  -3   3 -15  595.15   25.92   0
  -7   4 -20  175.86   27.05   0
  -3  -2 -10 1115.94   30.59   0
  -5   2 -19  158.42   23.52   0
  -4  -2 -11  604.96   26.75   0
  -3   0 -15 1003.90   28.46   0
  -7   0 -16  336.62   27.07   0
  -6  -1 -14  224.28   25.44   0
  -4   2 -18  637.22   26.35   0
  -4   5 -15  506.08   25.69   0
  -3   1 -16 2366.36   38.25   0
  -2   2 -13 2610.45   39.56   0
  -8   3 -20  137.55   26.26   0
  -4   4 -17  417.82   26.10   0
  -6   1 -19  162.17   24.21   0
  -7   6 -19   46.98   24.27   0
  -4  -1 -15  286.51   22.73   0
  -3  -1 -14 1303.02   30.97   0
  -2  -2  -9 2187.03   39.44   0
  -6   6 -18  260.35   25.47   0
  -5   3 -20  682.78   27.67   0
  -6   0 -18  235.75   25.94   0
  -6   3 -21  245.34   25.46   0
  -3   2 -17 1079.89   29.50   0
  -7   5 -21  168.80   25.29   0
  -6   5 -20  246.92   24.98   0
  -5  -1 -16  567.02   28.24   0
  -2   0 -14 2253.93   36.37   0
  -1   0 -10 3451.55   46.04   0
  -7   2 -21   95.65   23.51   0
  -1  -1  -9 2609.66   41.19   0
  -7   3 -22  141.91   23.85   0
  -5   5 -19  262.07   24.16   0
  -2   1 -15 1181.26   29.49   0
  -5   1 -21  287.81   27.38   0
  -5   4 -21  217.97   24.28   0
  -4   0 -19  203.81   24.57   0
  -4   1 -20  738.25   28.69   0
  -3  -2 -13 1120.01   30.94   0
  -3   4 -16 1602.18   35.31   0
  -1   1 -11 1047.06   28.35   0
  -7   4 -23   59.85   25.31   0
  -6  -1 -17  213.61   25.71   0
  -4  -2 -14  738.90   28.27   0
  -7   0 -19   42.49   23.97   0
  -5   2 -22  334.07   26.34   0
  -3   0 -18  907.82   28.23   0
  -3   3 -18 1454.77   33.95   0
  -2   3 -14 2622.34   40.21   0
  -4   2 -21  610.75   27.77   0
  -3   1 -19  547.52   24.68   0
  -6   1 -22  163.79   25.25   0
  -6   2 -23  126.93   24.19   0
  -4  -1 -18  773.38   28.46   0
  -4   4 -20  674.74   28.40   0
  -4   5 -18  531.92   26.08   0
  -2  -2 -12 3728.64   48.04   0
  -7   6 -22  101.02   23.53   0
  -2   4 -12 3533.23   50.15   0
  -1  -2  -8 4350.48   54.25   0
  -6   0 -21  158.35   26.37   0
  -6   3 -24  192.08   27.65   0
  -5   3 -23   90.66   23.76   0
  -6   6 -21  160.79   23.61   0
  -5  -1 -19  185.25   23.69   0
  -3   2 -20  763.14   27.28   0
  -6   5 -23   52.93   24.33   0
  -2   0 -17  547.68   24.06   0
  -1   0 -13 2556.10   38.56   0
  -1  -1 -12 3871.05   46.75   0
  -2  -1 -16 2282.77   37.32   0
  -1   2 -12 3803.62   48.68   0
  -5   5 -22  278.34   24.99   0
  -2   1 -18 1715.28   33.69   0
  -3  -2 -16 1194.97   32.30   0
  -6  -1 -20  240.62   25.55   0
  -6   4 -25  123.76   25.23   0
  -5   1 -24  191.79   27.49   0
  -4  -2 -17  257.17   23.08   0
  -4   0 -22  552.60   27.62   0
  -4   1 -23  146.83   23.42   0
  -1   1 -14 2895.99   40.88   0
  -5   4 -24  233.61   26.42   0
  -5   2 -25  237.25   27.31   0
  -3   0 -21  363.61   25.25   0
  -3   4 -19  241.50   23.58   0
  -4   2 -24  448.56   28.36   0
  -3   1 -22  579.01   28.28   0
  -3   3 -21  454.75   24.92   0
  -2  -2 -15  352.58   23.34   0
  -2   3 -17 1084.56   29.15   0
  -6   1 -25  121.04   23.74   0
  -6   2 -26  112.77   25.99   0
  -5  -2 -18  192.42   24.53   0
  -1  -2 -11  919.22   26.88   0
  -1   3 -10 3013.40   47.69   0
  -4   4 -23  179.68   24.25   0
  -4   5 -21  247.22   24.19   0
  -6   0 -24  166.17   23.49   0
  -5  -1 -22  200.56   25.69   0
  -2  -3 -11  505.39   24.32   0
  -2   4 -15  348.27   22.87   0
  -6   3 -27   27.26   21.94   0
  -3   2 -23  162.54   25.00   0
  -2   0 -20 1385.05   32.07   0
  -1  -1 -15 1179.60   29.01   0
  -1   0 -16 3453.89   43.74   0
  -2  -1 -19  559.21   24.34   0
  -1   2 -15 1146.95   29.45   0
  -3  -2 -19  160.57   22.94   0
  -2   1 -21  582.51   25.83   0
  -4  -2 -20  313.30   26.48   0
  -5   5 -25   82.31   23.89   0
  -4   0 -25  212.37   26.76   0
  -3  -3 -15  298.27   23.04   0
  -1   1 -17 1821.52   33.42   0
  -5   1 -27   54.37   25.83   0
  -4   1 -26  295.55   25.81   0
  -1  -2 -14 2591.54   39.24   0
  -3   0 -24  466.02   26.76   0
  -2  -2 -18  673.85   26.09   0
  -5   2 -28  123.06   26.27   0
  -5   4 -27   27.82   22.87   0
  -3   4 -22  435.43   26.08   0
  -2  -3 -14  708.07   26.91   0
  -2   3 -20  778.54   29.00   0
  -1   3 -13 1009.32   29.10   0
  -4  -1 -24  200.12   24.23   0
  -4   2 -27   35.88   25.70   0
  -3   1 -25  241.01   23.81   0
  -3   3 -24  305.54   24.88   0
  -1  -1 -18 1778.70   34.07   0
  -1   0 -19  475.33   23.45   0
  -5  -1 -25   88.98   24.22   0
  -4   4 -26  187.00   25.63   0
  -2   0 -23  414.48   26.49   0
  -2   4 -18  653.32   27.02   0
  -4   5 -24  266.65   24.68   0
  -2  -1 -22  516.60   26.29   0
  -3   2 -26  370.70   25.84   0
  -1   2 -18 1720.59   33.28   0
  -3  -3 -18  436.10   24.70   0
  -3  -2 -22  329.18   24.88   0
  -2   1 -24  556.38   28.10   0
  -4  -2 -23  133.55   24.05   0
  -2  -3 -17  715.37   27.69   0
  -2  -2 -21  627.81   27.81   0
  -4   0 -28   84.77   25.70   0
  -1  -3 -13 1172.91   29.78   0
  -1   3 -16 2201.80   38.97   0
  -4   1 -29  104.58   23.14   0
   0  -1 -14 2790.08   40.07   0
  -2   3 -23  175.76   23.25   0
   0   0 -15  389.07   21.42   0
  -4  -1 -27   76.73   24.35   0
  -3   1 -28  195.99   27.53   0
  -3   4 -25  228.58   24.85   0
  -1  -1 -21  592.51   25.95   0
  -3   3 -27   69.74   24.79   0
  -1   0 -22  773.08   27.36   0
  -4   2 -30   88.36   24.00   0
  -2  -1 -25  260.09   24.44   0
  -2   0 -26  324.25   25.62   0
  -2   4 -21  586.35   26.13   0
  -1   2 -21  563.12   25.85   0
  -3  -3 -21  196.94   24.58   0
  -1  -3 -16 1540.44   33.22   0
  -3  -2 -25  215.90   25.29   0
  -2  -3 -20  673.70   28.81   0
  -1   1 -23  184.99   23.86   0
   0  -1 -17 1825.67   34.06   0
  -4   4 -29   74.78   21.57   0
  -4  -2 -26  138.65   23.84   0
  -2  -2 -24  464.61   26.62   0
  -1   3 -19  548.79   24.04   0
   0   2 -11 3873.51   51.12   0
   0  -2 -16 1330.58   30.36   0
  -1  -1 -24  498.96   26.09   0
  -3   0 -30  165.05   24.42   0
  -2   3 -26  372.52   26.87   0
  -1  -3 -19  258.95   22.61   0
  -1   0 -25  395.38   24.96   0
   0   2 -14 2195.06   38.27   0
  -3   1 -31   24.55   25.24   0
   0  -3 -12 2148.33   38.10   0
   0  -1 -20 1351.46   31.55   0
  -3   3 -30  147.62   25.68   0
  -3   4 -28  156.47   24.74   0
  -2  -1 -28  241.88   26.92   0
  -1   2 -24  493.29   25.68   0
  -3  -3 -24  166.98   24.55   0
  -2  -3 -23   86.15   23.32   0
  -2   0 -29  135.05   24.08   0
  -2   4 -24  445.53   26.49   0
   0  -2 -19  415.20   23.26   0
   0   0 -21 1250.56   30.62   0
  -3  -2 -28  117.30   24.79   0
  -1   1 -26  459.42   26.35   0
  -1   3 -22  517.29   26.12   0
  -2  -2 -27   45.76   24.58   0
   0  -3 -15  587.96   23.73   0
   0   2 -17  522.64   24.49   0
  -2   1 -30  176.88   23.88   0
  -1  -3 -22  432.74   26.30   0
  -1  -1 -27  122.00   24.85   0
  -1   0 -28  242.91   27.90   0
   0  -3 -18 1481.34   33.83   0
   0  -1 -23  183.33   22.83   0
   0  -2 -22 1082.90   30.62   0
  -2   3 -29  110.34   25.13   0
   0   0 -24  721.02   27.39   0
  -1   2 -27  140.76   25.34   0
   0   2 -20 1391.43   31.97   0
   1  -1 -13 2515.21   38.10   0
   1  -1 -10 3446.21   45.42   0
  -2  -3 -26  165.68   22.79   0
  -2   2 -31   55.65   22.35   0
  -1  -4 -18  476.30   25.60   0
  -2  -1 -31   42.11   22.66   0
  -2   0 -32  121.94   25.89   0
  -2   4 -27   59.92   23.14   0
  -1   1 -29  197.94   25.77   0
  -1   3 -25  258.73   24.14   0
   1  -1 -16 3431.55   43.40   0
   1   0 -14 2882.33   40.38   0
   1   0 -11 1018.79   28.50   0
   0  -3 -21  515.46   26.00   0
   1  -2 -12 3891.70   46.75   0
  -2  -2 -30  122.39   24.94   0
  -1  -3 -25  272.89   24.26   0
   1  -2 -15 1177.69   28.74   0
   0  -1 -26  457.73   25.87   0
   1   0 -17 1929.52   34.36   0
  -1  -1 -30  203.78   26.59   0
   0  -2 -25  300.37   24.79   0
   0   3 -15  977.52   29.70   0
   0   3 -12 3092.32   48.81   0
   1  -2  -9 2515.08   40.45   0
   1  -1 -19  441.54   23.78   0
  -1  -4 -21  247.70   23.47   0
   0   2 -23  392.71   24.90   0
   1  -2 -18 1763.43   33.69   0
   0  -4 -14 1132.41   30.91   0
   0   0 -27   50.54   24.10   0
   1   0 -20 1384.97   32.61   0
   0  -4 -17  399.66   24.04   0
   0   3 -18  905.90   29.42   0
  -2  -3 -29   76.25   23.60   0
  -2   3 -32   75.74   24.12   0
  -1   2 -30  195.28   24.16   0
   1  -3 -14 2557.49   39.18   0
   1  -2 -21  574.32   27.35   0
   1  -1 -22  769.79   29.10   0
   1   1 -15 1104.48   28.25   0
   1   1 -12 3786.66   48.26   0
  -1   3 -28  225.48   24.98   0
  -1  -3 -28  198.97   24.17   0
   1  -3 -11  938.47   26.99   0
   1   1 -18 1614.18   33.28   0
  -1  -4 -24  229.69   25.12   0
   0  -2 -28  129.57   26.52   0
   0  -1 -29  217.94   24.88   0
   0   2 -26  301.01   25.44   0
   0   3 -21  388.37   24.30   0
   1   0 -23  182.93   22.60   0
   0   0 -30  193.86   27.24   0
   1  -2 -24  539.40   26.14   0
   1   1 -21  549.62   27.00   0
   0  -3 -27   86.55   23.99   0
   1  -1 -25  395.40   25.70   0
   0  -4 -23  147.05   24.72   0
  -1  -4 -27   70.51   22.71   0
   0   3 -24  456.93   25.79   0
   1   0 -26  477.26   25.77   0
  -1   3 -31   35.10   22.89   0
   0  -2 -31   50.10   26.37   0
   0  -1 -32  109.10   26.97   0
   1   1 -24  515.55   25.71   0
   0   1 -31   40.44   22.47   0
   0   2 -29  135.27   24.66   0
   1  -4 -19  264.36   24.43   0
   1  -4 -13 1204.20   31.55   0
   1  -2 -27  143.05   25.16   0
   1   2 -16 2159.63   38.97   0
   0  -4 -26  188.44   23.69   0
   0  -3 -30  150.21   26.92   0
   1   2 -19  540.31   24.38   0
   1   2 -13 1021.43   29.91   0
   0   0 -33   86.99   23.20   0
   2  -2 -17  519.62   23.76   0
   2  -2 -14 2317.56   38.11   0
   2  -1 -18 1692.61   34.28   0
   2  -1 -15 1204.67   29.62   0
   1  -4 -22  441.89   26.17   0
   1   0 -29  203.06   27.20   0
   1   1 -27  110.61   24.96   0
   1   2 -22  548.60   26.70   0
   2  -1 -21  585.18   25.80   0
   0   3 -27  112.80   23.93   0
   2  -1 -12 3951.14   47.07   0
   1  -2 -30  180.83   28.05   0
   2  -3 -19  551.58   25.97   0
   2  -3 -16 2188.60   36.91   0
   2  -2 -23  437.53   27.97   0
   2  -2 -11 4010.35   47.83   0
   0  -4 -29   82.10   24.34   0
   1  -4 -25  216.66   25.28   0
   2  -3 -22  536.43   28.46   0
   2  -1 -24  544.90   26.58   0
   0   2 -32  121.94   25.11   0
   1   2 -25  262.22   26.21   0
   2   0 -13 2603.03   40.68   0
   1   2 -10 3054.28   48.52   0
   2  -2 -26  297.17   25.78   0
   5  -3 -19  136.40   21.57   0
   7  -3 -14  537.77   26.01   0
   7  -2  -6  885.79   27.30   0
   7  -2   6  704.00   24.63   0
   9  -4  -8  483.12   25.89   0
   2   0  -7  728.37   23.08   0
   5  -1  -9  734.45   24.10   0
   3   0  -6 5869.39   53.38   0
   8  -4 -15   80.76   23.39   0
   3  -1 -14 2580.83   38.83   0
   3   0   6 4065.55   50.60   0
   6  -1  -2 1384.91   30.75   0
   4  -1 -13 1213.27   28.19   0
   8  -3 -10  364.26   24.54   0
   4   0  -2 3537.60   41.96   0
   4   0   1 2865.71   38.13   0
   6  -3 -18  445.09   23.07   0
   6  -1   4 1561.84   31.53   0
   7  -4 -19  183.17   22.21   0
   7  -2  -9  640.91   25.74   0
   6  -1  -5  849.22   25.85   0
   7  -2   9  235.38   20.97   0
   9  -4 -11  108.37   21.66   0
   4  -2 -18  638.65   24.57   0
   4   0  -5  846.58   25.27   0
   4   0   4 3198.73   41.72   0
   5  -2 -17  702.09   25.68   0
   2  -1 -15 1119.43   30.08   0
   6  -1  -8 1191.57   28.47   0
   9  -3  -3  260.56   24.58   0
   9  -3   0  460.07   24.08   0
   3   0  -9 2689.88   37.34   0
   6  -1   7  710.80   24.12   0
   7  -3 -17  223.49   24.34   0
   9  -3   3  131.51   21.79   0
   7  -2 -12  492.53   25.35   0
   8  -2  -2  393.05   24.53   0
   8  -2   1  362.39   23.59   0
   2   0 -10 7118.62   62.79   0
   6  -2 -16  550.48   25.28   0
   8  -4 -18  182.41   22.63   0
   8  -2  -5  296.27   24.94   0
   9  -3  -6  203.32   22.63   0
   4   0  -8 3065.63   39.10   0
   8  -2   4  717.27   27.75   0
   5   0  -1  623.92   24.15   0
   9  -3   6  256.34   23.85   0
   4   0   7  612.37   23.56   0
   5   0  -4 1959.09   32.95   0
   6  -1 -11  365.68   21.74   0
   8  -2  -8  607.91   26.07   0
   9  -3  -9  124.83   22.06   0
   4  -1 -16 1603.62   31.53   0
   7  -1  -4 1141.80   29.39   0
   7  -1   2  478.55   25.14   0
   5  -1 -15  492.89   23.83   0
   8  -2   7  168.23   21.83   0
   5   0  -7 1204.28   27.86   0
   7  -2 -15  137.29   22.23   0
   8  -3 -16  219.94   23.17   0
   3  -1 -17 1081.55   28.83   0
   3   0 -12 2074.12   33.83   0
   4   0 -11 1336.35   29.62   0
   5   0   5 1406.73   30.46   0
   7  -1  -7  241.77   22.42   0
   7  -1   5  349.60   22.39   0
   8  -2 -11  140.14   25.42   0
   9  -3 -12  281.25   25.90   0
   5  -2 -20  628.23   26.02   0
   7  -3 -20  165.70   22.29   0
   5   0 -10 1258.35   28.88   0
   6  -2 -19  145.79   20.15   0
   7  -1 -10  421.06   23.66   0
   6   0  -3  449.76   23.20   0
   9  -2  -1  119.33   23.43   0
   2   0 -13 2568.41   40.12   0
   9  -2  -4  335.16   24.06   0
   5   0   8 1307.26   31.58   0
   6   0  -6  700.49   25.64   0
   6   0   3  697.75   25.77   0
   9  -2   2  262.26   24.70   0
   3   1  -1 1881.23   32.46   0
   4   0  10 2361.05   41.46   0
   9  -2  -7  142.41   24.67   0
   2   1  -2 6950.69   60.67   0
   3   1  -4 5814.60   52.29   0
   4   0 -14 1181.44   28.10   0
   7  -2 -18  339.99   23.61   0
   8  -3 -19   56.62   19.92   0
   8  -1  -3  260.26   25.33   0
   8  -1   0  587.19   27.82   0
   5  -1 -18  473.05   23.25   0
   7  -1 -13  392.86   24.95   0
   2   1  -5 4568.33   49.04   0
   4  -1 -19  296.26   21.63   0
   6   0  -9  609.93   24.77   0
   8  -1  -6  263.99   24.16   0
   9  -2   5  229.36   23.42   0
   3   0 -15  607.68   23.54   0
   3   1  -7 1472.07   29.49   0
   4   1  -3 1738.64   31.65   0
   4   1   0 2860.12   39.13   0
   6  -1 -17  325.21   24.63   0
   8  -1   3  136.87   21.10   0
   9  -2 -10  175.68   24.41   0
   6   0   6  616.79   25.23   0
   4   1  -6 1862.09   32.58   0
   8  -1  -9  168.36   25.15   0
   2   1  -8 4583.90   49.17   0
   4   1   3  722.53   23.47   0
   6   0 -12  854.42   29.17   0
   8  -2 -17  158.06   23.79   0
   7   0  -5  369.72   24.91   0
   7   0   1  363.62   24.42   0
   8  -1   6  264.20   23.80   0
   3   1 -10 1909.88   33.37   0
   3   1   5 2301.50   37.76   0
   4   1  -9  708.93   24.86   0
   5   1  -2 1396.36   31.42   0
   7  -1 -16  363.18   25.71   0
   5   1  -5  852.81   26.69   0
   7   0  -8  789.63   29.92   0
   8  -1 -12  371.69   26.69   0
   4   0 -17  425.18   22.15   0
   7  -2 -21  168.32   21.77   0
   7   0   4 1048.01   30.05   0
   5   1  -8 1174.70   29.83   0
   2   0 -16 1310.10   31.91   0
   4   1   6 2291.60   37.59   0
   4   1 -12 1629.84   32.81   0
   5  -1 -21  237.56   22.78   0
   5   1   4 1558.57   32.44   0
   6  -1 -20  294.59   24.49   0
   7   0 -11  121.52   23.36   0
   9  -1  -5  114.81   23.99   0
   9  -1  -2  214.08   22.73   0
   2   1 -11  920.74   25.20   0
   9  -1   1  160.42   22.69   0
   3   0 -18 1418.98   32.15   0
   3   1 -13 1188.95   27.96   0
   5   1 -11  355.31   23.02   0
   6   1  -4 1103.61   29.94   0
   7  -1 -19   60.59   22.58   0
   7   0   7  192.79   22.74   0
   8   0  -4  351.75   26.18   0
   8   0  -1  127.54   22.38   0
   9  -1   4  160.19   22.48   0
   6   1   2  445.96   23.74   0
   7   0 -14  198.23   22.84   0
   8   0  -7  174.58   22.43   0
   8   0   2  289.07   24.62   0
   3   1   8 4059.97   52.08   0
   5   0 -19  283.68   22.52   0
   5   1   7  682.34   25.84   0
   6   1 -10  413.55   25.56   0
   4   1 -15  479.92   23.05   0
   6   0 -18  279.17   24.44   0
   8   0 -10  202.71   25.20   0
   4   0 -20  677.25   27.73   0
   2   1 -14 2588.93   39.47   0
   3   2  -5 1548.81   30.42   0
   3   2  -2 1411.48   29.42   0
   6   1   5  354.25   24.37   0
   4   1   9 1283.71   31.62   0
   4   2  -4 1638.04   32.22   0
   8   0   5  219.86   23.68   0
   3   1 -16 1592.03   33.34   0
   3   2  -8 3648.39   43.92   0
   4   2  -7  513.35   24.71   0
   4   2  -1 1122.18   28.06   0
   6   1 -13  428.97   24.89   0
   7   1  -6  256.33   24.81   0
   2   2  -3 1806.52   31.76   0
   7   0 -17  182.21   22.54   0
   7   1   0  620.59   27.12   0
   8   0 -13  124.66   24.23   0
   2   2  -6 1685.76   31.01   0
   7   1  -9  179.06   26.28   0
   5   2  -3  227.52   23.77   0
   7  -1 -22  143.82   21.69   0
   2   2   0 9175.86   67.25   0
   4   2 -10 1171.99   29.60   0
   5   2  -6  888.88   28.25   0
   7   1   3  151.10   22.93   0
   3   2 -11  513.32   23.83   0
   5   1 -17  324.17   23.85   0
   1   1 -12 3814.46   49.28   0
   2   2  -9 2252.06   35.37   0
   4   1 -18  526.37   25.82   0
   5   2  -9  635.62   27.80   0
   7   1 -12  373.23   27.50   0
   3   2   4 4482.48   49.72   0
   6   0 -21  166.08   23.27   0
   6   1 -16  347.55   26.52   0
   5   0 -22  208.02   23.69   0
   5   2   3  799.43   27.73   0
   4   2   5  633.55   25.22   0
   6   2  -5  326.24   23.85   0
   7   0 -20  196.87   23.81   0
   5   2 -12  529.01   25.82   0
   7   1   6  251.04   23.77   0
   8   1  -2  208.25   25.17   0
   2   1 -17 1048.49   28.99   0
   3   2 -14  729.60   26.54   0
   6   2  -8  477.87   26.20   0
   3   1 -19  247.53   21.37   0
   6   2   1  346.80   25.60   0
   1   2  -4 7482.20   62.73   0
   8   1   1  120.18   21.00   0
   1   2  -7 3508.89   43.84   0
   5   1 -20  293.18   25.25   0
   6   2 -11  157.85   23.85   0
   1   2  -1 1551.66   31.88   0
   6   1 -19   50.85   22.49   0
   4   2 -16  524.72   25.19   0
   5   2   6  667.68   25.16   0
   4   1 -21  227.33   24.83   0
   6   2   4  671.53   27.67   0
   3   2   7  679.87   24.98   0
   7   2  -7  201.52   25.99   0
   1   1 -15 1134.44   30.05   0
   3   3  -6 1382.88   30.24   0
   3   3  -3  865.20   26.41   0
   4   3  -5  695.89   26.71   0
   6   2 -14  215.19   23.98   0
   7   2  -1   92.71   23.73   0
   2   2 -15  373.53   20.72   0
   3   2 -17  711.46   26.97   0
   4   2   8 1345.01   31.81   0
   4   3  -8  756.36   27.32   0
   3   3  -9  725.00   25.96   0
   7   2 -10  179.31   23.58   0
   2   2   6 1574.73   33.67   0
   2   3  -4 4513.14   46.92   0
   5   3  -4  764.00   29.09   0
   2   3  -7  764.41   24.66   0
   4   3 -11  280.16   22.57   0
   5   3  -7  227.68   24.31   0
   7   2   2  258.69   24.85   0
   5   2 -18  340.73   24.52   0
   2   3  -1 1616.77   30.72   0
   3   3 -12 1035.69   29.16   0
   4   2 -19  142.96   22.71   0
   5   3 -10  343.75   24.67   0
   2   3 -10 1156.12   28.59   0
   6   1 -22  126.27   22.66   0
   6   2 -17  102.83   21.86   0
   1   2 -13 1063.27   27.21   0
   3   3   3  854.93   26.15   0
   5   3   2  409.45   25.01   0
   4   3   4  924.94   27.92   0
   5   3 -13  237.83   25.99   0
   6   3  -6  162.64   23.09   0
   6   3  -9   96.36   22.29   0
   2   2 -18  656.43   25.80   0
   3   2 -20  661.43   27.53   0
   3   3 -15  284.48   22.44   0
   6   3   0  422.37   26.46   0
   1   3  -5 2390.83   36.09   0
   1   3  -8 4447.64   47.89   0
   6   3 -12  279.94   26.58   0
   1   3  -2 2740.94   38.62   0
   5   2 -21  155.77   21.78   0
   4   3 -17  267.15   25.53   0
   5   3   5  277.77   22.52   0
   3   3   6 1358.10   31.79   0
   6   3   3  114.85   22.71   0
   1   2 -16 2195.23   38.40   0
   3   4  -7  649.50   28.04   0
   3   4  -4  947.80   30.37   0
   4   2 -22  292.86   24.10   0
   4   3   7  593.80   25.92   0
   4   4  -6  375.66   25.34   0
   4   4  -3  309.54   25.26   0
   2   3 -16 1160.14   30.07   0
   2   3   5 1411.65   31.79   0
   3   3 -18  462.75   26.32   0
   3   4 -10  663.30   29.06   0
   1   3   1 1848.38   33.17   0
   2   4  -5  614.65   26.26   0
   2   4  -8 1399.61   31.48   0
   4   4   0  846.37   29.59   0
   5   4  -5  177.56   25.54   0
   2   2   9 1963.33   39.88   0
   2   4  -2 1689.01   32.48   0
   4   4 -12  448.14   27.20   0
   5   4  -8  439.04   26.62   0
   3   4 -13  241.83   24.71   0
   5   4  -2  179.39   23.25   0
   1   3 -14 1290.03   29.76   0
   2   4 -11  607.19   25.83   0
   3   4   2 1157.82   30.83   0
   4   3 -20  163.96   24.33   0
   5   4 -11   97.39   22.28   0
   0   2 -11 3787.46   49.03   0
   4   4   3  313.19   25.15   0
   5   4   1  235.98   25.56   0
   1   4  -6 2310.24   35.97   0
   2   3 -19  128.75   21.67   0
   5   4 -14   80.15   24.26   0
   1   4  -9 1409.64   31.81   0
   3   4 -16  425.16   27.38   0
   1   3   4 5658.91   55.92   0
   1   4  -3  714.45   24.02   0
   3   3 -21  206.31   24.08   0
   3   3   9  719.04   26.61   0
   0   3  -6 4468.67   48.75   0
   3   4   5  610.10   26.54   0
   5   4   4  534.64   27.55   0
   0   3  -3 4578.29   49.60   0
   1   3 -17  900.34   27.14   0
   1   4   0 2785.23   38.90   0
   2   3   8 3444.98   47.23   0
   2   4   4 1602.39   32.58   0
   4   4 -18  139.41   23.05   0
   2   4 -17  270.09   24.10   0
   3   5  -8  657.22   28.60   0
   3   5  -5  296.75   24.81   0
   4   4   6  400.77   25.49   0
   0   2 -14 2177.86   38.99   0
   4   5  -7  103.98   22.88   0
   4   5  -4  532.81   28.80   0
   0   3 -12 3162.93   42.90   0
   2   5  -9  240.42   25.01   0
   2   5  -6  684.61   26.41   0
   3   4 -19  158.94   24.61   0
   3   5 -11  164.60   24.42   0
   4   5 -10  149.87   23.00   0
   2   5  -3  731.25   27.49   0
   0   3   0 5774.42   55.93   0
   1   4 -15  288.05   21.75   0
   4   5  -1  244.67   23.24   0
   2   5 -12  740.29   27.30   0
   3   5   1  347.32   26.41   0
   4   5 -13  151.76   25.48   0
   1   4   3 1719.23   32.69   0
   3   5 -14  220.60   24.45   0
   5   5  -3   62.18   21.11   0
   0   4  -7  597.81   23.54   0
   0   4  -4 3214.37   41.17   0
   1   5  -7  703.19   25.84   0
   1   5  -4 1493.19   33.10   0
   4   5   2  189.15   24.32   0
   1   3 -20  706.94   28.19   0
   1   5 -10  913.35   28.48   0
   2   4 -20  353.33   25.38   0
   3   4   8  759.63   27.73   0
   5   5   0  272.98   24.58   0
   0   3 -15  966.66   28.28   0
   2   4   7  470.49   23.94   0
   1   3   7 1343.41   30.79   0
   1   5  -1  589.04   26.02   0
   3   5 -17  190.90   24.07   0
   0   4  -1 2957.02   39.84   0
   1   4 -18  719.31   28.05   0
   3   4 -22  172.32   22.78   0
   3   5   4  739.74   28.65   0
   0   4 -13 1294.72   30.98   0
   2   5   3  267.37   22.11   0
   0   2 -17  499.06   24.10   0
   2   5 -18  241.66   24.89   0
   3   6  -6  232.71   27.09   0
   4   5   5  191.88   23.93   0
   1   4   6 1808.93   35.07   0
   2   6  -7  178.39   23.63   0
   3   6  -9  264.99   24.29   0
   0   5  -8 1331.49   29.88   0
   1   5 -16  545.01   28.37   0
   2   6 -10  264.64   27.11   0
   2   6  -4  706.42   28.91   0
   0   5  -5 1333.65   29.81   0
   3   5 -20  160.46   23.88   0
   3   6 -12  212.37   23.73   0
   0   4 -16  804.38   27.52   0
   0   4   2 3287.92   42.08   0
   0   3 -18  926.53   28.95   0
   0   5  -2 2259.61   36.09   0
   1   6  -8 1000.49   32.20   0
   2   6 -13  287.38   26.43   0
   3   6   0  444.79   28.36   0
   2   5   6  825.00   27.35   0
   3   5   7  183.09   22.49   0
   1   4 -21  309.73   24.44   0
   1   6  -2  432.44   24.25   0
   0   5 -14 1023.48   29.16   0
   2   5 -21   86.54   23.74   0
   1   5 -19  168.52   24.09   0
   1   5   5  867.00   28.50   0
   2   6 -16  247.49   23.65   0
   2   6   2  355.41   27.18   0
   0   5   1  586.79   23.70   0
   3   6   3  214.46   25.16   0
  -1   3 -10 2911.83   41.82   0
  -1   3  -4 7407.20   63.95   0
  -1   4  -8 4416.73   48.46   0
  -1   4  -5 2303.72   36.23   0
   0   6  -6  609.23   27.72   0
   0   6  -9  430.37   25.52   0
  -1  -7 -15   96.33   28.90   0
   0  -5 -16  764.47   32.16   0
   1  -7 -10  386.44   30.89   0
  -4  -2 -23   80.29   29.09   0
  -1  -3 -19  279.61   28.05   0
   2  -5  -5 1502.44   37.57   0
   0  -7 -14  183.14   29.96   0
   0  -4 -17  442.02   30.52   0
  -2   0 -17  545.84   28.08   0
   1  -3 -11 1004.74   30.52   0
  -2  -5 -21  182.34   29.34   0
   0  -1 -11 1033.08   31.14   0
   1  -4 -13 1233.84   33.78   0
  -1  -5 -20  333.83   33.07   0
   2  -6  -7  478.23   27.71   0
  -3  -4 -23   66.60   26.90   0
  -5   0 -23   98.35   26.01   0
   1  -6 -14  716.45   32.79   0
  -1  -4 -21  272.81   29.38   0
   2  -5  -8 3681.76   52.26   0
   1  -7 -13  388.46   30.25   0
  -4  -1 -24  172.20   29.13   0
  -3   0 -21  383.61   28.05   0
  -2  -3 -23   50.59   27.63   0
   0  -5 -19  228.86   30.18   0
   0  -3 -18 1433.67   37.75   0
   0  -2 -16 1305.83   32.94   0
   2  -4  -6 1647.79   36.86   0
  -3  -1 -23  146.90   27.93   0
  -1  -2 -20  778.23   31.01   0
   1  -2  -9 2661.50   44.48   0
   0  -7 -17  191.99   29.66   0
  -5  -1 -25   64.10   28.18   0
   2  -6 -10 1117.42   33.58   0
  -2   1 -15 1132.79   33.39   0
   1  -3 -14 2620.10   42.21   0
   2  -7  -9  634.49   31.13   0
   0  -4 -20  662.70   32.00   0
   1  -4 -16 1613.90   36.91   0
  -3  -2 -25  147.78   27.61   0
  -3   1 -19  517.38   27.56   0
  -2  -1 -22  517.96   29.80   0
   2  -5 -11  536.75   28.15   0
   0  -1 -14 2886.01   44.25   0
   1  -6 -17  344.43   30.97   0
   2  -4  -9 2157.35   39.82   0
  -1  -6 -22  127.64   26.37   0
  -1  -5 -23   73.40   27.46   0
   1  -7 -16  370.75   31.29   0
  -2  -4 -25   84.00   27.24   0
  -2   0 -20 1303.91   35.35   0
   1  -5 -18  499.40   31.02   0
  -1   0 -16 3347.50   47.35   0
  -1  -4 -24  281.55   28.91   0
   1  -2 -12 3931.94   49.94   0
   2  -7 -12  457.08   30.38   0
   2  -6 -13  653.65   29.29   0
   0  -5 -22  264.65   31.45   0
   0  -2 -19  405.69   26.18   0
  -4   0 -25  206.53   27.83   0
  -3  -3 -27   46.07   25.38   0
   1  -8 -15   88.48   25.34   0
   2  -5 -14  694.12   29.84   0
  -1  -2 -23  175.13   25.96   0
   1  -4 -19  278.62   28.39   0
   1  -3 -17 1068.51   32.00   0
  -4  -1 -27   26.41   26.79   0
  -3  -1 -26  221.75   26.79   0
  -3   0 -24  441.12   27.35   0
   0  -4 -23  221.92   28.42   0
  -1  -3 -25  223.18   28.21   0
   1  -7 -19   45.81   27.51   0
   0  -1 -17 1801.64   36.54   0
   2  -7 -15   96.59   27.07   0
   2  -6 -16  552.34   30.05   0
  -2   1 -18 1671.31   37.74   0
   1  -5 -21  242.24   28.35   0
   1  -2 -15 1186.35   31.76   0
  -3  -2 -28  104.17   27.58   0
  -2  -1 -25  243.10   29.05   0
   2  -3 -10 3068.37   45.60   0
  -3   1 -22  530.47   28.51   0
   2  -4 -15  361.38   25.11   0
  -2  -2 -27   36.98   25.50   0
  -1   0 -19  465.71   25.96   0
  -2   0 -23  402.22   27.56   0
  -1  -4 -27   47.11   28.47   0
   0  -5 -25  130.89   26.15   0
   0  -3 -24  300.18   28.35   0
   0  -2 -22 1107.89   33.37   0
   1  -3 -20  762.82   29.56   0
   0   0 -12 9662.73   78.27   0
   1  -4 -22  424.03   29.16   0
   3  -6  -9  757.41   29.99   0
   2  -7 -18  368.35   29.69   0
   2  -6 -19  124.72   27.23   0
   2  -3 -13 1047.96   30.83   0
  -2  -3 -29  107.36   27.47   0
   1  -7 -22  142.06   27.45   0
  -1  -1 -24  505.94   27.46   0
   0  -4 -26  220.47   28.76   0
   1  -1 -10 3480.25   48.62   0
   3  -7 -11  229.67   25.32   0
   3  -5  -7  745.86   28.33   0
   0  -1 -20 1364.46   33.56   0
   1  -2 -18 1695.98   35.25   0
   2  -4 -18  643.83   29.93   0
   3  -6 -12 1100.12   33.30   0
  -1   1 -14 2672.50   44.68   0
   1  -5 -24  290.64   27.76   0
   2  -5 -20  682.67   31.41   0
   3  -5 -10 1134.96   32.42   0
  -3  -1 -29  119.62   26.21   0
  -2   1 -21  570.29   27.99   0
   1  -1 -13 2514.07   40.59   0
   2  -3 -16 2252.13   38.52   0
   3  -7 -14  579.76   29.13   0
  -2  -1 -28  251.26   27.43   0
   3  -6 -15  310.87   26.32   0
   3  -5 -13 1155.32   32.35   0
  -1   0 -22  744.22   28.30   0
   1  -3 -23  200.54   24.35   0
   2  -7 -21  163.94   24.83   0
  -2  -2 -30  123.05   26.87   0
   0  -3 -27   86.44   25.70   0
   0  -2 -25  303.09   25.47   0
   1  -4 -25  231.71   28.03   0
  -2   0 -26  271.96   26.50   0
   1  -2 -21  585.02   27.78   0
   2  -4 -21  600.17   29.05   0
   3  -7 -17  242.05   27.35   0
   3  -4  -8 4316.50   53.30   0
  -1  -2 -29  142.29   28.49   0
  -1   1 -17 1736.07   36.03   0
   0  -4 -29   52.67   27.59   0
   1  -1 -16 3530.85   45.93   0
   2  -5 -23   99.28   25.96   0
   2  -2  -8 6465.71   63.99   0
   3  -5 -16 1218.89   32.73   0
   3  -4 -11  711.50   27.12   0
  -1  -1 -27  140.32   27.28   0
   1  -5 -27   49.43   24.88   0
   2  -3 -19  587.05   27.82   0
   2  -2 -11 3975.69   48.80   0
   3  -6 -18  494.42   28.40   0
   3  -4  -5 2296.40   42.64   0
   2  -2 -14 2274.96   37.90   0
  -2   2 -16 1270.81   34.13   0
   1  -3 -26  366.46   27.73   0
  -2   1 -24  470.21   26.92   0
   3  -7 -20  153.95   27.06   0
  -1   0 -25  387.06   25.46   0
   1  -4 -28  174.51   26.55   0
   1  -1 -19  504.02   24.19   0
   2  -4 -24  440.96   28.53   0
   0  -3 -30  182.73   27.82   0
   1  -2 -24  496.13   27.07   0
   3  -6 -21  257.81   26.31   0
   3  -4 -17  909.32   31.01   0
  -2  -1 -31   50.70   23.90   0
  -1   1 -20 1327.32   33.74   0
   2  -5 -26  187.78   29.43   0
   2  -3 -22  499.82   28.01   0
   2  -2 -17  575.38   27.05   0
   0   0 -21 1285.22   32.96   0
  -2   0 -29  104.02   25.61   0
   0  -1 -26  421.38   27.95   0
  -1  -2 -32   62.01   25.30   0
  -1  -1 -30  160.36   26.99   0
   3  -7 -23   62.88   25.59   0
   3  -4 -20  792.16   31.16   0
   4  -6 -11  618.61   27.34   0
  -2   2 -19  417.10   24.24   0
   1  -1 -22  748.51   30.07   0
   3  -3 -12 3190.99   43.72   0
   4  -6 -14  703.42   29.65   0
   1  -3 -29  136.03   25.04   0
   2  -2 -20 1360.64   32.44   0
   3  -6 -24  157.60   25.38   0
   4  -7 -16  424.25   28.24   0
   2  -3 -25  274.64   27.72   0
   3  -3 -15  995.00   29.07   0
  -1   0 -28  232.59   26.20   0
  -1   1 -23  156.99   22.98   0
   2  -5 -29  113.30   27.08   0
   4  -6 -17  246.67   24.60   0
   0  -2 -31   36.17   23.54   0
   0   0 -24  731.11   28.38   0
   4  -5 -12 1194.15   32.36   0
   1   0 -14 2828.63   42.42   0
   1   0 -11 1021.64   28.41   0
   3  -5 -25  212.44   26.28   0
   3  -4 -23  103.18   24.26   0
   3  -3 -18  928.22   28.65   0
   3  -3  -6 4204.76   53.03   0
   4  -7 -19  172.25   25.31   0
   4  -5 -15  268.34   24.52   0
   0  -1 -29  215.97   26.72   0
   0   1 -13 2374.15   40.85   0
   4  -5  -9 1405.53   33.48   0
   2  -2 -23  447.03   25.28   0
   4  -6 -20  344.33   28.06   0
   4  -5 -18  784.14   30.55   0
   0   1 -16 3238.53   45.14   0
   2  -1 -12 3979.52   47.54   0
   2  -4 -30  130.09   28.07   0
   2  -3 -28  234.81   28.42   0
   2  -1 -15 1198.74   29.46   0
   3  -3 -21  429.32   26.51   0
   1  -3 -32   47.34   25.85   0
   4  -7 -22  163.63   25.89   0
   2  -1  -9 2657.69   41.30   0
   0   1 -19  469.16   24.54   0
   2  -1 -18 1713.35   33.83   0
   3  -5 -28  149.57   27.00   0
   3  -4 -26  259.66   26.49   0
   4  -6 -23  155.09   26.88   0
  -1   1 -26  402.98   26.84   0
   0   0 -27   66.47   22.23   0
   4  -4 -13 1383.07   31.71   0
  -1   0 -31   47.74   24.28   0
   3  -3 -24  482.17   27.81   0
   4  -4 -10 2533.52   40.11   0
  -1   2 -15 1105.86   31.42   0
   2  -1 -21  612.98   25.72   0
   3  -2 -16 2345.81   38.28   0
   3  -2 -13 1042.26   27.85   0
   4  -4 -19  189.15   25.27   0
   0  -1 -32  115.87   25.05   0
   3  -2 -10 3076.66   42.61   0
  -1   2 -18 1592.51   35.61   0
   0   1 -22  786.81   27.35   0
   1   0 -23  182.89   22.02   0
   2  -3 -31   51.21   25.71   0
   3  -2 -19  545.91   25.29   0
   4  -6 -26  144.45   26.58   0
   3  -4 -29  144.02   27.50   0
   4  -4  -7  631.61   25.33   0
   1  -2 -33   40.96   25.26   0
   2  -2 -29  127.59   24.01   0
   3  -3 -27  108.55   27.32   0
   5  -7 -18  205.60   25.37   0
   0   0 -30  232.24   25.85   0
   3  -2 -22  496.98   27.09   0
   5  -6 -16  617.01   28.11   0
   5  -6 -13  323.90   24.79   0
  -1   2 -21  530.51   25.70   0
   4  -5 -27   53.46   23.80   0
   5  -6 -19  200.10   25.31   0
   0   1 -25  399.48   25.62   0
   1  -1 -31   25.06   24.45   0
   1   0 -26  442.41   26.43   0
   3  -2  -7 3479.46   46.24   0
   4  -4 -25  215.85   27.27   0
   4  -3 -17  917.52   29.19   0
   4  -3 -14 1339.99   31.34   0
   5  -7 -21  120.06   24.51   0
   3  -2 -25  258.27   27.71   0
   4  -3 -20  784.20   29.04   0
   5  -6 -22  198.14   24.23   0
   5  -5 -14 1100.14   32.02   0
   3  -3 -30  156.28   27.39   0
   5  -5 -20  297.09   25.97   0
   2   0 -16 1318.79   30.74   0
   4  -3 -23  142.65   25.14   0
   5  -5 -11  413.35   24.57   0
   2   0 -19  401.93   23.58   0
   4  -4 -28  117.99   23.36   0
   1   0 -29  215.29   26.11   0
   1   1 -18 1654.27   34.61   0
   2   0 -13 2564.32   38.97   0
   3  -1 -17 1062.64   28.94   0
   5  -6 -25   50.18   22.90   0
   5  -5 -23   75.38   25.73   0
   0   0 -33   96.24   23.49   0
   0   1 -28  242.69   25.61   0
   3  -2 -28  284.98   28.01   0
   3  -1 -14 2654.57   39.80   0
   4  -3  -8 4289.97   50.59   0
   3  -1 -20  814.28   28.47   0
   4  -4  -4 3055.61   47.93   0
   1   1 -21  577.62   25.42   0
   2  -1 -30  151.87   27.55   0
   4  -3 -26  273.39   26.09   0
   5  -4 -15  316.24   23.58   0
   2   0 -10 7489.12   63.92   0
   3  -1 -23  200.04   22.94   0
   3  -1 -11  962.21   27.69   0
   5  -5  -8 1286.86   32.93   0
   4  -2 -18  639.50   27.26   0
   1   1 -24  488.40   27.57   0
   2   0 -25  291.38   24.35   0
   5  -4 -12 1188.40   31.03   0
   0   2 -17  534.02   25.41   0
   4  -2 -21  643.79   28.09   0
   0   2 -20 1343.09   33.62   0
   3  -2 -31   42.80   26.11   0
   4  -3 -29  120.81   27.52   0
   5  -4 -24  204.82   26.02   0
   1   0 -32   83.00   24.45   0
   3  -1 -26  349.37   26.31   0
   4  -2 -12 3638.13   45.26   0
   0   2 -14 2141.47   38.26   0
   4  -2 -24  449.98   27.55   0
   6  -6 -18  182.60   25.44   0
   2  -1 -33   58.38   22.53   0
   2   0 -28  111.26   26.13   0
   5  -4  -9 1382.23   32.82   0
   6  -6 -21  194.37   25.70   0
   6  -6 -15  209.70   24.72   0
   1   1 -27  117.94   22.63   0
   3  -1  -8 4363.92   49.98   0
   4  -3  -5 2299.15   40.43   0
   5  -4 -27   51.90   25.01   0
   5  -3 -19  127.40   25.04   0
   5  -3 -16 1216.29   31.74   0
   4  -2 -27   62.87   24.61   0
   5  -3 -22  359.69   26.90   0
   6  -6 -24  156.32   25.56   0
   4  -2  -9 2164.23   36.59   0
   6  -5 -19  214.06   25.59   0
   2   0  -7  717.68   25.29   0
   6  -5 -16  644.71   28.17   0
   5  -3 -25  219.94   28.52   0
   6  -5 -22  191.45   24.94   0
   3   0 -18 1449.88   33.17   0
   1   1 -30  149.83   26.15   0
   2   0 -31   51.92   25.25   0
   3   0 -21  514.47   26.73   0
   2   1 -20  812.09   28.15   0
   3   0 -15  632.32   25.49   0
   4  -2 -30  149.68   26.78   0
   6  -5 -25  131.86   26.05   0
   4  -1 -22  424.48   28.90   0
   4  -1 -16 1607.20   34.29   0
   2   1 -23  208.15   23.30   0
   3  -1 -32   66.45   25.47   0
   5  -3 -28  132.39   27.67   0
   5  -3 -10 1164.53   30.11   0
   5  -4  -6 2199.90   40.05   0
   6  -4 -20  343.27   28.73   0
   4  -1 -25  253.71   28.67   0
   6  -4 -17  252.40   24.94   0
   3   0 -12 2226.67   37.29   0
   5  -2 -20  639.18   31.07   0
   1   2 -19  522.15   25.55   0
   2   1 -26  352.77   28.49   0
   3   0 -27  102.39   25.12   0
   5  -2 -17  746.23   29.93   0
   6  -5 -10  842.55   29.65   0
   6  -4 -14  743.82   29.91   0
   1   2 -22  515.32   27.15   0
   5  -2 -23   72.24   26.10   0
   1   2 -16 2246.67   39.91   0
   3  -1  -5 4441.82   52.83   0
   4  -1 -28  166.85   25.79   0
   5  -2 -14  765.73   28.09   0
   1   2 -25  229.46   25.82   0
   2   1 -11  952.51   28.82   0
   5  -2 -26  194.15   27.03   0
   7  -6 -20  260.49   26.76   0
   2   1 -29  140.32   24.41   0
   3   0 -30  205.69   25.56   0
   4  -1 -10 1854.65   35.24   0
   6  -4 -11  644.85   28.06   0
   7  -6 -17  205.85   26.24   0
   5  -3  -7  756.78   26.32   0
   6  -3 -21  200.96   28.55   0
   1   2 -13 1024.77   28.87   0
   3   0  -9 2784.22   41.66   0
   5  -2 -29   89.83   24.32   0
   6  -3 -24  183.82   26.94   0
   7  -5 -21  115.10   26.39   0
   7  -5 -18  232.19   27.42   0
   4   0 -23  195.72   27.81   0
   6  -3 -27   55.23   27.04   0
   2   1 -32   58.74   25.74   0
   4   0 -17  433.33   25.67   0
   5  -1 -21  251.27   28.51   0
   7  -5 -15  266.50   25.25   0
   0  -3 -21  523.68   25.99   0
   2  -3 -10 3090.53   40.59   0
  -2  -2 -24  401.53   25.57   0
  -2  -1 -22  528.07   26.73   0
   0  -2 -19  436.91   22.20   0
   1  -5 -21  262.26   25.72   0
   2  -5 -17  765.01   27.42   0
   2  -4 -15  397.25   23.03   0
   2  -7 -18  323.01   25.11   0
   3  -9  -9  104.28   22.91   0
   0  -6 -24   98.45   24.28   0
  -2  -3 -26  154.83   23.60   0
   1  -2 -15 1203.42   29.28   0
   2  -6 -19  128.34   23.82   0
  -1  -2 -23  187.91   20.21   0
   1  -7 -22  122.27   24.38   0
   3  -4  -5 2263.62   36.98   0
   3  -4  -2 2790.74   42.61   0
  -1  -3 -25  261.22   24.14   0
  -1   0 -16 3202.95   44.97   0
   2  -3 -13 1110.82   27.46   0
   1  -6 -23   74.39   25.18   0
   3  -9 -12  280.63   24.31   0
   3  -6 -15  333.71   24.63   0
   3  -5 -13 1129.82   29.95   0
  -1  -1 -21  531.13   24.26   0
   0  -1 -17 1724.19   32.47   0
   1  -4 -22  443.13   24.75   0
   2  -5 -20  718.28   28.67   0
   2  -4 -18  680.92   25.65   0
   3  -8 -16  251.13   25.30   0
   4  -8  -6  366.17   25.78   0
   4  -7  -4  930.36   28.56   0
   2  -7 -21  173.77   22.93   0
   3  -7 -17  236.08   26.05   0
   4  -7  -7  585.34   25.80   0
  -1  -4 -27   65.21   20.83   0
   0  -3 -24  322.79   24.32   0
   1  -5 -24  268.07   23.80   0
   3  -4 -11  740.30   23.54   0
   4  -8  -9  307.95   23.62   0
   1  -1 -10 3328.02   43.71   0
   2  -6 -22  271.24   27.09   0
   4  -7 -10  727.02   26.88   0
   4  -6  -5  627.24   24.48   0
   0  -4 -26  166.13   24.17   0
   2  -3 -16 2376.95   36.01   0
   3  -6 -18  472.95   26.49   0
   4  -6  -8 1383.17   30.46   0
   4  -6  -2 1625.91   34.56   0
   2  -2  -8 6624.19   58.72   0
   4  -8 -12  469.46   26.70   0
   3  -4 -14 1300.27   30.40   0
   4  -9 -11  106.83   21.96   0
   4  -7 -13  262.69   22.47   0
   4  -6 -11  647.41   25.78   0
   0   0 -12 9698.09   75.73   0
   2  -4 -21  630.60   26.79   0
   3  -7 -20  189.31   23.48   0
  -1  -2 -26  342.20   24.01   0
   2  -5 -23   69.10   22.54   0
   2  -2 -11 4018.13   44.77   0
  -1  -3 -28  134.06   22.21   0
  -1   0 -19  448.82   22.17   0
   0  -1 -20 1319.05   30.60   0
   1  -3 -23  200.57   21.05   0
   1  -1 -13 2366.70   36.20   0
   3  -5 -19  157.45   20.53   0
   4  -8 -15  109.57   21.30   0
   2  -3 -19  550.88   24.56   0
   3  -6 -21  217.42   24.78   0
   4  -9 -14   86.78   21.27   0
  -1  -1 -24  463.10   23.93   0
   1  -5 -27   81.58   22.86   0
   2  -6 -25  137.45   24.35   0
   4  -5  -9 1358.97   30.68   0
   4  -5  -6 2248.21   35.55   0
   0  -3 -27   84.52   20.26   0
   1  -2 -21  535.47   23.09   0
   3  -4 -17  965.28   26.66   0
   3  -3  -6 4377.96   47.65   0
   4  -5  -3  704.83   24.69   0
   0  -2 -25  307.96   23.13   0
   2  -2 -14 2282.30   34.39   0
   3  -3  -9 1112.84   26.40   0
   0  -4 -29   88.51   21.52   0
   3  -7 -23   68.18   24.49   0
   4  -8 -18  143.63   23.60   0
   0   0 -15  380.83   19.82   0
   4  -6 -17  262.10   21.51   0
   2  -4 -24  426.24   24.91   0
   3  -3 -12 3288.33   40.25   0
   4  -7 -19  161.02   24.21   0
   2  -5 -26  164.05   24.42   0
   3  -5 -22  367.62   24.03   0
   4  -5 -15  300.43   21.20   0
   1  -4 -28  131.43   22.67   0
   1  -3 -26  365.45   24.57   0
   3  -6 -24  148.98   22.91   0
   3  -4 -20  787.19   27.71   0
   2  -2 -17  549.83   22.14   0
   4  -5   0 2641.08   42.93   0
   5  -8 -11  163.66   22.12   0
   0  -1 -23  185.51   18.53   0
   5  -7  -9  245.80   21.82   0
   5  -7  -6  689.90   26.86   0
  -1   0 -22  700.82   25.14   0
   4  -6 -20  380.56   23.89   0
   5  -8 -14  206.52   23.42   0
   5  -7 -12  669.75   25.90   0
   1  -2 -24  486.70   23.32   0
   4  -7 -22  206.23   24.60   0
   4  -5 -18  780.86   26.49   0
   5  -9 -13  134.90   22.54   0
   1  -1 -19  457.00   20.86   0
   4  -4 -10 2485.75   35.52   0
   4  -4  -7  632.70   22.10   0
   0   0 -18 1158.70   28.44   0
   5  -7 -15  264.37   23.99   0
   0  -3 -30  163.57   22.13   0
   2  -4 -27   21.34   22.72   0
   3  -5 -25  228.41   23.55   0
   3  -3 -18  969.26   26.73   0
   4  -4 -13 1330.59   28.67   0
   5  -6 -10  903.65   27.07   0
   0  -2 -28  127.24   21.34   0
   3  -4 -23  131.23   22.52   0
   5  -8 -17  180.69   21.59   0
   5  -6  -7  726.20   25.02   0
   2  -5 -29   81.73   22.30   0
   3  -6 -27   64.39   21.78   0
   4  -4  -4 3185.50   42.06   0
   5  -6 -13  359.11   22.18   0
   2  -3 -25  239.67   22.70   0
   4  -6 -23   97.17   21.66   0
   4  -5 -21  349.84   24.13   0
   4  -4 -16  847.96   25.95   0
   1  -3 -29   97.33   21.75   0
   5  -6  -4 1428.89   31.55   0
   0  -1 -26  444.61   24.26   0
   5  -8 -20  166.85   20.81   0
   1  -1 -22  709.12   24.15   0
  -1   1 -17 1714.35   35.36   0
   1  -2 -27  113.50   21.28   0
   2  -1 -12 3915.26   43.69   0
   2  -1  -9 2631.30   37.39   0
   4  -4 -19  201.22   20.66   0
   0   0 -21 1219.46   29.19   0
   2  -2 -23  406.88   21.13   0
   3  -5 -28  105.49   22.61   0
   3  -2 -10 3075.48   38.78   0
   5  -6 -19  199.79   23.06   0
   5  -5 -11  428.70   22.43   0
   3  -4 -26  264.10   22.94   0
   3  -2 -13 1064.53   26.07   0
   5  -5  -8 1314.52   29.16   0
   2  -4 -30  101.74   22.56   0
   2  -1 -15 1166.33   26.67   0
   3  -2  -7 3593.14   42.19   0
   4  -6 -26  149.01   22.14   0
   4  -5 -24  200.39   23.67   0
   4  -4  -1 2818.50   42.51   0
   2  -3 -28  245.51   23.83   0
   3  -2 -16 2309.71   34.47   0
   1   0 -14 2688.03   37.72   0
   4  -3 -11  711.09   23.77   0
   5  -5 -17  405.23   23.21   0
   5  -5  -5 1399.30   30.16   0
   6  -8 -13  258.45   21.59   0
   4  -4 -22  590.34   25.39   0
   4  -3 -14 1312.15   29.30   0
   5  -6 -22  232.67   24.18   0
   4  -3  -8 4324.04   45.01   0
   6  -8 -16  246.18   22.74   0
   6  -7 -11  228.16   22.18   0
   1  -1 -25  391.25   22.55   0
   6  -7 -14  194.79   23.29   0
   3  -2 -19  557.07   22.97   0
   4  -3 -17  932.74   27.16   0
   6  -7  -8 1004.25   27.82   0
   1   0 -17 1810.11   31.75   0
   2  -2 -26  280.13   23.78   0
   3  -2  -4 7082.44   61.62   0
   4  -5 -27   70.52   22.03   0
   5  -5 -20  307.72   23.70   0
   0   0 -24  681.31   25.24   0
   3  -4 -29  137.96   22.82   0
   6  -7 -17  196.02   22.06   0
   1  -2 -30  186.03   21.63   0
   2  -1 -21  574.10   23.57   0
   4  -4 -25  224.32   24.61   0
   4  -3 -20  807.73   25.62   0
   5  -6 -25   94.26   21.23   0
   5  -4 -12 1224.03   27.98   0
   6  -6 -12  985.00   28.37   0
   3  -3 -27  115.99   21.06   0
   5  -5  -2 2193.22   37.54   0
   5  -4 -15  301.89   20.08   0
   6  -7 -20  226.64   22.90   0
   6  -6 -15  214.60   23.59   0
   1   0 -20 1318.55   29.32   0
   2  -3 -31   50.93   20.60   0
   5  -5 -23  112.51   21.13   0
   6  -6  -9  459.42   21.77   0
   0   1 -13 2362.57   39.27   0
   1  -1 -28  249.50   21.16   0
   4  -3 -23  135.61   22.10   0
   5  -4  -6 2326.84   35.95   0
   6  -6  -6  593.53   23.97   0
   0   1 -16 3265.78   44.32   0
   2  -2 -29   93.90   21.33   0
   2  -1 -24  493.65   24.07   0
   5  -4 -21  316.96   23.08   0
   6  -6 -21  162.04   21.17   0
   3  -2 -25  212.55   22.10   0
   5  -5 -26  172.05   23.01   0
   1   0 -23  173.52   19.52   0
   6  -5 -13  342.83   21.65   0
   3  -3 -30  150.91   22.00   0
   3  -1 -14 2600.66   35.60   0
   4  -3  -2 2723.41   39.87   0
   6  -5 -10  888.74   27.31   0
   3  -1 -11 1006.81   25.74   0
   4  -2 -15  376.38   20.96   0
   4  -2 -12 3727.41   41.48   0
   7  -8 -15   37.41   19.64   0
   0   1 -19  456.49   20.89   0
   3  -1 -17 1059.79   26.87   0
   5  -4 -24  169.54   24.25   0
   6  -5 -19  208.71   23.43   0
   4  -2 -18  681.96   24.47   0
   6  -6 -24  148.29   21.20   0
   4  -2  -9 2192.07   33.22   0
   7  -7 -13  323.18   23.33   0
   2   0 -13 2554.57   36.81   0
   5  -4  -3  740.13   24.27   0
   5  -3 -16 1249.75   28.93   0
   5  -3 -13 1160.63   27.07   0
   6  -5  -7  681.53   24.71   0
   7  -7 -16  372.43   24.07   0
   2  -1 -27  108.28   19.42   0
   3  -1  -8 4513.09   45.96   0
   6  -5 -22  235.20   24.19   0
   7  -7 -10  228.25   23.39   0
   3  -2 -28  236.38   22.01   0
   4  -2 -21  637.06   24.75   0
   5  -3 -19  138.56   20.19   0
   5  -3 -10 1144.23   26.84   0
   7  -7 -19   49.67   21.43   0
   2  -2 -32   93.48   20.45   0
   1   0 -26  450.90   23.26   0
   2   0 -19  436.72   20.57   0
   2   0 -10 7365.58   59.10   0
   5  -4 -27   65.43   21.99   0
   3  -1 -23  222.90   19.80   0
   4  -3 -29  108.76   21.97   0
   4  -2  -6 1616.17   29.67   0
   5  -3 -22  355.51   23.50   0
   6  -4 -14  760.43   26.31   0
   7  -6 -14  227.35   23.09   0
   6  -5 -25   59.95   20.73   0
   6  -4 -17  286.97   22.83   0
   7  -6 -17  222.03   21.87   0
   7  -6 -11  209.12   22.11   0
   2   0 -22 1070.45   27.61   0
   6  -5  -4 1460.89   31.34   0
   6  -4 -20  376.14   23.89   0
   2  -1 -30  183.51   22.02   0
   1   1 -15 1124.40   27.68   0
   2   0  -7  735.14   22.80   0
   3  -2 -31   49.63   20.13   0
   3  -1  -5 4435.59   47.51   0
   5  -3 -25  195.25   21.91   0
   6  -4  -8 1371.11   30.46   0
   7  -6  -8 1000.94   29.29   0
   3  -1 -26  367.48   23.11   0
   6  -4 -23  135.85   21.02   0
   1   1 -18 1565.22   30.86   0
   4  -2 -27   64.21   21.79   0
   2   0 -25  278.44   22.01   0
   7  -5 -15  245.06   22.85   0
   4  -1 -16 1593.53   30.19   0
   5  -3  -4 4529.17   48.00   0
   5  -2 -17  749.76   25.82   0
   5  -2 -14  742.15   24.38   0
   7  -5 -12  717.37   25.88   0
   1   1 -21  534.51   23.16   0
   4  -1 -19  235.88   20.91   0
   4  -1 -13 1229.10   27.10   0
   5  -4   0 2739.98   42.50   0
   6  -4 -26  109.77   24.07   0
   7  -5 -21  135.41   23.14   0
   5  -2 -11  534.11   22.27   0
   6  -3 -15  306.02   23.45   0
   3  -1 -29  114.30   21.94   0
   3   0 -15  640.18   22.30   0
   6  -4  -5  634.96   23.75   0
   6  -3 -18  483.29   25.13   0
   7  -5  -9  268.47   21.92   0
   8  -7 -15   50.31   20.97   0
   4  -2 -30  123.14   22.03   0
   4  -1 -10 1869.55   31.17   0
   5  -2 -23   78.26   22.10   0
   6  -3 -12 1082.14   28.93   0
   3   0 -12 2218.77   33.88   0
   6  -3 -21  248.77   23.76   0
   1   1 -24  499.95   23.55   0
   2   0 -28  142.65   20.56   0
   3   0 -21  482.39   22.90   0
   5  -2  -8 3615.05   42.05   0
   4  -1 -25  264.02   23.50   0
   6  -3 -24  176.83   23.06   0
   7  -4 -19  186.51   24.27   0
   8  -6 -16  218.69   23.20   0
   3   0 -24  319.17   22.87   0
   7  -5  -6  669.00   25.21   0
   7  -4 -13  219.44   21.57   0
   8  -6 -13  251.11   22.99   0
   3   0  -9 2779.72   37.24   0
   4  -1  -7 1461.49   28.74   0
   2   1 -17 1118.22   28.12   0
   3  -1  -2 6620.33   60.25   0
   7  -4 -22  191.36   22.37   0
   2   1 -14 2498.23   36.83   0
   2   1 -20  820.78   25.46   0
   6  -3 -27   44.25   21.83   0
   7  -4 -10  714.14   25.36   0
   8  -6 -10  281.59   23.54   0
   4  -1 -28  182.41   23.12   0
   5  -3  -1 1658.91   32.35   0
   5  -2 -29  107.95   22.47   0
   6  -4  -2 1690.21   33.92   0
   0   2 -17  494.56   23.08   0
   2   1 -23  186.97   20.40   0
   3   0 -27   73.83   21.55   0
   5  -1 -18  527.20   25.85   0
   6  -3  -6 1384.63   29.18   0
   6  -2 -19  123.44   23.94   0
   6  -2 -16  602.08   25.05   0
   8  -5 -17  162.53   21.89   0
   5  -1 -21  272.52   23.19   0
   8  -5 -14  226.97   22.10   0
   0   2 -14 2123.55   38.48   0
   4   0 -17  424.62   22.07   0
   5  -1 -12 1710.12   32.54   0
   7  -4  -7  658.73   23.84   0
   3   0  -6 5799.57   52.58   0
   4  -2   0 8966.89   70.97   0
   7  -3 -20  206.79   24.84   0
   7  -3 -17  264.52   22.92   0
   8  -5 -11  176.93   22.50   0
   4  -1  -4 5767.16   52.25   0
   7  -3 -14  612.99   25.99   0
   4   0 -23  180.38   21.74   0
   6  -2 -25  122.77   23.71   0
   6  -2 -10 1165.30   28.51   0
   7  -3 -23   92.14   21.95   0
   4   0 -11 1335.27   28.54   0
   5  -1  -9  712.41   24.32   0
   5  -1 -27   68.84   22.98   0
   2   1  -8 4434.34   47.45   0
   3   1 -19  254.25   20.77   0
   3   1 -16 1574.07   31.00   0
   8  -5  -8  656.76   26.64   0
   1   2 -19  535.65   24.45   0
   4   0 -26  225.85   22.05   0
   6  -3  -3  860.95   25.11   0
   8  -4 -15  110.82   21.48   0
   1   2 -16 2204.47   37.10   0
   3   1 -22  435.35   25.32   0
   5  -2  -2 1428.75   30.27   0
   7  -4  -4  982.22   28.07   0
   7  -3  -8  744.83   26.68   0
   8  -4 -12  492.37   25.15   0
   4   0  -8 3057.05   39.17   0
   1   2 -13 1040.82   27.35   0
   3   1 -25  266.03   23.15   0
   5  -1  -6 1821.65   32.18   0
   6  -1 -17  303.32   23.20   0
   4   0 -29   65.56   22.08   0
   5   0 -19  255.13   24.41   0
   6  -1 -14  720.72   27.73   0
   7  -2 -18  394.24   25.30   0
   3   1 -10 1866.78   32.36   0
   6  -1 -23   53.43   22.83   0
   7  -2 -21  189.52   22.91   0
   7  -2 -15  140.07   22.72   0
   8  -4  -9  319.84   24.16   0
   3   0  -3 1145.33   27.26   0
   5   0 -13  374.56   24.20   0
   6  -1 -11  371.62   22.50   0
   7  -2 -12  515.85   25.76   0
  -7   7  10  230.92   22.97   0
  -6   6   3  685.51   25.74   0
  -5   6  -2 1418.50   31.23   0
  -4   4  -2 3437.25   41.11   0
  -7   9   8  171.96   23.33   0
  -6   8   1  345.44   23.53   0
  -3   3  -3 1180.76   27.39   0
  -3   7  -7  576.36   24.40   0
  -5   7  -3  291.20   21.19   0
  -5   9  -2  197.10   24.95   0
  -5  10   0  297.33   24.88   0
  -2   8  -7  162.42   22.24   0
  -5   5  -1  639.67   24.12   0
  -4  10  -2  136.46   22.39   0
  -7   7   7  209.57   22.40   0
  -7   9   5  218.47   24.51   0
  -5   8  -4  774.90   27.86   0
  -6   5   4 1544.17   32.26   0
  -5   3   7  715.08   25.98   0
  -3   9  -6  228.30   23.36   0
  -6   7  -1  593.03   26.07   0
  -2   7  -9  262.92   22.31   0
  -7   8   3  160.64   23.21   0
  -6   8  -2  339.67   24.01   0
  -4   6  -7  534.62   24.06   0
  -3   5  -8 3604.77   41.87   0
  -3   8  -8  672.17   27.10   0
  -7   6   8 1031.24   29.87   0
  -7   7   4 1086.58   30.73   0
  -4   5  -6 1912.04   32.38   0
  -5   4   0 3009.49   39.17   0
  -5   9  -5  213.29   24.29   0
  -3   4  -7 1472.92   29.05   0
  -5   6  -5  872.10   25.64   0
  -5   7  -6  904.43   28.28   0
  -4   7  -8  790.03   26.29   0
   0   3  -9 1054.58   28.16   0
  -6   9  -3  238.99   23.00   0
  -4   9  -7  138.43   23.33   0
  -2   5 -10 1071.62   26.67   0
  -6   5   1  638.60   24.84   0
  -5   5  -4 1969.81   32.71   0
  -4   4  -5  800.84   23.92   0
  -3   7 -10  728.13   25.25   0
  -7   7   1  379.50   23.78   0
  -6   7  -4 1108.50   28.43   0
  -5   3   4 4615.73   52.13   0
  -2   6 -11  582.47   24.63   0
  -4   8  -9  286.28   23.11   0
  -2   8 -10  251.29   22.67   0
  -7   9  -1  102.09   20.82   0
  -6   6  -3  448.91   22.09   0
  -6   8  -5  289.37   24.10   0
  -3   2  -2 6880.28   61.78   0
  -6   4   5  644.74   24.08   0
  -3   9  -9  224.69   22.60   0
  -2   3  -8 4493.91   47.50   0
  -3   3  -6 5841.11   52.55   0
  -8   9   4  190.77   22.59   0
  -8   8   5  192.43   22.81   0
  -7   6   2  455.57   22.75   0
  -6   9  -6  226.97   25.23   0
  -1   4 -11  657.96   23.59   0
  -3   8 -11  183.78   22.04   0
  -7   8  -3  302.79   22.86   0
  -5   6  -8 1203.94   29.53   0
  -2   7 -12  687.93   25.61   0
  -6   5  -2 1464.06   30.09   0
  -5   7  -9  680.55   25.55   0
  -4   5  -9  756.23   23.61   0
  -7   9  -4  296.64   25.77   0
  -4   9 -10  142.87   22.78   0
  -8   8   2  286.21   23.13   0
  -8   9   1  136.14   22.52   0
  -4   3  -4 5815.58   52.19   0
  -3   6 -12 1031.62   28.17   0
  -6   4   2 1737.62   32.92   0
  -6   7  -7  238.25   21.92   0
  -5   3   1 1697.87   32.65   0
  -5   5  -7 1200.06   27.98   0
  -5   8 -10  339.40   24.97   0
  -6   8  -8  544.25   27.50   0
  -7   6  -1  589.98   25.29   0
  -6   6  -6  730.88   25.75   0
  -3   4 -10 1851.24   31.69   0
  -4   4  -8 3132.66   38.81   0
  -8   7   3  148.65   21.78   0
  -4   8 -12  443.61   25.46   0
  -3   7 -13  219.67   22.19   0
  -7   5   3  814.19   26.27   0
  -8   8  -1  150.58   22.39   0
  -7   8  -6  264.86   23.13   0
  -6   9  -9  127.39   21.99   0
  -7   7  -5  371.80   23.88   0
  -5   9 -11  100.04   22.84   0
  -2   4 -12 3464.53   41.49   0
  -7   9  -7  198.03   24.26   0
  -4   2   0 9372.30   72.11   0
  -2   2  -7  747.11   23.31   0
  -5   4  -6 1890.46   31.74   0
  -2   6 -14  699.57   25.64   0
  -8   7   0  621.71   26.16   0
  -6   4  -1 1178.31   28.80   0
  -5   6 -11  382.03   21.78   0
  -5   7 -12  445.22   24.54   0
  -3   2  -5 4544.48   48.58   0
  -6   7 -10  451.36   23.84   0
  -3   3  -9 2787.66   37.21   0
  -7   5   0 1129.23   27.87   0
  -6   8 -11  160.03   24.13   0
  -5   3  -2 1465.39   29.02   0
  -4   5 -12 1651.60   31.03   0
  -4   9 -13  202.87   22.34   0
  -3   8 -14  186.73   22.53   0
  -8   8  -4  315.78   25.26   0
  -8   9  -5  110.11   23.06   0
  -6   6  -9  648.02   24.80   0
  -5   5 -10 1225.38   29.49   0
  -4   7 -14  570.48   26.73   0
  -4   3  -7 1485.17   29.44   0
  -7   8  -9  163.69   24.13   0
  -7   7  -8  797.95   26.98   0
  -3   5 -14  674.69   23.48   0
   0   3 -12 3041.08   44.75   0
  -8   7  -3  311.89   22.57   0
  -3   6 -15  275.71   20.31   0
  -8   6   1  359.74   22.23   0
  -7   9 -10  212.19   24.08   0
  -4   4 -11 1361.86   28.49   0
  -6   4  -4 1668.12   31.74   0
  -6   5  -8 1210.60   28.55   0
  -4   8 -15  137.67   21.68   0
  -1   5 -15  262.38   20.88   0
  -9   8   1  118.51   21.49   0
  -7   5  -3  286.12   21.48   0
  -5   9 -14  112.90   21.98   0
  -3   4 -13 1182.29   27.18   0
  -3   7 -16  414.52   23.79   0
  -5   4  -9  680.10   23.56   0
  -6   7 -13  398.93   24.47   0
  -5   6 -14  702.15   24.71   0
  -1   3 -13 1042.00   26.67   0
  -8   6  -2  359.17   22.21   0
  -8   7  -6  248.19   23.96   0
  -6   6 -12  852.43   28.60   0
  -6   8 -14  239.06   24.32   0
  -9   8  -2  213.30   21.95   0
  -7   7 -11  137.20   21.33   0
  -7   8 -12  377.45   24.22   0
  -5   5 -13  401.60   23.41   0
  -4   6 -16  508.21   23.34   0
  -2   4 -15  362.46   20.33   0
  -5   8 -16  281.14   24.52   0
  -4   5 -15  528.84   24.32   0
  -7   5  -6  865.50   27.12   0
  -4   7 -17  223.73   22.79   0
  -3   2  -8 4440.85   45.81   0
  -2   2 -10 7552.24   59.91   0
  -2   6 -17  216.37   20.92   0
  -7   4   1  398.30   21.58   0
  -4   3 -10 1871.00   31.34   0
  -7   6 -10  419.87   24.19   0
  -6   3   0 2117.67   35.78   0
  -6   5 -11  336.43   22.04   0
  -8   6  -5  298.10   23.00   0
  -8   8 -10  167.39   22.06   0
  -9   7  -1   94.51   21.26   0
  -9   8  -5  112.50   21.62   0
  -5   2   2 1314.64   31.69   0
  -4   4 -14 1186.27   27.59   0
  -3   5 -17  686.20   25.24   0
  -5   4 -12 1717.02   31.14   0
  -4   2  -6 1627.49   29.83   0
  -3   6 -18  416.70   23.58   0
  -7   4  -2 1200.42   29.28   0
  -5   3  -8 3644.76   41.64   0
  -4   8 -18  149.56   22.03   0
  -6   7 -16  335.00   23.30   0
  -8   5  -1  357.54   22.84   0
  -6   6 -15  199.13   23.13   0
  -9   7  -4  313.10   23.46   0
  -7   7 -14  174.91   21.69   0
  -7   8 -15  107.62   20.72   0
  -6   3  -3  854.44   25.69   0
  -5   6 -17  320.11   23.28   0
  -5   7 -18  376.53   25.35   0
  -5   2  -1 1634.48   32.42   0
  -8   6  -8  577.54   24.96   0
  -6   4 -10 1172.38   28.16   0
  -8   8 -13   98.07   22.41   0
  -7   6 -13  410.76   24.50   0
  -5   5 -16  735.86   25.56   0
  -7   4  -5  695.26   25.59   0
  -6   5 -14  678.38   26.50   0
  -5   8 -19   41.87   20.81   0
  -4   6 -19  103.12   21.73   0
  -8   5  -4  781.20   26.26   0
  -8   7 -12  342.65   25.70   0
  -4   3 -13 1211.32   26.97   0
  -3   2 -11  975.52   24.50   0
  -9   7  -7  169.47   20.44   0
  -4   7 -20  169.82   22.30   0
  -3   3 -15  600.93   22.23   0
  -6   3  -6 1388.00   29.66   0
  -2   4 -18  621.35   24.03   0
  -5   2  -4 4646.15   48.53   0
  -5   3 -11  505.73   21.78   0
  -5   4 -15  513.75   24.47   0
  -4   2  -9 2171.51   33.37   0
  -2   2 -13 2545.46   36.01   0
  -7   5 -12  524.25   24.83   0
  -4   4 -17  422.93   21.92   0
  -8   5  -7  224.04   21.75   0
  -7   4  -8  787.05   26.47   0
  -7   7 -17  226.84   22.15   0
  -6   6 -18  280.10   24.79   0
  -6   4 -13  633.70   23.73   0
  -3   5 -20  646.36   25.20   0
  -7   6 -16  402.19   25.54   0
  -9   7 -10  212.14   20.61   0
  -3   6 -21  197.96   22.18   0
  -2   1  -9 2676.32   37.64   0
  -2   3 -17 1050.03   26.22   0
  -9   6  -6  184.47   22.02   0
  -8   7 -15   60.01   20.79   0
  -5   7 -21  175.68   21.22   0
  -3   4 -19  267.59   20.14   0
  -6   5 -17  334.04   22.01   0
  -5   5 -19  305.31   22.47   0
  -3   1  -7 3544.64   42.15   0
  -5   2  -7  705.37   22.47   0
  -4   3 -16 1601.51   30.77   0
   0   2 -14 2120.70   37.37   0
  -8   5 -10  299.91   23.02   0
  -7   5 -15  100.86   22.91   0
  -4   1  -2 2790.79   40.70   0
  -3   2 -14 2568.52   35.59   0
  -1   2 -15 1161.80   27.72   0
  -7   4 -11  264.10   22.50   0
  -4   2 -12 3638.33   41.05   0
  -4   5 -21  234.25   22.25   0
  -4   6 -22  263.24   23.22   0
  -9   6  -9  105.39   21.97   0
  -5   4 -18  510.82   25.23   0
  -7   7 -20  189.44   22.86   0
  -6   4 -16  596.69   25.90   0
  -7   3  -4 1001.43   27.30   0
  -7   6 -19   56.89   22.91   0
  -6   6 -21  156.41   21.60   0
  -6   7 -22  162.15   19.88   0
  -4   1  -5 2262.09   34.72   0
  -8   4  -6  402.42   23.64   0
  -8   5 -13  232.60   23.28   0
  -6   2  -2 1675.78   33.67   0
  -3   1 -10 3135.30   38.71   0
  -2   4 -21  549.45   24.36   0
  -6   5 -20  291.36   24.97   0
  -2   1 -12 3876.95   42.91   0
  -9   6 -12  261.36   23.69   0
  -8   6 -17  145.58   23.56   0
  -7   3  -7  621.01   24.57   0
  -5   6 -23   78.71   20.49   0
  -1   3 -19  527.49   22.49   0
  -7   5 -18  355.36   25.27   0
  -3   5 -23   87.53   19.77   0
  -6   2  -5  633.68   23.43   0
  -4   2 -15  390.66   22.01   0
  -3   4 -22  426.90   24.46   0
  -2   3 -20  785.68   25.51   0
  -4   3 -19  279.62   20.23   0
  -8   4  -9  292.44   21.33   0
  -3   2 -17 1099.96   26.76   0
  -9   5  -8  435.18   24.70   0
  -6   3 -15  301.85   21.67   0
  -6   4 -19  142.24   22.06   0
  -5   2 -13 1132.27   27.18   0
  -5   4 -21  244.53   21.85   0
  -7   3 -10  706.99   24.88   0
  -6   2  -8 1368.81   29.96   0
  -4   5 -24  258.68   23.47   0
  -7   6 -22  146.56   22.94   0
  -4   6 -25  110.97   20.63   0
  -3   3 -21  481.84   22.76   0
  -1   2 -18 1593.64   31.71   0
  -3   1 -13 1048.34   25.82   0
   0   1 -13 2410.73   38.93   0
  -8   4 -12  491.66   25.41   0
  -7   4 -17  253.90   22.84   0
  -4   4 -23  163.78   20.97   0
  -9   5 -11  106.33   21.46   0
  -4   1 -11  703.73   22.45   0
  -2   2 -19  410.54   21.48   0
   0   2 -17  504.03   22.48   0
  -6   5 -23   86.33   19.63   0
  -5   1  -3  729.13   23.78   0
  -2   1 -15 1193.95   26.50   0
  -7   5 -21  211.27   21.02   0
  -5   1   0 2663.13   42.40   0
  -7   3 -13  260.21   21.48   0
  -6   2 -11  624.24   23.53   0
  -5   3 -20  668.88   25.16   0
  -4   2 -18  639.80   23.93   0
  -5   1  -6 2292.40   34.82   0
  -5   2 -16 1243.99   28.30   0
  -5   5 -25  122.42   22.40   0
  -6   3 -18  484.28   23.87   0
  -8   5 -19   63.80   21.85   0
  -6   4 -22  285.71   24.76   0
  -2   0  -8 6492.12   56.48   0
  -9   5 -14   98.57   19.41   0
  -8   4 -15  120.30   22.13   0
  -5   1  -9 1458.52   29.68   0
  -3   1 -16 2291.94   33.96   0
  -3   4 -25  240.80   21.95   0
  -2   3 -23  173.49   20.13   0
  -1   3 -22  498.71   22.77   0
  -7   4 -20  209.87   22.55   0
  -4   1 -14 1362.81   28.53   0
  -1   0 -10 3350.00   42.24   0
  -1   1 -17 1742.60   31.89   0
  -4   5 -27   75.63   20.73   0
  -3   3 -24  290.22   21.62   0
  -7   2  -6  654.95   25.26   0
  -2   0 -11 4067.43   43.54   0
  -5   3 -23   89.21   22.98   0
  -4   2 -21  609.25   26.02   0
  -4   4 -26  200.25   21.51   0
  -1   2 -21  537.46   23.09   0
  -8   3 -11  162.14   21.36   0
  -6   3 -21  243.37   22.98   0
  -3   0  -9 1112.35   25.43   0
  -2   2 -22 1024.64   27.15   0
   0   1 -16 3243.64   43.24   0
  -7   2  -9  253.02   20.90   0
  -4   1 -17  955.93   27.14   0
  -6   2 -17  273.70   22.27   0
  -6   4 -25  126.80   22.70   0
  -4   3 -25  204.58   22.79   0
  -7   3 -19  190.27   23.30   0
  -7   4 -23   68.91   23.01   0
  -3   1 -19  568.49   22.75   0
  -3   2 -23  202.78   21.18   0
  -1   0 -13 2442.61   35.07   0
  -9   4 -13  160.81   22.12   0
  -7   2 -12  740.02   26.57   0
  -3   0 -12 3227.10   38.96   0
  -8   3 -14  213.47   22.27   0
  -5   1 -15  292.36   20.96   0
  -5   4 -27   58.47   21.52   0
  -2   0 -14 2261.36   33.61   0
  -6   1  -7  703.44   24.67   0
  -6   1  -4 1434.43   31.35   0
  -4   0  -7  631.64   22.06   0
  -4   0  -4 3161.06   41.74   0
  -9   6  -9  143.50   21.68   0
  -6   1  -4 1493.35   31.05   0
  -9   5  -8  533.75   27.05   0
  -7   5 -12  500.32   24.46   0
  -6   2  -8 1401.01   29.70   0
  -8   4  -9  310.23   22.94   0
  -7   4 -11  256.80   22.23   0
  -8   7 -12  352.97   25.31   0
  -7   2  -6  718.34   25.30   0
  -7   8 -12  308.30   24.36   0
  -6   7 -13  384.83   24.06   0
  -5   0  -2 2196.20   36.71   0
  -5   2 -10 1154.20   28.19   0
  -4   0  -4 3214.75   42.00   0
  -4   1  -8 4268.31   45.39   0
  -9   3  -3   93.45   21.58   0
  -9   4  -7  113.00   23.11   0
  -6   4 -13  688.33   26.63   0
  -7   3 -10  690.67   25.39   0
  -4   6 -13  617.23   25.87   0
  -5   6 -14  571.96   24.92   0
  -8   2  -4  679.97   27.46   0
  -8   3  -8  675.49   26.76   0
  -6   3 -12 1074.66   28.36   0
  -7   7 -14  163.20   21.19   0
  -4   3 -13 1165.80   28.23   0
  -3   2 -11  970.82   24.88   0
  -8   8 -13  126.46   21.48   0
  -8   5 -13  235.76   25.18   0
  -6   6 -15  156.90   21.56   0
  -4   4 -14 1121.19   27.23   0
  -3   4 -13 1166.91   28.50   0
  -9   5 -11   83.56   21.12   0
  -8   6 -14  208.73   23.98   0
  -4   2 -12 3617.02   41.39   0
  -9   3  -6  247.48   23.03   0
  -8   4 -12  485.86   26.06   0
  -7   2  -9  250.58   22.80   0
  -6   2 -11  638.45   25.60   0
  -7   4 -14  571.83   27.07   0
  -7   5 -15   99.75   21.76   0
  -5   3 -14  755.62   25.03   0
  -7   1  -5  353.61   23.21   0
  -5   0  -5 1385.78   30.05   0
  -3   1 -10 3056.49   39.10   0
  -2   1  -9 2660.85   38.09   0
  -8   7 -15  104.87   22.65   0
  -4   5 -15  479.45   23.34   0
  -8   2  -7  160.24   22.19   0
  -7   6 -16  361.12   25.03   0
  -5   5 -16  719.04   26.55   0
  -4  -1   0 2638.76   43.48   0
  -7   3 -13  247.40   22.50   0
  -5   2 -13 1082.75   28.76   0
  -4   0  -7  591.24   21.84   0
  -6   0  -3  675.52   25.31   0
  -4   1 -11  681.12   24.30   0
  -6   4 -16  549.58   24.89   0
  -3   5 -14  694.02   24.75   0
  -3  -1  -2 2688.09   42.61   0
  -6   5 -17  303.16   23.23   0
  -9   3  -9  218.37   24.22   0
  -9   5 -14   84.99   23.56   0
  -8   5 -16  249.96   25.81   0
  -7   7 -17  173.25   22.36   0
  -6   1 -10  889.40   27.94   0
  -5   6 -17  303.24   23.00   0
  -8   4 -15  151.79   22.40   0
  -9   4 -13  180.84   22.52   0
  -6   2 -14  698.72   27.24   0
  -3   2 -14 2603.35   36.69   0
  -3   3 -15  558.96   22.03   0
  -8   2 -10  275.23   25.19   0
  -7   4 -17  297.21   25.32   0
  -5   0  -8 1292.42   28.81   0
  -3   0  -9 1119.76   26.50   0
  -2   0  -8 6699.38   58.34   0
  -6   0  -6  609.27   24.67   0
  -4  -1  -3  683.01   23.92   0
  -4   2 -15  357.65   20.52   0
  -5   3 -17  714.90   24.95   0
  -8   3 -14  207.38   22.25   0
  -7   3 -16  433.04   26.82   0
  -3   4 -16 1536.06   32.28   0
  -3   1 -13 1074.63   27.01   0
  -7   6 -19   50.18   20.19   0
  -5   2 -16 1138.56   29.74   0
  -2   3 -14 2557.89   38.85   0
  -9   3 -12  230.82   21.20   0
  -9   2  -8  191.55   23.12   0
  -6   4 -19  103.73   23.44   0
  -5   5 -19  260.49   22.47   0
  -4   1 -14 1295.21   28.87   0
  -3  -1  -5 2280.41   36.48   0
  -2   1 -12 3953.88   44.36   0
  -6   3 -18  452.91   26.03   0
  -4   5 -18  474.47   23.95   0
  -7   1 -11  224.84   23.66   0
  -8   5 -19   53.48   23.24   0
  -7   2 -15  253.56   23.51   0
  -6   5 -20  274.43   24.15   0
  -8   2 -13  278.04   23.97   0
  -8   4 -18  123.65   22.10   0
  -6   0  -9  447.00   24.14   0
  -5  -1  -4 1438.97   32.70   0
  -5   0 -11  431.88   21.42   0
  -5   1 -15  290.79   22.77   0
  -4  -1  -6 2280.15   36.99   0
  -6   2 -17  280.45   22.69   0
  -8   1  -9  278.35   23.07   0
  -2   4 -15  356.22   20.20   0
  -8   3 -17  194.01   23.14   0
  -7   4 -20  174.05   22.65   0
  -3   0 -12 3311.13   40.20   0
  -4   2 -18  617.86   25.50   0
  -9   2 -11   39.87   20.44   0
  -7   3 -19  177.04   23.20   0
  -6   6 -21  140.49   22.57   0
  -4   0 -13 1382.01   30.06   0
  -3   2 -17 1064.06   26.29   0
  -3   3 -18 1422.63   31.22   0
  -2   0 -11 4037.73   44.46   0
  -1   2 -12 3764.84   47.38   0
  -5   3 -20  630.35   25.17   0
  -5   4 -21  254.72   22.21   0
  -4   4 -20  642.83   24.80   0
  -3  -1  -8 4231.94   46.20   0
  -7   1 -14  204.73   22.17   0
  -5   2 -19  153.05   21.17   0
  -3   1 -16 2313.94   35.17   0
  -7   6 -22  146.76   21.97   0
  -5  -1  -7  712.27   25.72   0
  -4   1 -17  865.42   26.37   0
  -8   2 -16  266.91   24.25   0
  -7   2 -18  195.14   24.64   0
  -6   0 -12  933.72   27.58   0
  -4  -1  -9 1397.36   30.66   0
  -2   2 -16 1278.10   27.98   0
  -6   3 -21  216.26   22.83   0
  -3   4 -19  236.12   20.54   0
  -8   1 -12  277.84   23.95   0
  -5   5 -22  211.32   23.09   0
  -2   1 -15 1202.08   27.50   0
  -1   3 -13 1020.01   28.93   0
  -2   3 -17 1036.03   28.06   0
  -6   5 -23   68.77   22.23   0
  -5   1 -18  787.52   26.19   0
  -4   5 -21  258.58   23.93   0
  -8   3 -20  191.94   23.31   0
  -3   0 -15 1059.20   26.59   0
  -1   0 -10 3476.62   43.16   0
  -7   4 -23   32.90   22.99   0
  -7   3 -22  175.01   24.53   0
  -5  -1 -10  841.45   27.10   0
  -4   0 -16  819.62   26.11   0
  -7   1 -17  187.74   21.27   0
  -4   2 -21  596.30   26.43   0
  -4   3 -22  402.28   24.76   0
  -2   0 -14 2298.17   34.49   0
  -6   0 -15  199.06   22.73   0
  -4  -1 -12 1229.23   28.91   0
  -2  -1 -10 3050.27   39.28   0
  -8   1 -15   34.60   21.37   0
  -6   1 -19  154.32   21.63   0
  -7   0 -13  282.04   23.56   0
  -7   2 -21  112.02   23.37   0
  -5   2 -22  345.88   23.56   0
  -3   1 -19  535.68   24.26   0
  -3   3 -21  500.17   24.04   0
  -5   4 -24  231.37   23.65   0
  -4   1 -20  797.88   25.66   0
  -4   4 -23  182.65   20.50   0
  -1   2 -15 1156.03   28.06   0
  -6   3 -24  171.92   22.18   0
  -6   4 -25  106.22   21.10   0
  -5   1 -21  365.21   25.10   0
  -2   2 -19  407.86   22.17   0
  -6   2 -23  108.92   21.61   0
  -5  -1 -13  352.78   21.42   0
  -2   1 -18 1649.55   31.00   0
  -6  -1 -11  244.07   22.20   0
  -3  -1 -14 1298.24   28.43   0
  -3   0 -18  915.56   27.78   0
  -5   5 -25   94.26   23.09   0
  -3   4 -22  434.89   23.49   0
  -1   0 -13 2574.92   36.61   0
  -4   0 -19  183.88   20.45   0
  -2  -1 -13 1054.12   26.73   0
  -7   0 -16  366.24   24.78   0
  -6   0 -18  211.72   22.31   0
  -2   3 -20  817.19   25.93   0
  -1  -1  -9 2629.61   37.97   0
  -3  -2  -7  727.68   24.54   0
  -2   0 -17  554.64   21.65   0
  -1   3 -16 2156.04   38.32   0
  -6   1 -22  199.39   22.29   0
  -5   0 -20  305.66   23.47   0
  -4  -2  -8 1376.21   31.88   0
  -5   2 -25  195.66   24.83   0
  -5   3 -26  156.33   23.51   0
  -4   3 -25  229.78   22.14   0
  -3   2 -23  181.73   21.24   0
  -6  -1 -14  230.51   22.00   0
  -5  -1 -16  601.34   25.35   0
  -4   1 -23  117.39   21.15   0
  -3   1 -22  504.74   24.00   0
  -2  -2  -6 1618.54   32.39   0
  -3  -2 -10 1105.24   26.89   0
  -3  -1 -17  906.33   25.92   0
  -3   3 -24  321.54   22.57   0
  -1   1 -17 1791.05   31.45   0
  -5   1 -24  148.64   23.07   0
  -5   4 -27   45.02   22.05   0
  -1  -1 -12 3887.51   43.29   0
  -6   2 -26  136.73   23.72   0
  -4  -2 -11  635.93   24.90   0
  -4   4 -26  203.56   22.40   0
  -3   0 -21  382.08   24.46   0
  -2  -1 -16 2288.63   35.60   0
  -1   2 -18 1598.38   32.46   0
  -7   0 -19   36.74   21.06   0
  -6   0 -21  159.35   24.11   0
  -4   0 -22  552.96   25.07   0
  -2  -2  -9 2201.13   34.79   0
  -2   2 -22 1054.50   29.44   0
  -1   0 -16 3444.79   40.78   0
  -2   0 -20 1418.28   30.93   0
  -3  -2 -13 1131.52   28.33   0
  -6  -1 -17  217.89   21.21   0
  -6   1 -25  104.36   21.01   0
  -5  -1 -19  177.30   22.07   0
  -5   0 -23   81.18   23.58   0
  -5  -2 -12  666.81   25.44   0
  -4  -2 -14  721.43   26.47   0
  -2   3 -23  211.45   20.63   0
  -4   1 -26  299.85   25.27   0
  -3  -1 -20  701.60   25.36   0
  -1  -1 -15 1166.32   26.83   0
   0   1 -13 2361.70   37.35   0
  -5   2 -28  126.16   22.91   0
  -3   1 -25  263.92   21.94   0
  -3   2 -26  389.25   24.97   0
   0   0 -12 9999.99   71.41   0
  -5   3 -29   95.29   21.79   0
  -4  -1 -21  305.87   23.82   0
  -4   3 -28  160.02   22.78   0
  -2  -1 -19  529.87   22.79   0
  -1   1 -20 1363.37   30.64   0
  -5   1 -27   51.63   23.44   0
  -3  -2 -16 1128.46   28.43   0
  -3   0 -24  445.35   24.57   0
  -1   0 -19  480.10   20.91   0
  -5  -2 -15  248.94   22.84   0
  -4   0 -25  231.82   23.42   0
  -2  -2 -15  362.18   21.62   0
  -6  -1 -20  228.87   21.66   0
  -4  -2 -17  239.34   22.87   0
  -3   3 -27  117.20   21.07   0
  -1   2 -21  585.49   24.20   0
   0   2 -14 2143.56   39.32   0
  -5  -1 -22  182.79   23.47   0
  -2   0 -23  370.12   23.20   0
  -1  -2 -11  964.26   24.93   0
  -5   0 -26  185.30   22.42   0
  -1  -1 -18 1709.12   31.33   0
  -3  -1 -23  101.62   22.77   0
   0  -1 -11 1043.49   26.13   0
   0   1 -16 3424.08   43.85   0
  -5  -2 -18  239.97   22.91   0
  -4  -1 -24  170.07   22.13   0
  -2  -1 -22  559.40   24.65   0
  -1  -2 -14 2560.69   36.15   0
  -4   1 -29  138.86   23.62   0
  -2  -2 -18  606.36   23.92   0
  -4  -2 -20  352.33   24.48   0
  -4   2 -30  116.29   20.83   0
  -3  -3  -9  721.46   25.48   0
  -3   2 -29  135.61   22.62   0
  -2   3 -26  340.55   23.36   0
  -1   1 -23  185.73   19.35   0
   0  -1 -14 2904.93   38.35   0
  -4   0 -28   94.74   23.93   0
  -3   0 -27  130.70   21.54   0
  -3  -3 -12 1021.94   28.63   0
   0   2 -17  503.72   22.98   0
  -2  -3  -8 3497.27   45.14   0
  -2   0 -26  264.53   24.25   0
  -2   1 -27  131.49   21.34   0
  -1  -2 -17 1093.22   27.29   0
  -1  -1 -21  589.66   24.09   0
  -2  -3 -11  518.56   23.17   0
  -5  -2 -21  136.33   22.04   0
  -3  -2 -22  320.32   24.26   0
  -2  -2 -21  610.61   26.74   0
  -1   2 -24  505.24   23.85   0
   0   1 -19  483.05   22.36   0
  -3  -3 -15  293.82   22.39   0
  -3  -1 -26  256.44   23.75   0
  -3   3 -30  155.52   22.83   0
   0  -1 -17 1896.88   33.18   0
  -2  -3 -14  759.69   24.94   0
  -2  -1 -25  247.39   22.74   0
  -2   2 -28  151.26   20.45   0
  -4  -2 -23  117.59   21.75   0
  -4  -1 -27   58.89   20.36   0
   0  -2 -10 7452.34   60.11   0
  -4  -3 -16  441.12   24.90   0
  -1  -2 -20  820.01   26.24   0
   0  -2 -13 2570.25   36.49   0
   0  -2  -7  736.15   23.69   0
  -3  -3 -18  507.21   25.17   0
  -2  -3 -17  680.62   26.42   0
  -1  -3 -10 1873.53   33.63   0
  -3   1 -31   42.56   22.79   0
  -1  -1 -24  536.15   24.82   0
  -1   1 -26  413.50   23.59   0
   0   0 -21 1268.57   30.07   0
  -3   0 -30  149.18   21.24   0
  -3  -2 -25  197.57   22.41   0
  -2  -2 -24  409.59   25.63   0
  -1  -3  -7 1393.45   30.58   0
   0  -2 -16 1372.25   29.05   0
   0  -1 -20 1361.34   29.56   0
   0   2 -20 1334.37   31.19   0
  -4  -3 -19  155.80   22.60   0
  -3   2 -32   42.68   21.03   0
   0   1 -22  758.92   25.99   0
  -3  -1 -29  110.28   24.33   0
  -2   1 -30  191.49   22.00   0
  -2  -1 -28  236.31   25.20   0
  -3  -3 -21  224.80   22.62   0
  -1  -2 -23  170.30   21.07   0
  -1   2 -27  121.27   20.51   0
   0  -2 -19  404.11   22.15   0
  -1  -3 -19  277.44   22.88   0
  -2   2 -31   56.52   21.08   0
  -1   0 -28  241.62   23.12   0
   0  -1 -23  181.26   21.98   0
   0   0 -24  746.14   26.82   0
  -4  -3 -22  188.43   23.15   0
  -1  -1 -27  170.63   22.55   0
  -3  -2 -28  141.71   24.36   0
  -2  -2 -27   60.09   22.33   0
   1   0 -14 2712.31   39.36   0
  -1   1 -29  215.44   23.22   0
   0  -3 -12 2116.82   34.00   0
   1  -1 -13 2440.69   36.71   0
  -3  -3 -24  210.45   22.40   0
   0  -3 -15  573.63   22.93   0
   0  -2 -22 1056.53   30.40   0
   1  -1 -10 3380.03   43.92   0
  -1  -3 -22  457.92   26.01   0
  -1  -2 -26  410.99   25.80   0
   0   1 -25  387.58   24.11   0
   1  -1 -16 3480.62   42.25   0
   1   0 -17 1846.50   33.85   0
  -2   0 -32  107.39   20.83   0
  -2  -4 -13  594.74   25.27   0
  -2  -1 -31   71.74   23.47   0
   0  -3 -18 1487.57   31.32   0
  -2  -4 -16  579.87   26.26   0
  -3   1 -13 1108.55   27.67   0
  -5   4 -15  488.88   25.39   0
  -8   5 -16  238.12   23.63   0
  -6   1 -16  614.71   27.14   0
  -5  -3  -5  324.20   23.40   0
  -4   2 -15  361.16   21.37   0
  -3   3 -12 2116.24   38.54   0
  -2   2 -10 7223.34   68.38   0
  -8   2 -16  256.60   25.98   0
  -7   4 -17  240.24   24.35   0
  -5  -1 -13  383.11   24.32   0
  -8   3 -17  142.81   24.30   0
  -6   0 -15  217.38   23.55   0
  -3  -3  -6 1407.36   32.34   0
  -2  -1 -10 3134.05   41.19   0
  -8   1 -15   37.48   22.40   0
  -2   0 -11 4041.43   46.21   0
  -4  -3  -7  646.07   26.77   0
  -7  -2  -8  206.69   23.66   0
  -6  -2 -10  286.58   24.05   0
  -2  -3  -5 1446.65   32.53   0
  -5   3 -17  652.84   27.03   0
  -7   1 -17  229.33   24.27   0
  -6  -1 -14  193.97   25.14   0
  -6   3 -18  423.89   26.45   0
  -4   4 -14 1120.62   31.04   0
  -3   2 -14 2531.13   38.42   0
  -8   4 -18  140.99   23.88   0
  -5  -2 -12  727.48   27.10   0
  -7   0 -16  357.28   24.99   0
  -5  -3  -8  666.25   27.49   0
  -4   0 -16  835.09   26.78   0
  -7   3 -19  165.24   24.05   0
  -5   0 -17  441.89   26.87   0
  -4   3 -16 1596.75   33.75   0
  -5   1 -18  741.60   26.50   0
  -4  -1 -15  304.36   21.84   0
  -4   1 -17  927.88   27.59   0
  -3  -1 -14 1278.47   30.94   0
  -3   0 -15 1035.18   27.53   0
  -5  -1 -16  566.49   27.97   0
  -3  -3  -9  772.84   26.17   0
  -7  -2 -11   49.48   22.37   0
  -6   1 -19  162.96   23.75   0
  -4  -3 -10  714.57   27.63   0
  -6  -2 -13  239.62   25.22   0
  -6   0 -18  195.40   24.81   0
  -5   2 -19  158.15   21.57   0
  -6   4 -19  114.58   22.10   0
  -3  -2 -13 1155.80   29.19   0
  -2  -3  -8 3635.13   45.81   0
  -1  -1  -9 2676.22   39.51   0
  -6   2 -20  321.86   24.16   0
  -4   2 -18  625.05   25.87   0
  -1  -3  -4 5711.27   60.14   0
  -7   4 -20  141.10   23.12   0
  -6  -3  -9  253.55   23.68   0
  -2  -1 -13 1079.57   26.89   0
  -6  -1 -17  200.53   23.41   0
  -5  -3 -11  164.51   23.56   0
  -5   4 -18  488.31   26.41   0
  -1  -2  -8 4458.63   49.25   0
  -7   1 -20  248.64   23.31   0
  -2  -2 -12 3675.90   44.30   0
  -2   0 -14 2321.86   35.89   0
  -7   2 -21   96.67   24.10   0
  -1   0 -10 3478.77   44.80   0
  -7   0 -19   32.96   21.52   0
  -3   3 -15  588.08   24.98   0
  -6   3 -21  230.17   24.28   0
  -2   2 -13 2542.95   40.29   0
  -5   3 -20  608.33   27.43   0
  -4  -1 -18  743.17   29.18   0
  -4   0 -19  188.08   22.54   0
  -3  -3 -12 1048.46   29.89   0
  -5   0 -20  322.13   24.27   0
  -4  -3 -13  244.96   24.15   0
  -3   2 -17 1072.52   29.13   0
  -7   3 -22  132.88   23.63   0
  -6  -2 -16  235.50   25.51   0
  -3  -1 -17  889.58   27.55   0
  -6  -3 -12  214.07   23.26   0
  -5  -1 -19  159.87   23.58   0
  -3   0 -18  937.28   27.41   0
  -3  -4  -8  714.52   26.91   0
  -2  -3 -11  562.89   23.17   0
  -1  -3  -7 1431.83   30.30   0
  -6   0 -21  164.67   23.12   0
  -6   1 -22  202.88   23.32   0
  -4  -2 -17  238.78   23.11   0
  -4   3 -19  249.22   21.81   0
  -3  -2 -16 1156.24   29.95   0
  -5  -3 -14  249.31   22.87   0
  -4  -4  -9  306.95   23.90   0
  -5   2 -22  313.63   24.72   0
  -2  -4  -7  449.75   23.21   0
  -1  -1 -12 4000.16   45.06   0
  -6  -1 -20  227.16   23.07   0
  -6   2 -23  122.44   24.42   0
  -2  -1 -16 2315.02   36.13   0
  -1  -2 -11  940.23   25.76   0
  -2  -2 -15  360.08   21.34   0
  -3  -3 -15  259.86   23.32   0
  -2   0 -17  560.76   22.75   0
  -4  -3 -16  439.83   26.11   0
  -3  -4 -11  269.69   22.71   0
  -1   0 -13 2583.42   37.84   0
  -4  -4 -12  488.03   26.45   0
  -4  -1 -21  318.73   25.33   0
  -4   0 -22  563.03   27.49   0
  -1  -3 -10 1823.42   32.93   0
  -5   0 -23   85.16   22.75   0
  -3  -1 -20  764.89   28.53   0
  -6   3 -24  163.03   23.02   0
  -5  -3 -17  154.26   23.19   0
  -5  -1 -22  196.28   23.32   0
  -2  -4 -10 1121.31   29.05   0
  -5   3 -23   70.69   21.75   0
  -4  -2 -20  389.93   25.33   0
  -3  -2 -19  151.74   20.70   0
  -3   0 -21  393.20   24.96   0
  -6   0 -24  144.99   24.63   0
  -4   1 -23   99.74   22.57   0
  -3   3 -18 1380.26   33.27   0
  -2   2 -16 1317.08   30.65   0
  -1  -4  -6 1835.21   35.36   0
  -3   2 -20  804.46   25.68   0
  -2   1 -18 1671.91   33.03   0
  -5  -2 -21  106.32   22.29   0
  -1  -2 -14 2612.28   36.84   0
  -1  -1 -15 1191.77   28.69   0
  -2  -2 -18  649.70   26.70   0
  -2  -1 -19  547.99   25.50   0
   0  -2  -7  733.13   23.95   0
  -3  -4 -14  565.56   27.25   0
  -5   2 -25  187.95   23.82   0
  -4  -3 -19  150.70   24.09   0
  -4   3 -22  421.07   24.33   0
  -6   2 -26  114.85   22.99   0
  -4  -4 -15  124.42   20.61   0
  -3   1 -22  548.65   24.35   0
  -2  -4 -13  681.07   26.20   0
  -2   0 -20 1380.47   31.58   0
  -1  -4  -9  679.90   23.91   0
  -2   3 -14 2458.78   42.95   0
  -1   1 -14 2659.82   38.97   0
  -5  -3 -20  159.91   23.50   0
  -4  -1 -24  137.78   22.81   0
  -4   2 -24  445.18   24.52   0
  -1   0 -16 3558.30   42.65   0
   0  -3  -6 5524.24   57.19   0
  -4   0 -25  192.92   26.10   0
  -5  -1 -25   64.00   22.47   0
  -5   0 -26  174.01   23.11   0
  -4  -2 -23  114.01   22.49   0
  -3  -2 -22  303.45   25.99   0
  -3  -1 -23   94.58   21.19   0
   0  -2 -10 7449.59   61.29   0
  -3  -4 -17  263.76   24.88   0
  -1  -2 -17 1095.23   27.55   0
  -5   1 -27   39.39   23.24   0
  -1  -4 -12 1627.48   32.53   0
  -1  -1 -18 1793.25   33.47   0
   0  -1 -11 1032.09   26.62   0
  -4  -4 -18  138.87   22.85   0
  -4   1 -26  269.61   25.65   0
  -3  -3 -21  226.56   24.21   0
  -2  -4 -16  545.12   26.25   0
  -2  -2 -21  653.55   26.24   0
  -1  -3 -16 1574.71   31.77   0
  -2  -1 -22  556.93   24.92   0
  -2   1 -21  590.90   24.65   0
  -2   2 -19  422.44   22.28   0
  -3   2 -23  195.67   20.09   0
  -3   3 -21  469.12   24.13   0
  -2  -3 -20  661.98   26.57   0
   0  -2 -13 2611.76   37.21   0
  -3   1 -25  210.60   23.85   0
  -2  -5 -12  468.66   25.28   0
  -5   2 -28  101.55   22.44   0
  -1  -4 -15  485.31   24.29   0
  -1   1 -17 1899.35   34.31   0
   0  -3 -12 2123.65   34.24   0
  -4  -1 -27   60.80   23.62   0
   0  -4  -5  809.17   26.76   0
  -4  -2 -26  126.18   24.41   0
  -3  -4 -20  191.82   22.18   0
  -3  -2 -25  222.90   25.59   0
  -3  -1 -26  278.42   25.83   0
  -1  -2 -20  791.70   25.67   0
   0  -1 -14 2938.65   39.23   0
  -4   2 -27   30.44   21.78   0
  -2  -4 -19  120.48   23.21   0
  -1  -3 -19  259.28   23.37   0
   0  -4  -8 2964.73   42.28   0
   0   0 -12 9794.72   71.59   0
  -3  -3 -24  162.82   25.40   0
  -1  -1 -21  593.61   24.22   0
  -2  -5 -15  139.37   21.08   0
  -2  -2 -24  449.93   24.72   0
  -1  -5 -11  355.53   22.37   0
   0  -4 -11 1332.41   30.42   0
  -2  -3 -23   38.35   23.03   0
  -2  -1 -25  257.34   24.64   0
   0  -3 -15  595.26   23.09   0
   0  -2 -16 1331.21   28.65   0
  -1  -4 -18  493.34   25.04   0
  -4   1 -29  100.07   23.05   0
  -2   1 -24  516.67   23.95   0
  -1   2 -15 1115.15   29.20   0
  -2   2 -22 1042.53   29.55   0
  -3   2 -26  316.89   24.57   0
   0  -1 -17 1882.43   32.87   0
  -3  -4 -23   39.00   21.02   0
  -2  -4 -22  307.32   25.38   0
  -1   1 -20 1299.58   30.29   0
   0  -4 -14 1176.66   28.41   0
  -3  -5 -19   74.20   21.81   0
  -2  -5 -18  364.10   24.83   0
  -2   0 -26  268.79   23.14   0
  -1  -3 -22  406.87   24.54   0
  -1  -2 -23  183.48   21.15   0
  -3  -2 -28  160.05   24.57   0
  -3   1 -28  217.34   22.21   0
   0  -3 -18 1428.61   31.87   0
  -3  -1 -29  113.11   24.16   0
   0  -2 -19  407.33   22.09   0
  -1  -1 -24  517.55   25.06   0
  -3  -3 -27   57.06   20.30   0
  -2  -2 -27   48.17   21.31   0
  -1  -5 -17  329.58   23.87   0
  -2  -3 -26  170.63   22.79   0
   0  -5 -10 1175.15   29.61   0
  -2  -1 -28  251.36   25.09   0
  -1   2 -18 1588.92   33.76   0
   0  -1 -20 1330.93   29.56   0
  -2  -5 -21  204.56   23.51   0
   0  -5 -13  397.79   22.42   0
  -2   1 -27  130.63   22.35   0
   0  -3 -21  489.64   25.47   0
  -2   2 -25  271.94   24.35   0
  -1  -3 -25  220.79   24.40   0
  -1  -2 -26  398.05   27.04   0
  -1   0 -25  425.32   24.63   0
   0   1 -13 2350.11   38.56   0
   1  -3 -11  970.09   25.56   0
   1  -2  -9 2631.91   38.58   0
  -1  -5 -20  305.50   25.35   0
  -1   1 -23  167.15   19.62   0
   0  -2 -22 1092.57   29.06   0
   1  -2 -12 3897.82   44.34   0
  -2   0 -29  112.63   23.42   0
   0  -5 -16  783.94   27.90   0
   1  -3 -14 2546.95   36.68   0
   1  -4 -10 1843.24   33.50   0
  -3   1 -31   32.10   21.47   0
   1  -2 -15 1185.01   27.47   0
  -2  -3 -29   67.26   23.97   0
  -2  -2 -30  125.44   22.03   0
   0  -1 -23  183.32   20.75   0
   0   0 -21 1224.92   30.05   0
   0   1 -16 3355.34   43.96   0
   1  -4 -13 1200.79   28.08   0
   1  -4  -7 1390.68   30.78   0
   1  -3 -17 1109.80   27.22   0
   1  -1 -10 3480.05   44.02   0
  -1   2 -21  553.79   24.08   0
   0  -5 -19  274.21   24.62   0
   0  -3 -24  328.07   24.29   0
   1  -1 -13 2579.33   37.07   0
  -1  -5 -23   71.20   22.34   0
   0  -4 -23  210.34   23.93   0
  -1  -3 -28  143.09   22.69   0
   0  -2 -25  297.65   23.80   0
   1  -2 -18 1718.67   31.85   0
  -1  -2 -29  159.62   22.06   0
  -1  -4 -27   61.04   22.97   0
  -1   0 -28  253.64   24.88   0
  -1   1 -26  421.68   24.88   0
   1  -1 -16 3556.68   42.25   0
  -2   1 -30  171.37   23.07   0
   0   1 -19  467.49   22.83   0
   1  -5 -12 1648.29   33.28   0
   1  -3 -20  835.59   26.68   0
   0  -5 -22  238.72   24.69   0
   1  -4 -19  261.24   21.62   0
   0  -6 -15  147.97   21.82   0
   1  -5 -15  497.51   24.79   0
   1  -5  -9  692.39   24.90   0
  -2   0 -32   80.36   21.00   0
   0   0 -24  756.00   26.12   0
   1  -2 -21  603.94   24.29   0
   0  -3 -27  105.00   22.91   0
   1  -1 -19  477.10   21.94   0
   0  -6 -18  276.17   23.95   0
   0  -4 -26  177.82   23.53   0
   1  -5 -18  499.72   25.89   0
  -1   2 -24  494.89   24.13   0
   0  -2 -28  135.50   24.46   0
  -1  -6 -22  128.86   22.44   0
   1  -4 -22  412.84   24.82   0
   1  -3 -23  193.01   21.62   0
   0   1 -22  722.01   26.10   0
  -1  -2 -32  101.70   23.32   0
   0  -5 -25   89.70   20.71   0
   0  -6 -21  149.79   23.16   0
   1  -5 -21  230.64   23.63   0
   1  -2 -24  551.77   24.09   0
  -1  -4 -21  269.43   24.59   0
  -3  -3 -24  170.32   23.19   0
   1  -8  -9  170.81   23.11   0
   1  -5 -15  524.02   23.71   0
   2  -7  -6  835.47   27.55   0
   2  -5  -8 3596.16   43.08   0
  -4  -1 -24  137.07   21.73   0
  -3   0 -21  383.62   22.77   0
  -2  -3 -23   28.48   21.05   0
   0  -8 -13  117.39   22.19   0
   0  -6 -18  296.87   24.60   0
   1  -7 -13  353.06   24.26   0
   2  -4  -6 1580.06   31.58   0
  -3  -1 -23   81.72   20.35   0
   0  -5 -19  259.01   23.81   0
   0  -3 -18 1436.69   29.94   0
   0  -2 -16 1346.97   28.50   0
   1  -2  -9 2681.63   38.85   0
  -1  -1 -18 1671.54   32.39   0
   2  -6 -10 1156.25   28.82   0
  -2   1 -15 1097.40   29.57   0
   0  -4 -20  701.30   26.48   0
   1  -8 -12  354.29   25.61   0
   1  -4 -16 1574.28   31.63   0
   1  -3 -14 2578.38   36.48   0
  -3  -2 -25  192.95   23.77   0
  -4  -2 -26   95.00   24.00   0
  -2  -1 -22  501.98   24.57   0
   1  -6 -17  309.75   23.82   0
   2  -4  -9 2172.19   34.48   0
  -1  -6 -22  111.42   21.56   0
  -1  -5 -23   74.22   21.42   0
   1  -7 -16  361.75   25.99   0
  -2  -4 -25  122.73   24.05   0
  -2  -2 -24  390.80   25.22   0
   1  -5 -18  528.95   26.28   0
  -2   0 -20 1314.89   30.88   0
   2  -8  -8  494.30   24.93   0
  -1  -4 -24  228.09   24.88   0
  -1   0 -16 3378.17   43.98   0
   0  -6 -21  183.88   23.34   0
   1  -2 -12 3969.92   44.53   0
   2  -7 -12  508.94   24.72   0
   0  -5 -22  293.83   25.41   0
   0  -7 -20  196.22   21.94   0
   0  -3 -21  525.49   25.43   0
   1  -8 -15   58.21   22.54   0
   2  -5 -14  769.12   25.30   0
   2  -4 -12 3682.99   42.57   0
  -3  -3 -27   32.15   20.50   0
  -2  -3 -26  167.69   23.10   0
   1  -3 -17 1090.78   26.86   0
   2  -8 -11  137.06   22.22   0
  -1  -2 -23  211.74   20.82   0
   1  -4 -19  237.27   21.20   0
   2  -3  -7 3463.53   43.03   0
  -1  -1 -21  589.99   24.16   0
   1  -6 -20  291.55   24.43   0
   2  -7 -15   95.80   21.46   0
  -3  -1 -26  245.42   22.90   0
  -1  -3 -25  201.80   22.98   0
   1  -5 -21  240.51   23.19   0
   1  -2 -15 1184.86   27.48   0
   2  -8 -14  208.81   23.54   0
   2  -3 -10 3111.78   39.64   0
   3  -6  -6 1364.55   30.74   0
   0  -6 -24  103.09   24.04   0
   2  -5 -17  739.86   25.65   0
   2  -4 -15  385.11   21.56   0
   3  -7  -8  738.03   26.44   0
  -3  -2 -28   96.18   21.14   0
  -2  -1 -25  245.88   22.71   0
   3  -6  -9  773.27   25.73   0
  -2   1 -18 1586.59   33.47   0
   0  -5 -25   94.02   24.28   0
  -2  -2 -27   43.60   21.20   0
  -1  -4 -27   78.89   22.84   0
  -1   0 -19  452.84   21.83   0
   1  -4 -22  482.01   25.84   0
   1  -3 -20  783.64   25.79   0
   3  -7 -11  252.05   22.34   0
   3  -5  -7  738.55   24.69   0
   3  -5  -4 4489.72   50.53   0
  -2   0 -23  376.89   22.56   0
   1  -7 -22  103.56   23.15   0
   1  -6 -23   91.94   24.39   0
   2  -6 -19   95.33   21.57   0
   2  -3 -13 1098.99   26.65   0
   3  -6 -12 1114.39   29.56   0
   0   0 -12 9698.55   73.43   0
   2  -8 -17  116.14   22.35   0
   3  -8 -10  327.21   22.99   0
   3  -5 -10 1096.91   26.95   0
  -2  -3 -29  103.13   21.59   0
  -1  -2 -26  381.70   24.99   0
   1  -1 -10 3373.56   43.19   0
   1  -5 -24  272.49   24.35   0
   1  -2 -18 1760.33   31.67   0
   2  -5 -20  658.18   25.95   0
   3  -7 -14  608.36   26.30   0
  -1  -1 -24  477.01   24.39   0
   0  -1 -20 1322.70   29.99   0
  -1  -3 -28  132.15   22.34   0
   3  -8 -13  238.80   23.26   0
   2  -3 -16 2347.32   35.91   0
   1  -1 -13 2455.25   35.95   0
   2  -6 -22  336.16   23.38   0
  -1   1 -14 2658.94   42.05   0
   1  -3 -23  172.49   20.80   0
   3  -7 -17  221.52   23.55   0
   1  -4 -25  228.50   22.91   0
   3  -4  -5 2286.38   36.63   0
   0  -3 -27   80.36   21.36   0
   0  -2 -25  314.20   22.89   0
   2  -4 -21  583.84   25.11   0
   3  -8 -16  263.10   22.31   0
   3  -5 -16 1189.33   28.92   0
   3  -4 -11  713.07   22.93   0
  -1   0 -22  700.83   25.13   0
   2  -5 -23  116.01   22.78   0
   2  -2  -8 6554.86   57.40   0
   3  -6 -18  467.53   24.19   0
   1  -5 -27   51.26   22.94   0
   2  -3 -19  563.73   22.96   0
   2  -2 -11 4012.01   43.76   0
   0  -4 -29   76.06   20.58   0
   3  -4 -14 1326.86   28.49   0
   0  -1 -23  187.26   20.79   0
   3  -4  -2 2708.95   42.33   0
  -1  -2 -29  104.64   21.64   0
   2  -6 -25  110.58   24.02   0
   3  -8 -19   75.85   21.60   0
   3  -5 -19  186.24   22.46   0
  -1  -1 -27  114.89   20.85   0
   2  -2 -14 2264.64   34.07   0
   4  -7 -10  721.04   25.94   0
   0   0 -18 1183.17   27.80   0
   3  -6 -21  252.27   22.87   0
   4  -7  -7  596.33   24.02   0
  -1   1 -17 1718.22   33.93   0
   2  -4 -24  460.03   25.85   0
   3  -4 -17  930.97   25.78   0
   4  -8 -12  477.85   25.00   0
   4  -7 -13  254.66   20.74   0
   4  -6 -11  645.18   24.26   0
   4  -6  -8 1407.64   30.64   0
   2  -5 -26  165.63   24.87   0
   1  -2 -24  501.34   24.69   0
   0  -3 -30  177.59   22.81   0
   0  -2 -28  173.21   22.06   0
   2  -2 -17  536.77   21.25   0
   4  -7 -16  396.94   24.70   0
   4  -6 -14  737.95   25.11   0
   4  -6  -5  622.01   24.00   0
   3  -5 -22  369.24   24.18   0
   3  -3  -9 1099.44   26.48   0
   4  -8 -15  108.24   19.40   0
  -1   0 -25  397.58   22.76   0
   3  -3 -12 3296.80   39.54   0
   3  -6 -24  147.11   24.40   0
   3  -4 -20  763.09   25.08   0
   4  -5 -12 1229.09   28.95   0
   4  -5  -9 1423.74   28.77   0
   0  -1 -26  440.16   22.41   0
   0   0 -21 1227.25   29.16   0
   3  -3 -15 1029.26   26.23   0
   4  -8 -18  129.12   21.81   0
   4  -7 -19  197.71   22.84   0
   2  -4 -27   76.38   22.26   0
   2  -2 -20 1455.58   30.60   0
  -1   1 -20 1299.67   30.96   0
   4  -5  -6 2225.78   35.80   0
   1  -3 -29   86.91   20.76   0
   1  -1 -22  756.84   25.30   0
   2  -5 -29  118.76   22.56   0
   3  -5 -25  186.43   24.48   0
   4  -6 -20  366.74   25.00   0
   1  -2 -27  135.22   21.52   0
   3  -4 -23  128.98   20.69   0
   4  -5 -18  714.40   24.97   0
   3  -6 -27   61.81   21.82   0
   0  -2 -31   25.89   20.80   0
   3  -3 -21  424.24   23.98   0
   4  -5  -3  691.64   23.43   0
   4  -4 -13 1345.16   28.31   0
   0   0 -24  716.35   25.40   0
   2  -1 -12 3786.49   42.34   0
   4  -6 -23  128.44   20.86   0
   4  -5 -21  323.88   23.46   0
   2  -1 -15 1196.80   26.53   0
   2  -1  -9 2605.28   36.81   0
   4  -4 -16  860.53   25.33   0
   5  -7 -12  663.28   25.94   0
   0  -1 -29  206.74   21.87   0
   1  -1 -25  374.76   21.52   0
   3  -5 -28  113.20   23.31   0
   3  -4 -26  300.08   24.87   0
   5  -8 -14  211.97   21.14   0
   5  -7 -15  284.64   23.20   0
   1   0 -17 1756.74   31.82   0
   4  -4  -7  600.05   21.15   0
   5  -7  -9  237.97   20.76   0
   1  -3 -32   70.55   20.80   0
   5  -8 -17  165.49   21.71   0
   0   1 -13 2328.54   38.20   0
   3  -2 -13 1099.43   25.91   0
   4  -4 -19  211.54   19.60   0
   5  -7 -18  239.31   22.71   0
   5  -6 -13  378.52   22.37   0
   1  -2 -30  183.84   22.59   0
   3  -2 -10 3061.02   38.33   0
   4  -5 -24  203.66   24.01   0
   5  -6 -10  894.29   26.38   0
   2  -2 -26  310.01   22.46   0
   3  -2 -16 2264.71   33.36   0
   4  -6 -26  132.11   23.64   0
   5  -6 -16  618.78   24.74   0
   0   1 -16 3217.90   42.91   0
   5  -8 -20  150.44   22.31   0
   1   0 -20 1297.03   28.32   0
   2  -1 -21  574.51   23.60   0
   3  -2 -19  580.68   22.56   0
   4  -4 -22  594.46   24.90   0
   5  -7 -21   84.07   20.33   0
   5  -6  -7  696.98   24.11   0
   0   0 -27   33.97   20.59   0
   3  -4 -29  104.66   23.03   0
   4  -4  -4 3179.82   41.88   0
   1  -1 -28  273.39   22.73   0
   3  -2  -7 3605.31   41.99   0
   0   1 -19  453.56   21.08   0
   2  -3 -31   76.61   21.47   0
   4  -3 -14 1351.96   27.99   0
   5  -5 -11  406.53   22.19   0
   4  -5 -27   48.32   19.53   0
   4  -3 -17  935.61   27.16   0
   4  -3 -11  699.47   22.43   0
   5  -6 -22  191.75   23.82   0
   5  -5 -17  421.39   22.78   0
   3  -2 -22  569.88   23.04   0
   1   0 -23  186.00   19.62   0
   4  -4 -25  181.11   21.71   0
   2  -2 -29   84.56   20.37   0
   2  -1 -24  516.74   23.75   0
   5  -5 -20  282.70   22.37   0
   5  -5  -8 1320.35   29.04   0
   4  -3 -20  738.47   24.86   0
   0   1 -22  696.57   24.68   0
   5  -6 -25  131.48   22.41   0
   4  -3 -23  125.12   21.93   0
   5  -5 -23   80.23   20.70   0
   6  -8 -16  242.56   23.60   0
   3  -3 -30  116.17   21.99   0
   5  -4 -15  306.35   20.93   0
   6  -7 -14  237.98   21.62   0
   1  -1 -31   37.47   19.82   0
   3  -2  -4 7042.57   60.71   0
   4  -4 -28   97.13   20.23   0
   5  -4 -18  767.15   25.33   0
   6  -7 -17  224.25   21.22   0
   1   0 -26  445.36   23.51   0
   2  -1 -27  100.38   21.30   0
   6  -7 -11  223.97   20.71   0
   5  -5  -5 1322.46   29.53   0
   6  -7 -20  251.64   23.10   0
   3  -1 -17 1114.66   26.69   0
   3  -1 -14 2643.24   35.87   0
   5  -5 -26  185.77   23.48   0
   5  -4 -21  318.80   22.70   0
   6  -6 -15  192.98   21.91   0
   2  -2 -32  117.77   21.17   0
   2   0 -13 2536.74   36.42   0
   4  -3 -26  315.57   24.46   0
   4  -3  -5 2216.97   34.20   0
   5  -4  -9 1417.07   28.74   0
   6  -6 -18  230.52   23.68   0
   2   0 -19  420.42   21.41   0
   3  -2 -28  210.43   24.24   0
   4  -4  -1 2743.80   42.70   0
   6  -6 -12  965.13   26.96   0
   3  -1 -11  993.01   24.80   0
   4  -2 -15  386.66   20.97   0
   4  -2 -18  656.14   23.66   0
   4  -2 -12 3742.89   41.53   0
   5  -4 -24  184.66   22.03   0
   2   0 -22 1083.62   28.93   0
   2   0 -10 7509.96   59.67   0
   4  -2 -21  660.86   26.05   0
   6  -6  -9  475.66   22.90   0
   1   1 -15 1143.89   27.51   0
   3  -1 -23  210.75   19.78   0
   1   1 -18 1617.62   31.92   0
   2  -1 -30  152.87   21.85   0
   5  -4  -6 2294.14   35.96   0
   5  -3 -16 1262.23   28.84   0
   6  -5 -19  193.49   21.71   0
   6  -5 -13  353.65   22.01   0
   3  -1  -8 4435.25   46.05   0
   4  -2  -9 2163.54   33.25   0
   5  -4 -27   20.45   23.11   0
   5  -3 -19  190.63   21.25   0
   5  -3 -13 1124.90   28.35   0
   1   1 -21  576.09   23.83   0
   3  -2 -31   73.09   21.90   0
   4  -2 -24  437.04   23.87   0
   6  -5 -22  221.08   24.04   0
   2   0 -25  311.98   22.81   0
   3  -1 -26  405.64   23.44   0
   5  -3 -22  333.04   23.56   0
   6  -5 -10  888.13   25.97   0
   5  -3 -10 1102.01   27.60   0
  -8   7   0  629.68   26.12   0
  -4   7  -8  727.93   26.85   0
  -9   8   4  171.73   23.67   0
  -8   8  -1  170.04   24.43   0
  -8   6   1  350.59   25.22   0
  -5   8  -7  206.38   21.81   0
  -9   7   5  245.54   21.87   0
  -6   6  -6  769.43   26.14   0
  -3   6  -9  708.84   24.17   0
  -7   4   1  422.20   22.88   0
  -5   6  -8 1163.44   28.66   0
  -8   9  -2  236.89   23.48   0
  -7   6  -4 1107.43   28.98   0
  -7   7  -5  373.76   25.03   0
  -6   7  -7  234.39   21.31   0
  -5   4  -6 1930.18   33.25   0
  -6   9  -6  207.29   21.76   0
  -4   2  -3 1766.45   32.29   0
  -9   6   6  231.18   22.74   0
  -8   5   2  451.86   24.58   0
  -3   2  -5 4592.86   48.61   0
  -7   5  -3  264.36   21.53   0
  -6   4  -4 1723.13   32.35   0
  -4   4  -8 3098.19   39.21   0
  -9   7   2  288.74   22.77   0
  -8   7  -3  280.05   25.49   0
  -7   8  -6  258.47   22.96   0
  -5   7  -9  629.14   25.48   0
  -8   8  -4  347.67   24.96   0
  -6   8  -8  514.04   24.70   0
  -4   1   1 1905.54   35.69   0
  -4   6 -10 1113.00   27.70   0
  -4   8  -9  287.76   21.83   0
  -5   2  -1 1698.54   32.17   0
  -6   2   4 1608.87   33.97   0
  -5   9  -8  428.71   24.73   0
  -5   3  -5 1491.66   28.95   0
  -4   3  -7 1407.64   28.84   0
  -3   7 -10  661.19   25.97   0
  -8   9  -5   89.06   23.65   0
  -7   9  -7  161.72   23.18   0
  -9   8  -2  250.68   25.06   0
  -7   4  -2 1239.38   28.74   0
  -9   7  -1   89.49   23.02   0
  -8   5  -1  418.97   25.41   0
  -7   6  -7  242.90   23.47   0
  -6   6  -9  614.29   24.85   0
  -5   8 -10  336.97   24.05   0
  -7   7  -8  779.63   28.65   0
  -4   7 -11  230.41   22.39   0
  -3   5 -11  495.82   22.94   0
  -2   2  -7  729.05   23.31   0
  -8   4   3  304.71   22.82   0
  -7   3   2 1186.21   29.65   0
  -5   5 -10 1204.32   29.26   0
  -8   7  -6  267.04   24.91   0
  -7   5  -6  899.53   28.31   0
  -6   9  -9  121.01   21.97   0
  -3   3  -9 2799.60   38.22   0
  -9   6   0  460.22   24.22   0
  -8   6  -5  328.53   23.60   0
  -8   8  -7  136.62   21.49   0
  -7   8  -9  182.64   22.11   0
  -5   4  -9  750.77   25.15   0
  -6   4  -7  521.93   22.92   0
  -6   2   1 1162.38   28.68   0
  -6   8 -11  127.94   22.44   0
  -9   8  -5  133.04   22.91   0
  -5   7 -12  486.69   23.89   0
  -4   2  -6 1652.35   30.14   0
  -8   5  -4  730.19   27.52   0
  -4   4 -11 1332.31   27.92   0
  -8   4   0  841.92   28.34   0
  -7   4  -5  732.46   24.69   0
  -5   2  -4 4513.49   47.49   0
  -7   3  -1  395.50   22.48   0
  -7   9 -10  195.91   21.16   0
  -3   1  -4 7299.12   62.15   0
  -9   6  -3  261.22   23.69   0
  -5   3  -8 3672.88   41.78   0
  -4   1  -2 2735.15   39.72   0
  -4   6 -13  625.41   24.69   0
  -7   6 -10  409.37   23.54   0
  -7   7 -11  114.19   22.70   0
  -3   2  -8 4508.88   46.69   0
  -6   6 -12  822.01   26.39   0
  -8   6  -8  545.95   26.45   0
  -7   5  -9  646.82   26.60   0
  -6   5 -11  344.94   21.86   0
  -4   3 -10 1811.34   31.43   0
  -8   8 -10  182.97   23.58   0
  -5   8 -13  194.87   22.51   0
  -2   4 -12 3449.46   43.66   0
  -6   9 -12  247.85   22.50   0
  -1   4 -11  659.11   24.49   0
  -5   5 -13  375.42   23.36   0
  -9   7  -7  192.76   21.99   0
  -8   4  -3  313.97   22.79   0
  -6   2  -2 1684.23   32.66   0
  -6   4 -10 1178.37   27.78   0
  -5   6 -14  628.39   25.16   0
  -9   5  -2  172.31   20.59   0
  -5   1   0 2874.75   42.42   0
  -5   4 -12 1676.36   31.44   0
  -9   6  -6  192.95   23.07   0
  -7   3  -4  965.51   27.71   0
  -3   5 -14  669.94   24.39   0
  -6   8 -14  231.51   23.19   0
  -3   3 -12 2090.21   33.37   0
  -5   7 -15  118.97   21.58   0
  -8   7 -12  400.11   26.67   0
  -7   6 -13  424.37   23.82   0
  -4   2  -9 2198.36   33.49   0
  -2   2 -10 7539.96   60.45   0
  -8   6 -11  154.70   23.86   0
  -7   7 -14  150.09   23.34   0
  -7   5 -12  494.74   25.88   0
  -6   3  -9  743.94   23.99   0
  -5   3 -11  531.94   22.52   0
  -4   4 -14 1130.22   27.48   0
  -9   5  -5  180.83   22.40   0
  -9   7 -10  199.30   23.64   0
  -8   4  -6  399.56   23.77   0
  -8   8 -13  125.32   20.91   0
  -6   5 -14  633.05   26.79   0
  -6   6 -15  172.61   21.16   0
  -3   6 -15  271.51   21.11   0
  -6   2  -5  651.03   22.94   0
  -4   6 -16  506.38   24.22   0
  -3   1  -7 3704.56   43.14   0
  -7   8 -15   97.44   20.18   0
  -6   7 -16  379.46   25.21   0
  -7   3  -7  609.01   24.88   0
  -6   4 -13  680.33   26.17   0
  -4   3 -13 1187.80   27.07   0
  -3   2 -11  985.20   25.08   0
  -7   4 -11  260.61   22.97   0
  -5   1  -3  742.23   24.06   0
  -8   3  -2  416.19   23.57   0
  -5   4 -15  522.37   23.32   0
  -9   5  -8  497.64   24.31   0
  -8   6 -14  220.12   24.46   0
  -8   7 -15   65.14   22.67   0
  -6   8 -17  130.76   21.53   0
  -8   4  -9  276.37   22.57   0
  -7   6 -16  386.68   24.73   0
  -5   2 -10 1143.37   26.24   0
  -2   4 -15  347.43   20.50   0
  -9   4  -4  523.93   25.64   0
  -7   2  -3  779.84   27.41   0
  -6   3 -12 1096.41   28.93   0
  -2   3 -14 2527.44   36.47   0
  -7   5 -15   92.48   21.18   0
  -6   2  -8 1402.47   30.14   0
  -5   7 -18  306.87   23.34   0
  -4   2 -12 3736.98   41.82   0
  -2   1  -9 2630.21   37.47   0
  -9   6 -12  309.78   24.72   0
  -8   3  -5  306.47   23.08   0
  -8   5 -13  259.10   24.30   0
  -5   3 -14  698.81   24.45   0
  -3   5 -17  672.66   24.95   0
  -7   3 -10  747.68   26.39   0
  -6   5 -17  315.18   22.97   0
  -1   3 -13 1011.14   27.03   0
  -5   1  -6 2321.50   36.23   0
  -4   5 -18  480.61   24.68   0
  -7   4 -14  630.25   25.88   0
  -6   4 -16  574.71   26.10   0
  -6   7 -19   28.96   21.60   0
  -3   1 -10 3089.94   38.62   0
  -9   5 -11   78.93   20.53   0
  -4   0  -1 2784.19   43.33   0
  -9   4  -7  101.80   21.09   0
  -8   4 -12  507.80   26.25   0
  -7   2  -6  723.35   25.72   0
  -4   6 -19  136.65   20.71   0
  -3   2 -14 2639.33   37.00   0
  -5   5 -19  256.28   21.32   0
  -8   3  -8  650.51   26.62   0
  -8   6 -17  138.30   23.55   0
  -5   6 -20  268.25   23.76   0
  -7   6 -19   80.77   20.49   0
  -6   1  -4 1449.00   31.38   0
  -6   3 -15  305.14   21.26   0
  -7   5 -18  303.16   24.47   0
  -7   7 -20  199.84   22.36   0
  -5   1  -9 1451.02   29.00   0
  -5   3 -17  674.63   24.90   0
  -4   1 -11  703.17   22.52   0
  -4   2 -15  401.66   20.91   0
  -9   4 -10  163.15   21.91   0
  -4   0  -4 3197.13   42.46   0
  -9   5 -14   65.80   21.89   0
  -7   2  -9  258.85   21.31   0
  -7   4 -17  225.03   24.57   0
  -6   5 -20  283.08   23.05   0
  -3   4 -19  256.04   20.99   0
  -6   6 -21  148.34   21.05   0
  -5   7 -21  160.52   20.97   0
  -2   1 -12 3951.42   43.11   0
  -6   4 -19  125.60   21.43   0
  -2   3 -17 1060.10   26.39   0
  -2   4 -18  622.30   23.85   0
  -8   3 -11  178.42   20.58   0
  -6   1  -7  742.13   25.20   0
  -4   4 -20  638.88   24.43   0
  -3   5 -20  613.16   25.43   0
  -1   1 -11  974.49   25.12   0
  -4   5 -21  221.65   21.63   0
  -3   1 -13 1053.19   25.19   0
  -6   7 -22  135.19   22.15   0
  -4   3 -19  288.66   22.39   0
  -2   0  -8 6501.08   56.72   0
  -5   2 -16 1194.19   28.29   0
  -3   2 -17 1097.05   26.20   0
  -8   5 -19   74.84   22.24   0
  -7   3 -16  390.54   24.00   0
  -6   3 -18  427.88   24.70   0
  -5   5 -22  203.14   22.24   0
  -1   3 -16 2152.16   36.74   0
  -9   4 -13  164.08   20.50   0
  -7   5 -21  163.50   24.06   0
  -4   0  -7  622.54   21.64   0
  -4   1 -14 1309.63   27.47   0
  -3   0  -9 1059.61   25.60   0
  -5   6 -23   54.80   20.47   0
  -1   2 -15 1139.77   27.63   0
  -8   3 -14  225.65   23.86   0
  -6   1 -10  879.24   25.69   0
  -4   2 -18  656.80   24.34   0
  -7   4 -20  201.35   22.66   0
  -8   4 -18  170.17   21.04   0
  -5   0  -5 1336.35   29.84   0
  -6   4 -22  330.12   23.65   0
  -6   6 -24  139.53   22.09   0
  -2   1 -15 1171.85   26.40   0
  -6   2 -17  261.00   21.74   0
  -3   1 -16 2332.61   34.27   0
  -4   0 -10 2482.47   35.41   0
  -3   3 -21  471.09   22.61   0
  -3   4 -22  391.53   23.41   0
  -8   2 -10  265.24   22.69   0
  -7   2 -15  263.04   23.84   0
  -7   3 -19  179.25   23.55   0
  -5   1 -15  292.91   20.43   0
  -5   2 -19  157.53   20.31   0
  -4   4 -23  193.39   21.04   0
  -2   0 -11 3983.55   43.17   0
  -6   3 -21  236.93   24.32   0
  -2   3 -20  749.25   24.37   0
  -6   1 -13  378.31   21.79   0
  -5   0  -8 1300.00   28.37   0
  -4   5 -24  233.61   22.16   0
  -3   0 -12 3243.92   39.12   0
  -8   3 -17  173.56   23.01   0
  -4   1 -17  925.41   25.78   0
  -3   2 -20  793.82   25.03   0
  -2   2 -19  416.14   21.75   0
  -1   0 -10 3446.12   42.44   0
  -5   5 -25   72.23   19.68   0
  -7   4 -23   52.70   22.23   0
  -4   2 -21  600.90   25.88   0
  -8   2 -13  263.67   22.49   0
   0   2 -14 2129.15   38.20   0
  -7   1 -11  209.62   20.02   0
  -6   2 -20  363.36   24.41   0
  -5   0 -11  415.41   20.94   0
  -1   2 -18 1593.45   31.70   0
  -1   3 -19  505.07   22.81   0
  -7   2 -18  191.80   23.34   0
  -2   1 -18 1675.30   31.33   0
  -6   1 -16  637.08   24.40   0
  -6   4 -25  125.52   19.86   0
  -5   1 -18  800.78   25.23   0
  -3   1 -19  554.28   22.60   0
  -2   0 -14 2270.60   33.48   0
  -7   3 -22  139.49   20.68   0
  -5   2 -22  368.80   24.65   0
  -3   0 -15  998.63   25.39   0
  -8   3 -20  175.66   20.36   0
  -6   3 -24  193.14   21.43   0
  -5   5  11  425.54   23.20   0
  -4   6   2 1670.89   30.78   0
  -3   7  -1  427.24   22.61   0
   1   5  -7  679.89   25.47   0
  -3   9   3  252.16   24.63   0
   0   4  -7  585.37   22.60   0
   0   8  -2  256.50   23.09   0
  -5   8   8  673.36   27.87   0
  -5   9  13  196.77   23.01   0
  -4   8   3  344.61   22.84   0
  -5   6   7  745.37   25.70   0
  -4   4   4 3326.71   42.25   0
  -2   9   1   64.99   21.04   0
  -5   7   6  735.54   26.65   0
  -3   4  -1 1944.86   32.50   0
  -5   9  10  136.92   21.45   0
  -1   7  -5  350.08   23.09   0
  -1   8  -3  151.32   22.63   0
  -3   6  -3  876.09   26.41   0
  -5   5   8 1342.48   30.26   0
  -3   8  -2  433.96   25.32   0
  -1   9  -1  147.62   22.06   0
  -3   9   0  459.23   26.34   0
  -4   8   0  942.61   28.82   0
  -4   9   2  161.89   23.01   0
  -1   6  -7  683.22   24.13   0
  -5   6   4 1587.19   30.67   0
  -4   5   0 2892.40   37.73   0
  -4   6  -1 1177.57   27.50   0
  -2   8  -4  671.20   26.62   0
  -6   8  13  295.25   22.76   0
  -3   3   0 5902.04   55.25   0
  -6   7  11  261.73   23.70   0
  -4   7  -2 1220.01   28.41   0
  -2   7  -6  672.58   24.65   0
  -6   8  10  291.45   23.83   0
  -5   5   5 1420.02   30.33   0
  -5   8   2  419.11   25.18   0
   0   7  -7  194.12   21.25   0
  -6   9  12  248.77   23.05   0
  -2   4  -6 1654.75   30.17   0
  -4   3   5 2375.01   38.88   0
  -1   8  -6  245.44   22.56   0
  -6   7   8 1047.93   29.58   0
  -6   8   7  170.84   22.23   0
  -6   9   9  264.50   22.36   0
  -5   4   9 1312.72   31.19   0
  -4   9  -1  261.60   23.32   0
  -3   5  -5 1520.15   29.31   0
  -1   9  -4  169.27   22.51   0
  -5   7   0 1154.43   28.82   0
  -4   8  -3  327.16   22.28   0
  -3   6  -6 1438.90   29.25   0
  -1   7  -8  980.46   28.35   0
   0   6  -9  407.86   22.20   0
  -5   9   1  222.65   22.46   0
  -3   4  -4 6032.44   51.96   0
  -2   6  -8 1366.26   29.69   0
  -6   6   9  446.63   22.49   0
  -6   9   6  253.46   24.27   0
  -5  10   3  122.01   22.96   0
  -2   3  -5 4662.73   48.38   0
  -4   6  -4 1674.44   31.10   0
  -2   9  -5  225.49   23.10   0
  -6   7   5  374.51   21.86   0
  -6   8   4  770.45   27.37   0
  -5   8  -1  395.19   23.61   0
  -4   5  -3 1800.18   30.40   0
  -2   8  -7  144.97   22.49   0
  -5   5   2 2373.62   35.16   0
  -4   7  -5  682.31   25.07   0
  -5   4   6 2302.99   37.21   0
  -6   6   6  616.35   24.28   0
   0   3  -9 1047.43   27.50   0
  -2   7  -9  244.28   21.58   0
  -5   9  -2  178.21   22.56   0
  -5  10   0  285.88   22.37   0
  -3   9  -6  245.28   22.82   0
  -6   7   2  471.25   23.48   0
  -5   6  -2 1452.71   29.40   0
  -5   7  -3  223.46   20.99   0
  -4   4  -2 3349.81   40.47   0
  -4   8  -6  423.97   25.01   0
  -4   3   2 2782.39   39.68   0
  -3   3  -3 1163.76   26.20   0
  -3   8  -8  664.30   26.77   0
   0   5 -11  383.26   22.09   0
  -5   8  -4  794.71   27.34   0
  -7   8   9  271.69   22.44   0
  -7   9   8  213.02   22.48   0
  -6   6   3  705.80   25.10   0
  -6   9   0  478.41   25.94   0
  -6  10   2  165.48   20.58   0
  -3   5  -8 3641.96   41.82   0
  -3   6  -9  752.30   24.07   0
  -5   4   3  740.52   23.85   0
  -4   6  -7  489.92   23.42   0
  -2   5 -10 1067.26   25.82   0
  -2   9  -8  207.05   22.03   0
  -7   8   6  269.80   22.68   0
  -7   9   5  245.54   23.19   0
  -6   5   7  703.48   24.82   0
  -5  10  -3   81.55   19.92   0
  -4   5  -6 1893.00   32.32   0
  -4   7  -8  780.92   26.92   0
  -2   8 -10  261.48   22.81   0
  -1   7 -11  194.81   21.42   0
  -6   8  -2  369.03   24.30   0
  -5   9  -5  206.43   22.43   0
  -3   4  -7 1460.30   28.61   0
  -2   6 -11  574.76   23.02   0
  -6  10  -1  103.04   20.02   0
  -5   7  -6  884.99   27.93   0
  -7   7   7  191.46   21.67   0
  -5   6  -5  886.85   25.30   0
  -1   4 -11  676.67   23.18   0
  -7   8   3  127.06   22.77   0
  -6   6   0 1726.82   31.73   0
  -3   9  -9  236.22   21.66   0
  -1   5 -12 1147.78   28.41   0
  -7   9   2  249.44   23.51   0
  -6   5   4 1545.09   31.95   0
  -5   8  -7  213.38   24.29   0
  -2   3  -8 4471.73   46.63   0
  -7   7   4 1078.59   29.86   0
  -4   4  -5  811.71   23.60   0
  -2   7 -12  633.66   24.24   0
  -5   4   0 3026.12   39.89   0
  -5   5  -4 1923.47   33.22   0
  -3   8 -11  165.82   21.01   0
  -1   3 -10 2956.83   39.71   0
  -6   7  -4 1141.56   28.74   0
  -6   8  -5  304.73   23.87   0
  -1   6 -13  332.28   21.62   0
  -5   9  -8  505.33   24.83   0
  -3   3  -6 5773.44   52.09   0
  -4   6 -10 1166.33   28.44   0
  -4   9 -10  172.35   23.84   0
  -3   5 -11  526.08   22.10   0
  -5   7 -21  174.93   21.91   0
  -5   4 -15  540.71   23.68   0
  -8   6  -8  598.81   26.66   0
  -6   6 -18  269.06   23.06   0
  -2   5 -22  287.10   22.15   0
  -7   7 -17  227.61   22.02   0
  -4   6 -22  281.90   22.31   0
  -1   3 -19  516.01   22.78   0
  -5   3 -11  534.90   22.20   0
  -4   7 -23   36.19   20.78   0
  -2   1  -9 2720.34   38.29   0
  -6   3   0 2102.59   35.93   0
  -4   2  -9 2170.95   32.95   0
  -4   5 -21  267.45   22.14   0
  -7   4  -2 1172.07   29.21   0
  -3   1  -4 7089.81   61.02   0
  -7   6 -16  364.42   25.23   0
  -6   3  -3  854.43   25.68   0
  -6   4 -13  639.60   23.91   0
  -6   5 -17  337.19   22.91   0
  -4   3 -16 1618.63   30.59   0
  -9   7  -7  176.16   21.81   0
  -8   6 -11  135.66   22.32   0
  -7   4  -5  685.97   24.94   0
  -3   2 -14 2658.52   35.61   0
  -8   7 -15   84.70   22.20   0
  -3   5 -23   38.56   20.39   0
   0   2 -17  503.24   22.08   0
  -6   3  -6 1348.57   29.53   0
   0   1 -13 2384.84   39.02   0
  -5   2  -1 1618.30   31.52   0
  -2   3 -20  798.24   24.45   0
  -3   1  -7 3593.50   41.83   0
  -7   4  -8  763.42   24.79   0
  -7   7 -20  172.73   23.13   0
  -6   6 -21  197.92   22.78   0
  -5   2  -4 4623.83   47.62   0
  -5   2   2 1265.90   31.01   0
  -5   3 -14  702.72   23.52   0
  -5   6 -23   61.56   21.87   0
  -4   2 -12 3626.97   40.56   0
  -3   4 -22  391.87   23.48   0
  -9   7 -10  185.39   19.85   0
  -8   5  -7  193.28   21.54   0
  -7   5 -15   90.19   21.79   0
  -2   1 -12 3943.19   43.43   0
  -1   2 -18 1560.88   30.20   0
  -7   6 -19   66.20   21.26   0
  -6   5 -20  270.47   22.67   0
  -4   6 -25  141.23   21.14   0
  -1   1 -14 2628.67   37.00   0
  -8   5 -10  338.33   23.16   0
  -7   4 -11  274.30   21.15   0
  -4   3 -19  257.09   21.61   0
  -4   5 -24  254.40   22.68   0
  -9   6  -6  222.16   21.88   0
  -3   1 -10 3089.16   38.09   0
  -3   2 -17 1133.32   26.47   0
  -3   3 -21  462.42   21.62   0
  -6   3 -12 1075.61   27.09   0
  -5   3 -17  736.77   26.11   0
  -9   6  -9  104.51   21.03   0
  -7   5 -18  365.36   25.06   0
  -5   2 -10 1078.80   26.01   0
  -5   4 -21  247.19   21.55   0
  -4   2 -15  376.77   19.78   0
  -2   2 -19  406.82   19.96   0
  -8   6 -17  117.80   20.36   0
  -4   4 -23  184.90   21.09   0
  -8   5 -13  253.02   23.21   0
  -6   4 -19  105.94   22.06   0
  -4   1  -2 2653.72   38.27   0
  -2   1 -15 1153.60   26.07   0
  -7   6 -22   99.65   20.71   0
  -2   3 -23  168.58   19.82   0
  -9   6 -12  257.54   20.97   0
  -6   3 -15  329.52   22.74   0
  -3   1 -13 1108.77   25.26   0
  -3   4 -25  259.08   21.87   0
   0   1 -16 3213.28   44.45   0
  -6   5 -23   73.50   20.31   0
  -5   2 -13 1159.38   26.51   0
  -5   5 -25  109.16   21.31   0
  -4   1  -8 4416.54   45.08   0
  -7   3  -4  934.86   27.06   0
  -8   4  -6  395.56   22.65   0
  -7   3  -7  644.20   24.56   0
  -1   1 -17 1728.67   31.85   0
  -1   2 -21  536.24   22.45   0
  -7   4 -17  286.28   23.26   0
  -7   5 -21  157.12   23.44   0
  -5   3 -20  699.07   25.69   0
  -4   2 -18  683.46   23.32   0
   3  -3 -27  101.29   19.43   0
   6  -4 -20  350.56   22.79   0
   4  -4 -28   69.76   19.84   0
   0   0 -18 1138.09   29.39   0
   2  -1 -21  582.28   23.20   0
   6  -3  -9  757.25   24.10   0
   2  -2 -26  274.10   21.98   0
   6  -3 -12 1119.34   27.90   0
   6  -3  -6 1375.07   28.57   0
   5  -2 -11  524.26   21.96   0
   5  -2  -8 3583.29   41.01   0
   7  -4  -7  632.52   24.70   0
   7  -5 -21  106.42   22.79   0
   7  -4 -13  237.88   21.95   0
   6  -3 -15  295.01   19.97   0
   5  -2 -14  735.54   21.71   0
;
_shelx_hkl_checksum              74549
loop_
_space_group_symop_operation_xyz
'x, y, z'
'-y, x-y, z'
'-x+y, -x, z'
'y, x, -z'
'x-y, -y, -z'
'-x, -x+y, -z'
'x+2/3, y+1/3, z+1/3'
'-y+2/3, x-y+1/3, z+1/3'
'-x+y+2/3, -x+1/3, z+1/3'
'y+2/3, x+1/3, -z+1/3'
'x-y+2/3, -y+1/3, -z+1/3'
'-x+2/3, -x+y+1/3, -z+1/3'
'x+1/3, y+2/3, z+2/3'
'-y+1/3, x-y+2/3, z+2/3'
'-x+y+1/3, -x+2/3, z+2/3'
'y+1/3, x+2/3, -z+2/3'
'x-y+1/3, -y+2/3, -z+2/3'
'-x+1/3, -x+y+2/3, -z+2/3'
'-x, -y, -z'
'y, -x+y, -z'
'x-y, x, -z'
'-y, -x, z'
'-x+y, y, z'
'x, x-y, z'
'-x+2/3, -y+1/3, -z+1/3'
'y+2/3, -x+y+1/3, -z+1/3'
'x-y+2/3, x+1/3, -z+1/3'
'-y+2/3, -x+1/3, z+1/3'
'-x+y+2/3, y+1/3, z+1/3'
'x+2/3, x-y+1/3, z+1/3'
'-x+1/3, -y+2/3, -z+2/3'
'y+1/3, -x+y+2/3, -z+2/3'
'x-y+1/3, x+2/3, -z+2/3'
'-y+1/3, -x+2/3, z+2/3'
'-x+y+1/3, y+2/3, z+2/3'
'x+1/3, x-y+2/3, z+2/3'
loop_
_atom_site_label
_atom_site_type_symbol
_atom_site_fract_x
_atom_site_fract_y
_atom_site_fract_z
_atom_site_U_iso_or_equiv
_atom_site_adp_type
_atom_site_occupancy
_atom_site_site_symmetry_order
_atom_site_calc_flag
_atom_site_refinement_flags_posn
_atom_site_refinement_flags_adp
_atom_site_refinement_flags_occupancy
Ba1 Ba 0.0000 0.0000 0.5000 0.01569(5) Uani 1 12 d S T P
Mg2 Mg 0.0000 0.0000 0.0000 0.01248(14) Uani 1 12 d S T P
O3 O 0.85367(12) 0.7073(2) 0.25763(7) 0.0299(2) Uani 1 2 d S T P
C4 C 0.0000 0.0000 0.26075(10) 0.0127(2) Uani 1 6 d S T P
loop_
_atom_site_aniso_label
_atom_site_aniso_U_11
_atom_site_aniso_U_22
_atom_site_aniso_U_33
_atom_site_aniso_U_23
_atom_site_aniso_U_13
_atom_site_aniso_U_12
Ba1 0.01375(5) 0.01375(5) 0.01956(7) 0.000 0.000 0.00688(3)
Mg2 0.0106(2) 0.0106(2) 0.0163(3) 0.000 0.000 0.00529(10)
O3 0.0381(5) 0.0114(3) 0.0313(4) 0.0046(3) 0.00231(16) 0.00572(16)
C4 0.0121(3) 0.0121(3) 0.0140(5) 0.000 0.000 0.00606(16)
loop_
_atom_type_symbol
_atom_type_description
_atom_type_scat_dispersion_real
_atom_type_scat_dispersion_imag
_atom_type_scat_source
C C 0.0033 0.0016 'International Tables Vol C Tables 4.2.6.8 and 6.1.1.4'
O O 0.0106 0.0060 'International Tables Vol C Tables 4.2.6.8 and 6.1.1.4'
Mg Mg 0.0486 0.0363 'International Tables Vol C Tables 4.2.6.8 and 6.1.1.4'
Ba Ba -0.3244 2.2819 'International Tables Vol C Tables 4.2.6.8 and 6.1.1.4'
loop_
_geom_angle_atom_site_label_1
_geom_angle_atom_site_label_2
_geom_angle_atom_site_label_3
_geom_angle
_geom_angle_site_symmetry_1
_geom_angle_site_symmetry_3
O3 Ba1 O3 180.0 31 7_445
O3 Ba1 O3 57.19(4) 31 32_455
O3 Ba1 O3 122.81(4) 7_445 32_455
O3 Ba1 O3 122.81(4) 31 8_545
O3 Ba1 O3 57.19(4) 7_445 8_545
O3 Ba1 O3 180.0 32_455 8_545
O3 Ba1 O3 43.99(4) 31 33_435
O3 Ba1 O3 136.01(4) 7_445 33_435
O3 Ba1 O3 95.57(3) 32_455 33_435
O3 Ba1 O3 84.43(3) 8_545 33_435
O3 Ba1 O3 136.01(4) 31 9_565
O3 Ba1 O3 43.99(4) 7_445 9_565
O3 Ba1 O3 84.43(3) 32_455 9_565
O3 Ba1 O3 95.57(3) 8_545 9_565
O3 Ba1 O3 180.0 33_435 9_565
O3 Ba1 O3 95.57(3) 31 33_545
O3 Ba1 O3 84.43(3) 7_445 33_545
O3 Ba1 O3 43.99(4) 32_455 33_545
O3 Ba1 O3 136.01(4) 8_545 33_545
O3 Ba1 O3 117.10(5) 33_435 33_545
O3 Ba1 O3 62.90(5) 9_565 33_545
O3 Ba1 O3 84.43(3) 31 9_455
O3 Ba1 O3 95.57(3) 7_445 9_455
O3 Ba1 O3 136.01(4) 32_455 9_455
O3 Ba1 O3 43.99(4) 8_545 9_455
O3 Ba1 O3 62.90(5) 33_435 9_455
O3 Ba1 O3 117.10(5) 9_565 9_455
O3 Ba1 O3 180.00(2) 33_545 9_455
O3 Ba1 O3 95.57(3) 31 32_445
O3 Ba1 O3 84.43(3) 7_445 32_445
O3 Ba1 O3 117.10(5) 32_455 32_445
O3 Ba1 O3 62.90(5) 8_545 32_445
O3 Ba1 O3 57.19(4) 33_435 32_445
O3 Ba1 O3 122.81(4) 9_565 32_445
O3 Ba1 O3 95.57(3) 33_545 32_445
O3 Ba1 O3 84.43(3) 9_455 32_445
O3 Ba1 O3 84.43(3) 31 8
O3 Ba1 O3 95.57(3) 7_445 8
O3 Ba1 O3 62.90(5) 32_455 8
O3 Ba1 O3 117.10(5) 8_545 8
O3 Ba1 O3 122.81(4) 33_435 8
O3 Ba1 O3 57.19(4) 9_565 8
O3 Ba1 O3 84.43(3) 33_545 8
O3 Ba1 O3 95.57(3) 9_455 8
O3 Ba1 O3 180.0 32_445 8
O3 Ba1 O3 62.90(5) 31 7_345
O3 Ba1 O3 117.10(5) 7_445 7_345
O3 Ba1 O3 84.43(3) 32_455 7_345
O3 Ba1 O3 95.57(3) 8_545 7_345
O3 Ba1 O3 84.43(3) 33_435 7_345
O3 Ba1 O3 95.57(3) 9_565 7_345
O3 Ba1 O3 122.81(4) 33_545 7_345
O3 Ba1 O3 57.19(4) 9_455 7_345
O3 Ba1 O3 136.01(4) 32_445 7_345
O3 Ba1 O3 43.99(4) 8 7_345
O3 Ba1 O3 117.10(5) 31 31_655
O3 Ba1 O3 62.90(5) 7_445 31_655
O3 Ba1 O3 95.57(3) 32_455 31_655
O3 Ba1 O3 84.43(3) 8_545 31_655
O3 Ba1 O3 95.57(3) 33_435 31_655
O3 Ba1 O3 84.43(3) 9_565 31_655
O3 Ba1 O3 57.19(4) 33_545 31_655
O3 Ba1 O3 122.81(4) 9_455 31_655
O3 Ba1 O3 43.99(4) 32_445 31_655
O3 Ba1 O3 136.01(4) 8 31_655
O3 Ba1 O3 180.0 7_345 31_655
O3 Mg2 O3 180.00(5) 26_455 14_544
O3 Mg2 O3 86.11(5) 26_455 27_445
O3 Mg2 O3 93.89(5) 14_544 27_445
O3 Mg2 O3 93.89(5) 26_455 15_554
O3 Mg2 O3 86.11(5) 14_544 15_554
O3 Mg2 O3 180.00(5) 27_445 15_554
O3 Mg2 O3 86.11(5) 26_455 25
O3 Mg2 O3 93.89(5) 14_544 25
O3 Mg2 O3 86.11(5) 27_445 25
O3 Mg2 O3 93.89(5) 15_554 25
O3 Mg2 O3 93.89(5) 26_455 13_444
O3 Mg2 O3 86.11(5) 14_544 13_444
O3 Mg2 O3 93.89(5) 27_445 13_444
O3 Mg2 O3 86.11(5) 15_554 13_444
O3 Mg2 O3 180.00(7) 25 13_444
O3 Mg2 Ba1 135.299(18) 26_455 7_444
O3 Mg2 Ba1 44.701(18) 14_544 7_444
O3 Mg2 Ba1 135.299(18) 27_445 7_444
O3 Mg2 Ba1 44.701(18) 15_554 7_444
O3 Mg2 Ba1 81.92(4) 25 7_444
O3 Mg2 Ba1 98.08(4) 13_444 7_444
O3 Mg2 Ba1 44.701(18) 26_455 13_554
O3 Mg2 Ba1 135.299(18) 14_544 13_554
O3 Mg2 Ba1 44.701(18) 27_445 13_554
O3 Mg2 Ba1 135.299(18) 15_554 13_554
O3 Mg2 Ba1 98.08(4) 25 13_554
O3 Mg2 Ba1 81.92(4) 13_444 13_554
Ba1 Mg2 Ba1 180.0 7_444 13_554
O3 Mg2 Ba1 81.92(4) 26_455 7_554
O3 Mg2 Ba1 98.08(4) 14_544 7_554
O3 Mg2 Ba1 135.299(18) 27_445 7_554
O3 Mg2 Ba1 44.701(18) 15_554 7_554
O3 Mg2 Ba1 135.299(18) 25 7_554
O3 Mg2 Ba1 44.701(18) 13_444 7_554
Ba1 Mg2 Ba1 77.146(18) 7_444 7_554
Ba1 Mg2 Ba1 102.854(18) 13_554 7_554
O3 Mg2 Ba1 98.08(4) 26_455 13_444
O3 Mg2 Ba1 81.92(4) 14_544 13_444
O3 Mg2 Ba1 44.701(18) 27_445 13_444
O3 Mg2 Ba1 135.299(18) 15_554 13_444
O3 Mg2 Ba1 44.701(18) 25 13_444
O3 Mg2 Ba1 135.299(18) 13_444 13_444
Ba1 Mg2 Ba1 102.854(18) 7_444 13_444
Ba1 Mg2 Ba1 77.146(18) 13_554 13_444
Ba1 Mg2 Ba1 180.0 7_554 13_444
O3 Mg2 Ba1 135.299(18) 26_455 7_454
O3 Mg2 Ba1 44.701(18) 14_544 7_454
O3 Mg2 Ba1 81.92(4) 27_445 7_454
O3 Mg2 Ba1 98.08(4) 15_554 7_454
O3 Mg2 Ba1 135.299(18) 25 7_454
O3 Mg2 Ba1 44.701(18) 13_444 7_454
Ba1 Mg2 Ba1 77.146(18) 7_444 7_454
Ba1 Mg2 Ba1 102.854(19) 13_554 7_454
Ba1 Mg2 Ba1 77.146(18) 7_554 7_454
Ba1 Mg2 Ba1 102.854(18) 13_444 7_454
O3 Mg2 Ba1 44.701(18) 26_455 13_544
O3 Mg2 Ba1 135.299(18) 14_544 13_544
O3 Mg2 Ba1 98.08(4) 27_445 13_544
O3 Mg2 Ba1 81.92(4) 15_554 13_544
O3 Mg2 Ba1 44.701(18) 25 13_544
O3 Mg2 Ba1 135.299(18) 13_444 13_544
Ba1 Mg2 Ba1 102.854(19) 7_444 13_544
Ba1 Mg2 Ba1 77.146(18) 13_554 13_544
Ba1 Mg2 Ba1 102.854(18) 7_554 13_544
Ba1 Mg2 Ba1 77.146(18) 13_444 13_544
Ba1 Mg2 Ba1 180.0 7_454 13_544
C4 O3 Mg2 139.67(11) 1_665 7
C4 O3 Ba1 94.67(5) 1_665 13_554
Mg2 O3 Ba1 105.75(3) 7 13_554
C4 O3 Ba1 94.67(5) 1_665 13_654
Mg2 O3 Ba1 105.75(3) 7 13_654
Ba1 O3 Ba1 117.10(5) 13_554 13_654
O3 C4 O3 119.834(14) 1_445 2_655
O3 C4 O3 119.831(13) 1_445 3_565
O3 C4 O3 119.831(14) 2_655 3_565
O3 C4 Ba1 62.71(4) 1_445 13_444
O3 C4 Ba1 149.09(11) 2_655 13_444
O3 C4 Ba1 62.71(4) 3_565 13_444
O3 C4 Ba1 149.09(11) 1_445 13_554
O3 C4 Ba1 62.71(4) 2_655 13_554
O3 C4 Ba1 62.71(4) 3_565 13_554
Ba1 C4 Ba1 99.05(3) 13_444 13_554
O3 C4 Ba1 62.71(4) 1_445 13_544
O3 C4 Ba1 62.71(4) 2_655 13_544
O3 C4 Ba1 149.09(11) 3_565 13_544
Ba1 C4 Ba1 99.05(3) 13_444 13_544
Ba1 C4 Ba1 99.05(3) 13_554 13_544
loop_
_geom_bond_atom_site_label_1
_geom_bond_atom_site_label_2
_geom_bond_distance
_geom_bond_site_symmetry_2
Ba1 O3 2.9454(8) 31
Ba1 O3 2.9454(8) 7_445
Ba1 O3 2.9454(8) 32_455
Ba1 O3 2.9454(8) 8_545
Ba1 O3 2.9455(8) 33_435
Ba1 O3 2.9455(8) 9_565
Ba1 O3 2.9455(8) 33_545
Ba1 O3 2.9455(8) 9_455
Ba1 O3 2.9455(8) 32_445
Ba1 O3 2.9455(8) 8
Ba1 O3 2.9455(8) 7_345
Ba1 O3 2.9455(8) 31_655
Mg2 O3 2.0649(11) 26_455
Mg2 O3 2.0649(11) 14_544
Mg2 O3 2.0649(11) 27_445
Mg2 O3 2.0649(11) 15_554
Mg2 O3 2.0649(11) 25
Mg2 O3 2.0649(11) 13_444
Mg2 Ba1 4.0301(8) 7_444
Mg2 Ba1 4.0301(8) 13_554
Mg2 Ba1 4.0301(8) 7_554
Mg2 Ba1 4.0301(8) 13_444
Mg2 Ba1 4.0301(8) 7_454
Mg2 Ba1 4.0301(8) 13_544
O3 C4 1.2748(11) 1_665
O3 Mg2 2.0649(11) 7
O3 Ba1 2.9454(8) 13_554
O3 Ba1 2.9455(8) 13_654
C4 O3 1.2748(11) 1_445
C4 O3 1.2748(11) 2_655
C4 O3 1.2748(11) 3_565
C4 Ba1 3.3033(10) 13_444
C4 Ba1 3.3033(10) 13_554
C4 Ba1 3.3034(10) 13_544
