#------------------------------------------------------------------------------
#$Date: 2019-12-26 21:24:38 +0200 (Thu, 26 Dec 2019) $
#$Revision: 246104 $
#$URL: file:///home/coder/svn-repositories/cod/cif/2/31/17/2311785.cif $
#------------------------------------------------------------------------------
#
# This file is available in the Crystallography Open Database (COD),
# http://www.crystallography.net/. The original data for this entry
# were provided by IUCr Journals, http://journals.iucr.org/.
#
# The file may be used within the scientific community so long as
# proper attribution is given to the journal article from which the
# data were obtained.
#
data_2311785
loop_
_publ_author_name
'Fulle, Kyle'
'Sanjeewa, Liurukara D.'
'McMillen, Colin D.'
'Kolis, Joseph W.'
_publ_section_title
;
 Crystal chemistry and the role of ionic radius in rare earth
 tetrasilicates:
 Ba<sub>2</sub>RE<sub>2</sub>Si<sub>4</sub>O<sub>12</sub>F<sub>2</sub> (RE
 = Er<sup>3+</sup>-Lu<sup>3+</sup>) and
 Ba<sub>2</sub>RE<sub>2</sub>Si<sub>4</sub>O<sub>13</sub> (RE =
 La<sup>3+</sup>-Ho<sup>3+</sup>).
;
_journal_issue                   'Pt 5'
_journal_name_full
'Acta crystallographica Section B, Structural science, crystal engineering and materials'
_journal_page_first              907
_journal_page_last               915
_journal_paper_doi               10.1107/S2052520617009544
_journal_volume                  73
_journal_year                    2017
_chemical_formula_sum            'Ba2 F2 O12 Si4 Tm2'
_chemical_formula_weight         954.90
_space_group_crystal_system      triclinic
_space_group_IT_number           2
_space_group_name_Hall           '-P 1'
_space_group_name_H-M_alt        'P -1'
_atom_sites_solution_primary     direct
_atom_sites_solution_secondary   difmap
_audit_creation_method           SHELXL-2014/7
_cell_angle_alpha                107.809(2)
_cell_angle_beta                 101.987(2)
_cell_angle_gamma                92.866(2)
_cell_formula_units_Z            1
_cell_length_a                   5.4609(4)
_cell_length_b                   7.1258(5)
_cell_length_c                   8.9379(7)
_cell_measurement_reflns_used    7901
_cell_measurement_temperature    300(2)
_cell_measurement_theta_max      33.22
_cell_measurement_theta_min      2.46
_cell_volume                     321.50(4)
_computing_cell_refinement       'Bruker SAINT'
_computing_data_collection       'Bruker APEX3'
_computing_data_reduction        'Bruker SAINT'
_computing_molecular_graphics    'DIAMOND (Bradenburg, 1999)'
_computing_publication_material  'Bruker SHELXTL'
_computing_structure_refinement  'SHELXL-2014/7 (Sheldrick, 2014)'
_computing_structure_solution    'SHELXT-2014 (Sheldrick 2014)'
_diffrn_ambient_temperature      300(2)
_diffrn_measured_fraction_theta_full 0.986
_diffrn_measured_fraction_theta_max 0.904
_diffrn_measurement_device_type  'Bruker Photon 100'
_diffrn_measurement_method       '\f and \w scans'
_diffrn_radiation_type           MoK\a
_diffrn_radiation_wavelength     0.71073
_diffrn_reflns_av_R_equivalents  0.0378
_diffrn_reflns_av_unetI/netI     0.0333
_diffrn_reflns_Laue_measured_fraction_full 0.986
_diffrn_reflns_Laue_measured_fraction_max 0.904
_diffrn_reflns_limit_h_max       8
_diffrn_reflns_limit_h_min       -8
_diffrn_reflns_limit_k_max       10
_diffrn_reflns_limit_k_min       -7
_diffrn_reflns_limit_l_max       13
_diffrn_reflns_limit_l_min       -13
_diffrn_reflns_number            8263
_diffrn_reflns_point_group_measured_fraction_full 0.986
_diffrn_reflns_point_group_measured_fraction_max 0.904
_diffrn_reflns_theta_full        25.242
_diffrn_reflns_theta_max         33.221
_diffrn_reflns_theta_min         2.462
_diffrn_source                   Ius
_exptl_absorpt_coefficient_mu    20.166
_exptl_absorpt_correction_T_max  1.0000
_exptl_absorpt_correction_T_min  0.8387
_exptl_absorpt_correction_type   multi-scan
_exptl_absorpt_process_details   'SADABS, Bruker'
_exptl_crystal_colour            green
_exptl_crystal_density_diffrn    4.932
_exptl_crystal_description       block
_exptl_crystal_F_000             420
_exptl_crystal_size_max          0.134
_exptl_crystal_size_mid          0.121
_exptl_crystal_size_min          0.099
_refine_diff_density_max         1.927
_refine_diff_density_min         -2.821
_refine_diff_density_rms         0.357
_refine_ls_extinction_coef       0.102(2)
_refine_ls_extinction_expression Fc^*^=kFc[1+0.001xFc^2^\l^3^/sin(2\q)]^-1/4^
_refine_ls_extinction_method     'SHELXL-2014/7 (Sheldrick 2014'
_refine_ls_goodness_of_fit_ref   1.141
_refine_ls_hydrogen_treatment    undef
_refine_ls_matrix_type           full
_refine_ls_number_parameters     101
_refine_ls_number_reflns         2236
_refine_ls_number_restraints     0
_refine_ls_restrained_S_all      1.141
_refine_ls_R_factor_all          0.0228
_refine_ls_R_factor_gt           0.0224
_refine_ls_shift/su_max          0.001
_refine_ls_shift/su_mean         0.000
_refine_ls_structure_factor_coef Fsqd
_refine_ls_weighting_details
'w=1/[\s^2^(Fo^2^)+(0.0266P)^2^+1.9341P] where P=(Fo^2^+2Fc^2^)/3'
_refine_ls_weighting_scheme      calc
_refine_ls_wR_factor_gt          0.0623
_refine_ls_wR_factor_ref         0.0625
_reflns_Friedel_coverage         0.000
_reflns_number_gt                2210
_reflns_number_total             2236
_reflns_threshold_expression     'I > 2\s(I)'
_cod_data_source_file            rm5005sup1.cif
_cod_data_source_block           Tm
_cod_database_code               2311785
_shelx_shelxl_version_number     2014/7
_shelx_space_group_comment
;
The symmetry employed for this shelxl refinement is uniquely defined
by the following loop, which should always be used as a source of
symmetry information in preference to the above space-group names.
They are only intended as comments.
;
_shelx_estimated_absorpt_t_min   0.173
_shelx_estimated_absorpt_t_max   0.240
_shelx_res_file
;

    KF637b.res created by SHELXL-2014/7


TITL KF637b in P-1
CELL 0.71073   5.46090   7.12580   8.93790 107.8093 101.9868  92.8661
ZERR    1.00   0.00040   0.00050   0.00070   0.0020   0.0021   0.0020
LATT  1
SFAC O F SI BA TM
UNIT 12 2 4 2 2
TEMP 23.070
SIZE 0.099 0.121 0.134

L.S. 4
BOND
FMAP 2
PLAN 20
acta
WGHT    0.026600    1.934100
EXTI    0.102196
FVAR       0.21888
BA1   4    0.759056    0.257212    0.044886    11.00000    0.00833    0.00515 =
         0.00576   -0.00003    0.00147    0.00107
TM1   5    0.162548    0.149250    0.701003    11.00000    0.00333    0.00337 =
         0.00275   -0.00006    0.00119   -0.00008
SI1   3    0.384151    0.177439    0.369023    11.00000    0.00325    0.00263 =
         0.00221   -0.00001    0.00084    0.00005
SI2   3    0.677479    0.441185    0.710414    11.00000    0.00226    0.00253 =
         0.00358    0.00024    0.00021    0.00002
O1    1    0.612311    0.310781    0.518609    11.00000    0.00856    0.00791 =
         0.00475   -0.00067   -0.00007   -0.00174
O2    1    0.167101    0.088993    0.437531    11.00000    0.00817    0.00772 =
         0.00548    0.00175    0.00290   -0.00342
O3    1    0.253974    0.325791    0.275252    11.00000    0.01028    0.00206 =
         0.00699    0.00234   -0.00285   -0.00196
O4    1    0.505360    0.015205    0.248628    11.00000    0.00830    0.00871 =
         0.00577   -0.00247    0.00204    0.00547
O5    1    0.445624    0.417506    0.791415    11.00000    0.00532    0.00781 =
         0.01284    0.00017    0.00696   -0.00138
O6    1    0.929489    0.379637    0.803326    11.00000    0.00486    0.00592 =
         0.00699    0.00153   -0.00012    0.00261
F1    2    0.151607    0.098072    0.927448    11.00000    0.02874    0.02044 =
         0.01400    0.01260    0.01572    0.01633
HKLF 4

REM  KF637b in P-1
REM R1 =  0.0224 for    2210 Fo > 4sig(Fo)  and  0.0228 for all    2236 data
REM    101 parameters refined using      0 restraints

END

WGHT      0.0267      0.9052

REM Highest difference peak  1.927,  deepest hole -2.821,  1-sigma level  0.357
Q1    1   0.9171  0.4434  0.5460  11.00000  0.05    1.93
Q2    1   0.5715  0.0440  0.3579  11.00000  0.05    1.80
Q3    1   0.3446  0.3635  0.3848  11.00000  0.05    1.63
Q4    1   0.3226  0.3302  0.2035  11.00000  0.05    1.59
Q5    1   0.8399  0.3532  0.1842  11.00000  0.05    1.55
Q6    1   0.2504  0.0566  0.6552  11.00000  0.05    1.22
Q7    1   0.3752  0.0024  0.9605  11.00000  0.05    1.19
Q8    1   0.6617  0.1203  0.0608  11.00000  0.05    1.19
Q9    1   0.5024  0.5605  0.8981  11.00000  0.05    1.18
Q10   1   0.1169  0.0730  0.5781  11.00000  0.05    1.17
Q11   1   0.8692  0.1588 -0.0041  11.00000  0.05    1.16
Q12   1   0.0445  0.2347  0.7504  11.00000  0.05    1.14
Q13   1   0.7190  0.1049 -0.0548  11.00000  0.05    1.10
Q14   1   0.0536  0.0027  0.7183  11.00000  0.05    1.07
Q15   1   1.0113  0.4938  0.6751  11.00000  0.05    1.06
Q16   1   0.2657  0.2292  0.8449  11.00000  0.05    1.04
Q17   1   0.5992  0.1931  0.0686  11.00000  0.05    1.00
Q18   1   0.7782  0.0665  0.0183  11.00000  0.05    0.99
Q19   1   0.3125  0.0283  0.1705  11.00000  0.05    0.95
Q20   1   0.3917  0.1042  0.1386  11.00000  0.05    0.95
;
_shelx_res_checksum              4974
_shelx_hkl_file
;
  -1   0   0   48.79    2.55
  -1   0   0   48.46    2.54
  -1   0   0   50.19    2.55
  -1   0   0   44.40    2.55
   1   0   0   52.04    2.55
   1   0   0   51.52    2.55
   1   0   0   44.97    2.55
   1   0   0   50.87    2.55
  -2   0   0  454.49   23.96
  -2   0   0  464.26   23.95
   2   0   0  493.35   23.95
  -3   0   0  388.29   20.21
  -3   0   0  375.54   20.23
  -3   0   0  381.34   20.19
   3   0   0  409.43   20.20
   3   0   0  407.84   20.21
   3   0   0  379.28   20.22
   3   0   0  423.37   20.22
  -4   0   0    5.03    0.61
  -4   0   0    5.04    0.54
  -4   0   0    5.06    0.58
   4   0   0    5.28    0.60
   4   0   0    5.10    0.55
   4   0   0    5.64    0.56
   4   0   0    5.30    0.58
  -5   0   0   85.63    4.96
  -5   0   0   95.55    4.93
   5   0   0   95.23    4.93
   5   0   0   79.90    4.86
   5   0   0   91.55    4.92
   5   0   0   85.39    4.96
  -6   0   0   43.28    2.66
  -6   0   0   41.34    2.71
   6   0   0   41.01    2.61
   6   0   0   42.18    2.66
  -7   0   0   17.78    1.55
  -7   0   0   15.78    1.66
  -7   0   0   17.32    1.61
   7   0   0   18.13    1.56
   7   0   0   16.02    1.61
  -8   0   0    7.35    1.21
  -8   1   0  154.76    8.62
   7  -1   0  314.92   15.77
  -7   1   0  285.20   15.83
  -7   1   0  296.24   15.96
  -7   1   0  305.58   15.84
   6  -1   0   28.47    1.88
   6  -1   0   27.66    1.88
  -6   1   0   26.45    2.01
  -6   1   0   29.05    1.94
   5  -1   0  274.14   13.88
   5  -1   0  251.28   13.85
   5  -1   0  280.15   13.88
  -5   1   0  257.86   13.89
  -5   1   0  263.33   14.00
  -5   1   0  276.15   14.10
   4  -1   0  365.38   18.35
   4  -1   0  349.62   18.34
   4  -1   0  371.01   18.36
   4  -1   0  358.56   18.44
  -4   1   0  377.40   18.43
  -4   1   0  345.52   18.36
  -4   1   0  334.50   18.43
   3  -1   0   10.25    0.71
   3  -1   0    9.23    0.75
   3  -1   0   10.30    0.71
   3  -1   0   10.83    0.72
  -3   1   0   10.58    0.70
  -3   1   0   10.81    0.72
  -3   1   0    9.37    0.74
   2  -1   0  113.63    6.00
   2  -1   0  111.18    6.00
   2  -1   0  121.77    6.01
  -2   1   0  120.51    6.00
  -2   1   0  107.43    6.04
  -2   1   0  116.19    6.01
  -2   1   0  123.14    6.04
   1  -1   0  125.38    6.06
   1  -1   0  121.29    6.05
   1  -1   0  122.77    6.10
  -1   1   0  112.71    6.07
  -1   1   0  116.99    6.06
  -1   1   0  117.59    6.07
  -1   1   0  114.49    6.09
  -1  -1   0   50.12    2.61
  -1  -1   0   51.50    2.58
  -1  -1   0   53.35    2.61
  -1  -1   0   43.51    2.59
   1   1   0   54.49    2.62
   1   1   0   51.30    2.61
   1   1   0   47.99    2.67
   1   1   0   46.66    2.59
  -2  -1   0  266.86   13.80
  -2  -1   0  259.99   13.81
  -2  -1   0  262.63   13.80
   2   1   0  291.62   13.83
   2   1   0  266.34   13.80
   2   1   0  259.32   13.80
   2   1   0  282.43   13.87
  -3  -1   0  660.39   35.46
  -3  -1   0  677.92   35.45
  -3  -1   0  663.84   35.44
   3   1   0  716.39   35.46
   3   1   0  764.24   35.49
  -4  -1   0   27.74    1.64
  -4  -1   0   25.01    1.64
  -4  -1   0   24.30    1.64
   4   1   0   26.05    1.64
   4   1   0   24.88    1.63
   4   1   0   26.55    1.69
   4   1   0   25.59    1.63
  -5  -1   0  606.67   31.92
  -5  -1   0  584.17   31.85
   5   1   0  626.76   31.96
   5   1   0  626.38   31.91
   5   1   0  666.41   31.95
  -6  -1   0  164.97    8.90
  -6  -1   0  163.65    8.93
   6   1   0  170.33    8.99
   6   1   0  161.09    8.90
  -7  -1   0   75.61    4.18
  -7  -1   0   66.00    4.27
  -7  -1   0   70.82    4.26
   7   1   0   68.60    4.25
   7   1   0   70.85    4.36
   8  -2   0   11.04    1.53
   7  -2   0   94.82    5.11
  -7   2   0   91.78    5.27
  -7   2   0   87.85    5.23
  -7   2   0   87.00    5.36
   6  -2   0   73.35    4.24
   6  -2   0   75.89    4.27
  -6   2   0   78.40    4.50
  -6   2   0   74.67    4.34
  -6   2   0   77.45    4.43
   5  -2   0  524.59   27.41
   5  -2   0  526.85   27.44
   5  -2   0  535.20   27.42
  -5   2   0  554.08   27.59
  -5   2   0  552.58   27.51
  -5   2   0  523.86   27.59
   4  -2   0  335.29   17.32
   4  -2   0  329.35   17.46
   4  -2   0  343.24   17.33
   4  -2   0  313.02   17.33
  -4   2   0  360.99   17.45
  -4   2   0  352.83   17.31
  -4   2   0  328.73   17.37
  -4   2   0  339.90   17.47
   3  -2   0  118.62    6.13
   3  -2   0  122.48    6.14
   3  -2   0  108.39    6.14
   3  -2   0  117.88    6.25
  -3   2   0  124.04    6.22
  -3   2   0  114.45    6.16
  -3   2   0  123.94    6.13
  -3   2   0  113.46    6.23
   0   2   0  300.61   15.31
  -2  -2   0    2.65    0.29
  -2  -2   0    3.27    0.27
  -2  -2   0    2.78    0.30
   2   2   0    3.62    0.34
   2   2   0    2.83    0.37
   2   2   0    2.98    0.29
   2   2   0    2.68    0.31
  -3  -2   0    3.03    0.39
  -3  -2   0    4.07    0.42
  -3  -2   0    3.29    0.41
  -3  -2   0    4.31    0.38
   3   2   0    3.90    0.44
   3   2   0    3.43    0.43
   3   2   0    4.32    0.44
   3   2   0    3.95    0.51
  -4  -2   0   34.26    1.94
  -4  -2   0   33.62    1.84
  -4  -2   0   27.45    1.89
  -4  -2   0   30.72    1.92
   4   2   0   27.46    1.91
   4   2   0   32.80    1.93
   4   2   0   31.43    2.05
   4   2   0   30.79    1.95
  -5  -2   0   69.55    4.18
  -5  -2   0   79.12    4.11
  -5  -2   0   77.25    4.21
   5   2   0   71.04    4.32
   5   2   0   71.95    4.20
   5   2   0   74.96    4.28
  -6  -2   0   53.12    3.08
  -6  -2   0   52.59    3.14
  -6  -2   0   47.49    3.12
   6   2   0   43.92    3.47
   6   2   0   54.85    3.23
  -7  -2   0   56.65    3.52
  -7  -2   0   50.05    3.46
  -7  -2   0   58.58    3.54
   7   2   0   51.99    3.57
   7   2   0   56.84    3.77
   7  -3   0  166.72    8.68
  -7   3   0  160.77    9.05
  -7   3   0  165.68    9.00
  -7   3   0  157.23    8.87
   6  -3   0  149.64    8.85
   6  -3   0  169.21    8.89
  -6   3   0  171.76    9.15
  -6   3   0  171.24    9.20
  -6   3   0  181.70    9.08
   5  -3   0    2.46    0.49
   5  -3   0    3.36    0.48
  -5   3   0    4.54    0.60
  -5   3   0    3.90    0.63
  -5   3   0    3.89    0.77
  -5   3   0    2.54    0.58
   4  -3   0    7.86    0.77
   4  -3   0    6.23    0.55
  -4   3   0    7.52    0.57
  -4   3   0    6.76    0.74
  -4   3   0    7.31    0.71
  -4   3   0    7.01    0.71
   3  -3   0   10.92    0.67
   3  -3   0   11.08    0.68
   3  -3   0   10.49    0.83
  -3   3   0   11.12    0.88
  -3   3   0    9.80    0.80
  -3   3   0   11.56    0.75
  -3   3   0   11.08    0.89
   2  -3   0  337.39   16.78
  -2   3   0  344.68   16.79
  -2   3   0  326.41   16.78
  -2   3   0  312.63   16.68
  -2   3   0  321.61   16.84
  -2   3   0  323.98   16.70
   1  -3   0  161.74    7.94
  -1   3   0  148.54    8.00
  -1   3   0  151.03    7.85
  -1   3   0  146.19    7.85
  -1   3   0  164.17    7.94
   0  -3   0  241.52   12.20
   0   3   0  226.16   12.22
   0   3   0  247.16   12.13
  -2  -3   0    8.07    0.56
  -2  -3   0    6.56    0.50
  -2  -3   0    7.71    0.53
  -2  -3   0    6.90    0.53
   2   3   0    7.28    0.58
   2   3   0    7.58    0.71
   2   3   0    7.34    0.56
   2   3   0    7.36    0.52
  -3  -3   0  508.30   26.49
  -3  -3   0  531.18   26.48
  -3  -3   0  524.04   26.47
  -3  -3   0  536.84   26.41
   3   3   0  492.02   26.50
   3   3   0  527.30   26.46
   3   3   0  496.16   26.53
   3   3   0  534.67   26.74
  -4  -3   0  569.66   29.52
  -4  -3   0  567.76   29.51
  -4  -3   0  552.38   29.48
  -4  -3   0  608.15   29.42
   4   3   0  589.74   29.50
   4   3   0  590.40   29.60
   4   3   0  566.05   29.75
   4   3   0  571.16   29.55
  -5  -3   0  140.44    7.96
  -5  -3   0  165.80    7.90
   5   3   0  143.95    8.06
   5   3   0  150.81    7.99
   5   3   0  143.33    8.25
  -6  -3   0  242.10   12.99
  -6  -3   0  240.02   12.96
   6   3   0  250.20   13.13
   6   3   0  250.18   13.32
  -7  -3   0   14.15    1.62
  -7  -3   0   12.83    1.63
   7   3   0   13.17    2.06
  -7   4   0  100.53    5.88
  -7   4   0   99.30    5.72
  -7   4   0  100.11    5.94
   6  -4   0  381.03   19.18
  -6   4   0  371.96   19.41
  -6   4   0  358.67   19.55
  -6   4   0  382.14   19.59
   5  -4   0    5.04    0.52
  -5   4   0    5.71    0.68
  -5   4   0    3.94    0.73
  -5   4   0    3.72    0.70
   4  -4   0  755.46   39.36
   4  -4   0  793.80   39.69
  -4   4   0  815.51   39.64
  -4   4   0  730.09   39.54
  -4   4   0  816.04   39.78
  -4   4   0  737.29   39.66
  -4   4   0  788.35   39.46
   3  -4   0   90.33    4.75
  -3   4   0   86.59    4.62
  -3   4   0   83.99    4.67
  -3   4   0   92.08    4.84
  -3   4   0   83.66    4.70
  -3   4   0   87.71    4.74
  -2   4   0  126.01    6.52
  -2   4   0  122.07    6.40
  -2   4   0  122.99    6.32
  -2   4   0  117.56    6.29
  -1   4   0  322.15   16.76
  -1   4   0  320.74   16.76
  -1   4   0  326.71   16.97
  -1   4   0  351.70   16.86
   0  -4   0   41.26    2.37
   0   4   0   43.07    2.30
   0   4   0   44.92    2.26
   0   4   0   41.49    2.42
   0   4   0   44.95    2.27
   1   4   0    1.18    0.24
   1   4   0    1.32    0.26
   1   4   0    1.25    0.21
  -2  -4   0    1.30    0.25
  -2  -4   0    1.66    0.25
   2   4   0    1.89    0.45
   2   4   0    1.90    0.25
   2   4   0    1.64    0.31
   2   4   0    1.55    0.31
  -3  -4   0  248.21   12.93
  -3  -4   0  248.99   12.95
  -3  -4   0  247.45   12.87
   3   4   0  249.90   13.29
   3   4   0  239.44   13.00
   3   4   0  278.93   12.93
   3   4   0  244.27   13.05
  -4  -4   0   79.01    4.14
  -4  -4   0   71.83    4.10
  -4  -4   0   73.67    4.11
  -4  -4   0   76.45    4.01
   4   4   0   74.28    4.24
   4   4   0   73.82    4.09
   4   4   0   72.53    4.46
  -5  -4   0   63.36    3.63
  -5  -4   0   67.13    3.67
   5   4   0   60.30    3.76
   5   4   0   60.52    3.62
   5   4   0   62.26    4.01
  -6  -4   0  204.26   10.69
  -6  -4   0  198.16   10.66
   6   4   0  196.65   11.13
   6   4   0  199.72   10.87
  -7   5   0   11.60    1.51
  -5   5   0   18.42    1.57
  -5   5   0   19.19    1.41
  -5   5   0   20.83    1.57
   4  -5   0  112.95    6.19
  -4   5   0  114.90    6.13
  -4   5   0  113.60    6.18
  -4   5   0  112.99    6.04
  -4   5   0  108.18    6.00
  -4   5   0  118.47    6.30
   3  -5   0  217.19   11.01
  -3   5   0  209.56   10.88
  -3   5   0  210.75   11.01
  -3   5   0  215.09   11.14
  -3   5   0  193.07   10.90
  -3   5   0  219.87   11.05
  -2   5   0   40.06    2.20
  -2   5   0   42.95    2.33
  -2   5   0   40.65    2.44
  -2   5   0   39.89    2.23
  -1   5   0  848.17   43.22
   0   5   0    4.80    0.35
   0   5   0    4.33    0.34
   0   5   0    4.60    0.40
  -1  -5   0  555.33   29.59
   1   5   0  552.69   29.65
   1   5   0  600.37   29.59
   1   5   0  617.98   29.64
  -2  -5   0  303.36   16.17
   2   5   0  320.41   16.11
   2   5   0  323.23   16.65
   2   5   0  326.75   16.32
   2   5   0  309.47   16.25
  -3  -5   0   63.71    3.35
  -3  -5   0   65.51    3.41
   3   5   0   61.44    3.57
   3   5   0   58.53    3.51
   3   5   0   61.13    3.86
   3   5   0   65.06    3.36
  -4  -5   0  196.47   10.70
  -4  -5   0  211.38   10.58
  -4  -5   0  216.91   10.75
   4   5   0  207.48   10.67
   4   5   0  196.97   10.90
   4   5   0  203.06   11.25
  -5  -5   0   60.53    3.47
   5   5   0   51.59    3.43
   5   5   0   51.48    3.75
  -6  -5   0    4.56    0.89
   6   5   0    6.55    1.49
   6   5   0    4.23    1.14
  -7   6   0    1.17    0.87
  -6   6   0  265.95   14.44
  -6   6   0  268.82   14.22
  -6   6   0  276.32   14.54
  -5   6   0  133.02    7.24
  -5   6   0  122.60    6.89
  -5   6   0  128.62    7.09
  -4   6   0   84.63    4.59
  -4   6   0   77.95    4.41
  -4   6   0   77.21    4.24
  -4   6   0   76.05    4.30
  -4   6   0   72.42    4.33
  -3   6   0  173.77    8.66
  -3   6   0  146.47    8.40
  -3   6   0  162.73    8.51
  -3   6   0  157.60    8.36
  -3   6   0  164.73    8.69
  -2   6   0   45.13    2.69
  -2   6   0   43.48    2.42
  -2   6   0   43.08    2.40
  -2   6   0   44.93    2.51
  -1   6   0    0.98    0.21
  -1   6   0    0.70    0.30
   0   6   0    5.01    0.40
   0   6   0    4.21    0.45
   0   6   0    3.99    0.55
   1   6   0   55.01    3.07
   1   6   0   56.92    3.13
   1   6   0   54.54    3.18
   1   6   0   60.51    3.53
  -2  -6   0  312.80   15.77
   2   6   0  311.53   15.95
   2   6   0  300.20   15.85
   3   6   0   37.33    2.28
   3   6   0   32.59    2.55
  -4  -6   0  497.95   23.59
   4   6   0  433.73   23.87
   4   6   0  450.48   24.31
   5   6   0   13.06    2.00
   5   6   0   13.80    1.58
  -6   7   0  189.49   10.44
  -6   7   0  190.35   10.19
  -5   7   0  104.20    5.92
  -5   7   0   97.77    5.71
  -5   7   0   98.51    5.53
  -4   7   0   85.19    4.92
  -4   7   0   81.25    4.75
  -4   7   0   82.50    4.55
  -3   7   0  339.71   19.16
  -3   7   0  393.35   19.55
  -3   7   0  395.06   19.31
  -3   7   0  366.78   19.14
  -2   7   0   37.83    2.15
  -2   7   0   36.98    2.43
  -2   7   0   37.98    2.21
  -1   7   0  319.98   16.19
  -1   7   0  312.38   15.85
  -1   7   0  285.25   15.86
  -1   7   0  322.93   15.88
   0   7   0  384.33   19.17
   0   7   0  372.14   19.41
   0   7   0  369.95   19.22
   1   7   0   90.61    4.72
   1   7   0   82.59    5.14
   1   7   0   84.21    4.74
   1   7   0   89.26    4.64
   2   7   0  149.65    8.23
   2   7   0  158.62    8.82
   2   7   0  160.64    8.33
   3   7   0   18.31    1.93
   3   7   0   18.51    1.51
   4   7   0    2.51    0.74
   4   7   0    2.85    1.12
  -5   8   0   99.66    6.03
  -5   8   0   99.58    5.80
  -4   8   0    1.79    0.77
  -4   8   0    3.18    0.71
  -3   8   0   18.54    1.65
  -3   8   0   17.39    1.39
  -3   8   0   17.82    1.29
  -2   8   0    2.34    0.49
  -2   8   0    3.76    0.77
  -2   8   0    2.69    0.52
  -1   8   0  183.24    9.41
  -1   8   0  158.01    9.48
  -1   8   0  164.94    9.02
  -1   8   0  189.73    9.00
   0   8   0   91.23    4.81
   0   8   0   82.57    4.57
   0   8   0   80.14    5.08
   1   8   0    2.11    0.78
   1   8   0    1.95    0.53
   1   8   0    2.79    0.50
   2   8   0  239.56   13.13
   2   8   0  237.60   12.54
   3   8   0  161.59    9.49
   3   8   0  165.02    8.87
   4   8   0  180.29    9.89
  -4   9   0    8.89    1.67
  -3   9   0  197.42   10.82
  -2   9   0  112.01    6.48
  -1   9   0   18.95    1.97
  -1   9   0   26.18    1.92
   0   9   0   69.89    4.66
   0   9   0   75.71    4.28
   1   9   0   13.30    1.85
  -3  10   0   35.55    3.31
  -2  10   0  267.04   14.49
  -1  10   0   11.37    1.87
   0  10   0  231.46   13.32
   0  10  -1   31.21    2.81
  -1  10  -1    5.78    1.30
  -2  10  -1   32.62    2.64
  -3  10  -1   20.02    2.19
   2   9  -1  166.29    9.64
   1   9  -1  127.30    7.52
   0   9  -1   73.99    4.09
   0   9  -1   66.86    4.48
  -1   9  -1  407.31   24.70
  -1   9  -1  541.16   24.66
  -2   9  -1    9.34    1.36
  -2   9  -1   13.49    1.40
  -3   9  -1  258.87   13.68
  -3   9  -1  249.97   13.57
  -4   9  -1  118.72    6.36
  -4   9  -1  104.65    6.55
  -5   9  -1    4.86    1.17
   4   8  -1  117.51    6.69
   3   8  -1  162.79    9.53
   3   8  -1  169.04    8.97
   2   8  -1    1.49    0.81
   2   8  -1    2.19    0.54
   1   8  -1  133.88    6.84
   1   8  -1  119.39    6.49
   1   8  -1  118.10    6.48
   1   8  -1  117.35    7.04
   0   8  -1    2.82    0.58
   0   8  -1    2.59    0.43
   0   8  -1    2.01    0.67
   0   8  -1    1.75    0.35
   0   8  -1    1.94    0.37
   0   8  -1    2.45    0.39
  -1   8  -1   43.35    2.64
  -1   8  -1   44.65    2.38
  -1   8  -1   35.95    2.73
  -2   8  -1   39.12    2.15
  -2   8  -1   29.75    2.32
  -3   8  -1  164.87    8.84
  -3   8  -1  164.99    8.60
  -3   8  -1  153.15    8.37
  -4   8  -1  194.61   10.63
  -4   8  -1  194.48   10.42
  -5   8  -1   16.96    1.74
  -5   8  -1   17.54    1.88
   5   7  -1    1.15    0.84
   4   7  -1  258.16   13.69
   4   7  -1  258.65   14.23
   3   7  -1  182.66   10.41
   3   7  -1  189.83    9.92
   2   7  -1   98.16    5.29
   2   7  -1   99.09    5.23
   2   7  -1   94.07    5.74
   1   7  -1  528.37   26.45
   1   7  -1  582.15   26.41
   1   7  -1  506.19   26.52
   1   7  -1  487.54   26.48
   1   7  -1  490.96   27.03
   0   7  -1   36.87    2.53
   0   7  -1   38.13    2.09
   0   7  -1   36.46    2.04
   0   7  -1   39.05    2.31
   0   7  -1   37.70    2.08
  -1   7  -1  205.87   11.70
  -1   7  -1  233.41   11.41
  -1   7  -1  221.78   11.60
  -2   7  -1  360.66   17.45
  -2   7  -1  310.09   17.37
  -2   7  -1  368.93   17.26
  -2   7  -1  301.75   17.04
  -2   7  -1  330.28   17.03
  -3   7  -1    7.87    0.86
  -3   7  -1   10.33    1.16
  -3   7  -1    8.51    0.87
  -3   7  -1    9.32    1.03
  -3   7  -1    9.17    0.73
  -3   7  -1    8.50    0.89
  -4   7  -1   54.11    3.43
  -4   7  -1   56.10    3.16
  -4   7  -1   55.49    3.37
  -4   7  -1   58.45    3.56
  -5   7  -1    1.65    0.73
  -5   7  -1    1.59    0.65
  -5   7  -1    1.61    0.55
  -6   7  -1   49.47    3.42
  -6   7  -1   50.82    3.21
   5   6  -1   88.08    5.17
   5   6  -1   86.54    5.59
  -5  -6   1   89.32    4.94
   4   6  -1    6.31    0.92
  -4  -6   1    7.68    0.72
   3   6  -1    3.31    0.51
   3   6  -1    3.95    0.62
   3   6  -1    2.62    0.53
   3   6  -1    2.94    0.74
   2   6  -1   90.85    4.51
   2   6  -1   85.66    4.63
   2   6  -1   82.79    4.58
   2   6  -1   81.88    4.99
   1   6  -1   85.90    4.80
   1   6  -1   90.40    5.19
   1   6  -1   97.53    4.76
   1   6  -1   89.96    4.78
   1   6  -1   87.70    4.81
   0   6  -1   43.98    2.62
   0   6  -1   45.74    2.41
   0   6  -1   43.75    2.82
   0   6  -1   45.99    2.46
   0   6  -1   48.73    2.50
  -1   6  -1  142.79    7.38
  -1   6  -1  139.61    7.50
  -2   6  -1  413.46   23.53
  -2   6  -1  488.98   23.74
  -2   6  -1  487.35   23.88
  -3   6  -1   23.75    1.51
  -3   6  -1   20.59    1.37
  -3   6  -1   23.31    1.60
  -3   6  -1   18.46    1.26
  -3   6  -1   20.37    1.44
  -4   6  -1  379.79   20.11
  -4   6  -1  395.27   20.19
  -4   6  -1  383.94   19.95
  -4   6  -1  389.15   19.87
  -5   6  -1  209.51   11.30
  -5   6  -1  205.95   11.09
  -5   6  -1  218.29   11.42
  -6   6  -1  126.45    6.97
  -6   6  -1  125.58    7.23
  -6   6  -1  127.53    7.20
  -7   6  -1  215.30   11.60
   6   5  -1  199.28   11.47
   6   5  -1  201.64   11.10
  -6  -5   1  210.29   10.86
   5   5  -1  234.84   13.25
   5   5  -1  233.83   12.90
  -5  -5   1  260.04   12.74
   4   5  -1   17.04    1.29
   4   5  -1   17.76    1.41
   4   5  -1   17.48    1.66
  -4  -5   1   21.38    1.30
  -4  -5   1   17.13    1.24
   3   5  -1  731.04   36.79
   3   5  -1  722.01   36.38
   3   5  -1  696.01   36.41
  -3  -5   1  716.77   36.23
  -3  -5   1  699.46   36.24
   2   5  -1   65.79    3.50
   2   5  -1   64.86    3.52
   2   5  -1   65.11    3.56
   2   5  -1   64.09    3.85
   1   5  -1  355.47   19.41
   1   5  -1  370.69   19.38
   1   5  -1  388.68   19.75
   1   5  -1  374.23   19.40
   1   5  -1  413.39   19.43
   0   5  -1  188.55   10.31
   0   5  -1  206.56   10.50
   0   5  -1  202.34   10.23
  -1   5  -1   15.80    1.00
  -1   5  -1   16.01    1.09
  -2   5  -1   14.46    1.06
  -2   5  -1   12.42    0.82
  -2   5  -1   14.62    0.85
  -2   5  -1   14.75    0.98
  -3   5  -1   77.36    4.31
  -3   5  -1   77.79    4.11
  -3   5  -1   79.48    4.24
  -3   5  -1   76.19    4.05
  -3   5  -1   70.89    4.20
  -4   5  -1   63.15    3.65
  -4   5  -1   65.08    3.81
  -4   5  -1   65.69    3.58
  -4   5  -1   65.20    3.74
  -5   5  -1   39.26    2.65
  -5   5  -1   40.71    2.50
  -5   5  -1   44.58    2.76
  -6   5  -1   37.48    2.64
  -6   5  -1   36.89    2.62
  -6   5  -1   36.32    2.43
  -7   5  -1  225.85   12.13
   7   4  -1  146.65    9.12
  -7  -4   1  165.12    8.64
   6   4  -1    0.62    0.82
   6   4  -1    1.64    0.63
  -6  -4   1    2.40    0.67
  -6  -4   1    1.07    0.56
   5   4  -1   20.70    1.61
   5   4  -1   19.19    1.60
   5   4  -1   19.41    1.81
  -5  -4   1   21.25    1.32
  -5  -4   1   21.56    1.54
  -5  -4   1   21.80    1.53
  -5  -4   1   22.44    1.27
   4   4  -1    6.15    0.75
   4   4  -1    7.38    0.76
   4   4  -1    5.72    0.80
   4   4  -1    6.95    0.96
  -4  -4   1    6.45    0.70
  -4  -4   1    7.08    0.70
  -4  -4   1    7.10    0.52
   3   4  -1  261.91   13.34
   3   4  -1  263.29   13.60
   3   4  -1  255.36   13.29
  -3  -4   1  247.71   13.21
   2   4  -1  117.26    6.37
   2   4  -1  119.20    6.63
   2   4  -1  120.46    6.40
   2   4  -1  128.07    6.38
  -2  -4   1  125.42    6.29
  -2  -4   1  120.93    6.29
   1   4  -1  190.38    9.42
   1   4  -1  192.93    9.65
   1   4  -1  185.87    9.38
   1   4  -1  175.18    9.36
   1   4  -1  169.33    9.36
  -1   4  -1    1.42    0.22
  -1   4  -1    1.48    0.26
  -2   4  -1  856.60   43.28
  -2   4  -1  842.90   43.21
  -3   4  -1  178.55    9.61
  -3   4  -1  175.80    9.44
  -3   4  -1  186.43    9.61
   3  -4   1  192.01    9.60
  -4   4  -1  206.81   10.59
  -4   4  -1  201.02   10.65
  -4   4  -1  202.48   10.50
   4  -4   1  197.23   10.32
   4  -4   1  199.57   10.33
   4  -4   1  204.82   10.65
  -5   4  -1  185.35    9.52
  -5   4  -1  173.98    9.65
   5  -4   1  179.19    9.37
   5  -4   1  181.97    9.32
  -6   4  -1   71.40    4.21
  -6   4  -1   67.65    4.18
  -6   4  -1   68.11    4.02
   6  -4   1   68.27    3.78
  -7   4  -1   30.18    2.52
  -7   4  -1   30.39    2.42
  -7   4  -1   29.13    2.31
   7   3  -1  225.36   12.29
   7   3  -1  214.45   11.94
  -7  -3   1  210.34   11.54
  -7  -3   1  210.50   11.58
   6   3  -1   22.29    2.03
   6   3  -1   23.23    1.84
  -6  -3   1   22.81    1.78
  -6  -3   1   22.64    1.75
  -6  -3   1   24.22    1.52
   5   3  -1  393.01   18.85
   5   3  -1  345.49   19.04
   5   3  -1  349.79   18.85
  -5  -3   1  355.50   18.81
  -5  -3   1  382.86   18.62
  -5  -3   1  350.37   18.78
   4   3  -1  199.12    9.15
   4   3  -1  163.13    9.11
   4   3  -1  170.76    9.32
   4   3  -1  161.49    9.09
  -4  -3   1  167.41    9.06
  -4  -3   1  171.30    9.05
  -4  -3   1  182.71    8.93
  -4  -3   1  165.95    9.08
   3   3  -1  138.09    7.25
   3   3  -1  135.09    7.22
   3   3  -1  139.02    7.42
  -3  -3   1  140.53    7.07
  -3  -3   1  142.75    7.20
  -3  -3   1  139.63    7.17
  -3  -3   1  126.49    7.19
   2   3  -1  481.90   23.34
   2   3  -1  475.96   23.53
   2   3  -1  451.53   23.32
   2   3  -1  459.41   23.33
  -2  -3   1  435.67   23.26
  -2  -3   1  440.95   23.28
   1   3  -1    9.01    0.51
   1   3  -1    7.80    0.57
   1   3  -1    8.31    0.53
   1   3  -1    8.21    0.68
   0   3  -1   90.42    4.92
   0   3  -1   99.01    5.02
  -1   3  -1    2.33    0.25
  -2   3  -1  300.07   15.44
  -2   3  -1  294.77   15.44
  -2   3  -1  329.43   15.49
  -2   3  -1  310.17   15.57
   2  -3   1  281.98   15.63
  -3   3  -1  189.30    9.50
  -3   3  -1  179.10    9.43
  -3   3  -1  181.12    9.55
   3  -3   1  182.37    9.37
   3  -3   1  173.54    9.35
   3  -3   1  191.22    9.56
  -4   3  -1  104.73    5.63
  -4   3  -1  112.34    5.73
  -4   3  -1  103.49    5.75
   4  -3   1  105.12    5.56
   4  -3   1  101.12    5.61
   4  -3   1  107.97    5.76
  -5   3  -1  443.56   23.13
  -5   3  -1  461.77   23.51
   5  -3   1  459.08   23.03
   5  -3   1  434.80   23.01
  -6   3  -1   29.65    2.18
  -6   3  -1   30.01    2.06
   6  -3   1   28.35    1.95
   6  -3   1   32.85    1.93
  -7   3  -1  238.98   12.77
  -7   3  -1  231.67   12.93
  -7   3  -1  238.60   12.88
   7  -3   1  246.93   12.55
   7   2  -1    1.90    0.94
  -7  -2   1    2.12    0.69
  -7  -2   1    1.96    0.73
  -7  -2   1    2.79    0.68
   6   2  -1   14.72    1.35
  -6  -2   1   13.62    1.30
  -6  -2   1   15.73    1.32
  -6  -2   1   15.71    1.16
   5   2  -1  241.46   12.93
   5   2  -1  235.07   12.79
   5   2  -1  263.98   12.83
  -5  -2   1  237.79   12.74
  -5  -2   1  240.21   12.79
   4   2  -1  198.71   10.82
   4   2  -1  200.10   10.95
   4   2  -1  228.71   10.87
   4   2  -1  193.74   10.80
  -4  -2   1  198.25   10.82
  -4  -2   1  224.77   10.82
  -4  -2   1  205.18   10.81
   3   2  -1  329.63   17.36
   3   2  -1  344.21   17.51
   3   2  -1  353.25   17.50
   3   2  -1  340.45   17.38
  -3  -2   1  329.12   17.36
  -3  -2   1  339.98   17.34
  -3  -2   1  331.83   17.35
   1   2  -1    0.83    0.13
   1   2  -1    1.44    0.16
  -1  -2   1    0.84    0.11
  -2   2  -1  384.76   19.33
  -2   2  -1  355.34   19.40
  -2   2  -1  394.98   19.37
   2  -2   1  365.60   19.31
   2  -2   1  399.49   19.42
  -3   2  -1  454.98   22.49
  -3   2  -1  440.90   22.52
  -3   2  -1  424.37   22.56
   3  -2   1  444.61   22.45
   3  -2   1  438.43   22.45
  -4   2  -1    3.96    0.52
  -4   2  -1    3.07    0.43
   4  -2   1    4.03    0.44
   4  -2   1    3.21    0.52
   4  -2   1    3.70    0.43
  -5   2  -1    7.30    0.76
  -5   2  -1    6.37    0.82
   5  -2   1    6.61    0.74
   5  -2   1    7.46    0.70
   5  -2   1    8.47    0.69
  -6   2  -1    8.04    0.96
  -6   2  -1   10.40    1.11
   6  -2   1    8.21    0.85
   6  -2   1    9.13    0.92
  -7   2  -1   96.03    5.74
  -7   2  -1  101.47    5.94
   7  -2   1  104.16    5.61
   8  -2   1   67.39    4.16
   7   1  -1  389.64   20.61
   7   1  -1  398.12   20.52
  -7  -1   1  400.62   20.51
  -7  -1   1  389.37   20.34
  -7  -1   1  384.69   20.57
   6   1  -1  108.18    5.90
   6   1  -1  105.73    5.99
  -6  -1   1  107.44    5.78
  -6  -1   1  101.55    5.93
  -6  -1   1  107.05    5.88
   5   1  -1  143.32    7.84
   5   1  -1  152.38    7.78
   5   1  -1  148.46    7.81
  -5  -1   1  134.43    7.76
  -5  -1   1  144.92    7.74
   4   1  -1  109.67    5.93
   4   1  -1  110.36    5.92
   4   1  -1  111.88    5.96
   4   1  -1  110.21    6.00
  -4  -1   1  109.93    5.92
  -4  -1   1  106.24    5.95
  -4  -1   1  116.60    5.95
   3   1  -1   51.30    3.01
   3   1  -1   54.49    3.02
   3   1  -1   52.34    3.05
   3   1  -1   56.68    3.10
  -3  -1   1   57.69    3.10
  -3  -1   1   61.37    3.05
  -3  -1   1   55.94    3.02
  -3  -1   1   50.07    3.02
   2   1  -1   11.22    0.78
   2   1  -1    9.71    0.72
   2   1  -1   11.01    0.72
   2   1  -1   11.12    0.73
  -2  -1   1   10.72    0.72
  -2  -1   1   11.80    0.74
  -2  -1   1   12.66    0.73
  -2  -1   1   11.88    0.78
   1   1  -1   49.29    2.44
   1   1  -1   44.41    2.37
   1   1  -1   41.89    2.38
   1   1  -1   48.02    2.37
  -1  -1   1   43.30    2.31
  -1  -1   1   49.57    2.44
  -1  -1   1   39.43    2.37
  -1  -1   1   49.15    2.36
  -1  -1   1   40.87    2.36
   0   1  -1   85.05    4.38
  -2   1  -1   60.03    3.20
  -2   1  -1   64.21    3.23
  -2   1  -1   57.92    3.24
   2  -1   1   61.51    3.19
   2  -1   1   60.54    3.14
   2  -1   1   58.99    3.19
  -3   1  -1  641.09   33.86
  -3   1  -1  647.06   33.82
  -3   1  -1  647.36   33.88
   3  -1   1  654.47   33.82
   3  -1   1  734.45   33.91
  -4   1  -1  220.07   11.53
  -4   1  -1  233.63   11.61
  -4   1  -1  203.01   11.56
   4  -1   1  221.11   11.52
   4  -1   1  231.73   11.61
   4  -1   1  222.63   11.46
   4  -1   1  221.53   11.50
  -5   1  -1  353.65   17.54
  -5   1  -1  323.74   17.59
   5  -1   1  317.76   17.45
   5  -1   1  356.11   17.71
   5  -1   1  335.24   17.48
   5  -1   1  343.38   17.43
  -6   1  -1  410.21   20.78
  -6   1  -1  395.50   20.88
   6  -1   1  408.12   20.65
   6  -1   1  386.86   20.68
  -7   1  -1   18.30    1.67
  -7   1  -1   16.61    1.76
   7  -1   1   19.00    1.60
  -8   0   1   12.19    1.58
   7   0  -1  153.05    8.24
   7   0  -1  147.19    8.30
  -7   0   1  155.33    8.20
  -7   0   1  153.25    8.28
  -7   0   1  145.23    8.34
   6   0  -1   98.96    5.59
   6   0  -1  100.77    5.66
  -6   0   1  101.27    5.70
  -6   0   1  101.43    5.56
  -6   0   1  102.04    5.62
   5   0  -1   68.43    3.89
   5   0  -1   63.08    3.89
   5   0  -1   69.23    3.86
   5   0  -1   68.69    3.83
  -5   0   1   65.88    3.91
  -5   0   1   73.06    3.88
   4   0  -1  915.75   45.78
   4   0  -1  900.26   45.77
   4   0  -1  921.01   45.83
   4   0  -1  944.92   45.86
  -4   0   1  881.93   45.78
  -4   0   1  860.83   45.78
  -4   0   1  914.03   45.86
  -4   0   1  857.74   45.83
   3   0  -1    9.90    0.76
   3   0  -1   10.36    0.73
   3   0  -1    9.02    0.74
  -3   0   1   10.82    0.76
  -3   0   1    9.57    0.76
  -3   0   1   10.65    0.74
  -3   0   1   11.39    0.78
  -2   0   1  658.88   33.46
   1   0  -1  136.77    8.10
   1   0  -1  138.97    8.12
   1   0  -1  160.25    8.11
   1   0  -1  173.88    8.17
  -1   0   1  179.14    8.17
  -1   0   1  145.76    8.11
  -1   0   1  177.52    8.12
   0   0  -1   36.71    1.92
   0   0  -1   34.08    1.92
   0   0   1   38.19    1.99
   0   0   1   38.21    1.91
  -1   0  -1  231.89   12.10
  -1   0  -1  236.88   12.10
   1   0   1  243.90   12.12
  -2   0  -1  127.91    6.56
  -2   0  -1  136.04    6.58
  -2   0  -1  120.09    6.56
   2   0   1  132.56    6.56
   2   0   1  127.04    6.56
   2   0   1  114.76    6.61
   2   0   1  127.94    6.57
  -3   0  -1    3.53    0.38
  -3   0  -1    2.90    0.40
  -3   0  -1    2.83    0.36
   3   0   1    3.61    0.40
   3   0   1    3.88    0.39
  -4   0  -1    3.77    0.51
  -4   0  -1    3.48    0.46
  -4   0  -1    3.28    0.53
   4   0   1    2.56    0.44
   4   0   1    2.87    0.42
   4   0   1    2.88    0.48
   4   0   1    3.56    0.47
  -5   0  -1  111.02    5.75
  -5   0  -1  103.13    5.77
   5   0   1  103.02    5.72
   5   0   1  100.81    5.76
   5   0   1  105.39    5.70
  -6   0  -1  223.63   12.08
  -6   0  -1  230.13   12.02
   6   0   1  222.45   11.99
   6   0   1  230.31   11.96
  -7   0  -1    5.86    1.07
  -7   0  -1    6.70    1.19
   7   0   1    5.53    1.09
  -8   0  -1  201.57   11.61
   8  -1  -1  114.58    6.70
  -8   1   1  121.56    6.76
   7  -1  -1   19.52    1.78
   7  -1  -1   21.55    1.66
  -7   1   1   21.16    1.84
  -7   1   1   20.60    1.70
  -7   1   1   21.22    1.73
   6  -1  -1  130.63    7.16
   6  -1  -1  129.19    7.06
  -6   1   1  134.02    7.26
  -6   1   1  131.76    7.15
  -6   1   1  130.51    7.19
   5  -1  -1    5.77    0.65
   5  -1  -1    6.71    0.75
   5  -1  -1    6.19    0.73
  -5   1   1    6.87    0.74
  -5   1   1    6.26    0.75
  -5   1   1    6.30    0.70
  -5   1   1    6.61    0.71
  -5   1   1    7.88    0.84
   4  -1  -1    2.54    0.39
   4  -1  -1    2.80    0.47
   3  -1  -1   16.31    1.06
   3  -1  -1   14.71    0.99
   3  -1  -1   14.45    1.04
   3  -1  -1   16.97    1.01
  -3   1   1   16.20    1.04
  -3   1   1   14.81    1.05
  -3   1   1   15.37    1.04
  -3   1   1   15.53    1.01
  -3   1   1   17.58    1.05
   2  -1  -1  260.77   13.63
   2  -1  -1  276.36   13.64
  -2   1   1  255.41   13.68
  -2   1   1  249.92   13.64
  -2   1   1  281.01   13.66
  -2   1   1  284.14   13.69
  -2   1   1  261.47   13.68
   0  -1  -1   56.56    3.11
   0  -1  -1   64.87    3.18
   0  -1  -1   61.51    3.15
   0  -1  -1   60.75    3.21
   0   1   1   66.21    3.16
   0   1   1   62.77    3.19
   0   1   1   55.65    3.20
  -2  -1  -1  295.70   15.01
  -2  -1  -1  262.98   15.00
  -2  -1  -1  308.08   15.05
  -2  -1  -1  282.60   15.02
   2   1   1  280.80   15.05
   2   1   1  313.42   15.04
   2   1   1  313.61   15.02
  -3  -1  -1  431.85   22.32
  -3  -1  -1  423.79   22.33
  -3  -1  -1  398.96   22.31
   3   1   1  462.44   22.41
   3   1   1  459.64   22.34
   3   1   1  453.68   22.44
   3   1   1  426.15   22.34
  -4  -1  -1  338.71   17.14
  -4  -1  -1  336.95   17.16
  -4  -1  -1  314.60   17.14
   4   1   1  327.92   17.18
   4   1   1  333.51   17.16
   4   1   1  334.86   17.12
   4   1   1  337.62   17.13
  -5  -1  -1   13.48    1.19
   5   1   1   14.17    1.24
   5   1   1   16.69    1.27
  -6  -1  -1  164.86    9.06
  -6  -1  -1  168.50    9.04
   6   1   1  169.55    9.09
   6   1   1  166.24    9.06
  -7  -1  -1   63.39    3.78
  -7  -1  -1   54.92    3.73
   7   1   1   59.89    3.77
   7   1   1   57.36    3.77
   8  -2  -1   70.78    4.49
  -8   2   1   82.70    5.37
   7  -2  -1  134.26    7.30
  -7   2   1  128.19    7.54
  -7   2   1  137.93    7.45
  -7   2   1  136.83    7.48
   6  -2  -1  345.91   17.77
   6  -2  -1  338.48   17.87
  -6   2   1  350.55   17.88
  -6   2   1  339.73   17.99
  -6   2   1  342.57   17.92
   5  -2  -1   80.85    4.25
   5  -2  -1   73.98    4.32
   5  -2  -1   76.68    4.24
  -5   2   1   76.33    4.31
  -5   2   1   81.18    4.39
  -5   2   1   73.76    4.29
  -5   2   1   79.40    4.39
  -5   2   1   76.91    4.41
   4  -2  -1  334.66   15.62
   4  -2  -1  302.88   15.59
   4  -2  -1  280.45   15.68
   4  -2  -1  295.00   15.72
  -4   2   1  308.21   15.63
  -4   2   1  299.90   15.64
  -4   2   1  292.00   15.71
  -4   2   1  293.99   15.70
  -4   2   1  324.26   15.71
   3  -2  -1  517.29   28.29
   3  -2  -1  516.01   28.29
   3  -2  -1  555.50   28.19
   3  -2  -1  588.12   28.22
  -3   2   1  616.35   28.29
  -3   2   1  524.81   28.23
  -3   2   1  550.60   28.26
  -3   2   1  560.13   28.32
  -3   2   1  560.71   28.34
   2  -2  -1   88.87    4.59
   2  -2  -1   90.52    4.51
   2  -2  -1   81.84    4.49
  -2   2   1   88.54    4.62
  -2   2   1   83.48    4.62
  -2   2   1   89.01    4.60
  -2   2   1   81.34    4.53
  -2   2   1   91.48    4.55
   1  -2  -1  194.29   10.14
   1  -2  -1  209.82   10.07
  -1   2   1  200.96   10.07
  -1   2   1  187.23   10.05
  -1   2   1  188.14   10.14
  -1   2   1  201.29   10.05
   0  -2  -1    6.95    0.53
   0  -2  -1    9.00    0.50
   0  -2  -1    8.87    0.46
   0   2   1    7.68    0.51
   0   2   1    6.35    0.53
   0   2   1    7.39    0.46
  -1  -2  -1   71.02    3.98
  -1  -2  -1   82.45    4.05
  -1  -2  -1   81.85    4.07
  -1  -2  -1   73.14    4.07
   1   2   1   79.33    4.05
   1   2   1   77.72    3.97
   1   2   1   77.77    4.09
   1   2   1   77.77    4.09
  -2  -2  -1    8.78    0.58
  -2  -2  -1    7.94    0.56
  -2  -2  -1    6.32    0.51
  -2  -2  -1    7.50    0.55
   2   2   1    6.35    0.50
   2   2   1    8.09    0.60
  -3  -2  -1  112.72    5.92
  -3  -2  -1  108.09    5.91
  -3  -2  -1  113.44    5.93
  -3  -2  -1  115.34    5.89
   3   2   1  114.61    5.89
   3   2   1  102.74    5.91
   3   2   1  113.60    6.08
   3   2   1  114.30    5.98
  -4  -2  -1  420.96   22.20
  -4  -2  -1  413.19   22.19
  -4  -2  -1  409.69   22.18
  -4  -2  -1  467.85   22.16
   4   2   1  447.03   22.17
   4   2   1  426.15   22.35
   4   2   1  438.94   22.27
  -5  -2  -1    3.12    0.58
  -5  -2  -1    3.06    0.60
  -5  -2  -1    3.29    0.62
   5   2   1    2.95    0.68
   5   2   1    3.02    0.63
  -6  -2  -1  360.18   18.56
  -6  -2  -1  353.53   18.55
   6   2   1  350.27   18.63
   6   2   1  357.69   18.74
  -7  -2  -1  103.05    6.11
  -7  -2  -1  107.97    6.19
   7   2   1  108.33    6.39
   7  -3  -1   14.64    1.33
  -7   3   1   15.27    1.64
  -7   3   1   15.38    1.55
  -7   3   1   14.91    1.49
   6  -3  -1   21.30    1.53
   6  -3  -1   24.19    1.52
  -6   3   1   23.51    1.78
  -6   3   1   21.43    1.61
  -6   3   1   21.09    1.68
  -6   3   1   19.80    1.75
   5  -3  -1   14.94    1.06
   5  -3  -1   14.55    1.04
  -5   3   1   14.34    1.22
  -5   3   1   16.78    1.13
  -5   3   1   14.02    1.23
  -5   3   1   13.71    1.13
   4  -3  -1  254.57   13.51
   4  -3  -1  260.63   13.72
   4  -3  -1  276.37   13.55
  -4   3   1  254.47   13.69
  -4   3   1  259.75   13.74
  -4   3   1  272.99   13.63
  -4   3   1  268.00   13.68
  -4   3   1  259.61   13.62
   3  -3  -1  385.98   19.75
   3  -3  -1  383.54   19.58
   3  -3  -1  385.15   19.57
  -3   3   1  393.29   19.81
  -3   3   1  383.75   19.75
  -3   3   1  368.11   19.66
  -3   3   1  386.99   19.73
  -3   3   1  390.48   19.70
   2  -3  -1   78.46    3.99
  -2   3   1   72.34    4.06
  -2   3   1   69.43    3.92
  -2   3   1   69.15    3.92
  -2   3   1   79.94    3.99
  -2   3   1   78.50    4.09
   1  -3  -1  658.17   34.17
  -1   3   1  684.55   34.19
   0  -3  -1  441.45   22.69
   0   3   1  447.29   22.66
   0   3   1  446.47   22.74
  -1  -3  -1  419.53   20.96
  -1  -3  -1  404.84   21.00
  -1  -3  -1  396.75   20.93
   1   3   1  409.14   20.96
   1   3   1  392.64   21.03
   1   3   1  447.46   21.03
  -2  -3  -1  618.98   31.67
  -2  -3  -1  616.55   31.67
  -2  -3  -1  585.11   31.66
   2   3   1  661.59   31.76
   2   3   1  630.69   31.69
  -3  -3  -1   21.88    1.37
  -3  -3  -1   23.65    1.43
  -3  -3  -1   22.09    1.36
  -3  -3  -1   24.10    1.42
   3   3   1   22.24    1.47
   3   3   1   19.73    1.40
   3   3   1   22.98    1.34
   3   3   1   21.93    1.60
  -4  -3  -1   83.44    4.63
  -4  -3  -1   89.53    4.59
  -4  -3  -1   82.14    4.60
  -4  -3  -1   82.84    4.63
   4   3   1   82.49    4.56
   4   3   1   82.53    4.71
   4   3   1   86.51    4.89
  -5  -3  -1   12.26    1.11
  -5  -3  -1   14.16    1.16
  -5  -3  -1   12.96    1.15
   5   3   1   13.31    1.40
   5   3   1   11.73    1.21
   5   3   1   12.63    1.17
  -6  -3  -1   27.52    2.02
  -6  -3  -1   24.15    1.90
   6   3   1   25.22    2.09
   6   3   1   28.44    2.31
  -7  -3  -1    4.95    1.36
   7   3   1    3.81    1.40
  -7   4   1   22.02    1.85
  -7   4   1   19.77    1.93
  -7   4   1   22.32    2.00
   6  -4  -1  238.91   12.09
  -6   4   1  227.24   12.29
  -6   4   1  231.86   12.45
  -6   4   1  233.41   12.47
   5  -4  -1  193.97    9.90
   5  -4  -1  196.99    9.88
  -5   4   1  200.70   10.26
  -5   4   1  185.32    9.96
  -5   4   1  185.09   10.37
  -5   4   1  188.15   10.05
  -5   4   1  185.54   10.31
   4  -4  -1   11.32    0.71
   4  -4  -1   11.39    0.71
   4  -4  -1    9.46    0.98
  -4   4   1   10.86    0.94
  -4   4   1   11.07    0.98
  -4   4   1   13.02    0.96
  -4   4   1   10.83    0.86
  -4   4   1   12.27    1.04
   3  -4  -1  160.76    8.15
  -3   4   1  151.88    8.25
  -3   4   1  163.44    8.23
  -3   4   1  155.46    8.15
  -3   4   1  143.26    8.04
  -3   4   1  154.33    8.09
   2  -4  -1   19.35    1.17
  -2   4   1   17.99    1.12
  -2   4   1   19.32    1.14
  -2   4   1   18.13    1.28
  -2   4   1   19.40    1.18
   1  -4  -1   61.81    3.54
  -1   4   1   67.50    3.41
  -1   4   1   62.61    3.58
  -1   4   1   66.43    3.40
   0  -4  -1    8.36    0.66
   0   4   1    8.55    0.71
   0   4   1    9.00    0.63
  -1  -4  -1  132.32    6.96
  -1  -4  -1  135.32    6.85
   1   4   1  139.02    6.99
   1   4   1  126.17    7.01
  -2  -4  -1  329.27   17.06
  -2  -4  -1  333.64   17.10
  -2  -4  -1  321.28   17.05
   2   4   1  346.73   17.11
   2   4   1  336.60   17.18
  -3  -4  -1   34.30    2.03
  -3  -4  -1   33.56    2.03
  -3  -4  -1   35.35    2.05
   3   4   1   39.67    2.42
   3   4   1   32.30    2.13
   3   4   1   34.28    1.92
   3   4   1   32.78    2.07
  -4  -4  -1  383.18   20.75
  -4  -4  -1  399.31   20.70
  -4  -4  -1  430.50   20.73
  -4  -4  -1  398.96   20.78
   4   4   1  412.25   20.67
   4   4   1  390.79   21.47
   4   4   1  408.52   21.10
  -5  -4  -1  418.79   21.23
  -5  -4  -1  405.81   21.28
   5   4   1  413.44   21.69
   5   4   1  406.96   21.44
  -6  -4  -1   93.42    5.00
  -6  -4  -1   80.77    5.00
   6   4   1   79.97    5.13
   6   4   1   88.94    5.47
  -7   5   1    7.52    1.36
  -6   5   1   78.89    4.71
  -6   5   1   80.57    4.78
  -6   5   1   77.54    4.54
  -5   5   1  429.46   21.50
  -5   5   1  382.59   21.13
  -5   5   1  424.49   21.40
  -5   5   1  409.90   21.22
   4  -5  -1   13.35    1.18
  -4   5   1   14.55    1.19
  -4   5   1   13.76    1.12
  -4   5   1   14.83    1.18
  -4   5   1   14.17    1.05
  -4   5   1   13.14    1.45
   3  -5  -1  822.80   40.22
  -3   5   1  726.39   40.13
  -3   5   1  786.70   40.36
  -3   5   1  780.13   40.21
  -3   5   1  884.98   40.40
  -3   5   1  731.57   40.10
  -2   5   1  167.59    9.04
  -2   5   1  174.57    8.86
  -2   5   1  173.51    8.82
  -2   5   1  165.46    8.80
  -1   5   1  251.25   12.62
  -1   5   1  248.23   12.66
  -1   5   1  248.29   12.62
  -1   5   1  238.44   12.85
   0  -5  -1  315.38   16.33
   0   5   1  325.87   16.20
   0   5   1  311.56   16.27
   0   5   1  316.44   16.41
  -1  -5  -1   49.43    3.14
   1   5   1   55.64    3.15
   1   5   1   56.63    3.03
   1   5   1   60.62    3.11
  -2  -5  -1   90.90    4.59
  -2  -5  -1   86.81    4.73
  -2  -5  -1   86.73    4.60
   2   5   1   83.09    4.70
   2   5   1   90.40    4.80
   2   5   1   87.71    4.72
  -3  -5  -1   33.39    2.45
  -3  -5  -1   37.33    2.12
  -3  -5  -1   37.07    2.11
   3   5   1   35.33    1.95
   3   5   1   36.52    2.29
   3   5   1   36.81    2.41
   3   5   1   37.08    2.58
  -4  -5  -1   10.40    1.07
  -4  -5  -1    8.24    0.94
   4   5   1    7.41    0.98
   4   5   1    8.19    1.24
  -5  -5  -1   43.21    2.70
   5   5   1   39.12    2.86
   5   5   1   45.81    3.28
  -6  -5  -1   32.53    2.47
   6   5   1   36.41    4.45
  -7   6   1  157.60    8.72
  -6   6   1    5.01    0.96
  -6   6   1    3.22    0.82
  -6   6   1    3.88    0.81
  -5   6   1   42.43    2.77
  -5   6   1   38.58    2.60
  -5   6   1   37.45    2.45
  -4   6   1   15.48    1.41
  -4   6   1   16.72    1.23
  -4   6   1   17.93    1.50
  -4   6   1   18.59    1.55
  -4   6   1   18.06    1.37
  -3   6   1   33.71    2.05
  -3   6   1   32.32    1.96
  -3   6   1   29.56    2.00
  -3   6   1   34.00    2.25
  -3   6   1   38.03    2.37
  -2   6   1   74.69    4.15
  -2   6   1   77.48    4.41
  -2   6   1   76.60    4.15
  -2   6   1   79.72    4.17
  -1   6   1   37.49    2.27
  -1   6   1   34.10    2.02
  -1   6   1   36.22    1.95
  -1   6   1   34.36    2.02
   0  -6  -1  597.01   31.18
   0   6   1  617.93   31.27
   0   6   1  607.37   31.11
   0   6   1  617.93   31.04
  -1  -6  -1    1.09    0.35
   1   6   1    1.41    0.40
   1   6   1    2.13    0.42
  -2  -6  -1  437.50   21.15
   2   6   1  411.94   21.65
   2   6   1  403.57   21.18
   2   6   1  408.03   21.26
   2   6   1  401.79   21.17
  -3  -6  -1  267.41   13.21
  -3  -6  -1  260.76   13.36
  -3  -6  -1  257.56   13.33
   3   6   1  245.29   13.93
  -4  -6  -1    3.75    0.73
   4   6   1    3.66    1.06
   4   6   1    5.14    1.01
   5   6   1  291.67   15.97
   5   6   1  290.11   15.52
  -6   7   1    1.65    0.81
  -5   7   1  283.37   14.75
  -5   7   1  284.71   14.96
  -5   7   1  268.23   14.75
  -4   7   1  291.28   15.78
  -4   7   1  314.25   16.19
  -4   7   1  309.11   15.97
  -3   7   1  150.38    7.62
  -3   7   1  138.08    7.52
  -3   7   1  125.32    7.53
  -3   7   1  144.07    7.88
  -3   7   1  155.20    8.03
  -2   7   1  372.81   18.80
  -2   7   1  345.60   18.77
  -2   7   1  371.86   19.12
  -2   7   1  374.12   18.79
  -1   7   1    4.41    0.78
  -1   7   1    5.27    0.58
  -1   7   1    4.42    0.56
   0   7   1    6.86    0.86
   0   7   1    6.30    0.65
   0   7   1    5.86    0.67
   1   7   1   21.59    1.41
   1   7   1   21.63    1.54
   1   7   1   19.36    1.43
   2   7   1   33.33    2.18
   2   7   1   32.61    2.58
   3   7   1   70.60    4.68
   3   7   1   71.96    4.23
   4   7   1   26.72    2.23
   4   7   1   28.74    2.78
  -5   8   1  121.65    6.85
  -4   8   1   40.11    2.55
  -4   8   1   36.43    2.82
  -3   8   1   37.25    2.26
  -3   8   1   34.69    2.56
  -3   8   1   34.82    2.20
  -2   8   1  285.77   14.11
  -2   8   1  281.25   14.55
  -2   8   1  254.70   14.13
  -1   8   1  103.23    5.79
  -1   8   1  113.89    6.29
   0   8   1  391.42   19.80
   0   8   1  369.56   19.58
   1   8   1  387.64   19.45
   1   8   1  382.99   19.40
   1   8   1  353.48   19.89
   2   8   1   66.73    3.81
   2   8   1   60.18    4.29
   3   8   1  188.51   10.22
  -3   9   1   33.28    2.68
  -2   9   1    2.37    0.87
  -1   9   1   14.93    1.77
  -1   9   1   13.13    1.56
   0   9   1   37.61    2.98
   1   9   1   54.59    3.95
  -2  10   1  121.84    8.03
   1  10  -2    4.24    1.33
   0  10  -2   25.29    2.47
  -1  10  -2   44.86    3.32
  -2  10  -2   51.19    3.45
  -3  10  -2   16.00    1.97
   2   9  -2    1.76    0.99
   1   9  -2  289.24   15.67
   0   9  -2  169.76    8.61
   0   9  -2  152.72    9.06
  -1   9  -2   21.29    2.05
  -1   9  -2   24.50    1.89
  -1   9  -2   28.39    1.68
  -2   9  -2   79.32    5.37
  -2   9  -2  106.76    5.25
  -2   9  -2   95.92    5.44
  -3   9  -2   31.87    2.46
  -3   9  -2   32.84    2.25
  -4   9  -2    3.09    0.99
  -4   9  -2    1.37    0.75
  -5   9  -2   31.52    3.65
   4   8  -2    9.48    1.36
   4   8  -2    6.06    1.63
   3   8  -2    1.67    0.90
   3   8  -2    0.41    0.63
   2   8  -2   25.81    1.49
   2   8  -2   23.66    1.69
   2   8  -2   25.08    2.18
   1   8  -2  244.01   13.37
   1   8  -2  255.11   12.69
   1   8  -2  258.88   12.68
   1   8  -2  240.62   12.71
   1   8  -2  234.42   12.72
   0   8  -2  197.02   10.02
   0   8  -2  179.83   10.78
   0   8  -2  188.52   10.05
   0   8  -2  199.03   10.31
   0   8  -2  213.85   10.18
  -1   8  -2  106.11    5.33
  -1   8  -2   97.61    5.46
  -1   8  -2   91.42    5.63
  -2   8  -2  543.56   25.01
  -2   8  -2  422.38   25.07
  -2   8  -2  491.10   25.13
  -3   8  -2  104.12    5.52
  -3   8  -2   85.86    5.20
  -3   8  -2   97.64    5.01
  -3   8  -2   91.98    5.51
  -4   8  -2  261.29   13.93
  -4   8  -2  265.06   14.10
  -5   8  -2  220.94   11.92
  -5   8  -2  219.94   12.06
   5   7  -2  333.71   18.60
   5   7  -2  328.92   17.50
   4   7  -2   18.56    1.58
   4   7  -2   19.57    2.07
   3   7  -2  281.20   15.07
   3   7  -2  276.21   14.54
   2   7  -2  306.54   16.58
   2   7  -2  327.09   16.41
   2   7  -2  322.44   16.45
   2   7  -2  318.92   16.97
   1   7  -2    1.59    0.33
   1   7  -2    2.28    0.39
   1   7  -2    1.70    0.43
   1   7  -2    1.06    0.54
   0   7  -2  239.94   11.86
   0   7  -2  221.08   11.87
   0   7  -2  239.14   12.02
   0   7  -2  230.82   12.10
   0   7  -2  232.36   12.42
  -1   7  -2    2.96    0.46
  -1   7  -2    3.23    0.66
  -2   7  -2   32.18    2.09
  -2   7  -2   28.94    2.02
  -2   7  -2   32.89    1.98
  -3   7  -2    9.62    0.88
  -3   7  -2   11.30    1.13
  -3   7  -2   10.34    0.76
  -3   7  -2   11.04    1.04
  -3   7  -2    9.93    0.87
  -3   7  -2    9.93    0.98
  -4   7  -2  141.51    7.59
  -4   7  -2  143.62    7.70
  -4   7  -2  130.47    7.87
  -4   7  -2  137.14    7.30
  -5   7  -2  157.11    8.22
  -5   7  -2  154.65    8.57
  -5   7  -2  148.98    8.46
  -6   7  -2   12.33    1.53
   6   6  -2   63.71    4.89
   5   6  -2   37.44    2.66
   5   6  -2   38.27    3.10
  -5  -6   2   41.06    2.41
   4   6  -2    1.49    0.69
   4   6  -2    1.67    0.53
  -4  -6   2    0.58    0.45
   3   6  -2  134.36    7.53
   3   6  -2  137.27    7.50
   3   6  -2  135.22    7.93
   3   6  -2  158.22    7.51
   2   6  -2  369.80   19.25
   2   6  -2  365.28   19.49
   2   6  -2  384.69   19.05
   2   6  -2  366.05   19.06
   1   6  -2   37.18    2.49
   1   6  -2   40.53    2.12
   1   6  -2   38.60    2.10
   1   6  -2   36.11    2.11
   0   6  -2  703.17   36.59
   0   6  -2  719.96   36.85
   0   6  -2  732.25   36.56
  -1   6  -2  186.41   10.24
  -1   6  -2  199.20   10.11
  -1   6  -2  196.79   10.17
  -2   6  -2  273.77   14.76
  -2   6  -2  281.75   14.54
  -2   6  -2  288.35   14.85
  -2   6  -2  296.69   14.78
  -3   6  -2  481.50   24.70
  -3   6  -2  495.08   24.97
  -3   6  -2  472.66   24.77
  -3   6  -2  490.84   25.04
  -4   6  -2    3.57    0.76
  -4   6  -2    5.35    0.82
  -4   6  -2    5.17    0.78
  -4   6  -2    6.99    0.67
  -5   6  -2   69.38    4.33
  -5   6  -2   70.69    4.11
  -5   6  -2   79.11    4.46
  -6   6  -2    5.73    1.20
  -6   6  -2    5.84    1.07
  -6   6  -2    6.65    1.27
   6   5  -2   41.43    2.98
   6   5  -2   38.91    3.35
  -6  -5   2   49.26    2.85
   5   5  -2  334.52   17.52
   5   5  -2  316.63   17.84
   5   5  -2  373.23   17.46
  -5  -5   2  338.67   17.32
  -5  -5   2  309.27   17.26
   4   5  -2  204.95   11.60
   4   5  -2  196.81   11.24
   4   5  -2  239.80   11.25
  -4  -5   2  220.20   11.11
  -4  -5   2  206.47   11.06
   3   5  -2    1.85    0.39
   3   5  -2    1.80    0.39
   2   5  -2   62.36    3.31
   2   5  -2   56.70    3.24
   2   5  -2   64.32    3.62
   2   5  -2   55.53    3.25
   1   5  -2   77.30    4.12
   1   5  -2   83.29    4.50
   1   5  -2   73.17    4.11
   1   5  -2   81.22    4.13
   0   5  -2   83.11    4.46
   0   5  -2   76.68    4.24
  -1   5  -2    3.66    0.46
  -1   5  -2    3.53    0.40
  -1   5  -2    3.83    0.44
  -2   5  -2   10.00    0.77
  -2   5  -2    8.77    0.69
  -2   5  -2    8.70    0.61
  -3   5  -2  500.33   25.68
  -3   5  -2  509.84   25.83
  -3   5  -2  498.33   25.61
  -4   5  -2    5.04    0.74
  -4   5  -2    5.08    0.71
  -4   5  -2    4.41    0.55
  -5   5  -2  454.68   23.13
  -5   5  -2  434.99   22.89
  -6   5  -2  207.99   10.87
  -6   5  -2  188.83   10.56
  -7   5  -2   52.45    3.48
   7   4  -2   43.83    3.58
  -7  -4   2   46.65    3.07
   6   4  -2   30.07    2.61
   6   4  -2   32.72    2.35
  -6  -4   2   32.67    2.20
   5   4  -2  212.01   12.08
   5   4  -2  203.54   11.78
   5   4  -2  246.57   11.83
  -5  -4   2  229.14   11.71
   4   4  -2  355.53   19.39
   4   4  -2  367.44   19.38
   4   4  -2  358.03   19.66
   4   4  -2  431.18   19.44
  -4  -4   2  376.31   19.28
  -4  -4   2  364.04   19.29
   3   4  -2   12.27    0.93
   3   4  -2   12.17    1.12
   3   4  -2   14.25    0.97
   3   4  -2   11.66    0.96
  -3  -4   2   12.33    0.85
  -3  -4   2   11.66    0.83
   2   4  -2  737.82   39.52
   2   4  -2  838.24   39.61
   2   4  -2  756.93   39.78
   1   4  -2  185.41   10.15
   1   4  -2  215.60   10.50
   1   4  -2  188.87   10.21
   1   4  -2  207.34   10.20
   0   4  -2  367.09   18.52
   0   4  -2  352.90   18.36
  -1   4  -2  318.10   16.40
  -1   4  -2  321.46   16.40
  -2   4  -2   63.22    3.54
  -2   4  -2   73.58    3.60
  -2   4  -2   67.08    3.56
  -2   4  -2   67.88    3.72
  -3   4  -2   54.51    2.83
  -3   4  -2   48.48    2.74
  -3   4  -2   48.36    2.90
  -4   4  -2  104.14    5.50
  -4   4  -2   98.83    5.39
  -4   4  -2   99.61    5.55
   4  -4   2  100.27    5.23
   4  -4   2  101.28    5.22
   4  -4   2  100.04    5.57
  -5   4  -2    2.39    0.59
  -5   4  -2    3.02    0.58
   5  -4   2    1.98    0.56
   5  -4   2    2.73    0.43
  -6   4  -2   64.60    4.14
  -6   4  -2   66.93    3.99
   6  -4   2   71.49    3.75
  -7   4  -2   23.43    2.30
  -7   4  -2   21.58    1.98
   7   3  -2   97.63    5.76
   7   3  -2   96.71    6.03
  -7  -3   2   95.72    5.70
  -7  -3   2  103.04    5.69
   6   3  -2  267.77   14.78
   6   3  -2  273.29   14.54
  -6  -3   2  287.87   14.47
  -6  -3   2  279.05   14.19
  -6  -3   2  266.87   14.49
   5   3  -2    1.50    0.52
   5   3  -2    1.44    0.55
  -5  -3   2    1.44    0.28
  -5  -3   2    1.29    0.38
  -5  -3   2    0.31    0.47
  -5  -3   2    1.55    0.44
   4   3  -2  200.02    9.25
   4   3  -2  162.23    9.15
   4   3  -2  171.74    9.38
   4   3  -2  171.59    9.18
  -4  -3   2  180.86    8.93
  -4  -3   2  167.86    9.11
  -4  -3   2  158.30    9.13
  -4  -3   2  172.91    9.09
  -4  -3   2  178.61    8.93
   3   3  -2   26.84    1.63
   3   3  -2   23.47    1.56
   3   3  -2   25.07    1.73
   3   3  -2   26.40    1.58
  -3  -3   2   24.35    1.52
  -3  -3   2   27.05    1.52
   2   3  -2  200.85   10.71
   2   3  -2  205.24   10.52
   2   3  -2  206.77   10.52
   2   3  -2  208.47   10.58
  -2  -3   2  205.86   10.66
  -2  -3   2  197.51   10.44
  -2  -3   2  203.79   10.47
   1   3  -2  237.73   12.16
   1   3  -2  233.50   12.15
   1   3  -2  240.19   12.34
  -1  -3   2  240.45   12.29
   0   3  -2   87.86    4.67
  -1   3  -2  561.45   28.58
  -2   3  -2   33.63    1.87
  -2   3  -2   32.56    1.98
  -2   3  -2   36.98    1.91
  -3   3  -2  482.05   25.67
  -3   3  -2  479.34   25.60
  -3   3  -2  478.85   25.54
   3  -3   2  499.48   25.47
   3  -3   2  555.24   25.69
   3  -3   2  512.99   25.49
  -4   3  -2  417.67   20.01
  -4   3  -2  366.51   19.89
  -4   3  -2  379.38   20.03
   4  -3   2  391.21   19.82
   4  -3   2  383.19   19.80
  -5   3  -2   83.32    4.68
  -5   3  -2   81.79    4.80
   5  -3   2   85.09    4.58
   5  -3   2   87.76    4.58
  -6   3  -2  282.51   15.37
  -6   3  -2  294.39   15.24
   6  -3   2  293.84   15.04
  -7   3  -2   44.55    3.20
  -7   3  -2   46.06    3.07
   7  -3   2   45.83    2.82
   7   2  -2  124.81    7.12
   7   2  -2  117.66    6.87
  -7  -2   2  112.43    6.85
  -7  -2   2  128.97    6.62
  -7  -2   2  125.06    6.85
   6   2  -2  299.95   15.68
  -6  -2   2  304.77   15.46
  -6  -2   2  290.09   15.68
  -6  -2   2  300.44   15.64
   5   2  -2    9.11    1.02
   5   2  -2    7.51    0.98
   5   2  -2   11.56    0.97
  -5  -2   2    8.85    0.88
  -5  -2   2    9.57    0.91
  -5  -2   2   10.74    0.77
  -5  -2   2    7.11    1.04
   4   2  -2  389.67   20.66
   4   2  -2  451.45   20.60
   4   2  -2  380.34   20.51
   4   2  -2  400.83   20.52
  -4  -2   2  407.30   20.64
  -4  -2   2  377.08   20.51
  -4  -2   2  384.55   20.35
  -4  -2   2  405.00   20.50
  -4  -2   2  392.94   20.48
   3   2  -2  337.13   17.33
   3   2  -2  349.70   17.38
   3   2  -2  358.20   17.35
   3   2  -2  345.73   17.48
  -3  -2   2  307.55   17.28
  -3  -2   2  312.39   17.31
  -3  -2   2  352.19   17.46
  -3  -2   2  336.00   17.29
   2   2  -2  207.77   11.17
   2   2  -2  240.15   11.19
   2   2  -2  220.50   11.22
  -2  -2   2  213.27   11.13
  -2  -2   2  207.19   11.15
  -2  -2   2  204.78   11.04
  -2  -2   2  227.42   11.28
   0   2  -2   73.11    3.89
   0   2  -2   78.94    4.00
   0   2  -2   73.52    3.89
   0  -2   2   77.94    3.97
  -1   2  -2    3.02    0.22
  -1   2  -2    2.32    0.26
   1  -2   2    2.73    0.19
  -2   2  -2   15.86    1.00
  -2   2  -2   18.07    1.04
   2  -2   2   17.76    0.98
   2  -2   2   17.86    0.99
   2  -2   2   15.43    1.13
  -3   2  -2  135.18    6.99
  -3   2  -2  126.26    6.92
  -3   2  -2  130.56    7.02
   3  -2   2  138.32    6.91
   3  -2   2  132.96    6.89
  -4   2  -2   77.94    4.42
  -4   2  -2   81.29    4.35
  -4   2  -2   80.99    4.42
   4  -2   2   80.16    4.30
   4  -2   2   77.63    4.42
   4  -2   2   79.49    4.28
  -5   2  -2   43.44    2.56
   5  -2   2   41.09    2.47
   5  -2   2   41.48    2.48
  -6   2  -2  155.94    8.73
  -6   2  -2  157.05    8.61
   6  -2   2  164.97    8.51
  -7   2  -2   63.02    3.92
  -7   2  -2   62.15    4.07
   7  -2   2   62.94    3.74
   7   1  -2    6.63    1.26
  -7  -1   2    6.51    0.96
  -7  -1   2    7.15    1.09
  -7  -1   2    6.96    1.14
   6   1  -2   10.23    1.19
   6   1  -2   11.70    1.11
  -6  -1   2   12.66    1.14
  -6  -1   2   12.44    1.19
  -6  -1   2   12.66    1.03
   5   1  -2   29.50    2.23
   5   1  -2   32.96    2.00
   5   1  -2   30.80    2.09
   5   1  -2   33.98    2.11
  -5  -1   2   28.60    2.01
  -5  -1   2   31.46    2.11
  -5  -1   2   30.09    2.04
  -5  -1   2   30.85    1.88
  -5  -1   2   30.83    1.98
   4   1  -2  106.63    5.71
   4   1  -2  106.34    5.67
   4   1  -2  101.94    5.75
  -4  -1   2  108.15    5.75
  -4  -1   2  104.81    5.57
  -4  -1   2  110.86    5.67
  -4  -1   2  108.31    5.66
  -4  -1   2   95.37    5.67
   3   1  -2  147.26    7.59
   3   1  -2  148.64    7.62
   3   1  -2  151.14    7.69
   3   1  -2  142.95    7.57
  -3  -1   2  144.49    7.57
  -3  -1   2  148.71    7.57
  -3  -1   2  144.18    7.49
  -3  -1   2  130.94    7.58
   2   1  -2    2.98    0.32
   2   1  -2    2.95    0.33
  -2  -1   2    2.95    0.31
  -2  -1   2    3.51    0.32
   0   1  -2   84.07    4.46
   0   1  -2   85.70    4.52
   0   1  -2   82.94    4.47
   0   1  -2   87.43    4.48
   0  -1   2   87.96    4.47
   0  -1   2   93.26    4.52
   0  -1   2   85.33    4.45
  -2   1  -2  438.62   23.90
  -2   1  -2  458.37   23.89
   2  -1   2  511.15   23.93
  -3   1  -2  204.76    9.84
  -3   1  -2  186.69    9.78
  -3   1  -2  189.28    9.84
   3  -1   2  165.60    9.72
   3  -1   2  194.06    9.77
   3  -1   2  186.98    9.78
   3  -1   2  194.71    9.83
  -4   1  -2  422.02   23.90
  -4   1  -2  480.45   23.94
  -4   1  -2  466.07   23.87
   4  -1   2  446.71   23.75
   4  -1   2  468.21   23.85
   4  -1   2  499.19   23.94
   4  -1   2  476.99   23.84
  -5   1  -2    6.16    0.92
  -5   1  -2    5.16    0.72
   5  -1   2    4.70    0.56
   5  -1   2    4.68    0.62
   5  -1   2    3.39    0.62
  -6   1  -2    4.94    0.90
   6  -1   2    6.01    0.84
   6  -1   2    5.78    0.77
  -7   1  -2   13.88    1.64
   7  -1   2   11.86    1.38
  -8   0   2  242.00   12.89
   7   0  -2    3.90    0.91
   7   0  -2    5.04    0.86
  -7   0   2    6.48    1.14
  -7   0   2    3.87    0.77
  -7   0   2    2.59    0.70
   6   0  -2  476.85   25.30
   6   0  -2  487.54   25.45
  -6   0   2  500.42   25.30
  -6   0   2  498.82   25.45
  -6   0   2  493.34   25.36
   5   0  -2   93.90    5.40
   5   0  -2  102.93    5.53
   5   0  -2   97.64    5.51
   5   0  -2  112.01    5.46
  -5   0   2   94.78    5.41
  -5   0   2   98.84    5.38
  -5   0   2   97.63    5.48
  -5   0   2   96.30    5.49
   4   0  -2  126.47    6.68
   4   0  -2  124.13    6.68
   4   0  -2  132.64    6.77
   4   0  -2  124.17    6.77
  -4   0   2  120.95    6.68
  -4   0   2  125.93    6.65
  -4   0   2  127.79    6.74
  -4   0   2  117.72    6.72
  -4   0   2  133.15    6.72
   3   0  -2  344.58   15.68
   3   0  -2  304.65   15.70
   3   0  -2  313.72   15.75
   3   0  -2  291.09   15.64
  -3   0   2  289.64   15.62
  -3   0   2  296.01   15.65
  -3   0   2  285.30   15.68
  -3   0   2  328.28   15.74
  -3   0   2  290.25   15.64
   2   0  -2   52.63    3.01
   2   0  -2   55.65    3.08
   2   0  -2   50.83    2.98
   2   0  -2   55.65    2.98
   2   0  -2   56.21    3.00
  -2   0   2   63.13    3.00
  -2   0   2   51.76    2.97
  -2   0   2   61.16    3.07
  -2   0   2   54.33    2.99
   1   0  -2  123.61    6.09
   1   0  -2  116.66    6.07
   1   0  -2  123.92    6.18
   1   0  -2  109.13    6.07
  -1   0   2  106.15    6.08
  -1   0   2  128.59    6.14
  -1   0   2  111.47    6.06
  -1   0   2  119.59    6.04
   0   0  -2  115.98    6.20
   0   0  -2  120.89    6.19
   0   0  -2  114.04    6.17
   0   0   2  128.14    6.25
   0   0   2  119.40    6.20
   0   0   2  121.95    6.16
  -1   0  -2    8.44    0.56
  -1   0  -2    9.27    0.59
   1   0   2    8.39    0.55
  -2   0  -2  358.88   18.49
  -2   0  -2  362.54   18.47
  -2   0  -2  361.68   18.47
   2   0   2  387.01   18.46
   2   0   2  360.04   18.45
   2   0   2  339.54   18.47
  -3   0  -2   34.13    1.93
  -3   0  -2   33.28    1.95
  -3   0  -2   29.66    1.91
   3   0   2   34.50    1.92
   3   0   2   33.53    1.92
   3   0   2   33.10    1.93
   3   0   2   32.50    1.91
  -4   0  -2  341.79   18.18
  -4   0  -2  365.94   18.27
  -4   0  -2  325.19   18.19
   4   0   2  356.91   18.16
   4   0   2  351.05   18.20
   4   0   2  355.99   18.18
   4   0   2  373.21   18.21
  -5   0  -2  136.41    7.76
  -5   0  -2  145.70    7.75
   5   0   2  147.04    7.70
   5   0   2  145.13    7.85
   5   0   2  145.68    8.21
  -6   0  -2  194.61   11.03
  -6   0  -2  216.21   11.03
   6   0   2  209.62   10.94
   6   0   2  203.57   10.99
  -7   0  -2  249.06   13.50
  -7   0  -2  246.07   13.44
   7   0   2  258.70   13.44
   8  -1  -2   13.83    1.71
  -8   1   2   16.29    1.71
   7  -1  -2    2.39    0.60
   7  -1  -2    2.41    0.81
  -7   1   2    2.72    0.77
  -7   1   2    1.61    0.62
  -7   1   2    1.92    0.62
   6  -1  -2  151.98    8.49
   6  -1  -2  160.44    8.35
  -6   1   2  155.21    8.49
  -6   1   2  147.55    8.39
  -6   1   2  159.50    8.39
  -6   1   2  160.82    8.41
   5  -1  -2  126.70    6.99
   5  -1  -2  139.42    6.88
   5  -1  -2  138.20    6.88
  -5   1   2  118.16    6.93
  -5   1   2  126.18    6.97
  -5   1   2  128.20    6.91
  -5   1   2  120.72    6.87
  -5   1   2  127.50    6.89
   4  -1  -2   93.83    4.85
   4  -1  -2   89.86    4.84
   4  -1  -2   85.54    4.95
   4  -1  -2   90.75    4.93
  -4   1   2   84.28    4.91
  -4   1   2   90.02    4.93
  -4   1   2   92.14    4.89
  -4   1   2   97.31    4.91
  -4   1   2   85.70    4.85
   3  -1  -2  685.72   32.24
   3  -1  -2  621.77   32.28
   3  -1  -2  633.35   32.37
   3  -1  -2  598.13   32.38
  -3   1   2  623.97   32.27
  -3   1   2  589.46   32.23
  -3   1   2  624.34   32.29
  -3   1   2  635.76   32.25
  -3   1   2  684.49   32.32
   2  -1  -2   67.72    3.48
   2  -1  -2   67.06    3.52
   2  -1  -2   64.70    3.54
   2  -1  -2   64.30    3.48
   2  -1  -2   66.79    3.61
  -2   1   2   67.57    3.57
  -2   1   2   64.20    3.53
  -2   1   2   70.13    3.49
  -2   1   2   61.83    3.48
  -2   1   2   61.05    3.50
   0  -1  -2  248.41   13.10
   0  -1  -2  275.14   13.08
   0  -1  -2  248.34   13.02
   0   1   2  242.88   13.08
   0   1   2  270.41   13.04
   0   1   2  248.61   13.10
  -1  -1  -2  154.67    8.37
  -1  -1  -2  175.62    8.38
  -1  -1  -2  156.58    8.28
  -1  -1  -2  163.48    8.34
   1   1   2  161.10    8.38
   1   1   2  160.88    8.33
   1   1   2  162.67    8.40
  -2  -1  -2  344.39   19.06
  -2  -1  -2  362.88   19.10
  -2  -1  -2  366.48   19.13
  -2  -1  -2  383.04   19.12
   2   1   2  381.44   19.10
   2   1   2  407.33   19.07
   2   1   2  371.53   19.14
  -3  -1  -2  155.43    7.79
  -3  -1  -2  158.14    7.82
  -3  -1  -2  138.42    7.75
  -3  -1  -2  141.62    7.77
   3   1   2  151.21    7.78
   3   1   2  149.57    7.85
   3   1   2  140.53    7.81
   3   1   2  152.61    7.75
  -4  -1  -2  114.69    5.76
  -4  -1  -2  109.92    5.79
  -4  -1  -2   97.87    5.71
  -4  -1  -2  110.81    5.75
   4   1   2  107.08    5.70
   4   1   2  105.55    5.80
   4   1   2  110.26    5.79
   4   1   2   93.27    5.69
  -5  -1  -2    6.31    0.92
  -5  -1  -2    6.02    0.79
   5   1   2    5.25    0.78
   5   1   2    6.20    0.83
   5   1   2    5.57    0.86
  -6  -1  -2   21.17    1.65
  -6  -1  -2   18.56    1.63
   6   1   2   19.77    1.67
  -7  -1  -2  100.84    5.89
   8  -2  -2  142.46    7.79
  -8   2   2  140.63    7.98
   7  -2  -2  248.78   13.14
   7  -2  -2  256.76   12.96
  -7   2   2  241.04   13.19
  -7   2   2  243.67   13.11
  -7   2   2  239.84   13.06
   6  -2  -2   72.47    4.28
   6  -2  -2   73.63    4.09
  -6   2   2   74.83    4.19
  -6   2   2   71.53    4.28
  -6   2   2   74.73    4.24
  -6   2   2   67.96    4.14
   5  -2  -2  416.70   19.43
   5  -2  -2  402.61   19.41
   5  -2  -2  361.67   19.57
  -5   2   2  364.36   19.54
  -5   2   2  361.70   19.44
  -5   2   2  379.39   19.47
  -5   2   2  383.06   19.53
  -5   2   2  344.67   19.48
   4  -2  -2   16.34    1.27
   4  -2  -2   17.53    1.18
   4  -2  -2   16.63    1.31
   4  -2  -2   18.27    1.18
  -4   2   2   19.29    1.30
  -4   2   2   20.04    1.25
  -4   2   2   18.64    1.30
  -4   2   2   18.40    1.28
   3  -2  -2    2.36    0.38
   3  -2  -2    2.78    0.34
   3  -2  -2    3.15    0.47
   3  -2  -2    3.72    0.35
  -3   2   2    3.47    0.45
  -3   2   2    3.02    0.41
  -3   2   2    2.81    0.40
  -3   2   2    2.65    0.38
   2  -2  -2   73.42    3.70
   2  -2  -2   71.07    3.71
   2  -2  -2   70.76    3.76
  -2   2   2   75.32    3.89
  -2   2   2   71.62    3.74
  -2   2   2   69.83    3.77
  -2   2   2   68.16    3.83
  -2   2   2   63.16    3.73
   1  -2  -2   35.33    1.90
   1  -2  -2   36.90    1.93
   1  -2  -2   34.51    2.03
   1  -2  -2   35.63    1.92
  -1   2   2   37.23    1.99
  -1   2   2   33.44    1.92
  -1   2   2   37.22    1.94
  -1   2   2   34.72    2.04
   0  -2  -2  297.37   15.68
   0  -2  -2  323.45   15.63
   0  -2  -2  303.54   15.57
   0   2   2  292.20   15.65
   0   2   2  331.14   15.59
   0   2   2  286.98   15.69
  -1  -2  -2   25.12    1.64
  -1  -2  -2   30.52    1.65
  -1  -2  -2   26.72    1.51
  -1  -2  -2   29.06    1.60
   1   2   2   29.04    1.69
   1   2   2   28.59    1.66
   1   2   2   31.70    1.62
  -2  -2  -2  545.35   27.95
  -2  -2  -2  571.53   27.98
  -2  -2  -2  560.36   27.98
  -2  -2  -2  504.02   27.88
   2   2   2  569.47   27.97
   2   2   2  541.24   28.02
  -3  -2  -2  201.11   10.73
  -3  -2  -2  194.47   10.68
  -3  -2  -2  218.51   10.75
  -3  -2  -2  201.56   10.74
   3   2   2  216.73   10.82
   3   2   2  202.66   10.73
   3   2   2  210.10   10.67
  -4  -2  -2  223.24   11.84
  -4  -2  -2  213.16   11.80
  -4  -2  -2  223.79   11.84
  -4  -2  -2  244.21   11.84
   4   2   2  235.28   11.78
   4   2   2  232.32   12.01
   4   2   2  213.57   11.88
  -5  -2  -2  345.41   18.84
  -5  -2  -2  383.60   18.85
  -5  -2  -2  350.41   18.82
   5   2   2  365.46   19.02
   5   2   2  368.98   18.95
   5   2   2  365.26   18.80
  -6  -2  -2    9.48    1.19
  -6  -2  -2    9.69    1.19
   6   2   2   10.97    1.33
   6   2   2   10.82    1.40
  -7  -2  -2  207.26   11.23
   7  -3  -2   81.02    4.54
  -7   3   2   78.41    4.83
  -7   3   2   83.02    4.82
  -7   3   2   77.88    4.71
   6  -3  -2   69.27    3.98
   6  -3  -2   74.85    4.00
  -6   3   2   68.73    4.07
  -6   3   2   75.21    4.24
  -6   3   2   71.02    4.23
  -6   3   2   66.89    4.09
   5  -3  -2  457.74   22.58
   5  -3  -2  461.58   22.56
  -5   3   2  433.76   22.77
  -5   3   2  449.15   22.81
  -5   3   2  416.70   22.65
  -5   3   2  448.48   22.69
  -5   3   2  413.87   22.77
   4  -3  -2  102.98    5.58
   4  -3  -2  108.34    5.60
   4  -3  -2  104.59    5.77
  -4   3   2  105.20    5.77
  -4   3   2  112.57    5.75
  -4   3   2  105.95    5.75
  -4   3   2  108.48    5.82
  -4   3   2   99.37    5.66
   3  -3  -2  383.66   19.23
   3  -3  -2  395.16   19.09
   3  -3  -2  348.47   19.06
  -3   3   2  382.23   19.24
  -3   3   2  370.88   19.17
  -3   3   2  382.41   19.32
  -3   3   2  379.29   19.34
  -3   3   2  351.70   19.16
   2  -3  -2  570.29   29.67
   2  -3  -2  593.98   29.55
  -2   3   2  617.87   29.55
  -2   3   2  584.76   29.68
  -2   3   2  534.59   29.52
   1  -3  -2  157.95    8.52
   1  -3  -2  181.26    8.56
   1  -3  -2  163.84    8.74
   1  -3  -2  172.42    8.51
  -1   3   2  150.23    8.58
  -1   3   2  164.81    8.75
  -1   3   2  165.98    8.64
  -1   3   2  178.07    8.60
   0  -3  -2  391.60   20.48
   0  -3  -2  428.26   20.38
   0   3   2  362.54   20.50
   0   3   2  433.09   20.38
   0   3   2  384.26   20.44
  -1  -3  -2   11.14    0.72
  -1  -3  -2   10.73    0.76
  -1  -3  -2   11.55    0.83
   1   3   2   10.97    0.85
   1   3   2   11.41    0.81
  -2  -3  -2    1.78    0.41
  -2  -3  -2    2.78    0.28
  -2  -3  -2    2.60    0.34
   2   3   2    2.99    0.42
   2   3   2    2.35    0.36
  -3  -3  -2   17.44    1.14
  -3  -3  -2   15.99    1.15
  -3  -3  -2   15.79    1.05
  -3  -3  -2   16.33    1.15
   3   3   2   14.62    1.15
   3   3   2   16.54    1.02
   3   3   2   17.52    1.24
  -4  -3  -2  131.45    7.55
  -4  -3  -2  154.78    7.57
  -4  -3  -2  136.61    7.54
  -4  -3  -2  139.03    7.49
   4   3   2  138.44    7.43
   4   3   2  142.90    8.33
   4   3   2  146.99    7.84
  -5  -3  -2   59.53    3.43
  -5  -3  -2   55.00    3.35
   5   3   2   58.22    3.55
   5   3   2   59.08    3.69
   5   3   2   54.84    3.32
  -6  -3  -2    8.63    1.25
  -6  -3  -2    6.54    1.09
   6   3   2    8.43    1.34
   6   3   2    9.16    1.53
  -7   4   2  108.45    6.42
  -7   4   2  112.24    6.46
  -7   4   2  113.35    6.33
   6  -4  -2   23.06    1.52
  -6   4   2   24.02    1.73
  -6   4   2   21.00    1.82
  -6   4   2   22.91    1.82
   5  -4  -2    3.51    0.56
   5  -4  -2    3.67    0.49
  -5   4   2    3.80    0.83
  -5   4   2    3.25    0.91
   4  -4  -2   10.61    0.72
   4  -4  -2    9.63    0.70
  -4   4   2   11.52    1.04
  -4   4   2   11.06    0.96
  -4   4   2   10.33    0.97
  -4   4   2   13.14    1.07
   3  -4  -2   72.14    3.96
  -3   4   2   74.77    4.11
  -3   4   2   70.87    3.96
  -3   4   2   76.85    4.14
  -3   4   2   70.33    3.91
  -3   4   2   67.17    3.92
   2  -4  -2  308.13   15.89
   2  -4  -2  315.94   15.70
  -2   4   2  295.39   15.71
  -2   4   2  305.62   15.90
  -2   4   2  306.05   15.71
   1  -4  -2   14.06    1.06
   1  -4  -2   16.38    0.86
  -1   4   2   15.43    0.94
  -1   4   2   14.18    1.09
  -1   4   2   14.37    0.97
  -1   4   2   13.93    0.91
   0  -4  -2  554.63   27.92
   0   4   2  549.89   27.88
   0   4   2  533.90   27.97
  -1  -4  -2  480.03   25.15
  -1  -4  -2  486.71   25.12
  -1  -4  -2  504.99   25.28
   1   4   2  458.49   25.31
   1   4   2  519.96   25.19
   1   4   2  512.90   25.28
  -2  -4  -2  378.61   19.52
  -2  -4  -2  380.27   19.51
  -2  -4  -2  381.84   19.60
   2   4   2  360.37   19.60
   2   4   2  396.32   19.66
   2   4   2  389.65   19.56
  -3  -4  -2  550.01   28.56
  -3  -4  -2  540.01   28.56
  -3  -4  -2  566.80   28.60
   3   4   2  532.74   28.60
   3   4   2  590.41   28.75
   3   4   2  572.79   28.95
  -4  -4  -2   11.32    0.91
  -4  -4  -2   11.14    1.01
  -4  -4  -2   12.05    1.10
   4   4   2   11.23    1.11
   4   4   2   10.28    1.26
  -5  -4  -2  109.39    5.80
  -5  -4  -2  100.92    5.65
   5   4   2  100.16    5.95
   5   4   2  103.87    6.20
  -6  -4  -2   71.19    4.30
   6   4   2   70.25    4.77
  -7   5   2  437.60   21.70
  -7   5   2  369.56   21.00
  -6   5   2   48.96    3.08
  -6   5   2   49.51    3.20
  -6   5   2   49.55    3.28
  -5   5   2  268.89   14.11
  -5   5   2  254.52   14.15
  -5   5   2  281.67   14.37
  -5   5   2  275.99   14.24
   4  -5  -2  255.82   13.49
  -4   5   2  258.53   13.42
  -4   5   2  235.24   13.44
  -4   5   2  262.58   13.50
  -4   5   2  277.58   13.63
  -4   5   2  258.32   13.65
   3  -5  -2   10.68    0.90
  -3   5   2   11.96    0.92
  -3   5   2   10.83    1.03
  -3   5   2   12.39    1.17
  -3   5   2   10.59    0.86
  -3   5   2   10.80    0.91
   2  -5  -2  255.52   13.03
  -2   5   2  254.36   13.10
  -2   5   2  247.72   13.06
  -2   5   2  252.01   13.31
  -2   5   2  258.81   13.14
   1  -5  -2  182.24    9.94
  -1   5   2  197.47   10.04
  -1   5   2  185.41    9.66
  -1   5   2  200.31    9.78
  -1   5   2  179.75    9.82
   0  -5  -2   49.05    2.84
   0   5   2   51.33    2.71
   0   5   2   50.42    2.79
   0   5   2   45.14    2.87
  -1  -5  -2    4.40    0.58
   1   5   2    3.55    0.53
   1   5   2    4.60    0.63
   1   5   2    3.61    0.48
  -2  -5  -2   93.12    4.93
  -2  -5  -2   89.80    4.78
  -2  -5  -2   91.95    4.77
   2   5   2   81.80    4.85
   2   5   2   95.14    5.00
   2   5   2   88.44    4.93
  -3  -5  -2  224.30   11.16
  -3  -5  -2  218.53   11.15
  -3  -5  -2  223.95   11.24
   3   5   2  187.67   11.82
   3   5   2  214.70   11.66
  -4  -5  -2    8.51    0.95
   4   5   2    8.65    1.12
   4   5   2    9.53    1.42
  -5  -5  -2  274.54   14.06
   5   5   2  268.80   14.34
   5   5   2  259.66   14.65
  -7   6   2   11.09    2.12
  -6   6   2    0.52    0.67
  -6   6   2    0.43    0.68
  -6   6   2    0.48    0.60
  -5   6   2   51.90    3.31
  -5   6   2   47.43    3.35
  -5   6   2   49.19    3.10
  -4   6   2  345.68   18.20
  -4   6   2  364.07   18.29
  -4   6   2  362.57   18.52
  -4   6   2  302.61   18.22
  -4   6   2  386.44   18.54
   3  -6  -2   14.28    1.04
  -3   6   2   12.78    1.02
  -3   6   2   13.11    1.47
  -3   6   2   13.42    1.03
  -3   6   2   11.09    1.20
  -3   6   2   11.86    1.07
  -2   6   2  668.03   32.94
  -2   6   2  648.98   33.20
  -2   6   2  617.61   32.93
  -2   6   2  647.30   32.86
   1  -6  -2  215.09   11.67
  -1   6   2  231.30   11.49
  -1   6   2  230.33   11.77
  -1   6   2  211.57   11.52
   0  -6  -2  102.29    5.71
   0   6   2  103.04    5.65
   0   6   2  102.86    5.80
   0   6   2  111.44    5.59
  -1  -6  -2  530.91   26.54
   1   6   2  525.70   26.55
   1   6   2  491.24   26.61
   1   6   2  520.59   26.44
  -2  -6  -2   53.34    3.16
   2   6   2   55.44    3.21
   2   6   2   55.89    3.27
  -3  -6  -2  237.95   11.52
   3   6   2  206.81   11.83
   3   6   2  223.56   12.27
   4   6   2   41.53    3.22
   4   6   2   39.72    2.81
  -6   7   2  335.68   17.45
  -6   7   2  328.35   17.53
  -5   7   2    3.36    0.75
  -5   7   2    2.98    0.86
  -5   7   2    3.42    0.83
  -4   7   2   63.15    3.66
  -4   7   2   59.50    3.62
  -4   7   2   64.56    3.98
  -3   7   2   46.85    2.62
  -3   7   2   43.69    2.93
  -3   7   2   46.09    2.66
  -3   7   2   39.53    2.69
  -2   7   2   16.45    1.21
  -2   7   2   16.46    1.07
  -2   7   2   17.03    1.29
  -2   7   2   16.33    1.48
  -1   7   2    6.03    0.71
  -1   7   2    6.30    0.89
  -1   7   2    4.92    0.72
   0  -7  -2   56.64    3.45
   0   7   2   56.66    3.29
   0   7   2   60.36    3.52
   0   7   2   59.62    3.35
  -1  -7  -2  225.53   11.85
   1   7   2  221.58   11.87
   1   7   2  231.23   12.00
   1   7   2  224.33   11.95
   2   7   2   30.61    2.10
   2   7   2   29.95    2.50
   3   7   2  281.71   15.42
   3   7   2  281.83   14.92
   4   7   2  204.79   11.17
  -4   8   2  334.92   17.85
  -3   8   2  385.73   19.96
  -3   8   2  371.08   19.60
  -2   8   2  124.58    7.13
  -2   8   2  143.32    7.54
  -1   8   2  380.49   18.52
  -1   8   2  324.62   18.18
   0   8   2   11.19    2.03
   0   8   2   13.66    1.22
   1   8   2   18.65    1.62
   1   8   2   18.80    1.64
   2   8   2   50.46    3.15
   2   8   2   45.81    3.58
   3   8   2   19.06    2.01
  -3   9   2   42.44    3.19
  -2   9   2   29.50    2.43
  -1   9   2  179.27    9.82
   1  10  -3   21.61    2.41
   0  10  -3  293.26   15.94
  -1  10  -3    8.37    1.66
  -2  10  -3  386.70   20.28
  -3  10  -3  115.59    6.76
   3   9  -3   46.13    3.75
   2   9  -3  182.75   10.42
   1   9  -3    5.96    1.33
   0   9  -3   17.20    1.23
   0   9  -3   15.92    1.33
   0   9  -3   14.50    1.69
  -1   9  -3   56.35    4.22
  -1   9  -3   66.07    3.60
  -1   9  -3   63.55    3.72
  -2   9  -3   15.25    1.54
  -2   9  -3   17.11    1.52
  -2   9  -3   13.59    1.54
  -3   9  -3   54.12    3.31
  -3   9  -3   50.71    3.43
  -4   9  -3    7.31    1.53
  -4   9  -3    9.99    1.42
   5   8  -3   88.43    5.38
   4   8  -3   81.63    4.53
   4   8  -3   67.67    5.03
   3   8  -3  159.85    8.46
   3   8  -3  154.14    9.06
   2   8  -3  338.13   17.35
   2   8  -3  333.60   17.99
   1   8  -3   18.55    1.39
   1   8  -3   17.61    1.20
   1   8  -3   17.94    1.22
   1   8  -3   17.01    1.70
   1   8  -3   17.92    1.17
   0   8  -3  317.04   16.59
   0   8  -3  311.89   17.01
   0   8  -3  334.34   16.58
  -1   8  -3  300.45   16.72
  -1   8  -3  328.30   16.53
  -1   8  -3  324.19   16.46
  -2   8  -3   45.21    2.77
  -2   8  -3   44.81    2.67
  -2   8  -3   39.24    2.71
  -3   8  -3  211.09   11.52
  -3   8  -3  218.84   11.18
  -3   8  -3  220.61   11.64
  -4   8  -3   36.57    2.57
  -4   8  -3   36.86    2.65
  -5   8  -3   16.17    1.83
  -5   8  -3   15.14    1.77
   5   7  -3   30.97    3.01
   5   7  -3   32.72    2.45
   4   7  -3  223.87   11.64
   4   7  -3  213.07   12.15
   3   7  -3    2.74    0.64
   3   7  -3    2.97    0.56
   3   7  -3    2.49    0.80
   3   7  -3    2.33    0.58
   2   7  -3   17.35    1.26
   2   7  -3   20.20    1.41
   2   7  -3   19.65    1.74
   2   7  -3   17.06    1.25
   1   7  -3    2.81    0.69
   1   7  -3    2.02    0.35
   1   7  -3    2.70    0.40
   1   7  -3    1.40    0.29
   0   7  -3  116.18    6.24
   0   7  -3  119.47    6.26
   0   7  -3  116.29    6.57
  -1   7  -3  198.93   10.24
  -1   7  -3  189.99   10.42
  -1   7  -3  196.62   10.27
  -2   7  -3   99.45    5.32
  -2   7  -3   96.35    5.24
  -2   7  -3   93.82    4.94
  -2   7  -3   90.16    5.21
  -3   7  -3  310.04   15.91
  -3   7  -3  308.86   16.79
  -3   7  -3  307.65   15.84
  -3   7  -3  310.88   16.23
  -4   7  -3  177.74    9.25
  -4   7  -3  174.81    9.56
  -4   7  -3  177.31    9.62
  -5   7  -3  137.36    7.45
  -5   7  -3  143.96    7.52
  -5   7  -3  113.10    7.27
  -6   7  -3  360.11   18.87
   6   6  -3   36.91    2.78
   5   6  -3   39.66    2.60
   5   6  -3   35.03    2.99
   4   6  -3  459.75   25.91
   4   6  -3  482.20   26.03
  -4  -6   3  554.23   25.30
  -4  -6   3  486.65   25.25
   3   6  -3   55.87    3.80
   3   6  -3   59.38    3.44
   3   6  -3   59.19    3.46
   3   6  -3   67.76    3.55
   2   6  -3  435.70   23.90
   2   6  -3  427.26   23.47
   2   6  -3  496.64   23.61
   2   6  -3  476.65   23.48
   1   6  -3  428.20   22.54
   1   6  -3  438.45   22.10
   1   6  -3  434.02   22.10
   0   6  -3   18.14    1.28
   0   6  -3   24.45    1.60
  -1   6  -3  311.16   15.91
  -1   6  -3  311.17   15.91
  -1   6  -3  301.34   16.00
  -2   6  -3   20.84    1.20
  -2   6  -3   19.90    1.40
  -2   6  -3   18.87    1.33
  -2   6  -3   21.62    1.16
  -3   6  -3    1.03    0.25
  -4   6  -3    3.35    0.66
  -4   6  -3    4.22    0.59
  -5   6  -3  118.94    6.74
  -6   6  -3   34.51    2.36
  -6   6  -3   30.99    2.59
  -6   6  -3   32.52    2.56
  -7  -5   3   26.48    2.31
   6   5  -3   81.93    4.91
   6   5  -3   78.35    5.31
  -6  -5   3   85.73    4.73
   5   5  -3   20.14    1.99
   5   5  -3   23.13    1.70
  -5  -5   3   21.77    1.54
  -5  -5   3   20.12    1.53
   4   5  -3    6.02    0.90
   4   5  -3    7.89    1.09
   4   5  -3    4.91    0.72
  -4  -5   3    6.38    0.67
  -4  -5   3    5.57    0.62
   3   5  -3   39.44    2.72
   3   5  -3   42.89    2.45
   3   5  -3   38.82    2.41
   3   5  -3   44.71    2.53
  -3  -5   3   41.29    2.23
  -3  -5   3   39.77    2.25
   2   5  -3   16.22    1.34
   2   5  -3   17.10    1.09
   2   5  -3   15.55    1.07
   1   5  -3  332.27   17.58
   1   5  -3  350.31   17.63
   1   5  -3  353.86   17.64
   1   5  -3  346.15   17.99
   0   5  -3    1.44    0.36
  -1   5  -3  878.48   44.72
  -2   5  -3  220.92   11.56
  -2   5  -3  228.04   11.80
  -2   5  -3  215.62   11.64
  -2   5  -3  239.25   11.60
  -3   5  -3  327.50   16.41
  -3   5  -3  317.08   16.46
  -3   5  -3  315.44   16.63
  -4   5  -3  412.17   20.45
  -4   5  -3  398.39   20.33
  -4   5  -3  376.38   20.74
  -5   5  -3    3.04    0.65
  -5   5  -3    3.58    0.73
  -6   5  -3  118.49    7.12
  -6   5  -3  132.32    6.97
   7   4  -3   64.44    4.50
  -7  -4   3   63.49    3.97
   6   4  -3  328.06   17.80
   6   4  -3  329.19   18.17
  -6  -4   3  360.76   17.73
   5   4  -3   78.75    5.06
   5   4  -3   84.47    4.82
   5   4  -3   98.86    5.41
  -5  -4   3   87.41    4.72
  -5  -4   3   75.54    4.66
   4   4  -3  386.93   20.87
   4   4  -3  386.52   20.59
   4   4  -3  387.50   20.57
   4   4  -3  450.80   20.69
  -4  -4   3  405.55   20.45
  -4  -4   3  375.74   20.46
   3   4  -3  403.09   21.83
   3   4  -3  431.81   21.58
   3   4  -3  403.33   21.57
   3   4  -3  477.91   21.71
  -3  -4   3  393.85   21.43
  -3  -4   3  412.59   21.48
   2   4  -3    2.65    0.35
   2   4  -3    2.70    0.49
   2   4  -3    2.55    0.45
   2   4  -3    2.53    0.49
   1   4  -3  239.48   11.60
   1   4  -3  224.46   11.85
   1   4  -3  229.01   11.60
   1   4  -3  218.46   11.52
   1   4  -3  221.11   11.52
  -1  -4   3  225.05   11.75
   0   4  -3  224.30   11.27
   0   4  -3  211.35   11.27
   0   4  -3  228.24   11.53
  -1   4  -3   51.28    2.79
  -1   4  -3   50.14    2.66
  -1   4  -3   51.56    2.66
  -1   4  -3   49.84    2.84
  -2   4  -3    4.04    0.38
  -2   4  -3    5.82    0.45
  -3   4  -3   22.84    1.34
  -3   4  -3   18.62    1.38
  -3   4  -3   18.81    1.24
  -4   4  -3  289.41   16.09
  -4   4  -3  320.24   15.94
  -4   4  -3  309.68   16.03
   4  -4   3  306.62   15.76
   4  -4   3  317.41   15.77
   5  -4   3    3.09    0.50
   5  -4   3    4.47    0.52
  -6   4  -3  313.34   17.10
  -6   4  -3  328.64   16.95
   6  -4   3  328.04   16.65
  -7   4  -3  156.93    9.51
   7   3  -3    2.81    0.83
   7   3  -3    2.39    1.08
  -7  -3   3    2.09    0.76
   6   3  -3   13.01    1.32
   6   3  -3   14.36    1.54
  -6  -3   3   12.95    1.29
  -6  -3   3   14.51    1.28
  -6  -3   3   14.16    1.02
   5   3  -3   31.47    2.57
   5   3  -3   29.62    2.23
   5   3  -3   32.30    2.16
  -5  -3   3   33.11    1.99
  -5  -3   3   29.13    2.00
  -5  -3   3   31.59    1.74
  -5  -3   3   25.55    1.93
   4   3  -3  225.18   12.52
   4   3  -3  228.55   12.73
   4   3  -3  263.01   12.63
   4   3  -3  247.10   12.55
  -4  -3   3  246.17   12.48
  -4  -3   3  241.24   12.45
  -4  -3   3  242.30   12.69
  -4  -3   3  226.32   12.52
   3   3  -3  356.63   17.83
   3   3  -3  335.73   18.01
   3   3  -3  377.24   17.93
   3   3  -3  339.54   17.81
  -3  -3   3  330.32   17.72
  -3  -3   3  352.30   17.97
  -3  -3   3  332.91   17.75
   2   3  -3   57.74    3.11
   2   3  -3   57.60    3.10
   2   3  -3   51.41    3.31
  -2  -3   3   61.53    3.25
  -2  -3   3   59.38    3.02
  -2  -3   3   52.72    3.04
   1   3  -3  569.87   31.20
  -1  -3   3  658.32   31.34
   0   3  -3  472.71   24.09
   0  -3   3  470.15   24.03
  -1   3  -3  323.25   16.31
  -1   3  -3  342.37   16.28
  -1   3  -3  292.77   16.34
  -2   3  -3  652.02   34.19
  -2   3  -3  693.28   34.31
  -3   3  -3    7.92    0.74
  -3   3  -3    8.14    0.65
  -3   3  -3    9.03    0.73
   3  -3   3    9.03    0.61
   3  -3   3    7.98    0.59
  -4   3  -3  146.23    7.71
  -4   3  -3  143.17    7.85
  -4   3  -3  146.98    7.79
   4  -3   3  145.80    7.61
   4  -3   3  147.06    7.62
  -5   3  -3   77.49    4.79
  -5   3  -3   79.42    4.55
   5  -3   3   76.52    4.27
   5  -3   3   79.40    4.28
  -6   3  -3    2.50    0.68
  -6   3  -3    3.05    0.67
   6  -3   3    3.65    0.77
  -7   3  -3    3.18    0.99
   7  -3   3    3.96    0.76
   8   2  -3  237.08   13.17
   7   2  -3   90.92    5.62
   7   2  -3   87.89    5.36
  -7  -2   3   95.60    5.35
  -7  -2   3   89.80    5.41
  -7  -2   3   97.90    5.13
   6   2  -3  210.98   11.84
   6   2  -3  223.42   11.65
  -6  -2   3  225.80   11.41
  -6  -2   3  221.56   11.60
  -6  -2   3  211.79   11.65
   5   2  -3  559.68   28.11
   5   2  -3  534.74   27.89
  -5  -2   3  548.71   27.94
  -5  -2   3  570.04   27.71
  -5  -2   3  538.39   28.03
  -5  -2   3  499.88   27.86
  -5  -2   3  546.62   27.87
   4   2  -3    8.45    0.90
   4   2  -3    8.36    0.77
   4   2  -3    9.50    0.86
   4   2  -3    8.01    0.86
  -4  -2   3    8.63    0.65
  -4  -2   3    9.01    0.76
  -4  -2   3    9.35    0.78
  -4  -2   3    9.81    0.92
  -4  -2   3    8.45    0.79
   3   2  -3  243.21   12.62
   3   2  -3  250.56   12.48
   3   2  -3  257.73   12.55
   3   2  -3  252.04   12.46
  -3  -2   3  223.50   12.29
  -3  -2   3  219.77   12.43
  -3  -2   3  252.36   12.41
  -3  -2   3  212.94   12.39
  -3  -2   3  252.74   12.58
   2   2  -3   27.03    1.55
   2   2  -3   30.89    1.68
   2   2  -3   28.10    1.68
   2   2  -3   30.34    1.75
  -2  -2   3   26.10    1.63
  -2  -2   3   32.11    1.64
  -2  -2   3   29.60    1.79
  -2  -2   3   26.02    1.54
   1   2  -3   43.79    2.53
   1   2  -3   47.32    2.70
   1   2  -3   49.26    2.57
  -1  -2   3   48.66    2.53
  -1  -2   3   44.59    2.55
  -1  -2   3   46.58    2.51
  -1  -2   3   55.14    2.70
   0   2  -3   53.48    2.72
   0   2  -3   47.82    2.77
   0   2  -3   46.20    2.69
   0  -2   3   48.16    2.64
   0  -2   3   58.52    2.77
   0  -2   3   50.38    2.65
  -1   2  -3  112.58    6.18
  -1   2  -3  117.30    6.17
  -1   2  -3  120.87    6.19
   1  -2   3  128.73    6.17
   1  -2   3  121.30    6.14
   1  -2   3  116.06    6.14
  -2   2  -3  194.96   10.12
  -2   2  -3  193.22   10.06
  -2   2  -3  196.23   10.04
   2  -2   3  186.89   10.00
   2  -2   3  203.13   10.01
  -3   2  -3  104.05    5.17
  -3   2  -3   94.12    5.19
  -3   2  -3   92.67    5.10
   3  -2   3   94.09    5.05
   3  -2   3   94.25    5.06
  -4   2  -3  412.39   21.32
  -4   2  -3  430.73   21.40
  -4   2  -3  387.87   21.39
   4  -2   3  425.00   21.25
   4  -2   3  397.92   21.25
   4  -2   3  434.91   21.40
  -5   2  -3  412.51   21.03
  -5   2  -3  409.32   21.13
   5  -2   3  411.41   20.95
   5  -2   3  393.57   20.92
  -6   2  -3   47.55    3.12
  -6   2  -3   47.26    3.02
   6  -2   3   48.15    2.90
  -7   2  -3  269.02   15.20
   7  -2   3  298.43   14.95
   7   1  -3    1.05    0.57
   7   1  -3    1.65    0.81
  -7  -1   3    1.60    0.62
  -7  -1   3    2.37    0.74
   6   1  -3   38.60    2.71
   6   1  -3   46.47    2.60
  -6  -1   3   37.76    2.54
  -6  -1   3   41.04    2.45
  -6  -1   3   37.17    2.58
   5   1  -3  478.86   21.83
   5   1  -3  416.55   21.65
   5   1  -3  399.74   21.80
  -5  -1   3  416.37   21.55
  -5  -1   3  432.20   21.75
  -5  -1   3  420.40   21.66
  -5  -1   3  399.63   21.74
  -5  -1   3  395.10   21.68
   4   1  -3    1.04    0.29
   4   1  -3    1.13    0.38
   4   1  -3    1.33    0.39
  -4  -1   3    1.08    0.29
  -4  -1   3    0.58    0.26
  -4  -1   3    1.12    0.32
  -4  -1   3    1.89    0.32
   3   1  -3  842.71   40.35
   3   1  -3  771.90   40.36
   3   1  -3  816.73   40.43
   3   1  -3  809.83   40.50
  -3  -1   3  694.82   40.31
  -3  -1   3  796.33   40.33
  -3  -1   3  817.30   40.47
   2   1  -3  313.72   15.63
   2   1  -3  308.02   15.54
   2   1  -3  271.18   15.43
   2   1  -3  311.13   15.48
  -2  -1   3  335.52   15.47
  -2  -1   3  272.55   15.48
  -2  -1   3  326.57   15.60
  -2  -1   3  277.80   15.41
   1   1  -3  243.45   11.96
   1   1  -3  212.92   11.82
   1   1  -3  234.97   11.82
   1   1  -3  231.09   11.88
  -1  -1   3  211.43   11.87
  -1  -1   3  253.46   11.93
  -1  -1   3  218.91   11.84
  -1  -1   3  240.17   11.80
  -1   1  -3   11.85    0.81
  -1   1  -3   14.06    0.85
  -1   1  -3   14.13    0.87
   1  -1   3   13.05    0.83
   1  -1   3   13.81    0.82
   1  -1   3   13.57    0.86
  -2   1  -3  120.71    6.59
  -2   1  -3  124.09    6.64
  -2   1  -3  134.54    6.64
   2  -1   3  128.40    6.61
   2  -1   3  125.12    6.58
  -3   1  -3   38.61    2.26
  -3   1  -3   39.03    2.30
  -3   1  -3   38.23    2.29
   3  -1   3   40.21    2.18
   3  -1   3   38.83    2.27
   3  -1   3   38.20    2.21
   3  -1   3   41.35    2.26
  -4   1  -3   82.62    4.52
  -4   1  -3   81.80    4.44
  -4   1  -3   74.11    4.45
   4  -1   3   82.32    4.32
   4  -1   3   80.42    4.39
   4  -1   3   79.80    4.42
   4  -1   3   82.75    4.47
  -5   1  -3    0.66    0.35
   5  -1   3    0.42    0.30
  -6   1  -3   20.16    1.61
  -6   1  -3   18.14    1.65
   6  -1   3   20.08    1.57
   6  -1   3   18.55    1.39
  -7   1  -3   61.51    4.18
   7  -1   3   67.78    4.01
  -8   0   3  133.78    7.44
   7   0  -3  189.66   10.77
   7   0  -3  197.84   10.56
  -7   0   3  192.57   10.68
  -7   0   3  204.43   10.54
  -7   0   3  201.56   10.64
   6   0  -3   26.66    1.87
   6   0  -3   27.45    2.04
  -6   0   3   26.33    1.89
  -6   0   3   30.44    1.89
  -6   0   3   26.51    2.05
  -6   0   3   27.42    1.97
   5   0  -3  115.92    5.84
   5   0  -3  102.68    5.76
   5   0  -3  103.55    5.93
  -5   0   3  105.38    5.80
  -5   0   3  103.80    5.86
  -5   0   3  108.90    5.76
  -5   0   3  103.15    5.85
   4   0  -3  160.80    8.84
   4   0  -3  161.24    8.68
   4   0  -3  170.03    8.72
   4   0  -3  179.77    8.80
  -4   0   3  152.45    8.68
  -4   0   3  168.03    8.68
  -4   0   3  157.02    8.74
  -4   0   3  167.49    8.71
  -4   0   3  171.16    8.80
   3   0  -3    4.94    0.50
   3   0  -3    3.47    0.48
   3   0  -3    3.92    0.43
   3   0  -3    4.77    0.57
  -3   0   3    4.94    0.46
  -3   0   3    4.01    0.53
  -3   0   3    4.40    0.45
  -3   0   3    3.87    0.44
   2   0  -3  205.85   11.14
   2   0  -3  223.67   11.17
   2   0  -3  220.89   11.16
   2   0  -3  225.61   11.29
  -2   0   3  204.96   11.13
  -2   0   3  211.50   11.13
  -2   0   3  234.18   11.24
  -2   0   3  223.05   11.10
  -2   0   3  194.18   11.12
   1   0  -3   21.99    1.38
   1   0  -3   25.11    1.30
  -1   0   3   18.40    1.26
  -1   0   3   20.62    1.26
  -1   0   3   23.04    1.36
  -1   0   3   20.26    1.22
   0   0  -3  483.02   25.49
   0   0  -3  498.05   25.44
   0   0   3  520.67   25.52
  -1   0  -3  127.17    6.69
  -1   0  -3  130.25    6.74
  -1   0  -3  126.74    6.72
  -1   0  -3  125.82    6.68
   1   0   3  134.11    6.69
   1   0   3  130.16    6.73
  -2   0  -3  575.16   29.09
  -2   0  -3  589.47   29.12
  -2   0  -3  559.79   29.06
  -2   0  -3  535.60   29.06
   2   0   3  616.63   29.07
   2   0   3  547.53   29.09
  -3   0  -3  559.76   28.61
  -3   0  -3  575.19   28.65
  -3   0  -3  570.30   28.63
  -3   0  -3  524.44   28.59
   3   0   3  555.71   28.57
   3   0   3  518.43   28.61
   3   0   3  615.87   28.60
  -4   0  -3   76.65    4.52
  -4   0  -3   85.71    4.55
  -4   0  -3   90.28    4.62
   4   0   3   80.48    4.51
   4   0   3   77.21    4.49
   4   0   3   81.84    4.50
   4   0   3   83.01    4.56
  -5   0  -3  387.04   21.45
  -5   0  -3  426.73   21.47
   5   0   3  426.37   21.49
   5   0   3  418.64   21.40
  -6   0  -3   67.61    3.90
  -6   0  -3   62.99    3.89
   6   0   3   63.85    3.76
   6   0   3   60.88    3.84
  -7   0  -3   24.24    2.22
   7   0   3   26.40    2.63
   8  -1  -3   93.84    5.53
  -8   1   3   96.98    5.60
   7  -1  -3  218.59   12.04
   7  -1  -3  228.00   11.80
  -7   1   3  223.81   11.84
  -7   1   3  219.76   11.98
  -7   1   3  220.38   11.88
   6  -1  -3   10.45    1.01
   6  -1  -3   11.84    1.24
  -6   1   3    9.07    1.20
  -6   1   3    8.96    1.01
  -6   1   3    9.06    1.07
  -6   1   3   10.84    1.06
   5  -1  -3  526.55   25.40
   5  -1  -3  491.74   25.60
   5  -1  -3  508.87   25.39
  -5   1   3  458.87   25.39
  -5   1   3  489.70   25.48
  -5   1   3  496.03   25.48
  -5   1   3  487.82   25.42
   4  -1  -3  306.21   16.95
   4  -1  -3  328.70   16.76
   4  -1  -3  345.82   16.87
   4  -1  -3  321.43   16.75
  -4   1   3  344.09   16.82
  -4   1   3  336.57   16.88
  -4   1   3  318.95   16.83
  -4   1   3  318.13   16.80
  -4   1   3  307.50   16.77
   3  -1  -3  136.33    7.07
   3  -1  -3  126.98    7.24
   3  -1  -3  139.40    7.08
   3  -1  -3  146.62    7.15
  -3   1   3  132.84    7.09
  -3   1   3  125.40    7.28
  -3   1   3  136.95    7.13
  -3   1   3  136.52    7.08
  -3   1   3  131.35    7.11
   2  -1  -3  507.10   26.24
   2  -1  -3  468.04   26.24
   2  -1  -3  489.64   26.31
   2  -1  -3  508.62   26.41
   2  -1  -3  531.47   26.23
  -2   1   3  517.45   26.30
  -2   1   3  576.28   26.39
  -2   1   3  492.62   26.23
  -2   1   3  562.64   26.24
  -2   1   3  494.71   26.25
   1  -1  -3  201.76   10.23
   1  -1  -3  181.86   10.22
   1  -1  -3  222.65   10.33
   1  -1  -3  188.79   10.34
  -1   1   3  197.84   10.30
  -1   1   3  199.95   10.24
  -1   1   3  181.35   10.30
  -1   1   3  220.77   10.44
   0  -1  -3  166.35    8.70
   0  -1  -3  160.91    8.72
   0  -1  -3  160.21    8.63
   0   1   3  177.22    8.65
   0   1   3  174.99    8.73
   0   1   3  167.51    8.74
  -1  -1  -3  198.52   10.26
  -1  -1  -3  204.98   10.39
  -1  -1  -3  182.42   10.30
  -1  -1  -3  210.49   10.37
   1   1   3  206.14   10.42
   1   1   3  200.66   10.44
   1   1   3  200.36   10.38
  -2  -1  -3    1.53    0.28
  -2  -1  -3    1.39    0.28
  -2  -1  -3    1.66    0.33
   2   1   3    1.67    0.29
  -3  -1  -3  138.35    7.38
  -3  -1  -3  147.51    7.40
  -3  -1  -3  132.56    7.31
  -3  -1  -3  137.47    7.36
   3   1   3  138.27    7.34
   3   1   3  142.18    7.43
  -4  -1  -3    7.35    0.84
  -4  -1  -3    7.54    0.76
  -4  -1  -3    7.84    0.75
   4   1   3    7.27    0.78
   4   1   3    6.86    0.74
   4   1   3    6.92    0.79
  -5  -1  -3  319.75   17.11
  -5  -1  -3  311.51   17.08
   5   1   3  339.02   17.20
   5   1   3  344.30   17.20
  -6  -1  -3   18.79    1.68
   6   1   3   20.98    1.77
   6   1   3   18.85    1.74
  -7  -1  -3   70.84    4.46
   8  -2  -3    1.42    0.82
  -8   2   3    0.92    0.85
   7  -2  -3   21.15    1.99
   7  -2  -3   21.93    1.65
  -7   2   3   20.82    1.77
  -7   2   3   20.54    1.86
  -7   2   3   18.83    1.72
   6  -2  -3   14.18    1.42
   6  -2  -3    9.75    1.47
  -6   2   3   13.89    1.21
  -6   2   3   11.29    1.29
  -6   2   3   10.71    1.12
  -6   2   3   11.90    1.21
   5  -2  -3  110.85    5.94
   5  -2  -3  101.23    6.16
   5  -2  -3  111.35    5.93
  -5   2   3  111.63    6.07
  -5   2   3  113.14    6.09
  -5   2   3  109.14    6.07
  -5   2   3  113.93    6.03
   4  -2  -3  129.09    6.59
   4  -2  -3  131.06    6.58
   4  -2  -3  128.62    6.70
   4  -2  -3  118.43    6.81
  -4   2   3  122.29    6.69
  -4   2   3  122.00    6.62
  -4   2   3  122.12    6.67
  -4   2   3  124.93    6.71
  -4   2   3  118.13    6.63
   3  -2  -3   59.22    3.04
   3  -2  -3   55.40    3.10
   3  -2  -3   53.34    3.15
  -3   2   3   54.08    3.09
  -3   2   3   52.33    3.06
  -3   2   3   57.91    3.20
  -3   2   3   53.14    3.05
  -3   2   3   56.04    3.16
   2  -2  -3  507.99   25.39
   2  -2  -3  494.95   25.43
   2  -2  -3  504.87   25.41
  -2   2   3  519.52   25.56
  -2   2   3  496.40   25.43
  -2   2   3  468.92   25.46
   1  -2  -3  174.01    8.77
   1  -2  -3  166.27    9.05
   1  -2  -3  192.72    8.86
   1  -2  -3  162.75    8.76
  -1   2   3  175.22    8.81
  -1   2   3  167.50    8.87
  -1   2   3  155.27    8.90
   0  -2  -3  475.84   23.37
   0  -2  -3  440.54   23.44
   0   2   3  437.63   23.43
   0   2   3  475.89   23.41
  -1  -2  -3  579.04   30.78
  -1  -2  -3  568.97   30.69
   1   2   3  608.96   30.84
   1   2   3  643.49   30.72
   1   2   3  616.95   30.80
  -2  -2  -3   34.41    1.93
  -2  -2  -3   35.55    2.07
  -2  -2  -3   36.43    2.06
  -2  -2  -3   34.22    2.01
   2   2   3   35.50    2.11
   2   2   3   33.63    2.01
  -3  -2  -3  481.55   27.33
  -3  -2  -3  540.54   27.43
  -3  -2  -3  553.91   27.46
  -3  -2  -3  566.52   27.47
   3   2   3  539.83   27.44
   3   2   3  534.10   27.52
  -4  -2  -3  155.55    8.53
  -4  -2  -3  166.49    8.62
  -4  -2  -3  161.70    8.59
   4   2   3  154.28    8.75
   4   2   3  169.51    8.79
  -5  -2  -3   97.69    5.40
  -5  -2  -3   93.32    5.33
   5   2   3   94.32    5.48
   5   2   3   98.21    5.63
  -6  -2  -3   15.07    1.48
  -6  -2  -3   14.88    1.50
   6   2   3   15.34    1.63
   6   2   3   11.68    1.66
   7  -3  -3  216.06   11.16
  -7   3   3  218.50   11.46
  -7   3   3  214.28   11.43
  -7   3   3  194.81   11.28
   6  -3  -3  345.61   17.04
   6  -3  -3  334.40   17.04
  -6   3   3  308.44   17.14
  -6   3   3  333.58   17.27
  -6   3   3  340.73   17.30
  -6   3   3  310.93   17.17
   5  -3  -3   52.66    2.82
   5  -3  -3   48.11    2.81
  -5   3   3   47.41    3.02
  -5   3   3   49.10    2.98
  -5   3   3   47.27    2.90
   4  -3  -3  513.64   27.22
   4  -3  -3  533.30   27.22
   4  -3  -3  533.00   27.40
  -4   3   3  535.97   27.40
  -4   3   3  568.78   27.49
  -4   3   3  543.56   27.37
  -4   3   3  505.55   27.33
  -4   3   3  535.35   27.48
   3  -3  -3    8.99    0.60
   3  -3  -3    7.34    0.70
   3  -3  -3    8.15    0.61
  -3   3   3    7.31    0.67
  -3   3   3    7.84    0.85
  -3   3   3    6.83    0.75
   2  -3  -3   17.12    1.05
   2  -3  -3   16.41    0.99
   2  -3  -3   14.91    1.16
   2  -3  -3   15.81    0.96
  -2   3   3   19.02    1.31
  -2   3   3   16.08    1.05
  -2   3   3   14.86    1.02
  -2   3   3   15.00    1.08
  -2   3   3   16.16    1.18
   1  -3  -3   45.70    2.83
   1  -3  -3   54.88    2.70
   1  -3  -3   49.34    2.64
   1  -3  -3   52.00    2.64
  -1   3   3   49.32    2.78
  -1   3   3   48.38    2.72
  -1   3   3   47.14    2.86
   0  -3  -3  236.54   10.76
   0  -3  -3  204.33   10.83
   0  -3  -3  209.32   10.65
   0   3   3  186.91   10.83
   0   3   3  200.47   10.79
  -1  -3  -3   21.66    1.25
  -1  -3  -3   20.34    1.37
   1   3   3   18.77    1.39
   1   3   3   20.25    1.26
   1   3   3   21.34    1.36
  -2  -3  -3    5.15    0.52
  -2  -3  -3    7.11    0.64
  -2  -3  -3    6.38    0.58
  -2  -3  -3    6.16    0.64
   2   3   3    5.45    0.58
   2   3   3    6.70    0.68
  -3  -3  -3  299.59   14.87
  -3  -3  -3  289.60   14.85
  -3  -3  -3  281.75   14.81
  -3  -3  -3  281.94   14.70
   3   3   3  292.79   14.95
   3   3   3  271.64   14.82
  -4  -3  -3  258.56   13.78
  -4  -3  -3  255.53   14.08
  -4  -3  -3  275.03   13.92
   4   3   3  275.35   14.06
  -5  -3  -3  139.59    7.78
  -5  -3  -3  148.36    7.91
   5   3   3  151.04    8.24
   5   3   3  142.00    8.04
  -6  -3  -3  308.84   16.76
   6   3   3  327.82   17.14
  -7   4   3   27.78    2.28
  -7   4   3   27.86    2.22
  -7   4   3   27.59    2.32
   6  -4  -3  121.95    6.49
  -6   4   3  119.16    6.72
  -6   4   3  119.84    6.80
  -6   4   3  125.83    6.91
   5  -4  -3   17.56    1.14
   5  -4  -3   15.87    1.11
  -5   4   3   16.48    1.50
  -5   4   3   15.62    1.29
  -5   4   3   15.83    1.41
  -5   4   3   16.96    1.41
   4  -4  -3  467.34   24.22
   4  -4  -3  463.03   24.23
   4  -4  -3  495.47   24.51
  -4   4   3  451.55   24.42
  -4   4   3  444.56   24.45
  -4   4   3  516.43   24.65
  -4   4   3  481.31   24.62
  -4   4   3  485.95   24.49
   3  -4  -3  215.56   10.57
   3  -4  -3  190.04   10.32
   3  -4  -3  193.58   10.33
  -3   4   3  183.49   10.52
  -3   4   3  199.07   10.72
  -3   4   3  205.99   10.54
  -3   4   3  205.34   10.55
  -3   4   3  223.20   10.85
   2  -4  -3  332.56   18.36
   2  -4  -3  344.88   18.03
   2  -4  -3  339.28   18.03
   2  -4  -3  380.23   18.17
  -2   4   3  379.43   18.23
  -2   4   3  366.84   18.26
  -2   4   3  353.14   18.40
  -2   4   3  342.10   18.15
   1  -4  -3  624.15   32.41
  -1   4   3  676.21   32.26
  -1   4   3  591.90   32.30
  -1   4   3  640.61   32.46
   0  -4  -3   84.57    4.06
   0  -4  -3   73.21    4.27
   0  -4  -3   83.92    4.11
   0   4   3   74.72    4.24
   0   4   3   69.04    4.30
  -1  -4  -3  309.91   16.25
  -1  -4  -3  332.37   16.32
  -1  -4  -3  317.03   16.44
   1   4   3  315.70   16.42
   1   4   3  300.52   16.49
   1   4   3  328.67   16.32
  -2  -4  -3  129.34    6.67
  -2  -4  -3  124.96    6.81
  -2  -4  -3  135.26    6.72
   2   4   3  123.33    6.82
   2   4   3  116.00    6.69
   2   4   3  129.38    6.84
  -3  -4  -3    0.77    0.43
  -4  -4  -3   61.28    3.76
  -4  -4  -3   63.46    3.70
  -4  -4  -3   62.70    3.51
   4   4   3   64.35    3.89
   4   4   3   68.82    4.15
  -5  -4  -3   48.47    2.95
   5   4   3   44.40    3.13
   5   4   3   44.21    3.34
  -6  -4  -3   27.85    2.41
   6   4   3   32.93    3.15
  -7   5   3    0.04    0.82
  -6   5   3  170.01    9.36
  -6   5   3  166.58    9.14
  -6   5   3  169.81    9.22
  -5   5   3  110.59    6.43
  -5   5   3  119.66    6.35
  -5   5   3  111.11    6.35
  -5   5   3  115.10    6.50
   4  -5  -3   80.22    4.56
  -4   5   3   78.01    4.51
  -4   5   3   84.47    4.76
  -4   5   3   83.49    4.80
  -4   5   3   76.49    4.56
  -4   5   3   82.68    4.54
   3  -5  -3   13.22    0.98
  -3   5   3   12.27    1.34
  -3   5   3   11.68    1.13
  -3   5   3   11.36    0.99
  -3   5   3   11.12    0.93
  -3   5   3   13.62    1.06
   2  -5  -3   11.80    0.82
   2  -5  -3   10.99    1.11
  -2   5   3   12.11    0.95
  -2   5   3   12.00    0.84
  -2   5   3   12.21    1.10
  -2   5   3   13.98    1.40
  -2   5   3   11.87    0.95
   1  -5  -3  262.68   14.24
  -1   5   3  284.05   14.33
  -1   5   3  257.64   14.13
  -1   5   3  287.21   14.08
   0   5   3    3.73    0.63
   0   5   3    2.85    0.48
   0   5   3    2.85    0.52
  -1  -5  -3  461.49   21.93
  -1  -5  -3  414.62   21.88
  -1  -5  -3  438.96   22.16
   1   5   3  443.97   22.03
   1   5   3  432.04   22.15
   1   5   3  385.89   22.19
  -2  -5  -3  287.48   14.59
  -2  -5  -3  282.81   14.56
  -2  -5  -3  292.07   14.78
   2   5   3  282.56   14.80
   2   5   3  269.05   14.76
  -3  -5  -3   87.64    5.03
  -3  -5  -3   89.23    4.90
  -3  -5  -3   89.87    4.87
   3   5   3   90.31    5.12
  -4  -5  -3  463.93   23.81
   4   5   3  477.30   24.45
   4   5   3  444.86   24.07
  -5  -5  -3   13.68    1.51
   5   5   3   11.57    2.02
  -6   6   3  349.15   17.67
  -6   6   3  303.49   16.92
  -6   6   3  316.22   17.00
  -5   6   3   82.41    4.90
  -5   6   3   89.01    5.22
  -5   6   3   87.40    4.95
  -4   6   3  123.53    6.62
  -4   6   3  126.95    6.94
  -4   6   3  115.05    6.62
  -4   6   3  122.24    6.99
   3  -6  -3  392.57   21.29
  -3   6   3  415.62   21.41
  -3   6   3  408.46   21.32
  -3   6   3  436.94   21.87
  -3   6   3  411.82   21.67
  -3   6   3  426.77   21.42
  -2   6   3   13.66    1.10
  -2   6   3   13.43    1.12
  -2   6   3   14.73    0.94
  -2   6   3   14.07    1.32
  -1   6   3  313.92   16.05
  -1   6   3  290.43   16.09
  -1   6   3  329.07   16.33
   0  -6  -3  139.20    7.74
   0   6   3  145.51    7.85
   0   6   3  142.32    7.60
   0   6   3  147.57    7.71
  -1  -6  -3   33.75    2.34
   1   6   3   39.76    2.75
   1   6   3   38.10    2.34
   1   6   3   35.18    2.41
  -2  -6  -3    1.33    0.65
   2   6   3    1.27    0.53
   2   6   3    1.59    0.51
   3   6   3   39.23    2.76
   3   6   3   43.33    3.17
   4   6   3  119.73    7.10
   4   6   3  128.43    7.54
  -6   7   3    4.03    1.15
  -6   7   3    3.42    1.05
  -5   7   3    3.71    1.04
  -5   7   3    3.53    0.85
  -5   7   3    4.50    0.89
  -4   7   3   46.22    2.82
  -4   7   3   45.70    3.18
  -3   7   3  112.31    5.97
  -3   7   3  108.16    6.08
  -3   7   3  114.45    6.44
  -2   7   3   20.15    1.58
  -2   7   3   23.00    1.79
  -2   7   3   19.54    1.48
  -1   7   3  334.68   18.26
  -1   7   3  339.59   18.22
  -1   7   3  385.25   18.56
   0   7   3  294.02   15.49
   0   7   3  300.16   15.72
   1   7   3   50.16    3.14
   1   7   3   47.87    3.11
   2   7   3  366.01   19.13
   3   7   3   69.94    4.34
  -4   8   3    3.53    1.06
  -3   8   3   69.94    4.43
  -2   8   3   65.41    4.00
  -2   8   3   74.64    4.37
  -1   8   3    3.82    0.75
  -1   8   3    4.69    0.95
   0   8   3   12.00    1.32
   0   8   3   12.45    1.50
   1   8   3   14.39    1.54
   1   8   3   17.44    2.01
   2   8   3   75.59    4.60
  -2   9   3  326.18   17.37
  -1   9   3   67.27    4.32
   1  10  -4   54.44    4.07
   0  10  -4  106.84    6.55
  -1  10  -4  154.17    9.29
  -2  10  -4    5.24    1.08
  -2  10  -4    5.73    1.14
  -3  10  -4   54.03    3.64
  -3  10  -4   57.45    3.80
   3   9  -4   22.73    2.57
   2   9  -4    8.49    1.64
   1   9  -4    8.83    1.52
   1   9  -4   10.58    1.00
   0   9  -4    8.54    0.97
   0   9  -4    8.30    1.38
   0   9  -4    7.35    0.91
  -1   9  -4  267.04   13.59
  -1   9  -4  270.19   13.61
  -1   9  -4  237.40   13.82
  -2   9  -4   27.94    2.05
  -2   9  -4   28.58    2.11
  -3   9  -4  339.80   18.33
  -3   9  -4  356.06   18.28
  -4   9  -4  117.30    6.93
  -4   9  -4  121.67    6.88
   5   8  -4    2.31    1.00
   4   8  -4  214.84   11.17
   4   8  -4  200.07   11.80
   3   8  -4  155.31    9.24
   3   8  -4  165.39    8.64
   2   8  -4   69.09    3.80
   2   8  -4   64.64    4.36
   1   8  -4  436.08   21.47
   1   8  -4  413.09   22.17
   1   8  -4  411.49   21.51
   0   8  -4    3.26    0.80
   0   8  -4    3.20    0.59
  -1   8  -4  106.35    6.21
  -1   8  -4  113.15    6.02
  -1   8  -4  109.43    6.00
  -2   8  -4   67.12    3.89
  -2   8  -4   62.98    3.99
  -2   8  -4   62.58    3.77
  -3   8  -4    4.78    0.90
  -3   8  -4    4.25    0.89
  -3   8  -4    3.60    0.57
  -4   8  -4   15.38    1.63
  -4   8  -4   14.93    1.61
  -5   8  -4    4.72    1.25
   5   7  -4   11.87    1.51
   5   7  -4   14.26    2.14
   4   7  -4   30.38    2.60
   4   7  -4   28.50    2.10
   3   7  -4   73.30    3.91
   3   7  -4   59.91    3.69
   3   7  -4   64.31    3.74
   3   7  -4   62.12    4.21
   2   7  -4  166.96    8.32
   2   7  -4  150.18    8.13
   2   7  -4  154.29    8.10
   2   7  -4  144.99    8.63
   1   7  -4  272.58   15.03
   1   7  -4  292.03   14.53
   0   7  -4   20.19    1.35
   0   7  -4   21.50    1.69
  -1   7  -4  218.74   11.75
  -1   7  -4  224.43   11.60
  -1   7  -4  220.99   11.63
  -2   7  -4  513.73   26.45
  -2   7  -4  539.83   26.83
  -2   7  -4  496.74   26.67
  -2   7  -4  544.88   26.85
  -2   7  -4  507.66   26.47
  -3   7  -4  100.76    5.31
  -3   7  -4   98.78    5.65
  -3   7  -4  101.42    5.39
  -4   7  -4  357.24   18.66
  -4   7  -4  367.71   19.03
  -5   7  -4   17.28    1.84
  -5   7  -4   16.80    1.79
  -5   7  -4   18.84    1.50
   6   6  -4  332.37   18.38
   6   6  -4  327.71   17.48
   5   6  -4  159.62    9.07
   5   6  -4  155.71    9.53
  -5  -6   4  184.68    8.81
   4   6  -4   79.05    4.60
   4   6  -4   74.65    4.93
   4   6  -4   87.36    4.71
  -4  -6   4   78.14    4.19
  -4  -6   4   77.94    4.20
   3   6  -4  413.23   21.75
   3   6  -4  402.35   21.77
   3   6  -4  479.18   21.96
   3   6  -4  396.62   22.22
   2   6  -4   11.40    0.91
   2   6  -4   11.52    1.20
   2   6  -4   12.88    1.12
   2   6  -4   11.07    0.90
   1   6  -4  114.49    6.16
   1   6  -4  120.80    6.09
   1   6  -4  117.16    6.59
   1   6  -4  118.19    6.16
   0   6  -4   62.63    3.45
   0   6  -4   68.41    3.59
   0   6  -4   62.87    3.44
   0   6  -4   68.25    3.87
  -1   6  -4   60.08    3.09
  -1   6  -4   56.57    3.09
  -1   6  -4   59.31    3.37
  -1   6  -4   58.85    3.40
  -2   6  -4   15.89    1.07
  -2   6  -4   16.11    1.01
  -2   6  -4   15.91    1.23
  -2   6  -4   15.09    0.97
  -3   6  -4   22.29    1.42
  -3   6  -4   20.43    1.31
  -3   6  -4   19.48    1.57
  -4   6  -4  165.54    9.16
  -4   6  -4  175.54    9.36
  -4   6  -4  175.62    9.06
  -5   6  -4  164.54    9.09
  -5   6  -4  164.31    8.79
  -6   6  -4  109.43    6.21
  -7  -5   4   59.21    3.86
   6   5  -4   24.66    2.04
   6   5  -4   24.48    2.47
  -6  -5   4   26.74    1.98
   5   5  -4   22.72    2.16
   5   5  -4   24.54    1.84
  -5  -5   4   26.10    1.73
  -5  -5   4   24.61    1.70
   4   5  -4   13.00    1.13
   4   5  -4   15.81    1.42
   4   5  -4   11.59    1.39
  -4  -5   4   12.81    0.95
   3   5  -4  822.70   37.25
   3   5  -4  770.93   37.07
   3   5  -4  710.66   37.43
   3   5  -4  693.32   37.05
  -3  -5   4  654.54   36.81
  -3  -5   4  703.21   36.85
   2   5  -4   59.48    3.20
   2   5  -4   52.50    3.00
   2   5  -4   51.11    2.99
   2   5  -4   52.32    3.32
   1   5  -4  593.61   29.66
   1   5  -4  554.15   29.22
   1   5  -4  584.66   29.30
   1   5  -4  569.51   29.29
   0   5  -4  381.34   20.69
   0   5  -4  432.03   21.03
  -1   5  -4   38.53    2.15
  -1   5  -4   41.64    2.15
  -1   5  -4   39.24    2.33
  -1   5  -4   38.91    2.36
  -2   5  -4  364.57   18.97
  -2   5  -4  387.80   19.00
  -2   5  -4  362.54   19.20
  -3   5  -4  156.87    8.26
  -3   5  -4  159.26    8.32
  -3   5  -4  158.40    8.50
  -4   5  -4   73.17    4.14
  -4   5  -4   77.03    4.39
  -4   5  -4   74.60    4.27
  -5   5  -4   37.79    2.38
  -5   5  -4   36.19    2.58
  -6   5  -4   45.96    3.26
  -6   5  -4   48.07    3.08
   7   4  -4  195.01   11.56
  -7  -4   4  213.82   11.04
   6   4  -4   22.05    2.17
   6   4  -4   24.13    1.89
  -6  -4   4   23.23    1.78
   5   4  -4  335.01   17.41
   5   4  -4  335.71   17.76
  -5  -4   4  309.73   17.22
  -5  -4   4  353.11   17.30
   4   4  -4   63.00    3.77
   4   4  -4   74.36    3.96
   4   4  -4   62.15    4.02
   4   4  -4   61.90    3.73
  -4  -4   4   70.15    3.63
  -4  -4   4   64.26    4.19
  -4  -4   4   63.04    3.64
   3   4  -4  114.90    5.84
   3   4  -4  106.03    6.09
   3   4  -4  108.01    5.83
   3   4  -4  119.10    5.99
  -3  -4   4  110.45    6.00
  -3  -4   4  102.34    5.70
  -3  -4   4   96.86    5.75
   2   4  -4   98.38    5.28
   2   4  -4   98.99    5.55
   2   4  -4   95.33    5.29
   2   4  -4  108.45    5.47
  -2  -4   4   95.77    5.13
  -2  -4   4   97.57    5.16
  -2  -4   4  100.86    5.45
   1   4  -4   11.31    0.73
   1   4  -4   11.24    0.82
   1   4  -4   12.13    0.99
   1   4  -4   11.98    0.78
  -1  -4   4   11.85    0.90
   0   4  -4  234.74   11.64
   0   4  -4  217.82   11.41
   0   4  -4  215.41   11.41
   0  -4   4  222.82   11.51
  -1   4  -4   12.21    0.81
  -1   4  -4   14.19    0.83
  -1   4  -4   12.94    0.90
   1  -4   4   12.50    0.82
  -2   4  -4  696.03   33.02
  -2   4  -4  594.44   32.91
  -3   4  -4  197.70   10.03
  -3   4  -4  203.82   10.09
  -3   4  -4  184.75   10.19
   3  -4   4  190.71    9.85
   3  -4   4  186.86    9.85
  -4   4  -4  217.58   11.12
  -4   4  -4  199.13   11.55
  -4   4  -4  212.91   11.21
   4  -4   4  218.32   10.94
   4  -4   4  213.91   10.93
  -5   4  -4  352.86   18.66
  -5   4  -4  339.39   18.45
   5  -4   4  369.03   18.27
   5  -4   4  361.03   18.23
  -6   4  -4   30.76    2.12
  -6   4  -4   24.28    2.16
   6  -4   4   26.20    1.75
   7   3  -4   56.49    3.68
   7   3  -4   58.75    4.08
  -7  -3   4   58.80    3.64
   6   3  -4  110.69    6.44
   6   3  -4  113.13    6.74
  -6  -3   4  117.02    6.39
  -6  -3   4  120.12    6.11
   5   3  -4  336.68   19.71
   5   3  -4  395.78   19.62
  -5  -3   4  384.23   19.15
  -5  -3   4  382.70   19.40
   4   3  -4  161.98    8.25
   4   3  -4  146.81    8.31
   4   3  -4  159.57    8.11
   4   3  -4  162.62    8.14
  -4  -3   4  140.61    7.99
  -4  -3   4  153.41    7.99
  -4  -3   4  143.62    8.21
  -4  -3   4  144.65    7.79
   3   3  -4  318.20   16.32
   3   3  -4  347.49   16.45
   3   3  -4  327.13   16.31
  -3  -3   4  294.45   16.18
  -3  -3   4  330.36   16.48
  -3  -3   4  277.02   16.20
   2   3  -4 1000.00   49.21
   2   3  -4  928.92   49.08
   2   3  -4  975.40   49.29
  -2  -3   4  957.88   49.19
   1   3  -4   52.19    2.86
   1   3  -4   48.47    2.82
   1   3  -4   52.56    3.05
  -1  -3   4   54.79    3.02
  -1  -3   4   58.40    2.79
  -1  -3   4   51.05    2.80
   0   3  -4  400.00   20.52
   0   3  -4  401.45   20.39
   0   3  -4  401.36   20.41
   0   3  -4  372.69   20.36
   0  -3   4  423.31   20.46
  -1   3  -4  288.00   14.11
  -1   3  -4  248.41   14.12
   1  -3   4  294.16   14.09
   1  -3   4  270.57   14.00
  -2   3  -4   55.63    3.17
  -2   3  -4   52.49    3.03
  -2   3  -4   60.41    3.09
   2  -3   4   55.96    2.97
   2  -3   4   55.12    2.96
  -3   3  -4   60.52    3.67
  -3   3  -4   67.77    3.63
  -3   3  -4   64.89    3.57
   3  -3   4   63.62    3.48
   3  -3   4   67.09    3.52
  -4   3  -4   29.50    1.91
  -4   3  -4   29.33    2.02
  -4   3  -4   31.30    2.05
   4  -3   4   32.54    1.85
   4  -3   4   30.06    1.82
  -5   3  -4  135.17    7.74
  -5   3  -4  147.91    7.66
   5  -3   4  140.37    7.49
  -6   3  -4    0.87    0.60
   6  -3   4    1.25    0.48
   8   2  -4    7.04    1.68
   7   2  -4  210.74   11.89
   7   2  -4  214.15   11.60
  -7  -2   4  233.57   11.39
  -7  -2   4  206.75   11.63
  -7  -2   4  211.93   11.55
   6   2  -4   17.18    1.69
   6   2  -4   18.07    1.48
  -6  -2   4   18.17    1.53
  -6  -2   4   19.64    1.34
  -6  -2   4   19.48    1.52
  -5  -2   4    2.07    0.39
   4   2  -4    4.04    0.65
   4   2  -4    4.37    0.70
  -4  -2   4    4.45    0.56
  -4  -2   4    4.06    0.57
  -4  -2   4    4.32    0.55
  -4  -2   4    4.64    0.46
   3   2  -4  231.76   12.13
   3   2  -4  256.23   12.28
   3   2  -4  243.80   12.18
   3   2  -4  231.69   12.33
  -3  -2   4  224.45   12.10
  -3  -2   4  224.05   12.06
  -3  -2   4  243.68   12.28
  -3  -2   4  215.03   11.97
   2   2  -4  192.74   10.13
   2   2  -4  187.73   10.19
   2   2  -4  216.17   10.28
   2   2  -4  207.01   10.34
   2   2  -4  172.40   10.06
  -2  -2   4  182.48   10.03
  -2  -2   4  205.49   10.09
  -2  -2   4  182.96   10.11
  -2  -2   4  213.93   10.29
   1   2  -4   12.44    0.87
   1   2  -4   16.25    0.98
   1   2  -4   12.11    0.87
   1   2  -4   13.52    1.02
  -1  -2   4   13.45    0.86
  -1  -2   4   15.56    0.91
  -1  -2   4   14.44    1.00
  -1  -2   4   13.56    0.84
   0   2  -4  629.65   32.56
   0   2  -4  654.70   32.47
   0   2  -4  630.54   32.44
  -1   2  -4  699.88   33.96
  -1   2  -4  635.02   34.11
  -2   2  -4  342.83   17.73
  -2   2  -4  339.76   17.66
  -2   2  -4  349.61   17.68
   2  -2   4  343.77   17.62
   2  -2   4  324.81   17.59
   2  -2   4  366.89   17.62
  -3   2  -4  768.32   37.14
  -3   2  -4  723.99   37.08
  -3   2  -4  719.40   37.16
   3  -2   4  697.89   37.02
  -4   2  -4   27.45    1.91
  -4   2  -4   27.30    1.96
  -4   2  -4   29.51    1.86
   4  -2   4   29.19    1.79
   4  -2   4   31.02    1.81
  -5   2  -4  254.06   13.40
  -5   2  -4  252.59   13.30
   5  -2   4  252.24   13.21
  -6   2  -4   73.98    4.36
  -6   2  -4   71.14    4.42
   6  -2   4   73.61    4.22
   7  -2   4    0.63    0.77
   8   1  -4    3.17    1.38
   7   1  -4  482.82   26.34
   7   1  -4  518.82   26.10
  -7  -1   4  496.83   26.09
  -7  -1   4  514.25   26.21
   6   1  -4  102.42    5.72
   6   1  -4   93.69    5.97
  -6  -1   4  106.14    5.60
  -6  -1   4  105.74    5.74
  -6  -1   4  103.14    5.80
   5   1  -4  232.99   12.62
   5   1  -4  250.95   12.44
  -5  -1   4  250.04   12.32
  -5  -1   4  227.23   12.45
  -5  -1   4  227.19   12.51
  -5  -1   4  229.96   12.40
   4   1  -4  815.53   37.72
   4   1  -4  733.87   37.77
   4   1  -4  762.79   37.57
   4   1  -4  721.15   37.59
  -4  -1   4  737.92   37.48
  -4  -1   4  735.68   37.68
  -4  -1   4  688.12   37.57
  -4  -1   4  706.73   37.52
  -4  -1   4  719.10   37.55
   3   1  -4   19.99    1.33
   3   1  -4   22.82    1.43
   3   1  -4   20.60    1.52
   3   1  -4   21.55    1.37
  -3  -1   4   20.93    1.37
  -3  -1   4   24.40    1.52
  -3  -1   4   20.10    1.38
  -3  -1   4   22.42    1.36
  -3  -1   4   20.56    1.31
   2   1  -4  388.76   19.04
   2   1  -4  354.22   18.90
   2   1  -4  331.67   18.82
   2   1  -4  379.86   18.93
   2   1  -4  373.18   18.83
  -2  -1   4  375.10   18.85
  -2  -1   4  355.71   18.77
  -2  -1   4  381.82   18.98
  -2  -1   4  368.15   18.80
   1   1  -4  224.40   12.99
   1   1  -4  252.09   13.15
   1   1  -4  261.27   12.98
   1   1  -4  250.86   13.05
  -1  -1   4  260.75   13.02
  -1  -1   4  243.11   12.98
  -1  -1   4  261.38   12.94
  -1  -1   4  267.83   13.10
   0   1  -4    3.41    0.42
   0   1  -4    2.84    0.34
   0   1  -4    3.95    0.38
   0  -1   4    2.80    0.37
   0  -1   4    2.75    0.30
   0  -1   4    3.94    0.38
   0  -1   4    3.21    0.34
  -1   1  -4   20.77    1.29
  -1   1  -4   18.07    1.19
   1  -1   4   20.11    1.20
   1  -1   4   20.71    1.24
   1  -1   4   21.12    1.29
  -2   1  -4  173.82    9.19
  -2   1  -4  168.63    9.21
  -2   1  -4  178.85    9.22
   2  -1   4  191.43    9.26
   2  -1   4  171.09    9.18
  -3   1  -4   70.60    3.97
  -3   1  -4   73.57    4.03
  -3   1  -4   67.72    3.93
  -3   1  -4   72.59    3.98
   3  -1   4   68.90    3.88
   3  -1   4   76.18    3.95
  -4   1  -4   65.30    4.11
  -4   1  -4   65.00    3.67
  -4   1  -4   64.39    3.70
   4  -1   4   66.16    3.54
   4  -1   4   60.46    3.60
   4  -1   4   64.80    3.65
  -5   1  -4  232.06   12.11
  -5   1  -4  225.79   12.13
   5  -1   4  226.82   11.89
   5  -1   4  230.60   12.06
  -6   1  -4  396.86   21.67
  -6   1  -4  416.14   21.64
   6  -1   4  431.90   21.60
   7  -1   4   30.00    3.41
  -8   0   4   77.28    4.65
   7   0  -4    1.46    0.84
   7   0  -4    0.96    0.59
  -7   0   4    0.64    0.51
  -7   0   4    0.63    0.59
   6   0  -4    1.11    0.45
   6   0  -4    1.88    0.67
  -6   0   4    0.64    0.42
  -6   0   4    0.85    0.40
   5   0  -4   29.39    2.12
   5   0  -4   29.66    2.01
   5   0  -4   30.28    1.92
  -5   0   4   28.62    2.05
  -5   0   4   29.04    1.89
  -5   0   4   31.74    1.96
  -5   0   4   27.65    1.95
   4   0  -4  464.12   24.40
   4   0  -4  503.96   24.47
   4   0  -4  457.19   24.63
   4   0  -4  544.15   24.58
  -4   0   4  451.54   24.40
  -4   0   4  451.02   24.41
  -4   0   4  478.66   24.54
  -4   0   4  484.88   24.41
  -4   0   4  446.89   24.44
   3   0  -4    2.33    0.42
   3   0  -4    2.03    0.50
   3   0  -4    3.17    0.39
   3   0  -4    2.30    0.43
  -3   0   4    3.19    0.41
  -3   0   4    2.17    0.38
   2   0  -4  765.05   35.68
   2   0  -4  602.89   35.55
   2   0  -4  725.25   35.49
   2   0  -4  632.20   35.46
  -2   0   4  753.27   35.40
   1   0  -4  571.45   28.48
   1   0  -4  522.28   28.46
   1   0  -4  570.48   28.58
   1   0  -4  590.31   28.43
  -1   0   4  528.32   28.41
  -1   0   4  560.89   28.44
   0   0  -4  279.55   15.43
   0   0  -4  281.18   15.42
   0   0   4  342.08   15.57
   0   0   4  312.61   15.37
   0   0   4  297.69   15.46
   0   0   4  288.77   15.44
  -1   0  -4  683.93   37.36
  -1   0  -4  706.59   37.35
   1   0   4  811.22   37.33
  -2   0  -4  204.06   11.02
  -2   0  -4  205.86   11.04
  -2   0  -4  220.34   11.12
  -2   0  -4  212.90   11.09
   2   0   4  221.00   11.03
   2   0   4  215.91   11.10
  -3   0  -4  242.14   11.74
  -3   0  -4  223.39   11.66
  -3   0  -4  221.51   11.68
  -3   0  -4  213.34   11.62
   3   0   4  215.91   11.61
   3   0   4  226.18   11.69
  -4   0  -4  118.68    7.04
  -4   0  -4  123.38    6.95
  -4   0  -4  132.80    6.98
   4   0   4  138.33    6.98
   4   0   4  134.16    7.01
  -5   0  -4   18.97    1.51
  -5   0  -4   17.21    1.47
   5   0   4   20.59    1.48
   5   0   4   20.10    1.55
  -6   0  -4   13.80    1.47
  -6   0  -4   16.13    1.54
   6   0   4   15.30    1.53
   8  -1  -4  116.38    6.86
  -8   1   4  124.63    6.89
   7  -1  -4   94.25    5.88
   7  -1  -4  101.62    5.60
  -7   1   4   97.27    5.73
  -7   1   4   98.63    5.67
  -7   1   4  101.78    5.65
   6  -1  -4  536.49   24.85
   6  -1  -4  472.92   25.10
  -6   1   4  493.25   24.93
  -6   1   4  472.06   24.86
  -6   1   4  439.99   24.90
  -6   1   4  469.84   25.10
   5  -1  -4   40.12    2.42
   5  -1  -4   38.38    2.66
   5  -1  -4   42.04    2.48
  -5   1   4   36.49    2.43
  -5   1   4   38.20    2.47
  -5   1   4   41.67    2.48
  -5   1   4   39.82    2.58
   4  -1  -4  173.12    8.80
   4  -1  -4  156.20    9.00
   4  -1  -4  174.10    8.78
   4  -1  -4  187.96    8.90
  -4   1   4  171.94    8.84
  -4   1   4  162.66    8.78
  -4   1   4  156.44    8.79
  -4   1   4  152.99    8.77
  -4   1   4  162.06    8.89
   3  -1  -4  318.48   15.69
   3  -1  -4  300.31   15.63
   3  -1  -4  297.06   15.75
   3  -1  -4  294.53   15.89
   3  -1  -4  327.14   15.72
  -3   1   4  327.47   15.82
  -3   1   4  310.45   15.72
  -3   1   4  278.23   15.65
  -3   1   4  295.61   15.62
  -3   1   4  287.14   15.66
   2  -1  -4   18.45    1.18
   2  -1  -4   17.10    1.14
   2  -1  -4   16.52    1.31
   2  -1  -4   19.16    1.12
   2  -1  -4   16.84    1.21
  -2   1   4   18.23    1.28
  -2   1   4   17.64    1.11
  -2   1   4   16.21    1.17
  -2   1   4   16.53    1.15
   1  -1  -4   54.72    2.99
   1  -1  -4   55.78    3.13
   1  -1  -4   50.36    2.97
  -1   1   4   61.03    3.22
  -1   1   4   56.93    3.02
  -1   1   4   52.05    3.07
   0  -1  -4    1.75    0.25
   0  -1  -4    1.74    0.35
   0   1   4    1.92    0.33
   0   1   4    1.94    0.34
  -1  -1  -4  643.26   30.06
  -1  -1  -4  574.03   29.91
  -1  -1  -4  548.78   29.97
  -1  -1  -4  583.94   30.06
   1   1   4  592.94   30.07
   1   1   4  588.90   30.11
  -2  -1  -4   33.37    2.01
  -2  -1  -4   31.19    1.97
  -2  -1  -4   32.89    1.88
  -2  -1  -4   35.81    1.97
   2   1   4   33.67    2.02
   2   1   4   30.50    1.91
  -3  -1  -4  363.19   17.87
  -3  -1  -4  331.82   17.78
  -3  -1  -4  350.97   17.83
  -3  -1  -4  327.70   17.72
   3   1   4  352.22   17.88
   3   1   4  343.12   17.87
  -4  -1  -4  400.50   20.24
  -4  -1  -4  359.01   20.13
   4   1   4  379.25   20.28
   4   1   4  425.70   20.36
  -5  -1  -4    7.54    0.95
  -5  -1  -4    7.81    0.99
   5   1   4    6.52    0.98
   5   1   4    5.27    0.97
  -6  -1  -4  381.05   21.02
  -6  -1  -4  418.73   21.13
   6   1   4  410.21   21.13
   6   1   4  404.08   21.16
   8  -2  -4    8.52    1.46
  -8   2   4    9.51    2.06
   7  -2  -4   65.38    5.85
   7  -2  -4   83.14    4.51
  -7   2   4   75.65    4.64
  -7   2   4   74.95    4.57
  -7   2   4   82.74    4.65
   6  -2  -4  194.87   10.10
   6  -2  -4  188.96   10.45
  -6   2   4  193.86   10.19
  -6   2   4  172.08   10.22
  -6   2   4  200.06   10.26
  -6   2   4  191.18   10.24
   5  -2  -4   23.04    1.51
   5  -2  -4   21.70    1.54
   5  -2  -4   19.88    1.78
  -5   2   4   22.44    1.62
  -5   2   4   20.09    1.70
  -5   2   4   22.48    1.58
  -5   2   4   22.82    1.61
   4  -2  -4  396.69   18.57
   4  -2  -4  347.90   18.41
   4  -2  -4  340.49   18.75
   4  -2  -4  368.82   18.44
  -4   2   4  358.42   18.49
  -4   2   4  346.72   18.49
  -4   2   4  365.34   18.62
  -4   2   4  324.76   18.46
  -4   2   4  371.43   18.59
   3  -2  -4  646.41   32.50
   3  -2  -4  594.28   32.51
   3  -2  -4  680.75   32.60
   3  -2  -4  619.27   32.70
  -3   2   4  598.12   32.57
  -3   2   4  659.33   32.68
  -3   2   4  612.39   32.55
  -3   2   4  625.41   32.54
  -3   2   4  703.98   32.78
   2  -2  -4  109.42    5.87
   2  -2  -4  108.72    5.70
   2  -2  -4  104.45    5.66
  -2   2   4  100.34    5.68
  -2   2   4   99.79    5.75
  -2   2   4  118.12    5.98
  -2   2   4  106.87    5.84
  -2   2   4  114.15    5.72
   1  -2  -4  538.30   30.62
   1  -2  -4  586.41   30.65
   1  -2  -4  624.23   30.87
  -1   2   4  594.12   30.83
  -1   2   4  670.89   30.72
  -1   2   4  602.04   30.79
   0  -2  -4  294.06   15.48
   0  -2  -4  285.49   15.32
   0  -2  -4  298.31   15.40
   0  -2  -4  293.11   15.57
   0   2   4  336.63   15.46
   0   2   4  312.85   15.56
   0   2   4  283.23   15.56
  -1  -2  -4  211.41   11.40
  -1  -2  -4  213.11   11.28
  -1  -2  -4  222.24   11.36
  -1  -2  -4  208.20   11.17
   1   2   4  213.70   11.30
   1   2   4  228.32   11.50
   1   2   4  233.75   11.44
  -2  -2  -4   90.07    4.86
  -2  -2  -4   91.19    4.79
  -2  -2  -4   85.01    4.66
  -2  -2  -4   91.03    4.84
   2   2   4   89.00    4.89
   2   2   4   85.58    4.77
  -3  -2  -4   19.24    1.31
  -3  -2  -4   16.91    1.19
  -3  -2  -4   21.09    1.42
  -3  -2  -4   17.74    1.37
   3   2   4   18.12    1.39
  -4  -2  -4   22.86    1.61
  -4  -2  -4   21.93    1.53
   4   2   4   22.48    1.72
   4   2   4   24.12    1.82
  -5  -2  -4   16.17    1.39
  -5  -2  -4   13.19    1.30
   5   2   4   15.85    1.52
  -6  -2  -4  133.37    7.42
  -6  -2  -4  124.14    7.28
   6   2   4  137.80    7.64
   7  -3  -4    5.93    1.05
  -7   3   4    6.68    1.21
  -7   3   4    5.25    1.03
  -7   3   4    5.22    0.97
   6  -3  -4   54.04    3.12
  -6   3   4   52.72    3.34
  -6   3   4   53.00    3.30
  -6   3   4   54.59    3.27
  -6   3   4   48.01    3.41
   5  -3  -4   30.22    1.87
   5  -3  -4   32.88    1.90
  -5   3   4   28.41    2.06
  -5   3   4   26.01    2.12
   4  -3  -4  110.21    5.66
   4  -3  -4  107.28    5.48
   4  -3  -4  102.09    5.47
  -4   3   4  100.58    5.71
  -4   3   4   98.10    5.59
  -4   3   4   98.71    5.58
  -4   3   4   95.80    5.57
  -4   3   4  106.07    5.78
   3  -3  -4   16.71    1.10
   3  -3  -4   15.65    1.34
   3  -3  -4   17.73    1.19
   3  -3  -4   14.80    1.04
  -3   3   4   15.47    1.13
  -3   3   4   15.99    1.38
  -3   3   4   18.10    1.21
  -3   3   4   17.09    1.30
   2  -3  -4    7.56    0.58
   2  -3  -4    8.11    0.66
   2  -3  -4    8.03    0.65
   2  -3  -4    8.21    0.86
  -2   3   4    7.39    0.62
  -2   3   4    8.55    0.72
  -2   3   4    8.03    0.80
   1  -3  -4  220.36   11.55
   1  -3  -4  216.18   11.52
   1  -3  -4  229.98   11.82
   1  -3  -4  252.25   11.66
  -1   3   4  230.91   11.64
  -1   3   4  218.02   11.79
  -1   3   4  206.63   11.69
   0  -3  -4  394.32   19.94
   0  -3  -4  399.35   20.04
   0  -3  -4  386.67   20.16
   0   3   4  369.95   20.18
   0   3   4  408.68   20.01
   0   3   4  382.82   20.12
  -1  -3  -4  342.14   18.73
  -1  -3  -4  365.95   18.65
  -1  -3  -4  367.90   18.59
   1   3   4  390.33   18.64
   1   3   4  362.58   18.74
   1   3   4  345.95   18.79
  -2  -3  -4  678.93   34.04
  -2  -3  -4  689.34   34.11
  -2  -3  -4  646.57   33.97
  -2  -3  -4  604.62   33.88
   2   3   4  701.97   34.16
   2   3   4  675.76   34.01
  -3  -3  -4    5.79    0.67
  -3  -3  -4    4.09    0.80
  -3  -3  -4    4.35    0.77
  -3  -3  -4    4.30    0.52
   3   3   4    5.59    0.84
  -4  -3  -4  391.50   21.28
  -4  -3  -4  412.35   21.44
   4   3   4  435.75   21.80
   4   3   4  419.16   21.62
  -5  -3  -4  127.34    7.41
  -5  -3  -4  137.43    7.48
   5   3   4  138.06    7.66
   5   3   4  140.77    7.82
   6   3   4   19.93    2.49
  -7   4   4   23.82    2.07
  -7   4   4   22.77    2.09
  -7   4   4   23.95    2.24
   6  -4  -4  206.31   10.83
  -6   4   4  214.38   11.17
  -6   4   4  193.36   11.07
  -6   4   4  215.70   11.30
   5  -4  -4  423.19   20.69
   5  -4  -4  402.86   20.69
  -5   4   4  405.71   20.96
  -5   4   4  396.73   21.09
  -5   4   4  371.49   20.89
  -5   4   4  421.90   21.14
   4  -4  -4   44.69    2.72
   4  -4  -4   47.95    2.72
   4  -4  -4   43.53    2.47
  -4   4   4   44.79    2.84
  -4   4   4   42.28    2.64
  -4   4   4   46.49    2.71
  -4   4   4   42.79    2.91
  -4   4   4   41.30    2.69
   3  -4  -4  385.46   20.67
   3  -4  -4  397.32   20.69
   3  -4  -4  407.44   20.85
  -3   4   4  455.23   21.27
  -3   4   4  421.64   20.89
  -3   4   4  398.28   20.83
  -3   4   4  379.53   20.89
  -3   4   4  400.69   21.07
   2  -4  -4  156.33    9.07
   2  -4  -4  163.59    8.75
   2  -4  -4  166.05    8.73
   2  -4  -4  179.35    8.82
  -2   4   4  173.52    9.11
  -2   4   4  165.65    8.95
  -2   4   4  194.18    9.35
  -2   4   4  159.35    8.89
   1  -4  -4   46.37    2.49
   1  -4  -4   47.19    2.43
   1  -4  -4   42.06    2.77
   1  -4  -4   46.95    2.54
  -1   4   4   43.99    2.70
  -1   4   4   45.86    2.63
  -1   4   4   49.69    2.85
   0  -4  -4  106.47    5.52
   0  -4  -4  106.95    5.80
   0   4   4   97.79    5.81
   0   4   4  106.48    5.75
   0   4   4  107.91    5.63
  -1  -4  -4   62.56    3.77
  -1  -4  -4   70.49    3.57
  -1  -4  -4   69.56    3.64
   1   4   4   65.20    3.75
   1   4   4   62.09    3.82
   1   4   4   61.76    3.62
  -2  -4  -4    0.85    0.50
  -2  -4  -4    0.91    0.31
  -2  -4  -4    1.77    0.44
   2   4   4    1.05    0.41
  -3  -4  -4    5.80    1.02
  -4  -4  -4  115.10    6.48
   4   4   4  122.80    6.99
   4   4   4  117.55    6.72
  -5  -4  -4  160.30    8.97
   5   4   4  166.62    9.48
   5   4   4  170.70    9.89
  -6   5   4    1.83    0.71
  -6   5   4    2.05    0.78
  -6   5   4    1.79    0.70
  -5   5   4  127.89    7.17
  -5   5   4  128.31    6.93
  -5   5   4  121.55    6.93
   4  -5  -4    2.58    0.62
  -4   5   4    2.10    0.89
  -4   5   4    2.30    0.65
  -4   5   4    2.02    0.49
  -4   5   4    1.28    0.47
   3  -5  -4  427.65   21.65
  -3   5   4  416.85   21.64
  -3   5   4  457.01   22.19
  -3   5   4  403.48   21.73
  -3   5   4  408.06   21.72
  -3   5   4  416.60   21.96
   2  -5  -4  130.35    6.88
  -2   5   4  125.61    7.05
  -2   5   4  130.71    7.10
  -2   5   4  134.26    7.29
  -2   5   4  140.96    7.56
   1  -5  -4  151.96    8.67
  -1   5   4  171.27    8.75
  -1   5   4  170.95    8.51
  -1   5   4  150.28    8.55
   0  -5  -4  481.15   26.23
   0  -5  -4  525.98   25.92
   0  -5  -4  509.05   25.90
   0   5   4  532.53   26.23
   0   5   4  531.25   26.10
   0   5   4  474.84   26.31
  -1  -5  -4    6.97    1.00
  -1  -5  -4    6.83    0.63
   1   5   4    7.94    0.96
   1   5   4    5.58    0.81
  -2  -5  -4  432.92   21.37
  -2  -5  -4  413.24   21.32
   2   5   4  412.07   21.61
   2   5   4  404.07   21.58
  -3  -5  -4  110.95    6.01
   3   5   4  110.31    6.28
  -4  -5  -4    0.57    0.57
   4   5   4    0.77    0.74
   4   5   4    1.82    0.97
  -6   6   4    4.32    1.02
  -6   6   4    3.05    0.89
  -5   6   4  236.65   12.90
  -5   6   4  254.20   13.20
  -5   6   4  237.74   12.83
  -4   6   4  146.42    8.19
  -4   6   4  142.92    7.83
  -4   6   4  149.03    8.03
   3  -6  -4  104.81    5.90
  -3   6   4  111.93    5.92
  -3   6   4  111.83    6.35
  -3   6   4  114.34    6.09
  -2   6   4   21.19    1.62
  -2   6   4   22.70    1.59
  -2   6   4   23.90    1.80
  -1   6   4    6.72    0.87
  -1   6   4    7.35    0.87
  -1   6   4    7.02    1.03
   0   6   4   99.63    5.63
   0   6   4  102.87    5.80
   1   6   4    2.34    0.65
   1   6   4    1.79    0.56
   2   6   4  148.32    8.16
   3   6   4  112.10    6.45
  -5   7   4  168.37    9.22
  -4   7   4  196.65   10.69
  -4   7   4  189.20   10.33
  -3   7   4  136.31    7.33
  -3   7   4  119.15    7.28
  -2   7   4  339.26   17.22
  -2   7   4  311.30   16.91
  -1   7   4   22.76    1.82
  -1   7   4   26.79    2.05
   0   7   4  316.45   16.60
   0   7   4  310.47   16.40
   1   7   4  105.41    5.98
   1   7   4  104.88    6.06
   2   7   4   19.06    1.83
  -3   8   4   20.68    2.12
  -2   8   4   22.76    2.06
  -2   8   4   17.08    1.65
  -1   8   4   29.41    2.37
  -1   8   4   27.25    2.11
   0   8   4  119.58    6.70
   0   8   4  120.29    6.93
   1   8   4  216.20   11.63
   2   8   4   26.26    2.94
   2  10  -5    2.86    1.52
   1  10  -5   96.68    6.23
   0  10  -5   79.07    5.21
  -1  10  -5    8.85    1.27
  -2  10  -5    7.52    1.21
  -3  10  -5    4.41    1.19
  -3  10  -5    6.00    1.24
   3   9  -5   87.58    5.84
   2   9  -5    2.70    1.10
   1   9  -5  358.73   19.08
   1   9  -5  351.07   18.41
   0   9  -5  127.61    6.68
   0   9  -5  119.81    7.11
   0   9  -5  116.85    7.02
  -1   9  -5  175.69    9.39
  -1   9  -5  180.41    9.36
  -1   9  -5  167.29    9.64
  -2   9  -5  199.04   10.77
  -2   9  -5  201.31   10.78
  -3   9  -5   55.96    3.53
  -3   9  -5   51.63    3.51
  -4   9  -5  113.96    6.75
  -4   9  -5  113.99    6.74
   5   8  -5  359.02   18.96
   4   8  -5    1.75    1.10
   4   8  -5    0.12    0.66
   3   8  -5  215.54   11.10
   3   8  -5  201.72   11.70
   2   8  -5   50.93    3.03
   2   8  -5   50.28    3.62
   2   8  -5   53.24    3.30
   1   8  -5    1.77    0.40
   1   8  -5    0.74    0.64
   1   8  -5    0.85    0.40
   0   8  -5    2.11    0.75
   0   8  -5    2.12    0.53
   0   8  -5    2.27    0.40
   0   8  -5    2.79    0.57
   0   8  -5    3.25    0.48
  -1   8  -5   11.13    1.02
  -1   8  -5    8.41    0.99
  -1   8  -5    8.83    1.21
  -2   8  -5  157.81    8.42
  -2   8  -5  159.67    8.46
  -2   8  -5  144.11    8.22
  -2   8  -5  155.68    7.99
  -3   8  -5   16.48    1.60
  -3   8  -5   20.64    1.58
  -3   8  -5   17.11    1.64
  -4   8  -5  193.92   10.63
  -4   8  -5  194.03   10.64
   5   7  -5  139.16    7.59
   5   7  -5  130.46    8.18
   4   7  -5    3.21    1.08
   4   7  -5    3.76    0.74
   3   7  -5  176.92    9.82
   3   7  -5  175.95   10.36
   3   7  -5  187.60    9.87
   3   7  -5  202.25   10.08
   2   7  -5  399.09   20.67
   2   7  -5  389.22   21.24
   2   7  -5  379.35   20.68
   2   7  -5  440.86   20.96
   1   7  -5  108.12    6.16
   1   7  -5  112.48    5.64
   1   7  -5  102.90    5.62
   1   7  -5  105.33    5.53
   1   7  -5  101.15    5.52
   0   7  -5  545.90   29.69
   0   7  -5  632.72   29.85
   0   7  -5  613.24   30.25
   0   7  -5  543.51   29.69
  -1   7  -5    9.73    1.04
  -1   7  -5   10.64    0.74
  -1   7  -5   11.64    1.04
  -1   7  -5    9.79    0.77
  -2   7  -5  146.06    8.37
  -2   7  -5  152.33    7.84
  -2   7  -5  156.26    7.88
  -2   7  -5  148.50    7.96
  -3   7  -5   60.71    3.74
  -3   7  -5   61.83    3.47
  -3   7  -5   60.89    3.39
  -4   7  -5   24.18    1.71
  -4   7  -5   26.58    2.07
  -5   7  -5    3.30    0.98
  -5   7  -5    4.69    0.81
   6   6  -5    5.58    1.76
   6   6  -5    7.21    1.40
   5   6  -5   96.51    6.27
   5   6  -5  103.12    5.82
  -5  -6   5  104.43    5.47
   4   6  -5   83.90    5.23
   4   6  -5   78.82    5.27
  -4  -6   5   85.52    4.39
  -4  -6   5   82.87    4.37
   3   6  -5   11.54    1.39
   3   6  -5   13.11    1.10
   3   6  -5   13.01    1.17
   3   6  -5   14.54    1.42
   2   6  -5    7.68    0.73
   2   6  -5    6.08    0.97
   2   6  -5    7.23    0.77
   2   6  -5    6.37    0.95
   1   6  -5   28.94    2.11
   1   6  -5   28.97    1.67
   1   6  -5   29.76    1.74
   1   6  -5   29.20    1.77
   0   6  -5  236.14   11.88
   0   6  -5  215.48   11.45
   0   6  -5  216.35   11.46
  -1   6  -5  104.61    5.26
  -1   6  -5   94.67    5.24
  -1   6  -5   99.68    5.52
  -1   6  -5  100.19    5.49
  -2   6  -5  224.28   11.95
  -2   6  -5  228.23   12.00
  -2   6  -5  246.41   11.99
  -2   6  -5  229.01   12.24
  -3   6  -5  529.11   26.01
  -3   6  -5  493.87   26.23
  -3   6  -5  498.42   25.94
  -4   6  -5   46.89    2.72
  -4   6  -5   43.46    2.97
  -5   6  -5  391.74   20.46
  -5   6  -5  384.22   20.14
  -6   6  -5   29.37    2.34
  -7  -5   5  225.37   12.09
   6   5  -5   23.76    2.06
   6   5  -5   26.72    2.56
   5   5  -5  419.43   22.55
   5   5  -5  433.57   22.15
  -5  -5   5  457.03   21.95
  -5  -5   5  392.26   21.85
   4   5  -5  272.11   14.07
   4   5  -5  300.48   14.34
   4   5  -5  245.25   14.39
  -4  -5   5  265.03   13.84
  -4  -5   5  257.64   13.80
   3   5  -5   87.35    4.96
   3   5  -5  102.09    5.20
   3   5  -5   82.56    5.27
   3   5  -5   92.70    4.97
  -3  -5   5   85.81    4.72
  -3  -5   5   89.43    4.70
   2   5  -5  398.23   21.16
   2   5  -5  361.36   20.74
   2   5  -5  444.07   21.03
   2   5  -5  419.75   20.81
  -2  -5   5  401.29   20.96
   1   5  -5  248.43   12.77
   1   5  -5  232.08   12.35
   1   5  -5  230.26   12.39
  -1  -5   5  251.58   12.59
   0   5  -5  279.43   14.60
   0   5  -5  290.67   14.86
   0   5  -5  277.86   14.59
   0  -5   5  289.76   14.70
  -1   5  -5  180.68    9.81
  -1   5  -5  183.98    9.68
  -1   5  -5  196.82    9.69
  -2   5  -5    9.74    0.76
  -2   5  -5    9.32    0.90
  -2   5  -5    8.04    0.68
  -3   5  -5    5.59    0.75
  -3   5  -5    6.90    0.65
  -3   5  -5    5.02    0.81
  -4   5  -5   11.75    1.01
  -4   5  -5    9.61    1.14
  -5   5  -5   88.42    5.22
  -5   5  -5   86.59    4.97
  -6   5  -5  101.79    5.86
   7   4  -5   47.68    3.88
  -7  -4   5   54.40    3.45
   6   4  -5   48.69    3.63
   6   4  -5   47.61    3.19
  -6  -4   5   54.86    3.20
   5   4  -5   18.37    1.49
   5   4  -5   19.54    1.82
  -5  -4   5   19.31    1.46
   4   4  -5   43.38    2.59
   4   4  -5   42.14    2.87
   4   4  -5   48.19    2.87
   4   4  -5   40.73    2.64
  -4  -4   5   41.31    2.44
  -4  -4   5   37.16    2.44
   3   4  -5   12.37    1.08
   3   4  -5   12.19    1.23
   3   4  -5   13.63    1.24
   3   4  -5   15.71    1.06
  -3  -4   5   12.55    0.90
  -3  -4   5   13.34    1.21
  -3  -4   5   12.76    0.92
   2   4  -5  568.30   30.91
   2   4  -5  690.01   31.17
   2   4  -5  622.13   30.97
   2   4  -5  622.03   31.24
   2   4  -5  542.66   30.75
  -2  -4   5  629.70   31.11
  -2  -4   5  560.75   30.75
  -2  -4   5  612.09   30.80
   1   4  -5  109.37    6.05
   1   4  -5  108.47    6.02
   1   4  -5  116.14    6.32
  -1  -4   5  115.55    5.89
  -1  -4   5  126.48    6.22
  -1  -4   5  114.49    5.89
   0   4  -5  420.90   21.45
   0   4  -5  387.35   21.32
   0   4  -5  415.80   21.26
   0   4  -5  418.45   21.26
   0  -4   5  437.89   21.36
  -1   4  -5  410.07   20.97
  -1   4  -5  394.36   21.05
   1  -4   5  426.50   20.96
  -2   4  -5    3.44    0.53
  -2   4  -5    2.34    0.35
  -2   4  -5    2.56    0.43
  -3   4  -5  464.78   25.29
  -3   4  -5  489.04   25.50
  -3   4  -5  522.72   25.38
   3  -4   5  480.46   25.14
   3  -4   5  514.23   25.15
  -4   4  -5  185.63   10.30
  -4   4  -5  191.38   10.14
   4  -4   5  196.86    9.94
   4  -4   5  193.50    9.93
  -5   4  -5   70.16    4.34
  -5   4  -5   70.47    4.15
   5  -4   5   73.36    3.92
  -6   4  -5   86.80    5.51
  -6   4  -5   96.66    5.38
   7   3  -5  105.38    6.14
   7   3  -5  105.50    6.53
  -7  -3   5  106.78    6.07
   6   3  -5  555.20   27.80
   6   3  -5  493.58   28.05
  -6  -3   5  534.44   27.70
  -6  -3   5  563.29   27.40
   5   3  -5   46.43    2.87
   5   3  -5   44.18    3.11
  -5  -3   5   45.67    2.82
  -5  -3   5   48.75    2.57
   4   3  -5  581.41   28.26
   4   3  -5  521.51   28.15
   4   3  -5  526.07   28.44
   4   3  -5  615.80   28.43
  -4  -3   5  546.71   27.89
  -4  -3   5  531.27   28.32
  -4  -3   5  517.21   28.05
   3   3  -5   79.25    4.74
   3   3  -5   80.39    4.55
   3   3  -5   79.18    4.31
   3   3  -5   75.49    4.48
   3   3  -5   95.33    4.74
  -3  -3   5   84.05    4.67
  -3  -3   5   84.80    4.42
  -3  -3   5   79.26    4.30
  -3  -3   5   80.98    4.44
   2   3  -5  140.81    7.99
   2   3  -5  158.04    8.33
   2   3  -5  176.14    8.29
   2   3  -5  149.10    8.06
   2   3  -5  151.86    8.13
  -2  -3   5  148.71    7.93
  -2  -3   5  140.89    8.00
  -2  -3   5  158.82    7.99
  -2  -3   5  161.79    8.24
   1   3  -5  190.25   10.67
   1   3  -5  211.92   10.94
   1   3  -5  199.67   10.70
  -1  -3   5  207.44   10.61
  -1  -3   5  208.73   10.65
  -1  -3   5  223.22   10.86
   0   3  -5   13.73    0.96
   0   3  -5   13.85    0.93
   0   3  -5   14.13    1.07
   0   3  -5   13.43    0.98
   0  -3   5   13.29    0.84
   0  -3   5   16.16    0.88
   0  -3   5   14.66    1.02
  -1   3  -5   68.00    3.63
  -1   3  -5   58.63    3.64
  -1   3  -5   73.04    3.71
  -1   3  -5   61.57    3.59
   1  -3   5   67.84    3.52
   1  -3   5   65.12    3.51
   1  -3   5   72.52    3.63
  -2   3  -5    1.68    0.32
   2  -3   5    1.13    0.26
   2  -3   5    0.84    0.19
   2  -3   5    0.94    0.21
  -3   3  -5  381.20   19.87
  -3   3  -5  389.56   19.97
  -3   3  -5  371.48   19.81
   3  -3   5  404.49   19.74
   3  -3   5  380.60   19.72
  -4   3  -5  131.89    7.68
  -4   3  -5  138.71    7.59
   4  -3   5  146.27    7.47
   4  -3   5  148.41    7.48
  -5   3  -5   61.65    3.52
  -5   3  -5   54.68    3.60
   5  -3   5   58.22    3.34
  -6   3  -5  259.71   14.04
  -6   3  -5  261.00   14.18
   6  -3   5  271.69   13.84
   8   2  -5    9.98    2.23
   7   2  -5   68.98    4.10
   7   2  -5   62.19    4.37
  -7  -2   5   68.48    4.07
  -7  -2   5   64.31    4.14
   6   2  -5   25.58    2.19
   6   2  -5   28.67    1.98
  -6  -2   5   29.19    1.79
  -6  -2   5   25.69    1.93
  -6  -2   5   25.46    1.99
   5   2  -5   39.68    2.80
   5   2  -5   39.48    3.12
  -5  -2   5   41.19    2.56
  -5  -2   5   43.54    2.42
   4   2  -5  323.33   17.64
   4   2  -5  375.49   17.64
   4   2  -5  319.60   17.38
   4   2  -5  363.84   17.76
  -4  -2   5  311.53   17.30
  -4  -2   5  340.64   17.39
  -4  -2   5  321.25   17.22
  -4  -2   5  332.77   17.55
   3   2  -5  295.63   15.79
   3   2  -5  291.58   15.71
   3   2  -5  308.30   16.06
   3   2  -5  314.98   15.89
  -3  -2   5  304.16   15.78
  -3  -2   5  296.21   15.66
  -3  -2   5  311.35   15.74
  -3  -2   5  323.49   16.10
   2   2  -5  329.86   15.38
   2   2  -5  300.16   15.22
   2   2  -5  300.79   15.30
   2   2  -5  294.64   15.44
   2   2  -5  268.45   15.19
  -2  -2   5  294.61   15.20
  -2  -2   5  311.72   15.37
  -2  -2   5  277.63   15.12
  -2  -2   5  279.63   15.13
   1   2  -5  757.99   37.28
   1   2  -5  661.12   37.09
   1   2  -5  654.52   37.04
  -1  -2   5  838.52   37.22
   0   2  -5    0.70    0.18
   0   2  -5    0.73    0.29
   0  -2   5    1.23    0.25
   0  -2   5    0.61    0.16
   0  -2   5    0.86    0.26
  -1   2  -5  591.82   30.30
  -1   2  -5  553.65   30.24
  -1   2  -5  598.42   30.34
   1  -2   5  653.11   30.22
   1  -2   5  585.29   30.23
   1  -2   5  580.10   30.30
  -2   2  -5  124.11    6.94
  -2   2  -5  133.67    7.00
  -2   2  -5  126.41    7.02
  -2   2  -5  140.82    7.07
   2  -2   5  131.77    6.92
   2  -2   5  135.14    6.90
   2  -2   5  130.40    6.94
  -3   2  -5    7.75    0.81
  -3   2  -5    8.04    0.77
  -3   2  -5    7.43    0.84
   3  -2   5   10.58    0.77
   3  -2   5    9.18    0.76
   3  -2   5    9.34    0.77
  -4   2  -5  115.35    6.35
  -4   2  -5  108.28    6.56
   4  -2   5  119.36    6.21
   4  -2   5  116.98    6.09
   4  -2   5  115.06    6.00
  -5   2  -5   43.95    2.90
  -5   2  -5   43.97    2.83
   5  -2   5   46.55    2.76
  -6   2  -5   22.09    2.03
  -6   2  -5   25.39    2.03
   6  -2   5   24.88    1.90
   8   1  -5  196.19   11.19
   7   1  -5    2.52    0.74
   7   1  -5    2.10    0.95
  -7  -1   5    2.93    0.72
  -7  -1   5    1.50    0.69
  -7  -1   5    1.41    0.63
   6   1  -5  255.58   14.88
   6   1  -5  286.40   14.66
  -6  -1   5  303.57   14.56
  -6  -1   5  272.42   14.65
  -6  -1   5  273.57   14.71
   5   1  -5  100.16    5.98
   5   1  -5  100.25    5.73
  -5  -1   5   99.78    5.88
  -5  -1   5  110.64    5.76
  -5  -1   5  100.76    5.79
  -5  -1   5  111.52    5.67
   4   1  -5   83.75    4.58
   4   1  -5   79.23    4.73
   4   1  -5   75.94    4.46
   4   1  -5   88.50    4.84
  -4  -1   5   81.77    4.45
  -4  -1   5   76.91    4.50
  -4  -1   5   80.29    4.49
  -4  -1   5   81.63    4.41
  -4  -1   5   78.97    4.62
   3   1  -5   54.41    3.14
   3   1  -5   52.50    3.12
   3   1  -5   52.89    3.35
   3   1  -5   59.65    3.24
  -3  -1   5   57.62    3.09
  -3  -1   5   52.91    3.05
  -3  -1   5   57.02    3.29
   2   1  -5   87.58    4.35
   2   1  -5   76.52    4.28
   2   1  -5   82.53    4.33
   2   1  -5   76.56    4.46
   2   1  -5   74.57    4.21
  -2  -1   5   73.58    4.18
  -2  -1   5   74.50    4.16
  -2  -1   5   75.41    4.23
  -2  -1   5   79.68    4.36
   1   1  -5   55.04    3.50
   1   1  -5   66.34    3.55
   1   1  -5   63.33    3.45
   1   1  -5   60.08    3.63
  -1  -1   5   66.40    3.60
  -1  -1   5   60.94    3.47
  -1  -1   5   68.68    3.52
  -1  -1   5   66.18    3.43
   0   1  -5    2.07    0.36
   0  -1   5    2.08    0.34
   0  -1   5    2.14    0.34
   0  -1   5    2.08    0.30
  -1   1  -5  268.31   15.37
  -1   1  -5  295.27   15.44
   1  -1   5  297.22   15.43
   1  -1   5  332.77   15.55
   1  -1   5  303.65   15.37
  -2   1  -5  738.85   38.04
  -2   1  -5  705.21   37.95
  -2   1  -5  677.29   37.95
  -2   1  -5  725.90   38.00
   2  -1   5  788.68   37.94
   2  -1   5  745.30   37.97
   2  -1   5  833.52   38.08
  -3   1  -5  175.63    9.41
  -3   1  -5  177.13    9.44
  -3   1  -5  173.76    9.56
  -3   1  -5  193.73    9.55
   3  -1   5  173.76    9.41
  -4   1  -5  590.05   31.08
  -4   1  -5  581.97   31.10
   4  -1   5  601.22   31.07
   4  -1   5  649.46   30.98
  -5   1  -5   11.43    1.18
  -5   1  -5   12.14    1.21
   5  -1   5   10.36    1.12
   5  -1   5   11.63    1.01
  -6   1  -5  103.65    6.11
  -6   1  -5  106.73    6.09
   6  -1   5  107.05    6.04
   8   0  -5   49.87    4.20
  -8   0   5   53.78    4.05
   7   0  -5    1.10    0.89
   7   0  -5    3.39    0.73
  -7   0   5    1.61    0.67
  -7   0   5    1.73    0.70
   6   0  -5  466.67   23.64
   6   0  -5  429.49   24.50
  -6   0   5  481.12   23.64
  -6   0   5  444.41   23.71
  -6   0   5  460.51   23.68
   5   0  -5  153.24    8.57
   5   0  -5  154.18    8.25
  -5   0   5  168.27    8.27
  -5   0   5  144.88    8.38
  -5   0   5  154.49    8.31
  -5   0   5  148.36    8.32
   4   0  -5  242.21   12.55
   4   0  -5  240.73   12.49
   4   0  -5  234.60   12.78
  -4   0   5  251.41   12.50
  -4   0   5  249.53   12.67
  -4   0   5  233.26   12.46
  -4   0   5  233.98   12.51
  -4   0   5  226.14   12.49
   3   0  -5  492.06   25.69
   3   0  -5  490.30   25.60
   3   0  -5  496.36   25.68
   3   0  -5  466.82   25.87
   3   0  -5  546.80   25.73
  -3   0   5  523.47   25.78
  -3   0   5  508.98   25.62
  -3   0   5  487.13   25.64
  -3   0   5  486.95   25.56
   2   0  -5  126.52    6.54
   2   0  -5  116.86    6.54
   2   0  -5  119.97    6.70
   2   0  -5  121.49    6.43
   2   0  -5  125.58    6.50
  -2   0   5  122.35    6.59
  -2   0   5  112.90    6.44
  -2   0   5  125.23    6.41
  -2   0   5  124.17    6.49
   1   0  -5  443.83   21.99
   1   0  -5  398.38   21.96
   1   0  -5  428.42   22.13
   1   0  -5  441.26   21.88
  -1   0   5  400.47   21.92
  -1   0   5  459.92   21.87
  -1   0   5  420.78   21.94
   0   0  -5  295.14   16.27
   0   0  -5  299.85   16.36
   0   0   5  355.56   16.52
   0   0   5  312.51   16.39
   0   0   5  323.44   16.38
  -1   0  -5   20.11    1.43
  -1   0  -5   23.11    1.38
   1   0   5   21.20    1.43
   1   0   5   22.43    1.37
   1   0   5   23.42    1.56
  -2   0  -5  118.76    6.41
  -2   0  -5  112.99    6.43
  -2   0  -5  127.75    6.54
  -2   0  -5  124.99    6.51
   2   0   5  120.77    6.50
   2   0   5  121.99    6.42
  -3   0  -5   30.17    1.92
  -3   0  -5   31.72    2.02
  -3   0  -5   30.34    1.89
   3   0   5   31.99    1.98
   3   0   5   27.48    1.87
  -4   0  -5   37.79    2.47
  -4   0  -5   41.02    2.53
   4   0   5   42.99    2.59
  -5   0  -5   23.31    1.83
  -5   0  -5   27.50    1.94
   5   0   5   26.38    1.94
   5   0   5   24.60    1.83
  -6   0  -5  111.49    6.59
  -6   0  -5  116.26    6.66
   6   0   5  121.39    6.68
  -8   1   5  119.59    6.87
   7  -1  -5   77.62    5.05
   7  -1  -5   82.76    4.69
  -7   1   5   83.50    4.75
  -7   1   5   77.51    4.80
  -7   1   5   77.53    4.75
   6  -1  -5   19.65    1.57
   6  -1  -5   19.38    2.25
  -6   1   5   22.35    1.72
  -6   1   5   24.39    1.71
  -6   1   5   18.25    1.63
   5  -1  -5   23.26    1.65
   5  -1  -5   24.62    1.97
  -5   1   5   26.33    1.73
  -5   1   5   23.17    1.86
  -5   1   5   20.80    1.83
   4  -1  -5    3.57    0.67
   4  -1  -5    2.35    0.59
   4  -1  -5    1.86    0.47
   4  -1  -5    2.21    0.45
  -4   1   5    1.71    0.41
  -4   1   5    1.47    0.37
  -4   1   5    2.07    0.45
  -4   1   5    2.53    0.50
   3  -1  -5  328.66   18.20
   3  -1  -5  335.87   17.88
   3  -1  -5  333.56   18.04
   3  -1  -5  367.91   17.99
   3  -1  -5  343.95   17.96
  -3   1   5  351.48   18.00
  -3   1   5  364.88   18.12
  -3   1   5  366.47   17.91
  -3   1   5  334.67   17.92
   2  -1  -5    1.98    0.42
   2  -1  -5    2.37    0.44
   2  -1  -5    1.58    0.31
  -2   1   5    2.45    0.40
  -2   1   5    1.32    0.31
  -2   1   5    2.12    0.36
   1  -1  -5  515.30   27.58
   1  -1  -5  519.83   27.42
   1  -1  -5  588.63   27.59
   1  -1  -5  514.43   27.42
  -1   1   5  583.82   27.46
  -1   1   5  503.34   27.52
   0  -1  -5  340.06   18.35
   0  -1  -5  352.55   18.32
   0  -1  -5  354.83   18.23
   0   1   5  347.59   18.40
   0   1   5  379.55   18.25
   0   1   5  359.19   18.37
  -1  -1  -5   20.20    1.24
  -1  -1  -5   21.26    1.39
  -1  -1  -5   19.64    1.40
  -1  -1  -5   20.36    1.31
   1   1   5   22.09    1.48
   1   1   5   20.45    1.40
   1   1   5   20.34    1.32
  -2  -1  -5  632.41   34.61
  -2  -1  -5  707.52   34.81
  -2  -1  -5  644.51   34.69
  -2  -1  -5  696.39   34.77
   2   1   5  697.12   34.70
   2   1   5  701.92   34.82
  -3  -1  -5  189.49   10.26
  -3  -1  -5  201.08   10.44
  -3  -1  -5  202.87   10.38
   3   1   5  193.34   10.44
  -4  -1  -5  246.67   13.29
  -4  -1  -5  262.68   13.39
   4   1   5  255.22   13.49
  -5  -1  -5  139.80    7.55
  -5  -1  -5  128.35    7.44
   5   1   5  136.34    7.63
   5   1   5  142.82    7.68
  -6  -1  -5    1.22    0.87
   8  -2  -5  123.16    6.96
   7  -2  -5  232.23   11.82
  -7   2   5  218.11   11.98
  -7   2   5  231.16   12.00
  -7   2   5  205.35   11.89
   6  -2  -5   98.35    6.71
   6  -2  -5  111.58    5.85
  -6   2   5  105.78    5.96
  -6   2   5  106.52    5.98
  -6   2   5  101.64    5.90
   5  -2  -5  568.22   30.10
   5  -2  -5  587.89   29.66
   5  -2  -5  596.42   29.67
  -5   2   5  567.50   29.87
  -5   2   5  560.03   30.58
  -5   2   5  586.88   29.76
   4  -2  -5   45.11    3.12
   4  -2  -5   55.23    3.02
   4  -2  -5   53.81    2.95
   4  -2  -5   48.92    2.86
  -4   2   5   49.28    2.96
  -4   2   5   48.54    2.93
  -4   2   5   47.37    3.10
  -4   2   5   50.94    3.03
  -4   2   5   46.68    2.93
   3  -2  -5  356.09   18.40
   3  -2  -5  387.49   18.46
   3  -2  -5  338.09   18.33
   3  -2  -5  345.55   18.58
  -3   2   5  333.08   18.38
  -3   2   5  363.80   18.55
  -3   2   5  370.84   18.41
  -3   2   5  370.77   18.65
  -3   2   5  347.15   18.45
   2  -2  -5  200.62   10.43
   2  -2  -5  211.65   10.53
   2  -2  -5  190.43   10.45
   2  -2  -5  195.50   10.65
  -2   2   5  200.44   10.48
  -2   2   5  222.71   10.81
  -2   2   5  194.99   10.59
  -2   2   5  192.25   10.53
   1  -2  -5    7.11    0.56
   1  -2  -5    5.77    0.53
   1  -2  -5    6.32    0.76
   1  -2  -5    6.83    0.71
  -1   2   5    5.85    0.68
  -1   2   5    6.83    0.62
  -1   2   5    5.29    0.63
  -1   2   5    6.95    0.84
   0  -2  -5   25.09    1.63
   0  -2  -5   23.10    1.69
   0  -2  -5   24.27    1.45
   0  -2  -5   24.04    1.52
   0   2   5   27.15    1.75
   0   2   5   28.07    1.71
   0   2   5   25.28    1.56
  -1  -2  -5   19.40    1.46
  -1  -2  -5   21.50    1.24
  -1  -2  -5   19.88    1.34
  -1  -2  -5   23.88    1.47
   1   2   5   21.30    1.49
   1   2   5   21.49    1.56
   1   2   5   20.83    1.38
  -2  -2  -5  123.81    6.91
  -2  -2  -5  126.09    6.77
  -2  -2  -5  134.59    7.04
  -2  -2  -5  132.20    6.98
   2   2   5  133.26    7.07
  -3  -2  -5   18.29    1.22
  -3  -2  -5   17.57    1.49
   3   2   5   19.05    1.49
  -4  -2  -5  127.25    7.02
  -4  -2  -5  126.19    6.89
   4   2   5  131.91    7.18
  -5  -2  -5  222.72   11.88
   5   2   5  210.77   11.99
   5   2   5  233.14   12.12
   7  -3  -5    6.68    1.13
  -7   3   5    4.78    0.96
  -7   3   5    5.15    1.07
  -7   3   5    4.08    0.93
   6  -3  -5   47.31    2.90
  -6   3   5   49.76    3.19
  -6   3   5   45.58    3.07
  -6   3   5   49.47    3.12
   5  -3  -5   60.31    3.45
   5  -3  -5   63.20    3.45
  -5   3   5   59.91    3.91
  -5   3   5   57.21    3.58
  -5   3   5   58.79    3.57
  -5   3   5   60.52    3.70
   4  -3  -5   45.28    2.71
   4  -3  -5   51.15    2.78
   4  -3  -5   46.31    2.87
  -4   3   5   46.40    3.17
  -4   3   5   47.32    2.88
  -4   3   5   47.41    3.09
  -4   3   5   46.74    2.82
   3  -3  -5  335.27   16.10
   3  -3  -5  301.08   16.01
   3  -3  -5  302.16   15.97
  -3   3   5  292.05   16.06
  -3   3   5  311.66   16.27
  -3   3   5  315.22   16.15
  -3   3   5  328.99   16.42
  -3   3   5  298.12   16.04
   2  -3  -5  635.24   34.48
   2  -3  -5  656.89   34.55
   2  -3  -5  672.25   34.82
  -2   3   5  706.89   34.80
  -2   3   5  706.72   34.70
  -2   3   5  689.35   34.62
   1  -3  -5  130.33    7.24
   1  -3  -5  126.38    6.96
   1  -3  -5  143.71    7.10
   1  -3  -5  131.69    6.92
  -1   3   5  122.97    7.13
  -1   3   5  151.27    7.51
  -1   3   5  125.95    7.22
  -1   3   5  133.84    7.06
   0  -3  -5  637.81   31.00
   0  -3  -5  600.15   31.11
   0  -3  -5  566.19   30.85
   0  -3  -5  560.10   30.71
   0   3   5  567.64   31.13
   0   3   5  693.97   30.98
   0   3   5  612.52   31.08
  -1  -3  -5  130.19    6.67
  -1  -3  -5  117.19    6.55
  -1  -3  -5  112.17    6.74
   1   3   5  132.68    6.79
   1   3   5  127.66    6.63
   1   3   5  124.19    6.85
  -2  -3  -5   97.22    4.97
  -2  -3  -5   93.34    5.33
  -2  -3  -5   97.54    5.18
  -2  -3  -5   89.99    5.23
   2   3   5   97.88    5.38
  -3  -3  -5  197.06   10.44
  -3  -3  -5  202.09   10.64
   3   3   5  206.35   10.84
  -4  -3  -5    1.64    0.54
  -4  -3  -5    1.95    0.50
   4   3   5    1.71    0.66
  -5  -3  -5    2.57    0.79
   5   3   5    1.86    1.04
   5   3   5    2.64    1.28
  -7   4   5  309.72   17.06
   6  -4  -5   62.67    3.50
  -6   4   5   59.35    3.79
  -6   4   5   60.41    3.76
  -6   4   5   60.22    3.91
   5  -4  -5  152.15    8.13
  -5   4   5  161.93    8.59
  -5   4   5  144.60    8.37
  -5   4   5  159.12    8.39
   4  -4  -5  152.90    7.70
   4  -4  -5  145.89    7.90
  -4   4   5  135.66    7.90
  -4   4   5  144.62    8.08
  -4   4   5  153.20    7.88
   3  -4  -5    4.68    0.50
   3  -4  -5    3.94    0.69
   3  -4  -5    5.56    0.63
  -3   4   5    6.21    1.19
  -3   4   5    4.13    0.75
  -3   4   5    5.28    0.70
   2  -4  -5   20.31    1.24
   2  -4  -5   18.42    1.21
   2  -4  -5   15.84    1.13
  -2   4   5   21.29    1.39
  -2   4   5   17.56    1.34
  -2   4   5   17.84    1.45
  -2   4   5   17.69    1.72
   1  -4  -5    5.33    0.93
   1  -4  -5    8.64    0.73
   1  -4  -5    6.39    0.57
  -1   4   5    6.25    0.73
  -1   4   5    6.58    1.19
  -1   4   5    7.08    0.78
  -1   4   5    6.35    0.84
   0  -4  -5   60.09    3.29
   0  -4  -5   57.17    3.17
   0  -4  -5   58.17    3.50
   0   4   5   54.72    3.49
   0   4   5   57.05    3.28
   0   4   5   57.80    3.42
  -1  -4  -5  216.44   10.99
  -1  -4  -5  211.49   11.07
   1   4   5  202.36   11.30
   1   4   5  214.36   11.23
  -2  -4  -5  195.77   10.37
  -2  -4  -5  195.05   10.44
   2   4   5  203.12   10.62
  -3  -4  -5  454.52   23.17
   3   4   5  444.39   23.41
  -4  -4  -5    1.28    0.64
   4   4   5    2.58    1.00
   4   4   5    0.71    0.68
  -5  -4  -5  233.00   14.07
   5   4   5  305.27   16.45
  -6   5   5    4.49    0.97
  -6   5   5    2.08    0.78
  -6   5   5    2.56    0.97
  -5   5   5  201.12   10.81
  -5   5   5  195.54   10.53
  -5   5   5  194.47   10.60
   4  -5  -5  280.68   15.80
  -4   5   5  319.81   16.15
  -4   5   5  309.14   15.91
  -4   5   5  303.98   15.78
   3  -5  -5    0.90    0.22
   3  -5  -5    0.98    0.43
  -3   5   5    1.01    0.41
  -3   5   5    0.36    0.41
   2  -5  -5  562.81   28.71
   2  -5  -5  538.91   28.75
   2  -5  -5  547.10   28.72
  -2   5   5  579.35   29.07
  -2   5   5  599.27   29.27
   1  -5  -5  175.45    8.89
   1  -5  -5  177.10    8.87
  -1   5   5  174.93    9.93
  -1   5   5  159.71    9.17
   0  -5  -5   69.03    4.08
   0  -5  -5   81.73    4.00
   0   5   5   78.15    4.34
   0   5   5   67.38    4.61
  -1  -5  -5  196.18    9.98
   1   5   5  186.71   10.27
  -2  -5  -5   15.29    1.22
   2   5   5   16.16    1.49
  -3  -5  -5   13.96    1.29
   3   5   5   14.62    1.59
  -4  -5  -5    1.21    0.80
  -6   6   5   75.74    4.66
  -6   6   5   72.84    4.54
  -5   6   5    1.54    0.66
  -5   6   5    1.09    0.82
  -5   6   5    2.65    0.79
  -4   6   5   27.60    2.32
  -4   6   5   29.99    2.11
  -3   6   5    7.02    1.14
  -3   6   5    6.91    0.96
  -2   6   5  203.04   11.01
  -1   6   5   62.32    4.24
  -1   6   5   70.45    4.13
   0   6   5   89.94    5.32
   0   6   5   90.06    5.15
   1   6   5  355.46   18.11
   1   6   5  334.22   18.19
   2   6   5   37.56    2.70
   3   6   5  339.90   18.10
  -5   7   5    1.43    0.91
  -4   7   5  315.49   17.22
  -4   7   5  326.57   16.89
  -3   7   5  169.28    9.43
  -3   7   5  169.36    9.16
  -2   7   5   68.66    4.10
  -2   7   5   57.82    3.76
  -1   7   5  102.66    5.79
  -1   7   5   91.29    5.50
   0   7   5   12.14    1.42
   0   7   5   12.42    1.62
   1   7   5   15.20    2.62
   1   7   5   13.63    1.64
   2   7   5   10.62    1.73
  -2   8   5  111.31    6.61
  -1   8   5  347.73   17.13
  -1   8   5  291.21   16.82
   0   8   5    9.58    1.56
   0   8   5    9.07    1.79
   2  10  -6   57.62    4.71
   1  10  -6    1.75    1.38
   0  10  -6   36.86    3.21
   0  10  -6   37.14    2.58
  -1  10  -6    0.71    0.71
  -2  10  -6  187.99   10.30
  -3  10  -6  129.38    7.47
   3   9  -6  180.52   10.61
   2   9  -6  281.95   15.59
   1   9  -6   23.41    2.44
   0   9  -6  174.98    9.78
   0   9  -6  171.44    9.35
  -1   9  -6  235.14   11.80
  -1   9  -6  217.21   11.87
  -1   9  -6  214.16   12.02
  -2   9  -6   30.11    2.29
  -2   9  -6   29.53    2.25
  -3   9  -6   38.95    2.84
  -3   9  -6   35.75    2.72
   5   8  -6    1.77    0.93
   4   8  -6    6.10    1.04
   3   8  -6   36.79    3.14
   3   8  -6   37.23    2.47
   2   8  -6  111.20    6.65
   2   8  -6  106.30    5.93
   1   8  -6    1.38    0.43
   1   8  -6    2.50    0.86
   0   8  -6  262.26   12.78
   0   8  -6  243.78   13.24
   0   8  -6  241.54   12.97
   0   8  -6  223.23   12.64
   0   8  -6  254.77   12.80
  -1   8  -6  245.91   12.70
  -1   8  -6  230.97   12.70
  -2   8  -6   74.08    4.00
  -2   8  -6   73.03    4.41
  -3   8  -6  333.43   17.65
  -4   8  -6   75.54    4.76
   5   7  -6   58.24    4.35
   5   7  -6   60.52    3.79
   4   7  -6  626.34   31.47
   4   7  -6  594.21   32.06
   3   7  -6   12.51    1.13
   3   7  -6    9.25    1.51
   2   7  -6  276.23   15.06
   2   7  -6  300.92   15.08
   2   7  -6  293.90   15.68
   1   7  -6   76.32    4.50
   1   7  -6   68.84    3.92
   1   7  -6   73.78    3.83
   1   7  -6   69.35    3.94
   1   7  -6   69.13    3.84
   0   7  -6    7.77    0.79
   0   7  -6    8.09    0.75
   0   7  -6    9.08    0.88
   0   7  -6   10.10    1.17
  -1   7  -6   16.62    1.19
  -1   7  -6   17.05    1.41
  -1   7  -6   16.58    1.14
  -2   7  -6   32.55    1.91
  -2   7  -6   29.12    1.80
  -2   7  -6   30.13    2.13
  -2   7  -6   26.74    1.84
  -3   7  -6   25.20    1.65
  -3   7  -6   24.38    1.95
  -4   7  -6   35.13    2.60
  -4   7  -6   36.90    2.70
  -5   7  -6  112.65    6.33
   6   6  -6    7.59    1.46
   5   6  -6   14.47    2.02
   5   6  -6   18.53    1.62
  -5  -6   6   17.22    1.26
   4   6  -6  166.88    8.69
   4   6  -6  152.54    9.12
  -4  -6   6  160.97    8.29
   3   6  -6    9.35    1.11
   3   6  -6    8.60    1.27
   3   6  -6    9.39    0.95
   2   6  -6  253.86   12.87
   2   6  -6  239.59   13.04
   2   6  -6  227.43   12.56
   2   6  -6  244.47   12.60
   1   6  -6  439.77   22.62
   1   6  -6  420.45   22.67
   1   6  -6  464.62   23.15
   1   6  -6  439.24   22.71
  -1  -6   6  448.76   22.85
   0   6  -6   62.60    3.50
   0   6  -6   67.81    3.85
   0   6  -6   60.52    3.50
  -1   6  -6  556.06   30.69
  -1   6  -6  591.12   30.44
  -1   6  -6  597.92   30.65
  -1   6  -6  641.34   30.47
  -2   6  -6   53.32    2.94
  -2   6  -6   50.03    3.17
  -2   6  -6   51.99    2.87
  -2   6  -6   47.51    2.86
  -3   6  -6   99.04    5.23
  -3   6  -6   91.27    5.29
  -3   6  -6   97.80    5.53
  -4   6  -6  103.18    5.94
  -4   6  -6   99.99    5.85
  -5   6  -6   26.01    2.27
  -5   6  -6   23.36    1.92
  -7  -5   6   92.92    5.70
   6   5  -6  218.02   12.15
   6   5  -6  206.65   12.57
  -6  -5   6  251.28   11.99
   5   5  -6   85.95    5.50
   5   5  -6   88.95    5.09
  -5  -5   6   86.72    4.85
  -5  -5   6   89.20    4.86
   4   5  -6  195.90   10.51
   4   5  -6  188.97   10.88
  -4  -5   6  197.05   10.25
  -4  -5   6  206.77   10.29
   3   5  -6  277.59   13.42
   3   5  -6  246.53   13.52
   3   5  -6  239.35   13.13
   3   5  -6  244.24   13.16
  -3  -5   6  251.42   12.88
  -3  -5   6  248.03   12.90
   2   5  -6   19.36    1.39
   2   5  -6   17.95    1.56
   2   5  -6   17.50    1.27
   2   5  -6   18.17    1.12
  -2  -5   6   18.35    1.45
   1   5  -6   10.70    1.08
   1   5  -6   10.77    0.81
   1   5  -6   10.01    0.82
  -1  -5   6   10.10    0.95
   0   5  -6    4.86    0.54
   0   5  -6    5.43    0.72
   0   5  -6    5.47    0.62
   0   5  -6    4.93    0.60
   0  -5   6    6.03    0.63
  -1   5  -6  132.81    6.95
  -1   5  -6  126.86    7.06
  -1   5  -6  121.18    6.91
  -1   5  -6  137.28    7.08
   1  -5   6  138.84    6.91
  -2   5  -6  139.49    6.82
  -2   5  -6  123.62    6.74
  -2   5  -6  118.58    6.96
  -3   5  -6  141.09    7.81
  -3   5  -6  145.59    7.76
  -3   5  -6  151.30    8.02
  -4   5  -6  391.35   19.76
  -4   5  -6  370.05   19.97
  -5   5  -6    3.19    0.73
  -5   5  -6    2.74    0.82
  -6   5  -6  294.91   16.00
   7   4  -6   12.89    2.38
  -7  -4   6   13.38    1.68
   6   4  -6  173.78   10.39
   6   4  -6  188.56   10.03
  -6  -4   6  188.72    9.90
   5   4  -6   25.36    1.81
   5   4  -6   21.37    2.04
  -5  -4   6   23.03    1.65
   4   4  -6  273.42   14.85
  -4  -4   6  286.25   14.69
  -4  -4   6  292.25   14.73
   3   4  -6  368.64   17.66
   3   4  -6  317.05   17.28
   3   4  -6  327.83   17.88
   3   4  -6  371.11   17.82
   3   4  -6  319.33   17.55
  -3  -4   6  347.08   17.40
  -3  -4   6  330.36   17.72
  -3  -4   6  331.87   17.42
   2   4  -6   18.78    1.37
   2   4  -6   16.64    1.17
   2   4  -6   16.52    1.48
  -2  -4   6   19.09    1.13
  -2  -4   6   18.79    1.15
  -2  -4   6   20.11    1.46
   1   4  -6  430.42   23.67
   1   4  -6  457.05   23.77
   1   4  -6  450.47   23.99
   1   4  -6  462.97   23.72
  -1  -4   6  498.94   23.88
  -1  -4   6  463.92   23.56
  -1  -4   6  477.45   23.55
   0   4  -6  308.47   15.97
   0   4  -6  298.48   16.15
   0   4  -6  307.46   15.99
   0   4  -6  315.39   16.01
   0  -4   6  298.30   15.78
   0  -4   6  338.59   16.07
   0  -4   6  304.09   15.79
  -1   4  -6  226.92   11.01
  -1   4  -6  214.13   11.07
  -1   4  -6  192.46   11.03
   1  -4   6  207.38   10.77
   1  -4   6  221.42   10.95
   1  -4   6  203.58   10.77
  -2   4  -6  257.86   13.70
  -2   4  -6  290.09   13.59
  -2   4  -6  244.61   13.49
   2  -4   6  257.49   13.33
   2  -4   6  254.47   13.34
   2  -4   6  260.63   13.34
  -3   4  -6    1.96    0.52
  -3   4  -6    3.09    0.94
  -3   4  -6    2.35    0.45
   4  -4   6    2.54    0.48
   4  -4   6    1.92    0.41
  -5   4  -6    3.44    0.71
  -5   4  -6    5.69    1.16
   5  -4   6    2.69    0.52
  -6   4  -6   71.79    4.83
   7   3  -6    8.04    1.38
   7   3  -6    7.42    1.71
  -7  -3   6    6.81    1.40
   6   3  -6   98.62    6.19
   6   3  -6   99.03    5.82
  -6  -3   6  107.67    5.80
  -6  -3   6  102.57    5.45
   5   3  -6   77.63    4.59
   5   3  -6   78.39    4.91
  -5  -3   6   82.52    4.28
   4   3  -6    6.92    1.02
   4   3  -6    8.95    1.17
   4   3  -6    8.31    1.10
   4   3  -6    8.49    0.86
  -4  -3   6    7.34    0.78
  -4  -3   6    7.51    0.78
  -4  -3   6    7.86    0.64
   3   3  -6   12.54    0.92
   3   3  -6   12.15    1.00
   3   3  -6   12.25    1.22
   3   3  -6   11.40    1.20
   3   3  -6   14.99    1.19
  -3  -3   6   11.22    0.83
  -3  -3   6   11.58    0.93
  -3  -3   6   12.09    1.18
  -3  -3   6   14.58    0.96
   2   3  -6    2.32    0.43
   2   3  -6    2.95    0.59
   2   3  -6    2.52    0.41
   2   3  -6    1.80    0.48
   2   3  -6    3.55    0.64
  -2  -3   6    2.36    0.37
  -2  -3   6    2.14    0.36
  -2  -3   6    3.20    0.60
   1   3  -6  242.12   12.71
   1   3  -6  237.85   12.77
   1   3  -6  230.27   12.93
  -1  -3   6  238.35   12.59
  -1  -3   6  263.74   12.87
  -1  -3   6  259.72   12.67
   0   3  -6  221.30   11.10
   0   3  -6  206.86   11.05
   0   3  -6  214.94   11.11
   0   3  -6  195.97   11.21
   0  -3   6  223.17   10.98
   0  -3   6  228.71   11.18
   0  -3   6  199.30   10.93
  -1   3  -6  249.62   12.74
  -1   3  -6  243.59   12.70
  -1   3  -6  259.49   12.81
   1  -3   6  235.03   12.59
   1  -3   6  249.36   12.73
   1  -3   6  234.79   12.60
  -2   3  -6  331.16   16.76
  -2   3  -6  311.46   16.61
  -2   3  -6  325.95   16.66
  -2   3  -6  308.96   16.73
   2  -3   6  320.21   16.54
   2  -3   6  321.23   16.52
   2  -3   6  334.31   16.51
  -3   3  -6   42.52    2.58
  -3   3  -6   44.95    2.72
  -3   3  -6   39.62    2.65
   3  -3   6   44.69    2.49
   3  -3   6   44.97    2.49
  -4   3  -6  479.36   24.81
  -4   3  -6  466.89   24.92
   4  -3   6  489.74   24.66
   4  -3   6  486.32   24.65
  -5   3  -6  203.07   10.91
  -5   3  -6  198.29   11.03
   5  -3   6  209.08   10.74
  -6   3  -6   76.67    5.08
  -6   3  -6   90.52    6.02
   6  -3   6   77.33    4.63
   7   2  -6   30.57    2.78
   7   2  -6   32.89    2.44
  -7  -2   6   32.09    2.46
   6   2  -6  104.96    5.89
   6   2  -6   92.89    6.14
  -6  -2   6  109.21    5.66
  -6  -2   6  106.82    5.88
   5   2  -6  501.08   27.59
   5   2  -6  519.14   27.21
  -5  -2   6  561.94   27.02
  -5  -2   6  527.27   27.48
   4   2  -6   19.67    1.41
   4   2  -6   17.76    1.62
  -4  -2   6   18.94    1.24
  -4  -2   6   19.86    1.38
  -4  -2   6   17.62    1.33
   3   2  -6  697.19   32.98
   3   2  -6  619.57   33.13
   3   2  -6  738.35   33.07
   3   2  -6  622.36   32.83
   3   2  -6  593.52   32.78
  -3  -2   6  633.97   32.71
  -3  -2   6  593.20   32.72
  -3  -2   6  637.93   32.98
  -3  -2   6  640.77   32.80
   2   2  -6   65.71    4.18
   2   2  -6   67.08    3.97
   2   2  -6   78.82    4.12
   2   2  -6   81.92    4.10
   2   2  -6   70.94    3.95
  -2  -2   6   70.31    3.89
  -2  -2   6   70.97    3.86
  -2  -2   6   66.60    3.92
  -2  -2   6   71.50    4.10
   1   2  -6  113.67    6.63
   1   2  -6  119.47    6.84
   1   2  -6  121.59    6.61
   1   2  -6  124.13    6.70
  -1  -2   6  130.05    6.63
  -1  -2   6  134.47    6.64
  -1  -2   6  124.99    6.53
  -1  -2   6  130.52    6.76
   0   2  -6  199.53   10.76
   0   2  -6  211.75   10.83
   0   2  -6  198.22   10.81
   0   2  -6  186.06   10.91
   0  -2   6  216.00   10.89
   0  -2   6  219.34   10.78
   0  -2   6  219.00   10.71
  -1   2  -6   46.87    2.82
  -1   2  -6   47.16    2.80
  -1   2  -6   49.47    2.76
   1  -2   6   49.78    2.70
   1  -2   6   48.69    2.73
  -2   2  -6   13.23    1.02
  -2   2  -6   13.58    1.10
  -2   2  -6   13.31    1.15
  -2   2  -6   12.86    1.08
   2  -2   6   15.96    1.12
   2  -2   6   13.25    0.97
   2  -2   6   13.66    1.00
  -3   2  -6    3.57    0.60
  -3   2  -6    2.23    0.46
   3  -2   6    1.97    0.41
   3  -2   6    2.54    0.46
  -4   2  -6   77.05    4.67
  -4   2  -6   80.62    4.64
   4  -2   6   78.76    4.47
   4  -2   6   85.87    4.61
   4  -2   6   84.49    4.38
  -5   2  -6   82.82    5.05
  -5   2  -6   87.71    5.01
   5  -2   6   88.69    4.91
  -6   2  -6   11.83    1.57
   6  -2   6    7.98    1.35
   8   1  -6   48.96    4.03
   7   1  -6   67.37    4.73
   7   1  -6   70.52    4.36
  -7  -1   6   69.15    4.39
  -7  -1   6   79.14    4.26
   6   1  -6    5.94    0.94
   6   1  -6    7.18    1.25
  -6  -1   6    5.49    0.84
  -6  -1   6    6.19    1.02
   5   1  -6   18.52    1.72
   5   1  -6   19.12    1.47
  -5  -1   6   16.82    1.44
  -5  -1   6   20.07    1.38
   4   1  -6   23.44    1.89
   4   1  -6   24.38    1.66
   4   1  -6   23.12    1.61
  -4  -1   6   21.51    1.76
  -4  -1   6   21.72    1.58
  -4  -1   6   24.82    1.54
  -4  -1   6   23.74    1.63
   3   1  -6  113.05    6.16
   3   1  -6  105.23    6.02
   3   1  -6  107.08    6.34
   3   1  -6  112.65    6.10
   3   1  -6  124.60    6.21
  -3  -1   6  111.86    5.97
  -3  -1   6  108.57    6.17
  -3  -1   6  119.08    6.06
  -3  -1   6  104.04    5.95
   2   1  -6  427.83   20.51
   2   1  -6  402.35   20.39
   2   1  -6  383.94   20.68
   2   1  -6  378.26   20.46
   2   1  -6  407.11   20.49
  -2  -1   6  403.51   20.53
  -2  -1   6  390.96   20.40
  -2  -1   6  373.33   20.35
  -2  -1   6  400.55   20.31
   1   1  -6  221.41   12.02
   1   1  -6  213.47   12.08
   1   1  -6  215.61   12.11
   1   1  -6  225.58   12.28
  -1  -1   6  248.63   11.99
  -1  -1   6  230.58   12.07
  -1  -1   6  251.68   12.22
  -1  -1   6  247.95   12.11
   0   1  -6  597.57   32.85
   0   1  -6  635.38   32.87
   0  -1   6  666.97   32.77
   0  -1   6  588.34   32.85
   0  -1   6  656.27   32.87
   0  -1   6  713.40   33.01
  -1   1  -6   15.18    1.11
  -1   1  -6   12.56    1.04
   1  -1   6   14.06    1.15
   1  -1   6   13.80    1.04
  -2   1  -6  413.67   21.35
  -2   1  -6  395.75   21.20
  -2   1  -6  368.69   21.13
  -2   1  -6  386.27   21.15
   2  -1   6  419.75   21.19
   2  -1   6  456.45   21.32
   2  -1   6  438.52   21.13
  -3   1  -6  166.05    9.13
  -3   1  -6  161.11    9.14
   3  -1   6  177.05    9.17
   3  -1   6  188.41    9.26
   3  -1   6  168.73    9.08
  -4   1  -6    3.00    0.70
  -4   1  -6    2.70    0.55
  -5   1  -6  182.34   10.07
  -5   1  -6  180.35   10.06
   5  -1   6  196.41   10.07
  -6   1  -6   18.76    1.93
   6  -1   6   19.33    1.90
   8   0  -6  132.74    8.09
   7   0  -6  199.97   10.90
   7   0  -6  191.61   11.29
  -7   0   6  219.55   10.90
  -7   0   6  203.34   10.96
  -7   0   6  195.00   10.98
   6   0  -6    2.29    0.90
   6   0  -6    1.57    0.51
  -6   0   6    2.09    0.70
  -6   0   6    2.27    0.63
  -6   0   6    0.95    0.47
   5   0  -6  344.44   19.58
   5   0  -6  360.71   19.25
  -5   0   6  362.98   19.29
  -5   0   6  412.41   19.29
  -5   0   6  371.37   19.29
   4   0  -6  244.42   13.41
   4   0  -6  287.10   13.49
   4   0  -6  244.38   13.31
   4   0  -6  231.58   13.63
   4   0  -6  283.73   13.53
  -4   0   6  242.33   13.46
  -4   0   6  262.39   13.32
  -4   0   6  242.36   13.35
   3   0  -6  231.80   12.37
   3   0  -6  264.77   12.39
   3   0  -6  226.71   12.59
   3   0  -6  245.91   12.38
   3   0  -6  228.01   12.24
  -3   0   6  232.94   12.24
  -3   0   6  220.58   12.18
  -3   0   6  236.13   12.42
  -3   0   6  225.09   12.26
   2   0  -6  234.41   11.73
   2   0  -6  212.76   11.57
   2   0  -6  211.69   11.89
   2   0  -6  218.31   11.73
   2   0  -6  237.53   11.66
  -2   0   6  216.34   11.53
  -2   0   6  216.99   11.61
  -2   0   6  227.78   11.78
  -2   0   6  226.57   11.65
   1   0  -6    1.23    0.34
  -1   0   6    1.77    0.36
  -1   0   6    2.36    0.53
  -1   0   6    1.29    0.32
   0   0  -6    2.38    0.48
   0   0  -6    2.32    0.35
   0   0   6    2.63    0.60
   0   0   6    2.30    0.46
   0   0   6    1.37    0.36
   0   0   6    1.64    0.33
  -1   0  -6   12.09    1.06
  -1   0  -6   14.63    1.09
  -1   0  -6   13.79    0.98
   1   0   6   11.70    1.02
   1   0   6   12.97    0.96
   1   0   6   14.16    1.19
  -2   0  -6  173.84    9.38
  -2   0  -6  166.41    9.27
  -2   0  -6  168.17    9.23
   2   0   6  171.16    9.25
   2   0   6  181.58    9.38
   2   0   6  196.29    9.55
  -3   0  -6  232.60   11.88
  -3   0  -6  233.00   11.74
   3   0   6  204.54   12.31
  -4   0  -6   19.84    1.53
  -4   0  -6   21.94    1.61
   4   0   6   19.50    1.62
  -5   0  -6  358.59   19.58
  -5   0  -6  372.95   19.67
   5   0   6  394.63   19.62
   5   0   6  377.36   19.72
  -6   0  -6   19.20    1.99
  -8   1   6    3.13    1.13
   7  -1  -6   38.65    2.57
   7  -1  -6   34.51    3.03
  -7   1   6   34.96    2.62
  -7   1   6   37.78    2.62
  -7   1   6   33.86    2.64
   6  -1  -6   11.55    1.20
   6  -1  -6   12.48    1.59
  -6   1   6   11.51    1.31
  -6   1   6   14.50    1.31
  -6   1   6   10.56    1.23
   5  -1  -6  235.11   14.55
   5  -1  -6  259.72   14.80
  -5   1   6  289.35   14.51
  -5   1   6  305.24   14.54
  -5   1   6  285.98   14.50
   4  -1  -6  103.08    6.51
   4  -1  -6  120.72    6.30
   4  -1  -6  120.59    6.30
   4  -1  -6  123.90    6.20
   4  -1  -6  108.62    6.35
  -4   1   6  118.62    6.26
  -4   1   6  106.77    6.36
  -4   1   6  104.64    6.20
   3  -1  -6  118.83    7.12
   3  -1  -6  122.20    6.73
   3  -1  -6  128.01    6.96
   3  -1  -6  137.91    6.89
   3  -1  -6  138.49    6.87
  -3   1   6  128.12    6.99
  -3   1   6  124.99    6.82
  -3   1   6  116.08    6.77
  -3   1   6  120.03    6.72
   2  -1  -6  408.93   22.36
   2  -1  -6  421.16   22.41
   2  -1  -6  429.16   22.59
   2  -1  -6  481.97   22.55
  -2   1   6  430.56   22.38
  -2   1   6  480.80   22.72
  -2   1   6  420.43   22.47
  -2   1   6  418.30   22.48
   1  -1  -6  137.51    7.91
   1  -1  -6  150.98    7.75
   1  -1  -6  152.06    7.90
  -1   1   6  152.27    7.76
  -1   1   6  169.98    8.12
  -1   1   6  136.47    7.85
  -1   1   6  129.80    7.82
   0  -1  -6  568.33   29.73
   0  -1  -6  594.33   29.86
   0  -1  -6  539.97   29.87
   0   1   6  585.15   29.90
   0   1   6  581.94   29.93
   0   1   6  623.44   29.77
  -1  -1  -6  306.86   16.77
  -1  -1  -6  289.52   16.64
  -1  -1  -6  333.27   16.76
  -1  -1  -6  299.28   16.56
   1   1   6  317.95   16.79
   1   1   6  371.43   17.07
   1   1   6  356.86   16.92
   1   1   6  309.63   16.84
  -2  -1  -6   84.61    4.40
  -2  -1  -6   78.56    4.59
  -2  -1  -6   75.79    4.73
  -2  -1  -6   86.66    4.51
   2   1   6   78.92    4.59
  -3  -1  -6  103.85    5.69
  -3  -1  -6  107.98    5.82
   3   1   6  104.56    5.91
  -4  -1  -6   39.11    2.47
  -4  -1  -6   38.63    2.55
   4   1   6   41.17    2.70
  -5  -1  -6    6.63    1.18
  -5  -1  -6    7.43    1.17
   5   1   6    7.19    1.31
   5   1   6    6.56    1.30
   7  -2  -6  252.94   13.38
  -7   2   6  248.11   13.54
  -7   2   6  242.98   13.53
  -7   2   6  265.25   13.59
   6  -2  -6   76.08    4.37
  -6   2   6   71.69    4.49
  -6   2   6   75.93    4.49
  -6   2   6   77.92    4.55
  -5   2   6   44.54    2.75
  -5   2   6   40.53    2.67
  -5   2   6   40.98    2.73
   4  -2  -6  118.74    6.19
   4  -2  -6  106.97    6.03
   4  -2  -6  112.47    6.12
  -4   2   6  115.72    6.24
  -4   2   6  110.85    6.15
  -4   2   6  104.16    6.31
   3  -2  -6   29.84    1.89
   3  -2  -6   27.26    2.06
   3  -2  -6   25.71    1.72
   3  -2  -6   29.33    1.83
  -3   2   6   26.39    1.80
  -3   2   6   25.74    2.04
  -3   2   6   28.65    1.90
  -3   2   6   26.87    1.83
   2  -2  -6   11.32    0.96
   2  -2  -6   14.35    1.13
  -2   2   6   12.15    1.04
  -2   2   6   11.17    1.29
  -2   2   6   11.52    1.00
  -2   2   6   14.63    1.13
   1  -2  -6    7.72    0.88
   1  -2  -6    8.06    0.94
   1  -2  -6    7.19    0.74
   1  -2  -6    7.11    0.65
  -1   2   6    8.19    0.77
  -1   2   6    8.21    0.86
   0  -2  -6  322.63   16.03
   0  -2  -6  300.16   15.80
   0  -2  -6  287.73   16.09
   0  -2  -6  311.60   15.90
   0   2   6  294.13   16.13
   0   2   6  334.55   15.95
   0   2   6  306.24   16.09
  -1  -2  -6  199.58   11.11
  -1  -2  -6  233.26   11.11
  -1  -2  -6  199.26   10.95
  -1  -2  -6  207.45   10.81
   1   2   6  213.90   11.15
   1   2   6  206.94   11.21
  -2  -2  -6    2.59    0.49
  -2  -2  -6    1.85    0.34
   2   2   6    1.21    0.45
  -3  -2  -6  507.60   26.39
  -3  -2  -6  477.75   26.20
   3   2   6  553.13   26.61
  -4  -2  -6  129.72    7.24
  -4  -2  -6  130.16    7.09
   4   2   6  136.25    7.46
  -5  -2  -6  197.65   11.23
   5   2   6  219.93   11.54
   7  -3  -6   87.76    5.04
  -7   3   6   87.94    5.39
  -7   3   6   87.14    5.50
   6  -3  -6  297.98   15.69
  -6   3   6  294.69   15.91
  -6   3   6  297.23   15.88
  -6   3   6  313.31   16.03
   5  -3  -6  127.81    7.23
  -5   3   6  136.76    7.40
  -5   3   6  146.21    7.60
  -5   3   6  129.18    7.43
   4  -3  -6  543.94   29.54
   4  -3  -6  572.86   29.46
   4  -3  -6  586.79   29.43
  -4   3   6  598.56   29.73
  -4   3   6  570.98   29.65
   3  -3  -6   24.65    1.67
   3  -3  -6   25.51    1.69
  -3   3   6   25.59    1.73
  -3   3   6   21.40    1.91
   2  -3  -6  285.60   14.61
   2  -3  -6  273.56   14.57
   2  -3  -6  293.81   14.70
  -2   3   6  279.74   14.86
  -2   3   6  292.62   15.12
  -2   3   6  271.23   14.68
  -2   3   6  281.71   14.78
   1  -3  -6  335.03   17.67
   1  -3  -6  327.42   17.71
   1  -3  -6  376.94   17.89
  -1   3   6  356.67   17.83
  -1   3   6  343.46   18.03
  -1   3   6  329.86   17.93
   0  -3  -6    5.42    0.49
   0  -3  -6    7.14    0.63
   0  -3  -6    5.71    0.82
   0   3   6    5.63    0.72
   0   3   6    4.88    0.75
   0   3   6    5.22    0.81
  -1  -3  -6  179.51    9.21
  -1  -3  -6  176.56    9.26
  -1  -3  -6  171.38    9.41
  -1  -3  -6  186.95    9.56
   1   3   6  180.37    9.76
   1   3   6  181.99    9.73
  -2  -3  -6   31.20    1.70
  -2  -3  -6   25.61    2.38
   2   3   6   31.56    2.15
  -3  -3  -6   22.41    1.40
  -3  -3  -6   19.88    1.57
   3   3   6   21.64    1.81
  -4  -3  -6    1.50    0.61
   4   3   6    1.01    0.72
   5   3   6   33.36    2.97
   6  -4  -6   28.43    2.55
  -6   4   6   29.14    2.37
  -6   4   6   31.68    2.51
  -6   4   6   32.80    2.34
   5  -4  -6   35.90    2.29
  -5   4   6   38.99    2.73
  -5   4   6   37.20    2.56
  -5   4   6   38.38    2.51
   4  -4  -6   13.67    1.18
   4  -4  -6   13.92    1.05
  -4   4   6   14.41    1.26
  -4   4   6   13.11    1.38
   3  -4  -6   35.64    2.14
   3  -4  -6   36.54    2.29
   3  -4  -6   37.03    2.24
  -3   4   6   34.53    2.65
  -3   4   6   39.90    2.54
   2  -4  -6  275.83   14.00
   2  -4  -6  273.22   13.92
   2  -4  -6  268.81   13.93
  -2   4   6  256.03   14.15
  -2   4   6  275.92   14.32
   1  -4  -6  452.73   24.20
   1  -4  -6  467.26   24.07
   1  -4  -6  523.64   24.34
  -1   4   6  445.32   24.46
  -1   4   6  478.26   24.71
   0  -4  -6   37.66    2.19
   0  -4  -6   38.29    2.38
   0   4   6   34.75    2.65
  -1  -4  -6  512.82   27.59
  -1  -4  -6  560.75   27.73
   1   4   6  527.06   27.98
   1   4   6  555.03   27.90
  -2  -4  -6   79.14    4.39
   2   4   6   77.57    4.66
  -3  -4  -6   50.14    3.14
   3   4   6   53.42    3.44
  -4  -4  -6  241.86   12.84
  -6   5   6  351.84   18.55
  -6   5   6  350.60   18.46
  -5   5   6  133.13    7.55
  -5   5   6  129.14    7.32
  -4   5   6  248.76   13.36
  -4   5   6  247.04   13.15
   3  -5  -6  246.06   13.15
  -3   5   6  256.93   13.71
  -3   5   6  266.40   13.56
   2  -5  -6    1.83    0.34
  -2   5   6    1.33    0.56
  -2   5   6    2.32    0.58
   1  -5  -6   99.69    5.15
   1  -5  -6   92.63    5.02
  -1   5   6   90.50    5.36
  -1   5   6   94.19    5.52
   0  -5  -6   18.13    1.24
   0   5   6   20.11    1.60
   0   5   6   14.96    1.62
  -1  -5  -6   28.36    1.74
   1   5   6   24.86    2.00
   1   5   6   25.22    2.15
  -2  -5  -6   46.26    2.79
   2   5   6   44.54    3.09
  -3  -5  -6   86.39    4.88
   3   5   6   84.59    5.31
  -5   6   6    8.01    1.46
  -4   6   6  183.89   10.01
  -4   6   6  185.80   10.26
  -3   6   6  223.31   11.83
  -3   6   6  210.30   11.56
  -2   6   6   17.00    1.56
  -2   6   6   18.67    1.80
  -1   6   6  505.17   27.25
  -1   6   6  548.46   27.49
   0   6   6  220.57   12.10
   0   6   6  231.25   12.32
   1   6   6  115.53    6.94
   1   6   6  124.06    6.88
   2   6   6  148.84    8.40
  -4   7   6    3.94    1.00
  -3   7   6    3.89    0.93
  -3   7   6    5.42    1.47
  -2   7   6   19.96    1.98
  -2   7   6   14.16    1.67
  -1   7   6   62.74    4.10
  -1   7   6   70.52    4.38
   0   7   6   12.67    1.85
   0   7   6   14.32    1.71
   1   7   6   11.92    1.87
   1   7   6   11.48    1.99
   2  10  -7  160.09   10.52
   1  10  -7   58.41    4.47
   1  10  -7   56.36    3.63
   0  10  -7  133.49    7.51
  -1  10  -7  208.43   11.32
  -2  10  -7    5.26    1.85
   3   9  -7  122.06    7.67
   2   9  -7   65.82    4.70
   1   9  -7  122.23    7.38
   0   9  -7    3.17    1.08
   0   9  -7    3.11    0.81
  -1   9  -7   12.73    1.35
  -1   9  -7   11.26    1.43
  -2   9  -7    1.21    0.78
  -2   9  -7    3.27    0.94
  -3   9  -7  185.44   10.99
   5   8  -7   46.50    3.42
   4   8  -7  103.49    6.03
   4   8  -7   93.63    6.41
   3   8  -7  106.55    6.05
   3   8  -7  108.23    6.75
   2   8  -7   99.85    6.12
   2   8  -7   95.74    5.46
   1   8  -7  384.20   19.27
   1   8  -7  358.47   19.42
   1   8  -7  386.84   20.10
   0   8  -7   27.78    1.86
   0   8  -7   30.00    2.37
  -1   8  -7  231.31   12.46
  -1   8  -7  233.37   12.45
  -2   8  -7  220.81   11.39
  -2   8  -7  215.55   11.81
  -3   8  -7   28.33    2.36
   5   7  -7   27.13    3.29
   5   7  -7   39.80    2.69
   4   7  -7    9.92    1.80
   4   7  -7   10.65    1.30
   3   7  -7   36.16    2.94
   3   7  -7   37.02    2.44
   2   7  -7   62.23    3.59
   2   7  -7   62.07    4.11
   2   7  -7   60.32    3.62
   1   7  -7    2.76    0.52
   1   7  -7    2.05    0.61
   0   7  -7    3.96    0.66
   0   7  -7    4.26    0.76
   0   7  -7    5.03    0.98
   0   7  -7    4.95    0.80
  -1   7  -7  165.32    8.37
  -1   7  -7  162.67    8.55
  -1   7  -7  150.71    8.57
  -1   7  -7  153.16    8.64
  -2   7  -7  239.20   12.70
  -2   7  -7  238.48   12.33
  -2   7  -7  232.28   12.38
  -3   7  -7   23.00    1.65
  -3   7  -7   22.71    1.99
  -4   7  -7  344.30   18.48
  -4   7  -7  349.36   18.09
  -5   7  -7   58.95    3.79
   6   6  -7  147.01    8.63
   5   6  -7  145.39    8.07
   5   6  -7  134.48    8.54
  -5  -6   7  154.43    7.87
   4   6  -7   88.91    5.02
   4   6  -7   84.02    5.49
  -4  -6   7   86.39    4.59
   3   6  -7  536.43   28.27
   3   6  -7  561.38   28.82
   2   6  -7   40.44    2.52
   2   6  -7   41.92    2.94
   2   6  -7   40.71    2.60
   1   6  -7  294.72   15.99
   1   6  -7  310.75   16.43
   1   6  -7  312.27   15.95
  -1  -6   7  317.95   16.16
   0   6  -7  184.96    9.41
   0   6  -7  175.87    9.36
   0   6  -7  161.84    9.34
   0   6  -7  181.34    9.68
   0  -6   7  185.12    9.43
  -1   6  -7    1.56    0.47
  -1   6  -7    2.45    0.62
  -1   6  -7    1.18    0.53
  -2   6  -7  104.71    5.61
  -2   6  -7  104.92    5.68
  -2   6  -7   99.94    5.89
  -3   6  -7   45.27    2.76
  -3   6  -7   45.62    3.05
  -4   6  -7    2.50    0.84
  -4   6  -7    2.47    0.66
  -5   6  -7   12.19    1.54
   6   5  -7   23.68    2.62
   6   5  -7   26.78    2.20
  -6  -5   7   26.50    1.92
   5   5  -7   30.94    2.79
   5   5  -7   34.94    2.44
  -5  -5   7   36.15    2.19
   4   5  -7    5.86    1.16
   4   5  -7    7.42    0.96
  -4  -5   7    6.30    0.75
  -4  -5   7    6.00    0.70
   3   5  -7   82.38    4.77
   3   5  -7   82.72    4.85
  -3  -5   7   84.10    4.53
  -3  -5   7   89.71    4.55
   2   5  -7   12.41    1.16
   2   5  -7   10.29    0.89
   2   5  -7   11.34    0.99
   2   5  -7   11.48    1.26
  -2  -5   7   10.05    1.18
  -2  -5   7   11.95    0.73
  -2  -5   7   11.11    0.74
   1   5  -7  284.12   14.87
   1   5  -7  275.73   14.56
   1   5  -7  279.89   14.47
   1   5  -7  267.32   14.50
  -1  -5   7  290.38   14.64
   0   5  -7  305.37   16.71
   0   5  -7  303.55   16.46
   0   5  -7  327.57   16.52
   0   5  -7  322.83   16.50
   0  -5   7  333.68   16.53
  -1   5  -7   22.32    1.52
  -1   5  -7   19.24    1.56
  -1   5  -7   22.33    1.61
   1  -5   7   22.35    1.42
  -2   5  -7  584.02   29.94
  -2   5  -7  632.96   30.02
  -2   5  -7  569.10   30.19
   2  -5   7  552.62   29.72
  -3   5  -7   71.44    4.36
  -3   5  -7   73.75    4.14
  -4   5  -7   75.85    4.28
  -4   5  -7   69.80    4.48
  -5   5  -7  153.95    9.03
  -5   5  -7  166.37    8.83
  -7  -4   7  122.26    6.92
   6   4  -7   69.33    4.91
   6   4  -7   73.47    4.51
  -6  -4   7   77.93    4.37
   5   4  -7  412.95   21.85
   5   4  -7  417.84   22.30
  -5  -4   7  427.28   21.68
   4   4  -7  139.78    8.14
  -4  -4   7  146.67    7.39
  -4  -4   7  148.64    7.60
  -4  -4   7  134.57    7.55
   3   4  -7  276.78   15.19
   3   4  -7  283.69   14.61
   3   4  -7  268.85   14.80
   3   4  -7  291.86   14.92
  -3  -4   7  290.58   14.66
  -3  -4   7  289.37   14.63
   2   4  -7  456.85   24.07
   2   4  -7  456.31   24.01
   2   4  -7  453.79   24.34
  -2  -4   7  483.44   24.19
  -2  -4   7  469.23   23.86
  -2  -4   7  480.40   23.83
   1   4  -7   56.45    3.58
   1   4  -7   54.40    3.36
   1   4  -7   55.22    3.29
   1   4  -7   52.56    3.29
  -1  -4   7   62.37    3.48
  -1  -4   7   64.25    3.16
  -1  -4   7   61.75    3.17
   0   4  -7   38.45    2.29
   0   4  -7   37.91    2.33
   0   4  -7   38.46    2.33
   0   4  -7   35.54    2.46
   0  -4   7   36.66    2.09
   0  -4   7   40.08    2.38
   0  -4   7   39.75    2.12
  -1   4  -7    2.21    0.54
  -1   4  -7    2.10    0.51
  -1   4  -7    1.70    0.45
  -1   4  -7    1.72    0.37
  -2   4  -7   93.88    5.46
  -2   4  -7   95.70    5.35
  -2   4  -7   99.42    5.30
   2  -4   7   94.64    5.10
   2  -4   7   99.99    5.16
  -3   4  -7    6.57    0.95
  -3   4  -7    6.40    0.81
   3  -4   7    8.03    0.68
   3  -4   7    7.66    0.74
  -4   4  -7   61.67    3.74
  -4   4  -7   61.12    3.90
   4  -4   7   64.58    3.49
  -5   4  -7  181.47   10.00
  -5   4  -7  186.84   10.21
   7   3  -7   11.73    2.06
   6   3  -7   50.11    3.21
   6   3  -7   43.24    3.51
  -6  -3   7   50.80    3.12
  -6  -3   7   49.95    2.82
   5   3  -7   45.29    3.33
   5   3  -7   44.00    2.98
  -5  -3   7   50.00    2.94
  -5  -3   7   49.56    2.72
   4   3  -7   34.64    2.05
   4   3  -7   32.28    2.19
  -4  -3   7   31.53    2.06
  -4  -3   7   32.77    2.09
  -4  -3   7   33.19    1.96
   3   3  -7  280.74   14.33
   3   3  -7  273.89   14.22
   3   3  -7  283.42   14.42
   3   3  -7  269.40   14.66
  -3  -3   7  270.77   14.21
  -3  -3   7  269.41   14.12
  -3  -3   7  269.20   14.16
   2   3  -7  314.81   15.70
   2   3  -7  299.44   15.59
   2   3  -7  290.78   15.90
   2   3  -7  281.50   15.56
  -2  -3   7  290.85   15.46
  -2  -3   7  307.05   15.44
  -2  -3   7  322.82   15.78
  -2  -3   7  294.03   15.49
   1   3  -7    1.10    0.36
   1   3  -7    1.19    0.37
   1   3  -7    0.52    0.25
   1   3  -7    0.41    0.35
  -1  -3   7    0.58    0.22
  -1  -3   7    0.92    0.39
   0   3  -7  578.17   30.38
   0   3  -7  596.11   30.43
   0   3  -7  601.82   30.44
   0   3  -7  552.12   30.57
   0  -3   7  596.51   30.30
   0  -3   7  609.33   30.25
   0  -3   7  623.17   30.51
  -1   3  -7  369.62   18.88
  -1   3  -7  355.25   18.91
  -1   3  -7  379.46   18.99
   1  -3   7  368.95   18.79
   1  -3   7  363.03   18.92
   1  -3   7  360.24   18.75
  -2   3  -7  251.53   13.45
  -2   3  -7  252.62   13.38
  -2   3  -7  257.50   13.34
   2  -3   7  249.15   13.22
   2  -3   7  266.83   13.22
  -3   3  -7  235.34   12.95
  -3   3  -7  234.76   12.74
   3  -3   7  238.99   12.43
   3  -3   7  248.52   12.50
   3  -3   7  243.57   12.50
  -4   3  -7    1.38    0.58
  -4   3  -7    0.74    0.46
  -5   3  -7    4.62    1.01
  -5   3  -7    6.02    1.14
   5  -3   7    4.84    0.99
   7   2  -7  443.69   24.12
   7   2  -7  460.83   23.68
   6   2  -7   23.91    2.34
   6   2  -7   25.72    2.02
  -6  -2   7   27.27    1.78
   5   2  -7  182.02    9.55
   5   2  -7  158.15    9.82
  -5  -2   7  187.99    9.33
  -5  -2   7  177.53    9.48
   4   2  -7  191.77    9.68
   4   2  -7  187.41    9.60
   4   2  -7  171.82    9.98
  -4  -2   7  153.93    9.47
  -4  -2   7  188.17    9.47
  -4  -2   7  188.86    9.59
   3   2  -7   39.06    2.60
   3   2  -7   32.67    2.44
   3   2  -7   35.77    2.37
   3   2  -7   32.81    2.12
   3   2  -7   32.20    2.15
  -3  -2   7   32.78    2.01
  -3  -2   7   30.84    2.01
  -3  -2   7   33.37    2.08
   2   2  -7   66.15    3.48
   2   2  -7   59.84    3.30
   2   2  -7   59.15    3.43
   2   2  -7   52.49    3.55
   2   2  -7   54.71    3.33
  -2  -2   7   55.23    3.42
  -2  -2   7   54.88    3.22
  -2  -2   7   59.34    3.28
  -2  -2   7   53.87    3.16
   1   2  -7   11.56    1.17
   1   2  -7   11.49    1.00
   1   2  -7   12.31    1.07
   1   2  -7   11.45    0.94
  -1  -2   7   12.45    0.88
  -1  -2   7   12.61    0.96
  -1  -2   7   12.19    0.96
  -1  -2   7   12.84    1.11
   0   2  -7   31.68    2.12
   0   2  -7   35.20    2.15
   0   2  -7   33.51    2.07
   0  -2   7   34.21    2.19
   0  -2   7   33.04    1.98
   0  -2   7   35.49    2.08
  -1   2  -7  142.65    7.63
  -1   2  -7  136.01    7.56
  -1   2  -7  138.36    7.66
   1  -2   7  145.27    7.57
   1  -2   7  143.73    7.67
   1  -2   7  147.88    7.50
  -2   2  -7   79.29    4.50
  -2   2  -7   77.52    4.57
  -2   2  -7   81.80    4.58
   2  -2   7   87.27    4.59
   2  -2   7   80.41    4.47
   2  -2   7   78.57    4.41
  -3   2  -7  408.44   22.17
  -3   2  -7  418.35   21.92
   3  -2   7  429.04   21.89
   3  -2   7  440.45   21.92
  -4   2  -7    7.80    1.06
  -4   2  -7    9.89    1.07
   4  -2   7    7.07    0.92
  -5   2  -7  288.09   15.38
  -5   2  -7  287.88   15.44
   5  -2   7  295.05   15.29
   6  -2   7  193.95   10.56
   7   1  -7   56.62    4.23
   7   1  -7   56.86    3.80
  -7  -1   7   57.08    3.81
  -7  -1   7   66.02    3.66
   6   1  -7   56.91    3.46
   6   1  -7   50.81    3.78
  -6  -1   7   51.63    3.42
  -6  -1   7   58.24    3.30
   5   1  -7  139.71    8.59
   5   1  -7  145.68    8.23
  -5  -1   7  155.30    8.11
  -5  -1   7  164.72    8.28
   4   1  -7  470.13   26.16
   4   1  -7  483.18   25.78
   4   1  -7  486.24   25.83
  -4  -1   7  525.62   25.81
  -4  -1   7  535.30   25.72
   3   1  -7   14.82    1.15
   3   1  -7   17.08    1.40
   3   1  -7   14.68    1.45
   3   1  -7   14.47    1.27
  -3  -1   7   13.22    1.09
  -3  -1   7   15.26    1.11
  -3  -1   7   13.91    1.13
   2   1  -7  584.12   29.35
   2   1  -7  563.17   29.36
   2   1  -7  514.55   29.31
   2   1  -7  561.39   29.60
   2   1  -7  571.94   29.24
  -2  -1   7  574.05   29.16
  -2  -1   7  549.78   29.22
  -2  -1   7  590.08   29.27
  -2  -1   7  625.92   29.47
   1   1  -7  200.25   11.22
   1   1  -7  197.01   10.89
   1   1  -7  187.36   10.96
   1   1  -7  209.16   11.03
  -1  -1   7  213.46   10.96
  -1  -1   7  208.91   10.84
  -1  -1   7  225.79   11.12
  -1  -1   7  225.49   11.00
   0   1  -7   50.28    2.98
   0   1  -7   51.42    3.07
   0   1  -7   49.57    3.07
   0  -1   7   57.71    3.21
   0  -1   7   51.05    3.07
   0  -1   7   52.90    2.95
   0  -1   7   51.27    3.05
  -1   1  -7  421.74   23.36
   1  -1   7  445.35   23.44
   1  -1   7  464.06   23.34
   1  -1   7  489.67   23.62
  -2   1  -7   58.86    3.53
  -2   1  -7   60.38    3.54
   2  -1   7   67.00    3.61
   2  -1   7   66.42    3.73
   2  -1   7   54.92    3.45
  -3   1  -7   85.66    5.09
  -3   1  -7   84.50    5.08
   3  -1   7   96.63    5.27
   3  -1   7   98.17    5.17
  -4   1  -7    1.71    0.56
  -4   1  -7    2.01    0.60
   4  -1   7    1.05    0.55
  -5   1  -7   23.30    1.96
  -5   1  -7   21.86    1.91
   5  -1   7   22.68    1.94
   7   0  -7  108.36    6.80
   7   0  -7  108.49    6.28
  -7   0   7  112.50    6.24
  -7   0   7  108.11    6.35
   6   0  -7  228.99   11.86
   6   0  -7  205.35   12.24
  -6   0   7  207.71   11.86
  -6   0   7  242.95   11.83
   5   0  -7    2.36    0.81
   5   0  -7    2.22    0.54
  -5   0   7    3.32    0.67
  -5   0   7    2.71    0.55
   4   0  -7    3.02    0.60
  -4   0   7    2.12    0.52
   3   0  -7    3.87    0.57
   3   0  -7    2.80    0.62
   3   0  -7    3.82    0.76
   3   0  -7    3.53    0.83
   3   0  -7    4.21    0.85
  -3   0   7    3.48    0.84
  -3   0   7    3.39    0.55
  -3   0   7    3.67    0.77
  -3   0   7    3.53    0.56
   2   0  -7  202.40   11.01
   2   0  -7  210.40   10.61
   2   0  -7  206.32   10.66
   2   0  -7  196.84   10.77
  -2   0   7  212.77   10.85
  -2   0   7  197.70   10.55
  -2   0   7  195.36   10.64
  -2   0   7  193.21   10.64
   1   0  -7  125.14    6.44
   1   0  -7  111.07    6.55
   1   0  -7  120.87    6.56
  -1   0   7  120.28    6.40
  -1   0   7  108.63    6.49
  -1   0   7  119.54    6.52
  -1   0   7  132.17    6.72
   0   0  -7   65.35    4.05
   0   0  -7   71.39    4.07
   0   0  -7   69.68    3.95
   0   0   7   71.65    4.08
   0   0   7   70.21    4.10
   0   0   7   73.82    4.24
   0   0   7   75.46    3.96
  -1   0  -7  553.11   30.81
  -1   0  -7  595.93   30.91
   1   0   7  679.79   31.16
   1   0   7  622.23   30.81
   1   0   7  560.02   30.91
  -2   0  -7    5.98    0.71
   2   0   7    8.44    0.90
   2   0   7    6.99    1.08
  -3   0  -7  325.04   17.92
  -3   0  -7  337.32   17.88
   3   0   7  360.78   18.05
   3   0   7  355.77   18.18
  -4   0  -7  233.24   12.27
  -4   0  -7  224.07   12.33
   4   0   7  238.42   12.44
  -5   0  -7    1.14    0.73
  -5   0  -7    1.99    0.77
   5   0   7    1.77    0.81
   7  -1  -7   94.66    6.42
   7  -1  -7  102.31    5.92
  -7   1   7  105.67    6.72
  -7   1   7  107.05    6.01
   6  -1  -7  233.21   13.89
   6  -1  -7  253.05   13.43
  -6   1   7  273.65   13.54
   5  -1  -7   37.66    3.07
   5  -1  -7   43.25    2.68
  -5   1   7   45.70    2.76
  -5   1   7   40.67    2.72
   4  -1  -7  467.50   26.32
   4  -1  -7  479.78   25.59
  -4   1   7  527.41   25.71
  -4   1   7  513.35   25.70
   3  -1  -7  443.91   22.68
   3  -1  -7  401.88   22.79
   3  -1  -7  447.56   22.60
   3  -1  -7  450.06   22.75
  -3   1   7  444.10   22.69
  -3   1   7  433.73   22.87
  -3   1   7  448.68   22.69
   2  -1  -7  259.36   13.02
   2  -1  -7  252.43   12.88
   2  -1  -7  230.47   13.05
   2  -1  -7  243.38   12.83
  -2   1   7  251.59   12.95
  -2   1   7  240.26   12.95
   1  -1  -7  250.81   12.97
   1  -1  -7  252.20   12.97
  -1   1   7  231.56   13.11
  -1   1   7  226.73   13.09
  -1   1   7  286.42   13.43
   0  -1  -7   31.05    1.92
   0  -1  -7   29.28    2.07
   0   1   7   33.29    2.31
   0   1   7   31.64    2.10
   0   1   7   30.22    2.11
  -1  -1  -7    1.39    0.32
  -1  -1  -7    2.00    0.40
   1   1   7    1.41    0.70
   1   1   7    1.46    0.45
   1   1   7    1.95    0.55
  -2  -1  -7   10.56    0.88
  -2  -1  -7   11.34    0.99
   2   1   7    9.73    1.07
  -3  -1  -7   55.00    3.30
  -3  -1  -7   52.24    3.15
   3   1   7   56.72    3.46
  -4  -1  -7   87.13    5.05
   4   1   7   87.42    5.21
   7  -2  -7   30.02    2.43
  -7   2   7   36.37    2.69
   6  -2  -7    0.82    0.54
  -6   2   7    1.25    0.63
  -6   2   7    0.35    0.59
  -5   2   7    2.81    0.66
  -5   2   7    1.75    0.65
   4  -2  -7  167.72    9.20
  -4   2   7  185.87    9.43
  -4   2   7  166.42    9.31
   3  -2  -7  165.13    8.42
   3  -2  -7  157.15    8.26
   3  -2  -7  160.44    8.36
  -3   2   7  149.10    8.37
  -3   2   7  143.70    8.71
   2  -2  -7   42.60    2.48
   2  -2  -7   38.41    2.41
   2  -2  -7   43.29    2.64
  -2   2   7   40.02    2.60
  -2   2   7   39.91    2.57
   1  -2  -7  459.32   23.47
   1  -2  -7  467.38   23.50
  -1   2   7  438.99   23.69
  -1   2   7  465.43   23.77
   0  -2  -7  137.67    7.06
   0  -2  -7  140.39    7.17
   0  -2  -7  132.15    7.30
   0   2   7  126.45    7.39
   0   2   7  133.02    7.37
  -1  -2  -7  439.54   22.54
  -1  -2  -7  438.76   22.37
   1   2   7  476.59   22.81
   1   2   7  395.47   23.02
  -2  -2  -7  379.76   19.52
  -2  -2  -7  356.10   19.31
   2   2   7  395.19   19.75
  -3  -2  -7   38.85    2.36
  -3  -2  -7   39.01    2.54
   3   2   7   40.47    2.75
  -4  -2  -7   94.63    5.48
   4   2   7   95.94    5.72
   6  -3  -7  204.56   11.29
  -6   3   7  199.74   11.50
  -6   3   7  235.22   11.70
   5  -3  -7  191.88   10.36
  -5   3   7  199.17   10.67
  -5   3   7  195.52   10.57
   4  -3  -7   16.59    1.36
  -4   3   7   20.75    1.66
   3  -3  -7  273.66   13.81
   3  -3  -7  257.54   13.82
   3  -3  -7  250.92   13.70
  -3   3   7  274.47   14.03
  -3   3   7  263.20   13.92
   2  -3  -7   42.81    2.69
   2  -3  -7   43.86    2.58
   2  -3  -7   41.17    2.52
  -2   3   7   45.33    2.84
   1  -3  -7    5.09    0.60
   1  -3  -7    4.31    0.78
  -1   3   7    3.23    0.73
   0  -3  -7    2.32    0.36
   0  -3  -7    2.05    0.64
   0  -3  -7    2.03    0.41
   0  -3  -7    3.25    0.47
   0   3   7    1.95    0.55
  -1  -3  -7   77.99    3.98
  -1  -3  -7   72.77    3.95
  -1  -3  -7   75.53    4.26
   1   3   7   75.93    4.48
   1   3   7   73.71    4.57
  -2  -3  -7  180.08    9.94
   2   3   7  194.68   10.23
  -3  -3  -7    1.03    0.54
   3   3   7    1.44    0.73
  -4  -3  -7  303.53   16.01
  -6   4   7   90.41    5.42
   5  -4  -7  202.02   11.13
  -5   4   7  202.83   11.16
  -5   4   7  216.34   11.36
   4  -4  -7   29.57    1.93
  -4   4   7   30.62    2.32
  -4   4   7   31.79    2.20
   3  -4  -7  511.75   26.50
   3  -4  -7  475.45   26.56
   3  -4  -7  529.96   26.61
  -3   4   7  524.05   26.80
  -3   4   7  548.13   26.96
   2  -4  -7   41.05    2.51
   2  -4  -7   40.79    2.51
   2  -4  -7   43.20    2.67
  -2   4   7   48.93    2.84
  -2   4   7   42.55    2.88
   1  -4  -7  150.54    8.02
   1  -4  -7  149.67    7.70
   1  -4  -7  155.00    7.90
  -1   4   7  150.62    8.31
  -1   4   7  139.78    8.16
   0  -4  -7  331.68   16.94
   0  -4  -7  329.99   17.09
   0   4   7  311.54   17.34
   0   4   7  337.70   17.29
  -1  -4  -7   11.54    1.08
   1   4   7   11.62    1.48
   1   4   7   12.11    1.36
  -2  -4  -7  264.65   14.39
   2   4   7  286.79   14.77
  -3  -4  -7   28.50    2.21
   3   4   7   35.33    3.20
  -5   5   7   64.03    4.04
  -4   5   7   24.20    2.12
  -4   5   7   24.49    1.97
   3  -5  -7    6.92    0.89
  -3   5   7    7.43    1.27
   2  -5  -7   11.72    0.94
  -2   5   7   11.22    1.26
  -2   5   7    9.90    1.36
   1  -5  -7  101.68    5.39
  -1   5   7   91.46    5.71
  -1   5   7  107.49    5.98
   0  -5  -7  287.32   14.48
   0   5   7  276.82   14.86
   0   5   7  274.08   15.01
  -1  -5  -7    4.74    0.81
   1   5   7    3.10    0.86
   1   5   7    4.80    1.15
  -2  -5  -7  256.20   13.12
   2   5   7  222.72   12.95
  -4   6   7  194.59   10.59
  -3   6   7  242.01   12.70
  -3   6   7  222.11   12.41
  -2   6   7  238.52   12.16
  -2   6   7  203.58   11.84
  -1   6   7    5.21    1.15
   0   6   7   56.91    3.88
   0   6   7   55.27    3.68
   1   6   7   43.22    3.46
   1   6   7   49.60    3.73
  -3   7   7   40.36    3.18
  -2   7   7  184.57   10.15
  -1   7   7   18.22    2.20
   1  10  -8  177.87   10.28
   1  10  -8  168.43    9.54
   0  10  -8   92.20    5.55
   3   9  -8    4.39    2.05
   2   9  -8    3.97    1.38
   1   9  -8  124.94    7.61
   0   9  -8   16.97    2.17
   0   9  -8   17.33    1.78
  -1   9  -8   70.98    4.49
  -2   9  -8  138.43    7.96
   4   8  -8    2.53    0.95
   4   8  -8    1.82    2.23
   3   8  -8  294.37   16.27
   3   8  -8  293.44   15.52
   2   8  -8  136.97    7.65
   2   8  -8  143.18    8.36
   1   8  -8  117.68    6.76
   1   8  -8  131.41    7.44
   0   8  -8  216.57   11.49
   0   8  -8  199.42   10.95
  -1   8  -8    2.16    0.60
  -1   8  -8    3.72    0.94
  -1   8  -8    1.51    0.89
  -2   8  -8   10.06    1.47
  -2   8  -8    8.85    1.24
  -3   8  -8    3.31    1.08
   5   7  -8   10.25    1.64
   4   7  -8   36.38    2.60
   4   7  -8   34.89    3.13
   3   7  -8   49.40    3.74
   3   7  -8   51.13    3.21
   2   7  -8  100.28    6.16
   2   7  -8   99.58    5.61
   1   7  -8   68.38    4.08
   1   7  -8   70.88    3.93
   1   7  -8   71.20    4.78
   1   7  -8   66.35    3.97
   0   7  -8  415.09   20.36
   0   7  -8  404.50   20.69
   0   7  -8  382.70   20.27
   0   7  -8  366.23   20.25
  -1   7  -8   13.61    1.50
  -1   7  -8   14.75    1.25
  -1   7  -8   14.16    1.52
  -1   7  -8   18.01    1.53
  -2   7  -8  269.18   14.84
  -2   7  -8  285.25   14.50
  -3   7  -8  171.38    9.93
  -3   7  -8  186.07    9.60
  -4   7  -8   21.61    1.94
   5   6  -8  294.96   17.26
   5   6  -8  335.60   16.80
   4   6  -8  144.44    8.81
   4   6  -8  154.07    8.33
  -4  -6   8  152.79    7.86
   3   6  -8   81.39    5.04
   3   6  -8   73.05    5.11
   2   6  -8  156.60    8.60
   2   6  -8  172.17    8.89
   2   6  -8  166.56    8.81
   2   6  -8  159.80    9.28
   1   6  -8   79.30    4.42
   1   6  -8   77.73    4.36
   1   6  -8   76.84    4.81
   0   6  -8   51.70    3.03
   0   6  -8   42.77    2.95
   0   6  -8   49.81    3.25
   0   6  -8   51.79    2.97
   0  -6   8   49.71    2.97
  -1   6  -8    3.77    0.81
  -1   6  -8    3.38    0.71
  -1   6  -8    3.42    0.64
   1  -6   8    2.91    0.65
  -2   6  -8   43.64    2.61
  -2   6  -8   39.41    2.87
  -3   6  -8  216.39   11.40
  -3   6  -8  212.75   11.71
  -4   6  -8   21.23    2.13
  -4   6  -8   20.68    1.83
  -5   6  -8  320.68   18.11
   6   5  -8    5.27    1.73
   6   5  -8    9.83    1.57
  -6  -5   8    8.27    1.21
   5   5  -8  201.96   10.81
   5   5  -8  195.07   11.32
  -5  -5   8  198.38   10.51
   4   5  -8   82.67    4.86
   4   5  -8   83.75    5.34
  -4  -5   8   82.71    4.55
  -4  -5   8   83.62    4.56
   3   5  -8   80.67    5.10
   3   5  -8   78.52    4.66
   3   5  -8   81.25    4.39
  -3  -5   8   77.80    4.38
  -3  -5   8   86.77    4.39
   2   5  -8  493.84   25.82
   2   5  -8  473.74   25.65
   2   5  -8  499.91   25.78
   2   5  -8  514.54   26.25
  -2  -5   8  505.87   25.48
  -2  -5   8  511.41   25.47
   1   5  -8   79.88    4.54
   1   5  -8   80.70    4.57
   1   5  -8   76.89    4.88
   1   5  -8   74.43    4.61
  -1  -5   8   86.99    4.73
  -1  -5   8   83.13    4.25
  -1  -5   8   85.91    4.26
   0   5  -8  344.61   17.59
   0   5  -8  331.99   17.61
   0   5  -8  315.55   17.81
   0   5  -8  338.60   17.61
   0  -5   8  362.90   17.65
  -1   5  -8  329.56   16.78
  -1   5  -8  340.73   17.17
  -1   5  -8  294.42   16.85
  -1   5  -8  326.80   16.75
   1  -5   8  319.74   16.66
  -2   5  -8    1.04    0.44
  -2   5  -8    0.96    0.52
   2  -5   8    0.84    0.35
  -3   5  -8  286.78   15.98
  -3   5  -8  314.65   15.78
  -4   5  -8   36.91    2.87
  -4   5  -8   40.76    2.69
  -5   5  -8    3.80    1.18
  -7  -4   8  178.23    9.75
   6   4  -8  292.68   15.63
   6   4  -8  263.55   16.04
  -6  -4   8  321.33   15.45
   5   4  -8   72.56    4.47
   5   4  -8   71.22    4.90
  -5  -4   8   75.04    4.01
  -5  -4   8   77.90    4.28
   4   4  -8  155.17    8.09
   4   4  -8  149.55    8.82
   4   4  -8  154.81    8.41
  -4  -4   8  158.81    8.20
  -4  -4   8  160.58    8.04
  -4  -4   8  142.50    8.13
   3   4  -8    7.85    0.90
   3   4  -8    5.67    1.32
  -3  -4   8    6.41    0.71
  -3  -4   8    6.91    0.74
   2   4  -8   40.86    2.49
   2   4  -8   36.19    2.44
   2   4  -8   39.92    2.64
   2   4  -8   40.80    2.85
  -2  -4   8   38.59    2.28
  -2  -4   8   41.30    2.34
  -2  -4   8   40.10    2.70
   1   4  -8    4.90    0.88
   1   4  -8    5.92    0.97
   1   4  -8    6.16    0.83
   1   4  -8    5.89    0.74
  -1  -4   8    7.86    0.64
  -1  -4   8    6.59    0.94
  -1  -4   8    6.31    0.59
   0   4  -8  262.91   13.94
   0   4  -8  248.31   14.12
   0   4  -8  262.60   13.95
   0   4  -8  266.39   13.91
   0  -4   8  271.68   13.71
   0  -4   8  259.14   13.67
   0  -4   8  292.46   14.03
  -1   4  -8  150.10    8.52
  -1   4  -8  158.47    8.39
  -1   4  -8  152.06    8.43
   1  -4   8  169.18    8.43
   1  -4   8  149.97    8.16
   1  -4   8  162.61    8.20
  -2   4  -8    1.50    0.56
   2  -4   8    2.55    0.41
   2  -4   8    1.88    0.49
   2  -4   8    1.08    0.34
  -3   4  -8  438.50   22.63
  -3   4  -8  437.88   22.82
   3  -4   8  458.95   22.45
   3  -4   8  411.16   22.36
  -4   4  -8  168.28    9.35
  -4   4  -8  175.80    9.20
   4  -4   8  161.17    8.86
  -5   4  -8  119.22    7.43
  -7  -3   8  107.75    6.33
   6   3  -8  149.41    9.46
   6   3  -8  172.53    9.11
  -6  -3   8  168.76    8.94
   5   3  -8   38.72    3.22
   5   3  -8   42.21    2.88
  -5  -3   8   44.82    2.77
  -5  -3   8   47.93    2.61
   4   3  -8  524.69   30.02
   4   3  -8  591.81   29.69
   4   3  -8  577.78   29.50
  -4  -3   8  580.56   29.41
  -4  -3   8  598.01   29.53
   3   3  -8  237.71   13.60
   3   3  -8  259.51   13.25
   3   3  -8  255.53   13.20
  -3  -3   8  252.81   13.05
  -3  -3   8  235.32   13.03
  -3  -3   8  265.31   13.12
   2   3  -8  389.45   20.64
   2   3  -8  396.76   20.94
   2   3  -8  394.90   20.53
   2   3  -8  379.13   20.54
  -2  -3   8  409.06   20.71
  -2  -3   8  413.51   20.45
  -2  -3   8  397.20   20.42
  -2  -3   8  392.93   20.35
   1   3  -8  447.03   23.97
   1   3  -8  454.95   24.29
   1   3  -8  483.77   23.98
   1   3  -8  415.35   24.00
  -1  -3   8  500.01   23.91
  -1  -3   8  491.00   24.14
  -1  -3   8  463.78   23.79
   0   3  -8    7.10    0.77
   0   3  -8    6.57    0.93
   0   3  -8    6.40    0.88
   0   3  -8    7.00    0.91
   0  -3   8    7.27    0.68
   0  -3   8    6.75    0.89
   0  -3   8    6.34    0.63
  -1   3  -8  154.11    8.50
  -1   3  -8  154.31    8.44
  -1   3  -8  154.70    8.64
   1  -3   8  152.06    8.29
   1  -3   8  168.33    8.37
   1  -3   8  165.94    8.54
  -2   3  -8   46.15    2.98
   2  -3   8   46.94    2.73
   2  -3   8   48.30    2.87
   2  -3   8   45.73    2.74
  -3   3  -8   31.08    2.13
  -3   3  -8   28.60    2.20
   3  -3   8   31.88    2.28
   3  -3   8   31.83    2.00
  -4   3  -8   16.43    1.58
  -4   3  -8   17.85    1.70
   4  -3   8   17.14    1.41
  -5   3  -8   23.32    2.30
   5  -3   8   22.56    1.89
   7   2  -8    1.57    1.27
  -7  -2   8    2.78    1.33
   6   2  -8   56.83    4.29
   6   2  -8   64.99    3.93
  -6  -2   8   62.95    3.59
  -6  -2   8   60.09    3.80
   5   2  -8  117.82    6.45
   5   2  -8  104.63    6.83
  -5  -2   8  119.23    6.35
  -5  -2   8  113.83    6.19
   4   2  -8    2.07    0.81
   4   2  -8    1.73    0.60
  -4  -2   8    2.86    0.55
  -4  -2   8    1.97    0.79
   3   2  -8   22.89    1.95
   3   2  -8   23.40    1.71
   3   2  -8   19.95    1.53
  -3  -2   8   19.97    1.48
  -3  -2   8   18.01    1.43
  -3  -2   8   22.18    1.47
   2   2  -8  168.65    8.77
   2   2  -8  168.19    8.89
   2   2  -8  152.12    8.80
   2   2  -8  161.51    8.97
   2   2  -8  155.07    9.11
  -2  -2   8  172.63    8.74
  -2  -2   8  160.06    8.69
  -2  -2   8  167.84    8.62
  -2  -2   8  168.24    8.93
   1   2  -8  462.90   25.74
   1   2  -8  491.21   25.66
   1   2  -8  472.64   25.71
   1   2  -8  485.27   26.00
  -1  -2   8  550.04   25.88
  -1  -2   8  527.23   25.55
  -1  -2   8  521.93   25.68
  -1  -2   8  479.89   25.65
   0   2  -8   13.38    1.18
   0   2  -8   12.59    1.18
   0  -2   8   12.31    1.02
   0  -2   8   11.20    0.95
   0  -2   8   12.37    1.19
  -1   2  -8  578.44   30.13
   1  -2   8  608.40   30.27
   1  -2   8  561.93   30.10
   1  -2   8  599.58   30.04
  -2   2  -8  309.92   16.67
  -2   2  -8  318.15   16.61
   2  -2   8  310.47   16.55
   2  -2   8  335.87   16.72
  -3   2  -8  103.36    5.90
  -3   2  -8  105.25    5.86
   3  -2   8  106.96    5.82
   3  -2   8  103.26    5.87
  -4   2  -8  324.10   16.95
  -4   2  -8  323.05   16.97
   4  -2   8  317.11   16.82
  -5   2  -8    4.54    1.07
   5  -2   8    6.41    1.05
   7   1  -8   19.08    2.53
  -7  -1   8   23.74    1.89
   6   1  -8  488.30   25.57
   6   1  -8  429.61   25.96
  -6  -1   8  512.23   25.59
  -6  -1   8  535.47   25.44
   5   1  -8  145.79    8.34
   5   1  -8  141.02    8.77
  -5  -1   8  158.63    8.34
  -5  -1   8  164.58    8.26
   4   1  -8  153.20    9.49
   4   1  -8  167.23    9.21
   4   1  -8  161.27    9.09
  -4  -1   8  176.93    9.02
  -4  -1   8  186.08    9.13
   3   1  -8  362.21   20.45
   3   1  -8  397.17   20.05
   3   1  -8  371.78   20.16
  -3  -1   8  378.27   19.98
  -3  -1   8  422.53   20.08
   2   1  -8   76.99    4.36
   2   1  -8   76.00    4.24
   2   1  -8   74.65    4.64
   2   1  -8   69.76    4.36
  -2  -1   8   73.25    4.44
  -2  -1   8   74.18    4.25
  -2  -1   8   72.79    4.15
  -2  -1   8   81.16    4.30
   1   1  -8  265.68   13.30
   1   1  -8  230.72   13.36
  -1  -1   8  248.34   13.19
  -1  -1   8  245.50   13.32
  -1  -1   8  259.50   13.35
  -1  -1   8  274.05   13.53
   0   1  -8   13.39    1.27
   0   1  -8   13.86    1.12
   0  -1   8   15.75    1.40
   0  -1   8   14.76    1.24
   0  -1   8   14.46    1.15
   0  -1   8   15.81    1.23
  -1   1  -8   10.17    0.96
   1  -1   8   11.95    1.09
   1  -1   8   12.05    1.32
  -2   1  -8   51.98    3.30
  -2   1  -8   56.66    3.34
   2  -1   8   56.89    3.59
   2  -1   8   58.48    3.40
  -3   1  -8   53.10    3.34
  -3   1  -8   55.29    3.37
   3  -1   8   55.55    3.60
   3  -1   8   55.90    3.40
  -4   1  -8  302.78   15.68
  -4   1  -8  291.53   15.71
   4  -1   8  296.84   15.71
  -5   1  -8   10.58    1.60
   5  -1   8    8.75    1.58
   7   0  -8   13.83    2.27
   7   0  -8   20.48    2.70
  -7   0   8   15.73    1.68
   6   0  -8   96.33    5.67
   6   0  -8   90.33    6.13
  -6   0   8  105.18    5.65
  -6   0   8  101.26    5.74
   5   0  -8    8.47    1.43
  -5   0   8    8.63    1.08
  -5   0   8    9.30    1.03
   4   0  -8  102.59    6.92
   4   0  -8  119.46    6.54
  -4   0   8  123.74    6.54
  -4   0   8  127.68    6.60
   3   0  -8  345.69   19.57
   3   0  -8  387.88   19.41
   3   0  -8  317.10   20.24
  -3   0   8  393.52   19.45
  -3   0   8  424.77   19.65
   2   0  -8   14.96    1.18
   2   0  -8   13.62    1.41
  -2   0   8   16.35    1.27
  -2   0   8   13.96    1.22
   1   0  -8  592.67   28.28
   1   0  -8  483.85   28.36
  -1   0   8  520.41   28.32
  -1   0   8  606.40   28.59
  -1   0   8  545.25   28.35
   0   0  -8  337.76   18.20
   0   0   8  390.18   18.62
   0   0   8  328.45   18.35
   0   0   8  351.22   18.37
  -1   0  -8   20.84    1.44
  -1   0  -8   20.83    1.46
   1   0   8   17.89    1.78
   1   0   8   17.50    1.71
  -2   0  -8  485.54   23.90
  -2   0  -8  450.85   23.79
   2   0   8  449.44   23.98
  -3   0  -8   61.52    3.74
  -3   0  -8   59.22    3.86
   3   0   8   65.59    3.87
  -4   0  -8   79.39    4.64
  -4   0  -8   76.18    4.53
   4   0   8   76.44    4.73
   7  -1  -8  210.84   11.71
   7  -1  -8  203.22   12.31
  -7   1   8  233.45   11.78
   6  -1  -8  166.23   10.04
   6  -1  -8  171.32    9.41
  -6   1   8  187.69    9.52
  -6   1   8  166.03    9.50
   5  -1  -8  236.59   12.86
  -5   1   8  248.61   12.94
  -5   1   8  243.32   12.94
   4  -1  -8    7.66    0.92
  -4   1   8    8.55    1.00
  -4   1   8    9.00    1.01
   3  -1  -8   11.35    1.21
  -3   1   8    8.93    0.99
  -3   1   8    8.30    1.11
   2  -1  -8   13.67    1.14
   2  -1  -8   13.65    1.21
  -2   1   8   13.42    1.23
  -2   1   8   13.52    1.48
   1  -1  -8  108.75    5.51
   1  -1  -8  106.32    5.50
  -1   1   8   97.06    5.73
  -1   1   8   87.55    5.65
   0  -1  -8   40.52    2.64
   0   1   8   38.13    2.58
   0   1   8   36.55    2.58
  -1  -1  -8   17.78    1.29
  -1  -1  -8   20.68    1.43
   1   1   8   16.43    1.51
  -2  -1  -8  352.94   18.45
  -2  -1  -8  362.65   18.32
   2   1   8  348.10   18.63
  -3  -1  -8   63.83    3.77
  -3  -1  -8   60.68    3.58
   3   1   8   60.37    3.91
  -4  -1  -8  188.79   10.32
   4   1   8  191.43   10.56
   7  -2  -8   45.98    3.17
   6  -2  -8   50.40    3.31
  -6   2   8   56.37    3.53
  -6   2   8   51.19    3.46
   5  -2  -8  290.75   15.82
  -5   2   8  294.08   15.96
  -5   2   8  321.49   16.05
   4  -2  -8   54.62    3.26
  -4   2   8   56.07    3.44
  -4   2   8   52.22    3.35
   3  -2  -8  407.56   22.29
   3  -2  -8  409.97   22.33
  -3   2   8  442.12   22.48
  -3   2   8  466.19   22.47
   2  -2  -8  442.80   24.17
   2  -2  -8  471.35   24.17
  -2   2   8  489.58   24.39
  -2   2   8  475.78   24.43
   1  -2  -8   81.85    4.40
   1  -2  -8   80.05    4.28
  -1   2   8   74.55    4.55
  -1   2   8   70.22    4.48
   0  -2  -8  318.03   15.85
   0  -2  -8  318.95   15.97
   0   2   8  281.31   16.22
   0   2   8  308.99   16.22
  -1  -2  -8   30.82    1.99
  -1  -2  -8   30.67    1.81
   1   2   8   29.22    2.19
   1   2   8   27.14    2.24
  -2  -2  -8    1.50    0.49
   2   2   8    2.27    0.73
  -3  -2  -8   80.13    4.55
   3   2   8   74.00    4.75
   6  -3  -8   49.90    3.27
  -6   3   8   53.69    3.86
   5  -3  -8   27.74    2.02
  -5   3   8   30.80    2.31
  -5   3   8   26.28    2.18
  -4   3   8    1.13    0.57
  -4   3   8    2.40    0.68
   3  -3  -8   50.89    3.22
   3  -3  -8   55.13    3.35
  -3   3   8   58.01    3.56
  -3   3   8   57.24    3.43
   2  -3  -8  146.49    7.92
  -2   3   8  151.11    8.28
  -2   3   8  148.47    8.18
   1  -3  -8    9.69    0.96
   1  -3  -8   10.44    0.96
  -1   3   8   10.02    1.24
  -1   3   8    8.89    1.15
   0  -3  -8  392.46   19.82
   0  -3  -8  404.96   20.07
   0   3   8  356.90   20.39
   0   3   8  397.25   20.37
  -1  -3  -8   98.26    5.24
   1   3   8   85.25    5.54
   1   3   8   96.43    5.52
  -2  -3  -8  239.57   12.73
   2   3   8  241.93   13.03
  -3  -3  -8  251.19   13.32
  -5   4   8  211.58   11.61
  -5   4   8  208.48   11.39
   4  -4  -8  210.80   11.42
  -4   4   8  219.19   11.75
  -4   4   8  224.56   11.91
   3  -4  -8    4.15    0.78
  -3   4   8    4.00    0.88
  -3   4   8    2.50    0.73
   2  -4  -8  444.40   22.13
  -2   4   8  400.62   22.34
  -2   4   8  440.88   22.54
   1  -4  -8   32.55    2.05
  -1   4   8   28.80    2.30
  -1   4   8   33.06    2.49
   0  -4  -8   25.95    1.75
   0   4   8   22.33    2.15
   0   4   8   26.27    2.11
  -1  -4  -8    4.21    0.75
   1   4   8    3.21    0.92
   1   4   8    2.96    1.01
  -2  -4  -8   22.26    1.76
   2   4   8   18.37    2.65
  -3  -4  -8   87.10    5.12
  -4   5   8   92.33    5.46
  -3   5   8    5.31    1.12
  -3   5   8    6.24    1.23
  -2   5   8  263.88   13.83
  -2   5   8  245.91   13.63
  -1   5   8   88.86    5.27
  -1   5   8   79.03    5.02
   0   5   8   87.80    5.37
   0   5   8   82.78    5.17
   1   5   8  294.09   15.92
  -2   6   8    1.97    0.95
   2   9  -9   81.10    5.72
   1   9  -9   -0.98    1.27
   0   9  -9  177.78    9.91
  -1   9  -9  160.23    9.47
   4   8  -9  160.84    9.04
   3   8  -9    3.23    0.98
   3   8  -9    3.55    1.39
   2   8  -9   50.92    3.29
   2   8  -9   51.78    4.01
   1   8  -9    5.51    0.93
   1   8  -9    5.40    1.36
   0   8  -9   54.65    3.37
  -1   8  -9    5.75    1.16
  -1   8  -9    7.75    1.15
  -2   8  -9   36.25    2.90
   5   7  -9   33.23    2.85
   4   7  -9  288.91   16.43
   4   7  -9  301.59   15.78
   3   7  -9    1.07    0.70
   3   7  -9    0.71    1.01
   2   7  -9  338.29   18.52
   2   7  -9  367.46   19.11
   1   7  -9  158.54    8.87
   1   7  -9  170.28    9.43
   0   7  -9   63.68    4.20
   0   7  -9   63.61    3.79
  -1   7  -9  307.35   15.69
  -1   7  -9  296.21   16.01
  -1   7  -9  293.58   15.87
  -2   7  -9   17.28    1.92
  -2   7  -9   19.06    1.64
  -3   7  -9   25.74    3.26
  -3   7  -9   24.05    2.04
  -4   7  -9   37.19    2.86
   5   6  -9   39.69    2.94
   5   6  -9   35.82    3.44
   4   6  -9   40.52    2.90
   4   6  -9   41.05    3.41
   3   6  -9   41.28    3.35
   3   6  -9   44.88    2.90
  -3  -6   9   42.78    2.36
   2   6  -9   15.50    1.74
   2   6  -9   13.28    1.66
   2   6  -9   15.07    1.78
   1   6  -9  116.39    6.27
   1   6  -9  110.73    6.72
   1   6  -9  112.83    6.30
   0   6  -9   39.53    2.93
   0   6  -9   42.12    2.79
   0   6  -9   40.73    2.64
   0  -6   9   41.85    2.70
  -1   6  -9  398.50   20.79
  -1   6  -9  384.89   20.65
  -1   6  -9  398.67   20.48
  -2   6  -9    6.79    1.06
  -2   6  -9    9.34    1.40
  -3   6  -9  184.81    9.78
  -3   6  -9  175.49   10.08
  -4   6  -9  185.09   10.13
  -6  -5   9  227.92   12.09
   5   5  -9   21.05    2.54
   5   5  -9   25.89    2.14
  -5  -5   9   22.24    1.68
   4   5  -9  315.57   17.06
   4   5  -9  316.09   17.58
  -4  -5   9  335.86   16.70
   3   5  -9  270.30   14.98
   3   5  -9  291.42   14.78
   3   5  -9  283.91   15.52
  -3  -5   9  281.73   14.68
  -3  -5   9  292.32   14.67
   2   5  -9   49.35    3.54
   2   5  -9   50.12    3.12
   2   5  -9   48.90    3.07
  -2  -5   9   51.92    2.81
  -2  -5   9   50.24    2.81
   1   5  -9  399.17   21.07
   1   5  -9  395.66   21.50
   1   5  -9  405.36   21.10
  -1  -5   9  412.50   20.77
  -1  -5   9  419.86   20.78
   0   5  -9   34.11    2.35
   0   5  -9   33.86    2.61
   0   5  -9   34.34    2.47
   0  -5   9   37.33    2.01
   0  -5   9   38.30    2.46
   0  -5   9   36.90    2.02
   1  -5   9   49.83    2.74
   1  -5   9   53.35    3.09
   1  -5   9   49.32    2.75
  -2   5  -9   14.92    1.63
   2  -5   9   14.73    0.99
  -3   5  -9   18.28    1.90
  -3   5  -9   19.57    1.71
  -4   5  -9  102.51    5.98
   6   4  -9    3.52    1.44
   6   4  -9    1.27    0.94
  -6  -4   9    2.52    0.76
   5   4  -9    9.93    1.83
   5   4  -9   12.02    1.51
  -5  -4   9   14.16    1.27
   4   4  -9  168.79   10.11
   4   4  -9  173.23    9.64
  -4  -4   9  187.40    9.30
   3   4  -9   33.00    2.23
   3   4  -9   31.06    2.64
   3   4  -9   32.40    2.27
  -3  -4   9   38.36    2.12
  -3  -4   9   28.35    2.01
   2   4  -9   21.86    1.68
   2   4  -9   23.88    1.77
  -2  -4   9   21.00    1.49
  -2  -4   9   24.60    1.55
   1   4  -9  282.00   15.50
   1   4  -9  290.12   15.88
   1   4  -9  291.21   15.51
  -1  -4   9  314.86   15.33
  -1  -4   9  303.47   15.28
   0   4  -9  218.08   10.93
   0   4  -9  192.93   11.14
   0  -4   9  198.38   10.62
   0  -4   9  207.73   10.66
   0  -4   9  206.82   10.98
  -1   4  -9  325.91   16.96
   1  -4   9  328.97   16.89
   1  -4   9  310.33   16.60
   1  -4   9  326.62   16.64
  -2   4  -9  415.31   20.07
  -2   4  -9  385.31   20.22
   2  -4   9  386.87   20.47
   2  -4   9  368.14   19.76
   2  -4   9  367.48   19.74
  -3   4  -9    6.03    1.20
  -3   4  -9    5.11    1.01
   3  -4   9    3.71    0.75
  -4   4  -9  199.22   10.74
  -4   4  -9  194.49   10.90
   6   3  -9  247.60   14.52
   6   3  -9  255.45   13.97
  -6  -3   9  274.15   13.81
   5   3  -9  250.10   14.10
   5   3  -9  247.21   14.62
  -5  -3   9  281.76   13.98
  -5  -3   9  277.67   13.82
   4   3  -9   33.75    2.96
   4   3  -9   39.28    2.56
   4   3  -9   38.38    2.57
  -4  -3   9   38.11    2.32
  -4  -3   9   36.40    2.38
   3   3  -9  256.64   14.73
   3   3  -9  260.05   14.26
   3   3  -9  273.31   14.29
  -3  -3   9  285.51   14.17
  -3  -3   9  277.43   14.12
   2   3  -9   20.39    1.70
   2   3  -9   20.16    1.73
   2   3  -9   18.78    1.87
  -2  -3   9   21.50    1.50
  -2  -3   9   21.85    1.51
  -2  -3   9   22.02    1.45
   1   3  -9    1.59    0.64
   1   3  -9    2.01    0.59
   1   3  -9    2.29    0.50
  -1  -3   9    1.36    0.69
  -1  -3   9    3.23    0.55
   0  -3   9   40.67    2.56
   0  -3   9   44.38    2.91
   0  -3   9   48.14    2.68
  -1   3  -9   70.06    4.00
   1  -3   9   64.19    3.82
   1  -3   9   70.14    4.11
   1  -3   9   69.53    3.89
  -2   3  -9   97.62    5.65
  -2   3  -9   99.71    5.53
   2  -3   9   94.65    5.51
   2  -3   9   98.10    5.38
  -3   3  -9   10.03    1.21
  -3   3  -9    8.66    1.28
   3  -3   9    8.92    1.05
  -4   3  -9  275.57   14.52
  -4   3  -9  271.49   14.41
   4  -3   9  261.23   14.15
   6   2  -9   30.17    3.02
   6   2  -9   36.83    2.61
  -6  -2   9   32.74    2.26
  -6  -2   9   32.16    2.43
   5   2  -9  227.46   12.71
   5   2  -9  221.21   13.22
  -5  -2   9  247.99   12.64
  -5  -2   9  251.66   12.51
   4   2  -9   34.94    2.45
   4   2  -9   35.89    2.60
   4   2  -9   33.42    2.87
  -4  -2   9   37.99    2.39
  -4  -2   9   37.52    2.31
   3   2  -9  438.68   23.68
   3   2  -9  427.11   23.22
   3   2  -9  449.14   23.17
  -3  -2   9  471.53   23.08
   2   2  -9  131.95    7.73
   2   2  -9  135.08    8.16
  -2  -2   9  148.39    7.63
  -2  -2   9  146.54    7.61
   1   2  -9  156.88    9.35
   1   2  -9  182.51    9.40
  -1  -2   9  174.25    9.10
  -1  -2   9  180.02    9.25
  -1  -2   9  169.74    9.24
   0   2  -9  520.80   26.96
   0  -2   9  510.06   26.84
   0  -2   9  533.28   27.06
  -1   2  -9    2.06    0.51
   1  -2   9    0.73    0.64
   1  -2   9    1.87    0.52
  -2   2  -9  209.17   11.07
  -2   2  -9  217.71   11.04
   2  -2   9  200.77   10.93
   2  -2   9  196.04   11.06
  -3   2  -9  103.99    5.91
  -3   2  -9  105.21    5.87
   3  -2   9   98.83    5.78
  -4   2  -9    1.51    0.80
  -4   2  -9    1.20    0.80
   4  -2   9    1.21    0.73
   6   1  -9    1.60    1.12
   6   1  -9    2.12    0.77
  -6  -1   9    1.56    0.66
  -6  -1   9    1.93    0.74
   5   1  -9  189.75   11.93
   5   1  -9  213.19   11.47
  -5  -1   9  227.59   11.36
  -5  -1   9  220.36   11.44
   4   1  -9   44.08    2.88
   4   1  -9   41.93    3.32
  -4  -1   9   47.85    2.88
   3   1  -9    7.90    0.93
   3   1  -9    7.77    1.32
  -3  -1   9    8.03    0.91
   2   1  -9    3.74    0.66
  -2  -1   9    3.29    0.67
  -1  -1   9   73.20    4.26
  -1  -1   9   70.40    4.19
   0   1  -9  344.63   16.86
   0  -1   9  300.69   17.14
   1  -1   9    1.65    0.53
  -2   1  -9  362.21   18.40
  -2   1  -9  362.52   18.38
   2  -1   9  330.92   18.40
  -3   1  -9  192.73   10.19
  -3   1  -9  191.55   10.23
   3  -1   9  181.34   10.22
  -4   1  -9   26.80    2.20
   4  -1   9   26.17    2.27
  -7   0   9   85.80    5.14
   6   0  -9    1.26    0.70
   5   0  -9  380.51   20.04
   5   0  -9  355.16   20.63
  -5   0   9  407.64   20.04
  -5   0   9  388.67   20.07
   4   0  -9  222.19   13.34
   4   0  -9  226.37   12.72
  -4   0   9  256.57   12.79
  -4   0   9  255.77   12.82
   3   0  -9  162.14    8.77
  -3   0   9  162.03    8.81
  -3   0   9  163.53    8.82
   2   0  -9  474.26   24.24
  -2   0   9  451.02   24.29
  -2   0   9  481.20   24.33
   1   0  -9   28.33    1.98
   1   0  -9   26.77    1.86
  -1   0   9   26.65    1.99
  -1   0   9   28.01    2.00
   0   0  -9  284.77   14.02
   0   0   9  253.29   14.14
   0   0   9  262.45   14.14
  -1   0  -9   68.59    3.97
  -1   0  -9   69.20    3.92
   1   0   9   65.02    4.09
  -2   0  -9   10.86    1.17
  -2   0  -9    9.89    1.06
   2   0   9    9.39    1.27
  -3   0  -9   21.94    1.76
  -3   0  -9   22.94    1.87
   3   0   9   19.99    1.94
  -4   0  -9   55.39    3.96
   6  -1  -9   19.07    1.90
  -6   1   9   21.78    1.96
  -6   1   9   22.90    2.06
   5  -1  -9   30.53    2.34
  -5   1   9   35.72    2.47
  -5   1   9   33.65    2.41
   4  -1  -9    3.97    0.74
  -4   1   9    4.72    0.90
   3  -1  -9   63.51    3.80
  -3   1   9   64.88    3.92
  -3   1   9   64.90    3.90
   2  -1  -9  173.11    9.26
   2  -1  -9  165.04    9.27
  -2   1   9  176.51    9.42
  -2   1   9  177.73    9.44
   1  -1  -9   46.34    2.74
   1  -1  -9   44.96    2.76
  -1   1   9   46.22    2.93
  -1   1   9   39.85    2.87
   0  -1  -9  419.45   20.00
   0  -1  -9  416.09   20.07
   0   1   9  348.17   20.22
   0   1   9  360.54   20.20
  -1  -1  -9  360.35   17.98
  -1  -1  -9  362.78   18.12
   1   1   9  317.80   18.25
  -2  -1  -9   31.50    2.08
  -2  -1  -9   33.41    2.25
   2   1   9   29.42    2.40
  -3  -1  -9  313.23   15.98
   3   1   9  289.72   16.12
   6  -2  -9  193.03   11.12
  -6   2   9  221.67   11.49
   5  -2  -9  111.18    6.53
  -5   2   9  128.05    6.81
  -5   2   9  112.03    6.65
   4  -2  -9  363.91   20.39
  -4   2   9  393.52   20.57
  -4   2   9  420.94   20.67
   3  -2  -9    3.05    0.63
  -3   2   9    1.89    0.65
  -3   2   9    1.75    0.59
   2  -2  -9   32.28    2.29
   2  -2  -9   36.21    2.23
  -2   2   9   34.14    2.41
  -2   2   9   32.33    2.43
   1  -2  -9   98.43    5.51
   1  -2  -9  104.09    5.50
  -1   2   9  101.59    5.78
  -1   2   9   93.87    5.78
   0  -2  -9    7.13    0.90
   0   2   9    6.49    1.12
   0   2   9    6.44    1.21
  -1  -2  -9    2.88    0.53
  -1  -2  -9    2.72    0.65
   1   2   9    2.80    0.80
   2   2   9    1.11    0.76
   6  -3  -9   20.47    2.08
  -5   3   9   44.33    3.17
  -5   3   9   40.41    2.96
   4  -3  -9  229.04   12.69
  -4   3   9  254.75   13.10
  -4   3   9  240.53   12.95
   3  -3  -9   20.32    1.62
  -3   3   9   25.05    2.01
  -3   3   9   20.47    1.82
   2  -3  -9  302.53   16.11
  -2   3   9  309.52   16.40
  -2   3   9  316.84   16.52
   1  -3  -9  331.10   16.27
  -1   3   9  297.73   16.52
  -1   3   9  305.26   16.61
   0  -3  -9   11.78    1.15
   0   3   9   11.04    1.47
   0   3   9    8.51    1.52
  -1  -3  -9  291.23   14.93
   1   3   9  276.71   15.25
  -2  -3  -9   70.64    4.26
   4  -4  -9   97.64    5.52
  -4   4   9   91.47    5.58
   3  -4  -9    7.00    1.07
  -3   4   9   10.84    1.41
  -3   4   9    8.23    1.44
   2  -4  -9    8.07    1.06
  -2   4   9    7.57    1.42
   1  -4  -9   65.70    3.71
  -1   4   9   69.49    4.27
  -1   4   9   55.20    4.01
   0   4   9   27.82    2.56
   0   4   9   26.97    2.37
  -1  -4  -9  177.10    9.53
  -2  -4  -9   44.94    3.03
   2   9 -10  104.62    7.14
   1   9 -10  274.18   15.62
   4   8 -10   10.99    2.12
   3   8 -10    2.12    1.59
   3   8 -10    1.56    0.94
   2   8 -10   66.83    4.24
   2   8 -10   70.86    5.09
   1   8 -10   56.49    4.24
   1   8 -10   53.76    3.50
   0   8 -10   15.10    1.70
   0   8 -10   14.79    2.83
  -1   8 -10  245.66   14.71
   4   7 -10   83.61    5.23
   3   7 -10  232.85   13.62
   3   7 -10  246.92   12.96
   2   7 -10   21.15    2.46
   2   7 -10   20.98    1.84
   1   7 -10   75.30    4.45
   1   7 -10   73.25    5.00
   0   7 -10   32.31    2.40
  -1   7 -10    3.28    0.82
  -1   7 -10    6.21    1.25
  -2   7 -10    4.64    1.41
  -2   7 -10    4.01    1.26
  -3   7 -10    7.37    1.28
   5   6 -10   20.38    2.84
   4   6 -10   19.18    1.92
   4   6 -10   15.67    2.34
   3   6 -10  247.47   13.93
   3   6 -10  248.03   13.30
   2   6 -10    3.50    1.14
   2   6 -10    3.45    0.77
   1   6 -10  279.52   14.65
   1   6 -10  273.83   15.12
   0   6 -10  145.16    8.78
   0   6 -10  164.84    8.54
  -1   6 -10    3.10    0.76
  -2   6 -10  389.94   19.79
  -2   6 -10  364.01   20.07
  -3   6 -10   61.46    3.97
   5   5 -10  230.06   14.06
   5   5 -10  253.48   13.52
  -5  -5  10  260.89   13.07
   4   5 -10    9.08    1.88
   4   5 -10    7.96    1.30
  -4  -5  10    7.41    1.49
   3   5 -10   49.43    3.77
   3   5 -10   48.13    3.18
  -3  -5  10   47.54    2.82
   2   5 -10   22.28    2.24
   2   5 -10   18.34    1.87
   2   5 -10   24.70    1.85
  -2  -5  10   23.24    1.48
   1   5 -10   10.56    1.58
   1   5 -10    8.74    1.12
  -1  -5  10   10.03    0.83
   0   5 -10   47.22    3.08
   0   5 -10   46.60    3.39
   0  -5  10   49.61    2.69
  -1   5 -10   10.28    1.26
   1  -5  10   11.46    0.88
  -2   5 -10  228.91   12.77
  -2   5 -10  238.17   12.53
  -3   5 -10    9.59    1.74
  -3   5 -10   11.10    1.54
  -6  -4  10   40.15    2.80
   5   4 -10   84.89    5.94
   5   4 -10   83.17    5.31
  -5  -4  10   94.42    5.04
   4   4 -10  111.09    6.52
   4   4 -10  107.56    7.08
  -4  -4  10  121.87    6.27
   3   4 -10  274.75   15.33
   3   4 -10  280.38   14.77
   3   4 -10  276.36   14.70
  -3  -4  10  281.46   14.71
   2   4 -10  344.99   18.45
   2   4 -10  300.35   17.87
   2   4 -10  373.22   17.97
  -2  -4  10  353.78   17.71
  -2  -4  10  336.49   17.62
   1   4 -10   56.45    3.41
   1   4 -10   54.78    3.83
  -1  -4  10   50.08    3.10
  -1  -4  10   58.17    3.18
   0  -4  10  318.34   16.30
   0  -4  10  311.78   16.25
  -1   4 -10   61.33    3.47
   1  -4  10   54.24    3.51
   1  -4  10   50.63    3.29
   1  -4  10   53.85    3.16
  -2   4 -10   43.73    2.88
  -2   4 -10   42.71    3.08
   2  -4  10   41.21    2.57
  -3   4 -10   44.31    3.17
  -3   4 -10   43.47    2.96
   3  -4  10   37.86    2.57
  -6  -3  10   16.40    1.69
   5   3 -10   18.65    1.84
   5   3 -10   15.14    2.35
  -5  -3  10   17.98    1.64
  -5  -3  10   21.12    1.56
   4   3 -10   29.87    2.85
   4   3 -10   31.36    2.36
  -4  -3  10   32.05    2.13
  -4  -3  10   33.79    2.20
   3   3 -10   43.31    2.84
   3   3 -10   40.66    3.30
  -3  -3  10   43.17    2.69
  -3  -3  10   43.39    2.67
   2   3 -10   16.09    1.35
   2   3 -10   11.18    1.61
   1   3 -10    0.85    0.68
   1   3 -10    1.33    0.50
  -1  -3  10    1.37    0.47
   0   3 -10  220.80   11.38
   0  -3  10  204.35   11.25
  -1   3 -10  141.54    7.68
   1  -3  10  137.36    7.54
  -2   3 -10  182.17    9.92
  -2   3 -10  186.07    9.80
   2  -3  10  170.63    9.58
  -3   3 -10  355.92   17.85
  -3   3 -10  347.53   17.94
   3  -3  10  308.91   17.57
   4  -3  10    6.59    1.09
  -6  -2  10   19.17    1.94
  -6  -2  10   20.24    1.88
   5   2 -10  189.44   10.55
   5   2 -10  173.35   11.08
  -5  -2  10  200.96   10.45
  -5  -2  10  206.60   10.35
   4   2 -10  232.88   13.25
   4   2 -10  229.41   13.82
  -4  -2  10  264.45   13.15
  -4  -2  10  267.28   13.21
   3   2 -10    5.75    1.35
   3   2 -10    7.12    1.00
  -3  -2  10    8.77    1.00
  -3  -2  10    6.30    0.91
   2   2 -10  389.68   20.18
   2   2 -10  388.80   20.75
  -2  -2  10  389.36   20.12
  -2  -2  10  378.75   20.09
   1   2 -10   43.75    2.90
  -1  -2  10   47.64    2.91
   0   2 -10   28.63    2.04
   0  -2  10   29.14    2.03
  -1   2 -10   61.28    3.57
  -1   2 -10   59.14    3.67
   1  -2  10   53.20    3.47
  -2   2 -10   10.63    1.33
   2  -2  10   10.16    1.22
  -3   2 -10   17.95    1.81
  -3   2 -10   18.16    1.78
   3  -2  10   16.92    1.71
  -4   2 -10   17.26    2.24
   4  -2  10   17.66    2.15
  -6  -1  10   16.66    1.72
   5   1 -10   20.55    1.86
   5   1 -10   16.34    2.31
  -5  -1  10   19.58    1.74
  -5  -1  10   20.58    1.70
   4   1 -10   95.75    5.49
   4   1 -10   84.33    6.02
  -4  -1  10   97.15    5.42
  -4  -1  10  100.97    5.47
   3   1 -10    8.01    1.06
  -3  -1  10    8.40    1.01
  -3  -1  10    8.17    1.03
   2   1 -10  339.76   17.54
  -2  -1  10  316.04   17.51
  -2  -1  10  348.43   17.58
   1   1 -10   53.21    3.20
  -1  -1  10   49.76    3.23
   0   1 -10   59.57    3.49
   0  -1  10   54.87    3.52
  -1   1 -10  430.33   21.96
  -1   1 -10  434.14   21.96
   1  -1  10  399.62   21.97
  -2   1 -10    9.27    1.23
   2  -1  10    8.15    1.28
  -3   1 -10  247.77   13.58
  -3   1 -10  258.94   13.24
   3  -1  10  234.31   13.26
  -4   1 -10  128.63    8.19
  -6   0  10  242.24   13.00
   5   0 -10    5.56    1.00
  -5   0  10    5.80    1.18
  -5   0  10    5.73    1.16
   4   0 -10  282.17   15.64
  -4   0  10  300.91   15.68
  -4   0  10  306.31   15.70
   3   0 -10   68.52    4.30
  -3   0  10   72.25    4.36
  -3   0  10   78.28    4.40
  -2   0  10   70.04    3.91
  -2   0  10   55.09    3.77
   1   0 -10    4.64    0.81
  -1   0  10    3.82    0.79
   0   0 -10   34.26    2.27
   0   0  10   34.34    2.41
   0   0  10   30.06    2.42
  -1   0 -10  138.77    7.51
  -1   0 -10  135.81    7.54
   1   0  10  134.81    7.70
  -2   0 -10    9.55    1.18
  -2   0 -10    8.82    1.27
   2   0  10    7.15    1.41
  -6   1  10   21.29    2.94
   5  -1 -10    6.89    1.27
  -5   1  10    4.82    1.01
  -5   1  10    6.64    1.16
   4  -1 -10  293.78   15.62
  -4   1  10  286.48   15.65
  -4   1  10  306.74   15.75
  -3   1  10  231.28   12.33
  -3   1  10  226.27   12.28
   2  -1 -10  135.12    7.19
  -2   1  10  131.09    7.36
  -2   1  10  125.67    7.34
   1  -1 -10  504.10   23.85
  -1   1  10  431.56   23.97
  -1   1  10  442.82   24.01
   0  -1 -10    3.41    0.72
   0   1  10    4.38    0.93
   0   1  10    1.88    0.74
  -1  -1 -10  213.99   10.67
  -1  -1 -10  199.84   10.46
   1   1  10  178.65   10.82
  -2  -1 -10  141.67    7.31
   2   1  10  116.62    7.43
   5  -2 -10   63.16    4.11
  -5   2  10   71.96    4.87
  -4   2  10    1.64    0.72
  -4   2  10    3.16    0.87
   3  -2 -10   67.19    3.89
  -3   2  10   62.66    4.10
  -3   2  10   63.97    4.06
   2  -2 -10   14.36    1.36
  -2   2  10   17.00    1.67
  -2   2  10   13.21    1.59
   1  -2 -10   95.49    5.13
  -1   2  10   84.77    5.33
  -1   2  10   87.66    5.41
   0  -2 -10   36.08    2.38
   0   2  10   32.30    2.61
   0   2  10   32.96    2.70
  -1  -2 -10  288.99   13.83
   1   2  10  230.54   14.02
   5  -3 -10  131.80    7.33
   4  -3 -10   33.74    2.41
   3  -3 -10  428.10   22.66
  -3   3  10  442.53   22.96
  -3   3  10  442.32   23.07
   2  -3 -10   26.81    1.99
  -2   3  10   25.92    2.35
  -2   3  10   27.43    2.29
   1  -3 -10  157.19    7.93
  -1   3  10  139.68    8.29
  -1   3  10  136.18    8.19
   0  -3 -10  142.11    7.30
   0   3  10  119.73    7.77
   0   3  10  133.56    8.53
  -1  -3 -10    2.86    0.86
   2  -4 -10    2.63    0.98
   1  -4 -10  110.93    6.20
   0  -4 -10  340.89   18.09
   3   8 -11  142.70    8.19
   2   8 -11  172.08   10.09
   2   8 -11  155.81    9.11
   1   8 -11   97.68    6.19
   1   8 -11   78.50    5.23
   3   7 -11    6.09    1.30
   3   7 -11    7.18    1.82
   2   7 -11    6.26    1.14
   2   7 -11    7.84    1.89
   1   7 -11   24.91    2.78
   1   7 -11   24.21    2.16
   0   7 -11   65.73    4.68
  -1   7 -11    3.14    1.00
  -2   7 -11  153.43    8.65
   4   6 -11   63.39    4.27
   3   6 -11   28.51    2.40
   3   6 -11   29.04    3.13
   2   6 -11  356.14   18.20
   2   6 -11  331.72   18.79
   1   6 -11   53.28    4.05
   1   6 -11   54.00    3.52
   0   6 -11  193.85   11.00
  -1   6 -11   54.09    4.03
  -1   6 -11   60.76    3.78
  -2   6 -11    6.71    1.23
   4   5 -11    2.00    1.36
   4   5 -11    3.12    0.98
  -4  -5  11    1.79    0.65
   3   5 -11   20.38    1.92
   3   5 -11   21.25    2.54
  -3  -5  11   18.91    1.97
   2   5 -11  122.92    7.75
   2   5 -11  126.68    7.18
  -2  -5  11  130.60    6.79
   1   5 -11    1.75    0.74
   1   5 -11    2.90    1.08
  -1  -5  11    2.75    0.50
   0   5 -11  170.45    9.24
   0  -5  11  164.72    8.77
  -1   5 -11  232.79   11.80
  -1   5 -11  200.83   11.97
  -2   5 -11    0.70    0.97
  -2   5 -11    2.52    0.88
  -5  -4  11  103.89    5.88
   4   4 -11  318.17   18.19
   4   4 -11  329.33   17.51
  -4  -4  11  339.85   17.20
   3   4 -11   14.29    1.54
   3   4 -11   11.01    2.04
  -3  -4  11   12.62    1.23
   2   4 -11   64.10    4.59
   2   4 -11   67.97    4.10
  -2  -4  11   64.96    3.81
   1   4 -11   79.17    5.41
   1   4 -11   88.03    5.01
   0   4 -11    1.79    0.64
   0  -4  11    1.39    0.64
  -1   4 -11    0.85    0.64
  -1   4 -11    1.00    0.84
  -2   4 -11    8.79    1.42
  -2   4 -11    8.42    1.44
   2  -4  11    8.40    1.12
   5   3 -11   19.99    3.11
  -5  -3  11   14.98    1.60
  -5  -3  11   15.78    1.70
   4   3 -11   90.33    6.36
   4   3 -11   95.51    5.75
  -4  -3  11   98.71    5.49
  -4  -3  11  102.83    5.56
   3   3 -11   51.68    4.14
   3   3 -11   58.08    3.65
  -3  -3  11   55.97    3.44
  -3  -3  11   59.66    3.48
   2   3 -11  182.56   10.14
   2   3 -11  184.81   10.75
  -2  -3  11  191.36    9.99
   1   3 -11  450.80   22.24
  -1  -3  11  399.52   21.99
   0   3 -11   46.73    3.07
   0  -3  11   46.56    2.94
  -1   3 -11  294.18   14.81
  -1   3 -11  280.08   14.95
   1  -3  11  258.87   14.57
  -2   3 -11   94.69    5.74
  -2   3 -11  101.09    5.69
   2  -3  11   89.36    5.40
   3  -3  11   19.04    1.92
   5   2 -11   46.04    4.30
   5   2 -11   51.73    3.71
  -5  -2  11   59.35    3.46
  -5  -2  11   57.34    3.51
   4   2 -11   72.86    5.44
   4   2 -11   81.40    4.84
  -4  -2  11   82.22    4.71
  -4  -2  11   80.67    4.65
   3   2 -11   57.13    4.30
   3   2 -11   56.65    3.62
  -3  -2  11   57.82    3.53
  -3  -2  11   54.75    3.48
   2   2 -11   17.69    1.58
  -2  -2  11   16.11    1.48
  -2  -2  11   14.40    1.43
   1   2 -11   -0.31    0.46
  -1  -2  11    0.65    0.53
   0   2 -11    0.70    0.51
   0  -2  11    1.50    0.62
  -1   2 -11  133.37    7.29
  -1   2 -11  131.42    7.37
   1  -2  11  122.63    7.19
  -2   2 -11   97.19    5.68
  -2   2 -11  101.73    5.72
   2  -2  11   88.56    5.54
  -3   2 -11  158.64    8.65
   3  -2  11  145.74    8.54
  -6  -1  11  208.61   11.32
   5   1 -11   12.55    1.78
   5   1 -11   11.44    3.10
  -5  -1  11   11.66    1.52
  -5  -1  11   14.66    1.56
   4   1 -11  108.93    6.56
  -4  -1  11  118.07    6.55
  -4  -1  11  117.20    6.52
   3   1 -11  324.23   17.43
  -3  -1  11  324.62   17.39
  -3  -1  11  343.23   17.44
  -2  -1  11    4.01    0.84
  -2  -1  11    4.55    0.87
   1   1 -11  449.02   22.62
  -1  -1  11  418.09   22.66
  -1  -1  11  434.70   22.66
   0   1 -11  159.87    8.47
   0  -1  11  147.24    8.48
  -1   1 -11   86.81    4.93
  -1   1 -11   85.75    4.94
   1  -1  11   74.44    4.89
  -2   1 -11   65.72    3.89
   2  -1  11   54.94    3.89
  -5   0  11   42.06    3.00
   4   0 -11   21.83    1.88
  -4   0  11   18.92    1.85
  -4   0  11   19.94    1.86
   3   0 -11   38.15    2.78
  -3   0  11   39.82    2.79
  -3   0  11   42.57    2.85
   2   0 -11   18.51    1.62
  -2   0  11   16.50    1.67
  -2   0  11   17.39    1.72
   1   0 -11  139.89    7.29
  -1   0  11  121.86    7.37
  -1   0  11  129.17    7.40
   0   0 -11   74.33    4.24
   0   0  11   64.09    4.29
  -1   0 -11   32.43    2.31
  -1   0 -11   31.21    2.36
   1   0  11   28.16    2.46
   4  -1 -11    6.65    1.17
  -4   1  11   12.10    1.80
  -4   1  11    9.86    1.50
   3  -1 -11  226.23   12.52
  -3   1  11  243.89   12.70
  -3   1  11  233.36   12.72
   2  -1 -11  131.88    7.38
  -2   1  11  135.90    7.61
  -2   1  11  131.02    7.55
   1  -1 -11   14.54    1.47
  -1   1  11   16.11    1.76
  -1   1  11   13.40    1.75
   0  -1 -11   82.09    4.83
   0  -1 -11   92.51    4.91
   0   1  11   70.02    4.96
   4  -2 -11   12.18    1.57
   3  -2 -11  181.82    9.86
   2  -2 -11  194.26   10.69
  -2   2  11  196.73   11.27
  -2   2  11  206.15   11.45
   1  -2 -11  103.89    5.94
   0  -2 -11  278.16   14.75
   4  -3 -11   88.07    5.28
   3  -3 -11    6.76    1.38
   2  -3 -11   50.41    3.30
   1  -3 -11   13.91    1.67
   2   7 -12  125.86    7.36
   2   7 -12  126.83    8.18
   1   7 -12   88.30    6.18
   1   7 -12   88.49    5.45
   0   7 -12   60.10    4.05
   3   6 -12   87.79    6.87
   3   6 -12   85.11    5.38
   2   6 -12   34.06    2.69
   2   6 -12   29.75    3.37
   1   6 -12   37.96    2.86
   1   6 -12   33.61    3.40
   0   6 -12   26.33    2.36
  -1   6 -12   43.12    3.26
   3   5 -12  124.70    7.14
   3   5 -12  119.35    7.88
   2   5 -12   35.86    3.49
   2   5 -12   37.78    2.83
  -2  -5  12   38.14    2.71
   1   5 -12  370.52   19.61
   0   5 -12   85.29    5.20
  -1   5 -12  247.69   13.43
  -5  -4  12   84.93    5.02
  -4  -4  12    5.39    0.96
   3   4 -12   63.55    4.09
   3   4 -12   60.54    4.78
  -3  -4  12   63.41    3.77
   2   4 -12   31.75    2.35
   2   4 -12   22.31    2.79
  -2  -4  12   25.36    1.93
  -1  -4  12   65.60    3.86
   0   4 -12    1.20    0.76
   0  -4  12    1.22    0.59
  -1   4 -12  123.80    6.89
  -1   4 -12  115.74    7.00
   1  -4  12  109.62    6.38
  -4  -3  12   68.10    4.18
  -4  -3  12   69.63    4.20
   3   3 -12  397.92   21.17
   3   3 -12  379.23   21.89
  -3  -3  12  427.33   20.97
   2   3 -12   39.84    3.03
  -2  -3  12   46.15    2.89
   1   3 -12   66.76    3.99
  -1  -3  12   55.99    3.69
   0   3 -12  217.73   11.23
   0  -3  12  192.62   10.95
  -1   3 -12    2.48    1.04
   1  -3  12    3.33    0.83
   2  -3  12   36.17    2.71
  -5  -2  12   10.94    1.60
  -4  -2  12   19.07    1.79
  -4  -2  12   17.39    1.79
   3   2 -12   88.07    5.38
  -3  -2  12   96.73    5.32
  -3  -2  12   84.48    5.23
  -2  -2  12   33.80    2.50
   1   2 -12  166.72    8.68
  -1  -2  12  143.99    8.50
   0   2 -12  313.97   16.23
   0  -2  12  296.15   16.15
   1  -2  12    2.21    0.87
  -2   2 -12  209.83   11.72
  -5  -1  12  354.90   18.79
  -4  -1  12  127.50    7.23
   3   1 -12  114.90    7.02
  -3  -1  12  133.01    7.08
  -3  -1  12  120.88    7.00
   2   1 -12   90.45    5.41
  -2  -1  12   94.11    5.44
  -2  -1  12   88.82    5.41
   1   1 -12    2.81    0.76
   0   1 -12    4.40    1.08
   0  -1  12    2.70    0.92
  -1   1 -12   29.22    2.49
   3   0 -12   55.94    4.03
  -3   0  12   46.08    3.42
   2   0 -12  375.48   18.92
  -2   0  12  332.78   18.94
  -2   0  12  367.39   19.05
   1   0 -12   24.98    2.32
  -1   0  12   22.58    2.25
  -1   0  12   23.42    2.73
   0   0 -12  386.91   20.29
   2   5 -13  148.54   10.27
  -4  -4  13    0.56    0.91
  -3  -4  13   89.83    5.21
  -2  -4  13  126.14    6.97
  -1  -4  13   14.40    1.56
  -3  -3  13    1.47    0.85
  -2  -3  13  116.20    6.58
  -1  -3  13   18.42    1.81
   0  -3  13    5.27    1.04
  -3  -2  13   13.71    1.92
  -2  -2  13  269.76   14.68
  -1  -2  13   78.40    5.12
   0   1 -13   51.63    3.90
   0   0   0    0.00    0.00
;
_shelx_hkl_checksum              75473
loop_
_space_group_symop_operation_xyz
'x, y, z'
'-x, -y, -z'
loop_
_atom_site_label
_atom_site_type_symbol
_atom_site_fract_x
_atom_site_fract_y
_atom_site_fract_z
_atom_site_U_iso_or_equiv
_atom_site_adp_type
_atom_site_occupancy
_atom_site_site_symmetry_order
_atom_site_calc_flag
Ba1 Ba 0.75906(4) 0.25721(4) 0.04489(3) 0.00685(9) Uani 1 1 d
Tm1 Tm 0.16255(3) 0.14925(2) 0.70100(2) 0.00334(8) Uani 1 1 d
Si1 Si 0.3842(2) 0.17744(16) 0.36902(13) 0.00286(19) Uani 1 1 d
Si2 Si 0.6775(2) 0.44118(16) 0.71041(13) 0.00305(19) Uani 1 1 d
O1 O 0.6123(6) 0.3108(5) 0.5186(4) 0.0081(5) Uani 1 1 d
O2 O 0.1671(6) 0.0890(5) 0.4375(4) 0.0072(5) Uani 1 1 d
O3 O 0.2540(6) 0.3258(5) 0.2753(4) 0.0071(5) Uani 1 1 d
O4 O 0.5054(6) 0.0152(5) 0.2486(4) 0.0085(6) Uani 1 1 d
O5 O 0.4456(6) 0.4175(5) 0.7914(4) 0.0087(6) Uani 1 1 d
O6 O 0.9295(6) 0.3796(5) 0.8033(4) 0.0062(5) Uani 1 1 d
F1 F 0.1516(6) 0.0981(5) 0.9274(4) 0.0173(6) Uani 1 1 d
loop_
_atom_site_aniso_label
_atom_site_aniso_U_11
_atom_site_aniso_U_22
_atom_site_aniso_U_33
_atom_site_aniso_U_23
_atom_site_aniso_U_13
_atom_site_aniso_U_12
Ba1 0.00833(12) 0.00515(13) 0.00576(13) -0.00003(9) 0.00147(9) 0.00107(9)
Tm1 0.00333(10) 0.00337(11) 0.00275(11) -0.00006(7) 0.00119(6) -0.00008(6)
Si1 0.0032(4) 0.0026(4) 0.0022(4) 0.0000(4) 0.0008(3) 0.0001(3)
Si2 0.0023(4) 0.0025(5) 0.0036(4) 0.0002(4) 0.0002(3) 0.0000(3)
O1 0.0086(12) 0.0079(14) 0.0048(13) -0.0007(11) -0.0001(10) -0.0017(10)
O2 0.0082(12) 0.0077(14) 0.0055(13) 0.0018(11) 0.0029(10) -0.0034(10)
O3 0.0103(13) 0.0021(12) 0.0070(13) 0.0023(10) -0.0028(10) -0.0020(10)
O4 0.0083(12) 0.0087(14) 0.0058(13) -0.0025(11) 0.0020(10) 0.0055(11)
O5 0.0053(12) 0.0078(14) 0.0128(15) 0.0002(12) 0.0070(11) -0.0014(10)
O6 0.0049(12) 0.0059(13) 0.0070(13) 0.0015(10) -0.0001(10) 0.0026(10)
F1 0.0287(16) 0.0204(15) 0.0140(14) 0.0126(12) 0.0157(12) 0.0163(13)
loop_
_atom_type_symbol
_atom_type_description
_atom_type_scat_dispersion_real
_atom_type_scat_dispersion_imag
_atom_type_scat_source
O O 0.0106 0.0060 'International Tables Vol C Tables 4.2.6.8 and 6.1.1.4'
F F 0.0171 0.0103 'International Tables Vol C Tables 4.2.6.8 and 6.1.1.4'
Si Si 0.0817 0.0704 'International Tables Vol C Tables 4.2.6.8 and 6.1.1.4'
Ba Ba -0.3244 2.2819 'International Tables Vol C Tables 4.2.6.8 and 6.1.1.4'
Tm Tm -0.3139 5.2483 'International Tables Vol C Tables 4.2.6.8 and 6.1.1.4'
loop_
_geom_angle_atom_site_label_1
_geom_angle_atom_site_label_2
_geom_angle_atom_site_label_3
_geom_angle
_geom_angle_site_symmetry_1
_geom_angle_site_symmetry_3
F1 Ba1 F1 63.77(11) 2_656 1_654
F1 Ba1 O5 136.73(9) 2_656 2_666
F1 Ba1 O5 149.93(10) 1_654 2_666
F1 Ba1 O4 75.39(10) 2_656 2_655
F1 Ba1 O4 80.10(10) 1_654 2_655
O5 Ba1 O4 122.25(9) 2_666 2_655
F1 Ba1 O6 127.78(10) 2_656 2_766
F1 Ba1 O6 88.69(10) 1_654 2_766
O5 Ba1 O6 61.43(9) 2_666 2_766
O4 Ba1 O6 145.79(10) 2_655 2_766
F1 Ba1 O6 119.38(9) 2_656 1_554
F1 Ba1 O6 59.79(9) 1_654 1_554
O5 Ba1 O6 103.76(9) 2_666 1_554
O4 Ba1 O6 75.05(9) 2_655 1_554
O6 Ba1 O6 71.40(10) 2_766 1_554
F1 Ba1 O3 74.37(10) 2_656 1_655
F1 Ba1 O3 62.46(10) 1_654 1_655
O5 Ba1 O3 98.34(9) 2_666 1_655
O4 Ba1 O3 139.41(9) 2_655 1_655
O6 Ba1 O3 53.42(9) 2_766 1_655
O6 Ba1 O3 97.18(9) 1_554 1_655
F1 Ba1 O5 137.10(10) 2_656 1_554
F1 Ba1 O5 107.91(8) 1_654 1_554
O5 Ba1 O5 72.27(11) 2_666 1_554
O4 Ba1 O5 61.75(9) 2_655 1_554
O6 Ba1 O5 92.00(9) 2_766 1_554
O6 Ba1 O5 52.79(8) 1_554 1_554
O3 Ba1 O5 142.36(8) 1_655 1_554
F1 Ba1 F1 89.02(9) 2_656 1_554
F1 Ba1 F1 130.03(12) 1_654 1_554
O5 Ba1 F1 78.06(8) 2_666 1_554
O4 Ba1 F1 51.71(8) 2_655 1_554
O6 Ba1 F1 137.98(8) 2_766 1_554
O6 Ba1 F1 110.93(8) 1_554 1_554
O3 Ba1 F1 151.76(8) 1_655 1_554
O5 Ba1 F1 63.73(8) 1_554 1_554
F1 Ba1 O4 52.14(8) 2_656 .
F1 Ba1 O4 115.30(8) 1_654 .
O5 Ba1 O4 86.21(9) 2_666 .
O4 Ba1 O4 91.24(9) 2_655 .
O6 Ba1 O4 122.58(8) 2_766 .
O6 Ba1 O4 165.90(8) 1_554 .
O3 Ba1 O4 91.09(8) 1_655 .
O5 Ba1 O4 123.44(8) 1_554 .
F1 Ba1 O4 60.84(7) 1_554 .
F1 Ba1 Si2 101.63(8) 2_656 2_766
F1 Ba1 Si2 72.19(8) 1_654 2_766
O5 Ba1 Si2 80.78(7) 2_666 2_766
O4 Ba1 Si2 149.97(7) 2_655 2_766
O6 Ba1 Si2 26.23(6) 2_766 2_766
O6 Ba1 Si2 81.06(6) 1_554 2_766
O3 Ba1 Si2 27.46(6) 1_655 2_766
O5 Ba1 Si2 116.09(6) 1_554 2_766
F1 Ba1 Si2 157.65(6) 1_554 2_766
O4 Ba1 Si2 110.75(6) . 2_766
F1 Ba1 Si2 132.44(7) 2_656 1_554
F1 Ba1 Si2 83.23(6) 1_654 1_554
O5 Ba1 Si2 88.48(7) 2_666 1_554
O4 Ba1 Si2 65.48(7) 2_655 1_554
O6 Ba1 Si2 81.23(7) 2_766 1_554
O6 Ba1 Si2 26.08(6) 1_554 1_554
O3 Ba1 Si2 120.76(6) 1_655 1_554
O5 Ba1 Si2 26.72(6) 1_554 1_554
F1 Ba1 Si2 87.33(5) 1_554 1_554
O4 Ba1 Si2 148.14(6) . 1_554
Si2 Ba1 Si2 99.30(2) 2_766 1_554
F1 Tm1 O6 78.75(11) . 1_455
F1 Tm1 O5 100.16(13) . .
O6 Tm1 O5 79.67(12) 1_455 .
F1 Tm1 O4 74.85(12) . 2_656
O6 Tm1 O4 146.58(11) 1_455 2_656
O5 Tm1 O4 85.16(12) . 2_656
F1 Tm1 O2 160.52(12) . .
O6 Tm1 O2 116.50(12) 1_455 .
O5 Tm1 O2 94.78(11) . .
O4 Tm1 O2 94.18(12) 2_656 .
F1 Tm1 O2 91.90(13) . 2_556
O6 Tm1 O2 95.45(12) 1_455 2_556
O5 Tm1 O2 165.76(13) . 2_556
O4 Tm1 O2 105.46(12) 2_656 2_556
O2 Tm1 O2 75.30(12) . 2_556
F1 Tm1 Si2 115.40(10) . .
O6 Tm1 Si2 100.13(8) 1_455 .
O5 Tm1 Si2 23.43(8) . .
O4 Tm1 Si2 73.79(9) 2_656 .
O2 Tm1 Si2 75.50(8) . .
O2 Tm1 Si2 150.64(8) 2_556 .
F1 Tm1 Tm1 128.04(10) . 2_556
O6 Tm1 Tm1 109.98(8) 1_455 2_556
O5 Tm1 Tm1 131.66(9) . 2_556
O4 Tm1 Tm1 102.38(8) 2_656 2_556
O2 Tm1 Tm1 37.65(8) . 2_556
O2 Tm1 Tm1 37.65(8) 2_556 2_556
Si2 Tm1 Tm1 113.10(2) . 2_556
F1 Tm1 Ba1 58.73(10) . 1_556
O6 Tm1 Ba1 102.55(8) 1_455 1_556
O5 Tm1 Ba1 53.38(9) . 1_556
O4 Tm1 Ba1 45.69(8) 2_656 1_556
O2 Tm1 Ba1 124.07(8) . 1_556
O2 Tm1 Ba1 140.79(8) 2_556 1_556
Si2 Tm1 Ba1 58.79(2) . 1_556
Tm1 Tm1 Ba1 147.464(8) 2_556 1_556
F1 Tm1 Ba1 38.87(8) . 1_456
O6 Tm1 Ba1 42.99(8) 1_455 1_456
O5 Tm1 Ba1 102.21(8) . 1_456
O4 Tm1 Ba1 113.72(8) 2_656 1_456
O2 Tm1 Ba1 148.19(8) . 1_456
O2 Tm1 Ba1 82.45(8) 2_556 1_456
Si2 Tm1 Ba1 125.41(2) . 1_456
Tm1 Tm1 Ba1 116.978(9) 2_556 1_456
Ba1 Tm1 Ba1 87.422(9) 1_556 1_456
F1 Tm1 Ba1 86.57(9) . 2_666
O6 Tm1 Ba1 40.55(8) 1_455 2_666
O5 Tm1 Ba1 39.31(8) . 2_666
O4 Tm1 Ba1 116.98(8) 2_656 2_666
O2 Tm1 Ba1 112.87(8) . 2_666
O2 Tm1 Ba1 135.37(8) 2_556 2_666
Si2 Tm1 Ba1 61.246(19) . 2_666
Tm1 Tm1 Ba1 134.016(8) 2_556 2_666
Ba1 Tm1 Ba1 73.006(7) 1_556 2_666
Ba1 Tm1 Ba1 68.822(7) 1_456 2_666
F1 Tm1 Ba1 34.20(8) . 2_656
O6 Tm1 Ba1 110.53(8) 1_455 2_656
O5 Tm1 Ba1 117.36(9) . 2_656
O4 Tm1 Ba1 51.93(9) 2_656 2_656
O2 Tm1 Ba1 126.77(8) . 2_656
O2 Tm1 Ba1 76.88(8) 2_556 2_656
Si2 Tm1 Ba1 119.53(2) . 2_656
Tm1 Tm1 Ba1 103.568(9) 2_556 2_656
Ba1 Tm1 Ba1 64.267(7) 1_556 2_656
Ba1 Tm1 Ba1 67.705(7) 1_456 2_656
Ba1 Tm1 Ba1 118.876(9) 2_666 2_656
O4 Si1 O2 115.18(18) . .
O4 Si1 O1 107.74(17) . .
O2 Si1 O1 110.13(17) . .
O4 Si1 O3 109.15(18) . .
O2 Si1 O3 106.83(17) . .
O1 Si1 O3 107.59(17) . .
O6 Si2 O5 111.12(18) . .
O6 Si2 O1 109.87(17) . .
O5 Si2 O1 111.79(17) . .
O6 Si2 O3 105.78(17) . 2_666
O5 Si2 O3 110.74(18) . 2_666
O1 Si2 O3 107.31(17) . 2_666
O6 Si2 Tm1 110.66(12) . .
O5 Si2 Tm1 33.29(12) . .
O1 Si2 Tm1 81.80(12) . .
O3 Si2 Tm1 136.58(12) 2_666 .
O6 Si2 Ba1 50.52(12) . 2_766
O5 Si2 Ba1 119.01(13) . 2_766
O1 Si2 Ba1 129.19(12) . 2_766
O3 Si2 Ba1 55.96(11) 2_666 2_766
Tm1 Si2 Ba1 145.77(4) . 2_766
O6 Si2 Ba1 51.51(12) . 1_556
O5 Si2 Ba1 59.63(13) . 1_556
O1 Si2 Ba1 127.19(13) . 1_556
O3 Si2 Ba1 124.80(12) 2_666 1_556
Tm1 Si2 Ba1 67.08(2) . 1_556
Ba1 Si2 Ba1 80.70(2) 2_766 1_556
Si1 O1 Si2 142.9(2) . .
Si1 O2 Tm1 126.33(17) . .
Si1 O2 Tm1 128.48(17) . 2_556
Tm1 O2 Tm1 104.70(12) . 2_556
Si1 O3 Si2 134.4(2) . 2_666
Si1 O3 Ba1 128.55(16) . 1_455
Si2 O3 Ba1 96.58(13) 2_666 1_455
Si1 O4 Tm1 130.52(18) . 2_656
Si1 O4 Ba1 125.22(16) . 2_655
Tm1 O4 Ba1 99.02(11) 2_656 2_655
Si1 O4 Ba1 105.27(16) . .
Tm1 O4 Ba1 95.69(10) 2_656 .
Ba1 O4 Ba1 88.76(9) 2_655 .
Si2 O5 Tm1 123.28(18) . .
Si2 O5 Ba1 121.71(17) . 2_666
Tm1 O5 Ba1 110.04(11) . 2_666
Si2 O5 Ba1 93.65(14) . 1_556
Tm1 O5 Ba1 91.35(11) . 1_556
Ba1 O5 Ba1 107.73(11) 2_666 1_556
Si2 O6 Tm1 127.85(18) . 1_655
Si2 O6 Ba1 103.26(15) . 2_766
Tm1 O6 Ba1 108.53(11) 1_655 2_766
Si2 O6 Ba1 102.41(14) . 1_556
Tm1 O6 Ba1 105.10(12) 1_655 1_556
Ba1 O6 Ba1 108.60(10) 2_766 1_556
Tm1 F1 Ba1 118.61(12) . 2_656
Tm1 F1 Ba1 111.07(12) . 1_456
Ba1 F1 Ba1 116.23(11) 2_656 1_456
Tm1 F1 Ba1 86.88(10) . 1_556
Ba1 F1 Ba1 90.98(9) 2_656 1_556
Ba1 F1 Ba1 130.03(12) 1_456 1_556
loop_
_geom_bond_atom_site_label_1
_geom_bond_atom_site_label_2
_geom_bond_distance
_geom_bond_site_symmetry_2
Ba1 F1 2.677(3) 2_656
Ba1 F1 2.726(3) 1_654
Ba1 O5 2.762(3) 2_666
Ba1 O4 2.787(3) 2_655
Ba1 O6 2.808(3) 2_766
Ba1 O6 2.863(3) 1_554
Ba1 O3 2.954(3) 1_655
Ba1 O5 3.088(4) 1_554
Ba1 F1 3.293(4) 1_554
Ba1 O4 3.307(3) .
Ba1 Si2 3.5410(11) 2_766
Ba1 Si2 3.5717(12) 1_554
Tm1 F1 2.175(3) .
Tm1 O6 2.219(3) 1_455
Tm1 O5 2.222(3) .
Tm1 O4 2.250(3) 2_656
Tm1 O2 2.267(3) .
Tm1 O2 2.267(3) 2_556
Tm1 Si2 3.3840(11) .
Tm1 Tm1 3.5895(4) 2_556
Tm1 Ba1 3.8463(4) 1_556
Tm1 Ba1 4.0534(4) 1_456
Tm1 Ba1 4.0950(4) 2_666
Tm1 Ba1 4.1803(4) 2_656
Si1 O4 1.595(3) .
Si1 O2 1.625(3) .
Si1 O1 1.630(3) .
Si1 O3 1.642(3) .
Si2 O6 1.608(3) .
Si2 O5 1.609(3) .
Si2 O1 1.633(3) .
Si2 O3 1.644(3) 2_666
Si2 Ba1 3.5410(11) 2_766
Si2 Ba1 3.5716(12) 1_556
O2 Tm1 2.267(3) 2_556
O3 Si2 1.644(3) 2_666
O3 Ba1 2.954(3) 1_455
O4 Tm1 2.250(3) 2_656
O4 Ba1 2.787(3) 2_655
O5 Ba1 2.762(3) 2_666
O5 Ba1 3.088(4) 1_556
O6 Tm1 2.219(3) 1_655
O6 Ba1 2.808(3) 2_766
O6 Ba1 2.863(3) 1_556
F1 Ba1 2.677(3) 2_656
F1 Ba1 2.726(3) 1_456
F1 Ba1 3.293(4) 1_556
