#------------------------------------------------------------------------------
#$Date: 2019-12-25 22:05:48 +0200 (Wed, 25 Dec 2019) $
#$Revision: 245834 $
#$URL: file:///home/coder/svn-repositories/cod/cif/2/31/13/2311373.cif $
#------------------------------------------------------------------------------
#
# This file is available in the Crystallography Open Database (COD),
# http://www.crystallography.net/. The original data for this entry
# were provided by IUCr Journals, http://journals.iucr.org/.
#
# The file may be used within the scientific community so long as
# proper attribution is given to the journal article from which the
# data were obtained.
#
data_2311373
loop_
_publ_author_name
'Schwendtner, Karolina'
'Kolitsch, Uwe'
_publ_section_title
;
 New <i>M</i><sup>+</sup>, <i>M</i><sup>3+</sup>-arsenates - the framework
 structures of Ag<i>M</i><sup>3+</sup>(HAsO<sub>4</sub>)<sub>2</sub>
 (<i>M</i><sup>3+</sup> = Al, Ga) and
 <i>M</i><sup>+</sup>GaAs<sub>2</sub>O<sub>7</sub> (<i>M</i><sup>+</sup> =
 Na, Ag).
;
_journal_issue                   'Pt 5'
_journal_name_full
'Acta crystallographica. Section E, Crystallographic communications'
_journal_page_first              785
_journal_page_last               790
_journal_paper_doi               10.1107/S2056989017005631
_journal_volume                  73
_journal_year                    2017
_chemical_formula_iupac          'Ag Ga (H As O4)2'
_chemical_formula_structural     'Ag1 Ga1 (H1 As1 O4)2'
_chemical_formula_sum            'Ag As2 Ga H2 O8'
_chemical_formula_weight         457.45
_chemical_name_common            'silver gallium hydrogen arsenate'
_chemical_name_systematic        'Silver(I) gallium bis[hydrogen arsenate(V)]'
_space_group_crystal_system      monoclinic
_space_group_IT_number           15
_space_group_name_Hall           '-C 2yc'
_space_group_name_H-M_alt        'C 1 2/c 1'
_atom_sites_solution_hydrogens   difmap
_atom_sites_solution_primary     direct
_atom_sites_solution_secondary   difmap
_audit_creation_method           SHELXL-2016/6
_cell_angle_alpha                90
_cell_angle_beta                 107.77(3)
_cell_angle_gamma                90
_cell_formula_units_Z            4
_cell_length_a                   7.826(2)
_cell_length_b                   10.216(2)
_cell_length_c                   8.694(2)
_cell_measurement_reflns_used    1519
_cell_measurement_temperature    293(2)
_cell_measurement_theta_max      34.972
_cell_measurement_theta_min      2.037
_cell_volume                     661.9(3)
_computing_cell_refinement
;
HKL SCALEPACK (Otwinowski <i>et al.</i>,  2003)
;
_computing_data_collection
;
COLLECT (Nonius, 2003)
;
_computing_data_reduction
;
HKL DENZO and SCALEPACK (Otwinowski <i>et al.</i>,  2003)
;
_computing_molecular_graphics
;
DIAMOND (Brandenburg, 2005)
;
_computing_publication_material
;
publCIF (Westrip, 2010)
;
_computing_structure_refinement
;
SHELXL2016 (Sheldrick, 2015)
;
_computing_structure_solution
;
SHELXS97 (Sheldrick, 2008)
;
_diffrn_ambient_temperature      293(2)
_diffrn_measured_fraction_theta_full 1.000
_diffrn_measured_fraction_theta_max 0.999
_diffrn_measurement_device_type  'Nonius KappaCCD single-crystal four-circle'
_diffrn_measurement_method       '\f and \w scans'
_diffrn_radiation_type           MoK\a
_diffrn_radiation_wavelength     0.71073
_diffrn_reflns_av_R_equivalents  0.0120
_diffrn_reflns_limit_h_max       12
_diffrn_reflns_limit_h_min       -12
_diffrn_reflns_limit_k_max       16
_diffrn_reflns_limit_k_min       -16
_diffrn_reflns_limit_l_max       13
_diffrn_reflns_limit_l_min       -14
_diffrn_reflns_number            2852
_diffrn_reflns_theta_full        25.242
_diffrn_reflns_theta_max         34.969
_diffrn_reflns_theta_min         3.384
_exptl_absorpt_coefficient_mu    16.957
_exptl_absorpt_correction_T_max  0.2819
_exptl_absorpt_correction_T_min  0.1503
_exptl_absorpt_correction_type   multi-scan
_exptl_absorpt_process_details
;
(HKL SCALEPACK; Otwinowski <i>et al.</i>,  2003)
;
_exptl_crystal_colour            colourless
_exptl_crystal_density_diffrn    4.590
_exptl_crystal_density_method    'not measured'
_exptl_crystal_description       'large pseudo-dipyramidal glassy'
_exptl_crystal_F_000             840
_exptl_crystal_size_max          0.180
_exptl_crystal_size_mid          0.100
_exptl_crystal_size_min          0.100
_refine_diff_density_max         0.658
_refine_diff_density_min         -0.503
_refine_ls_extinction_coef       0.0133(3)
_refine_ls_extinction_expression Fc^*^=kFc[1+0.001xFc^2^\l^3^/sin(2\q)]^-1/4^
_refine_ls_extinction_method
;
SHELXL2016 (Sheldrick, 2015)
;
_refine_ls_goodness_of_fit_ref   1.146
_refine_ls_hydrogen_treatment    refall
_refine_ls_matrix_type           full
_refine_ls_number_parameters     73
_refine_ls_number_reflns         1460
_refine_ls_number_restraints     0
_refine_ls_restrained_S_all      1.146
_refine_ls_R_factor_all          0.0160
_refine_ls_R_factor_gt           0.0147
_refine_ls_shift/su_max          0.037
_refine_ls_shift/su_mean         0.003
_refine_ls_structure_factor_coef Fsqd
_refine_ls_weighting_details
'w=1/[\s^2^(Fo^2^)+(0.0150P)^2^+0.9400P] where P=(Fo^2^+2Fc^2^)/3'
_refine_ls_weighting_scheme      calc
_refine_ls_wR_factor_gt          0.0362
_refine_ls_wR_factor_ref         0.0366
_reflns_number_gt                1402
_reflns_number_total             1460
_reflns_threshold_expression     'I > 2\s(I)'
_cod_data_source_file            pk2600sup1.cif
_cod_data_source_block           AgGaHAsO42
_cod_original_sg_symbol_H-M      'C 2/c'
_cod_database_code               2311373
_shelx_space_group_comment
;
The symmetry employed for this shelxl refinement is uniquely defined
by the following loop, which should always be used as a source of
symmetry information in preference to the above space-group names.
They are only intended as comments.
;
_shelx_estimated_absorpt_t_min   0.150
_shelx_estimated_absorpt_t_max   0.282
_shelx_hkl_file
;
   0   0   1   -0.20    0.10   1
   0   0   2   37.20    0.50   1
   0   0   3    1.80    0.20   1
   0   0   4 1475.80   14.20   1
   0   0   5    1.10    0.30   1
   0   0   6  393.50    4.50   1
   0   0   7    1.90    0.30   1
   0   0   8 3740.90   42.40   1
   0   0   9    2.20    0.90   1
   0   0  10 1121.70   21.60   1
   0   0  11    4.70    2.40   1
   0   0  12  252.50   17.90   1
   0   0  13    3.20    3.50   1
   0   2   0  476.20    6.30   1
   0  -2   0  476.00    6.90   1
   0   2   1  535.60    5.00   1
   0  -2  -1  530.80    6.10   1
   0   2   2 1167.60   12.50   1
   0  -2  -2 1178.20   13.40   1
   0   2   3 2201.00   23.20   1
   0  -2  -3 2233.00   24.90   1
   0   2   4 2745.90   30.60   1
   0  -2  -4 2653.90   29.60   1
   0   2   5 4366.90   48.70   1
   0  -2  -5 4536.00   58.20   1
   0   2   6  290.70    5.70   1
   0  -2  -6  288.90    3.90   1
   0   2   7  168.30    2.70   1
   0  -2  -7  168.40    3.40   1
   0   2   8  354.90    5.60   1
   0  -2  -8  360.30    6.40   1
   0   2   9  153.80    3.80   1
   0  -2  -9  158.70    4.80   1
   0   2  10  137.90    4.90   1
   0  -2 -10  138.30    4.70   1
   0   2  11   22.10    2.50   1
   0  -2 -11   17.30    3.60   1
   0   2  12   97.90   10.50   1
   0  -2 -12   95.70   10.00   1
   0   2  13  877.50   34.50   1
   0  -2 -13  885.60   51.10   1
   0   4   0  338.50    4.30   1
   0  -4   0  346.00    5.20   1
   0   4   1 1085.70   10.60   1
   0  -4  -1 1082.20   11.00   1
   0   4   2 1804.10   16.70   1
   0  -4  -2 1761.40   18.70   1
   0   4   3  332.10    3.80   1
   0  -4  -3  325.40    3.80   1
   0   4   4 2262.50   32.50   1
   0  -4  -4 2340.70   26.70   1
   0   4   5  107.30    2.80   1
   0  -4  -5  110.60    2.10   1
   0   4   6    8.30    0.90   1
   0  -4  -6    7.70    0.70   1
   0   4   7    1.90    1.00   1
   0  -4  -7    2.60    0.80   1
   0   4   8  528.80   10.10   1
   0  -4  -8  528.60   11.70   1
   0   4   9  449.00    9.40   1
   0  -4  -9  441.80   10.70   1
   0   4  10 1517.30   29.70   1
   0  -4 -10 1536.70   41.10   1
   0   4  11   37.20    3.10   1
   0  -4 -11   37.10    3.60   1
   0   4  12    9.80    3.60   1
   0  -4 -12    8.40    4.90   1
   0   6   0 1850.10   24.10   1
   0  -6   0 1833.90   26.80   1
   0   6   1    4.10    0.30   1
   0  -6  -1    3.00    0.30   1
   0   6   2  496.10    5.90   1
   0  -6  -2  499.50    6.10   1
   0   6   3 1225.90   15.20   1
   0  -6  -3 1222.70   16.30   1
   0   6   4  371.60    5.50   1
   0  -6  -4  375.10    6.30   1
   0   6   5 2309.40   30.20   1
   0  -6  -5 2335.80   38.00   1
   0   6   6 1371.50   18.70   1
   0  -6  -6 1340.60   20.30   1
   0   6   7  374.10    6.10   1
   0  -6  -7  370.40    6.80   1
   0   6   8  428.10    7.90   1
   0  -6  -8  423.30   10.20   1
   0   6   9  135.80    3.80   1
   0  -6  -9  150.90    6.40   1
   0   6  10   92.30    3.70   1
   0  -6 -10   96.70    5.30   1
   0   6  11   26.60    3.00   1
   0  -6 -11   36.20    4.30   1
   0   6  12    1.90    2.50   1
   0  -6 -12    0.90    2.80   1
   0   8   0 4700.90   66.40   1
   0  -8   0 4617.20   84.10   1
   0   8   1 1577.20   17.20   1
   0  -8  -1 1616.30   21.60   1
   0   8   2  114.20    1.80   1
   0  -8  -2  116.00    2.10   1
   0   8   3   22.00    0.70   1
   0  -8  -3   20.60    0.90   1
   0   8   4  548.80    6.60   1
   0  -8  -4  550.00    8.10   1
   0   8   5  603.00    8.20   1
   0  -8  -5  613.30   12.90   1
   0   8   6   39.70    1.70   1
   0  -8  -6   35.00    2.30   1
   0   8   7  168.90    4.30   1
   0  -8  -7  160.70    6.10   1
   0   8   8 1184.60   20.80   1
   0  -8  -8 1207.20   45.50   1
   0   8   9  987.80   20.10   1
   0  -8  -9  933.50   39.10   1
   0   8  10  207.90    7.10   1
   0  -8 -10  223.10   14.30   1
   0   8  11  225.60    9.50   1
   0  -8 -11  224.70   15.10   1
   0  10   0   55.80    2.40   1
   0 -10   0   58.70    2.20   1
   0  10   1    4.90    0.90   1
   0 -10  -1    4.10    0.80   1
   0  10   2  209.40    3.60   1
   0 -10  -2  213.80    4.80   1
   0  10   3  151.50    3.00   1
   0 -10  -3  150.10    3.70   1
   0  10   4 2687.00   33.90   1
   0 -10  -4 2667.30   45.00   1
   0  10   5  385.00    7.40   1
   0 -10  -5  394.30    9.60   1
   0  10   6  276.90    6.70   1
   0 -10  -6  269.60    9.00   1
   0  10   7    6.10    1.40   1
   0 -10  -7    5.00    2.30   1
   0  10   8    4.30    1.60   1
   0 -10  -8   10.80    3.00   1
   0  10   9   29.90    2.80   1
   0 -10  -9   31.80    5.30   1
   0  10  10  255.20   12.70   1
   0 -10 -10  270.30   18.60   1
   0  12   0   12.80    2.20   1
   0 -12   0    8.30    2.50   1
   0  12   1 1170.30   18.00   1
   0 -12  -1 1191.30   22.40   1
   0  12   2  104.60    2.90   1
   0 -12  -2  110.20    3.60   1
   0  12   3   92.30    2.70   1
   0 -12  -3   88.50    3.10   1
   0  12   4   18.30    2.00   1
   0 -12  -4   20.10    3.10   1
   0  12   5  185.10    5.00   1
   0 -12  -5  196.50    8.00   1
   0  12   6  104.80    4.50   1
   0 -12  -6  111.40    6.10   1
   0  12   7    3.20    2.00   1
   0 -12  -7    6.00    3.20   1
   0  12   8    2.00    2.10   1
   0 -12  -8    0.00    2.80   1
   0  12   9  853.30   27.60   1
   0 -12  -9  879.90   44.50   1
   0  14   0  302.10    9.60   1
   0 -14   0  305.20   11.10   1
   0  14   1  182.10    4.80   1
   0 -14  -1  185.20    5.70   1
   0  14   2   77.10    3.50   1
   0 -14  -2   79.10    4.10   1
   0  14   3   53.10    3.00   1
   0 -14  -3   51.30    3.50   1
   0  14   4  794.30   21.40   1
   0 -14  -4  837.80   25.30   1
   0  14   5    1.20    2.50   1
   0 -14  -5    5.40    2.30   1
   0  14   6  487.10   15.70   1
   0 -14  -6  500.10   21.90   1
   0  14   7   76.30    5.80   1
   0 -14  -7   69.20    9.40   1
   0  16   0   12.80    5.40   1
   0 -16   0   -1.50    6.20   1
   0  16   1  596.80   16.20   1
   0 -16  -1  614.40   20.50   1
   0  16   2   11.50    2.60   1
   0 -16  -2    5.70    2.80   1
   0  16   3   14.00    3.20   1
   0 -16  -3    7.40    3.10   1
   1   1 -13  233.90   18.10   1
  -1  -1  13  282.00   20.00   1
   1   1 -12  163.70   12.60   1
  -1  -1  12  146.90   11.40   1
   1   1 -11 1080.40   40.90   1
  -1  -1  11 1031.80   42.50   1
   1   1 -10   31.60    2.80   1
  -1  -1  10   35.20    5.80   1
   1   1  -9   55.50    1.90   1
  -1  -1   9   49.90    2.10   1
   1   1  -8 2193.30   26.00   1
  -1  -1   8 2221.00   26.30   1
   1   1  -7  118.90    1.80   1
  -1  -1   7  119.80    1.80   1
   1   1  -6 1353.70   14.80   1
  -1  -1   6 1369.60   14.20   1
   1   1  -5   62.30    0.90   1
  -1  -1   5   61.60    0.90   1
   1   1  -4  345.30    3.50   1
  -1  -1   4  347.90    3.70   1
   1   1  -3 5847.60   54.60   1
  -1  -1   3 5832.00   57.00   1
   1   1  -2  704.90    6.40   1
  -1  -1   2  702.90    7.20   1
   1   1  -1  139.20    1.50   1
  -1  -1   1  138.70    1.50   1
   1   1   0  956.80   12.50   1
  -1  -1   0 1012.00   10.70   1
   1   1   1 1443.40   14.40   1
  -1  -1  -1 1465.20   14.00   1
   1   1   2 4111.30   40.20   1
  -1  -1  -2 4020.80   44.20   1
   1   1   3 1408.00   14.30   1
  -1  -1  -3 1400.30   14.20   1
   1   1   4  777.20    8.70   1
  -1  -1  -4  779.10    8.50   1
   1   1   5 3004.20   33.80   1
  -1  -1  -5 3034.70   30.70   1
   1   1   6  786.80   10.10   1
  -1  -1  -6  795.60   10.30   1
   1   1   7  627.50    8.50   1
  -1  -1  -7  628.60    8.50   1
   1   1   8   39.00    1.30   1
  -1  -1  -8   39.90    1.00   1
   1   1   9  595.50   12.00   1
  -1  -1  -9  599.00   11.70   1
   1   1  10  243.70    7.30   1
  -1  -1 -10  227.30    7.00   1
   1   1  11  148.90    5.90   1
  -1  -1 -11  153.10    7.10   1
   1   1  12  498.80   17.20   1
  -1  -1 -12  485.90   16.20   1
   1   3 -13  736.20   43.80   1
  -1  -3  13  729.10   43.60   1
   1   3 -12    5.60    6.40   1
  -1  -3  12    3.10    4.60   1
   1   3 -11  308.30   12.20   1
  -1  -3  11  321.20   11.70   1
   1   3 -10    3.60    1.70   1
  -1  -3  10    3.60    1.90   1
   1   3  -9   75.60    2.50   1
  -1  -3   9   73.70    3.60   1
   1   3  -8  740.90   12.20   1
  -1  -3   8  744.20   12.10   1
   1   3  -7 2350.60   38.10   1
  -1  -3   7 2373.80   34.40   1
   1   3  -6  433.00    6.80   1
  -1  -3   6  445.60    6.60   1
   1   3  -5 1366.80   16.50   1
  -1  -3   5 1394.50   15.10   1
   1   3  -4   11.10    0.30   1
  -1  -3   4   12.20    0.70   1
   1   3  -3  246.50    2.60   1
  -1  -3   3  243.90    2.90   1
   1   3  -2  370.40    4.10   1
  -1  -3   2  366.30    4.30   1
   1   3  -1 5132.60   45.70   1
  -1  -3   1 5267.50   49.00   1
   1   3   0 1607.70   16.20   1
  -1  -3   0 1582.70   15.90   1
   1   3   1 3996.90   41.50   1
  -1  -3  -1 4021.90   39.40   1
   1   3   2  647.30    6.50   1
  -1  -3  -2  636.40    7.10   1
   1   3   3   21.50    0.40   1
  -1  -3  -3   21.70    0.50   1
   1   3   4 1129.40   13.40   1
  -1  -3  -4 1157.90   13.50   1
   1   3   5   92.50    2.40   1
  -1  -3  -5   93.90    1.70   1
   1   3   6   27.50    1.60   1
  -1  -3  -6   27.00    1.30   1
   1   3   7 2715.90   51.40   1
  -1  -3  -7 2767.60   52.00   1
   1   3   8   29.20    2.10   1
  -1  -3  -8   31.50    2.20   1
   1   3   9    3.60    1.00   1
  -1  -3  -9    0.50    1.40   1
   1   3  10  428.00   10.20   1
  -1  -3 -10  459.20   14.60   1
   1   3  11  158.60    6.20   1
  -1  -3 -11  159.90    8.00   1
   1   3  12  421.10   18.10   1
  -1  -3 -12  423.30   15.30   1
   1   5 -13  255.00   14.00   1
  -1  -5  13  303.10   22.80   1
   1   5 -12  481.60   16.30   1
  -1  -5  12  525.20   21.90   1
   1   5 -11    1.10    2.30   1
  -1  -5  11   -1.10    2.10   1
   1   5 -10   20.30    2.10   1
  -1  -5  10   16.50    2.70   1
   1   5  -9  783.30   15.60   1
  -1  -5   9  805.30   17.50   1
   1   5  -8  877.30   16.20   1
  -1  -5   8  891.90   18.80   1
   1   5  -7  217.50    4.00   1
  -1  -5   7  211.00    5.40   1
   1   5  -6 1290.20   19.20   1
  -1  -5   6 1265.60   21.30   1
   1   5  -5 1858.90   24.40   1
  -1  -5   5 1873.60   27.40   1
   1   5  -4  813.60   10.20   1
  -1  -5   4  828.30   11.60   1
   1   5  -3    4.30    0.30   1
  -1  -5   3    4.70    0.40   1
   1   5  -2 1942.90   17.40   1
  -1  -5   2 1922.50   20.80   1
   1   5  -1 2468.90   22.40   1
  -1  -5   1 2501.90   26.60   1
   1   5   0  654.80    6.90   1
  -1  -5   0  651.50    6.90   1
   1   5   1  251.00    2.90   1
  -1  -5  -1  245.80    2.70   1
   1   5   2 2472.20   23.80   1
  -1  -5  -2 2470.70   27.90   1
   1   5   3 1583.50   19.10   1
  -1  -5  -3 1617.20   23.10   1
   1   5   4  992.10   16.80   1
  -1  -5  -4  998.40   16.70   1
   1   5   5   12.60    0.70   1
  -1  -5  -5   12.20    0.80   1
   1   5   6  736.70   13.00   1
  -1  -5  -6  753.40   11.90   1
   1   5   7  937.40   19.10   1
  -1  -5  -7  927.60   19.10   1
   1   5   8  101.90    2.80   1
  -1  -5  -8  104.00    3.80   1
   1   5   9   31.80    1.80   1
  -1  -5  -9   33.80    2.70   1
   1   5  10  497.60   13.20   1
  -1  -5 -10  527.80   16.80   1
   1   5  11   39.40    3.60   1
  -1  -5 -11   35.30    2.70   1
   1   5  12  835.00   34.20   1
  -1  -5 -12  909.10   35.60   1
   1   7 -12  117.80    6.70   1
  -1  -7  12  130.40   10.90   1
   1   7 -11  866.70   26.30   1
  -1  -7  11  901.10   47.60   1
   1   7 -10  337.10    8.70   1
  -1  -7  10  347.70   17.60   1
   1   7  -9  180.40    4.60   1
  -1  -7   9  197.00    7.60   1
   1   7  -8  159.50    5.00   1
  -1  -7   8  157.10    6.00   1
   1   7  -7  303.00    6.50   1
  -1  -7   7  288.20    7.20   1
   1   7  -6  362.40    5.70   1
  -1  -7   6  338.60    7.90   1
   1   7  -5  200.80    3.80   1
  -1  -7   5  203.50    5.20   1
   1   7  -4  959.40   11.30   1
  -1  -7   4  981.60   13.50   1
   1   7  -3 4942.30   54.60   1
  -1  -7   3 4887.80   68.90   1
   1   7  -2  707.90    8.60   1
  -1  -7   2  718.30   10.10   1
   1   7  -1   13.70    0.50   1
  -1  -7   1   14.10    0.70   1
   1   7   0 1158.10   11.70   1
  -1  -7   0 1154.40   13.70   1
   1   7   1   11.90    0.60   1
  -1  -7  -1   10.90    0.70   1
   1   7   2   69.60    1.40   1
  -1  -7  -2   68.00    1.20   1
   1   7   3 1802.10   23.90   1
  -1  -7  -3 1827.20   22.30   1
   1   7   4  741.10    9.40   1
  -1  -7  -4  760.50    9.70   1
   1   7   5  938.50   13.30   1
  -1  -7  -5  882.20   18.10   1
   1   7   6   78.20    2.00   1
  -1  -7  -6   76.70    3.10   1
   1   7   7  840.60   14.00   1
  -1  -7  -7  789.20   17.20   1
   1   7   8  465.10   11.60   1
  -1  -7  -8  467.80   14.50   1
   1   7   9  150.30    4.40   1
  -1  -7  -9  171.70    7.70   1
   1   7  10    4.30    1.80   1
  -1  -7 -10    9.00    3.30   1
   1   7  11  590.30   19.90   1
  -1  -7 -11  586.50   23.50   1
   1   9 -11   45.30    4.30   1
  -1  -9  11   45.90    6.30   1
   1   9 -10   31.90    2.60   1
  -1  -9  10   36.70    5.80   1
   1   9  -9   71.90    3.60   1
  -1  -9   9   57.40    5.90   1
   1   9  -8  881.70   20.50   1
  -1  -9   8  881.30   25.00   1
   1   9  -7 1210.90   20.30   1
  -1  -9   7 1194.90   25.60   1
   1   9  -6  541.50    8.70   1
  -1  -9   6  555.80   12.80   1
   1   9  -5   55.20    1.60   1
  -1  -9   5   56.70    2.10   1
   1   9  -4  177.30    3.00   1
  -1  -9   4  190.20    3.80   1
   1   9  -3  213.80    3.00   1
  -1  -9   3  218.40    3.90   1
   1   9  -2  830.80   10.50   1
  -1  -9   2  873.40   12.70   1
   1   9  -1    3.60    0.70   1
  -1  -9   1    4.50    0.60   1
   1   9   0   46.60    1.20   1
  -1  -9   0   43.80    1.40   1
   1   9   1 1814.00   22.60   1
  -1  -9  -1 1772.40   26.40   1
   1   9   2 1742.10   20.60   1
  -1  -9  -2 1753.20   26.10   1
   1   9   3  231.30    3.70   1
  -1  -9  -3  233.40    3.60   1
   1   9   4   13.00    0.90   1
  -1  -9  -4   12.60    0.90   1
   1   9   5  650.90    9.90   1
  -1  -9  -5  639.10   14.10   1
   1   9   6  435.10    9.10   1
  -1  -9  -6  441.70   13.20   1
   1   9   7   43.50    2.80   1
  -1  -9  -7   38.20    2.40   1
   1   9   8  542.30   10.90   1
  -1  -9  -8  559.00   16.80   1
   1   9   9  287.20    8.80   1
  -1  -9  -9  297.40   13.60   1
   1   9  10  191.20    7.40   1
  -1  -9 -10  200.60   14.60   1
   1  11 -10   47.80    4.50   1
  -1 -11  10   42.60    6.80   1
   1  11  -9   26.50    3.80   1
  -1 -11   9   25.30    5.30   1
   1  11  -8   -0.30    1.80   1
  -1 -11   8    2.40    2.60   1
   1  11  -7  741.70   16.00   1
  -1 -11   7  748.60   18.90   1
   1  11  -6   67.20    3.10   1
  -1 -11   6   70.10    3.60   1
   1  11  -5   14.10    1.60   1
  -1 -11   5   17.70    2.20   1
   1  11  -4  678.40   12.00   1
  -1 -11   4  695.80   15.80   1
   1  11  -3  157.50    3.80   1
  -1 -11   3  156.00    4.10   1
   1  11  -2  708.50   12.10   1
  -1 -11   2  709.60   15.60   1
   1  11  -1  511.90   10.20   1
  -1 -11   1  546.60   10.40   1
   1  11   0  103.30    3.10   1
  -1 -11   0  114.10    3.20   1
   1  11   1  976.50   14.60   1
  -1 -11  -1 1017.90   16.50   1
   1  11   2   22.70    1.20   1
  -1 -11  -2   22.80    1.80   1
   1  11   3  201.60    3.80   1
  -1 -11  -3  208.50    5.20   1
   1  11   4   41.10    1.90   1
  -1 -11  -4   35.40    3.20   1
   1  11   5    6.10    1.30   1
  -1 -11  -5    9.30    2.30   1
   1  11   6  756.50   14.70   1
  -1 -11  -6  738.70   22.60   1
   1  11   7  609.40   14.00   1
  -1 -11  -7  608.00   20.10   1
   1  11   8  403.60   11.90   1
  -1 -11  -8  408.80   16.60   1
   1  11   9   14.80    3.00   1
  -1 -11  -9    8.80    4.30   1
   1  13  -8   23.90    3.90   1
  -1 -13   8   18.60    5.10   1
   1  13  -7  400.60   12.50   1
  -1 -13   7  416.90   17.20   1
   1  13  -6   83.00    4.20   1
  -1 -13   6   67.40    5.30   1
   1  13  -5  380.60   10.10   1
  -1 -13   5  391.70   14.00   1
   1  13  -4  224.10    5.80   1
  -1 -13   4  234.20    7.60   1
   1  13  -3  210.80    5.50   1
  -1 -13   3  204.60    5.20   1
   1  13  -2  290.50    6.30   1
  -1 -13   2  310.30    7.10   1
   1  13  -1   61.20    2.50   1
  -1 -13   1   64.30    2.40   1
   1  13   0    6.00    1.40   1
  -1 -13   0    6.40    1.50   1
   1  13   1  481.60    9.10   1
  -1 -13  -1  510.50   11.50   1
   1  13   2  271.20    6.00   1
  -1 -13  -2  284.70    7.40   1
   1  13   3 1196.80   21.40   1
  -1 -13  -3 1218.80   27.90   1
   1  13   4   22.60    2.30   1
  -1 -13  -4   27.10    2.70   1
   1  13   5    3.70    2.30   1
  -1 -13  -5    7.50    2.40   1
   1  13   6  181.00    6.80   1
  -1 -13  -6  177.00    9.90   1
   1  13   7   11.70    3.10   1
  -1 -13  -7   15.20    3.80   1
   1  15  -5   41.40    3.70   1
  -1 -15   5   40.40    4.00   1
   1  15  -4  499.90   15.40   1
  -1 -15   4  513.10   18.00   1
   1  15  -3  128.90    5.20   1
  -1 -15   3  134.90    6.80   1
   1  15  -2  974.40   22.50   1
  -1 -15   2  974.20   35.50   1
   1  15  -1    7.50    1.90   1
  -1 -15   1    6.60    1.90   1
   1  15   0  124.40    5.00   1
  -1 -15   0  139.50    5.60   1
   1  15   1   27.30    2.90   1
  -1 -15  -1   31.30    3.30   1
   1  15   2  167.20    6.20   1
  -1 -15  -2  182.10    8.00   1
   1  15   3  174.10    6.30   1
  -1 -15  -3  193.70    8.30   1
   1  15   4   58.40    4.30   1
  -1 -15  -4   59.60    4.50   1
   1  15   5   18.60    3.20   1
  -1 -15  -5    6.70    3.50   1
   2   0 -13   -3.30    4.90   1
   2   0 -12    3.80    6.30   1
   2   0 -11   -3.40    3.60   1
   2   0 -10   61.90    2.80   1
   2   0  -9    2.30    0.40   1
   2   0  -8  196.20    3.00   1
   2   0  -7    2.20    0.40   1
   2   0  -6 6556.40   72.80   1
   2   0  -5    2.60    0.30   1
   2   0  -4  286.60    3.10   1
   2   0  -3    3.30    0.30   1
   2   0  -2  663.90    7.40   1
   2   0  -1    6.40    0.30   1
   2   0   0 4354.60   47.90   1
   2   0   1    1.30    0.20   1
   2   0   2  606.50    6.40   1
   2   0   3    2.10    0.30   1
   2   0   4 2627.50   25.40   1
   2   0   5    5.90    0.50   1
   2   0   6  975.40   12.00   1
   2   0   7    1.40    0.60   1
   2   0   8  760.40   14.00   1
   2   0   9    1.80    1.10   1
   2   0  10   66.90    3.60   1
   2   0  11    2.40    2.30   1
   2   0  12  320.40   12.00   1
   2   2 -13    1.40    7.80   1
  -2  -2  13   10.90    5.80   1
   2   2 -12  209.00   14.10   1
  -2  -2  12  191.30   13.40   1
   2   2 -11  912.20   26.90   1
  -2  -2  11  946.90   27.50   1
   2   2 -10  486.90   15.00   1
  -2  -2  10  504.00   15.00   1
   2   2  -9 2343.30   39.70   1
  -2  -2   9 2323.10   39.40   1
   2   2  -8  544.60    7.60   1
  -2  -2   8  566.70    7.80   1
   2   2  -7    3.00    0.50   1
  -2  -2   7    2.40    0.40   1
   2   2  -6  135.20    1.90   1
  -2  -2   6  138.90    2.00   1
   2   2  -5  295.90    3.20   1
  -2  -2   5  296.70    3.70   1
   2   2  -4 1481.20   13.40   1
  -2  -2   4 1474.20   15.10   1
   2   2  -3  220.80    2.40   1
  -2  -2   3  219.60    2.70   1
   2   2  -2 1280.90   11.90   1
  -2  -2   2 1296.30   13.90   1
   2   2  -1 5560.90   52.30   1
  -2  -2   1 5607.40   58.00   1
   2   2   0  398.00    4.60   1
  -2  -2   0  399.10    4.40   1
   2   2   1 2679.00   29.90   1
  -2  -2  -1 2733.10   28.60   1
   2   2   2 1609.10   17.20   1
  -2  -2  -2 1639.90   16.70   1
   2   2   3   23.70    0.60   1
  -2  -2  -3   24.50    0.60   1
   2   2   4 1086.80   12.10   1
  -2  -2  -4 1098.80   12.00   1
   2   2   5  464.00    5.90   1
  -2  -2  -5  481.70    5.70   1
   2   2   6  219.00    3.30   1
  -2  -2  -6  222.50    3.60   1
   2   2   7 1094.70   14.40   1
  -2  -2  -7 1099.90   16.80   1
   2   2   8   38.40    2.20   1
  -2  -2  -8   38.80    1.70   1
   2   2   9 1762.00   31.90   1
  -2  -2  -9 1787.80   37.20   1
   2   2  10   74.90    3.70   1
  -2  -2 -10   79.30    3.40   1
   2   2  11  174.30    7.10   1
  -2  -2 -11  171.80    7.50   1
   2   2  12   14.10    4.30   1
  -2  -2 -12   11.50    3.00   1
   2   4 -13  113.60   11.80   1
  -2  -4  13  124.90   12.60   1
   2   4 -12  223.10   11.80   1
  -2  -4  12  238.60   11.30   1
   2   4 -11   20.60    3.20   1
  -2  -4  11   22.70    2.70   1
   2   4 -10  631.30   14.70   1
  -2  -4  10  642.80   19.00   1
   2   4  -9  126.80    3.60   1
  -2  -4   9  134.40    4.30   1
   2   4  -8  525.70    9.10   1
  -2  -4   8  532.00   11.60   1
   2   4  -7  281.90    4.70   1
  -2  -4   7  286.60    4.90   1
   2   4  -6  668.20    8.80   1
  -2  -4   6  696.90   10.00   1
   2   4  -5  951.80   11.10   1
  -2  -4   5  955.00   13.20   1
   2   4  -4 7309.00   71.90   1
  -2  -4   4 7376.00   76.90   1
   2   4  -3   59.80    0.90   1
  -2  -4   3   60.10    1.00   1
   2   4  -2 1214.10   12.00   1
  -2  -4   2 1218.70   12.00   1
   2   4  -1   10.40    0.40   1
  -2  -4   1   10.10    0.40   1
   2   4   0 1260.30   12.40   1
  -2  -4   0 1253.70   12.90   1
   2   4   1  359.40    4.00   1
  -2  -4  -1  359.50    4.00   1
   2   4   2  216.80    2.70   1
  -2  -4  -2  214.00    2.70   1
   2   4   3  959.90   10.80   1
  -2  -4  -3  972.80   12.40   1
   2   4   4 6310.70   87.50   1
  -2  -4  -4 6448.30   70.70   1
   2   4   5  541.00    9.50   1
  -2  -4  -5  541.30    8.10   1
   2   4   6  436.80    8.20   1
  -2  -4  -6  442.90    7.60   1
   2   4   7    1.40    1.20   1
  -2  -4  -7    0.50    1.00   1
   2   4   8   84.80    3.00   1
  -2  -4  -8   91.00    3.10   1
   2   4   9  134.40    4.30   1
  -2  -4  -9  135.30    4.20   1
   2   4  10  115.40    4.20   1
  -2  -4 -10  105.30    4.00   1
   2   4  11   20.30    4.30   1
  -2  -4 -11   13.60    2.90   1
   2   4  12  746.90   28.60   1
  -2  -4 -12  752.80   25.20   1
   2   6 -12  305.00   13.90   1
  -2  -6  12  328.50   14.40   1
   2   6 -11  286.30   11.50   1
  -2  -6  11  278.60    9.10   1
   2   6 -10  326.00   11.80   1
  -2  -6  10  317.80    9.00   1
   2   6  -9 1248.30   23.90   1
  -2  -6   9 1256.00   27.00   1
   2   6  -8 1362.20   23.70   1
  -2  -6   8 1350.10   27.60   1
   2   6  -7   17.80    1.30   1
  -2  -6   7   26.60    2.00   1
   2   6  -6  991.90   12.70   1
  -2  -6   6  966.30   19.10   1
   2   6  -5  139.50    2.60   1
  -2  -6   5  140.30    3.20   1
   2   6  -4  217.80    3.50   1
  -2  -6   4  225.40    3.70   1
   2   6  -3   74.50    1.30   1
  -2  -6   3   72.00    1.40   1
   2   6  -2   11.20    0.40   1
  -2  -6   2   12.00    0.60   1
   2   6  -1 3144.10   31.60   1
  -2  -6   1 3120.70   33.30   1
   2   6   0 4445.70   44.40   1
  -2  -6   0 4330.00   48.10   1
   2   6   1 1109.80   12.40   1
  -2  -6  -1 1106.80   11.60   1
   2   6   2  473.90    6.30   1
  -2  -6  -2  487.10    6.50   1
   2   6   3   93.50    1.70   1
  -2  -6  -3   95.30    1.60   1
   2   6   4   10.60    0.50   1
  -2  -6  -4   11.10    0.60   1
   2   6   5    6.10    0.80   1
  -2  -6  -5   10.50    0.80   1
   2   6   6  289.40    4.90   1
  -2  -6  -6  282.00    6.00   1
   2   6   7  176.80    5.80   1
  -2  -6  -7  174.40    4.10   1
   2   6   8  942.20   18.40   1
  -2  -6  -8  941.50   18.30   1
   2   6   9 1129.40   23.10   1
  -2  -6  -9 1160.00   23.30   1
   2   6  10  138.70    6.40   1
  -2  -6 -10  135.30    5.20   1
   2   6  11   62.00    4.60   1
  -2  -6 -11   62.00    3.70   1
   2   8 -12    2.60    2.90   1
  -2  -8  12   -3.20    5.40   1
   2   8 -11  204.50    7.60   1
  -2  -8  11  241.80   16.10   1
   2   8 -10   28.20    2.50   1
  -2  -8  10   21.80    3.50   1
   2   8  -9   76.40    4.00   1
  -2  -8   9   79.80    4.90   1
   2   8  -8   22.50    1.80   1
  -2  -8   8   24.40    3.00   1
   2   8  -7   34.40    2.30   1
  -2  -8   7   32.30    2.50   1
   2   8  -6 1548.10   26.20   1
  -2  -8   6 1520.50   30.10   1
   2   8  -5 2068.50   24.40   1
  -2  -8   5 2073.10   34.10   1
   2   8  -4  136.10    2.20   1
  -2  -8   4  131.80    2.80   1
   2   8  -3  140.40    2.20   1
  -2  -8   3  140.80    2.70   1
   2   8  -2  263.00    3.80   1
  -2  -8   2  260.10    4.30   1
   2   8  -1  933.10   11.20   1
  -2  -8   1  923.40   14.30   1
   2   8   0  715.30    8.80   1
  -2  -8   0  703.10   10.10   1
   2   8   1   19.00    0.90   1
  -2  -8  -1   17.90    0.80   1
   2   8   2  521.90    7.30   1
  -2  -8  -2  520.80    6.60   1
   2   8   3  771.10   11.20   1
  -2  -8  -3  790.50    9.90   1
   2   8   4  282.90    4.30   1
  -2  -8  -4  272.30    4.40   1
   2   8   5 1215.90   17.70   1
  -2  -8  -5 1220.00   21.50   1
   2   8   6  327.30    6.40   1
  -2  -8  -6  313.40    6.90   1
   2   8   7   11.70    1.40   1
  -2  -8  -7    9.20    1.50   1
   2   8   8  108.70    4.60   1
  -2  -8  -8  114.00    4.00   1
   2   8   9  158.60    4.90   1
  -2  -8  -9  168.30    6.40   1
   2   8  10    2.20    2.00   1
  -2  -8 -10    2.50    2.30   1
   2  10 -11  201.60    9.50   1
  -2 -10  11  208.90   16.30   1
   2  10 -10 1000.50   31.60   1
  -2 -10  10  933.30   35.90   1
   2  10  -9  176.60    7.20   1
  -2 -10   9  180.50    8.70   1
   2  10  -8   41.30    2.30   1
  -2 -10   8   41.90    3.70   1
   2  10  -7   62.70    2.50   1
  -2 -10   7   52.00    3.30   1
   2  10  -6   71.10    2.30   1
  -2 -10   6   69.60    3.40   1
   2  10  -5   21.80    1.10   1
  -2 -10   5   27.10    1.60   1
   2  10  -4  659.40   10.50   1
  -2 -10   4  662.50   14.00   1
   2  10  -3  146.30    3.50   1
  -2 -10   3  153.00    3.80   1
   2  10  -2 1415.90   20.10   1
  -2 -10   2 1416.30   24.40   1
   2  10  -1  620.90    9.50   1
  -2 -10   1  615.20   10.30   1
   2  10   0 1279.00   18.00   1
  -2 -10   0 1232.40   21.50   1
   2  10   1  304.60    5.20   1
  -2 -10  -1  310.10    5.80   1
   2  10   2  222.50    4.20   1
  -2 -10  -2  226.70    4.50   1
   2  10   3  133.70    3.00   1
  -2 -10  -3  142.30    3.30   1
   2  10   4  562.60   10.30   1
  -2 -10  -4  577.70   16.20   1
   2  10   5    7.20    1.50   1
  -2 -10  -5    4.40    2.30   1
   2  10   6   15.30    2.40   1
  -2 -10  -6   16.20    2.90   1
   2  10   7  321.10    7.30   1
  -2 -10  -7  310.30   11.40   1
   2  10   8  641.50   15.40   1
  -2 -10  -8  603.00   24.10   1
   2  10   9  119.90    4.80   1
  -2 -10  -9  121.60   10.20   1
   2  12  -9   94.30    6.10   1
  -2 -12   9   81.20    9.60   1
   2  12  -8  149.50    7.40   1
  -2 -12   8  150.40    8.30   1
   2  12  -7  392.00   10.30   1
  -2 -12   7  399.90   11.90   1
   2  12  -6    3.20    2.10   1
  -2 -12   6    5.00    2.10   1
   2  12  -5 1517.40   26.10   1
  -2 -12   5 1538.60   33.90   1
   2  12  -4  289.60    6.50   1
  -2 -12   4  289.80    7.20   1
   2  12  -3  186.00    4.40   1
  -2 -12   3  189.00    5.10   1
   2  12  -2   13.30    1.50   1
  -2 -12   2   13.00    1.50   1
   2  12  -1  112.20    3.10   1
  -2 -12   1  119.20    3.30   1
   2  12   0  431.30    7.80   1
  -2 -12   0  447.00    9.30   1
   2  12   1  112.10    3.50   1
  -2 -12  -1  110.10    4.10   1
   2  12   2   19.70    1.80   1
  -2 -12  -2   24.20    2.20   1
   2  12   3 1211.10   24.10   1
  -2 -12  -3 1239.20   35.10   1
   2  12   4  413.70    9.00   1
  -2 -12  -4  416.00   11.70   1
   2  12   5  783.10   17.40   1
  -2 -12  -5  761.60   19.70   1
   2  12   6   30.70    3.20   1
  -2 -12  -6   34.00    4.20   1
   2  12   7   13.80    2.90   1
  -2 -12  -7    8.00    4.00   1
   2  12   8  127.20    6.20   1
  -2 -12  -8  147.80    9.30   1
   2  14  -7   20.90    3.60   1
  -2 -14   7   27.90    4.80   1
   2  14  -6  187.40    7.40   1
  -2 -14   6  174.50    7.90   1
   2  14  -5   90.70    4.90   1
  -2 -14   5   86.30    4.80   1
   2  14  -4    1.80    2.10   1
  -2 -14   4    3.90    2.30   1
   2  14  -3   31.30    2.60   1
  -2 -14   3   28.70    2.40   1
   2  14  -2  215.50    5.40   1
  -2 -14   2  227.30    5.90   1
   2  14  -1    9.40    1.80   1
  -2 -14   1    6.00    1.80   1
   2  14   0 1496.10   24.60   1
  -2 -14   0 1508.40   29.90   1
   2  14   1    2.70    2.00   1
  -2 -14  -1    9.20    2.00   1
   2  14   2    3.30    2.20   1
  -2 -14  -2    5.10    2.30   1
   2  14   3   13.90    2.40   1
  -2 -14  -3   18.80    2.80   1
   2  14   4   69.70    4.20   1
  -2 -14  -4   77.10    5.80   1
   2  14   5  114.20    5.40   1
  -2 -14  -5  109.60    7.70   1
   2  14   6   21.50    5.40   1
  -2 -14  -6   28.50    6.60   1
   2  16  -3   46.40    4.20   1
   2  16  -2   78.10    4.30   1
  -2 -16   2   77.60    5.10   1
   2  16  -1   85.10    5.20   1
  -2 -16   1   88.10    5.50   1
   2  16   0   57.00    3.90   1
  -2 -16   0   50.80    4.30   1
   2  16   1    3.80    2.40   1
  -2 -16  -1    4.20    2.60   1
   3   1 -13   25.40    6.60   1
  -3  -1  13   23.90    6.40   1
   3   1 -12  768.10   36.50   1
  -3  -1  12  816.70   34.50   1
   3   1 -11  476.20   15.90   1
  -3  -1  11  468.20   12.00   1
   3   1 -10  165.90    4.50   1
  -3  -1  10  165.80    5.00   1
   3   1  -9 2020.00   27.60   1
  -3  -1   9 1964.20   33.50   1
   3   1  -8  667.20   10.00   1
  -3  -1   8  702.40    9.50   1
   3   1  -7   18.80    0.90   1
  -3  -1   7   17.10    0.70   1
   3   1  -6   24.10    0.70   1
  -3  -1   6   26.60    0.70   1
   3   1  -5 1614.50   16.00   1
  -3  -1   5 1617.60   17.50   1
   3   1  -4 2342.10   24.90   1
  -3  -1   4 2396.60   25.50   1
   3   1  -3 3989.30   39.50   1
  -3  -1   3 3909.30   38.70   1
   3   1  -2  617.70    7.00   1
  -3  -1   2  621.20    7.00   1
   3   1  -1 2186.80   25.00   1
  -3  -1   1 2274.60   24.30   1
   3   1   0    1.70    0.20   1
  -3  -1   0    2.00    0.30   1
   3   1   1   22.40    0.50   1
  -3  -1  -1   23.20    0.50   1
   3   1   2 1277.80   13.30   1
  -3  -1  -2 1294.90   12.20   1
   3   1   3 2674.70   27.10   1
  -3  -1  -3 2705.90   27.20   1
   3   1   4  118.60    1.70   1
  -3  -1  -4  119.50    1.90   1
   3   1   5  510.40    6.40   1
  -3  -1  -5  518.20    6.30   1
   3   1   6 1634.10   21.90   1
  -3  -1  -6 1609.20   21.90   1
   3   1   7   10.00    1.00   1
  -3  -1  -7   11.00    1.00   1
   3   1   8  514.70   10.70   1
  -3  -1  -8  532.10    9.90   1
   3   1   9   59.10    2.80   1
  -3  -1  -9   60.10    3.40   1
   3   1  10  175.40    6.60   1
  -3  -1 -10  167.40    6.40   1
   3   1  11  486.40   16.40   1
  -3  -1 -11  488.70   16.40   1
   3   3 -13  373.00   24.20   1
  -3  -3  13  352.70   24.50   1
   3   3 -12  303.00   11.50   1
  -3  -3  12  279.60    9.10   1
   3   3 -11   12.30    2.80   1
  -3  -3  11   16.10    2.10   1
   3   3 -10  156.60    5.20   1
  -3  -3  10  167.80    5.50   1
   3   3  -9  262.30    5.30   1
  -3  -3   9  263.40    7.10   1
   3   3  -8   36.60    1.20   1
  -3  -3   8   38.50    1.20   1
   3   3  -7 4558.20   54.80   1
  -3  -3   7 4715.80   56.50   1
   3   3  -6  215.50    3.10   1
  -3  -3   6  219.50    3.40   1
   3   3  -5  546.20    6.10   1
  -3  -3   5  539.10    6.70   1
   3   3  -4 2064.20   21.30   1
  -3  -3   4 2032.70   22.10   1
   3   3  -3   45.70    0.80   1
  -3  -3   3   47.40    1.00   1
   3   3  -2 2545.50   23.30   1
  -3  -3   2 2577.10   29.00   1
   3   3  -1  122.50    1.60   1
  -3  -3   1  125.90    1.80   1
   3   3   0  868.60    9.80   1
  -3  -3   0  883.80    9.40   1
   3   3   1 5635.40   58.50   1
  -3  -3  -1 5647.50   62.50   1
   3   3   2    0.70    0.40   1
  -3  -3  -2    1.80    0.30   1
   3   3   3  966.00   13.30   1
  -3  -3  -3  973.90   11.50   1
   3   3   4 1300.50   19.20   1
  -3  -3  -4 1331.20   16.50   1
   3   3   5    7.50    0.80   1
  -3  -3  -5    6.80    0.50   1
   3   3   6  513.10    7.80   1
  -3  -3  -6  518.50    7.40   1
   3   3   7  638.50   10.70   1
  -3  -3  -7  638.50   14.20   1
   3   3   8  525.20   10.90   1
  -3  -3  -8  504.00   10.60   1
   3   3   9  483.50   11.10   1
  -3  -3  -9  484.90   11.00   1
   3   3  10    1.40    1.70   1
  -3  -3 -10    3.40    1.70   1
   3   3  11  673.90   22.20   1
  -3  -3 -11  644.80   21.70   1
   3   5 -13    5.80    7.90   1
  -3  -5  13    7.80    5.20   1
   3   5 -12  806.80   30.70   1
  -3  -5  12  832.20   25.20   1
   3   5 -11  476.30   16.60   1
  -3  -5  11  479.60   13.70   1
   3   5 -10    7.10    1.90   1
  -3  -5  10    0.70    1.70   1
   3   5  -9   69.50    3.30   1
  -3  -5   9   64.20    3.30   1
   3   5  -8  547.70    9.40   1
  -3  -5   8  551.20   12.10   1
   3   5  -7 1437.90   15.90   1
  -3  -5   7 1417.60   21.60   1
   3   5  -6   93.80    1.60   1
  -3  -5   6   91.20    2.50   1
   3   5  -5   69.30    1.30   1
  -3  -5   5   71.40    2.00   1
   3   5  -4 2153.40   23.20   1
  -3  -5   4 2143.20   26.40   1
   3   5  -3 1467.70   14.60   1
  -3  -5   3 1447.00   16.80   1
   3   5  -2 3181.80   30.50   1
  -3  -5   2 3139.30   33.30   1
   3   5  -1   23.90    0.70   1
  -3  -5   1   22.40    0.60   1
   3   5   0  248.10    3.20   1
  -3  -5   0  242.10    3.00   1
   3   5   1 2772.80   31.40   1
  -3  -5  -1 2736.80   29.30   1
   3   5   2  831.20   11.50   1
  -3  -5  -2  836.00   10.80   1
   3   5   3  134.50    2.40   1
  -3  -5  -3  133.50    2.30   1
   3   5   4   99.60    2.00   1
  -3  -5  -4   99.10    1.90   1
   3   5   5  586.50    8.50   1
  -3  -5  -5  588.60    8.10   1
   3   5   6 1700.00   29.10   1
  -3  -5  -6 1672.10   25.20   1
   3   5   7   94.30    3.40   1
  -3  -5  -7   90.80    3.10   1
   3   5   8  203.30    5.50   1
  -3  -5  -8  198.80    5.40   1
   3   5   9  272.90    7.60   1
  -3  -5  -9  261.20    7.10   1
   3   5  10  200.00    8.40   1
  -3  -5 -10  226.60    7.60   1
   3   5  11  127.50    9.20   1
  -3  -5 -11  138.40    7.20   1
   3   7 -12   68.80    5.80   1
  -3  -7  12   71.10    6.00   1
   3   7 -11  458.20   15.30   1
  -3  -7  11  454.70   18.20   1
   3   7 -10   54.00    3.20   1
  -3  -7  10   54.60    4.70   1
   3   7  -9 1112.80   25.00   1
  -3  -7   9 1055.50   28.50   1
   3   7  -8  264.40    7.20   1
  -3  -7   8  254.20    8.50   1
   3   7  -7  198.30    3.80   1
  -3  -7   7  199.90    6.80   1
   3   7  -6  149.20    2.80   1
  -3  -7   6  147.50    3.60   1
   3   7  -5  194.10    3.10   1
  -3  -7   5  188.40    3.80   1
   3   7  -4   75.60    1.20   1
  -3  -7   4   74.10    1.90   1
   3   7  -3 3774.70   40.20   1
  -3  -7   3 3578.20   46.80   1
   3   7  -2   39.20    0.90   1
  -3  -7   2   40.00    1.20   1
   3   7  -1   73.80    1.80   1
  -3  -7   1   74.80    1.80   1
   3   7   0  172.90    2.70   1
  -3  -7   0  175.70    2.60   1
   3   7   1  760.80    9.90   1
  -3  -7  -1  756.70    9.90   1
   3   7   2  313.90    4.70   1
  -3  -7  -2  323.00    4.70   1
   3   7   3 1076.20   14.00   1
  -3  -7  -3 1053.90   16.10   1
   3   7   4   99.20    2.30   1
  -3  -7  -4   99.90    2.40   1
   3   7   5  931.50   17.00   1
  -3  -7  -5  923.30   19.20   1
   3   7   6   64.10    2.80   1
  -3  -7  -6   65.40    2.60   1
   3   7   7  281.20    8.10   1
  -3  -7  -7  283.90    6.90   1
   3   7   8   79.10    3.10   1
  -3  -7  -8   84.40    3.90   1
   3   7   9    3.60    1.90   1
  -3  -7  -9    2.20    1.90   1
   3   7  10   84.60    4.70   1
  -3  -7 -10   80.80    4.90   1
   3   9 -11    6.70    2.90   1
  -3  -9  11    4.30    3.40   1
   3   9 -10   12.00    2.20   1
  -3  -9  10   14.90    3.10   1
   3   9  -9  261.80    8.70   1
  -3  -9   9  251.10    9.90   1
   3   9  -8  714.00   17.10   1
  -3  -9   8  701.60   21.00   1
   3   9  -7  165.20    4.90   1
  -3  -9   7  153.60    6.20   1
   3   9  -6   94.70    2.60   1
  -3  -9   6   97.90    3.00   1
   3   9  -5  899.00   15.00   1
  -3  -9   5  894.00   16.10   1
   3   9  -4  764.20   11.40   1
  -3  -9   4  752.10   13.60   1
   3   9  -3  137.90    2.80   1
  -3  -9   3  127.60    3.20   1
   3   9  -2  632.00    8.70   1
  -3  -9   2  602.10   11.10   1
   3   9  -1 1345.40   17.80   1
  -3  -9   1 1305.40   22.50   1
   3   9   0  138.80    2.80   1
  -3  -9   0  133.50    2.70   1
   3   9   1  261.40    4.60   1
  -3  -9  -1  265.10    4.60   1
   3   9   2 1247.30   17.70   1
  -3  -9  -2 1252.30   17.70   1
   3   9   3  381.10    7.00   1
  -3  -9  -3  380.30    6.50   1
   3   9   4   62.20    2.30   1
  -3  -9  -4   60.30    2.20   1
   3   9   5  121.40    3.90   1
  -3  -9  -5  110.00    3.50   1
   3   9   6  613.30   12.70   1
  -3  -9  -6  592.60   12.90   1
   3   9   7  454.20   12.30   1
  -3  -9  -7  474.30   13.00   1
   3   9   8  189.30    6.80   1
  -3  -9  -8  188.90    8.00   1
   3   9   9   14.00    2.60   1
  -3  -9  -9   17.10    3.50   1
   3  11 -10  227.50    9.70   1
  -3 -11  10  249.00   12.60   1
   3  11  -9   40.50    4.50   1
  -3 -11   9   30.00    4.30   1
   3  11  -8  686.10   18.90   1
  -3 -11   8  646.30   21.10   1
   3  11  -7 1004.90   23.70   1
  -3 -11   7  925.30   22.00   1
   3  11  -6  614.10   15.50   1
  -3 -11   6  574.30   14.60   1
   3  11  -5  284.50    7.30   1
  -3 -11   5  276.50    6.90   1
   3  11  -4   68.10    2.90   1
  -3 -11   4   75.80    2.90   1
   3  11  -3  118.80    3.70   1
  -3 -11   3  119.30    4.20   1
   3  11  -2    2.10    1.30   1
  -3 -11   2    5.40    1.20   1
   3  11  -1  152.70    3.70   1
  -3 -11   1  154.70    3.70   1
   3  11   0 1264.90   19.20   1
  -3 -11   0 1246.60   20.20   1
   3  11   1 1127.90   16.80   1
  -3 -11  -1 1135.90   19.20   1
   3  11   2  908.90   14.60   1
  -3 -11  -2  892.10   15.80   1
   3  11   3   81.70    2.70   1
  -3 -11  -3   88.70    3.70   1
   3  11   4  504.80   10.10   1
  -3 -11  -4  472.30   12.60   1
   3  11   5   32.20    2.50   1
  -3 -11  -5   35.40    3.80   1
   3  11   6   26.20    2.80   1
  -3 -11  -6   27.40    3.90   1
   3  11   7  415.80   12.40   1
  -3 -11  -7  379.80   16.50   1
   3  11   8  104.30    6.10   1
  -3 -11  -8  116.70    7.60   1
   3  13  -8  228.30   10.30   1
  -3 -13   8  226.20   12.00   1
   3  13  -7    2.10    3.10   1
  -3 -13   7    3.80    3.00   1
   3  13  -6   58.70    3.80   1
  -3 -13   6   53.60    3.80   1
   3  13  -5  189.40    5.70   1
  -3 -13   5  196.60    7.00   1
   3  13  -4  119.90    4.10   1
  -3 -13   4  115.60    4.90   1
   3  13  -3 1334.30   22.30   1
  -3 -13   3 1327.60   23.40   1
   3  13  -2  149.70    4.10   1
  -3 -13   2  163.40    4.70   1
   3  13  -1  150.00    4.50   1
  -3 -13   1  149.80    4.40   1
   3  13   0  174.40    5.00   1
  -3 -13   0  171.10    5.30   1
   3  13   1    2.60    1.60   1
  -3 -13  -1    1.30    1.40   1
   3  13   2  150.70    5.40   1
  -3 -13  -2  150.20    5.90   1
   3  13   3   22.60    2.80   1
  -3 -13  -3   16.80    3.10   1
   3  13   4   47.20    3.90   1
  -3 -13  -4   55.70    5.00   1
   3  13   5  644.70   18.10   1
  -3 -13  -5  580.00   24.00   1
   3  13   6  233.70    8.70   1
  -3 -13  -6  223.00   11.80   1
   3  15  -5   13.10    2.90   1
  -3 -15   5   20.80    3.00   1
   3  15  -4  115.60    5.70   1
  -3 -15   4  105.80    5.30   1
   3  15  -3  244.30    7.90   1
  -3 -15   3  227.90    9.70   1
   3  15  -2   60.10    3.70   1
  -3 -15   2   57.40    4.30   1
   3  15  -1   12.40    2.40   1
  -3 -15   1   16.20    2.60   1
   3  15   0  152.00    5.70   1
  -3 -15   0  157.20    7.40   1
   3  15   1    6.90    2.40   1
  -3 -15  -1   11.60    3.50   1
   3  15   2  637.10   16.80   1
  -3 -15  -2  636.90   25.80   1
   3  15   3    6.00    3.10   1
  -3 -15  -3    7.20    5.30   1
   4   0 -14  209.90   17.30   1
   4   0 -13    3.20    4.70   1
   4   0 -12  938.70   27.80   1
   4   0 -11   -0.10    1.30   1
   4   0 -10  608.00   12.50   1
   4   0  -9   -0.30    0.80   1
   4   0  -8 1661.60   25.00   1
   4   0  -7    0.20    0.60   1
   4   0  -6 3513.40   40.00   1
   4   0  -5    1.70    0.40   1
   4   0  -4  855.40    9.10   1
   4   0  -3    1.90    0.40   1
   4   0  -2 1365.60   14.80   1
   4   0  -1    6.20    0.60   1
   4   0   0 5965.10   66.30   1
   4   0   1    1.50    0.30   1
   4   0   2  247.20    3.20   1
   4   0   3    2.70    0.40   1
   4   0   4    5.60    0.60   1
   4   0   5    1.60    0.60   1
   4   0   6   15.80    1.00   1
   4   0   7    1.50    0.80   1
   4   0   8 2986.00   46.70   1
   4   0   9   -0.60    2.00   1
   4   0  10  381.50   13.10   1
   4   0  11    1.50    2.70   1
   4   2 -13  351.60   23.30   1
  -4  -2  13  332.00   15.10   1
   4   2 -12  257.60   11.50   1
  -4  -2  12  243.50    8.50   1
   4   2 -11  229.00    7.50   1
  -4  -2  11  222.50    7.40   1
   4   2 -10  370.80    7.40   1
  -4  -2  10  386.00    8.30   1
   4   2  -9   11.80    1.10   1
  -4  -2   9   10.40    1.30   1
   4   2  -8  678.10    9.40   1
  -4  -2   8  696.10   10.30   1
   4   2  -7 1339.60   15.90   1
  -4  -2   7 1361.80   17.40   1
   4   2  -6   13.20    0.70   1
  -4  -2   6   14.40    0.70   1
   4   2  -5 4514.70   50.40   1
  -4  -2   5 4518.40   54.10   1
   4   2  -4 2102.50   20.60   1
  -4  -2   4 2058.80   23.60   1
   4   2  -3   29.70    0.70   1
  -4  -2   3   30.30    0.80   1
   4   2  -2 1492.20   15.60   1
  -4  -2   2 1541.50   17.00   1
   4   2  -1  363.60    4.10   1
  -4  -2   1  376.60    4.60   1
   4   2   0  898.20   10.80   1
  -4  -2   0  946.50   11.40   1
   4   2   1   94.20    1.40   1
  -4  -2  -1   93.90    1.50   1
   4   2   2  214.80    3.50   1
  -4  -2  -2  218.70    3.10   1
   4   2   3 3159.20   41.30   1
  -4  -2  -3 3238.30   36.20   1
   4   2   4  457.20    5.90   1
  -4  -2  -4  472.00    5.70   1
   4   2   5 1639.00   22.40   1
  -4  -2  -5 1642.40   20.80   1
   4   2   6   20.50    1.40   1
  -4  -2  -6   25.30    1.30   1
   4   2   7   11.90    1.20   1
  -4  -2  -7   10.90    1.30   1
   4   2   8   40.90    2.30   1
  -4  -2  -8   39.20    2.50   1
   4   2   9  187.20    6.70   1
  -4  -2  -9  176.10    5.50   1
   4   2  10   57.40    5.20   1
  -4  -2 -10   49.60    4.10   1
   4   2  11  211.70    9.40   1
  -4  -2 -11  201.40    9.40   1
   4   4 -13    8.30    5.40   1
  -4  -4  13   13.00    3.50   1
   4   4 -12   91.90    6.40   1
  -4  -4  12   88.60    5.10   1
   4   4 -11  110.50    5.80   1
  -4  -4  11  105.00    4.60   1
   4   4 -10 3221.30   65.20   1
  -4  -4  10 3216.20   65.30   1
   4   4  -9  380.30    6.80   1
  -4  -4   9  387.60    8.20   1
   4   4  -8   12.60    0.90   1
  -4  -4   8   15.50    1.30   1
   4   4  -7   76.00    1.70   1
  -4  -4   7   76.10    1.60   1
   4   4  -6  279.30    4.20   1
  -4  -4   6  276.20    4.50   1
   4   4  -5  319.10    4.30   1
  -4  -4   5  316.00    4.90   1
   4   4  -4  410.00    4.80   1
  -4  -4   4  408.80    6.90   1
   4   4  -3  234.10    2.80   1
  -4  -4   3  229.50    4.10   1
   4   4  -2 5038.90   46.00   1
  -4  -4   2 4960.60   55.60   1
   4   4  -1  837.10   10.10   1
  -4  -4   1  836.90   10.30   1
   4   4   0 1822.40   21.00   1
  -4  -4   0 1825.60   24.60   1
   4   4   1  128.00    2.10   1
  -4  -4  -1  126.20    2.30   1
   4   4   2  175.90    3.10   1
  -4  -4  -2  180.50    3.20   1
   4   4   3  115.10    2.50   1
  -4  -4  -3  120.90    2.00   1
   4   4   4  765.10   11.10   1
  -4  -4  -4  774.20   10.40   1
   4   4   5   44.60    1.40   1
  -4  -4  -5   47.10    1.30   1
   4   4   6  293.80    5.70   1
  -4  -4  -6  290.40    6.20   1
   4   4   7  144.00    4.80   1
  -4  -4  -7  146.80    4.20   1
   4   4   8  932.40   18.60   1
  -4  -4  -8  920.10   18.60   1
   4   4   9  308.50    8.30   1
  -4  -4  -9  311.20    8.60   1
   4   4  10  217.00    8.70   1
  -4  -4 -10  218.90    9.30   1
   4   6 -13  155.80   10.30   1
  -4  -6  13  159.10    8.20   1
   4   6 -12  259.90   13.00   1
  -4  -6  12  258.10   10.30   1
   4   6 -11   65.70    4.00   1
  -4  -6  11   58.60    3.80   1
   4   6 -10    9.90    2.30   1
  -4  -6  10    5.70    1.90   1
   4   6  -9   10.20    2.30   1
  -4  -6   9    8.40    1.90   1
   4   6  -8  254.00    6.80   1
  -4  -6   8  241.10    6.60   1
   4   6  -7  755.30   11.30   1
  -4  -6   7  737.40   16.10   1
   4   6  -6 2180.70   25.90   1
  -4  -6   6 2123.50   41.60   1
   4   6  -5 2011.50   22.70   1
  -4  -6   5 1961.70   38.70   1
   4   6  -4   11.50    0.80   1
  -4  -6   4   10.00    0.90   1
   4   6  -3   58.80    1.20   1
  -4  -6   3   58.50    1.60   1
   4   6  -2   11.10    0.60   1
  -4  -6   2   11.90    0.70   1
   4   6  -1   29.80    1.00   1
  -4  -6   1   29.70    1.00   1
   4   6   0 1212.70   16.60   1
  -4  -6   0 1214.70   16.30   1
   4   6   1    6.70    0.80   1
  -4  -6  -1    7.50    0.50   1
   4   6   2 1035.60   14.40   1
  -4  -6  -2 1039.30   13.20   1
   4   6   3 2524.20   34.10   1
  -4  -6  -3 2494.70   30.70   1
   4   6   4  736.90   13.40   1
  -4  -6  -4  730.70   11.90   1
   4   6   5  472.70   10.90   1
  -4  -6  -5  467.30    8.10   1
   4   6   6  133.60    3.80   1
  -4  -6  -6  133.30    3.80   1
   4   6   7    1.10    1.30   1
  -4  -6  -7    6.30    1.60   1
   4   6   8  127.00    4.50   1
  -4  -6  -8  124.00    5.10   1
   4   6   9   40.40    3.50   1
  -4  -6  -9   40.80    3.50   1
   4   6  10    1.30    3.00   1
  -4  -6 -10   -3.20    2.40   1
   4   8 -12  269.60   14.10   1
  -4  -8  12  302.40   14.90   1
   4   8 -11  689.90   21.90   1
  -4  -8  11  702.60   26.90   1
   4   8 -10   97.70    5.80   1
  -4  -8  10  115.90    6.60   1
   4   8  -9  517.50   14.00   1
  -4  -8   9  497.40   16.20   1
   4   8  -8  450.90   11.40   1
  -4  -8   8  430.90   13.80   1
   4   8  -7  107.90    3.00   1
  -4  -8   7  108.50    3.90   1
   4   8  -6  502.40   10.30   1
  -4  -8   6  509.50   11.60   1
   4   8  -5  105.60    2.80   1
  -4  -8   5  106.50    3.10   1
   4   8  -4  398.80    5.80   1
  -4  -8   4  387.20    7.60   1
   4   8  -3   38.50    1.10   1
  -4  -8   3   34.80    1.60   1
   4   8  -2  154.60    2.90   1
  -4  -8   2  151.30    3.10   1
   4   8  -1 2673.40   36.20   1
  -4  -8   1 2648.90   39.10   1
   4   8   0 1841.00   24.80   1
  -4  -8   0 1826.30   25.20   1
   4   8   1  136.30    2.90   1
  -4  -8  -1  131.30    2.60   1
   4   8   2   23.70    1.30   1
  -4  -8  -2   23.90    1.00   1
   4   8   3  184.80    4.10   1
  -4  -8  -3  185.30    3.70   1
   4   8   4   53.20    2.00   1
  -4  -8  -4   53.70    1.90   1
   4   8   5  207.90    5.00   1
  -4  -8  -5  208.00    5.30   1
   4   8   6   43.60    2.50   1
  -4  -8  -6   43.20    2.30   1
   4   8   7  583.30   11.20   1
  -4  -8  -7  552.20   13.00   1
   4   8   8  805.50   20.80   1
  -4  -8  -8  781.90   29.90   1
   4   8   9  283.30    9.90   1
  -4  -8  -9  299.20   14.70   1
   4  10 -11    2.00    4.80   1
  -4 -10  11    2.20    4.10   1
   4  10 -10  413.00   18.60   1
  -4 -10  10  398.60   17.80   1
   4  10  -9   30.70    3.40   1
  -4 -10   9   28.90    4.00   1
   4  10  -8  391.10   11.10   1
  -4 -10   8  385.40   13.20   1
   4  10  -7  190.80    6.50   1
  -4 -10   7  183.90    7.60   1
   4  10  -6  825.10   17.00   1
  -4 -10   6  849.30   20.00   1
   4  10  -5  407.80    8.10   1
  -4 -10   5  399.20   10.20   1
   4  10  -4 1411.70   23.00   1
  -4 -10   4 1395.50   25.50   1
   4  10  -3   90.50    2.60   1
  -4 -10   3   88.30    2.80   1
   4  10  -2  509.20    8.40   1
  -4 -10   2  496.80    9.60   1
   4  10  -1    2.60    1.20   1
  -4 -10   1    0.10    0.90   1
   4  10   0   16.00    1.40   1
  -4 -10   0   16.40    1.20   1
   4  10   1  233.60    4.70   1
  -4 -10  -1  236.60    4.70   1
   4  10   2  142.70    3.40   1
  -4 -10  -2  161.50    3.50   1
   4  10   3  140.60    4.00   1
  -4 -10  -3  146.00    3.80   1
   4  10   4 1798.80   30.10   1
  -4 -10  -4 1750.80   37.00   1
   4  10   5  315.30    8.20   1
  -4 -10  -5  302.30    9.40   1
   4  10   6    3.00    2.30   1
  -4 -10  -6    0.50    2.30   1
   4  10   7   -1.10    2.30   1
  -4 -10  -7    3.40    2.50   1
   4  10   8   88.40    5.10   1
  -4 -10  -8  103.20    6.10   1
   4  12  -9  679.40   22.10   1
  -4 -12   9  636.50   25.20   1
   4  12  -8    9.00    2.90   1
  -4 -12   8    6.40    3.30   1
   4  12  -7   87.80    5.10   1
  -4 -12   7   85.00    6.00   1
   4  12  -6  238.20    7.40   1
  -4 -12   6  226.50    8.20   1
   4  12  -5  238.90    6.30   1
  -4 -12   5  242.30    8.00   1
   4  12  -4    4.00    1.50   1
  -4 -12   4    8.50    1.70   1
   4  12  -3  245.60    5.90   1
  -4 -12   3  237.60    6.40   1
   4  12  -2  322.00    7.10   1
  -4 -12   2  325.70    7.80   1
   4  12  -1 1242.50   21.20   1
  -4 -12   1 1238.80   23.50   1
   4  12   0    5.00    1.60   1
  -4 -12   0    4.10    1.30   1
   4  12   1  296.00    7.00   1
  -4 -12  -1  307.00    7.70   1
   4  12   2  133.50    4.80   1
  -4 -12  -2  127.00    5.90   1
   4  12   3  193.90    5.60   1
  -4 -12  -3  189.40    8.30   1
   4  12   4    5.60    2.80   1
  -4 -12  -4    5.90    2.60   1
   4  12   5   23.40    4.00   1
  -4 -12  -5   21.00    3.60   1
   4  12   6   32.30    4.10   1
  -4 -12  -6   37.50    4.60   1
   4  14  -6 1010.10   32.80   1
  -4 -14   6  962.40   31.30   1
   4  14  -5   -3.00    2.40   1
  -4 -14   5    0.70    2.20   1
   4  14  -4  170.10    6.20   1
  -4 -14   4  157.50    6.40   1
   4  14  -3   16.30    2.30   1
  -4 -14   3   16.40    2.00   1
   4  14  -2   45.70    2.70   1
  -4 -14   2   40.60    3.00   1
   4  14  -1  150.40    5.40   1
  -4 -14   1  148.80    5.80   1
   4  14   0  136.30    6.60   1
  -4 -14   0  144.90    6.60   1
   4  14   1   10.20    2.80   1
  -4 -14  -1   11.90    3.20   1
   4  14   2  368.80   11.60   1
  -4 -14  -2  367.40   16.30   1
   4  14   3   16.00    3.70   1
  -4 -14  -3    8.60    3.40   1
   4  14   4  653.70   21.60   1
  -4 -14  -4  628.70   26.40   1
   5   1 -13  185.00   14.90   1
  -5  -1  13  176.80    9.50   1
   5   1 -12  118.40    5.10   1
  -5  -1  12  109.10    5.00   1
   5   1 -11 1071.50   24.50   1
  -5  -1  11 1063.40   21.10   1
   5   1 -10  220.80    4.90   1
  -5  -1  10  208.80    7.40   1
   5   1  -9  414.70    7.50   1
  -5  -1   9  411.60    7.50   1
   5   1  -8 1217.20   17.60   1
  -5  -1   8 1219.10   18.80   1
   5   1  -7  544.70    8.40   1
  -5  -1   7  553.10    9.00   1
   5   1  -6  529.70    7.20   1
  -5  -1   6  528.80    8.40   1
   5   1  -5  233.10    3.50   1
  -5  -1   5  240.60    4.70   1
   5   1  -4  713.60    9.40   1
  -5  -1   4  714.80   10.00   1
   5   1  -3 4533.70   63.90   1
  -5  -1   3 4580.90   58.60   1
   5   1  -2    1.60    0.70   1
  -5  -1   2    1.20    0.60   1
   5   1  -1   23.60    0.80   1
  -5  -1   1   20.20    1.10   1
   5   1   0 2560.00   36.80   1
  -5  -1   0 2577.70   34.40   1
   5   1   1   33.60    1.00   1
  -5  -1  -1   33.30    1.10   1
   5   1   2 1665.10   24.50   1
  -5  -1  -2 1670.20   24.20   1
   5   1   3   47.00    1.50   1
  -5  -1  -3   50.50    1.40   1
   5   1   4   58.00    1.70   1
  -5  -1  -4   54.10    1.70   1
   5   1   5 1322.90   20.60   1
  -5  -1  -5 1318.10   20.40   1
   5   1   6  129.50    3.20   1
  -5  -1  -6  133.50    3.30   1
   5   1   7  593.00   12.30   1
  -5  -1  -7  623.90   13.10   1
   5   1   8   46.40    2.70   1
  -5  -1  -8   47.00    2.70   1
   5   1   9    7.40    2.50   1
  -5  -1  -9    8.20    2.60   1
   5   1  10  601.50   20.50   1
  -5  -1 -10  594.40   23.90   1
   5   3 -13 1402.10   74.30   1
  -5  -3  13 1330.80   48.80   1
   5   3 -12    1.90    2.70   1
  -5  -3  12    1.50    2.20   1
   5   3 -11   43.50    3.90   1
  -5  -3  11   39.30    3.10   1
   5   3 -10  408.00    8.00   1
  -5  -3  10  397.40    9.20   1
   5   3  -9    7.00    1.10   1
  -5  -3   9    9.60    1.30   1
   5   3  -8  748.00   11.30   1
  -5  -3   8  730.80   13.50   1
   5   3  -7 2052.90   25.90   1
  -5  -3   7 1994.60   29.70   1
   5   3  -6  248.30    4.20   1
  -5  -3   6  250.70    4.60   1
   5   3  -5 2751.70   33.80   1
  -5  -3   5 2620.00   37.60   1
   5   3  -4    5.40    0.60   1
  -5  -3   4    6.20    0.80   1
   5   3  -3  532.40    6.80   1
  -5  -3   3  521.90    9.30   1
   5   3  -2   75.80    1.60   1
  -5  -3   2   72.40    2.00   1
   5   3  -1  399.50    5.10   1
  -5  -3   1  404.40    7.40   1
   5   3   0  312.60    4.90   1
  -5  -3   0  299.10    5.20   1
   5   3   1 2552.70   33.60   1
  -5  -3  -1 2505.70   36.20   1
   5   3   2  830.10   10.90   1
  -5  -3  -2  825.70   11.90   1
   5   3   3   62.20    1.60   1
  -5  -3  -3   59.60    1.60   1
   5   3   4    9.40    0.90   1
  -5  -3  -4    9.30    0.80   1
   5   3   5  512.20    9.00   1
  -5  -3  -5  501.10    8.10   1
   5   3   6   50.90    1.90   1
  -5  -3  -6   50.50    1.90   1
   5   3   7  757.10   15.30   1
  -5  -3  -7  750.10   15.80   1
   5   3   8   95.70    3.90   1
  -5  -3  -8   93.80    3.60   1
   5   3   9  104.00    4.80   1
  -5  -3  -9  122.70    5.20   1
   5   3  10  131.50    6.70   1
  -5  -3 -10  135.80    7.30   1
   5   5 -13  474.00   21.70   1
  -5  -5  13  477.30   17.20   1
   5   5 -12  270.30   12.90   1
  -5  -5  12  244.00    9.50   1
   5   5 -11   37.60    3.10   1
  -5  -5  11   38.20    3.60   1
   5   5 -10  426.30   14.60   1
  -5  -5  10  437.40   11.50   1
   5   5  -9  522.70   10.10   1
  -5  -5   9  523.20   11.30   1
   5   5  -8 1814.40   28.20   1
  -5  -5   8 1778.80   31.40   1
   5   5  -7  239.90    5.40   1
  -5  -5   7  237.60    6.30   1
   5   5  -6   82.90    2.20   1
  -5  -5   6   82.50    2.20   1
   5   5  -5 1803.90   24.30   1
  -5  -5   5 1808.90   29.70   1
   5   5  -4  636.20    8.00   1
  -5  -5   4  635.20   10.20   1
   5   5  -3  156.80    2.30   1
  -5  -5   3  156.30    3.20   1
   5   5  -2  428.80    5.20   1
  -5  -5   2  396.70    6.70   1
   5   5  -1 1443.10   19.70   1
  -5  -5   1 1426.50   23.80   1
   5   5   0 1465.00   18.60   1
  -5  -5   0 1425.30   21.40   1
   5   5   1  117.10    2.90   1
  -5  -5  -1  124.00    2.60   1
   5   5   2 1157.30   19.80   1
  -5  -5  -2 1144.30   17.60   1
   5   5   3  445.40    8.60   1
  -5  -5  -3  449.10    7.70   1
   5   5   4   33.70    1.70   1
  -5  -5  -4   35.00    1.70   1
   5   5   5   72.50    2.10   1
  -5  -5  -5   70.50    2.30   1
   5   5   6  866.50   19.80   1
  -5  -5  -6  892.80   17.40   1
   5   5   7  273.00    7.20   1
  -5  -5  -7  261.00    8.00   1
   5   5   8   18.40    2.30   1
  -5  -5  -8   16.80    2.60   1
   5   5   9    1.50    2.10   1
  -5  -5  -9    3.40    2.40   1
   5   7 -12   65.60    5.80   1
  -5  -7  12   59.90    5.50   1
   5   7 -11  622.10   19.40   1
  -5  -7  11  635.60   24.20   1
   5   7 -10  139.70    5.80   1
  -5  -7  10  143.70    7.40   1
   5   7  -9 1273.60   28.90   1
  -5  -7   9 1238.00   33.30   1
   5   7  -8   88.70    3.90   1
  -5  -7   8   87.80    3.60   1
   5   7  -7    6.50    1.30   1
  -5  -7   7    8.50    1.60   1
   5   7  -6  260.10    5.80   1
  -5  -7   6  259.50    6.80   1
   5   7  -5  151.80    3.40   1
  -5  -7   5  145.20    4.30   1
   5   7  -4  709.30    9.80   1
  -5  -7   4  682.40   12.10   1
   5   7  -3 2978.20   36.80   1
  -5  -7   3 2955.90   48.20   1
   5   7  -2  438.30    6.30   1
  -5  -7   2  427.00    7.50   1
   5   7  -1   44.90    1.60   1
  -5  -7   1   48.60    1.50   1
   5   7   0  697.70   10.20   1
  -5  -7   0  700.30   10.30   1
   5   7   1  308.50    5.20   1
  -5  -7  -1  304.60    5.00   1
   5   7   2  123.90    3.00   1
  -5  -7  -2  118.80    2.50   1
   5   7   3  162.10    4.70   1
  -5  -7  -3  159.90    4.10   1
   5   7   4  662.50   13.30   1
  -5  -7  -4  656.90   11.50   1
   5   7   5 1490.60   32.40   1
  -5  -7  -5 1486.20   27.60   1
   5   7   6  224.40    6.30   1
  -5  -7  -6  234.90    6.50   1
   5   7   7  350.20    9.30   1
  -5  -7  -7  341.60    9.10   1
   5   7   8  272.10    8.10   1
  -5  -7  -8  260.80   10.50   1
   5   7   9   36.30    4.50   1
  -5  -7  -9   38.00    5.00   1
   5   9 -11  219.60    9.90   1
  -5  -9  11  226.60   12.30   1
   5   9 -10   14.80    3.40   1
  -5  -9  10   12.20    4.80   1
   5   9  -9  285.90    9.60   1
  -5  -9   9  256.10   10.50   1
   5   9  -8  643.60   16.60   1
  -5  -9   8  631.10   19.50   1
   5   9  -7 1007.80   22.90   1
  -5  -9   7  959.70   27.50   1
   5   9  -6    9.40    1.40   1
  -5  -9   6   10.10    1.90   1
   5   9  -5    6.20    1.20   1
  -5  -9   5    8.10    1.50   1
   5   9  -4 1027.40   15.60   1
  -5  -9   4 1027.80   19.30   1
   5   9  -3  329.50    5.80   1
  -5  -9   3  322.40    7.10   1
   5   9  -2   77.90    2.30   1
  -5  -9   2   76.10    2.30   1
   5   9  -1  112.70    2.70   1
  -5  -9   1  109.80    2.60   1
   5   9   0  378.50    7.20   1
  -5  -9   0  372.60    7.20   1
   5   9   1 1141.00   17.10   1
  -5  -9  -1 1141.80   17.50   1
   5   9   2 1025.10   17.40   1
  -5  -9  -2 1020.40   22.10   1
   5   9   3  319.20    6.30   1
  -5  -9  -3  323.00    7.70   1
   5   9   4  101.50    4.00   1
  -5  -9  -4  101.50    4.40   1
   5   9   5   22.60    2.60   1
  -5  -9  -5   20.00    3.00   1
   5   9   6  302.50    7.60   1
  -5  -9  -6  303.20   10.10   1
   5   9   7   28.20    2.70   1
  -5  -9  -7   28.60    3.20   1
   5   9   8    0.80    2.50   1
  -5  -9  -8    0.40    2.90   1
   5  11 -10   26.50    7.00   1
  -5 -11  10   22.90    4.40   1
   5  11  -9   75.90    5.10   1
  -5 -11   9   69.20    6.00   1
   5  11  -8   46.40    4.30   1
  -5 -11   8   47.80    5.30   1
   5  11  -7  552.00   16.10   1
  -5 -11   7  551.90   19.00   1
   5  11  -6  140.40    5.90   1
  -5 -11   6  130.90    6.70   1
   5  11  -5  295.20    8.90   1
  -5 -11   5  308.50    9.10   1
   5  11  -4  443.50   10.20   1
  -5 -11   4  451.70   12.10   1
   5  11  -3  210.30    4.70   1
  -5 -11   3  212.00    5.70   1
   5  11  -2  502.00    9.10   1
  -5 -11   2  480.80   10.60   1
   5  11  -1    5.00    1.30   1
  -5 -11   1    3.80    1.20   1
   5  11   0   39.10    2.00   1
  -5 -11   0   45.40    2.10   1
   5  11   1  867.30   15.50   1
  -5 -11  -1  842.50   17.20   1
   5  11   2   11.80    2.00   1
  -5 -11  -2   17.00    2.80   1
   5  11   3   18.30    2.00   1
  -5 -11  -3   22.20    3.40   1
   5  11   4   81.90    3.50   1
  -5 -11  -4   82.40    5.40   1
   5  11   5   94.90    5.50   1
  -5 -11  -5   99.10    5.70   1
   5  11   6  394.40   14.50   1
  -5 -11  -6  411.90   15.30   1
   5  13  -7  175.20    8.70   1
  -5 -13   7  182.00   10.30   1
   5  13  -6    2.20    2.60   1
  -5 -13   6   -5.20    3.30   1
   5  13  -5   35.70    5.30   1
  -5 -13   5   31.00    3.20   1
   5  13  -4  145.90    6.00   1
  -5 -13   4  147.00    5.70   1
   5  13  -3  278.00    7.40   1
  -5 -13   3  275.80    8.20   1
   5  13  -2  159.10    5.30   1
  -5 -13   2  156.20    5.50   1
   5  13  -1  383.40    9.30   1
  -5 -13   1  370.50    9.50   1
   5  13   0  194.70    6.30   1
  -5 -13   0  198.30    8.00   1
   5  13   1  452.20   13.00   1
  -5 -13  -1  429.60   17.90   1
   5  13   2   30.10    3.10   1
  -5 -13  -2   25.90    3.70   1
   5  13   3  353.10   10.40   1
  -5 -13  -3  337.10   15.80   1
   5  13   4   20.80    3.60   1
  -5 -13  -4   24.40    4.00   1
   5  15  -3   87.50    4.70   1
  -5 -15   3  119.50    8.40   1
   5  15  -2  382.70   11.40   1
  -5 -15   2  366.80   14.10   1
   5  15  -1   55.50    4.40   1
  -5 -15   1   51.30    5.30   1
   6   0 -13    1.00    4.10   1
   6   0 -12  593.00   20.50   1
   6   0 -11    3.70    1.50   1
   6   0 -10  264.90    6.50   1
   6   0  -9    1.40    1.00   1
   6   0  -8   31.30    1.50   1
   6   0  -7    2.00    0.90   1
   6   0  -6 6394.10   90.20   1
   6   0  -5    2.00    0.40   1
   6   0  -4  350.80    5.30   1
   6   0  -3    1.40    1.20   1
   6   0  -2   46.60    2.00   1
   6   0  -1    3.20    1.20   1
   6   0   0  124.50    2.60   1
   6   0   1    2.60    0.60   1
   6   0   2 3795.90   61.10   1
   6   0   3    2.20    0.90   1
   6   0   4 1785.30   31.10   1
   6   0   5    1.70    0.90   1
   6   0   6   70.40    2.40   1
   6   0   7    1.50    1.10   1
   6   0   8  102.80    5.30   1
   6   0   9   -1.10    2.70   1
   6   2 -13  147.40   12.60   1
  -6  -2  13  136.50    8.40   1
   6   2 -12   43.60    4.10   1
  -6  -2  12   46.60    3.60   1
   6   2 -11 1327.40   38.50   1
  -6  -2  11 1337.70   27.60   1
   6   2 -10  680.60   12.50   1
  -6  -2  10  687.90   14.20   1
   6   2  -9  758.00   13.10   1
  -6  -2   9  755.10   14.70   1
   6   2  -8  437.20    8.00   1
  -6  -2   8  446.70    9.00   1
   6   2  -7  267.60    4.60   1
  -6  -2   7  275.30    5.20   1
   6   2  -6  324.40    5.70   1
  -6  -2   6  329.20    5.80   1
   6   2  -5   33.70    1.20   1
  -6  -2   5   33.80    1.10   1
   6   2  -4  775.40   11.40   1
  -6  -2   4  796.90   12.50   1
   6   2  -3  974.20   15.00   1
  -6  -2   3  973.80   14.90   1
   6   2  -2 1066.00   14.50   1
  -6  -2   2 1055.20   17.90   1
   6   2  -1 4139.60   58.60   1
  -6  -2   1 4156.70   65.90   1
   6   2   0   20.30    1.00   1
  -6  -2   0   18.60    1.10   1
   6   2   1   44.80    1.50   1
  -6  -2  -1   48.80    1.80   1
   6   2   2    3.10    0.60   1
  -6  -2  -2    1.80    0.80   1
   6   2   3  194.60    4.00   1
  -6  -2  -3  195.20    3.90   1
   6   2   4   51.40    1.80   1
  -6  -2  -4   53.30    1.90   1
   6   2   5    2.00    1.40   1
  -6  -2  -5    0.50    1.00   1
   6   2   6   69.90    2.50   1
  -6  -2  -6   66.20    2.80   1
   6   2   7 1215.80   28.00   1
  -6  -2  -7 1233.80   24.50   1
   6   2   8   47.40    3.00   1
  -6  -2  -8   43.90    2.90   1
   6   2   9  499.10   17.50   1
  -6  -2  -9  510.50   18.20   1
   6   4 -13    2.40    3.50   1
  -6  -4  13    1.30    2.40   1
   6   4 -12   39.10    5.00   1
  -6  -4  12   49.40    4.10   1
   6   4 -11  125.70    6.70   1
  -6  -4  11  111.80    5.40   1
   6   4 -10  848.10   25.70   1
  -6  -4  10  885.20   17.60   1
   6   4  -9    2.10    1.20   1
  -6  -4   9    4.20    1.20   1
   6   4  -8 1272.00   19.40   1
  -6  -4   8 1225.30   22.50   1
   6   4  -7  144.90    3.40   1
  -6  -4   7  150.80    3.90   1
   6   4  -6  731.60   13.00   1
  -6  -4   6  707.60   15.00   1
   6   4  -5  614.90    9.20   1
  -6  -4   5  614.30   11.20   1
   6   4  -4  791.30   10.80   1
  -6  -4   4  779.30   14.00   1
   6   4  -3   83.70    1.80   1
  -6  -4   3   83.70    2.60   1
   6   4  -2 1197.50   16.30   1
  -6  -4   2 1164.90   22.60   1
   6   4  -1  157.30    2.90   1
  -6  -4   1  154.40    3.70   1
   6   4   0    6.20    0.90   1
  -6  -4   0   10.40    0.90   1
   6   4   1    5.20    0.80   1
  -6  -4  -1    5.40    0.90   1
   6   4   2  469.40    7.90   1
  -6  -4  -2  469.60    8.10   1
   6   4   3  675.60   11.30   1
  -6  -4  -3  658.70   12.10   1
   6   4   4 1747.80   27.90   1
  -6  -4  -4 1742.60   27.40   1
   6   4   5   13.00    1.40   1
  -6  -4  -5   12.00    1.30   1
   6   4   6    3.00    1.90   1
  -6  -4  -6    5.30    1.70   1
   6   4   7   10.30    2.00   1
  -6  -4  -7   14.20    2.20   1
   6   4   8   94.40    4.50   1
  -6  -4  -8   91.10    5.10   1
   6   4   9   50.70    5.60   1
  -6  -4  -9   60.90    5.80   1
   6   6 -12  575.00   23.40   1
  -6  -6  12  513.60   22.50   1
   6   6 -11  648.60   20.70   1
  -6  -6  11  658.40   25.20   1
   6   6 -10   91.90    4.40   1
  -6  -6  10   86.80    5.20   1
   6   6  -9  493.60   16.00   1
  -6  -6   9  511.30   17.00   1
   6   6  -8  176.00    5.00   1
  -6  -6   8  194.60    6.00   1
   6   6  -7   59.10    2.10   1
  -6  -6   7   60.70    4.10   1
   6   6  -6 1029.90   25.60   1
  -6  -6   6  993.90   21.40   1
   6   6  -5    8.10    1.20   1
  -6  -6   5    6.10    0.90   1
   6   6  -4  420.30    7.00   1
  -6  -6   4  431.60    8.40   1
   6   6  -3 1212.00   15.30   1
  -6  -6   3 1189.90   18.70   1
   6   6  -2  419.80    6.20   1
  -6  -6   2  411.80    8.10   1
   6   6  -1 1451.40   19.00   1
  -6  -6   1 1413.90   24.50   1
   6   6   0 1050.90   16.80   1
  -6  -6   0 1068.50   16.70   1
   6   6   1  328.60    6.80   1
  -6  -6  -1  316.40    5.80   1
   6   6   2  215.30    5.70   1
  -6  -6  -2  221.70    5.00   1
   6   6   3   57.60    2.20   1
  -6  -6  -3   57.20    2.00   1
   6   6   4   89.50    2.80   1
  -6  -6  -4   92.80    2.80   1
   6   6   5   13.60    1.60   1
  -6  -6  -5   13.10    1.90   1
   6   6   6   33.20    2.50   1
  -6  -6  -6   35.80    2.60   1
   6   6   7  758.60   20.00   1
  -6  -6  -7  740.70   23.30   1
   6   6   8  404.50   14.50   1
  -6  -6  -8  420.10   14.60   1
   6   8 -11  174.90    8.00   1
  -6  -8  11  198.90   10.90   1
   6   8 -10  186.20    9.40   1
  -6  -8  10  211.00   10.50   1
   6   8  -9    2.20    2.60   1
  -6  -8   9    3.70    3.20   1
   6   8  -8   20.00    2.60   1
  -6  -8   8   11.90    3.20   1
   6   8  -7 1060.50   21.00   1
  -6  -8   7 1060.90   24.10   1
   6   8  -6 2118.70   33.70   1
  -6  -8   6 2045.80   41.90   1
   6   8  -5  751.90   12.80   1
  -6  -8   5  710.30   15.90   1
   6   8  -4   54.50    1.90   1
  -6  -8   4   55.00    2.90   1
   6   8  -3   12.40    1.20   1
  -6  -8   3   12.90    1.30   1
   6   8  -2  160.50    3.50   1
  -6  -8   2  162.00    4.10   1
   6   8  -1  284.70    5.30   1
  -6  -8   1  280.00    5.30   1
   6   8   0    0.90    1.30   1
  -6  -8   0    3.10    1.00   1
   6   8   1  103.40    3.00   1
  -6  -8  -1  107.30    3.00   1
   6   8   2 1011.40   17.40   1
  -6  -8  -2 1009.00   17.40   1
   6   8   3  999.10   17.90   1
  -6  -8  -3 1015.20   17.90   1
   6   8   4  459.10   10.70   1
  -6  -8  -4  438.60   12.10   1
   6   8   5  319.00    7.80   1
  -6  -8  -5  309.70    9.40   1
   6   8   6   70.10    3.60   1
  -6  -8  -6   62.30    4.30   1
   6   8   7   96.40    4.70   1
  -6  -8  -7  103.60    5.90   1
   6  10 -10 1167.50   44.90   1
  -6 -10  10 1225.10   46.90   1
   6  10  -9   87.50    6.40   1
  -6 -10   9   88.60    6.70   1
   6  10  -8  101.30    5.70   1
  -6 -10   8  102.40    6.70   1
   6  10  -7    2.50    2.40   1
  -6 -10   7    2.10    3.20   1
   6  10  -6   85.50    3.60   1
  -6 -10   6   80.40    3.90   1
   6  10  -5   37.70    2.30   1
  -6 -10   5   31.90    2.90   1
   6  10  -4   44.50    2.10   1
  -6 -10   4   49.50    3.10   1
   6  10  -3   22.20    2.10   1
  -6 -10   3   26.00    2.30   1
   6  10  -2 1741.90   28.40   1
  -6 -10   2 1664.30   31.00   1
   6  10  -1  517.80   11.30   1
  -6 -10   1  519.70   10.10   1
   6  10   0  230.50    5.00   1
  -6 -10   0  238.20    5.70   1
   6  10   1    2.00    1.30   1
  -6 -10  -1    2.50    1.30   1
   6  10   2   19.70    2.00   1
  -6 -10  -2   18.50    2.00   1
   6  10   3   12.20    2.10   1
  -6 -10  -3   14.70    2.30   1
   6  10   4  259.20    8.60   1
  -6 -10  -4  280.30   10.00   1
   6  10   5   10.60    3.00   1
  -6 -10  -5    1.90    2.30   1
   6  10   6  193.80    9.10   1
  -6 -10  -6  204.80    9.00   1
   6  12  -8  108.20    6.20   1
  -6 -12   8  100.20    7.70   1
   6  12  -7  411.10   15.00   1
  -6 -12   7  387.60   17.50   1
   6  12  -6    7.40    3.20   1
  -6 -12   6   13.50    3.30   1
   6  12  -5 1006.00   29.20   1
  -6 -12   5  967.80   28.80   1
   6  12  -4   97.70    3.80   1
  -6 -12   4  110.50    5.90   1
   6  12  -3  107.70    3.70   1
  -6 -12   3  100.90    4.30   1
   6  12  -2   13.70    2.00   1
  -6 -12   2    9.60    2.20   1
   6  12  -1  111.50    3.50   1
  -6 -12   1  112.10    4.50   1
   6  12   0   65.80    2.80   1
  -6 -12   0   77.60    3.60   1
   6  12   1   17.60    2.30   1
  -6 -12  -1   15.60    3.30   1
   6  12   2    7.30    2.40   1
  -6 -12  -2    6.40    2.50   1
   6  12   3 1134.60   34.70   1
  -6 -12  -3 1134.50   34.50   1
   6  12   4   55.50    6.60   1
  -6 -12  -4   54.20    5.50   1
   6  14  -5   76.60    5.80   1
  -6 -14   5   63.80    6.60   1
   6  14  -4   81.10    5.40   1
  -6 -14   4   82.80    5.70   1
   6  14  -3   59.40    3.70   1
  -6 -14   3   53.60    4.40   1
   6  14  -2  690.30   17.70   1
  -6 -14   2  664.30   21.90   1
   6  14  -1    4.40    2.80   1
  -6 -14   1   -0.90    3.00   1
   6  14   0  602.90   17.60   1
  -6 -14   0  631.60   34.70   1
   6  14   1   95.40   10.10   1
  -6 -14  -1   88.40    9.10   1
   7   1 -13   39.40    6.50   1
  -7  -1  13   51.80    5.20   1
   7   1 -12  421.60   14.00   1
  -7  -1  12  422.30   14.10   1
   7   1 -11   98.80    3.90   1
  -7  -1  11  104.90    4.00   1
   7   1 -10   14.60    1.60   1
  -7  -1  10   18.00    2.40   1
   7   1  -9 2060.90   37.00   1
  -7  -1   9 2184.60   34.50   1
   7   1  -8   81.10    2.50   1
  -7  -1   8   77.20    3.10   1
   7   1  -7   13.20    1.20   1
  -7  -1   7   11.00    1.10   1
   7   1  -6  506.50    7.30   1
  -7  -1   6  507.20   11.00   1
   7   1  -5  202.40    3.70   1
  -7  -1   5  192.50    4.10   1
   7   1  -4 1567.80   23.60   1
  -7  -1   4 1557.50   26.20   1
   7   1  -3  629.90   11.70   1
  -7  -1   3  667.10   10.90   1
   7   1  -2  682.60   12.40   1
  -7  -1   2  687.10   12.60   1
   7   1  -1 1232.40   16.80   1
  -7  -1   1 1211.30   20.60   1
   7   1   0  341.70    6.90   1
  -7  -1   0  347.30    6.30   1
   7   1   1  501.60   11.40   1
  -7  -1  -1  506.20    9.40   1
   7   1   2  106.00    3.00   1
  -7  -1  -2  112.40    2.80   1
   7   1   3  295.20    6.30   1
  -7  -1  -3  282.60    6.30   1
   7   1   4  665.50   12.00   1
  -7  -1  -4  673.70   13.50   1
   7   1   5  208.90    5.10   1
  -7  -1  -5  210.40    5.10   1
   7   1   6  462.70   11.00   1
  -7  -1  -6  461.40   11.00   1
   7   1   7   24.10    2.80   1
  -7  -1  -7   25.00    2.70   1
   7   1   8    3.30    3.60   1
  -7  -1  -8    2.20    3.60   1
   7   3 -13  767.50   31.30   1
  -7  -3  13  733.00   24.60   1
   7   3 -12  104.70    7.30   1
  -7  -3  12   96.00    5.30   1
   7   3 -11  571.70   19.30   1
  -7  -3  11  578.10   15.40   1
   7   3 -10   26.10    2.10   1
  -7  -3  10   29.90    2.20   1
   7   3  -9  383.00    8.80   1
  -7  -3   9  372.00    8.50   1
   7   3  -8   30.70    1.80   1
  -7  -3   8   34.70    2.10   1
   7   3  -7 1457.00   21.00   1
  -7  -3   7 1441.90   25.60   1
   7   3  -6  231.60    4.30   1
  -7  -3   6  242.80    6.50   1
   7   3  -5  840.00   13.30   1
  -7  -3   5  843.60   15.20   1
   7   3  -4  907.80   13.50   1
  -7  -3   4  909.90   16.40   1
   7   3  -3   19.50    1.20   1
  -7  -3   3   19.60    1.60   1
   7   3  -2  167.10    3.50   1
  -7  -3   2  158.10    4.50   1
   7   3  -1  259.60    4.90   1
  -7  -3   1  265.60    6.60   1
   7   3   0   15.20    1.10   1
  -7  -3   0   19.80    1.20   1
   7   3   1 2302.90   34.40   1
  -7  -3  -1 2259.10   34.10   1
   7   3   2   55.10    1.90   1
  -7  -3  -2   52.00    2.00   1
   7   3   3   33.80    1.60   1
  -7  -3  -3   28.60    1.50   1
   7   3   4  377.90    6.90   1
  -7  -3  -4  386.80    7.70   1
   7   3   5  295.60    6.80   1
  -7  -3  -5  297.40    7.70   1
   7   3   6  464.90   12.70   1
  -7  -3  -6  489.80   13.60   1
   7   3   7   -1.70    2.90   1
  -7  -3  -7    5.60    2.20   1
   7   3   8   70.50    4.80   1
  -7  -3  -8   89.30    7.20   1
   7   5 -12  214.40   11.50   1
  -7  -5  12  224.50   11.40   1
   7   5 -11  551.30   18.30   1
  -7  -5  11  546.00   22.30   1
   7   5 -10  125.90    5.50   1
  -7  -5  10  137.50    7.10   1
   7   5  -9    6.10    2.00   1
  -7  -5   9   12.70    2.30   1
   7   5  -8  909.50   16.00   1
  -7  -5   8  891.40   19.80   1
   7   5  -7 1152.80   19.10   1
  -7  -5   7 1073.40   23.40   1
   7   5  -6  231.70    4.90   1
  -7  -5   6  223.40    6.30   1
   7   5  -5    0.50    1.60   1
  -7  -5   5    1.70    2.30   1
   7   5  -4 1262.70   22.10   1
  -7  -5   4 1249.40   25.30   1
   7   5  -3  545.00    9.40   1
  -7  -5   3  557.00   10.70   1
   7   5  -2  227.90    4.80   1
  -7  -5   2  226.50    5.20   1
   7   5  -1  272.50    7.00   1
  -7  -5   1  282.40    6.10   1
   7   5   0  719.70   13.10   1
  -7  -5   0  733.10   13.70   1
   7   5   1  404.60    7.50   1
  -7  -5  -1  401.30    8.20   1
   7   5   2   95.40    3.00   1
  -7  -5  -2   91.00    2.70   1
   7   5   3  208.60    4.90   1
  -7  -5  -3  211.30    4.80   1
   7   5   4  490.70   11.10   1
  -7  -5  -4  477.20    9.80   1
   7   5   5   61.10    3.20   1
  -7  -5  -5   68.80    3.10   1
   7   5   6  879.60   26.60   1
  -7  -5  -6  916.80   27.30   1
   7   5   7   74.20    4.90   1
  -7  -5  -7   65.10    4.40   1
   7   7 -11  110.90    6.00   1
  -7  -7  11  114.70    7.40   1
   7   7 -10  309.20   11.20   1
  -7  -7  10  300.80   13.80   1
   7   7  -9 1577.60   43.00   1
  -7  -7   9 1563.00   43.00   1
   7   7  -8  160.10    5.10   1
  -7  -7   8  164.20    6.20   1
   7   7  -7   29.10    2.20   1
  -7  -7   7   22.10    2.40   1
   7   7  -6  445.30    9.70   1
  -7  -7   6  431.10   11.00   1
   7   7  -5  152.10    3.90   1
  -7  -7   5  150.40    5.20   1
   7   7  -4   22.20    1.80   1
  -7  -7   4   19.70    1.70   1
   7   7  -3 1019.90   18.70   1
  -7  -7   3 1013.60   18.90   1
   7   7  -2  422.10    9.10   1
  -7  -7   2  426.70    9.10   1
   7   7  -1  708.10   12.30   1
  -7  -7   1  723.80   12.80   1
   7   7   0  102.20    3.00   1
  -7  -7   0  108.80    3.00   1
   7   7   1  539.90   10.10   1
  -7  -7  -1  537.30   11.30   1
   7   7   2  308.60    7.60   1
  -7  -7  -2  316.50    6.60   1
   7   7   3   39.30    2.30   1
  -7  -7  -3   42.70    2.10   1
   7   7   4   35.80    3.10   1
  -7  -7  -4   29.90    2.20   1
   7   7   5  532.40   17.20   1
  -7  -7  -5  557.10   15.50   1
   7   7   6   25.10    3.00   1
  -7  -7  -6   27.40    3.90   1
   7   7   7   53.30    4.70   1
  -7  -7  -7   57.00    5.70   1
   7   9 -10   90.00    6.70   1
  -7  -9  10   85.90    6.90   1
   7   9  -9  112.20    7.30   1
  -7  -9   9  119.40    7.70   1
   7   9  -8  153.20    6.30   1
  -7  -9   8  149.30    7.90   1
   7   9  -7   70.50    3.40   1
  -7  -9   7   67.80    3.80   1
   7   9  -6   22.50    2.10   1
  -7  -9   6   23.60    2.50   1
   7   9  -5  994.40   18.20   1
  -7  -9   5  966.70   22.80   1
   7   9  -4 1346.30   23.40   1
  -7  -9   4 1310.10   29.00   1
   7   9  -3   66.00    2.80   1
  -7  -9   3   63.30    3.40   1
   7   9  -2    8.10    1.60   1
  -7  -9   2   12.00    1.50   1
   7   9  -1  216.70    5.30   1
  -7  -9   1  201.10    5.10   1
   7   9   0  306.20    6.90   1
  -7  -9   0  295.60    8.50   1
   7   9   1   23.60    2.00   1
  -7  -9  -1   26.30    2.00   1
   7   9   2  284.50    6.90   1
  -7  -9  -2  289.70    7.40   1
   7   9   3  184.00    6.10   1
  -7  -9  -3  187.40    7.00   1
   7   9   4  241.60    8.50   1
  -7  -9  -4  237.60    9.40   1
   7   9   5  118.60    6.40   1
  -7  -9  -5  129.60    6.60   1
   7   9   6  220.80   12.30   1
  -7  -9  -6  190.00   10.60   1
   7  11  -8  454.60   20.00   1
  -7 -11   8  432.70   19.90   1
   7  11  -7  207.40    8.60   1
  -7 -11   7  185.70   10.10   1
   7  11  -6   40.60    3.70   1
  -7 -11   6   35.60    4.40   1
   7  11  -5  467.40   13.60   1
  -7 -11   5  475.60   15.90   1
   7  11  -4   12.40    1.80   1
  -7 -11   4    8.30    2.20   1
   7  11  -3   82.60    3.10   1
  -7 -11   3   74.80    3.70   1
   7  11  -2   30.00    2.10   1
  -7 -11   2   26.80    2.40   1
   7  11  -1    8.10    1.70   1
  -7 -11   1   11.30    2.20   1
   7  11   0  759.90   15.60   1
  -7 -11   0  771.00   17.70   1
   7  11   1  659.70   18.20   1
  -7 -11  -1  650.00   19.90   1
   7  11   2  301.50    9.90   1
  -7 -11  -2  304.60   11.00   1
   7  11   3   24.10    2.90   1
  -7 -11  -3   17.50    3.10   1
   7  11   4   45.60    4.50   1
  -7 -11  -4   40.90    3.90   1
   7  13  -5  351.00   13.80   1
  -7 -13   5  387.90   17.70   1
   7  13  -4   39.80    3.70   1
  -7 -13   4   42.80    3.50   1
   7  13  -3  812.90   20.20   1
  -7 -13   3  822.50   25.40   1
   7  13  -2    4.90    2.70   1
  -7 -13   2    7.10    2.50   1
   7  13  -1    5.50    2.50   1
  -7 -13   1   11.00    2.80   1
   7  13   0  272.50    9.60   1
  -7 -13   0  254.30   13.40   1
   7  13   1   12.10    3.60   1
  -7 -13  -1   21.00    4.10   1
   8   0 -12 1780.90   50.70   1
   8   0 -11   -1.80    1.80   1
   8   0 -10  258.20    7.20   1
   8   0  -9    2.00    1.30   1
   8   0  -8    9.10    1.40   1
   8   0  -7    1.90    1.00   1
   8   0  -6  875.90   13.30   1
   8   0  -5    2.10    1.40   1
   8   0  -4  611.80   11.90   1
   8   0  -3    0.70    1.20   1
   8   0  -2 1192.30   21.20   1
   8   0  -1    1.80    0.70   1
   8   0   0  574.90   11.50   1
   8   0   1    2.40    1.50   1
   8   0   2  492.10   11.60   1
   8   0   3    1.90    1.60   1
   8   0   4  168.60    5.10   1
   8   0   5    5.10    1.80   1
   8   0   6  479.60   13.90   1
   8   0   7    2.40    3.60   1
   8   2 -12   38.90    6.90   1
  -8  -2  12   31.10    4.10   1
   8   2 -11  166.00    6.10   1
  -8  -2  11  154.10    6.90   1
   8   2 -10  567.30   12.00   1
  -8  -2  10  583.30   15.50   1
   8   2  -9  107.20    3.40   1
  -8  -2   9  117.00    3.90   1
   8   2  -8  401.30    9.00   1
  -8  -2   8  435.10    8.50   1
   8   2  -7 1947.10   38.80   1
  -8  -2   7 1986.80   35.40   1
   8   2  -6   89.80    2.50   1
  -8  -2   6   86.80    3.60   1
   8   2  -5  926.70   15.40   1
  -8  -2   5  939.30   17.30   1
   8   2  -4   89.00    3.00   1
  -8  -2   4   88.60    3.50   1
   8   2  -3   77.80    2.80   1
  -8  -2   3   76.20    3.20   1
   8   2  -2  149.40    4.10   1
  -8  -2   2  150.70    5.60   1
   8   2  -1   87.90    3.20   1
  -8  -2   1   85.40    2.70   1
   8   2   0    3.20    1.40   1
  -8  -2   0    4.40    1.10   1
   8   2   1  546.80   11.20   1
  -8  -2  -1  544.30    9.70   1
   8   2   2   43.80    2.30   1
  -8  -2  -2   41.60    2.30   1
   8   2   3 1866.80   39.60   1
  -8  -2  -3 1875.70   34.00   1
   8   2   4  104.30    3.80   1
  -8  -2  -4  102.20    3.80   1
   8   2   5   91.60    3.80   1
  -8  -2  -5   95.70    3.90   1
   8   2   6   23.80    3.30   1
  -8  -2  -6   26.20    3.30   1
   8   2   7   63.40    4.80   1
  -8  -2  -7   51.90    4.40   1
   8   4 -12  118.90   11.00   1
  -8  -4  12  105.30    7.50   1
   8   4 -11  343.60   12.00   1
  -8  -4  11  382.30   16.40   1
   8   4 -10 1901.90   36.80   1
  -8  -4  10 1916.90   42.90   1
   8   4  -9    7.20    1.70   1
  -8  -4   9   12.50    2.30   1
   8   4  -8  213.10    5.30   1
  -8  -4   8  202.90    6.80   1
   8   4  -7   59.50    2.70   1
  -8  -4   7   64.40    3.50   1
   8   4  -6   49.40    1.80   1
  -8  -4   6   52.10    3.00   1
   8   4  -5    7.70    1.40   1
  -8  -4   5    5.10    1.60   1
   8   4  -4  123.70    3.40   1
  -8  -4   4  124.00    4.30   1
   8   4  -3  320.30    6.20   1
  -8  -4   3  328.80    8.20   1
   8   4  -2 3547.10   59.00   1
  -8  -4   2 3578.80   68.40   1
   8   4  -1  281.20    6.60   1
  -8  -4   1  295.00    6.00   1
   8   4   0  318.60    8.20   1
  -8  -4   0  329.70    7.40   1
   8   4   1    5.40    1.40   1
  -8  -4  -1    4.50    1.10   1
   8   4   2   11.80    1.70   1
  -8  -4  -2    6.00    1.10   1
   8   4   3  119.90    4.30   1
  -8  -4  -3  118.30    4.00   1
   8   4   4    1.10    1.60   1
  -8  -4  -4   -1.90    1.80   1
   8   4   5    3.30    2.30   1
  -8  -4  -5   10.80    2.40   1
   8   4   6  637.10   20.50   1
  -8  -4  -6  646.50   21.00   1
   8   4   7  197.30    9.10   1
  -8  -4  -7  194.60    8.90   1
   8   6 -11   42.10    4.10   1
  -8  -6  11   43.00    5.50   1
   8   6 -10  108.70    5.40   1
  -8  -6  10  105.60    7.20   1
   8   6  -9  105.00    4.20   1
  -8  -6   9  113.70    5.40   1
   8   6  -8   13.40    2.00   1
  -8  -6   8   11.40    2.50   1
   8   6  -7  617.60   13.50   1
  -8  -6   7  579.90   15.20   1
   8   6  -6 1753.10   29.20   1
  -8  -6   6 1709.50   36.40   1
   8   6  -5  890.50   15.70   1
  -8  -6   5  890.20   17.70   1
   8   6  -4   61.30    2.40   1
  -8  -6   4   53.80    2.20   1
   8   6  -3  170.20    4.30   1
  -8  -6   3  182.90    5.00   1
   8   6  -2   43.20    2.00   1
  -8  -6   2   39.80    2.10   1
   8   6  -1    2.30    1.30   1
  -8  -6   1    4.50    1.40   1
   8   6   0   32.40    2.30   1
  -8  -6   0   34.60    1.80   1
   8   6   1  239.80    6.30   1
  -8  -6  -1  248.50    5.50   1
   8   6   2  620.60   13.40   1
  -8  -6  -2  626.20   12.00   1
   8   6   3  825.80   18.00   1
  -8  -6  -3  826.70   16.00   1
   8   6   4  168.50    6.80   1
  -8  -6  -4  159.30    6.30   1
   8   6   5   33.40    3.80   1
  -8  -6  -5   27.00    3.30   1
   8   6   6    7.00    3.00   1
  -8  -6  -6    0.10    3.30   1
   8   8 -10   23.90    3.70   1
  -8  -8  10   22.50    4.20   1
   8   8  -9   88.80    6.20   1
  -8  -8   9   69.70    6.10   1
   8   8  -8   59.40    5.50   1
  -8  -8   8   62.50    4.20   1
   8   8  -7  440.30   11.00   1
  -8  -8   7  437.10   12.90   1
   8   8  -6  156.10    4.70   1
  -8  -8   6  151.90    6.00   1
   8   8  -5   19.20    2.00   1
  -8  -8   5   21.00    2.80   1
   8   8  -4  221.40    5.50   1
  -8  -8   4  221.20    7.40   1
   8   8  -3  356.90    7.70   1
  -8  -8   3  353.20    8.70   1
   8   8  -2  232.20    5.70   1
  -8  -8   2  244.50    6.50   1
   8   8  -1  850.70   16.00   1
  -8  -8   1  830.40   20.20   1
   8   8   0  140.80    4.20   1
  -8  -8   0  140.00    4.70   1
   8   8   1   78.40    3.30   1
  -8  -8  -1   85.50    3.50   1
   8   8   2   88.00    3.60   1
  -8  -8  -2   95.10    4.00   1
   8   8   3   76.50    4.10   1
  -8  -8  -3   88.80    4.80   1
   8   8   4    4.80    2.50   1
  -8  -8  -4    3.10    3.20   1
   8   8   5   -2.90    2.50   1
  -8  -8  -5    1.50    3.00   1
   8  10  -9   41.70    9.90   1
  -8 -10   9   30.50    7.50   1
   8  10  -8  388.10   18.30   1
  -8 -10   8  442.20   19.90   1
   8  10  -7  322.80   12.20   1
  -8 -10   7  330.50   15.00   1
   8  10  -6  486.80   14.60   1
  -8 -10   6  473.80   16.20   1
   8  10  -5   46.90    2.90   1
  -8 -10   5   49.10    3.80   1
   8  10  -4   65.80    3.20   1
  -8 -10   4   65.10    4.30   1
   8  10  -3   82.20    3.50   1
  -8 -10   3   86.70    4.00   1
   8  10  -2  401.30    9.60   1
  -8 -10   2  397.60   10.70   1
   8  10  -1    4.60    2.00   1
  -8 -10   1    3.80    2.00   1
   8  10   0   15.50    2.40   1
  -8 -10   0   12.70    2.10   1
   8  10   1  178.70    6.70   1
  -8 -10  -1  173.80    6.40   1
   8  10   2  614.00   17.90   1
  -8 -10  -2  603.90   20.30   1
   8  10   3  228.90    8.70   1
  -8 -10  -3  223.40    9.80   1
   8  12  -6  171.80    8.60   1
  -8 -12   6  186.80   10.90   1
   8  12  -5    6.10    2.70   1
  -8 -12   5    2.00    2.70   1
   8  12  -4   30.10    3.20   1
  -8 -12   4   26.40    3.20   1
   8  12  -3  729.60   18.30   1
  -8 -12   3  752.20   20.40   1
   8  12  -2  159.20    5.80   1
  -8 -12   2  154.90    6.50   1
   8  12  -1  636.00   16.30   1
  -8 -12   1  638.40   17.90   1
   8  12   0   39.40    3.70   1
  -8 -12   0   37.30    4.80   1
   9   1 -12   17.00    5.10   1
  -9  -1  12   12.90    3.70   1
   9   1 -11  308.10   11.70   1
  -9  -1  11  308.40   11.40   1
   9   1 -10  664.50   14.80   1
  -9  -1  10  658.70   17.40   1
   9   1  -9  519.20   11.80   1
  -9  -1   9  512.50   12.40   1
   9   1  -8  464.10   11.00   1
  -9  -1   8  452.20   12.50   1
   9   1  -7  347.00    9.60   1
  -9  -1   7  366.60    8.80   1
   9   1  -6   42.80    2.50   1
  -9  -1   6   49.70    2.60   1
   9   1  -5  350.80    7.00   1
  -9  -1   5  350.30    8.00   1
   9   1  -4  330.00    7.60   1
  -9  -1   4  355.20    8.00   1
   9   1  -3  639.90   13.20   1
  -9  -1   3  667.90   13.60   1
   9   1  -2  151.20    4.40   1
  -9  -1   2  160.60    3.90   1
   9   1  -1   41.10    2.50   1
  -9  -1   1   39.60    2.60   1
   9   1   0  571.80   17.40   1
  -9  -1   0  587.80   13.90   1
   9   1   1   17.90    2.10   1
  -9  -1  -1   15.30    2.20   1
   9   1   2  318.70    9.10   1
  -9  -1  -2  309.70    7.90   1
   9   1   3  163.30    5.20   1
  -9  -1  -3  170.20    5.30   1
   9   1   4  113.90    4.80   1
  -9  -1  -4  111.20    4.70   1
   9   1   5  376.50   11.70   1
  -9  -1  -5  400.10   12.00   1
   9   1   6   30.20    3.90   1
  -9  -1  -6   34.40    5.30   1
   9   3 -12   28.40    6.30   1
  -9  -3  12   26.50    4.40   1
   9   3 -11  147.60   12.00   1
  -9  -3  11  154.50    9.20   1
   9   3 -10  477.60   13.30   1
  -9  -3  10  516.10   16.50   1
   9   3  -9   26.50    2.60   1
  -9  -3   9   30.80    4.00   1
   9   3  -8  185.90    5.70   1
  -9  -3   8  191.70    6.70   1
   9   3  -7   53.20    3.00   1
  -9  -3   7   58.40    3.50   1
   9   3  -6  261.60    6.00   1
  -9  -3   6  271.50   13.00   1
   9   3  -5 1986.70   31.40   1
  -9  -3   5 1962.80   40.40   1
   9   3  -4    6.70    1.30   1
  -9  -3   4   10.20    1.90   1
   9   3  -3  193.90    5.40   1
  -9  -3   3  203.30    6.40   1
   9   3  -2  409.60    9.20   1
  -9  -3   2  404.10    9.20   1
   9   3  -1   16.90    1.90   1
  -9  -3   1   22.40    1.80   1
   9   3   0  536.10   11.70   1
  -9  -3   0  542.90   11.80   1
   9   3   1  299.20    7.60   1
  -9  -3  -1  293.00    7.70   1
   9   3   2  267.20    7.30   1
  -9  -3  -2  264.30    7.40   1
   9   3   3  244.00    6.90   1
  -9  -3  -3  239.90    6.80   1
   9   3   4    0.40    1.90   1
  -9  -3  -4    1.50    1.90   1
   9   3   5  646.30   21.50   1
  -9  -3  -5  620.10   20.90   1
   9   5 -11   15.30    3.60   1
  -9  -5  11   10.20    3.60   1
   9   5 -10  432.40   18.50   1
  -9  -5  10  459.90   19.60   1
   9   5  -9  416.10   13.80   1
  -9  -5   9  406.60   14.10   1
   9   5  -8  738.10   16.20   1
  -9  -5   8  710.50   19.50   1
   9   5  -7    3.10    2.30   1
  -9  -5   7    2.40    2.90   1
   9   5  -6   64.60    2.80   1
  -9  -5   6   61.20    3.60   1
   9   5  -5  568.20   11.00   1
  -9  -5   5  540.80   17.40   1
   9   5  -4  326.70    7.20   1
  -9  -5   4  337.00    8.10   1
   9   5  -3   77.80    2.90   1
  -9  -5   3   86.00    3.90   1
   9   5  -2   63.00    2.70   1
  -9  -5   2   67.40    2.70   1
   9   5  -1  176.40    5.40   1
  -9  -5   1  173.60    4.50   1
   9   5   0 1257.20   24.90   1
  -9  -5   0 1274.50   22.60   1
   9   5   1    7.60    2.00   1
  -9  -5  -1   10.40    2.00   1
   9   5   2  126.60    4.70   1
  -9  -5  -2  121.40    4.50   1
   9   5   3  281.70    8.80   1
  -9  -5  -3  266.70    8.60   1
   9   5   4  196.90    7.60   1
  -9  -5  -4  193.10    8.20   1
   9   5   5   47.10    4.20   1
  -9  -5  -5   49.30    4.50   1
   9   7 -10   36.40    4.70   1
  -9  -7  10   35.60    4.90   1
   9   7  -9  703.00   28.50   1
  -9  -7   9  711.40   29.20   1
   9   7  -8   38.50    3.70   1
  -9  -7   8   40.10    3.90   1
   9   7  -7   48.90    3.60   1
  -9  -7   7   49.30    3.70   1
   9   7  -6   57.00    2.90   1
  -9  -7   6   53.60    3.60   1
   9   7  -5  338.70    8.10   1
  -9  -7   5  326.20   10.00   1
   9   7  -4  162.70    5.40   1
  -9  -7   4  164.10    6.10   1
   9   7  -3  581.20   12.20   1
  -9  -7   3  587.90   15.00   1
   9   7  -2   55.40    2.70   1
  -9  -7   2   53.20    2.40   1
   9   7  -1  424.70    9.50   1
  -9  -7   1  438.80   10.70   1
   9   7   0   19.80    2.30   1
  -9  -7   0   26.80    2.60   1
   9   7   1  253.80    7.00   1
  -9  -7  -1  264.00    7.80   1
   9   7   2   50.90    3.40   1
  -9  -7  -2   56.90    3.90   1
   9   7   3   92.00    5.70   1
  -9  -7  -3   87.10    6.20   1
   9   7   4   61.70    6.00   1
  -9  -7  -4   80.10    6.60   1
   9   9  -8   81.90    6.90   1
  -9  -9   8   94.60    7.30   1
   9   9  -7  334.60   12.70   1
  -9  -9   7  364.00   13.60   1
   9   9  -6   63.40    3.50   1
  -9  -9   6   66.60    4.70   1
   9   9  -5    9.00    2.10   1
  -9  -9   5    2.40    2.50   1
   9   9  -4  533.20   13.60   1
  -9  -9   4  551.40   18.00   1
   9   9  -3   53.50    3.10   1
  -9  -9   3   53.40    3.60   1
   9   9  -2   15.50    2.30   1
  -9  -9   2   15.00    2.50   1
   9   9  -1  237.80    7.30   1
  -9  -9   1  235.60    8.10   1
   9   9   0  406.20   10.80   1
  -9  -9   0  417.90   12.00   1
   9   9   1  334.30   10.80   1
  -9  -9  -1  350.90   12.70   1
   9   9   2   61.90    4.20   1
  -9  -9  -2   55.50    5.10   1
   9  11  -5  430.00   12.10   1
  -9 -11   5  435.20   15.60   1
   9  11  -4  350.30   10.20   1
  -9 -11   4  383.50   12.30   1
   9  11  -3   14.20    2.60   1
  -9 -11   3   13.40    2.60   1
   9  11  -2  281.50    8.80   1
  -9 -11   2  293.70   10.20   1
   9  11  -1   45.60    3.60   1
  -9 -11   1   50.70    3.90   1
  10   0 -11   -0.20    2.60   1
  10   0 -10  154.50    6.40   1
  10   0  -9    4.60    2.00   1
  10   0  -8  383.60   10.00   1
  10   0  -7   -1.30    2.10   1
  10   0  -6 2139.80   40.40   1
  10   0  -5    0.90    1.80   1
  10   0  -4  119.60    4.50   1
  10   0  -3    1.20    1.70   1
  10   0  -2   10.80    2.20   1
  10   0  -1    5.00    1.90   1
  10   0   0  137.60    5.50   1
  10   0   1    0.00    1.90   1
  10   0   2 1479.70   36.50   1
  10   0   3    0.40    2.10   1
  10   0   4  375.10   11.70   1
  10   2 -11  670.40   27.60   1
 -10  -2  11  709.10   24.10   1
  10   2 -10  487.90   14.20   1
 -10  -2  10  482.40   15.90   1
  10   2  -9   27.30    2.90   1
 -10  -2   9   31.50    3.50   1
  10   2  -8   86.70    4.30   1
 -10  -2   8   86.00    4.60   1
  10   2  -7  218.60    6.60   1
 -10  -2   7  225.50    7.70   1
  10   2  -6   50.10    3.10   1
 -10  -2   6   57.40    3.60   1
  10   2  -5   61.90    2.70   1
 -10  -2   5   64.40    3.70   1
  10   2  -4   20.30    2.20   1
 -10  -2   4   24.90    2.60   1
  10   2  -3 1256.20   29.10   1
 -10  -2   3 1273.10   29.10   1
  10   2  -2  200.80    6.10   1
 -10  -2   2  203.80    6.90   1
  10   2  -1  719.80   16.20   1
 -10  -2   1  720.40   18.00   1
  10   2   0    0.60    1.80   1
 -10  -2   0    5.80    2.10   1
  10   2   1   28.30    2.70   1
 -10  -2  -1   35.30    3.30   1
  10   2   2    1.30    2.50   1
 -10  -2  -2    2.70    2.00   1
  10   2   3   40.20    3.20   1
 -10  -2  -3   42.00    3.30   1
  10   2   4   11.00    2.50   1
 -10  -2  -4   10.10    2.40   1
  10   4 -10   26.70    3.60   1
 -10  -4  10   20.80    3.50   1
  10   4  -9   21.40    3.10   1
 -10  -4   9   15.50    3.00   1
  10   4  -8 1106.00   27.30   1
 -10  -4   8 1137.10   32.80   1
  10   4  -7  193.30    6.30   1
 -10  -4   7  196.10    7.50   1
  10   4  -6  438.90   10.90   1
 -10  -4   6  430.40   12.70   1
  10   4  -5   48.10    2.60   1
 -10  -4   5   54.50    3.70   1
  10   4  -4   15.70    2.10   1
 -10  -4   4   12.50    2.70   1
  10   4  -3  155.70    4.60   1
 -10  -4   3  161.80    5.20   1
  10   4  -2  222.20    6.70   1
 -10  -4   2  231.40    6.70   1
  10   4  -1    4.50    1.90   1
 -10  -4   1    2.60    1.80   1
  10   4   0   66.50    3.80   1
 -10  -4   0   71.10    3.90   1
  10   4   1   66.80    3.80   1
 -10  -4  -1   59.40    3.60   1
  10   4   2  801.70   21.00   1
 -10  -4  -2  761.10   20.90   1
  10   4   3  136.60    8.20   1
 -10  -4  -3  128.00    5.80   1
  10   4   4   99.40    6.00   1
 -10  -4  -4   88.60    5.70   1
  10   6  -9   -1.20    2.70   1
 -10  -6   9    2.30    2.80   1
  10   6  -8   20.70    3.40   1
 -10  -6   8   18.60    3.40   1
  10   6  -7    4.20    2.20   1
 -10  -6   7    4.20    2.50   1
  10   6  -6  266.30    8.90   1
 -10  -6   6  266.40   10.20   1
  10   6  -5   15.60    2.10   1
 -10  -6   5   15.10    2.60   1
  10   6  -4  137.30    4.60   1
 -10  -6   4  134.00    5.60   1
  10   6  -3  706.20   14.80   1
 -10  -6   3  712.90   14.90   1
  10   6  -2  330.90    8.20   1
 -10  -6   2  340.50    8.20   1
  10   6  -1  436.10   11.20   1
 -10  -6   1  433.40   13.00   1
  10   6   0    9.30    2.10   1
 -10  -6   0   11.60    2.40   1
  10   6   1    4.50    2.50   1
 -10  -6  -1    3.20    2.80   1
  10   6   2  120.80    6.60   1
 -10  -6  -2  112.30    7.50   1
  10   6   3   18.50    3.80   1
 -10  -6  -3   11.90    4.20   1
  10   8  -8   80.70    6.70   1
 -10  -8   8   78.40    5.40   1
  10   8  -7  781.80   24.80   1
 -10  -8   7  755.40   24.80   1
  10   8  -6  552.20   16.40   1
 -10  -8   6  545.10   18.80   1
  10   8  -5   66.50    3.40   1
 -10  -8   5   59.40    4.60   1
  10   8  -4    6.50    2.30   1
 -10  -8   4    9.40    3.30   1
  10   8  -3   39.20    2.90   1
 -10  -8   3   38.50    3.20   1
  10   8  -2   22.30    2.50   1
 -10  -8   2   17.70    2.70   1
  10   8  -1   56.20    3.60   1
 -10  -8   1   73.50    6.20   1
  10   8   0   54.60    3.40   1
 -10  -8   0   52.90    4.20   1
  10   8   1  362.90   12.20   1
 -10  -8  -1  389.80   17.10   1
  10  10  -4  117.40    6.90   1
 -10 -10   4  119.70    6.90   1
  10  10  -3   98.00    5.40   1
 -10 -10   3   94.00    5.40   1
  11   1 -10   50.30    4.00   1
 -11  -1  10   67.20    5.50   1
  11   1  -9  801.10   22.10   1
 -11  -1   9  828.50   26.50   1
  11   1  -8   11.20    2.70   1
 -11  -1   8   13.60    2.80   1
  11   1  -7    7.80    2.60   1
 -11  -1   7    5.50    2.60   1
  11   1  -6  496.60   14.20   1
 -11  -1   6  519.70   14.70   1
  11   1  -5   -0.10    2.40   1
 -11  -1   5    1.80    2.30   1
  11   1  -4  627.00   15.00   1
 -11  -1   4  614.50   17.00   1
  11   1  -3   19.80    3.30   1
 -11  -1   3   23.90    3.60   1
  11   1  -2    4.90    2.20   1
 -11  -1   2   -0.60    2.30   1
  11   1  -1  619.20   17.20   1
 -11  -1   1  598.90   19.30   1
  11   1   0   85.90    5.00   1
 -11  -1   0   88.10    4.50   1
  11   1   1  234.90   12.10   1
 -11  -1  -1  245.60    8.80   1
  11   1   2  103.00    5.30   1
 -11  -1  -2  104.00    5.30   1
  11   3  -9  144.60    6.30   1
 -11  -3   9  149.10    9.20   1
  11   3  -8   27.40    3.20   1
 -11  -3   8   22.90    3.80   1
  11   3  -7   58.60    3.90   1
 -11  -3   7   61.80    4.30   1
  11   3  -6  232.70    8.10   1
 -11  -3   6  230.50    9.50   1
  11   3  -5  569.40   16.30   1
 -11  -3   5  565.00   18.60   1
  11   3  -4  119.20    4.50   1
 -11  -3   4  123.40    6.10   1
  11   3  -3    6.00    2.40   1
 -11  -3   3    0.80    2.50   1
  11   3  -2   31.50    3.30   1
 -11  -3   2   36.00    3.50   1
  11   3  -1  453.50   13.30   1
 -11  -3   1  474.40   13.90   1
  11   3   0   23.60    2.90   1
 -11  -3   0   22.40    2.70   1
  11   3   1  243.40    8.60   1
 -11  -3  -1  241.00    8.50   1
  11   3   2   30.50    3.50   1
 -11  -3  -2   30.40    3.20   1
  11   5  -8   45.20    4.30   1
 -11  -5   8   42.20    4.50   1
  11   5  -7  114.30    5.60   1
 -11  -5   7   95.20    7.80   1
  11   5  -6  502.10   15.50   1
 -11  -5   6  531.10   18.30   1
  11   5  -5   -1.70    2.50   1
 -11  -5   5    2.00    2.80   1
  11   5  -4  318.20    9.30   1
 -11  -5   4  332.70   10.70   1
  11   5  -3  105.50    4.50   1
 -11  -5   3  115.40    5.30   1
  11   5  -2    7.30    2.20   1
 -11  -5   2    7.60    2.30   1
  11   5  -1   42.20    3.20   1
 -11  -5   1   41.80    4.50   1
  11   5   0  397.80   12.70   1
 -11  -5   0  359.00   12.00   1
  11   5   1  111.20    5.70   1
 -11  -5  -1  106.00    5.50   1
  11   7  -7   51.80    8.60   1
  11   7  -6  218.80    8.50   1
 -11  -7   6  223.70    9.90   1
  11   7  -5  124.80    6.00   1
 -11  -7   5  125.10    6.80   1
  11   7  -4   25.30    2.80   1
 -11  -7   4   26.50    3.70   1
  11   7  -3    8.60    2.30   1
 -11  -7   3   18.40    3.90   1
  11   7  -2  241.10    7.70   1
 -11  -7   2  224.30   11.50   1
  11   7  -1  477.10   13.30   1
 -11  -7   1  487.00   21.20   1
  12   0  -8    6.00    2.80   1
  12   0  -7    3.30    2.70   1
  12   0  -6    5.70    2.60   1
  12   0  -5    0.30    2.30   1
  12   0  -4  659.10   18.50   1
  12   0  -3    0.80    2.60   1
  12   0  -2  960.50   29.30   1
  12   0  -1    2.40    2.70   1
  12   0   0    4.20    2.70   1
  12   2  -7  842.10   23.70   1
 -12  -2   7  869.80   28.40   1
  12   2  -6   -1.10    2.60   1
 -12  -2   6   -2.90    2.90   1
  12   2  -5   23.30    3.50   1
 -12  -2   5   31.90    4.90   1
  12   2  -4    4.50    2.70   1
 -12  -2   4    7.40    3.30   1
  12   2  -3   90.20    5.00   1
 -12  -2   3   88.00    5.50   1
  12   2  -2   59.60    4.50   1
 -12  -2   2   59.10    4.20   1
  12   2  -1    0.70    2.70   1
 -12  -2   1    4.40    2.50   1
  12   4  -6   25.50    3.30   1
 -12  -4   6   22.90    4.50   1
  12   4  -5    0.80    2.60   1
 -12  -4   5    0.60    2.90   1
  12   4  -4  258.80    9.60   1
 -12  -4   4  297.50   11.60   1
  12   4  -3  225.60    8.70   1
 -12  -4   3  215.00    8.30   1
  12   4  -2  565.50   17.10   1
 -12  -4   2  567.30   19.90   1
   0   0   0
;
_shelx_hkl_checksum              42946
_shelx_res_file
;
TITL aggahas in C2/c = AgGa(HAsO4)2  (ex-aggaas)
    shelx.res
    created by SHELXL-2016/6 at 15:05:14 on 22-Mar-2017
REM s.a. aggadias
REM KSc(HAsO4)2-type (r7.doc); model taken from there!
REM v. large disphenoidic glassy xls
REM + small platy, ps.orthorhombic NaAlAs2O7-type AgGaAs2O7
CELL 0.71073   7.826  10.216   8.694  90.00 107.77  90.00
ZERR    4.00   0.002   0.002   0.002   0.00   0.03   0.00
LATT  7
SYMM -X, Y, .5-Z
SFAC O GA AS AG H
UNIT 32 4 8 4 8
conn 8 $Ag 3.2
acta
temp 20
htab
bond $H
rem wie bei r7/kscas
eqiv $1 x, -y+1, z+1/2
htab O4 O2_$1
size 0.10 0.10 0.18
L.S. 8
BOND
FMAP 2
PLAN 20
WGHT    0.015000    0.940000
EXTI    0.013322
FVAR       0.30110   0.74990   0.12303
MOLE   1
rem ideal?: Ag 0.5 Ag2 0.25 (different site symm.ies!!!)
AG1   4    0.250000    0.250000    0.000000    20.50000    0.05073    0.03680 =
         0.02712   -0.01255    0.03273   -0.01733
AG2   4    0.283862    0.235145    0.018515    31.00000    0.04945    0.02494 =
         0.03457   -0.00639    0.03393   -0.01492
GA    2    0.000000    0.136705    0.250000    10.50000    0.00555    0.00478 =
         0.00482    0.00000    0.00182    0.00000
AS    3    0.275675    0.395558    0.357330    11.00000    0.00564    0.00525 =
         0.00364   -0.00003    0.00153   -0.00073
O1    1    0.189419    0.261903    0.249432    11.00000    0.01141    0.00931 =
         0.01012   -0.00446    0.00529   -0.00568
O2    1    0.320447    0.497383    0.224050    11.00000    0.01220    0.01096 =
         0.00677    0.00363    0.00032   -0.00597
O3    1    0.454909    0.356293    0.513334    11.00000    0.00847    0.01348 =
         0.00531    0.00112    0.00037    0.00323
rem O4 = OH
O4    1    0.116081    0.468958    0.425344    11.00000    0.01157    0.02990 =
         0.00943   -0.00465    0.00351    0.00805
H     5    0.147662    0.487172    0.518945    11.00000    0.03335
HKLF 4
REM  aggahas in C2/c = AgGa(HAsO4)2  (ex-aggaas)
REM R1 =  0.0147 for    1402 Fo > 4sig(Fo)  and  0.0160 for all    1460 data
REM     73 parameters refined using      0 restraints
END
WGHT      0.0151      0.9983
REM Instructions for potential hydrogen bonds
HTAB O4 O2_$1
REM Highest difference peak  0.658,  deepest hole -0.503,  1-sigma level  0.132
Q1    1   0.5000  0.1571  0.2500  10.50000  0.05    0.66
Q2    1   0.0000  0.0664  0.2500  10.50000  0.05    0.58
Q3    1   0.2029  0.4501  0.3860  11.00000  0.05    0.54
Q4    1   0.2451  0.2594  0.3181  11.00000  0.05    0.53
Q5    1   0.3485  0.3718  0.4451  11.00000  0.05    0.51
Q6    1   0.2269  0.2562  0.2027  11.00000  0.05    0.50
Q7    1   0.3361  0.4545  0.3451  11.00000  0.05    0.47
Q8    1   0.2701  0.4468  0.1708  11.00000  0.05    0.47
Q9    1   0.4487  0.1384  0.0411  11.00000  0.05    0.44
Q10   1   0.2303  0.3284  0.2693  11.00000  0.05    0.43
Q11   1   0.2164  0.4000  0.4534  11.00000  0.05    0.41
Q12   1   0.2693  0.1874  0.1904  11.00000  0.05    0.40
Q13   1   0.2985  0.4410  0.5220  11.00000  0.05    0.39
Q14   1   0.3529  0.1774  0.0146  11.00000  0.05    0.39
Q15   1   0.4432  0.4370  0.5555  11.00000  0.05    0.39
Q16   1   0.2281  0.3843  0.1254  11.00000  0.05    0.38
Q17   1   0.3295  0.3981  0.2632  11.00000  0.05    0.38
Q18   1   0.2536  0.4608  0.4935  11.00000  0.05    0.37
Q19   1   0.2220  0.3113  0.1647  11.00000  0.05    0.37
Q20   1   0.4220  0.5349  0.2318  11.00000  0.05    0.36
;
_shelx_res_checksum              75337
loop_
_space_group_symop_operation_xyz
'x, y, z'
'-x, y, -z+1/2'
'x+1/2, y+1/2, z'
'-x+1/2, y+1/2, -z+1/2'
'-x, -y, -z'
'x, -y, z-1/2'
'-x+1/2, -y+1/2, -z'
'x+1/2, -y+1/2, z-1/2'
loop_
_atom_site_type_symbol
_atom_site_label
_atom_site_fract_x
_atom_site_fract_y
_atom_site_fract_z
_atom_site_U_iso_or_equiv
_atom_site_adp_type
_atom_site_calc_flag
_atom_site_occupancy
Ag Ag1 0.250000 0.250000 0.000000 0.0335(9) Uani d 0.75(2)
Ag Ag2 0.284(3) 0.2351(14) 0.019(2) 0.0316(18) Uani d 0.123(10)
Ga Ga 0.000000 0.13670(2) 0.250000 0.00500(5) Uani d 1
As As 0.27567(2) 0.39556(2) 0.35733(2) 0.00482(5) Uani d 1
O O1 0.18942(15) 0.26190(10) 0.24943(13) 0.00983(18) Uani d 1
O O2 0.32045(15) 0.49738(11) 0.22405(13) 0.01055(19) Uani d 1
O O3 0.45491(14) 0.35629(11) 0.51333(13) 0.00948(18) Uani d 1
O O4 0.11608(16) 0.46896(14) 0.42534(15) 0.0169(2) Uani d 1
H H 0.148(4) 0.487(3) 0.519(4) 0.033(8) Uiso d 1
loop_
_atom_site_aniso_label
_atom_site_aniso_U_11
_atom_site_aniso_U_22
_atom_site_aniso_U_33
_atom_site_aniso_U_12
_atom_site_aniso_U_13
_atom_site_aniso_U_23
Ag1 0.051(2) 0.0368(14) 0.0271(9) -0.0173(12) 0.0327(12) -0.0125(9)
Ag2 0.049(4) 0.0249(16) 0.035(3) -0.015(2) 0.034(3) -0.0064(14)
Ga 0.00555(9) 0.00478(9) 0.00482(9) 0.000 0.00182(6) 0.000
As 0.00564(7) 0.00525(7) 0.00364(7) -0.00073(4) 0.00153(5) -0.00003(4)
O1 0.0114(4) 0.0093(4) 0.0101(5) -0.0057(3) 0.0053(4) -0.0045(3)
O2 0.0122(4) 0.0110(4) 0.0068(4) -0.0060(3) 0.0003(3) 0.0036(4)
O3 0.0085(4) 0.0135(4) 0.0053(4) 0.0032(3) 0.0004(3) 0.0011(4)
O4 0.0116(5) 0.0299(6) 0.0094(5) 0.0081(4) 0.0035(4) -0.0047(4)
loop_
_atom_type_symbol
_atom_type_description
_atom_type_scat_dispersion_real
_atom_type_scat_dispersion_imag
_atom_type_scat_source
O O 0.0106 0.0060 'International Tables Vol C Tables 4.2.6.8 and 6.1.1.4'
Ga Ga 0.2307 1.6083 'International Tables Vol C Tables 4.2.6.8 and 6.1.1.4'
As As 0.0499 2.0058 'International Tables Vol C Tables 4.2.6.8 and 6.1.1.4'
Ag Ag -0.8971 1.1015 'International Tables Vol C Tables 4.2.6.8 and 6.1.1.4'
H H 0.0000 0.0000 'International Tables Vol C Tables 4.2.6.8 and 6.1.1.4'
loop_
_geom_angle_atom_site_label_1
_geom_angle_atom_site_label_2
_geom_angle_atom_site_label_3
_geom_angle_site_symmetry_1
_geom_angle_site_symmetry_3
_geom_angle
O1 Ga O1 . 2 98.48(7)
O1 Ga O2 . 3_445 171.19(5)
O1 Ga O2 2 3_445 87.59(5)
O1 Ga O2 . 4_545 87.59(5)
O1 Ga O2 2 4_545 171.19(5)
O2 Ga O2 3_445 4_545 87.12(7)
O1 Ga O3 . 7_556 94.82(5)
O1 Ga O3 2 7_556 82.46(5)
O2 Ga O3 3_445 7_556 92.29(5)
O2 Ga O3 4_545 7_556 90.71(5)
O1 Ga O3 . 8_455 82.46(5)
O1 Ga O3 2 8_455 94.82(5)
O2 Ga O3 3_445 8_455 90.71(5)
O2 Ga O3 4_545 8_455 92.29(5)
O3 Ga O3 7_556 8_455 175.86(6)
O2 As O3 . . 114.16(6)
O2 As O1 . . 104.63(6)
O3 As O1 . . 110.64(6)
O2 As O4 . . 107.25(7)
O3 As O4 . . 110.16(6)
O1 As O4 . . 109.80(6)
O2 As O3 . . 114.16(6)
O2 As O1 . . 104.63(6)
O3 As O1 . . 110.64(6)
O2 As O4 . . 107.25(7)
O3 As O4 . . 110.16(6)
O1 As O4 . . 109.80(6)
loop_
_geom_bond_atom_site_label_1
_geom_bond_atom_site_label_2
_geom_bond_site_symmetry_2
_geom_bond_distance
_geom_bond_publ_flag
Ag1 O1 7 2.3600(12) n
Ag1 O1 . 2.3600(12) y
Ag1 O3 2_655 2.5864(12) y
Ag1 O3 8_455 2.5864(12) n
Ag1 O4 6_565 3.0574(15) y
Ag1 O4 4_545 3.0574(15) n
Ag1 O2 . 3.1352(12) y
Ag2 O1 . 2.357(17) y
Ag2 O1 7 2.402(18) y
Ag2 O3 2_655 2.48(2) y
Ag2 O3 8_455 2.73(3) y
Ag2 O4 4_545 2.83(2) y
Ag2 O2 7 3.116(18) y
Ag2 O2 . 3.185(17) y
Ga O1 . 1.9591(11) y
Ga O1 2 1.9591(11) n
Ga O2 3_445 1.9641(11) y
Ga O2 4_545 1.9641(11) n
Ga O3 7_556 1.9799(12) y
Ga O3 8_455 1.9799(12) n
As O2 . 1.6719(11) y
As O3 . 1.6753(12) y
As O1 . 1.6773(11) y
As O4 . 1.7096(12) y
O4 H . 0.80(3) ?
loop_
_geom_hbond_atom_site_label_D
_geom_hbond_atom_site_label_H
_geom_hbond_atom_site_label_A
_geom_hbond_site_symmetry_A
_geom_hbond_distance_DH
_geom_hbond_distance_HA
_geom_hbond_distance_DA
_geom_hbond_angle_DHA
O4 H O2 6_566 0.80(3) 1.89(3) 2.6240(19) 153(3)
