#------------------------------------------------------------------------------
#$Date: 2019-12-26 21:24:38 +0200 (Thu, 26 Dec 2019) $
#$Revision: 246104 $
#$URL: file:///home/coder/svn-repositories/cod/cif/2/31/17/2311784.cif $
#------------------------------------------------------------------------------
#
# This file is available in the Crystallography Open Database (COD),
# http://www.crystallography.net/. The original data for this entry
# were provided by IUCr Journals, http://journals.iucr.org/.
#
# The file may be used within the scientific community so long as
# proper attribution is given to the journal article from which the
# data were obtained.
#
data_2311784
loop_
_publ_author_name
'Fulle, Kyle'
'Sanjeewa, Liurukara D.'
'McMillen, Colin D.'
'Kolis, Joseph W.'
_publ_section_title
;
 Crystal chemistry and the role of ionic radius in rare earth
 tetrasilicates:
 Ba<sub>2</sub>RE<sub>2</sub>Si<sub>4</sub>O<sub>12</sub>F<sub>2</sub> (RE
 = Er<sup>3+</sup>-Lu<sup>3+</sup>) and
 Ba<sub>2</sub>RE<sub>2</sub>Si<sub>4</sub>O<sub>13</sub> (RE =
 La<sup>3+</sup>-Ho<sup>3+</sup>).
;
_journal_issue                   'Pt 5'
_journal_name_full
'Acta crystallographica Section B, Structural science, crystal engineering and materials'
_journal_page_first              907
_journal_page_last               915
_journal_paper_doi               10.1107/S2052520617009544
_journal_volume                  73
_journal_year                    2017
_chemical_formula_sum            'Ba2 Er2 F2 O12 Si4'
_chemical_formula_weight         951.56
_space_group_crystal_system      triclinic
_space_group_IT_number           2
_space_group_name_Hall           '-P 1'
_space_group_name_H-M_alt        'P -1'
_atom_sites_solution_primary     direct
_atom_sites_solution_secondary   difmap
_audit_creation_method           SHELXL-2014/7
_cell_angle_alpha                108.138(18)
_cell_angle_beta                 102.03(2)
_cell_angle_gamma                92.742(19)
_cell_formula_units_Z            1
_cell_length_a                   5.476(4)
_cell_length_b                   7.166(6)
_cell_length_c                   8.958(8)
_cell_measurement_reflns_used    1898
_cell_measurement_temperature    298(2)
_cell_measurement_theta_max      26.7152
_cell_measurement_theta_min      2.4617
_cell_volume                     324.3(5)
_computing_cell_refinement       'CrystalClear (Rigaku/MSC, 2008)'
_computing_data_collection       'CrystalClear (Rigaku/MSC, 2008)'
_computing_data_reduction        'CrystalClear (Rigaku/MSC, 2008)'
_computing_molecular_graphics    'DIAMOND (Bradenburg, 1999)'
_computing_publication_material  'SHELXL-2014/7 (Sheldrick, 2014)'
_computing_structure_refinement  'SHELXL-2014/7 (Sheldrick, 2014)'
_computing_structure_solution    'SHELXL-2014/7 (Sheldrick, 2014)'
_diffrn_ambient_temperature      298(2)
_diffrn_detector_area_resol_mean 14.6199
_diffrn_measured_fraction_theta_full 0.985
_diffrn_measured_fraction_theta_max 0.985
_diffrn_measurement_device_type  'Rigaku AFC8S'
_diffrn_measurement_method       '\w scans'
_diffrn_radiation_type           MoK\a
_diffrn_radiation_wavelength     0.71073
_diffrn_reflns_av_R_equivalents  0.0349
_diffrn_reflns_av_unetI/netI     0.0371
_diffrn_reflns_Laue_measured_fraction_full 0.985
_diffrn_reflns_Laue_measured_fraction_max 0.985
_diffrn_reflns_limit_h_max       6
_diffrn_reflns_limit_h_min       -6
_diffrn_reflns_limit_k_max       8
_diffrn_reflns_limit_k_min       -8
_diffrn_reflns_limit_l_max       10
_diffrn_reflns_limit_l_min       -10
_diffrn_reflns_number            2675
_diffrn_reflns_point_group_measured_fraction_full 0.985
_diffrn_reflns_point_group_measured_fraction_max 0.985
_diffrn_reflns_theta_full        25.228
_diffrn_reflns_theta_max         25.228
_diffrn_reflns_theta_min         3.014
_diffrn_source                   'fine-focus sealed tube'
_exptl_absorpt_coefficient_mu    19.254
_exptl_absorpt_correction_T_max  1.0000
_exptl_absorpt_correction_T_min  0.4687
_exptl_absorpt_correction_type   multi-scan
_exptl_absorpt_process_details   'REQAB, CrystalClear'
_exptl_crystal_colour            pink
_exptl_crystal_density_diffrn    4.873
_exptl_crystal_description       block
_exptl_crystal_F_000             418
_exptl_crystal_size_max          0.150
_exptl_crystal_size_mid          0.135
_exptl_crystal_size_min          0.120
_refine_diff_density_max         2.354
_refine_diff_density_min         -3.301
_refine_diff_density_rms         0.411
_refine_ls_extinction_coef       0.0104(12)
_refine_ls_extinction_expression Fc^*^=kFc[1+0.001xFc^2^\l^3^/sin(2\q)]^-1/4^
_refine_ls_extinction_method     'SHELXL-2014/7 (Sheldrick 2014'
_refine_ls_goodness_of_fit_ref   1.145
_refine_ls_hydrogen_treatment    undef
_refine_ls_matrix_type           full
_refine_ls_number_parameters     101
_refine_ls_number_reflns         1168
_refine_ls_number_restraints     0
_refine_ls_restrained_S_all      1.145
_refine_ls_R_factor_all          0.0362
_refine_ls_R_factor_gt           0.0352
_refine_ls_shift/su_max          0.000
_refine_ls_shift/su_mean         0.000
_refine_ls_structure_factor_coef Fsqd
_refine_ls_weighting_details
'w=1/[\s^2^(Fo^2^)+(0.0790P)^2^+31.2028P] where P=(Fo^2^+2Fc^2^)/3'
_refine_ls_weighting_scheme      calc
_refine_ls_wR_factor_gt          0.0933
_refine_ls_wR_factor_ref         0.0944
_reflns_Friedel_coverage         0.000
_reflns_number_gt                1114
_reflns_number_total             1168
_reflns_threshold_expression     'I > 2\s(I)'
_cod_data_source_file            rm5005sup1.cif
_cod_data_source_block           Er
_cod_original_cell_volume        324.3(4)
_cod_database_code               2311784
_shelx_shelxl_version_number     2014/7
_shelx_space_group_comment
;
The symmetry employed for this shelxl refinement is uniquely defined
by the following loop, which should always be used as a source of
symmetry information in preference to the above space-group names.
They are only intended as comments.
;
_shelx_estimated_absorpt_t_min   0.160
_shelx_estimated_absorpt_t_max   0.206
_shelx_res_file
;

    p-1.res created by SHELXL-2014/7


TITL p-1 in P-1
CELL 0.71073   5.4756   7.1656   8.9578 108.138 102.026  92.742
ZERR    1.00   0.0039   0.0057   0.0076   0.018   0.020   0.019
LATT  1
SFAC O F SI BA ER
UNIT 12 2 4 2 2

L.S. 20
FMAP 2
PLAN -20
ACTA
OMIT -3 50.5
size 0.150 0.120 0.135
WGHT    0.056000    2.554000
EXTI    0.010403
FVAR       0.32879
BA1   4    0.760567    0.257123    0.044721    11.00000    0.01508    0.01246 =
         0.01354    0.00238    0.00172    0.00157
ER1   5    0.162959    0.149558    0.701282    11.00000    0.01108    0.01122 =
         0.01070    0.00256    0.00130    0.00044
SI1   3    0.383721    0.177064    0.368913    11.00000    0.01184    0.01085 =
         0.00964    0.00239    0.00225   -0.00015
SI2   3    0.677173    0.441695    0.710510    11.00000    0.00909    0.01079 =
         0.01072    0.00369    0.00151    0.00040
O1    1    0.611057    0.310117    0.519919    11.00000    0.01492    0.01959 =
         0.00675   -0.00129    0.00090   -0.00115
O2    1    0.167197    0.089951    0.437962    11.00000    0.01804    0.01317 =
         0.01657    0.00337    0.00519   -0.00052
O3    1    0.254583    0.327357    0.276913    11.00000    0.02094    0.00844 =
         0.01148    0.00474   -0.00228   -0.00018
O4    1    0.501947    0.013447    0.247927    11.00000    0.01533    0.01236 =
         0.01319   -0.00039   -0.00206    0.00331
O5    1    0.447870    0.417773    0.792560    11.00000    0.01465    0.01515 =
         0.02105    0.00655    0.01243    0.00245
O6    1    0.926930    0.381219    0.805184    11.00000    0.01401    0.01004 =
         0.01321   -0.00150   -0.00062    0.00148
F1    2    0.152422    0.097527    0.927239    11.00000    0.04100    0.02703 =
         0.02151    0.01577    0.01576    0.01495

HKLF 4

REM  p-1 in P-1
REM R1 =  0.0352 for    1114 Fo > 4sig(Fo)  and  0.0362 for all    1168 data
REM    101 parameters refined using      0 restraints

END

WGHT      0.0558      2.5791

REM Highest difference peak  2.354,  deepest hole -3.301,  1-sigma level  0.411
Q1    1   0.4508 -0.0305  0.6558  11.00000  0.05    2.35
Q2    1   0.9147  0.4498  0.5600  11.00000  0.05    1.72
Q3    1   0.3271  0.3407  0.2222  11.00000  0.05    1.35
Q4    1   0.6686  0.4011  0.0348  11.00000  0.05    1.33
Q5    1   0.9709  0.7121  0.2964  11.00000  0.05    1.26
Q6    1   0.2765  0.0248  0.7097  11.00000  0.05    1.22
Q7    1   0.3652  0.0975  0.6387  11.00000  0.05    1.21
Q8    1   0.5998  0.2691  0.1201  11.00000  0.05    1.19
Q9    1   0.1833  0.3003  0.6698  11.00000  0.05    1.18
Q10   1   0.7454 -0.0655  0.1727  11.00000  0.05    1.17
Q11   1   0.7041  0.4436  0.3329  11.00000  0.05    1.13
Q12   1   0.2153  0.1575  0.6064  11.00000  0.05    1.11
Q13   1   0.1922  0.3410  0.4775  11.00000  0.05    1.10
Q14   1   1.1178  0.6423  0.0606  11.00000  0.05    1.10
Q15   1   0.5477  0.3115  0.2513  11.00000  0.05    1.10
Q16   1   0.7452  0.0514 -0.0136  11.00000  0.05    1.09
Q17   1   0.7719  0.4023  0.0238  11.00000  0.05    1.05
Q18   1   1.1227  0.2650  0.2226  11.00000  0.05    1.04
Q19   1   0.6870  0.4156  0.1830  11.00000  0.05    0.99
Q20   1   0.1962 -0.0886  0.6182  11.00000  0.05    0.99
;
_shelx_res_checksum              90937
_shelx_hkl_file
;
   0   0   2  390.34   14.90
   0   0  -2  349.93   13.46
   0   0   3 2235.43   51.42
   0   0  -3 2010.91   46.51
   0   0   4  909.86   22.15
   0   0  -4  861.56   21.27
   0   0   5  747.13   28.72
   0   0  -5  788.05   30.41
   0   0   6    2.96    1.65
   0   0  -6    2.81    1.95
   0   0   7  124.91    6.28
   0   0  -7  151.99    7.45
   0   0   8  716.17   26.92
   0   0  -8  742.89   28.08
   0   0   9  494.40   26.65
   0   0  -9  498.47   27.11
   0   0 -10   32.68    3.92
   0  -1  10   74.61   12.55
   0   1 -10   93.81    7.83
   0  -1   9  621.50   33.79
   0   1  -9  620.03   31.59
   0  -1   8   21.70    5.25
   0   1  -8   14.36    2.21
   0  -1   7   96.89    5.33
   0   1  -7   93.44    5.34
   0  -1   6 1936.92   72.55
   0   1  -6 1928.98   72.49
   0  -1   5    5.11    1.98
   0   1  -5    4.90    2.04
   0  -1   4    4.09    0.93
   0   1  -4    9.22    1.58
   0  -1   3 3304.71   75.62
   0   1  -3 2982.19   68.36
   0  -1   2  234.93    9.45
   0   1  -2  243.13   10.37
   0  -1   1  675.14   16.40
   0   1  -1  717.15   17.76
   0   1   0  414.44   15.77
   0  -1   0  407.45   15.51
   0   1   0  375.24   13.94
   0  -1   0  375.55   13.97
   0   1   1  158.59    6.64
   0  -1  -1  166.94    7.11
   0   1   2  800.13   19.16
   0  -1  -2  879.82   21.06
   0   1   3  450.33   17.42
   0  -1  -3  438.13   17.04
   0   1   4    1.11    1.12
   0  -1  -4    3.36    1.89
   0   1   5 1027.74   39.35
   0  -1  -5  999.19   38.28
   0   1   6 1634.69   50.15
   0  -1  -6 1747.92   53.70
   0   1   7   41.89    3.39
   0  -1  -7   51.12    4.19
   0   1   8   60.55    4.02
   0  -1  -8   61.17    4.02
   0   1   9  511.95   27.59
   0  -1  -9  715.28   38.26
   0  -2  10   34.07    8.68
   0   2 -10   36.62    3.53
   0  -2   9  833.79   41.59
   0   2  -9 1072.31   53.02
   0  -2   8   22.84    5.61
   0   2  -8   21.51    2.94
   0  -2   7   58.07    4.04
   0   2  -7   60.98    4.55
   0  -2   6  479.20   19.52
   0   2  -6  515.19   20.90
   0  -2   5   18.22    3.07
   0   2  -5   20.66    2.37
   0  -2   4 2212.42   51.84
   0   2  -4 2422.17   56.73
   0  -2   3   96.31    5.81
   0   2  -3   99.42    7.36
   0   2  -2  149.28    6.95
   0   2  -1 1517.22   36.75
   0  -2   1 1468.57   35.48
   0   2  -1 1437.87   33.52
   0   2   0 1158.06   27.83
   0  -2   0 1140.43   27.50
   0   2   0 1112.01   25.81
   0  -2   0 1054.35   24.52
   0   2   1    5.12    1.35
   0  -2  -1   14.24    2.36
   0  -2  -1    5.47    1.07
   0   2   2  996.55   24.20
   0  -2  -2 1004.25   24.57
   0   2   3 1569.93   37.28
   0  -2  -3 1593.83   38.06
   0   2   4  741.75   28.68
   0  -2  -4  773.77   30.09
   0   2   5   56.31    4.07
   0  -2  -5   46.82    3.92
   0   2   6  712.39   27.02
   0  -2  -6  646.36   24.87
   0   2   7  258.47   11.54
   0  -2  -7  237.07   10.98
   0   2   8  499.43   26.92
   0  -2  -8  550.49   29.94
   0  -2  -9   12.54    3.39
   0  -3  10  344.50   21.54
   0   3 -10  335.99   19.70
   0  -3   9   58.86    9.78
   0   3  -9   68.43    4.87
   0  -3   8   17.96    3.91
   0   3  -8   14.09    2.61
   0  -3   7 1528.24   48.88
   0   3  -7 1483.56   46.51
   0  -3   6  461.53   19.44
   0   3  -6  449.96   18.96
   0  -3   5   24.05    3.28
   0   3  -5   21.42    5.40
   0   3  -4  958.61   24.96
   0   3  -3 1196.16   29.92
   0   3  -3 1244.96   32.43
   0   3  -2  130.19    6.49
   0   3  -2  147.82    8.14
   0   3  -2  154.80    7.01
   0   3  -1  213.53    9.93
   0  -3   1  227.29   10.68
   0   3  -1  209.65    9.09
   0   3   0  695.14   18.19
   0  -3   0  692.54   18.33
   0   3   0  662.03   16.21
   0  -3   0  685.48   16.72
   0   3   1 1508.23   36.30
   0  -3  -1 1740.51   41.98
   0  -3  -1 1549.91   36.31
   0   3   2 1213.67   29.82
   0  -3  -2 1246.33   30.81
   0  -3  -2 1130.32   26.86
   0   3   3  451.19   18.22
   0  -3  -3  471.21   19.33
   0   3   4  967.71   30.68
   0  -3  -4 1054.76   33.62
   0   3   5 1491.03   53.80
   0  -3  -5 1579.94   57.19
   0   3   6   14.94    2.34
   0  -3  -6   11.74    2.23
   0   3   7    1.46    1.49
   0  -3  -7   -0.09    1.55
   0  -3  -8  613.66   36.99
   0  -4  10  511.38   30.92
   0   4 -10  599.92   36.67
   0  -4   9  390.57   22.01
   0   4  -9  355.00   19.70
   0  -4   8  570.41   23.06
   0   4  -8  512.21   20.92
   0  -4   7   74.17    8.81
   0   4  -7   56.13    4.94
   0  -4   6  803.07   27.81
   0   4  -6  724.75   25.94
   0  -4   5 1128.15   43.71
   0   4  -5 1138.06   44.42
   0   4  -4  498.24   21.02
   0   4  -4  498.92   22.09
   0   4  -3  523.47   15.99
   0   4  -3  472.30   15.52
   0   4  -3  502.99   14.03
   0   4  -2  919.10   25.20
   0  -4   2 1035.21   28.60
   0   4  -2  904.96   23.69
   0   4  -1 2589.49   62.12
   0  -4   1 2647.55   63.77
   0   4  -1 2480.75   57.44
   0   4   0   71.58    4.65
   0  -4   0   75.15    5.13
   0  -4   0   77.46    3.95
   0   4   1   26.34    2.69
   0  -4  -1   16.69    2.89
   0  -4  -1   18.93    3.35
   0   4   2 1572.57   59.66
   0  -4  -2 1780.68   67.69
   0  -4  -2 1660.83   62.42
   0   4   3  163.59    7.96
   0  -4  -3  158.88    8.13
   0  -4  -3  166.94    7.77
   0   4   4  150.66    7.52
   0  -4  -4  183.75    9.27
   0   4   5   89.87    4.58
   0  -4  -5   89.00    5.12
   0   4   6   58.65    3.85
   0  -4  -6   50.34    4.04
   0  -4  -7  365.90   23.09
   0   5 -10   64.31    5.81
   0  -5   9   44.52   11.91
   0   5  -9   38.61    4.14
   0  -5   8  768.15   34.28
   0   5  -8  669.72   26.89
   0  -5   7  688.33   27.01
   0   5  -7  673.94   27.07
   0   5  -6    4.36    1.86
   0   5  -6    3.29    2.99
   0   5  -5  633.55   22.27
   0   5  -5  599.15   22.75
   0   5  -5  632.73   21.55
   0   5  -4  936.51   38.74
   0   5  -4  993.34   40.76
   0   5  -4 1024.56   39.99
   0   5  -3    0.95    0.74
   0   5  -3    3.20    2.71
   0   5  -3    1.68    0.79
   0   5  -2  169.71    8.77
   0  -5   2  155.90    8.68
   0   5  -2  163.71    6.41
   0   5  -1  433.77   19.03
   0  -5   1  434.66   19.56
   0   5  -1  440.00   18.11
   0   5   0    2.92    2.07
   0  -5   0    4.91    2.40
   0  -5   0    3.40    1.66
   0   5   1  774.89   26.07
   0  -5  -1  783.40   26.78
   0  -5  -1  734.05   24.03
   0   5   2   92.10    5.99
   0  -5  -2  104.05    6.75
   0  -5  -2   99.80    8.49
   0   5   3    1.18    1.67
   0  -5  -3    0.57    1.86
   0  -5  -3    5.97    1.08
   0   5   4  947.35   35.04
   0  -5  -4 1165.62   43.36
   0  -5  -4 1066.10   38.91
   0   5   5  122.64    8.48
   0  -5  -5  121.20    8.68
   0  -5  -5  131.78    9.01
   0  -5  -6   14.46    3.98
   0  -5  -6   17.27    3.43
   0   6  -9   59.09    5.58
   0   6  -9   68.43    7.90
   0   6  -8   63.11   16.27
   0   6  -8   81.15    7.59
   0   6  -8   83.74    5.75
   0   6  -7  318.84   18.14
   0   6  -7  330.48   16.58
   0   6  -7  334.40   15.23
   0   6  -6  108.77   13.91
   0   6  -6  102.27    6.62
   0   6  -6  114.91    5.98
   0   6  -5  429.62   18.16
   0   6  -5  437.20   19.91
   0   6  -5  456.52   26.85
   0   6  -4  108.63    8.68
   0   6  -4   94.55    7.10
   0   6  -4  113.30    8.15
   0   6  -3   24.95    2.81
   0   6  -3   30.71    4.68
   0   6  -3   36.50    6.71
   0   6  -2 2008.48   63.84
   0  -6   2 2082.88   66.43
   0   6  -2 1935.45   59.11
   0   6  -1   89.41    6.73
   0  -6   1   80.14    6.64
   0   6  -1   96.61   10.16
   0   6   0    6.36    3.56
   0  -6   0   -1.30    2.18
   0  -6   0    3.70    1.69
   0   6   1 1529.44   56.38
   0  -6  -1 1572.45   58.39
   0  -6  -1 1517.51   55.40
   0   6   2  208.75   10.65
   0  -6  -2  210.66   11.34
   0  -6  -2  185.26    8.86
   0   6   3  246.69   14.25
   0  -6  -3  239.58   14.68
   0  -6  -3  231.58   13.93
   0   6   4  142.62    9.60
   0  -6  -4  140.88   10.51
   0  -6  -4  148.17   10.58
   0  -6  -5  138.18   10.62
   0   7  -8  861.63   51.40
   0   7  -8  763.29   46.76
   0   7  -8  869.14   51.55
   0   7  -7    9.83    2.48
   0   7  -7    7.99    4.38
   0   7  -7    9.91    2.02
   0   7  -6    7.35    1.74
   0   7  -6   14.50    3.50
   0   7  -6   15.77    3.39
   0   7  -5 1262.83   46.81
   0   7  -5 1201.64   46.06
   0   7  -5 1346.36   48.67
   0   7  -4   29.83    7.20
   0   7  -4   42.32    5.63
   0   7  -4   31.04    6.02
   0   7  -3  173.56    9.01
   0   7  -3  193.03   11.87
   0   7  -3  200.42   12.81
   0   7  -2  448.49   20.24
   0  -7   2  486.18   22.24
   0   7  -2  461.39   18.82
   0   7  -1   62.54    5.07
   0  -7   1   66.04    5.85
   0   7   0  707.57   36.53
   0  -7   0  788.62   41.13
   0   7   1    5.47    2.20
   0  -7  -1    6.70    3.39
   0  -7  -1    9.86    1.63
   0   7   2   87.50    5.98
   0  -7  -2   79.53    6.27
   0  -7  -2   89.47    4.03
   0  -7  -3  395.02   25.43
   0  -7  -3  459.64   28.75
   0   8  -7   26.96    8.83
   0   8  -7   37.53    8.51
   0   8  -6  401.56   25.06
   0   8  -6  438.15   28.24
   0   8  -6  408.63   30.91
   0   8  -5    0.69    1.34
   0   8  -5    5.27    2.08
   0   8  -4    1.29    1.76
   0   8  -4    8.91    4.57
   0   8  -4    3.10    1.33
   0   8  -3  522.68   28.71
   0   8  -3  600.95   34.02
   0   8  -3  611.76   32.60
   0  -8   2  382.82   23.85
   0   8  -2  363.67   19.90
   0   8  -1    2.50    2.40
   0  -8   1    9.27    4.77
   0  -8   0  116.72   10.76
   1  -8  -1  130.92   11.60
   1  -8  -1  160.61   11.28
  -1   8   0  288.12   19.43
   1  -8   0  276.54   19.57
  -1   8  -1   69.55    6.39
   1  -8   1   62.89    7.27
  -1   8  -2  165.88   12.38
  -1   8  -2  150.92   13.92
  -1   8  -3  590.70   47.83
  -1   8  -3  496.16   28.76
  -1   8  -3  604.63   32.40
  -1   8  -4  156.22   20.86
  -1   8  -4  161.17   12.20
  -1   8  -4  163.08   17.42
  -1   8  -5    8.30    2.50
  -1   8  -5   10.45    3.95
  -1   8  -5    7.26    2.09
  -1   8  -6  431.19   27.21
  -1   8  -6  372.39   28.74
  -1   7   3  415.04   25.83
  -1   7   2    5.43    2.68
   1  -7  -2    3.47    3.91
   1  -7  -2    2.00    1.16
  -1   7   1    2.33    1.89
   1  -7  -1   10.17    4.11
   1  -7  -1    2.70    1.71
  -1   7   0  503.44   26.82
   1  -7   0  654.55   34.83
   1  -7   0  655.78   33.05
  -1   7  -1  466.20   20.60
   1  -7   1  364.48   17.56
  -1   7  -1  453.55   18.23
  -1   7  -2    5.21    3.59
  -1   7  -2    1.14    1.10
  -1   7  -3  386.39   17.46
  -1   7  -3  380.50   18.25
  -1   7  -3  344.32   19.25
  -1   7  -4  389.41   17.35
  -1   7  -4  391.97   18.26
  -1   7  -5   15.65    4.56
  -1   7  -5   16.51    5.36
  -1   7  -5   16.00    2.53
  -1   7  -6   22.47    5.54
  -1   7  -6   20.67    4.51
  -1   7  -6   20.03    3.78
  -1   7  -7  281.00   17.39
  -1   7  -7  273.30   18.32
  -1   7  -7  263.13   20.97
  -1   7  -8   10.11    2.74
  -1   6   5   78.43    4.97
   1  -6  -5   72.24    5.72
  -1   6   4    7.13    1.85
   1  -6  -4   10.04    4.19
   1  -6  -4    5.23    1.54
  -1   6   3  619.39   31.81
   1  -6  -3  564.58   29.99
   1  -6  -3  610.65   30.62
  -1   6   2  408.14   17.21
   1  -6  -2  386.00   17.18
   1  -6  -2  388.81   18.44
  -1   6   1   52.63    4.72
   1  -6  -1   52.60    5.33
   1  -6  -1   49.04    4.88
  -1   6   0   -1.00    1.78
   1  -6   0    0.33    2.49
   1  -6   0    3.79    1.23
  -1   6  -1  252.47    9.57
   1  -6   1  261.99   13.88
  -1   6  -1  257.82   11.37
   1  -6   1  258.29   11.48
  -1   6  -2  419.16   18.89
  -1   6  -2  395.21   21.14
  -1   6  -3  663.77   27.90
  -1   6  -3  591.40   24.91
  -1   6  -3  648.01   31.15
  -1   6  -4   87.41   11.64
  -1   6  -4   85.26    7.45
  -1   6  -4  103.46   15.18
  -1   6  -5  187.36   10.98
  -1   6  -5  207.39   12.28
  -1   6  -5  186.70   10.85
  -1   6  -6 1499.89   55.51
  -1   6  -6 1509.86   56.90
  -1   6  -6 1512.79   55.54
  -1   6  -7    1.02    1.06
  -1   6  -7   11.30    5.90
  -1   6  -7    0.00    0.97
  -1   6  -8    1.64    1.96
  -1   6  -8    8.59    5.05
  -1   6  -8    2.30    1.88
  -1   6  -9  699.76   42.84
   1  -5  -6  117.58    9.34
   1  -5  -6  108.41   13.56
  -1   5   5  252.98   14.11
   1  -5  -5  245.33   14.45
   1  -5  -5  260.45   14.09
  -1   5   4  307.79   13.27
   1  -5  -4  315.94   14.44
   1  -5  -4  313.52   12.91
  -1   5   3  518.42   20.74
   1  -5  -3  585.88   23.68
   1  -5  -3  611.71   23.35
  -1   5   2  352.84   13.44
   1  -5  -2  364.14   14.45
   1  -5  -2  381.80   13.75
  -1   5   1  554.52   19.48
   1  -5  -1  546.47   19.92
   1  -5  -1  533.33   19.24
  -1   5   0 2632.50   80.42
   1  -5   0 2834.37  103.38
  -1   5   0 2503.64   75.43
   1  -5   0 2825.46  101.44
  -1   5  -1   32.81    4.42
   1  -5   1   16.66    3.94
  -1   5  -1   33.24    5.40
   1  -5   1   27.50    2.92
  -1   5  -2    5.19    1.64
  -1   5  -2    3.03    2.37
  -1   5  -2    6.59    1.25
  -1   5  -3 2763.56   95.17
  -1   5  -3 2595.00   98.98
  -1   5  -3 2529.72   95.04
  -1   5  -4   73.74    8.07
  -1   5  -4   75.61    7.04
  -1   5  -4   73.93    8.08
  -1   5  -5  376.48   16.41
  -1   5  -5  377.69   16.68
  -1   5  -5  353.08   15.70
  -1   5  -6  239.15   17.12
  -1   5  -6  257.10    8.54
   1  -5   7   41.14    9.39
  -1   5  -7   27.16    3.60
  -1   5  -7   35.86    4.14
   1  -5   8  741.61   38.99
  -1   5  -8  536.45   28.78
  -1   5  -8  637.31   33.36
   1  -5   9   88.05   11.39
  -1   5  -9   62.47    5.40
  -1   5  -9   79.08    5.83
   1  -4  -8   16.39    2.98
  -1   4   7  235.72   15.16
   1  -4  -7  212.88   14.35
  -1   4   6  631.41   31.76
   1  -4  -6  892.23   44.57
  -1   4   5    9.27    1.85
   1  -4  -5    3.84    1.47
  -1   4   4   82.91    5.14
   1  -4  -4   76.06    5.10
   1  -4  -4   89.89    5.14
  -1   4   3 1737.56   53.38
   1  -4  -3 1797.82   55.77
   1  -4  -3 1823.10   55.81
  -1   4   2   30.05    2.85
   1  -4  -2   28.34    3.57
   1  -4  -2   33.60    3.85
  -1   4   1  130.82    5.62
   1  -4  -1  120.80    6.13
   1  -4  -1  130.66    5.54
  -1   4   0  863.75   33.87
   1  -4   0  894.08   35.59
  -1   4   0  890.18   34.30
   1  -4   0  921.49   36.30
  -1   4  -1    3.80    2.99
   1  -4   1   -0.57    2.69
  -1   4  -1    1.99    0.73
   1  -4   1    2.10    0.68
  -1   4  -2  678.02   19.10
  -1   4  -2  700.75   20.66
  -1   4  -2  725.40   20.83
  -1   4  -3   92.49    8.49
  -1   4  -3   94.06    6.20
  -1   4  -3  113.28    9.30
  -1   4  -4   22.92    4.57
  -1   4  -4   23.20    4.27
  -1   4  -4   25.63    4.36
   1  -4   5 1106.13   45.10
  -1   4  -5 1047.60   41.67
  -1   4  -5 1001.43   39.40
   1  -4   6  549.50   20.54
  -1   4  -6  405.21   16.61
   1  -4   7    3.87    2.16
  -1   4  -7    2.41    1.76
   1  -4   8  285.79   14.39
  -1   4  -8  257.18   12.64
   1  -4   9  617.94   33.50
  -1   4  -9  605.59   33.25
  -1   4 -10   73.61    6.67
  -1   3   8   14.45    2.69
   1  -3  -8    8.85    2.42
  -1   3   7    4.17    2.00
   1  -3  -7    2.54    1.54
   1  -3  -6  653.29   25.30
  -1   3   5  271.87   11.17
   1  -3  -5  258.71   11.13
  -1   3   4  505.87   20.26
   1  -3  -4  510.02   20.84
  -1   3   3   91.57    4.36
   1  -3  -3   90.99    4.74
  -1   3   2  425.54   17.07
   1  -3  -2  450.36   18.34
   1  -3  -2  466.08   19.12
  -1   3   1 2355.40   55.20
   1  -3  -1 2435.24   57.52
   1  -3  -1 2502.56   58.10
  -1   3   0  384.00   15.86
   1  -3   0  368.07   15.76
  -1   3   0  400.88   16.13
   1  -3   0  390.25   16.35
  -1   3  -1    0.07    2.10
   1  -3   1    2.08    2.40
  -1   3  -1    3.60    1.33
   1  -3   1    5.99    1.95
  -1   3  -2 1637.19   40.29
  -1   3  -2 1643.34   41.07
  -1   3  -2 1790.30   42.75
   1  -3   3  895.95   23.14
  -1   3  -3  808.35   21.79
  -1   3  -3  909.82   23.70
   1  -3   4  726.96   29.94
  -1   3  -4  724.98   29.19
  -1   3  -4  628.75   25.26
   1  -3   5  132.23    6.51
  -1   3  -5  121.46    5.92
   1  -3   6  556.81   19.48
  -1   3  -6  497.23   17.72
   1  -3   8  300.06   15.49
  -1   3  -8  297.15   13.53
   1  -3   9   83.13   12.58
  -1   3  -9   89.90    5.75
  -1   3 -10  177.28   13.01
  -1   2   8  130.43    5.67
   1  -2  -8  134.08    6.00
   1  -2  -7 1040.79   38.13
  -1   2   6   14.98    2.12
   1  -2  -6    9.90    1.94
  -1   2   5   16.86    2.10
   1  -2  -5   13.93    2.20
  -1   2   4 1946.52   72.59
   1  -2  -4 1870.39   69.99
  -1   2   3  404.16   15.94
   1  -2  -3  407.71   16.28
  -1   2   2   67.83    3.63
   1  -2  -2   67.18    3.99
  -1   2   1  530.85   13.48
   1  -2  -1  545.24   14.27
   1  -2  -1  575.95   14.49
  -1   2   0 1200.14   28.84
   1  -2   0 1197.68   29.33
  -1   2   0 1243.20   29.36
   1  -2   0 1263.91   29.96
  -1   2  -1 2028.91   48.23
  -1   2  -1 1986.92   47.48
  -1   2  -1 2304.36   53.36
   1  -2   2    4.97    1.78
  -1   2  -2    4.11    1.98
  -1   2  -2    1.04    1.51
   1  -2   3  268.67   11.15
  -1   2  -3  274.74   11.80
   1  -2   4 2376.46   55.82
  -1   2  -4 2347.66   55.31
   1  -2   5 1813.32   68.94
  -1   2  -5 1810.64   68.12
   1  -2   6   84.16    6.19
  -1   2  -6   88.29    5.32
   1  -2   7  279.08   16.81
  -1   2  -7  314.45   13.76
   1  -2   8 1278.68   47.16
  -1   2  -8 1287.00   46.98
   1  -2   9   -1.11    1.46
  -1   2  -9    2.02    1.50
  -1   2 -10   63.84    4.97
  -1   1   9   60.98    4.11
   1  -1  -9   55.22    4.17
  -1   1   8  180.03    8.64
   1  -1  -8  171.30    6.26
  -1   1   7  505.73   19.61
   1  -1  -7  516.78   20.19
  -1   1   6  298.16   10.93
   1  -1  -6  294.83   12.38
  -1   1   5 1791.81   67.06
   1  -1  -5 1631.22   61.15
  -1   1   4  130.16    5.90
   1  -1  -4  124.16    5.83
  -1   1   3  517.47   12.94
   1  -1  -3  514.42   13.00
  -1   1   2 2300.15   52.56
   1  -1  -2 2327.78   53.33
  -1   1   1 1939.50   44.37
   1  -1  -1 1931.07   44.31
  -1   1   0  327.24   13.15
   1  -1   0  306.32   12.59
  -1   1   0  324.73   12.60
   1  -1   0  338.53   13.22
   1  -1   1 1053.25   24.73
  -1   1  -1 1146.82   27.23
  -1   1  -1 1068.17   25.69
   1  -1   1 1139.24   27.18
   1  -1   2 2372.61   54.64
  -1   1  -2 2110.61   48.69
   1  -1   3   28.77    3.14
  -1   1  -3   23.41    2.25
   1  -1   4   42.22    2.87
  -1   1  -4   38.44    2.82
   1  -1   5  768.44   29.69
  -1   1  -5  834.63   32.40
   1  -1   6   31.67    3.11
  -1   1  -6   28.17    2.91
  -1   1  -7 1085.76   40.12
   1  -1   8   12.97    3.04
  -1   1  -8   16.58    2.50
   1  -1   9    1.56    1.34
  -1   1  -9    3.75    2.81
  -1   0   9   33.59    3.03
   1   0  -9   25.76    2.75
   1   0  -8 1357.82   49.42
  -1   0   7  244.29   10.09
   1   0  -7  239.70   10.05
  -1   0   6    1.86    1.39
   1   0  -6    8.13    2.48
  -1   0   5 1243.21   29.74
   1   0  -5 1347.42   32.27
  -1   0   4 2089.66   48.35
   1   0  -4 2016.28   46.76
  -1   0   3   43.05    2.35
   1   0  -3   41.90    2.37
  -1   0   2  354.20   13.33
   1   0  -2  336.08   12.66
   1   0   0  133.85    5.10
  -1   0   0  118.71    4.90
   1   0   0  115.79    5.04
   1   0   1  988.43   22.94
  -1   0  -1  976.95   22.70
  -1   0  -1  915.51   21.83
   1   0   2   26.27    1.93
  -1   0  -2   25.09    2.09
   1   0   3  319.61   12.62
  -1   0  -3  336.33   13.37
   1   0   4 2421.28   56.28
  -1   0  -4 2375.76   55.49
   1   0   5   52.95    3.04
  -1   0  -5   51.52    3.55
   1   0   6   25.42    2.58
  -1   0  -6   23.89    2.63
   1   0   7 1416.09   51.21
  -1   0  -7 1563.74   56.68
   1   0   8   31.29    3.21
  -1   0  -8   31.09    3.02
   1   0   9   87.71    4.95
  -1   0  -9   84.77    5.01
   1   1 -11  718.70   42.68
  -1  -1  10   69.73    7.42
   1   1 -10   57.49    4.13
  -1  -1   9  134.39    5.76
   1   1  -9  118.39    5.19
   1   1  -8  535.12   20.88
  -1  -1   7  435.63   16.97
   1   1  -7  448.37   15.50
  -1  -1   6  577.19   22.73
   1   1  -6  619.15   24.38
  -1  -1   5  144.04    6.50
   1   1  -5  153.39    7.10
  -1  -1   4  737.26   18.21
   1   1  -4  672.05   16.67
  -1  -1   3  688.35   16.67
   1   1  -3  669.35   16.25
  -1  -1   2 2805.61   64.37
   1   1  -2 2768.13   63.08
   1   1  -1   87.36    4.29
  -1  -1   1  102.15    5.28
   1   1   0  145.85    6.15
  -1  -1   0  135.75    5.77
   1   1   0  133.42    5.60
   1   1   1 4424.09  100.29
  -1  -1  -1 4513.62   97.89
   1   1   2  457.92   17.56
  -1  -1  -2  465.76   17.96
   1   1   3  544.19   14.05
  -1  -1  -3  531.76   13.91
   1   1   4 2000.97   74.71
  -1  -1  -4 1954.80   73.08
   1   1   5   40.75    3.10
  -1  -1  -5   46.16    3.39
   1   1   6  684.94   22.58
  -1  -1  -6  737.92   24.52
   1   1   7    4.45    1.86
  -1  -1  -7    8.30    2.05
   1   1   8   23.52    2.91
  -1  -1  -8   22.11    3.20
   1   2 -11    4.83    3.13
  -1  -2  10   47.50   12.12
   1   2 -10   54.92    3.88
  -1  -2   9  333.80   15.34
   1   2  -9  353.77   14.87
   1   2  -8 1261.48   46.14
  -1  -2   7   20.66    4.61
   1   2  -7   17.24    2.20
  -1  -2   6  271.90    8.45
   1   2  -6  270.33    8.59
  -1  -2   5 2392.94   56.20
   1   2  -5 2395.14   56.09
  -1  -2   4   26.75    5.07
   1   2  -4   26.33    5.67
  -1  -2   3  111.17    5.51
   1   2  -3   81.09    4.97
   1   2  -2 1776.84   41.63
   1   2  -2 2045.36   48.63
   1   2  -1    6.88    2.26
  -1  -2   1    4.64    2.66
   1   2   0 2448.74   56.59
  -1  -2   0 2427.63   56.31
   1   2   1  163.77    7.16
  -1  -2  -1  161.58    7.21
   1   2   2   56.10    3.30
  -1  -2  -2   56.95    3.72
   1   2   3 2033.73   75.84
  -1  -2  -3 2114.66   79.02
   1   2   4  548.55   21.83
  -1  -2  -4  578.29   23.18
   1   2   5   29.34    2.78
  -1  -2  -5   35.93    3.33
   1   2   6  499.80   20.15
  -1  -2  -6  448.10   18.30
   1   2   7  657.76   33.22
   1   2   8   36.67    3.92
  -1  -2  -8   34.42    3.80
   1   3 -11  738.95   43.98
  -1  -3  10    2.09    1.48
   1   3 -10    1.87    1.59
  -1  -3   9    4.28    1.36
   1   3  -9    3.07    1.57
   1   3  -8 1072.05   39.73
  -1  -3   7    2.95    1.27
   1   3  -7    0.74    1.41
  -1  -3   6  505.07   20.82
   1   3  -6  551.59   22.39
  -1  -3   5  472.64   20.27
   1   3  -5  466.45   20.17
   1   3  -4   89.33    7.04
   1   3  -3 1657.83   41.15
   1   3  -2  598.92   16.68
  -1  -3   2  679.45   18.88
   1   3  -1   14.24    2.14
  -1  -3   1   14.46    2.36
   1   3  -1   19.44    2.83
   1   3   0 2128.86   50.27
  -1  -3   0 2164.21   51.35
   1   3   1 1309.19   31.91
  -1  -3  -1 1293.22   31.85
  -1  -3  -1 1364.61   31.18
   1   3   2   19.55    2.40
  -1  -3  -2   18.89    2.95
   1   3   3   33.62    2.78
  -1  -3  -3   35.60    3.26
   1   3   4  878.82   28.28
  -1  -3  -4  889.88   29.03
   1   3   5  228.11   10.58
  -1  -3  -5  236.37   11.05
   1   3   6  384.23   20.45
  -1  -3  -6  354.00   19.12
   1   3   7  121.02    8.58
  -1  -3  -7  112.58    6.17
   1   4 -11  106.56    9.30
  -1  -4  10   91.82    9.04
   1   4 -10  102.78    6.00
  -1  -4   9  633.27   38.22
   1   4  -9  582.47   30.09
  -1  -4   8   13.43    2.49
   1   4  -8    3.25    2.10
  -1  -4   7  124.22   14.94
   1   4  -7  105.89    6.58
  -1  -4   6 1104.15   35.38
   1   4  -6 1177.95   38.01
   1   4  -5  244.63   10.75
   1   4  -5  213.38   10.49
   1   4  -4   16.83    4.87
   1   4  -4    7.28    2.73
   1   4  -3  421.15   17.51
   1   4  -3  461.54   20.40
   1   4  -2  469.50   20.19
  -1  -4   2  480.17   20.48
   1   4  -2  451.10   17.96
   1   4  -1  407.06   17.38
  -1  -4   1  446.55   19.13
   1   4  -1  434.54   17.07
   1   4   0    6.73    2.06
  -1  -4   0    1.07    1.74
   1   4   1  294.96    9.73
  -1  -4  -1  296.47   10.34
   1   4   2 1307.13   41.00
  -1  -4  -2 1374.17   43.42
  -1  -4  -2 1298.87   38.86
   1   4   3  741.09   24.48
  -1  -4  -3  743.57   25.05
  -1  -4  -3  769.35   23.76
   1   4   4  102.55    6.02
  -1  -4  -4  113.98    6.82
   1   4   5  402.72   21.30
  -1  -4  -5  399.44   21.48
   1   4   6  595.57   31.81
  -1  -5  10    9.85    2.37
   1   5 -10    5.09    3.35
  -1  -5   9  841.43   44.57
   1   5  -9  731.15   39.15
   1   5  -8  120.73    6.14
   1   5  -7  586.77   24.31
   1   5  -6   22.33    5.39
   1   5  -6   22.21    3.91
   1   5  -5  480.09   17.56
   1   5  -5  474.52   19.20
   1   5  -4 1582.27   49.97
   1   5  -4 1388.04   45.59
   1   5  -4 1301.94   40.21
   1   5  -3  830.87   34.27
   1   5  -3  818.82   31.69
   1   5  -2  147.11    7.61
  -1  -5   2  130.04    7.47
   1   5  -2  146.31    6.27
   1   5  -1  907.39   30.23
  -1  -5   1  975.09   32.62
   1   5  -1  935.01   28.58
   1   5   0 1569.43   49.35
  -1  -5   0 1585.80   50.15
   1   5   1  106.00    6.50
  -1  -5  -1   98.78    6.49
   1   5   2    3.56    1.98
  -1  -5  -2    7.25    2.95
   1   5   3  901.62   33.61
  -1  -5  -3  990.06   37.38
  -1  -5  -3  932.22   33.10
   1   5   4    9.41    2.23
  -1  -5  -4   10.65    2.56
  -1  -5  -4    3.88    1.60
   1   5   5  303.64   19.13
  -1  -5  -5  311.63   20.14
  -1  -5  -5  308.65   19.08
  -1  -5  -6   19.70    4.07
   1   6 -10  469.85   29.50
   1   6  -9  187.02   12.58
   1   6  -9  179.69   13.37
   1   6  -8  107.87   16.97
   1   6  -8  114.90    8.26
   1   6  -7  587.33   23.62
   1   6  -7  543.05   23.40
   1   6  -6  922.55   35.47
   1   6  -6 1037.31   40.54
   1   6  -5   35.25    8.51
   1   6  -5   32.57    4.76
   1   6  -5   44.04    3.65
   1   6  -4  200.57   10.24
   1   6  -4  200.35   11.87
   1   6  -4  205.22   14.79
   1   6  -3  934.30   36.93
  -1  -6   3 1051.37   41.38
   1   6  -3  880.48   32.46
   1   6  -2   60.77    5.27
  -1  -6   2   49.75    5.21
   1   6  -2   65.55    6.19
   1   6  -1  147.71    8.94
  -1  -6   1  168.12    9.90
   1   6   0   84.87    6.13
  -1  -6   0   82.13    6.58
   1   6   1    2.17    1.99
  -1  -6  -1    2.96    2.08
   1   6   2  719.03   36.59
   1   6   3   65.44    4.94
  -1  -6  -3   63.65    5.33
  -1  -6  -4    2.63    2.66
   1   7  -8   84.52   17.18
   1   7  -8  109.30   10.31
   1   7  -8  118.40    9.23
   1   7  -7   -0.38    1.23
   1   7  -7   -0.75    2.75
   1   7  -7    7.57    2.66
   1   7  -6   94.16   10.50
   1   7  -6  116.62    8.08
   1   7  -6  105.80   14.22
   1   7  -5  160.50   11.70
   1   7  -5  188.23   13.36
   1   7  -5  180.31   19.25
   1   7  -4  506.17   20.70
   1   7  -4  531.16   23.45
   1   7  -4  535.52   20.42
   1   7  -3   -1.27    2.36
  -1  -7   3   13.27    3.48
   1   7  -3    0.52    0.77
   1   7  -2    4.86    2.42
  -1  -7   2    5.49    2.88
   1   7  -2    0.99    0.45
   1   7  -1 1143.98   57.41
  -1  -7   1 1121.88   56.85
   1   7   0  159.02   10.88
  -1  -7   0  158.68   11.29
   1   7   1   24.89    3.53
  -1  -7  -1   20.72    3.89
  -1  -7  -2  364.25   23.71
   1   8  -7  626.88   37.29
   1   8  -6    0.99    1.40
   1   8  -6    1.11    0.87
   1   8  -5    1.08    1.31
   1   8  -4  700.60   37.71
   1   8  -4  748.62   41.59
   1   8  -4  644.58   33.74
   1   8  -3   39.57    5.66
   1   8  -2  426.51   27.46
  -1  -8   2  433.43   28.42
   1   8  -1  187.59   14.06
  -1  -8   1  162.01   13.04
  -1  -8   0    0.52    3.42
   2  -8  -1  385.75   26.01
  -2   8   0    1.71    2.28
   2  -8   0    0.10    1.58
  -2   8  -1   59.47    5.53
  -2   8  -2 1047.98   61.89
  -2   8  -3   47.32   12.40
  -2   8  -3   50.13    8.83
  -2   8  -4   65.37   17.96
  -2   8  -4   77.01   15.71
  -2   8  -5  231.86   26.85
  -2   8  -6   89.45   16.90
   2  -7  -3    8.56    4.35
   2  -7  -3   18.73    5.02
  -2   7   2   14.94    2.51
   2  -7  -2   15.38    3.55
   2  -7  -2   13.42    3.70
  -2   7   1  561.39   30.61
   2  -7  -1  579.26   32.51
   2  -7  -1  656.11   35.28
  -2   7   0   50.93    4.73
   2  -7   0   34.50    4.60
   2  -7   0   43.78   10.11
  -2   7  -1  745.99   38.65
  -2   7  -1  732.82   36.97
   2  -7   1  707.30   36.07
  -2   7  -2   50.42   12.19
  -2   7  -2   49.81    5.27
  -2   7  -2   45.83    8.01
  -2   7  -3  143.51   15.18
  -2   7  -3  145.07   10.62
  -2   7  -3  140.84   15.67
  -2   7  -4 1171.94   58.62
  -2   7  -4 1008.50   51.43
  -2   7  -4 1011.46   57.87
  -2   7  -5  272.22   21.91
  -2   7  -5  281.62   18.33
  -2   7  -5  299.65   24.39
  -2   7  -6   29.56   10.52
  -2   7  -6   41.91    5.35
  -2   7  -6   40.79    9.20
  -2   7  -7  452.18   28.74
  -2   7  -7  431.02   28.73
   2  -6  -5  277.31   17.53
  -2   6   4   22.81    2.84
   2  -6  -4   19.34    3.54
   2  -6  -4   23.58    4.95
  -2   6   3   12.43    2.33
   2  -6  -3   12.59    2.92
   2  -6  -3   17.07    3.62
   2  -6  -2 1447.41   52.51
   2  -6  -1  124.05   10.78
   2  -6   0   70.34    6.38
   2  -6   0   65.87    8.09
  -2   6  -1 1147.99   42.47
   2  -6   1 1265.98   47.14
  -2   6  -2  649.14   28.66
  -2   6  -2  569.88   23.09
   2  -6   2  561.21   22.46
  -2   6  -3   27.42    8.29
  -2   6  -3   29.77    5.49
  -2   6  -4   17.34    4.59
  -2   6  -4   22.94    4.45
  -2   6  -4   24.63    3.75
  -2   6  -5  482.44   22.73
  -2   6  -5  455.49   20.42
  -2   6  -5  435.75   23.67
  -2   6  -6   85.25   14.27
  -2   6  -6   81.45    7.10
  -2   6  -6   92.95   15.45
  -2   6  -7  175.38   12.33
  -2   6  -7  207.68   15.95
  -2   6  -7  165.91   22.50
  -2   6  -8   49.38    5.28
  -2   6  -8   63.59   14.48
  -2   5   6    0.51    1.42
   2  -5  -6    3.18    2.48
   2  -5  -6    2.60    1.66
   2  -5  -5 1148.55   57.13
   2  -5  -5  843.95   42.74
  -2   5   4  216.69    9.97
   2  -5  -4  223.60   12.13
  -2   5   3   19.73    2.70
   2  -5  -3    4.95    1.71
   2  -5  -3   17.13    3.66
  -2   5   2  520.68   20.61
   2  -5  -2  500.54   20.78
   2  -5  -2  516.00   21.60
  -2   5   1  306.09   12.14
   2  -5  -1  320.44   13.61
   2  -5  -1  339.74   13.18
  -2   5   0   79.31    5.63
   2  -5   0   77.24    6.63
  -2   5   0   87.42   10.22
   2  -5   0   73.21    5.08
  -2   5  -1   26.88    3.71
  -2   5  -1   34.50    6.06
   2  -5   1   39.37    7.97
  -2   5  -2   19.83    6.38
  -2   5  -2    3.91    2.29
  -2   5  -2    7.28    1.69
   2  -5   2    5.39    2.25
  -2   5  -3  484.96   18.16
  -2   5  -3  479.94   19.12
  -2   5  -3  498.48   26.31
  -2   5  -4  892.11   30.53
  -2   5  -4  827.03   29.30
  -2   5  -4  809.94   28.27
  -2   5  -5    4.76    2.43
  -2   5  -5    1.23    2.34
  -2   5  -5   17.04    2.83
   2  -5   6  257.95   11.95
  -2   5  -6  218.94   11.78
  -2   5  -6  272.51   26.13
   2  -5   7 1064.76   55.52
  -2   5  -7 1182.13   59.38
  -2   5  -7 1414.74   70.33
   2  -5   8    4.06    1.75
  -2   5  -8    1.18    1.89
  -2   5  -8   -1.29    1.85
  -2   5  -9   22.63    4.92
   2  -4  -8  554.61   33.70
  -2   4   7   39.69    3.46
   2  -4  -7   31.63    3.38
  -2   4   6  471.92   24.21
   2  -4  -6  453.47   23.82
  -2   4   5   21.16    2.49
   2  -4  -5   27.19    2.85
   2  -4  -5   22.37    2.44
  -2   4   4  287.38   12.09
   2  -4  -4  288.58   12.98
   2  -4  -4  295.71   13.36
  -2   4   3  852.40   27.35
   2  -4  -3  829.60   27.58
   2  -4  -3  889.17   29.91
  -2   4   2  732.44   28.70
   2  -4  -2  712.08   28.67
   2  -4  -2  758.50   31.51
  -2   4   1   28.90    2.78
   2  -4  -1   31.44    4.00
   2  -4  -1   32.38    6.97
  -2   4   0  289.50    9.89
   2  -4   0  267.29   10.90
  -2   4   0  270.62    9.17
   2  -4   0  281.64   10.63
  -2   4  -1 2257.70   85.01
  -2   4  -1 2554.07   96.07
  -2   4  -1 2522.26   94.54
   2  -4   1 2840.83   95.89
  -2   4  -2  113.17    9.70
  -2   4  -2  120.87    7.00
  -2   4  -2  129.23   11.73
   2  -4   2  118.92    5.81
  -2   4  -3   11.49    2.00
  -2   4  -3    3.83    2.34
  -2   4  -3   11.99    2.06
   2  -4   4 1972.08   60.62
  -2   4  -4 1798.90   58.11
  -2   4  -4 1882.66   58.59
   2  -4   5    5.29    2.16
  -2   4  -5    5.68    2.66
  -2   4  -5    2.37    0.89
   2  -4   6  594.82   28.76
  -2   4  -6  510.19   21.25
  -2   4  -6  622.78   25.56
   2  -4   7  164.51    6.73
  -2   4  -7  149.57    7.07
  -2   4  -7  200.85   11.09
   2  -4   8    1.14    0.98
  -2   4  -8    3.08    2.31
  -2   4  -8    4.32    2.79
  -2   4  -9  605.89   37.13
  -2   4  -9  717.01   43.54
  -2   3   8  238.47   15.49
   2  -3  -8  182.01   12.39
  -2   3   7   57.93    4.08
   2  -3  -7   49.25    3.98
  -2   3   6  554.19   21.11
   2  -3  -6  518.89   20.30
  -2   3   5 1740.85   62.06
   2  -3  -5 1693.35   60.79
  -2   3   4   13.31    1.93
   2  -3  -4   10.63    2.19
  -2   3   3   27.38    2.43
   2  -3  -3   29.71    3.00
   2  -3  -3   26.12    7.05
  -2   3   2 1768.98   66.12
   2  -3  -2 1821.54   68.57
   2  -3  -2 1930.18   72.41
  -2   3   1  156.46    7.30
   2  -3  -1  157.05    8.14
   2  -3  -1  157.42    9.41
  -2   3   0  936.45   23.83
   2  -3   0  907.59   24.62
  -2   3   0  940.52   23.58
   2  -3   0  929.53   23.61
  -2   3  -1  782.81   23.06
  -2   3  -1  739.55   20.29
  -2   3  -1  744.65   20.34
   2  -3   1  781.24   20.55
  -2   3  -2   68.42    7.20
  -2   3  -2   76.31    5.82
  -2   3  -2   75.50    5.17
   2  -3   2   73.69    4.82
   2  -3   3 2235.34   84.13
  -2   3  -3 2252.12   84.82
  -2   3  -3 2085.42   78.90
   2  -3   4  120.31    5.88
  -2   3  -4  104.87    5.42
  -2   3  -4  128.91    8.87
   2  -3   5    1.44    0.83
  -2   3  -5    3.69    2.09
  -2   3  -5    6.35    2.84
   2  -3   6  714.57   27.50
  -2   3  -6  640.74   25.03
  -2   3  -6  751.27   29.71
   2  -3   7  533.64   21.82
  -2   3  -7  519.16   21.04
  -2   3  -7  577.81   23.92
   2  -3   8   64.26    9.88
  -2   3  -8   65.96    5.12
  -2   3  -8   77.06    5.64
   2  -3   9  122.10   11.57
  -2   3  -9  141.70   10.81
  -2   2   9   45.89    4.07
   2  -2  -9   44.48    3.96
  -2   2   8  883.52   43.60
   2  -2  -8  917.80   45.55
  -2   2   7   77.91    4.11
   2  -2  -7   70.28    3.91
  -2   2   6   26.27    2.63
   2  -2  -6   11.21    1.80
  -2   2   5  398.13   13.49
   2  -2  -5  381.46   13.30
  -2   2   4  238.40    7.16
   2  -2  -4  236.35    7.56
  -2   2   3 1626.94   38.12
   2  -2  -3 1662.41   39.37
  -2   2   2  150.53    6.48
   2  -2  -2  143.60    6.79
   2  -2  -2  149.61    7.33
  -2   2   1  209.17    8.63
   2  -2  -1  207.87    9.28
   2  -2  -1  220.29   11.23
  -2   2   0 3321.84   76.56
  -2   2   0 3252.69   75.11
   2  -2   0 3427.36   79.26
  -2   2  -1 1018.47   25.35
  -2   2  -1  964.44   24.73
  -2   2  -1 1097.56   26.92
   2  -2   1 1082.28   26.85
   2  -2   2   33.61    5.81
  -2   2  -2   36.27    5.24
  -2   2  -2   37.93    6.89
   2  -2   2   30.05    3.05
   2  -2   3  458.94   18.52
  -2   2  -3  476.21   12.79
  -2   2  -3  481.17   13.82
   2  -2   4  945.73   36.29
  -2   2  -4  930.81   35.76
  -2   2  -4  959.14   37.86
   2  -2   5  291.40   15.45
  -2   2  -5  242.47   10.22
  -2   2  -5  259.79   11.79
   2  -2   6   28.53    6.43
  -2   2  -6   30.45    3.34
   2  -2   7  137.34    5.49
  -2   2  -7  124.14    5.59
   2  -2   8  549.86   28.71
  -2   2  -8  518.87   26.97
   2  -2   9  324.30   20.31
  -2   2  -9  316.75   20.30
  -2   1  10  200.16   13.29
   2  -1 -10  182.60   12.61
  -2   1   9  319.20   17.90
   2  -1  -9  294.08   16.79
  -2   1   8   13.98    1.96
   2  -1  -8    7.42    1.65
  -2   1   7  537.66   20.51
   2  -1  -7  538.04   20.75
  -2   1   6 1019.30   31.69
   2  -1  -6 1066.25   33.24
  -2   1   5    3.64    1.64
   2  -1  -5    0.23    1.20
  -2   1   4   38.31    2.45
   2  -1  -4   37.94    2.71
  -2   1   3 1717.41   39.57
   2  -1  -3 1718.04   39.81
  -2   1   2  133.21    5.34
   2  -1  -2  136.98    5.77
  -2   1   1  767.91   17.89
   2  -1  -1  738.23   18.09
   2  -1  -1  856.81   21.65
  -2   1   0  262.55   10.46
  -2   1   0  236.06    9.70
   2  -1   0  248.66   10.58
   2  -1   1  114.62    5.04
  -2   1  -1  114.69    4.99
  -2   1  -1  113.69    5.50
   2  -1   1  111.50    9.18
   2  -1   2 1700.20   39.85
  -2   1  -2 1497.94   35.06
  -2   1  -2 1493.22   36.07
   2  -1   3  337.89   13.68
  -2   1  -3  349.88   14.15
  -2   1  -3  329.72   14.37
   2  -1   4  397.11   16.08
  -2   1  -4  406.46   16.51
  -2   1  -4  368.39   14.86
   2  -1   5 2113.12   64.00
  -2   1  -5 2175.06   65.91
   2  -1   6  939.61   34.57
  -2   1  -6  960.73   35.56
   2  -1   7   85.97    9.11
  -2   1  -7   90.47    4.85
   2  -1   8   80.65    7.67
  -2   1  -8   74.18    4.53
  -2   1  -9  464.81   28.37
  -2   0  10   74.02    7.93
  -2   0   9  891.31   43.96
   2   0  -9  921.04   45.51
  -2   0   8   21.95    2.26
   2   0  -8   19.64    2.32
  -2   0   7  436.97   14.94
   2   0  -7  440.40   15.05
  -2   0   6  474.92   18.79
   2   0  -6  467.26   18.55
  -2   0   5  221.66    6.44
   2   0  -5  222.47    6.54
  -2   0   4 2651.83   60.71
   2   0  -4 2816.82   64.36
  -2   0   3  638.31   15.13
   2   0  -3  633.94   14.96
   2   0  -2  107.08    4.13
   2   0  -1 2559.35   58.89
   2   0   0 2007.00   45.59
  -2   0   0 1754.95   39.90
  -2   0   0 1741.70   40.63
   2   0   0 1773.33   41.41
   2   0   1  317.10   12.20
  -2   0  -1  317.71   12.25
  -2   0  -1  304.68   12.16
   2   0   1  284.64   11.61
   2   0   2 1102.76   26.12
  -2   0  -2 1111.13   26.41
  -2   0  -2 1089.47   26.86
   2   0   3 1855.33   43.37
  -2   0  -3 1904.41   44.69
  -2   0  -3 1788.02   43.02
   2   0   4  512.99   20.26
  -2   0  -4  521.75   20.71
   2   0   5  284.54   11.26
  -2   0  -5  295.33   12.49
  -2   0  -6  362.20   14.96
   2   0   7    7.80    2.04
  -2   0  -7    4.66    2.02
  -2   0  -8  850.98   44.68
  -2   0  -9   14.94    2.96
  -2  -1  11    2.01    1.50
  -2  -1  10  608.51   32.38
   2   1 -10  594.08   31.63
  -2  -1   9    5.06    2.43
   2   1  -9    8.13    1.67
  -2  -1   8  135.15    9.61
   2   1  -8  114.95    6.08
  -2  -1   7 1591.03   49.50
   2   1  -7 1534.40   46.94
  -2  -1   6 1069.23   41.21
   2   1  -6 1031.49   39.12
  -2  -1   5  140.68    5.28
   2   1  -5  169.23    5.58
  -2  -1   4 1020.57   24.37
   2   1  -4 1033.19   24.40
  -2  -1   3  802.93   20.41
   2   1  -3  774.14   18.24
   2   1  -2    9.06    1.56
   2   1  -2    3.56    1.58
   2   1  -1   18.01    1.23
  -2  -1   1   14.15    1.38
   2   1  -1   22.16    3.86
   2   1   0  822.27   19.35
  -2  -1   0  750.98   18.04
   2   1   0  763.50   18.52
   2   1   1  904.98   21.53
  -2  -1  -1  950.85   22.83
  -2  -1  -1  887.34   21.20
   2   1   2 1172.42   27.91
  -2  -1  -2 1202.13   28.87
  -2  -1  -2 1175.46   28.89
   2   1   3    3.43    1.41
  -2  -1  -3    4.63    1.29
  -2  -1  -3    3.70    1.45
   2   1   4   69.04    3.90
  -2  -1  -4   66.32    4.04
   2   1   5 1891.62   57.68
  -2  -1  -5 1956.10   59.91
   2   1   6  163.62    5.56
  -2  -1  -6  180.87    8.85
   2   1   7   11.85    2.34
  -2  -1  -7   12.07    2.47
   2   1   8  581.85   34.53
  -2  -1  -8  629.69   37.83
   2   2 -11   15.20    3.25
  -2  -2  10  738.38   38.84
   2   2 -10  700.54   36.88
  -2  -2   9  250.80   15.82
   2   2  -9  253.28   11.09
  -2  -2   8  307.00   14.63
   2   2  -8  336.69   13.84
  -2  -2   7   84.99    5.21
   2   2  -7   97.37    5.30
  -2  -2   6  106.66    5.57
   2   2  -6  116.66    4.75
  -2  -2   5  696.65   27.54
   2   2  -5  690.07   26.55
  -2  -2   4  435.47   17.51
   2   2  -4  514.27   13.61
   2   2  -3   35.29    2.86
   2   2  -3   40.45    3.75
   2   2  -2  568.41   14.79
  -2  -2   2  607.67   16.26
   2   2  -1 2751.06   63.30
  -2  -2   1 2624.96   60.72
   2   2  -1 2485.27   56.53
   2   2   0    9.23    1.31
  -2  -2   0   14.03    1.85
   2   2   1   17.48    1.76
  -2  -2  -1   15.00    2.20
   2   2   2 1732.73   64.72
  -2  -2  -2 1753.60   65.76
  -2  -2  -2 1834.58   67.93
   2   2   3   71.13    3.75
  -2  -2  -3   77.79    4.45
   2   2   4  199.20    8.70
  -2  -2  -4  192.52    8.76
   2   2   5  276.64   12.20
  -2  -2  -5  258.59   11.60
  -2  -2  -6    0.43    1.48
  -2  -2  -7  741.63   39.50
  -2  -3  11  298.26   19.82
   2   3 -11  289.17   18.71
  -2  -3  10   13.84    3.77
   2   3 -10   13.16    2.28
  -2  -3   9   20.97    5.72
   2   3  -9   28.23    3.36
  -2  -3   8  903.73   34.44
   2   3  -8  895.19   33.28
  -2  -3   7  713.24   25.75
   2   3  -7  608.95   20.25
  -2  -3   6    2.06    0.87
   2   3  -6    3.10    1.68
   2   3  -5  309.09    9.80
   2   3  -5  284.07   11.23
   2   3  -4 2834.92   95.59
   2   3  -4 2524.61   95.13
   2   3  -3   97.73    5.35
   2   3  -3  104.77    6.25
   2   3  -2  500.64   14.04
  -2  -3   2  491.91   13.82
   2   3  -1 1337.43   32.49
  -2  -3   1 1304.48   32.12
   2   3   0   13.58    2.04
  -2  -3   0   20.10    2.82
   2   3   1 1999.13   74.75
  -2  -3  -1 1962.54   73.75
   2   3   2    4.41    2.27
  -2  -3  -2    2.51    1.96
   2   3   3   16.73    2.43
  -2  -3  -3   16.77    2.64
  -2  -3  -4 1849.46   66.66
   2   3   5  189.20    9.06
  -2  -3  -5  184.77    9.21
   2   3   6   49.40    4.28
  -2  -3  -6   45.32    4.07
  -2  -3  -7  275.13   18.09
  -2  -4  11   63.85   23.61
  -2  -4  10  771.54   45.88
  -2  -4   9   37.64   11.45
   2   4  -9   32.65    3.35
  -2  -4   8   70.59    9.87
   2   4  -8   70.58    4.57
   2   4  -7  937.69   35.05
   2   4  -6   28.61    6.97
   2   4  -6   26.85    3.94
   2   4  -5 1577.24   48.92
   2   4  -5 1494.33   48.39
   2   4  -4  153.64    9.98
   2   4  -4  149.28    7.76
   2   4  -3    3.49    2.76
   2   4  -2 2189.44   82.46
  -2  -4   2 2275.63   85.85
   2   4  -2 1909.05   70.56
   2   4  -1  281.54    9.55
  -2  -4   1  289.43   10.22
   2   4   0    2.91    1.63
  -2  -4   0    5.28    2.53
   2   4   1  803.05   26.18
  -2  -4  -1  853.68   28.41
   2   4   2  941.82   34.91
  -2  -4  -2  963.96   36.18
   2   4   3  243.46   11.11
  -2  -4  -3  237.89   11.38
   2   4   4    0.64    1.37
  -2  -4  -4    0.18    1.55
   2   4   5  193.86   11.71
  -2  -4  -6   99.57    8.28
   2   5 -10   21.94    3.31
   2   5  -9   64.37    4.80
   2   5  -9   68.32    6.54
   2   5  -8 1100.15   54.47
   2   5  -8  918.89   47.14
   2   5  -7   17.25    3.61
   2   5  -7   15.74    3.19
   2   5  -6   35.92    5.37
   2   5  -6   29.84    4.63
   2   5  -5  785.61   26.39
   2   5  -5  739.33   26.84
   2   5  -4   91.72    5.82
   2   5  -4   81.29    6.58
   2   5  -3   29.20    3.55
  -2  -5   3   19.96    3.06
   2   5  -3   28.83    2.34
   2   5  -2   85.38    6.28
  -2  -5   2   92.35    6.40
   2   5  -2   89.98    5.07
   2   5  -1  103.70    6.54
  -2  -5   1  116.33    7.28
   2   5   0  740.09   28.59
  -2  -5   0  703.70   27.53
   2   5   1  161.12    8.37
   2   5   2  152.23    6.21
  -2  -5  -2  155.23    7.17
   2   5   3  538.07   27.76
  -2  -5  -3  572.78   30.06
   2   5   4  561.95   30.26
  -2  -5  -4  806.74   43.15
  -2  -5  -5   18.76    3.81
   2   6  -9   16.55    3.05
   2   6  -9   16.91    4.55
   2   6  -8  269.02   16.15
   2   6  -8  259.44   17.06
   2   6  -7   41.03   10.59
   2   6  -7   65.60    6.62
   2   6  -6  401.89   18.90
   2   6  -5    9.00    2.33
   2   6  -5   10.90    3.13
   2   6  -4    8.39    2.30
   2   6  -4   18.87    2.19
   2   6  -3  945.56   36.92
   2   6  -3  925.51   33.28
   2   6  -1  134.78    6.81
   2   6   0  645.55   25.62
  -2  -6   0  639.22   26.00
   2   6   1  921.39   46.22
  -2  -6  -1  890.73   45.36
   2   6   2   76.46    5.17
  -2  -6  -2   80.83    6.27
  -2  -6  -3    7.60    3.48
   2   7  -9  610.36   37.13
   2   7  -8  137.79   18.56
   2   7  -7   81.34   13.00
   2   7  -7   95.35    7.82
   2   7  -7   92.29    5.18
   2   7  -6  450.36   24.80
   2   7  -6  506.33   29.61
   2   7  -6  493.64   26.52
   2   7  -5  701.20   36.21
   2   7  -5  681.79   36.91
   2   7  -5  685.35   34.15
   2   7  -4  188.22   13.27
   2   7  -4  223.37   14.73
   2   7  -4  235.07   12.47
  -2  -7   3   17.12    3.39
   2   7  -2  622.71   33.21
  -2  -7   2  611.05   32.84
   2   7  -1  163.05   11.52
  -2  -7   1  159.85   11.94
   2   7   0  293.15   17.88
  -2  -7   0  296.28   18.67
   2   7   1   35.17    4.01
  -2  -7  -1   34.69    4.51
   2   8  -7  109.07   13.86
   2   8  -6  135.68   19.51
   2   8  -5   38.30   13.80
   2   8  -5   51.55    5.76
   2   8  -5   52.78   10.75
   2   8  -4   74.92   10.29
   2   8  -4  105.31    9.68
   2   8  -3  577.90   36.06
  -2  -8   3  630.76   39.83
  -2  -8   2   38.45    5.24
  -3   8   0   15.21    2.85
  -3   8   0   13.99    2.92
  -3   8  -1  262.74   29.47
  -3   8  -1  240.78   16.59
   3  -8   1  218.47   15.33
  -3   8  -2  175.16   16.93
  -3   8  -2  161.85   12.70
  -3   8  -2  140.51   18.62
  -3   8  -3  354.11   24.50
  -3   8  -3  352.78   23.39
  -3   8  -3  305.56   25.25
  -3   8  -4    0.49    1.86
  -3   8  -4    1.80    2.34
  -3   7   3  160.81   11.30
   3  -7  -3  131.06   11.15
   3  -7  -3  150.09   14.55
  -3   7   2   49.57    4.18
   3  -7  -2   32.57    4.64
   3  -7  -2   39.22   10.38
  -3   7   1  264.43   15.86
   3  -7  -1  228.77   15.73
   3  -7  -1  241.32   18.29
  -3   7   0  771.08   41.10
   3  -7   0  769.64   42.34
  -3   7  -1   18.14    3.56
  -3   7  -1   10.76    2.41
   3  -7   1    5.71    2.57
  -3   7  -2   16.53    4.20
  -3   7  -2   15.57    2.90
   3  -7   2   12.82    2.93
  -3   7  -3  561.32   31.83
  -3   7  -3  509.76   37.42
  -3   7  -4  168.73   11.81
  -3   7  -4  141.92   10.54
  -3   7  -4  138.33   18.82
  -3   7  -5   72.98   18.23
  -3   7  -5   96.88    9.06
  -3   7  -5   73.11   15.50
  -3   7  -6   23.15    7.05
  -3   7  -6   24.64    5.03
   3  -6  -5    2.70    1.31
  -3   6   4  166.99   11.37
   3  -6  -4  142.71   10.93
   3  -6  -4  159.10   13.63
  -3   6   3  639.33   33.77
   3  -6  -3  701.42   38.21
   3  -6  -3  565.71   30.78
  -3   6   2   17.38    2.44
   3  -6  -2    9.09    2.32
   3  -6  -2   23.33    5.79
  -3   6   1   48.84    3.96
   3  -6  -1   47.59    4.92
   3  -6  -1   52.81    8.56
  -3   6   0  280.87   12.94
   3  -6   0  267.99   23.83
  -3   6  -1   23.04    5.62
  -3   6  -1   18.80    3.11
  -3   6  -1   15.22    1.94
   3  -6   1   23.91    5.33
  -3   6  -2 1170.71   44.85
  -3   6  -2 1113.81   42.03
  -3   6  -2 1065.16   39.58
   3  -6   2 1082.78   40.68
  -3   6  -3    0.94    1.67
  -3   6  -3    7.39    3.08
  -3   6  -3    0.30    0.77
  -3   6  -4   31.19    7.11
  -3   6  -4   25.84    3.97
  -3   6  -4   25.28    4.58
  -3   6  -5 1135.03   58.39
  -3   6  -5 1001.58   59.65
  -3   6  -6  165.79   20.58
  -3   6  -6  165.70   12.50
  -3   6  -6  153.54   19.05
  -3   6  -7   57.53    5.82
  -3   6  -7   69.37    7.27
   3  -5  -6  312.51   20.08
   3  -5  -6  341.77   21.37
  -3   5   5    1.03    1.11
   3  -5  -5    0.81    1.74
   3  -5  -5    1.69    1.03
  -3   5   4  825.78   40.80
   3  -5  -4  752.64   38.24
   3  -5  -4  800.44   41.39
  -3   5   3   13.33    2.10
   3  -5  -3   12.42    2.96
   3  -5  -3    8.25    1.64
  -3   5   2   11.45    2.18
   3  -5  -2   14.08    4.24
  -3   5   1 2095.93   74.86
   3  -5  -1 2210.54   25.61
  -3   5   0  418.03   17.26
  -3   5   0  464.04   19.01
  -3   5   0  454.76   18.53
   3  -5   0  422.52   18.54
  -3   5  -1  152.01   13.83
  -3   5  -1  173.23    9.31
  -3   5  -1  138.87    8.87
   3  -5   1  143.01   11.56
  -3   5  -2 1147.55   44.29
  -3   5  -2 1147.43   43.35
   3  -5   2 1236.07   46.23
  -3   5  -3  648.17   26.09
  -3   5  -3  662.03   27.07
  -3   5  -3  630.78   27.36
  -3   5  -4  287.38   16.03
  -3   5  -4  297.58   14.53
  -3   5  -4  306.18   21.74
  -3   5  -5    6.52    3.23
  -3   5  -5    1.77    2.27
  -3   5  -5    6.08    2.46
   3  -5   6  261.31   14.91
  -3   5  -6  242.89   14.99
  -3   5  -6  257.65   24.02
   3  -5   7  140.51   17.68
  -3   5  -7  107.51    6.93
  -3   5  -7  120.23   18.81
  -3   5  -8  469.52   29.75
   3  -4  -7  822.46   48.20
   3  -4  -6   44.26    3.57
   3  -4  -6   47.15   10.90
  -3   4   5    2.87    1.08
   3  -4  -5    3.83    2.25
   3  -4  -5    0.75    0.99
  -3   4   4  835.60   30.80
   3  -4  -4  827.66   31.52
  -3   4   3  399.99   15.75
   3  -4  -3  361.25   15.37
   3  -4  -3  386.66   16.35
  -3   4   2  145.18    6.81
   3  -4  -2  137.93    8.05
   3  -4  -2  136.32    7.97
  -3   4   1  298.12   11.06
   3  -4  -1  316.65   13.59
   3  -4  -1  303.34   13.63
  -3   4   0  164.51   16.13
  -3   4   0  167.28    8.31
  -3   4   0  146.71    7.80
   3  -4   0  164.75   11.14
  -3   4  -1  378.93   18.49
  -3   4  -1  418.85   17.19
   3  -4   1  438.46   23.34
  -3   4  -2   88.19    9.17
  -3   4  -2   94.00    6.56
  -3   4  -2  108.26   10.79
   3  -4   2   91.56    5.96
  -3   4  -3   29.91    4.52
  -3   4  -3   27.84    4.27
  -3   4  -3   28.79    6.03
   3  -4   4  384.66   15.85
  -3   4  -4  361.17   15.83
  -3   4  -4  338.87   20.34
   3  -4   5 1309.70   50.12
  -3   4  -5 1083.34   40.99
  -3   4  -5 1160.37   53.31
   3  -4   6    5.44    2.03
  -3   4  -6    4.38    2.52
  -3   4  -6    7.89    2.41
   3  -4   7    8.78    1.93
  -3   4  -7   10.56    2.54
  -3   4  -7    8.21    2.22
   3  -4   8  833.41   49.40
  -3   4  -8  863.45   51.58
  -3   4  -8  570.42   36.95
  -3   3   8   77.86    4.50
   3  -3  -8   57.71    4.24
  -3   3   7  447.99   24.02
   3  -3  -7  361.75   19.96
  -3   3   6   26.82    2.36
   3  -3  -6   20.43    2.38
  -3   3   5  656.69   24.48
   3  -3  -5  605.35   23.25
   3  -3  -5  652.35   25.23
  -3   3   4   35.88    2.64
   3  -3  -4   21.40    2.59
   3  -3  -4   32.95    7.24
  -3   3   3    1.47    1.06
   3  -3  -3    7.61    2.44
   3  -3  -3    7.39    2.21
  -3   3   2 1037.29   39.25
   3  -3  -2 1002.39   39.20
   3  -3  -2 1066.09   41.27
  -3   3   1 1024.63   38.88
   3  -3  -1 1083.77   41.94
  -3   3   0    5.03    2.43
  -3   3   0    7.46    1.84
  -3   3   0   18.22    3.18
   3  -3   0   14.92    2.16
  -3   3  -1  379.36   15.02
  -3   3  -1  403.67   17.48
  -3   3  -1  400.15   17.05
   3  -3   1  412.79   25.48
  -3   3  -2 1401.70   53.62
  -3   3  -2 1217.31   47.44
  -3   3  -2 1288.06   49.52
   3  -3   2 1321.65   51.08
   3  -3   3   13.27    3.51
  -3   3  -3   14.67    2.56
  -3   3  -3    8.99    3.85
   3  -3   4  126.38    9.09
  -3   3  -4  126.89    6.65
  -3   3  -4  137.44    9.83
   3  -3   5  806.90   31.64
  -3   3  -5  805.26   30.53
  -3   3  -5  780.80   33.21
   3  -3   6   65.79    8.57
  -3   3  -6   76.09    4.71
  -3   3  -6   84.99   16.68
   3  -3   7  435.01   24.17
  -3   3  -7  455.71   24.40
  -3   3  -7  480.88   30.78
   3  -3   8   25.23    8.71
  -3   3  -8   35.15    3.82
  -3   3  -8   32.82    7.48
   3  -2  -9    4.43    2.99
  -3   2   8  516.92   27.29
   3  -2  -8  661.87   34.80
  -3   2   7  265.32   11.00
   3  -2  -7  223.05    9.84
  -3   2   6   40.71    3.01
   3  -2  -6   30.24    2.77
  -3   2   5  814.17   25.42
   3  -2  -5  756.18   24.17
  -3   2   4 1734.18   52.00
   3  -2  -4 1757.92   53.28
  -3   2   3  107.78    3.66
   3  -2  -3  107.33    4.65
   3  -2  -3  110.73    7.95
  -3   2   2    2.77    0.67
   3  -2  -2   -0.15    1.18
   3  -2  -2    1.63    1.70
  -3   2   1 1542.84   58.21
  -3   2   1 1605.53   59.59
   3  -2  -1 1710.08   64.50
  -3   2   0  275.15   10.09
  -3   2   0  278.67    8.25
  -3   2   0  263.05    9.57
   3  -2   0  263.74    8.76
  -3   2  -1 1268.86   47.60
  -3   2  -1 1228.16   47.28
   3  -2   1 1285.70   49.45
   3  -2   2  250.00   10.08
  -3   2  -2  254.72    7.60
  -3   2  -2  263.85   10.85
   3  -2   2  252.31    9.25
   3  -2   3  200.63   11.10
  -3   2  -3  184.94    6.35
  -3   2  -3  219.78    8.21
   3  -2   4 2242.42   68.13
  -3   2  -4 2245.81   68.02
  -3   2  -4 2268.89   70.25
   3  -2   5   21.59    4.38
  -3   2  -5   18.42    2.49
  -3   2  -5   22.24    3.53
   3  -2   6    2.44    0.82
  -3   2  -6    3.63    1.86
  -3   2  -6    1.53    1.14
   3  -2   7  868.92   43.57
  -3   2  -7  795.17   39.87
  -3   2  -8  145.08   10.56
  -3   2  -8  155.32   25.42
   3  -1  -9   85.63    4.59
  -3   1   8    9.24    1.81
   3  -1  -8    5.65    1.37
  -3   1   7  870.24   31.75
   3  -1  -7  864.23   31.80
  -3   1   6  253.15    9.76
   3  -1  -6  251.25   10.02
  -3   1   5  865.90   26.62
   3  -1  -5  838.77   26.04
  -3   1   4  734.33   27.62
   3  -1  -4  697.39   26.49
  -3   1   3  355.55   12.24
   3  -1  -3  324.10    8.38
   3  -1  -3  310.69    9.50
  -3   1   2 1975.03   45.34
   3  -1  -2 2191.09   51.98
   3  -1  -1   40.13    5.36
  -3   1   0   18.29    1.25
  -3   1   0   23.27    4.45
   3  -1   0   25.40    3.38
   3  -1   1 2064.80   76.52
  -3   1  -1 2486.87   91.86
  -3   1  -1 2066.44   77.51
   3  -1   1 2168.93   81.48
   3  -1   2  454.47   17.82
  -3   1  -2  465.59   18.18
  -3   1  -2  472.15   19.68
   3  -1   3   86.10    9.03
  -3   1  -3   76.34    3.57
  -3   1  -3   78.54    7.67
   3  -1   4  121.56   11.15
  -3   1  -4  122.61    5.89
  -3   1  -4  137.10   13.36
   3  -1   5  364.87   14.95
  -3   1  -5  367.07   14.81
  -3   1  -5  372.87   22.65
   3  -1   6  317.88   13.65
  -3   1  -6  305.79   20.28
   3  -1   7  154.96   10.77
  -3   1  -7  144.60    9.22
  -3   1  -7  146.65   10.15
   3  -1   8   64.49   14.61
  -3   1  -8   67.38    4.55
  -3   1  -8   70.49    5.49
   3   0 -10   85.20    4.85
  -3   0   9  291.61   16.55
   3   0  -9  294.78   16.44
  -3   0   8  756.69   29.27
   3   0  -8  850.36   30.98
  -3   0   7    2.20    0.86
   3   0  -7    0.48    0.91
  -3   0   6  501.08   17.04
   3   0  -6  501.46   16.18
  -3   0   5 1341.63   50.19
   3   0  -5 1322.70   49.27
  -3   0   4    1.03    0.55
   3   0  -4    0.80    0.65
   3   0  -2  749.30   19.92
   3   0  -1   20.63    4.20
   3   0   0 1237.97   28.67
  -3   0   0 1204.35   27.86
  -3   0   0 1170.51   28.27
   3   0   0 1145.56   28.18
   3   0   1   13.72    1.39
  -3   0  -1   14.35    1.32
  -3   0  -1   19.14    4.07
   3   0   1    8.98    1.65
   3   0   2   54.82    2.80
  -3   0  -2   58.04    2.93
  -3   0  -2   56.10    3.47
   3   0   3 1614.29   60.40
  -3   0  -3 1612.50   60.43
  -3   0  -3 1647.06   62.81
   3   0   4  537.12   17.76
  -3   0  -4  534.90   17.85
  -3   0  -4  527.57   20.48
   3   0   5   45.24    3.49
  -3   0  -5   47.03    3.53
  -3   0  -5   43.11   11.27
   3   0   6  468.83   18.42
  -3   0  -6  458.49   18.27
  -3   0  -6  450.28   18.85
   3   0   7  491.21   26.41
  -3   0  -7  569.00   30.45
  -3   0  -7  550.39   30.06
  -3   0  -8   84.43    5.62
  -3   0  -8   56.42    4.74
   3   1 -10   10.48    2.08
  -3  -1   9   11.22    2.30
   3   1  -9   12.86    2.00
  -3  -1   8  751.50   27.66
   3   1  -8  766.94   27.96
  -3  -1   7   31.95    6.78
   3   1  -7   27.99    2.33
  -3  -1   6  205.23    8.98
   3   1  -6  217.87    8.45
  -3  -1   5   77.52    5.77
   3   1  -5   84.31    3.11
   3   1  -4   29.96    1.54
   3   1  -3 2548.72   93.54
   3   1  -3 2535.31   93.28
   3   1  -2  320.23   12.19
   3   1  -2  339.08   12.57
   3   1  -2  356.86   15.32
  -3  -1   1   99.83    4.44
   3   1  -1   92.82    5.61
   3   1   0 2605.14   95.99
  -3  -1   0 2326.23   86.01
   3   1   0 2394.92   89.02
   3   1   1 1489.78   55.48
  -3  -1  -1 1323.45   49.59
  -3  -1  -1 1302.07   48.79
   3   1   2  347.74   12.80
  -3  -1  -2  352.87   13.27
  -3  -1  -2  316.36    9.50
   3   1   3  284.63   11.04
  -3  -1  -3  296.52   10.85
  -3  -1  -3  280.97   11.87
   3   1   4  809.04   29.81
  -3  -1  -4  853.03   31.70
  -3  -1  -4  785.26   29.93
   3   1   5  381.61   15.29
  -3  -1  -5  339.69   15.95
   3   1   6  217.95   12.25
  -3  -1  -6  196.39   11.66
   3   1   7   73.94    4.43
  -3  -1  -7   63.74    4.71
   3   2 -10   12.02    1.98
  -3  -2   9  924.30   45.54
   3   2  -9  921.91   45.19
  -3  -2   8   32.35    7.30
   3   2  -8   31.41    2.27
  -3  -2   7   26.93    8.05
   3   2  -7   45.81    3.13
  -3  -2   6 1792.48   56.29
   3   2  -6 1645.98   49.65
   3   2  -5  638.38   24.35
   3   2  -5  678.76   27.84
   3   2  -4  531.89   20.97
   3   2  -4  475.62   19.60
   3   2  -3  462.32   18.52
   3   2  -3  486.31   18.96
   3   2  -2  816.55   30.74
  -3  -2   2  823.91   31.61
   3   2  -2  808.26   30.70
   3   2  -1  942.80   35.37
  -3  -2   1  900.09   34.22
   3   2  -1  919.69   34.74
   3   2   0   12.27    1.44
  -3  -2   0   12.96    1.91
   3   2   0    5.85    1.05
   3   2   1  219.98    6.60
  -3  -2  -1  212.62    7.07
   3   2   2  486.31   16.07
  -3  -2  -2  498.21   16.91
  -3  -2  -2  485.21   15.62
   3   2   3 1570.12   56.14
  -3  -2  -3 1507.29   54.33
  -3  -2  -3 1478.60   52.34
   3   2   4   26.04    2.76
  -3  -2  -4   21.33    2.36
  -3  -2  -4   23.98    5.14
   3   2   5   23.98    2.56
  -3  -2  -5   27.79    3.18
  -3  -2  -5   23.48    5.20
   3   2   6 1080.95   55.76
  -3  -2  -6 1077.20   56.01
  -3  -2  -7   60.98    5.10
   3   3 -10   51.94    3.58
  -3  -3   9  532.61   28.64
   3   3  -9  509.29   25.98
  -3  -3   8  493.71   20.99
   3   3  -8  470.96   18.14
   3   3  -7  568.74   21.46
   3   3  -6   26.19    2.47
   3   3  -6   26.21    4.01
   3   3  -5  120.88    7.38
   3   3  -5  109.69    7.04
   3   3  -4  670.67   26.56
   3   3  -4  641.31   25.84
   3   3  -3  719.75   28.11
   3   3  -3  794.48   30.79
   3   3  -2   62.81    3.47
  -3  -3   2   57.49    4.01
   3   3  -2   52.96    3.28
   3   3  -1  301.38    8.79
  -3  -3   1  272.42    8.85
   3   3   0 1511.68   46.04
  -3  -3   0 1489.47   46.14
   3   3   1   43.80    3.27
  -3  -3  -1   45.65    3.89
   3   3   2   37.26    3.13
  -3  -3  -2   31.58    3.06
   3   3   3  601.28   22.70
  -3  -3  -3  603.19   23.31
  -3  -3  -3  554.18   19.49
   3   3   4    5.05    1.53
  -3  -3  -4   10.57    2.33
  -3  -3  -4    6.21    1.21
   3   3   5  423.70   23.37
  -3  -3  -5  391.13   21.99
   3   3   6   18.92    2.83
  -3  -3  -6   21.23    3.40
  -3  -4  10  549.04   33.08
   3   4 -10  546.12   32.69
   3   4  -9   42.96    3.41
   3   4  -8    4.26    1.20
   3   4  -8    8.64    2.91
   3   4  -7  493.97   19.17
   3   4  -7  507.25   21.76
   3   4  -6  702.01   26.90
   3   4  -6  651.29   26.98
   3   4  -5   16.94    4.01
   3   4  -5   15.61    2.97
   3   4  -4  189.85    8.67
   3   4  -4  209.88   10.12
   3   4  -3  898.83   29.14
  -3  -4   3 1010.40   33.39
   3   4  -2   18.72    2.57
  -3  -4   2   24.58    3.44
   3   4  -1  656.03   21.78
  -3  -4   1  628.22   21.60
   3   4   0  541.94   20.95
  -3  -4   0  504.26   20.22
   3   4   1   62.62    4.26
  -3  -4  -1   64.79    5.07
  -3  -4  -2 1333.49   48.49
   3   4   3    3.02    1.69
  -3  -4  -3    4.91    2.45
   3   4   4   17.23    2.80
  -3  -4  -4   13.67    2.50
   3   5 -10   50.68    4.16
   3   5 -10   59.95    6.78
   3   5  -9  425.42   25.81
   3   5  -9  472.38   29.99
   3   5  -8  119.23    8.13
   3   5  -8  109.48    7.38
   3   5  -7  146.18   18.23
   3   5  -7  153.73   11.28
   3   5  -6  399.23   16.54
   3   5  -6  357.90   16.77
   3   5  -5  148.29    7.75
   3   5  -5  191.90   10.91
   3   5  -4 1654.51   61.71
   3   5  -4 1673.59   61.49
   3   5  -3   41.62    4.01
  -3  -5   3   61.93    5.86
  -3  -5   2    2.16    1.51
   3   5  -1 1892.86   68.18
  -3  -5   1 1912.54   69.64
   3   5   0  119.92    5.54
  -3  -5   0  118.56    6.14
   3   5   1   59.77    4.34
  -3  -5  -1   68.28    5.21
   3   5   2  379.38   21.06
  -3  -5  -2  358.46   20.76
   3   5   3  152.78   10.88
  -3  -5  -3  143.50   11.08
   3   6  -9   49.82    4.29
   3   6  -9   49.02    6.09
   3   6  -8  107.76   17.46
   3   6  -8  122.36   10.81
   3   6  -7 1113.16   58.29
   3   6  -7 1123.48   21.58
   3   6  -6    9.61    2.30
   3   6  -6    9.10    2.67
   3   6  -5   11.17    5.83
   3   6  -5   15.65    3.22
   3   6  -4  660.36   33.52
   3   6  -4  744.69   36.21
   3   6  -3   78.78    5.50
  -3  -6   3  104.48    7.62
   3   6  -2  243.45   14.41
  -3  -6   2  233.09   14.46
   3   6  -1   -0.78    1.51
  -3  -6   1    1.15    1.94
   3   6   0   52.51    4.46
  -3  -6   0   43.88    4.90
   3   6   1  414.05   25.40
  -3  -6  -1  439.29   27.53
  -3  -6  -2  405.17   25.86
   3   7  -8   43.31   14.63
   3   7  -7   23.68    6.80
   3   7  -7   33.78    5.33
   3   7  -6    8.62    3.14
   3   7  -6    8.82    4.55
   3   7  -6    8.89    1.94
   3   7  -5  262.22   17.37
   3   7  -5  252.96   17.80
   3   7  -5  285.60   17.14
   3   7  -4   91.25    5.00
   3   7  -4   87.53    6.18
  -3  -7   3    3.80    3.49
  -3  -7   2  490.72   31.10
   3   7  -1  316.07   20.65
  -3  -7   1  334.87   22.61
  -3  -7   0   30.36    5.08
   4  -7  -2   76.29    7.56
   4  -7  -2   53.90   16.93
  -4   7   1  533.74   36.70
  -4   7   1  481.84   29.14
  -4   7   0  124.66   23.67
  -4   7   0  138.16   10.28
   4  -7   0  101.51   22.46
  -4   7  -1   67.03   14.87
  -4   7  -1   49.31    4.60
  -4   7  -1   69.54    5.08
   4  -7   1   78.43    5.99
  -4   7  -2  171.14   19.81
  -4   7  -2  171.96   25.00
   4  -7   2  174.71   12.69
  -4   7  -3  275.60   21.88
  -4   7  -3  276.20   18.45
  -4   7  -4  694.72   45.30
   4  -6  -4  176.24   13.14
   4  -6  -3  173.16   12.95
   4  -6  -3  190.68   13.64
  -4   6   2  723.54   37.94
   4  -6  -2  666.25   36.99
   4  -6  -2  692.47   37.60
  -4   6   1   12.28    2.47
  -4   6   1   12.70    2.24
   4  -6  -1   10.80    3.44
  -4   6   0  139.35   15.61
  -4   6   0  120.94    8.32
   4  -6   0  123.49   16.96
  -4   6  -1  755.44   42.02
  -4   6  -1  857.88   45.40
  -4   6  -1  768.00   43.07
   4  -6   1  776.91   41.89
  -4   6  -2   10.31    1.91
  -4   6  -2    5.99    2.61
  -4   6  -2    7.12    1.79
   4  -6   2    4.69    2.21
  -4   6  -3    2.04    2.23
  -4   6  -3    3.21    1.83
  -4   6  -4  228.34   26.78
  -4   6  -4  253.58   16.03
  -4   6  -4  275.98   16.72
  -4   6  -5   50.42    5.54
  -4   6  -5   46.50    5.14
  -4   6  -6  153.84   12.48
  -4   5   5  466.53   27.52
   4  -5  -5  424.86   26.34
   4  -5  -5  467.65   30.01
  -4   5   4    1.04    1.06
   4  -5  -4    0.72    1.81
   4  -5  -4    2.35    1.15
  -4   5   3  125.71    4.74
   4  -5  -3  107.89    6.28
   4  -5  -3  112.89   11.09
  -4   5   2  473.05   23.94
   4  -5  -2  462.12   25.33
   4  -5  -2  336.22   20.84
  -4   5   1   25.39    5.08
  -4   5   1   17.53    2.30
   4  -5  -1   27.40    5.32
  -4   5   0  215.96   19.14
  -4   5   0  217.43   10.04
   4  -5   0  219.25   14.40
  -4   5  -1   79.42   13.89
  -4   5  -1  101.64    5.59
  -4   5  -1   93.42    8.91
   4  -5   1   88.66   11.80
  -4   5  -2    9.90    1.18
  -4   5  -2    4.51    2.68
  -4   5  -2   13.41    2.97
   4  -5   2    5.30    2.51
  -4   5  -3  698.85   38.97
  -4   5  -3  846.95   43.03
  -4   5  -3  883.70   45.80
  -4   5  -4  131.63    7.03
  -4   5  -4  125.59    7.13
  -4   5  -4  139.19   13.19
  -4   5  -5   11.66    3.11
  -4   5  -5   10.31    3.89
  -4   5  -5   14.97    3.16
  -4   5  -6  623.72   38.03
  -4   5  -7   93.66    8.90
  -4   4   7   48.99    3.73
   4  -4  -7   30.50    3.56
   4  -4  -7   26.43    7.26
   4  -4  -6    7.91    2.05
   4  -4  -6   18.15    4.35
   4  -4  -5  176.68   10.98
   4  -4  -5  189.00   14.05
  -4   4   4   87.98    3.60
   4  -4  -4   64.48    4.38
   4  -4  -4   79.18    6.68
  -4   4   3 1154.86   40.98
   4  -4  -3 1025.25   38.22
   4  -4  -3 1125.81   42.59
  -4   4   2    5.63    1.23
   4  -4  -2   12.87    2.53
  -4   4   1   15.40    2.47
  -4   4   1    6.80    1.52
   4  -4  -1   11.59    3.46
  -4   4   0 2280.68   18.50
  -4   4   0 2138.98   76.79
   4  -4   0 2221.97   23.09
  -4   4  -1  337.65   20.75
  -4   4  -1  423.25   17.40
  -4   4  -1  395.83   19.56
   4  -4   1  441.42   27.52
  -4   4  -2  172.12   13.89
  -4   4  -2  175.46    9.49
  -4   4  -2  192.95   11.91
   4  -4   2  175.48    9.50
  -4   4  -3  584.83   22.98
  -4   4  -3  584.68   23.52
  -4   4  -3  604.36   26.50
  -4   4  -4  367.04   15.75
  -4   4  -4  419.52   29.72
   4  -4   5  371.95   21.44
  -4   4  -5  341.81   19.01
  -4   4  -5  401.50   22.35
   4  -4   6    1.04    0.99
  -4   4  -6    6.52    2.90
  -4   4  -6    0.34    1.25
  -4   4  -7   90.52    8.38
   4  -3  -8    0.76    1.36
   4  -3  -7   30.44    3.59
  -4   3   6 1163.23   56.22
   4  -3  -6 1128.93   55.25
   4  -3  -6 1132.09   57.24
  -4   3   5   69.53    2.86
   4  -3  -5   60.83    3.71
   4  -3  -5   63.07    9.89
  -4   3   4  193.32    8.06
   4  -3  -4  162.80    8.19
   4  -3  -4  173.02   14.06
  -4   3   3 1358.11   48.07
   4  -3  -3 1233.97   45.34
   4  -3  -3 1397.69   51.30
  -4   3   2  181.04   13.10
  -4   3   2  201.13    8.27
   4  -3  -2  186.66   13.16
  -4   3   1  504.29   17.41
  -4   3   1  624.18   19.77
   4  -3  -1  670.83   25.30
  -4   3   0    7.33    2.68
  -4   3   0    1.27    1.60
  -4   3   0    3.58    1.72
   4  -3   0    4.79    2.22
  -4   3  -1  192.70    8.35
  -4   3  -1  163.35    7.96
  -4   3  -1  179.80   12.29
   4  -3   1  193.31   15.65
  -4   3  -2  861.66   31.73
  -4   3  -2  844.68   32.31
  -4   3  -2  920.61   36.24
   4  -3   2  907.24   34.82
   4  -3   3  293.63   16.33
  -4   3  -3  286.29   12.05
  -4   3  -3  275.50   14.39
   4  -3   4   39.08    7.65
  -4   3  -4   45.66    3.41
  -4   3  -4   51.19    9.36
   4  -3   5  240.14   13.93
  -4   3  -5  274.98   15.49
  -4   3  -5  252.29   18.84
   4  -3   6  939.87   49.12
  -4   3  -6  928.49   48.60
  -4   3  -6 1012.26   56.00
  -4   3  -7    2.82    2.49
  -4   3  -7    3.49    2.89
  -4   2   8   63.62    3.59
   4  -2  -8   52.98    3.47
  -4   2   7  283.36   15.26
   4  -2  -7  263.76   14.66
  -4   2   6  166.54    4.30
   4  -2  -6  155.88    4.93
  -4   2   5   71.08    3.67
   4  -2  -5   61.66    4.04
   4  -2  -5   62.21    4.57
  -4   2   4  866.96   30.79
   4  -2  -4  841.13   30.89
   4  -2  -4  871.13   32.85
   4  -2  -3  290.03   16.15
  -4   2   2   38.84    3.71
  -4   2   2   42.45    2.07
   4  -2  -2   41.73    9.01
  -4   2   1  715.50   21.82
  -4   2   1  687.50   20.93
   4  -2  -1  732.27   24.62
  -4   2   0  795.30   24.28
  -4   2   0  824.52   25.73
  -4   2   0  819.28   26.70
   4  -2   0  847.63   28.05
  -4   2  -1    6.85    1.22
  -4   2  -1    5.05    2.12
  -4   2  -1    7.66    1.68
   4  -2   1   11.56    2.79
   4  -2   2  149.90   10.39
  -4   2  -2  141.16    6.23
  -4   2  -2  154.61   12.04
   4  -2   2  128.72    7.26
   4  -2   3  827.28   31.80
  -4   2  -3  879.16   32.21
  -4   2  -3  975.70   37.27
   4  -2   4   45.74    9.20
  -4   2  -4   49.40    3.10
  -4   2  -4   61.10   13.90
   4  -2   5  206.43   12.86
  -4   2  -5  220.88   12.29
  -4   2  -5  239.78   16.66
   4  -2   6  104.85    9.75
  -4   2  -6  101.24    5.09
  -4   2  -6  115.79   15.29
  -4   2  -7   12.81    2.82
  -4   2  -7    9.29    2.86
   4  -1  -9    0.84    1.18
  -4   1   8    5.89    1.33
   4  -1  -8    3.87    1.11
  -4   1   7 1029.71   49.77
   4  -1  -7  994.26   48.22
  -4   1   6  199.27    8.04
   4  -1  -6  190.07    7.94
  -4   1   5    4.71    0.79
   4  -1  -5    1.11    0.77
   4  -1  -4  301.48    9.91
   4  -1  -4  324.04   13.24
   4  -1  -3  749.24   24.95
   4  -1  -2  183.45    8.56
   4  -1  -1    0.21    1.14
  -4   1   0  812.88   24.44
  -4   1   0  830.80   26.68
   4  -1   0  815.31   26.82
   4  -1   1  502.72   16.16
  -4   1  -1  538.96   18.67
   4  -1   1  552.28   19.49
   4  -1   2 1204.41   37.08
  -4   1  -2 1140.72   34.89
  -4   1  -2 1213.11   38.29
   4  -1   3  131.82   10.40
  -4   1  -3  134.13    6.34
  -4   1  -3  148.27   10.64
   4  -1   4  120.45   10.68
  -4   1  -4  114.07    4.40
  -4   1  -4  141.23   10.16
   4  -1   5 1458.81   70.72
  -4   1  -5 1279.90   62.23
  -4   1  -5 1489.60   20.97
   4  -1   6    3.17    1.23
  -4   1  -6    3.30    1.42
  -4   1  -6    4.87    2.19
  -4   1  -7    0.64    1.37
  -4   1  -7   -0.18    1.50
   4   0 -10  375.69   22.73
   4   0  -9  370.52   22.14
  -4   0   8  197.78   11.02
   4   0  -8  188.67   10.21
  -4   0   7    5.16    1.25
   4   0  -7    2.66    0.83
  -4   0   6  447.47   17.03
   4   0  -6  437.78   16.13
  -4   0   5  493.57   16.25
   4   0  -3  300.49   11.56
   4   0  -2  262.84    9.70
   4   0  -1 2970.53  100.01
   4   0   0    7.65    1.53
  -4   0   0    8.71    1.17
   4   0   0    6.34    1.15
   4   0   1    5.96    1.39
  -4   0  -1    5.78    1.14
  -4   0  -1    6.84    1.42
   4   0   1    7.69    2.35
   4   0   2  870.72   27.11
  -4   0  -2  797.36   25.02
  -4   0  -2  813.84   26.44
   4   0   3  147.50    6.81
  -4   0  -3  141.05    6.69
  -4   0  -3  153.09    7.58
   4   0   4  263.85   11.14
  -4   0  -4  259.13   10.98
  -4   0  -4  279.27   12.63
   4   0   5   51.52    3.43
  -4   0  -5   53.17    3.68
  -4   0  -5   46.91    7.91
   4   0   6   21.39    6.38
  -4   0  -6   29.72    3.31
  -4   0  -6   21.76    5.03
   4   0   7  340.33   22.32
  -4   0  -7  352.54   22.13
   4   1 -10  144.05    9.74
   4   1  -9   51.47    3.05
  -4  -1   8  290.71   16.29
   4   1  -8  296.08   15.14
  -4  -1   7 1140.04   40.92
   4   1  -7 1070.77   37.57
   4   1  -6   31.99    2.01
   4   1  -5  128.80    4.71
   4   1  -3    2.35    1.21
   4   1  -2  207.46    9.87
   4   1  -1  206.99    7.37
  -4  -1   1  172.67    6.62
   4   1  -1  186.32    8.23
   4   1   0   43.77    2.45
  -4  -1   0   38.31    2.57
   4   1   0   45.67    8.14
   4   1   1  822.89   25.40
  -4  -1  -1  781.80   24.58
  -4  -1  -1  791.81   24.86
   4   1   2  244.31   10.04
  -4  -1  -2  230.07    9.84
  -4  -1  -2  232.99   10.38
   4   1   3    7.05    1.50
  -4  -1  -3    7.35    1.38
  -4  -1  -3    7.82    1.56
   4   1   4  792.13   38.95
  -4  -1  -4  827.07   40.97
  -4  -1  -4  792.48   39.38
   4   1   5  500.13   26.62
  -4  -1  -5  504.89   27.29
  -4  -1  -5  468.56   26.08
  -4  -1  -6   53.33    4.11
   4   2  -9   45.40    2.89
  -4  -2   8    2.46    0.97
   4   2  -8   -0.20    0.64
   4   2  -7  292.21   11.21
   4   2  -7  307.15   14.37
   4   2  -6   39.02    2.36
   4   2  -6   33.96    3.62
   4   2  -5  725.79   25.80
   4   2  -5  661.27   24.26
   4   2  -4    4.11    0.61
   4   2  -4    6.69    0.99
   4   2  -3   19.25    1.29
   4   2  -3   18.93    3.92
   4   2  -2  880.65   26.49
  -4  -2   2  945.26   29.45
   4   2  -2  867.85   28.27
  -4  -2   1  442.61   14.77
   4   2  -1  459.50   15.92
   4   2   0   56.43    3.13
  -4  -2   0   60.86    3.95
   4   2   1 1056.77   37.97
  -4  -2  -1  955.45   34.88
   4   2   2  524.47   19.76
  -4  -2  -2  463.17   18.02
  -4  -2  -2  435.01   16.40
   4   2   3  306.07   12.40
  -4  -2  -3  283.89   12.15
   4   2   4   25.57    2.61
  -4  -2  -4   24.69    3.16
  -4  -2  -4   21.83    4.17
   4   2   5  190.19   12.48
  -4  -2  -5  184.07   12.69
  -4  -3  10   36.49    3.61
   4   3 -10   28.55    2.71
   4   3  -9   58.47    3.26
   4   3  -9   62.11    6.18
   4   3  -8 1224.26   59.25
   4   3  -8 1212.52   60.70
   4   3  -7   53.60    2.69
   4   3  -7   49.77    5.22
   4   3  -6    8.74    1.24
   4   3  -6   10.17    2.23
   4   3  -5 1050.00   37.75
   4   3  -5 1111.40   40.42
   4   3  -4  246.97   11.26
   4   3  -4  254.24    5.45
   4   3  -3  497.60   19.74
   4   3  -3  506.48   18.81
   4   3  -3  470.55   18.19
   4   3  -2  308.13   11.96
  -4  -3   2  281.46   11.87
   4   3  -2  274.82   12.00
   4   3  -1  308.43   11.97
  -4  -3   1  288.15   12.08
   4   3  -1  319.17   12.21
   4   3   0 1536.70   54.59
  -4  -3   0 1522.64   54.96
   4   3   1  171.92    4.89
  -4  -3  -1  162.61    5.72
   4   3   2  248.42   13.34
  -4  -3  -2  233.17   13.12
   4   3   3  528.34   28.03
  -4  -3  -3  486.46   26.43
   4   3   4  714.45   41.75
  -4  -3  -4  751.52   44.39
   4   4  -9  291.85   17.93
   4   4  -8  210.78   12.01
   4   4  -8  222.26   14.57
   4   4  -7  208.05   11.39
   4   4  -7  175.77   11.37
   4   4  -6  524.78   20.38
   4   4  -6  480.33   19.70
   4   4  -5   75.73    4.98
   4   4  -5   84.88    4.33
   4   4  -4   82.28    4.34
   4   4  -4   99.42    4.35
   4   4  -3  832.42   30.69
   4   4  -3  814.79   30.10
   4   4  -2  825.17   30.00
  -4  -4   2  736.04   27.73
   4   4  -2  723.57   25.24
   4   4  -1    7.62    1.67
  -4  -4   1    6.78    2.02
   4   4   0  122.39    4.59
  -4  -4   0  108.93    5.43
  -4  -4  -1  840.49   42.18
   4   4   2   19.07    2.66
  -4  -4  -2   16.13    2.68
   4   4   3  112.66    8.27
  -4  -4  -3  109.82    9.12
   4   5  -9  513.70   30.51
   4   5  -9  618.77   38.46
   4   5  -8  122.31    8.67
   4   5  -8  108.36    9.61
   4   5  -7    3.25    1.10
   4   5  -7    1.72    2.12
   4   5  -6  281.99   16.37
   4   5  -6  280.63   16.34
   4   5  -5  388.97   20.16
   4   5  -5  411.06   21.83
   4   5  -4   14.65    3.51
   4   5  -4   20.37    2.86
   4   5  -3    8.61    1.79
  -4  -5   3   15.35    3.03
   4   5  -2  331.90   17.67
  -4  -5   2  312.30   17.36
   4   5  -1   23.84    2.63
  -4  -5   1   31.31    4.11
   4   5   0  375.08   20.48
  -4  -5   0  369.84   21.18
  -4  -5  -1    8.35    3.20
   4   5   2   11.30    2.36
  -4  -5  -2    6.15    2.33
   4   6  -8  164.30   18.24
   4   6  -7  104.83   13.42
   4   6  -7  114.03    9.94
   4   6  -6  221.26   16.20
   4   6  -6  239.01   16.31
   4   6  -5   82.50   12.86
   4   6  -5   90.00    6.00
   4   6  -4  114.28   12.49
   4   6  -4  110.63    5.93
   4   6  -3  996.31   51.95
  -4  -6   3  982.25   52.40
   4   6  -2    0.38    1.64
  -4  -6   2    1.70    1.99
  -4  -6   1    8.43    3.13
   4   6   0  737.22   43.23
   4   7  -5    2.47    1.79
   4   7  -4   19.61    5.97
   4   7  -4   37.35    3.91
  -4  -7   3  314.38   22.02
  -5   6   1   38.42    6.95
   5  -6  -1   31.38    8.35
  -5   6   0  132.64   23.00
   5  -6   0  170.53   22.11
  -5   6  -2   84.88   16.06
   5  -6   2   91.79    8.63
  -5   6  -3  132.33   10.42
  -5   6  -3  151.24   11.29
   5  -5  -4  174.10   17.82
  -5   5   3  110.10   16.16
   5  -5  -3  125.28   19.01
  -5   5   2  493.60   30.27
   5  -5  -2  495.48   30.97
  -5   5   1  705.34   37.55
   5  -5  -1  611.05   35.13
  -5   5   0   21.79    3.61
   5  -5   0   19.68    5.15
  -5   5  -1   54.34    7.60
  -5   5  -1   56.11    3.99
  -5   5  -1   58.09    4.74
   5  -5   1   45.56   10.68
  -5   5  -2  762.93   40.34
  -5   5  -2  802.69   42.26
  -5   5  -2  864.10   47.88
   5  -5   2  783.64   42.45
  -5   5  -3    6.59    2.81
  -5   5  -4   48.29    4.80
   5  -4  -5  195.85   13.21
   5  -4  -5  200.61   19.89
   5  -4  -4  704.66   38.68
  -5   4   3   15.49    3.06
  -5   4   3   25.34    1.87
   5  -4  -3   21.51    3.95
  -5   4   2    0.40    0.91
  -5   4   2    1.68    0.97
   5  -4  -2    1.56    0.64
  -5   4   1  279.57   17.32
  -5   4   1  335.22   17.02
   5  -4  -1  322.67   24.01
  -5   4   0    7.93    1.67
  -5   4   0    4.76    1.35
   5  -4   0    9.06    2.66
  -5   4  -1  332.04   17.44
  -5   4  -1  342.77   18.09
  -5   4  -1  361.58   20.70
   5  -4   1  349.30   29.44
  -5   4  -2    0.38    0.88
  -5   4  -2   -0.74    1.48
  -5   4  -2    2.37    1.88
   5  -4   2    7.81    3.26
  -5   4  -3    3.52    1.66
  -5   4  -3    3.18    2.23
  -5   4  -3    3.05    2.15
  -5   4  -4  634.16   37.66
  -5   4  -5  114.83    9.63
   5  -3  -6  193.14   12.60
   5  -3  -6  189.84   20.90
   5  -3  -5   53.08    3.57
   5  -3  -5   83.79   14.63
   5  -3  -4   22.58    6.00
  -5   3   3   66.79    4.69
   5  -3  -3   82.68   10.08
  -5   3   2  952.17   33.06
   5  -3  -1   25.54    4.86
  -5   3   0    2.71    1.05
   5  -3   0    8.09    3.25
  -5   3  -1  916.44   32.71
  -5   3  -1  925.95   33.71
  -5   3  -1  959.31   35.86
   5  -3   1  970.26   37.45
  -5   3  -2  152.40    8.73
  -5   3  -2  132.09    5.68
  -5   3  -2  156.92   17.45
   5  -3   2  129.30    6.68
  -5   3  -3  147.51    8.71
  -5   3  -3  152.63   14.36
   5  -3   4  202.78   16.03
  -5   3  -4  214.55   12.64
   5  -3   5   68.74   11.22
  -5   3  -5   71.37    4.96
  -5   3  -5   65.44   17.16
   5  -2  -7    2.22    1.29
   5  -2  -7   -0.11    0.70
   5  -2  -6   57.64    3.30
   5  -2  -6   55.82    7.83
  -5   2   5 1232.74   58.65
   5  -2  -5 1231.85   60.88
   5  -2  -4   28.31    5.83
   5  -2  -3  203.66   21.71
   5  -2  -2  795.02   31.90
   5  -2  -1  127.97   12.88
  -5   2   0 1374.07   47.74
  -5   2  -1    2.73    1.42
   5  -2   2   41.46    5.70
  -5   2  -2   72.72   13.61
   5  -2   2   47.27    4.00
   5  -2   3  949.28   47.37
  -5   2  -3  887.03   43.35
  -5   2  -3 1000.78   50.70
   5  -2   4  468.49   25.79
  -5   2  -4  479.58   25.58
  -5   2  -4  535.20   30.58
   5  -2   5   38.37   10.56
   5  -1  -8  285.90   17.22
   5  -1  -7   26.72    2.03
   5  -1  -7   41.08    4.01
   5  -1  -6  520.50   28.73
   5  -1  -5   39.45    8.92
   5  -1  -4   48.13    7.04
   5  -1  -3 1178.96   44.63
   5  -1  -2  255.60   17.43
   5  -1  -1    7.08    1.81
  -5   1   0  564.98   20.09
   5  -1   0  535.94   21.90
   5  -1   1  784.61   28.42
  -5   1  -1  727.77   25.82
  -5   1  -1  765.86   28.66
   5  -1   1  739.58   28.93
   5  -1   2    3.94    0.80
  -5   1  -2    7.03    1.27
  -5   1  -2   19.78    5.30
   5  -1   3    1.41    0.79
  -5   1  -3    1.91    1.02
   5  -1   4  367.23   20.85
  -5   1  -4  381.97   20.68
   5  -1   5    9.44    3.14
  -5   1  -5   10.13    2.36
  -5   1  -5    6.39    1.88
   5   0  -8    5.18    0.97
   5   0  -6  655.70   33.45
   5   0  -5  272.51   12.47
   5   0  -4   38.27    8.25
   5   0  -3  168.85    8.90
   5   0  -2  145.81    7.98
   5   0  -1  120.90   17.03
   5   0   0  184.39    7.36
  -5   0   0  194.34    7.66
   5   0   0  192.07   10.21
   5   0   1  162.56    4.08
   5   0   1  162.88    6.46
   5   0   2  263.96   11.45
  -5   0  -2  277.78   11.12
  -5   0  -2  285.71   12.57
   5   0   3  879.41   43.74
  -5   0  -3  840.93   41.27
  -5   0  -3  925.24   45.67
   5   0   4   14.74    4.11
  -5   0  -4   19.38    2.35
  -5   0  -4   21.35    4.27
   5   0   5   19.41    6.42
  -5   0  -5   24.12    2.87
   5   1  -8  193.62   11.50
   5   1  -8  166.21   10.99
   5   1  -5  145.50    6.01
   5   1  -4  437.31   19.42
   5   1  -3  884.39   34.60
   5   1  -2   36.16    6.94
   5   1  -1  218.98    8.12
  -5  -1   1  232.91    8.79
   5   1  -1  248.66    8.65
   5   1   0 1556.25   54.00
  -5  -1   0 1624.89   12.23
   5   1   0 1581.32   56.78
   5   1   1   18.93    1.81
  -5  -1  -1   19.70    1.81
   5   1   2   10.89    1.56
  -5  -1  -2    9.03    1.58
   5   1   3  634.52   32.98
  -5  -1  -3  593.44   31.23
   5   1   4    4.75    1.34
  -5  -1  -4    5.87    1.75
   5   2  -8  134.63    8.16
   5   2  -8  107.22    7.63
   5   2  -7  250.05   13.21
   5   2  -5   61.08    3.90
   5   2  -3 1115.73   40.74
   5   2  -2   14.71    2.74
   5   2  -2   15.51    3.37
   5   2  -1  551.87   19.65
  -5  -2   1  483.27   18.04
   5   2  -1  490.62   20.57
   5   2   0  108.47    3.38
  -5  -2   0  109.24    4.32
   5   2   1    1.06    0.68
  -5  -2  -1    1.86    0.92
   5   2   2  695.21   35.80
  -5  -2  -2  651.87   34.17
   5   2   3  159.14   10.27
  -5  -2  -3  154.42   10.71
   5   2   4   12.49    2.11
   5   3  -8   40.75    3.06
   5   3  -7   70.85    2.27
   5   3  -7   66.28    3.19
   5   3  -6  103.25    2.57
   5   3  -6   92.62    2.83
   5   3  -5   91.01    2.30
   5   3  -5   86.45    4.59
   5   3  -4  651.96   31.38
   5   3  -4  713.20   34.14
   5   3  -4  686.02   34.28
   5   3  -3   49.55    4.90
   5   3  -3   47.12    7.20
   5   3  -2    1.01    0.68
  -5  -3   2    3.34    1.73
   5   3  -2    1.85    0.99
   5   3  -1  677.83   32.95
  -5  -3   1  642.27   32.08
   5   3   0  296.71   15.93
  -5  -3   0  255.40   14.55
   5   3   1   18.14    2.23
  -5  -3  -1   15.23    2.55
   5   3   2   57.47    3.46
  -5  -3  -2   64.48    4.86
   5   4  -8  103.68    6.98
   5   4  -8   79.40    4.53
   5   4  -7  675.63   38.65
   5   4  -6   26.91    1.89
   5   4  -6   23.69    2.21
   5   4  -5   14.54    2.22
   5   4  -5   27.65    2.16
   5   4  -5   15.72    4.45
   5   4  -4  516.79   26.91
   5   4  -4  593.17   30.56
   5   4  -4  531.95   28.01
   5   4  -3   97.53    6.34
   5   4  -3  126.38    7.49
   5   4  -3   99.43    7.00
   5   4  -2  385.73   20.31
  -5  -4   2  362.56   20.16
   5   4  -1   17.88    1.89
  -5  -4   1   18.66    2.77
   5   4   0   84.45    3.97
  -5  -4   0   84.67    5.28
   5   4   1  788.39   45.55
  -5  -4  -1  719.54   42.55
   5   5  -7   22.71    2.51
   5   5  -7   22.22    2.51
   5   5  -6   98.99    7.41
   5   5  -6  105.15    7.60
   5   5  -5  660.84   38.39
   5   5  -5  746.75   43.17
   5   5  -5  669.03   38.87
   5   5  -4   18.36    5.48
   5   5  -4   33.01    2.58
   5   5  -4   31.43    5.24
   5   5  -3   17.11    2.14
   5   5  -3   26.66    2.66
   5   5  -2  555.49   32.47
  -5  -5   2  528.88   32.10
   5   5  -1  434.57   25.86
   6  -4  -1  373.98   33.81
   6  -4   0  641.78   50.38
  -6   4  -1   98.23    6.66
   6  -4   1   92.84    8.82
  -6   4  -2   91.59    6.53
   6  -3  -4   39.23   10.37
   6  -3  -3  568.13   47.40
   6  -3  -2   94.21   13.05
   6  -3  -1   30.45    6.32
   6  -3   0  220.14   19.49
  -6   3  -2  517.12   29.96
  -6   3  -2  513.36   38.63
   6  -2  -5  130.90   16.96
   6  -2  -4  297.14   30.57
   6  -2  -3    3.95    1.65
   6  -2  -2  122.03   14.65
   6  -2  -1  582.48   43.42
   6  -2   0  114.48   17.81
  -6   2  -1   15.33    1.30
   6  -2   1   11.72    3.84
  -6   2  -2  248.40   14.88
  -6   2  -2  214.60   13.71
   6  -1  -5   12.27    3.50
   6  -1  -4  832.91   44.49
   6  -1  -3    9.89    2.37
   6  -1  -2  252.99   19.43
   6  -1  -1  173.69   16.64
   6  -1   0   26.32    4.90
   6  -1   1  772.07   46.00
   6  -1   2    7.92    2.45
  -6   1  -2   11.00    1.49
  -6   1  -2   14.28    2.51
  -6   1  -3   14.67    3.56
   6   0  -7  272.89   18.78
   6   0  -5  811.53   43.73
   6   0  -4    1.80    1.10
   6   0  -3   21.92    4.53
   6   0  -2  955.36   50.11
   6   0  -1  159.56   14.19
   6   0   0   69.75    5.40
   6   0   2  300.41   17.95
  -6   0  -2  310.23   18.51
   6   1  -7   43.99    9.72
   6   1  -6    2.97    1.64
   6   1  -5  410.25   26.45
   6   1  -4  141.42   12.45
   6   1  -3   44.06    9.49
   6   1  -2    8.22    1.79
   6   1  -1  136.05   16.68
   6   1   0  253.38   14.70
   6   1   0  246.46   16.03
  -6  -1  -1  291.34   17.43
  -6  -1  -2   16.12    2.22
   6   2  -7   20.54    3.34
   6   2  -6  103.49   19.95
   6   2  -5   33.69    6.72
   6   2  -4    7.47    1.26
   6   2  -3  333.35   19.13
   6   2  -2  480.94   29.88
   6   2  -1    2.45    0.69
   6   2  -1   11.46    2.10
  -6  -2   0   58.86    3.16
  -6  -2  -1  555.58   32.60
   6   3  -6   77.92   14.64
   6   3  -5  817.46   47.92
   6   3  -4  144.14   14.13
   6   3  -2  360.11   20.92
   6   3  -2  368.99   22.36
   0   0   0    0.00    0.00
;
_shelx_hkl_checksum              11944
loop_
_space_group_symop_operation_xyz
'x, y, z'
'-x, -y, -z'
loop_
_atom_site_label
_atom_site_type_symbol
_atom_site_fract_x
_atom_site_fract_y
_atom_site_fract_z
_atom_site_U_iso_or_equiv
_atom_site_adp_type
_atom_site_occupancy
_atom_site_site_symmetry_order
_atom_site_calc_flag
Ba1 Ba 0.76057(10) 0.25712(8) 0.04472(6) 0.0144(2) Uani 1 1 d
Er1 Er 0.16296(7) 0.14956(6) 0.70128(4) 0.0115(2) Uani 1 1 d
Si1 Si 0.3837(5) 0.1771(4) 0.3689(3) 0.0111(5) Uani 1 1 d
Si2 Si 0.6772(4) 0.4417(4) 0.7105(3) 0.0103(5) Uani 1 1 d
O1 O 0.6111(12) 0.3101(10) 0.5199(7) 0.0155(14) Uani 1 1 d
O2 O 0.1672(12) 0.0900(10) 0.4380(8) 0.0162(14) Uani 1 1 d
O3 O 0.2546(12) 0.3274(9) 0.2769(8) 0.0143(13) Uani 1 1 d
O4 O 0.5019(12) 0.0134(9) 0.2479(8) 0.0155(13) Uani 1 1 d
O5 O 0.4479(12) 0.4178(10) 0.7926(8) 0.0155(14) Uani 1 1 d
O6 O 0.9269(12) 0.3812(9) 0.8052(8) 0.0143(14) Uani 1 1 d
F1 F 0.1524(13) 0.0975(9) 0.9272(7) 0.0263(14) Uani 1 1 d
loop_
_atom_site_aniso_label
_atom_site_aniso_U_11
_atom_site_aniso_U_22
_atom_site_aniso_U_33
_atom_site_aniso_U_23
_atom_site_aniso_U_13
_atom_site_aniso_U_12
Ba1 0.0151(4) 0.0125(4) 0.0135(4) 0.0024(2) 0.0017(2) 0.0016(2)
Er1 0.0111(3) 0.0112(3) 0.0107(3) 0.0026(2) 0.00130(18) 0.00044(18)
Si1 0.0118(12) 0.0109(12) 0.0096(12) 0.0024(9) 0.0022(9) -0.0001(9)
Si2 0.0091(11) 0.0108(12) 0.0107(12) 0.0037(9) 0.0015(9) 0.0004(9)
O1 0.015(3) 0.020(3) 0.007(3) -0.001(3) 0.001(2) -0.001(3)
O2 0.018(3) 0.013(3) 0.017(3) 0.003(3) 0.005(3) -0.001(3)
O3 0.021(3) 0.008(3) 0.011(3) 0.005(3) -0.002(3) 0.000(2)
O4 0.015(3) 0.012(3) 0.013(3) 0.000(3) -0.002(2) 0.003(3)
O5 0.015(3) 0.015(3) 0.021(4) 0.007(3) 0.012(3) 0.002(3)
O6 0.014(3) 0.010(3) 0.013(3) -0.002(3) -0.001(2) 0.001(2)
F1 0.041(4) 0.027(3) 0.022(3) 0.016(3) 0.016(3) 0.015(3)
loop_
_atom_type_symbol
_atom_type_description
_atom_type_scat_dispersion_real
_atom_type_scat_dispersion_imag
_atom_type_scat_source
O O 0.0106 0.0060 'International Tables Vol C Tables 4.2.6.8 and 6.1.1.4'
F F 0.0171 0.0103 'International Tables Vol C Tables 4.2.6.8 and 6.1.1.4'
Si Si 0.0817 0.0704 'International Tables Vol C Tables 4.2.6.8 and 6.1.1.4'
Ba Ba -0.3244 2.2819 'International Tables Vol C Tables 4.2.6.8 and 6.1.1.4'
Er Er -0.2586 4.9576 'International Tables Vol C Tables 4.2.6.8 and 6.1.1.4'
loop_
_geom_angle_atom_site_label_1
_geom_angle_atom_site_label_2
_geom_angle_atom_site_label_3
_geom_angle
_geom_angle_site_symmetry_1
_geom_angle_site_symmetry_3
F1 Ba1 F1 64.1(2) 2_656 1_654
F1 Ba1 O5 136.53(19) 2_656 2_666
F1 Ba1 O5 150.25(19) 1_654 2_666
F1 Ba1 O4 75.5(2) 2_656 2_655
F1 Ba1 O4 80.1(2) 1_654 2_655
O5 Ba1 O4 121.8(2) 2_666 2_655
F1 Ba1 O6 128.0(2) 2_656 2_766
F1 Ba1 O6 88.3(2) 1_654 2_766
O5 Ba1 O6 62.1(2) 2_666 2_766
O4 Ba1 O6 145.3(2) 2_655 2_766
F1 Ba1 O6 120.37(19) 2_656 1_554
F1 Ba1 O6 60.46(18) 1_654 1_554
O5 Ba1 O6 103.02(19) 2_666 1_554
O4 Ba1 O6 75.2(2) 2_655 1_554
O6 Ba1 O6 70.6(2) 2_766 1_554
F1 Ba1 O3 74.63(19) 2_656 1_655
F1 Ba1 O3 62.7(2) 1_654 1_655
O5 Ba1 O3 98.55(19) 2_666 1_655
O4 Ba1 O3 139.69(18) 2_655 1_655
O6 Ba1 O3 53.38(18) 2_766 1_655
O6 Ba1 O3 97.57(19) 1_554 1_655
F1 Ba1 O5 137.36(18) 2_656 1_554
F1 Ba1 O5 108.08(18) 1_654 1_554
O5 Ba1 O5 71.7(2) 2_666 1_554
O4 Ba1 O5 61.93(19) 2_655 1_554
O6 Ba1 O5 91.58(19) 2_766 1_554
O6 Ba1 O5 52.35(18) 1_554 1_554
O3 Ba1 O5 142.21(18) 1_655 1_554
F1 Ba1 F1 88.63(18) 2_656 1_554
F1 Ba1 F1 130.0(2) 1_654 1_554
O5 Ba1 F1 77.69(18) 2_666 1_554
O4 Ba1 F1 51.79(18) 2_655 1_554
O6 Ba1 F1 138.27(18) 2_766 1_554
O6 Ba1 F1 110.87(16) 1_554 1_554
O3 Ba1 F1 151.48(16) 1_655 1_554
O5 Ba1 F1 63.98(16) 1_554 1_554
F1 Ba1 Si2 101.86(16) 2_656 2_766
F1 Ba1 Si2 72.17(15) 1_654 2_766
O5 Ba1 Si2 81.21(15) 2_666 2_766
O4 Ba1 Si2 149.88(15) 2_655 2_766
O6 Ba1 Si2 26.19(13) 2_766 2_766
O6 Ba1 Si2 80.96(14) 1_554 2_766
O3 Ba1 Si2 27.44(13) 1_655 2_766
O5 Ba1 Si2 115.82(14) 1_554 2_766
F1 Ba1 Si2 157.65(11) 1_554 2_766
F1 Ba1 Si2 132.96(13) 2_656 1_554
F1 Ba1 Si2 83.53(13) 1_654 1_554
O5 Ba1 Si2 87.93(16) 2_666 1_554
O4 Ba1 Si2 65.58(16) 2_655 1_554
O6 Ba1 Si2 80.72(15) 2_766 1_554
O6 Ba1 Si2 25.80(13) 1_554 1_554
O3 Ba1 Si2 120.91(14) 1_655 1_554
O5 Ba1 Si2 26.56(12) 1_554 1_554
F1 Ba1 Si2 87.42(11) 1_554 1_554
Si2 Ba1 Si2 99.17(7) 2_766 1_554
F1 Ba1 Er1 104.84(15) 2_656 1_554
F1 Ba1 Er1 110.55(14) 1_654 1_554
O5 Ba1 Er1 86.67(15) 2_666 1_554
O4 Ba1 Er1 35.43(14) 2_655 1_554
O6 Ba1 Er1 126.52(14) 2_766 1_554
O6 Ba1 Er1 76.52(14) 1_554 1_554
O3 Ba1 Er1 172.93(13) 1_655 1_554
O5 Ba1 Er1 35.45(13) 1_554 1_554
F1 Ba1 Er1 34.40(10) 1_554 1_554
Si2 Ba1 Er1 151.26(5) 2_766 1_554
Si2 Ba1 Er1 54.20(5) 1_554 1_554
F1 Er1 O5 100.4(3) . .
F1 Er1 O6 78.9(2) . 1_455
O5 Er1 O6 80.0(2) . 1_455
F1 Er1 O4 74.7(2) . 2_656
O5 Er1 O4 84.6(2) . 2_656
O6 Er1 O4 146.5(2) 1_455 2_656
F1 Er1 O2 160.4(2) . .
O5 Er1 O2 94.5(2) . .
O6 Er1 O2 116.4(2) 1_455 .
O4 Er1 O2 94.4(2) 2_656 .
F1 Er1 O2 91.5(3) . 2_556
O5 Er1 O2 166.0(3) . 2_556
O6 Er1 O2 95.4(2) 1_455 2_556
O4 Er1 O2 105.6(2) 2_656 2_556
O2 Er1 O2 75.6(3) . 2_556
F1 Er1 Si2 115.72(19) . .
O5 Er1 Si2 23.28(17) . .
O6 Er1 Si2 100.23(18) 1_455 .
O4 Er1 Si2 73.64(19) 2_656 .
O2 Er1 Si2 75.24(17) . .
O2 Er1 Si2 150.64(18) 2_556 .
F1 Er1 Er1 127.69(19) . 2_556
O5 Er1 Er1 131.72(17) . 2_556
O6 Er1 Er1 109.85(16) 1_455 2_556
O4 Er1 Er1 102.66(16) 2_656 2_556
O2 Er1 Er1 37.90(17) . 2_556
O2 Er1 Er1 37.66(17) 2_556 2_556
Si2 Er1 Er1 113.09(6) . 2_556
F1 Er1 Ba1 58.91(19) . 1_556
O5 Er1 Ba1 53.31(18) . 1_556
O6 Er1 Ba1 102.81(16) 1_455 1_556
O4 Er1 Ba1 45.26(16) 2_656 1_556
O2 Er1 Ba1 123.90(17) . 1_556
O2 Er1 Ba1 140.57(17) 2_556 1_556
Si2 Er1 Ba1 58.91(6) . 1_556
Er1 Er1 Ba1 147.34(3) 2_556 1_556
F1 Er1 Ba1 39.01(17) . 1_456
O5 Er1 Ba1 102.47(17) . 1_456
O6 Er1 Ba1 42.97(18) 1_455 1_456
O4 Er1 Ba1 113.73(18) 2_656 1_456
O2 Er1 Ba1 148.13(17) . 1_456
O2 Er1 Ba1 82.30(17) 2_556 1_456
Si2 Er1 Ba1 125.57(5) . 1_456
Er1 Er1 Ba1 116.80(6) 2_556 1_456
Ba1 Er1 Ba1 87.62(7) 1_556 1_456
F1 Er1 Ba1 87.11(17) . 2_666
O5 Er1 Ba1 39.55(17) . 2_666
O6 Er1 Ba1 40.64(17) 1_455 2_666
O4 Er1 Ba1 116.85(16) 2_656 2_666
O2 Er1 Ba1 112.43(17) . 2_666
O2 Er1 Ba1 135.35(17) 2_556 2_666
Si2 Er1 Ba1 61.20(6) . 2_666
Er1 Er1 Ba1 133.79(2) 2_556 2_666
Ba1 Er1 Ba1 73.36(3) 1_556 2_666
Ba1 Er1 Ba1 69.05(3) 1_456 2_666
F1 Er1 Ba1 33.85(16) . 2_656
O5 Er1 Ba1 117.47(18) . 2_656
O6 Er1 Ba1 110.30(18) 1_455 2_656
O4 Er1 Ba1 52.35(18) 2_656 2_656
O2 Er1 Ba1 127.02(18) . 2_656
O2 Er1 Ba1 76.50(18) 2_556 2_656
Si2 Er1 Ba1 119.93(5) . 2_656
Er1 Er1 Ba1 103.40(6) 2_556 2_656
Ba1 Er1 Ba1 64.46(4) 1_556 2_656
Ba1 Er1 Ba1 67.48(4) 1_456 2_656
Ba1 Er1 Ba1 119.16(6) 2_666 2_656
O4 Si1 O2 114.8(4) . .
O4 Si1 O1 108.4(4) . .
O2 Si1 O1 109.5(4) . .
O4 Si1 O3 109.7(4) . .
O2 Si1 O3 107.0(4) . .
O1 Si1 O3 107.2(4) . .
O6 Si2 O5 109.9(4) . .
O6 Si2 O1 110.4(3) . .
O5 Si2 O1 111.6(4) . .
O6 Si2 O3 106.1(4) . 2_666
O5 Si2 O3 111.5(4) . 2_666
O1 Si2 O3 107.2(4) . 2_666
O6 Si2 Er1 110.1(3) . .
O5 Si2 Er1 33.3(2) . .
O1 Si2 Er1 81.4(2) . .
O3 Si2 Er1 136.9(3) 2_666 .
O6 Si2 Ba1 50.6(2) . 2_766
O5 Si2 Ba1 118.8(3) . 2_766
O1 Si2 Ba1 129.5(3) . 2_766
O3 Si2 Ba1 56.2(2) 2_666 2_766
Er1 Si2 Ba1 145.70(8) . 2_766
O6 Si2 Ba1 50.7(3) . 1_556
O5 Si2 Ba1 59.2(3) . 1_556
O1 Si2 Ba1 126.5(3) . 1_556
O3 Si2 Ba1 125.6(2) 2_666 1_556
Er1 Si2 Ba1 66.90(5) . 1_556
Ba1 Si2 Ba1 80.83(7) 2_766 1_556
Si2 O1 Si1 143.6(4) . .
Si1 O2 Er1 126.7(4) . .
Si1 O2 Er1 128.4(4) . 2_556
Er1 O2 Er1 104.4(3) . 2_556
Si2 O3 Si1 135.4(4) 2_666 .
Si2 O3 Ba1 96.4(3) 2_666 1_455
Si1 O3 Ba1 128.0(3) . 1_455
Si1 O4 Er1 130.2(4) . 2_656
Si1 O4 Ba1 125.7(3) . 2_655
Er1 O4 Ba1 99.3(2) 2_656 2_655
Si2 O5 Er1 123.4(4) . .
Si2 O5 Ba1 121.6(3) . 2_666
Er1 O5 Ba1 109.6(2) . 2_666
Si2 O5 Ba1 94.2(3) . 1_556
Er1 O5 Ba1 91.2(2) . 1_556
Ba1 O5 Ba1 108.3(2) 2_666 1_556
Si2 O6 Er1 127.3(3) . 1_655
Si2 O6 Ba1 103.3(3) . 2_766
Er1 O6 Ba1 108.0(2) 1_655 2_766
Si2 O6 Ba1 103.5(3) . 1_556
Er1 O6 Ba1 104.6(2) 1_655 1_556
Ba1 O6 Ba1 109.4(2) 2_766 1_556
Er1 F1 Ba1 119.3(2) . 2_656
Er1 F1 Ba1 110.8(2) . 1_456
Ba1 F1 Ba1 115.9(2) 2_656 1_456
Er1 F1 Ba1 86.7(2) . 1_556
Ba1 F1 Ba1 91.37(18) 2_656 1_556
Ba1 F1 Ba1 130.0(2) 1_456 1_556
loop_
_geom_bond_atom_site_label_1
_geom_bond_atom_site_label_2
_geom_bond_distance
_geom_bond_site_symmetry_2
Ba1 F1 2.685(6) 2_656
Ba1 F1 2.729(6) 1_654
Ba1 O5 2.773(7) 2_666
Ba1 O4 2.774(6) 2_655
Ba1 O6 2.811(7) 2_766
Ba1 O6 2.855(7) 1_554
Ba1 O3 2.961(7) 1_655
Ba1 O5 3.091(7) 1_554
Ba1 F1 3.306(7) 1_554
Ba1 Si2 3.542(3) 2_766
Ba1 Si2 3.588(3) 1_554
Ba1 Er1 3.854(2) 1_554
Er1 F1 2.181(6) .
Er1 O5 2.236(7) .
Er1 O6 2.244(6) 1_455
Er1 O4 2.264(7) 2_656
Er1 O2 2.268(7) .
Er1 O2 2.280(7) 2_556
Er1 Si2 3.398(3) .
Er1 Er1 3.595(3) 2_556
Er1 Ba1 3.854(2) 1_556
Er1 Ba1 4.053(3) 1_456
Er1 Ba1 4.103(3) 2_666
Er1 Ba1 4.206(3) 2_656
Si1 O4 1.594(7) .
Si1 O2 1.629(7) .
Si1 O1 1.634(6) .
Si1 O3 1.650(7) .
Si2 O6 1.606(7) .
Si2 O5 1.609(7) .
Si2 O1 1.626(6) .
Si2 O3 1.643(7) 2_666
Si2 Ba1 3.542(3) 2_766
Si2 Ba1 3.588(3) 1_556
O2 Er1 2.280(7) 2_556
O3 Si2 1.643(7) 2_666
O3 Ba1 2.961(7) 1_455
O4 Er1 2.264(7) 2_656
O4 Ba1 2.774(6) 2_655
O5 Ba1 2.773(7) 2_666
O5 Ba1 3.091(7) 1_556
O6 Er1 2.244(6) 1_655
O6 Ba1 2.811(7) 2_766
O6 Ba1 2.855(7) 1_556
F1 Ba1 2.685(6) 2_656
F1 Ba1 2.729(6) 1_456
F1 Ba1 3.306(7) 1_556
