#------------------------------------------------------------------------------
#$Date: 2019-12-26 22:13:08 +0200 (Thu, 26 Dec 2019) $
#$Revision: 246156 $
#$URL: file:///home/coder/svn-repositories/cod/cif/2/31/18/2311895.cif $
#------------------------------------------------------------------------------
#
# This file is available in the Crystallography Open Database (COD),
# http://www.crystallography.net/. The original data for this entry
# were provided by IUCr Journals, http://journals.iucr.org/.
#
# The file may be used within the scientific community so long as
# proper attribution is given to the journal article from which the
# data were obtained.
#
data_2311895
loop_
_publ_author_name
'Celania, Chris'
'Smetana, Volodymyr'
'Mudring, Anja Verena'
_publ_section_title
;
 Crystal structures and new perspectives on Y<sub>3</sub>Au<sub>4</sub>
 and Y<sub>14</sub>Au<sub>51</sub>.
;
_journal_coeditor_code           WQ3137
_journal_issue                   'Pt 9'
_journal_name_full
'Acta crystallographica. Section C, Structural chemistry'
_journal_page_first              692
_journal_page_last               696
_journal_paper_doi               10.1107/S2053229617011068
_journal_volume                  73
_journal_year                    2017
_chemical_formula_iupac          'Y3 Au4'
_chemical_formula_sum            'Au4 Y3'
_chemical_formula_weight         1054.60
_chemical_name_systematic
;
Triyttrium tetragold
;
_space_group_crystal_system      trigonal
_space_group_IT_number           148
_space_group_name_Hall           '-R 3'
_space_group_name_H-M_alt        'R -3 :H'
_audit_creation_method           SHELXL-2014/7
_cell_angle_alpha                90
_cell_angle_beta                 90
_cell_angle_gamma                120
_cell_formula_units_Z            6
_cell_length_a                   13.3664(15)
_cell_length_b                   13.3664(15)
_cell_length_c                   5.9640(9)
_cell_measurement_reflns_used    3552
_cell_measurement_temperature    296(2)
_cell_measurement_theta_max      32.891
_cell_measurement_theta_min      4.908
_cell_volume                     922.8(2)
_computing_cell_refinement
;
SAINT (Bruker, 2015)
;
_computing_data_collection
;
APEX3 (Bruker, 2015)
;
_computing_data_reduction
;
SAINT (Bruker, 2015)
;
_computing_molecular_graphics
;
'DIAMOND (Brandenburg, 2006)
;
_computing_publication_material
;
SHELXL2014 (Sheldrick, 2015b)
;
_computing_structure_refinement
;
SHELXL2014 (Sheldrick, 2015b)
;
_computing_structure_solution
;
SHELXT (Sheldrick, 2015a)
;
_diffrn_ambient_temperature      296(2)
_diffrn_measured_fraction_theta_full 0.995
_diffrn_measured_fraction_theta_max 0.938
_diffrn_measurement_device_type  'Bruker Venture'
_diffrn_measurement_method       'w scan'
_diffrn_radiation_type           MoK\a
_diffrn_radiation_wavelength     0.71073
_diffrn_reflns_av_R_equivalents  0.1022
_diffrn_reflns_limit_h_max       18
_diffrn_reflns_limit_h_min       -20
_diffrn_reflns_limit_k_max       20
_diffrn_reflns_limit_k_min       -16
_diffrn_reflns_limit_l_max       8
_diffrn_reflns_limit_l_min       -8
_diffrn_reflns_number            3552
_diffrn_reflns_theta_full        25.242
_diffrn_reflns_theta_max         32.891
_diffrn_reflns_theta_min         4.908
_exptl_absorpt_coefficient_mu    122.825
_exptl_absorpt_correction_T_max  0.06
_exptl_absorpt_correction_T_min  0.02
_exptl_absorpt_correction_type   empirical
_exptl_absorpt_process_details
;
[Blessing (1995) OR SADABS (Krause <i>et al.</i>,  2015)]
;
_exptl_crystal_colour            grey
_exptl_crystal_density_diffrn    11.386
_exptl_crystal_description       'irregular fragment'
_exptl_crystal_F_000             2598
_exptl_crystal_size_max          0.09
_exptl_crystal_size_mid          0.07
_exptl_crystal_size_min          0.07
_refine_diff_density_max         4.067
_refine_diff_density_min         -3.912
_refine_ls_extinction_coef       0.00007(2)
_refine_ls_extinction_expression Fc^*^=kFc[1+0.001xFc^2^\l^3^/sin(2\q)]^-1/4^
_refine_ls_extinction_method
;
SHELXL2014 (Sheldrick, 2015b)
;
_refine_ls_goodness_of_fit_ref   1.036
_refine_ls_hydrogen_treatment    undef
_refine_ls_matrix_type           full
_refine_ls_number_parameters     25
_refine_ls_number_reflns         722
_refine_ls_number_restraints     0
_refine_ls_restrained_S_all      1.036
_refine_ls_R_factor_all          0.0661
_refine_ls_R_factor_gt           0.0471
_refine_ls_shift/su_max          0.000
_refine_ls_shift/su_mean         0.000
_refine_ls_structure_factor_coef Fsqd
_refine_ls_weighting_details
'w=1/[\s^2^(Fo^2^)+(0.0185P)^2^] where P=(Fo^2^+2Fc^2^)/3'
_refine_ls_weighting_scheme      calc
_refine_ls_wR_factor_gt          0.0883
_refine_ls_wR_factor_ref         0.0940
_reflns_number_gt                567
_reflns_number_total             722
_reflns_threshold_expression     'I > 2\s(I)'
_cod_data_source_file            wq3137sup1.cif
_cod_data_source_block           vsY3_0m
_cod_database_code               2311895
_shelx_space_group_comment
;
The symmetry employed for this shelxl refinement is uniquely defined
by the following loop, which should always be used as a source of
symmetry information in preference to the above space-group names.
They are only intended as comments.
;
_shelx_hkl_file
;
   0   3   0   53.09    5.26
  -3   0   0   51.01    5.52
   2   2   0   15.24    1.94
  -2   4   0   20.84    2.21
  -2  -2   0   26.45    3.14
  -2   4   0   14.48    3.10
  -5   4   0    2.46    0.85
   4   1   0    1.41    0.68
  -4  -1   0    3.08    1.29
  -1   5   0    2.83    0.74
  -1   5   0    3.08    1.30
   1   4   0  884.21   88.11
  -5   1   0  910.30   88.19
  -5   1   0  893.60   88.06
   5  -1   0  902.32   88.08
  -4   5   0  876.97   88.89
  -1  -4   0 1000.00   88.58
  -4   5   0  885.91   88.06
  -6   3   0   -0.31    0.85
  -6   3   0   -0.22    0.60
   3   3   0    0.03    0.61
   3   3   0   -1.02    0.45
   6  -3   0    0.88    0.87
  -3   6   0    0.42    0.65
  -3  -3   0    0.01    1.43
  -3   6   0    1.73    2.01
   0   6   0    2.72    1.17
  -6   0   0    3.41    1.37
   0   6   0    2.68    0.84
   0  -6   0    3.15    1.86
   6   0   0    1.96    0.84
  -6   6   0    2.27    1.05
  -7   5   0  170.30   16.81
   5   2   0  174.89   16.89
  -7   5   0  173.79   17.16
  -2   7   0  178.98   16.93
  -5  -2   0  156.26   17.39
  -2   7   0  160.37   17.61
  -7   2   0    3.36    1.09
   2   5   0    3.92    0.97
   2   5   0    2.90    1.13
  -7   2   0    4.16    1.23
  -5   7   0    3.98    2.44
   7  -2   0    4.93    1.28
  -2  -5   0    3.38    2.14
  -5   7   0    3.71    1.11
   7   1   0    2.73    1.07
   1  -8   0    1.90    2.20
  -8   7   0    0.81    1.18
  -8   7   0    1.53    0.85
  -1   8   0    1.81    1.00
  -1   8   0    4.60    1.59
  -7  -1   0    3.02    1.82
  -8   4   0   10.43    1.92
   4   4   0   11.27    1.90
  -8   4   0   14.27    2.37
   4   4   0   12.98    1.88
  -4   8   0   10.81    1.87
   8  -4   0    9.73    2.04
  -4  -4   0   15.16    3.24
  -4   8   0    9.72    3.23
   1   7   0  161.95   16.08
  -8   1   0  163.64   16.41
   1   7   0  155.66   16.29
   8  -1   0  164.70   16.17
  -7   8   0  167.26   17.74
  -1  -7   0  156.90   17.21
  -7   8   0  158.13   16.24
   6   3   0  229.78   22.40
  -9   6   0  229.20   22.32
  -9   6   0  219.54   22.75
  -3   9   0  220.70   23.44
  -6  -3   0  239.44   23.29
   9  -6   0  222.41   22.56
  -3   9   0  219.76   22.45
   3   6   0   31.64    4.16
  -9   3   0   35.34    4.48
  -9   3   0   35.78    4.40
   3   6   0   37.11    4.31
  -3  -6   0   33.42    5.94
   9  -3   0   25.44    4.30
  -6   9   0   34.41    6.19
  -6   9   0   35.95    4.38
   0   9   0    6.77    1.99
   0   9   0    6.69    1.60
  -9   0   0    5.76    2.16
  -9   9   0    6.31    1.93
  -9   9   0    8.89    3.61
   0  -9   0    1.02    2.82
   9   0   0    5.24    1.64
 -10   8   0   17.05    3.28
   8   2   0   23.54    2.97
  -2  10   0   14.32    2.60
  -8  -2   0    9.57    3.16
  -2  10   0   18.23    3.49
 -10   5   0    4.64    1.73
   5   5   0    3.25    1.26
 -10   5   0    1.46    1.21
   5   5   0    2.53    1.31
  10  -5   0    1.13    1.43
  -5  -5   0    9.15    3.35
  -5  10   0    3.02    1.32
  -5  10   0    1.82    2.76
 -10   2   0  102.41   11.22
   2   8   0  113.16   11.02
   2   8   0  102.30   11.12
  -8  10   0  105.12   11.18
  -8  10   0  116.68   14.29
  -2  -8   0   95.77   13.29
  10  -2   0  109.81   11.13
 -11  10   0  132.02   15.09
 -11  10   0  129.13   12.26
  10   1   0  102.76   11.56
  -1  11   0  110.04   12.00
 -10  -1   0  112.09   12.21
  -1  11   0  102.60   11.50
   7   4   0    7.47    1.91
 -11   7   0   10.20    2.70
  -4  11   0    5.09    1.78
  -7  -4   0    5.48    2.81
  -4  11   0   10.27    3.36
  11  -7   0    8.39    2.10
 -11   4   0    3.51    1.72
 -11   4   0    1.51    1.44
   4   7   0    0.96    1.29
   4   7   0    1.60    1.49
  -7  11   0   -1.01    2.94
  -7  11   0    3.92    1.62
  11  -4   0    4.21    1.90
  -4  -7   0    1.74    3.33
   1  10   0    0.23    1.01
 -11   1   0    1.34    1.76
 -10  11   0   -0.30    3.24
  11  -1   0   -2.36    1.18
  -1 -10   0    0.83    3.26
 -10  11   0   -0.16    1.54
   9   3   0   36.97    4.66
 -12   9   0   30.24    5.19
  12  -9   0   38.94    4.90
  -3  12   0   28.75    4.35
  -9  -3   0   29.78    5.52
  -3  12   0   26.66    5.13
   6   6   0  244.46   23.36
 -12   6   0  226.29   23.50
 -12   6   0  240.34   23.33
  -6  -6   0  211.33   24.71
  12  -6   0  230.10   23.53
  -6  12   0  221.97   23.37
  -6  12   0  253.61   25.20
 -12   3   0   59.77    6.43
   3   9   0   42.46    6.11
  -3  -9   0   44.99    8.65
  -9  12   0   55.81    6.78
  -9  12   0   63.43    9.73
  12  -3   0   53.66    6.67
   0  12   0    9.11    2.39
 -12   0   0   15.51    3.46
 -12  12   0   18.91    3.89
  12   0   0   17.07    3.10
 -12  12   0   11.29    4.88
  11   2   0    9.06    2.45
 -13  11   0    1.96    4.19
  -2  13   0   10.30    2.36
 -11  -2   0    8.70    3.27
   8   5   0    2.86    1.59
 -13   8   0    5.17    2.41
  -5  13   0    5.06    3.23
  -8  -5   0    2.87    3.32
  13  -8   0    0.16    1.64
  -5  13   0    2.98    1.63
   5   8   0    2.95    1.63
 -13   5   0    3.02    1.81
 -13   5   0    3.62    2.05
  -8  13   0    4.35    3.97
  13  -5   0    1.47    2.06
  -8  13   0    5.40    2.02
  -5  -8   0    0.84    3.75
   2  11   0  135.03   14.09
 -13   2   0  132.34   14.41
  13  -2   0  133.53   14.23
  -2 -11   0  103.17   17.89
 -11  13   0  154.10   18.45
 -11  13   0  144.16   14.45
 -14  13   0  107.62   14.06
  13   1   0   90.00    9.75
  -1  14   0   70.54    9.82
 -13  -1   0   95.05   11.55
  10   4   0    0.47    1.71
  -4  14   0    2.07    1.74
  -4  14   0    0.72    2.41
 -10  -4   0    1.95    3.02
   7   7   0    7.11    2.32
  -7  -7   0   10.11    4.55
  -7  14   0   12.21    2.79
  -7  14   0    8.76    4.14
 -14   4   0    8.67    2.72
   4  10   0    7.07    2.21
  -4 -10   0    9.12    5.32
 -10  14   0   11.62    3.03
 -10  14   0    6.93    4.66
   1  13   0    6.16    2.20
 -14   1   0   10.97    3.38
 -13  14   0   -2.96    4.15
  14  -1   0    4.33    2.40
 -15  12   0    1.70    4.01
  12   3   0    3.02    2.27
 -12  -3   0    5.08    3.31
  -3  15   0    5.40    2.15
   9   6   0   11.11    2.94
  -6  15   0   15.66    4.69
  -9  -6   0   17.42    5.04
  -6  15   0   13.38    2.98
   6   9   0   10.75    2.59
  -9  15   0    7.39    4.92
  -6  -9   0    0.16    4.46
  -9  15   0    4.17    2.29
   3  12   0    1.72    1.97
 -15   3   0    0.91    2.23
 -12  15   0   -2.73    4.30
 -12  15   0   -1.27    2.18
 -15   0   0   14.65    4.21
   0  15   0   11.69    3.27
 -15  15   0   26.24    7.25
 -16  14   0   26.25    7.45
  14   2   0   20.19    4.11
  -2  16   0   14.00    3.56
 -14  -2   0   24.83    5.49
  11   5   0   90.42   10.31
 -11  -5   0   94.73   12.65
  -5  16   0   86.83   10.03
   8   8   0   47.49    5.84
  -8  16   0   30.67    6.90
  -8  -8   0   30.71    7.44
  -8  16   0   26.67    4.82
 -16   5   0    4.45    2.65
   5  11   0    2.60    2.35
  -5 -11   0    0.95    5.51
 -11  16   0    7.53    3.16
 -11  16   0    9.42    5.36
   2  14   0    7.78    3.09
 -16   2   0    8.54    3.44
 -14  16   0    5.23    5.94
 -17  16   0    1.74    5.24
  -1  17   0    3.65    2.79
 -16  -1   0    5.35    3.90
 -17  13   0   10.77    5.36
  13   4   0    4.06    2.75
 -13  -4   0    5.57    4.30
  -4  17   0    5.63    2.47
  10   7   0    2.83    2.66
 -10  -7   0    3.67    4.49
  -7  17   0    1.84    2.08
   7  10   0  101.15   11.89
 -10  17   0  120.65   12.11
 -10  17   0  106.73   15.23
  -7 -10   0   81.14   14.68
 -17   4   0  106.88   12.37
   4  13   0   90.48   12.05
 -13  17   0  137.32   17.19
 -17   1   0   10.62    4.12
   1  16   0    8.66    3.38
 -16  17   0   16.59    7.40
 -18  15   0   -0.38    5.32
  -3  18   0   -2.51    2.11
 -15  -3   0    0.21    4.03
  12   6   0    7.94    3.16
 -18  12   0    9.68    5.79
 -12  -6   0    5.34    4.95
  -6  18   0    2.67    2.63
   9   9   0    3.44    2.61
  -9  18   0   -4.13    3.58
  -9  18   0    1.79    2.90
  -9  -9   0    4.77    5.65
   6  12   0   13.10    3.76
 -12  18   0    9.82    6.26
 -18   3   0   42.12    7.71
   3  15   0   37.18    6.54
 -15  18   0   49.82   10.65
 -19  14   0   60.11   11.01
  -5  19   0   40.24    6.91
  11   8   0   23.23    4.71
 -11  -8   0   22.95    6.88
  -8  19   0    9.85    3.52
   8  11   0    0.95    2.85
 -11  19   0    4.00    3.44
 -11  19   0   -0.04    4.87
  -8 -11   0    0.31    6.42
 -14  19   0   -4.46    5.21
 -10  20   0   -2.97    3.14
 -13  20   0   55.62   15.90
  -1  -2   1   18.93    2.42
   3  -1   1   17.88    2.57
  -3   1  -1   19.37    2.68
   1   2  -1   19.37    2.52
  -2   0   1   27.69    3.10
   2   0  -1   29.30    3.15
  -2   2  -1   27.79    3.40
  -3   5   1    8.08    1.18
  -2  -3   1    5.84    1.47
   5  -2   1    4.76    1.44
  -5   2  -1    9.40    2.26
   2   3  -1    6.46    1.12
   2   3  -1    7.26    1.49
   3  -5  -1    6.60    1.48
  -5   2  -1    7.97    1.72
   2   1   1  122.13   12.45
  -3   2   1  126.29   12.43
   3  -2  -1  130.04   12.43
  -1   3  -1  123.72   12.66
  -2  -1  -1  104.37   13.10
  -1   3  -1  133.49   12.42
  -1   4   1   91.72    9.28
  -3  -1   1  100.87    9.51
   3   1  -1  104.53    9.54
  -4   3  -1   82.79   10.17
   1  -4  -1   87.30   10.04
   3   1  -1   93.85    9.27
  -4   3  -1   86.39    9.57
   7  -3   1  151.58   15.58
  -3  -4   1  153.88   15.70
  -4   7   1  160.18   15.30
  -4   7   1  128.94   16.33
   3   4  -1  148.80   15.52
   3   4  -1  150.40   15.25
   4  -7  -1  161.00   15.45
  -7   3  -1  153.41   15.70
  -7   3  -1  166.51   15.90
   4   0   1   47.01    5.03
  -4   4   1   46.53    4.83
   0  -4   1   56.99    5.08
   0   4  -1   43.66    4.82
  -4   0  -1   48.60    6.34
  -4   0  -1   43.83    4.97
   0   4  -1   45.50    5.12
   4  -4  -1   43.51    4.80
  -4   1   1   23.43    2.73
   1   3   1   25.46    2.63
  -3   4  -1   27.79    3.04
  -1  -3  -1   15.58    3.74
  -3   4  -1   23.33    3.92
  -2   6   1   52.78    6.70
  -4  -2   1   52.89    5.71
  -2   6   1   53.06    5.34
  -6   4  -1   52.11    6.22
   4   2  -1   47.17    5.51
   4   2  -1   48.94    5.30
   2  -6  -1   54.25    6.63
  -6   4  -1   55.00    5.96
  -5   9   1  282.26   27.41
   9  -4   1  282.42   27.70
  -4  -5   1  275.51   27.96
  -5   9   1  228.04   28.59
   5  -9  -1  286.56   27.51
  -9   4  -1  259.58   27.75
  -9   4  -1  284.99   27.81
   4   5  -1  284.05   27.36
   4   5  -1  292.78   27.65
   6  -1   1   31.61    4.19
  -5   6   1   28.93    3.56
  -1  -5   1   38.31    4.53
  -5   6   1   32.01    3.65
   1   5  -1   35.66    3.69
   5  -6  -1   34.80    3.58
   1   5  -1   33.88    4.26
  -6   1  -1   32.56    4.86
  -6   1  -1   35.40    4.24
  -5   3   1  189.02   18.50
   3   2   1  188.75   18.53
  -2   5  -1  182.28   19.11
  -2   5  -1  192.12   18.53
  -3  -2  -1  182.37   19.46
  -5   0   1   23.02    3.04
   0   5   1   23.70    2.56
   0  -5  -1   21.67    4.01
   5   0  -1   21.47    2.46
  -5   5  -1   21.78    2.96
  -5   5  -1   23.25    4.15
  -3   8   1   44.03    6.70
   8  -5   1   49.25    5.52
  -3   8   1   50.47    5.24
  -5  -3   1   50.86    5.75
   5   3  -1   44.78    5.14
   3  -8  -1   52.56    6.36
   5   3  -1   48.21    5.43
  -8   5  -1   42.14    6.00
  -8   5  -1   51.75    5.77
  -5  -6   1    1.30    2.55
  -6  11   1    0.95    1.23
  -6  11   1    2.37    3.19
  11  -5   1    1.95    1.72
 -11   5  -1    1.02    1.81
   5   6  -1    1.39    1.50
   5   6  -1    2.00    1.23
 -11   5  -1   -1.16    1.66
  -6   8   1    4.93    1.15
   8  -2   1    4.71    1.66
  -6   8   1    7.09    1.54
  -2  -6   1    2.66    1.97
   2   6  -1    5.60    1.77
   6  -8  -1    6.63    1.23
   2   6  -1    7.90    1.52
  -8   2  -1    3.96    1.93
  -8   2  -1    7.15    1.77
   5   1   1   54.31    6.20
  -6   5   1   55.18    6.11
  -6   5   1   56.45    6.06
   1  -6   1   71.85    6.51
  -1   6  -1   55.71    6.17
  -1   6  -1   59.26    6.62
  -5  -1  -1   64.83    8.02
   6  -5  -1   62.09    6.14
  -6   2   1  118.21   11.67
   2   4   1  120.40   11.55
   6  -2  -1  110.69   11.42
  -2  -4  -1  100.96   12.63
  -4   6  -1  120.13   11.66
  -4   6  -1  117.02   12.84
  -6  -1   1   47.38    5.94
  -1   7   1   48.17    5.92
  -1   7   1   56.82    5.62
  -7   6  -1   51.27    5.97
  -7   6  -1   60.68    7.96
   1  -7  -1   58.23    7.37
   6   1  -1   56.05    5.54
  -6  -4   1   10.42    2.80
  10  -6   1    9.52    2.11
  -4  10   1   14.97    3.69
  -4  10   1    7.09    1.88
   6   4  -1    7.52    1.75
 -10   6  -1    9.88    2.64
 -10   6  -1    9.94    2.71
  -6  -7   1    9.26    3.77
  -7  13   1   11.64    2.72
  -7  13   1   12.97    4.87
  13  -6   1   12.26    2.94
   6   7  -1   15.04    2.66
 -13   6  -1   14.35    3.16
   6   7  -1   12.65    2.81
  -7  10   1   -0.76    3.43
  -3  -7   1   -0.70    2.18
  10  -3   1    2.18    1.67
  -7  10   1    2.15    1.37
   3   7  -1    0.04    1.42
 -10   3  -1   -0.09    1.53
   3   7  -1   -0.18    1.05
 -10   3  -1   -0.50    1.68
   0  -7   1    9.20    2.42
  -7   7   1    8.70    1.76
   7   0   1    5.75    1.76
  -7   7   1   10.02    1.55
   0   7  -1    7.89    2.06
   7  -7  -1   13.33    1.79
   0   7  -1    9.17    1.72
  -7   0  -1    6.93    2.58
  -7   4   1   30.02    3.41
  -7   4   1   29.47    3.61
   4   3   1   33.52    3.73
  -4  -3  -1   20.03    4.76
  -3   7  -1   28.78    3.61
  -3   7  -1   38.33    5.47
   7  -4  -1   27.54    3.59
  -7   1   1   17.39    2.78
   1   6   1   13.61    2.15
   1   6   1   17.72    2.31
  -1  -6  -1   13.26    3.86
   7  -1  -1   17.62    2.16
  -6   7  -1   17.47    2.67
  -6   7  -1   14.71    3.68
  -2   9   1   30.52    5.18
  -2   9   1   42.00    4.78
  -7  -2   1   44.71    5.62
  -9   7  -1   35.71    5.31
  -9   7  -1   41.70    6.92
   2  -9  -1   42.22    5.98
   7   2  -1   39.89    4.41
  -5  12   1    0.03    1.27
  12  -7   1    1.45    1.62
  -7  -5   1    5.47    2.67
  -5  12   1    2.08    2.82
   7   5  -1    4.59    1.57
 -12   7  -1    1.85    1.99
  -8  15   1   -0.72    3.46
  -8  15   1    6.26    2.39
  -7  -8   1    1.04    3.42
  15  -7   1    3.66    2.34
 -15   7  -1    3.39    2.54
   7   8  -1    3.70    2.10
  -8  12   1   51.29    9.37
  -4  -8   1   60.00    8.66
  12  -4   1   51.30    7.31
  -8  12   1   67.69    6.96
 -12   4  -1   69.18    7.88
 -12   4  -1   65.97    7.40
   4   8  -1   54.87    6.68
   4   8  -1   57.62    7.00
   9  -1   1   12.87    2.87
  -8   9   1   18.24    2.88
  -1  -8   1   13.43    3.55
   1   8  -1   18.92    3.31
   1   8  -1   20.30    2.79
  -9   1  -1   13.01    3.36
   2  -8   1    4.13    1.65
  -8   6   1    5.85    1.28
  -8   6   1    4.16    1.48
   6   2   1    4.18    1.31
  -2   8  -1    2.93    1.16
  -2   8  -1    2.65    1.98
  -6  -2  -1    4.73    2.82
  -8   3   1    7.09    1.81
   3   5   1    9.09    1.73
   3   5   1   11.86    1.53
  -3  -5  -1    6.63    3.44
  -5   8  -1   13.91    3.69
   8  -3  -1   10.31    1.62
  -5   8  -1    8.56    1.75
   0   8   1  200.97   19.19
   0   8   1  191.66   19.26
  -8   0   1  208.74   19.60
   8   0  -1  186.76   19.05
  -8   8  -1  188.16   20.77
  -8   8  -1  198.25   19.52
   0  -8  -1  163.53   20.28
  -3  11   1   23.50    4.29
  -3  11   1   26.89    3.80
  -8  -3   1   34.00    4.93
  11  -8   1   26.23    4.06
 -11   8  -1   27.22    4.69
   8   3  -1   29.86    3.73
 -11   8  -1   20.33    5.20
  14  -8   1    0.69    1.81
  -8  -6   1    1.84    2.86
  -6  14   1    2.27    1.79
 -14   8  -1    4.80    2.63
   8   6  -1    1.30    1.68
  -8  -9   1    1.57    4.13
   8   9  -1   -1.10    2.25
  -5  -9   1  155.43   19.62
  -9  14   1  179.09   21.07
  -9  14   1  195.73   18.58
  14  -5   1  144.53   18.49
 -14   5  -1  194.76   18.88
 -14   5  -1  191.32   18.93
   5   9  -1  187.10   18.42
  -2  -9   1   28.39    5.68
  -9  11   1   29.49    6.91
  -9  11   1   40.49    4.80
  11  -2   1   47.38    5.42
   2   9  -1   24.72    4.03
 -11   2  -1   29.16    5.05
   2   9  -1   29.12    4.64
   8   1   1  161.82   17.04
  -9   8   1  166.19   17.01
  -1   9  -1  178.06   17.00
  -1   9  -1  165.57   17.51
  -8  -1  -1  165.14   18.02
  -9   5   1   33.08    4.36
  -9   5   1   37.95    4.33
   5   4   1   37.47    4.42
  -4   9  -1   41.29    4.57
   9  -5  -1   26.38    4.15
  -4   9  -1   32.68    5.92
  -5  -4  -1   33.26    6.31
   2   7   1   19.20    2.82
  -9   2   1   17.64    3.07
  -7   9  -1   13.89    4.35
   9  -2  -1   17.79    2.52
  -2  -7  -1   23.57    5.31
  -7   9  -1   20.61    3.12
  -9  -1   1    1.50    1.86
  -1  10   1    1.07    1.20
   9   1  -1    0.18    1.01
 -10   9  -1    1.79    1.76
 -10   9  -1    2.32    3.08
   1 -10  -1    2.48    2.90
  13  -9   1  246.36   23.54
  -4  13   1  227.52   23.35
  -9  -4   1  229.93   24.03
   9   4  -1  218.47   23.19
 -13   9  -1  247.14   25.22
 -13   9  -1  228.98   24.04
  -7  16   1   -0.21    2.08
  -9  -7   1   -2.75    3.02
 -16   9  -1    2.81    4.20
   9   7  -1   -0.76    1.72
  -9 -10   1   10.96    5.80
   9  10  -1   12.99    4.02
 -19   9  -1   20.33    6.68
  16  -6   1    0.06    2.59
 -10  16   1    3.34    4.78
  -6 -10   1   -2.16    3.77
   6  10  -1    4.86    2.38
 -10  13   1    2.08    4.34
  -3 -10   1    5.11    3.67
  13  -3   1    1.96    2.15
 -13   3  -1   -1.10    2.05
   3  10  -1    0.27    1.50
   3  10  -1    2.44    2.15
  10   0   1  108.52   10.73
   0  10  -1   88.25   10.84
   0  10  -1  100.30   10.41
 -10   0  -1   97.06   11.30
 -10   7   1  178.72   17.69
   7   3   1  188.78   17.88
 -10   7   1  169.84   18.85
  -3  10  -1  171.75   17.76
  -3  10  -1  177.74   18.85
  -7  -3  -1  159.04   19.21
   4   6   1  102.14   10.06
 -10   4   1   94.52   10.12
  10  -4  -1   98.10    9.91
  -6  10  -1  110.47   13.12
  -4  -6  -1   83.05   12.80
  -6  10  -1   87.77   10.01
 -10   1   1   60.40    6.89
   1   9   1   50.96    6.13
  -9  10  -1   46.12    8.12
  10  -1  -1   49.10    5.58
  -1  -9  -1   36.74    7.69
  -9  10  -1   57.92    6.68
 -10  -2   1   36.18    5.41
  -2  12   1   30.58    4.33
  12 -10   1   27.85    4.69
 -12  10  -1   29.63    6.27
 -12  10  -1   29.35    5.37
  10   2  -1   36.09    4.41
 -10  -5   1   -3.64    2.35
  15 -10   1    5.57    2.27
  -5  15   1   -1.31    1.56
 -15  10  -1    0.45    2.94
 -15  10  -1    3.96    3.72
  10   5  -1    1.36    1.84
 -10  -8   1   71.62   11.89
  -8  18   1   87.96   10.69
  10   8  -1   81.07   10.24
 -18  10  -1   96.73   13.08
  -7 -11   1   -3.49    4.35
   7  11  -1    2.61    2.82
 -11  15   1   24.23    7.65
  15  -4   1    9.26    3.15
 -15   4  -1    9.74    3.54
   4  11  -1    8.89    2.91
  12  -1   1   10.95    2.82
 -11  12   1    6.09    4.80
   1  11  -1    6.83    2.17
   1  11  -1   11.10    2.84
 -12   1  -1    5.78    2.83
   9   2   1   -0.42    1.37
  -2  11  -1   -0.34    2.21
  -9  -2  -1    3.31    2.58
  -2  11  -1   -1.14    1.06
   6   5   1    8.58    2.06
 -11   6   1    6.77    2.12
  -5  11  -1   10.58    2.21
  -6  -5  -1   11.46    4.66
  -5  11  -1    7.16    3.87
 -11   3   1  154.35   15.70
   3   8   1  151.53   15.49
  -3  -8  -1  128.63   18.32
  -8  11  -1  152.05   15.63
  -8  11  -1  162.59   17.54
 -11   0   1    3.90    1.98
   0  11   1    1.44    1.29
  11   0  -1    2.95    1.39
 -11  11  -1   -0.09    1.88
   0 -11  -1    2.87    3.42
 -11  11  -1    3.38    3.30
  14 -11   1   40.28    5.64
  -3  14   1   38.11    5.20
 -11  -3   1   35.49    5.96
  11   3  -1   27.30    4.64
 -14  11  -1   41.94    6.54
 -14  11  -1   38.49    7.51
  -6  17   1   24.52    4.35
 -11  -6   1   16.42    5.32
  11   6  -1   21.62    4.23
 -17  11  -1   26.54    6.75
 -20  11  -1   -0.56    4.91
  11   9  -1    0.41    3.20
 -12  17   1    4.53    6.03
   5  12  -1    0.29    2.43
 -12  14   1   -0.31    4.77
  14  -2   1    2.96    2.41
   2  12  -1    2.98    2.07
 -14   2  -1    2.83    2.59
  11   1   1   -3.63    1.51
  -1  12  -1   -0.20    1.33
  -1  12  -1    0.39    2.12
 -11  -1  -1   -1.08    2.72
   8   4   1    9.01    2.36
  -4  12  -1   15.28    2.58
  -8  -4  -1   14.25    4.87
  -4  12  -1   10.07    3.62
 -12   5   1   33.12    4.78
   5   7   1   30.07    4.60
  -5  -7  -1   40.89    8.06
  -7  12  -1   35.64    4.81
  -7  12  -1   38.37    7.29
   2  10   1    3.14    1.73
 -12   2   1    2.42    1.85
  -2 -10  -1    3.71    4.21
 -10  12  -1   10.59    4.30
 -10  12  -1    5.19    2.26
 -12  -1   1   19.07    4.24
  -1  13   1   19.27    3.44
 -13  12  -1   19.06    5.53
 -13  12  -1   35.77    5.55
  -4  16   1   10.72    2.92
 -12  -4   1    5.37    3.36
 -16  12  -1   12.35    5.41
  -7  19   1    7.36    3.52
 -12  -7   1   17.45    5.62
 -19  12  -1    9.70    5.92
 -13  19   1   46.82   10.50
   6  13  -1   37.21    6.45
 -13  16   1    2.87    5.99
  16  -3   1    4.28    3.02
   3  13  -1    5.75    2.88
 -16   3  -1   11.92    4.18
  13   0   1   67.02    8.12
 -13  13   1   77.88   12.11
 -13   0  -1   53.60    8.51
   0  13  -1   46.93    7.00
  10   3   1   -1.03    1.48
 -10  -3  -1   -3.01    3.05
  -3  13  -1    0.10    1.34
  -3  13  -1   -1.67    2.26
   7   6   1    1.32    1.52
 -13   7   1    2.18    1.68
  -7  -6  -1    5.85    4.87
  -6  13  -1    1.41    1.55
  -6  13  -1   -0.53    3.04
   4   9   1    5.54    1.93
 -13   4   1    7.54    2.50
  -9  13  -1   10.92    2.60
  -4  -9  -1   -2.01    4.10
  -9  13  -1    5.28    4.02
 -13   1   1   71.95    9.34
   1  12   1   59.31    8.58
 -12  13  -1  111.17   10.61
 -12  13  -1   89.96   12.12
 -13  -2   1    3.14    2.90
  -2  15   1   -0.90    1.45
  15 -13   1    2.17    2.52
 -15  13  -1    0.74    3.73
 -15  13  -1   -2.51    3.69
 -13  -5   1    4.24    4.00
  -5  18   1    2.22    2.29
 -18  13  -1    1.30    4.53
 -14  18   1   -2.34    6.10
   4  14  -1    1.21    2.88
 -14  15   1   39.96    9.33
  15  -1   1   29.60    5.65
 -15   1  -1   36.76    6.47
   1  14  -1   25.62    4.91
  12   2   1   87.19    9.67
  -2  14  -1   73.63    9.81
 -12  -2  -1   63.24   10.30
  -2  14  -1   70.79    8.84
   9   5   1   56.11    7.25
  -9  -5  -1   41.45    8.89
  -5  14  -1   65.81    9.24
  -5  14  -1   60.36    7.27
   6   8   1    8.70    2.72
 -14   6   1   14.55    3.03
  -8  14  -1   13.78    5.21
  -8  14  -1   10.19    2.75
  -6  -8  -1   20.50    7.03
   3  11   1   -0.39    1.49
 -14   3   1   -1.30    1.82
 -11  14  -1   -3.40    3.18
  -3 -11  -1   -4.06    4.98
 -11  14  -1    3.73    2.19
   0  14   1    2.15    1.93
 -14   0   1    3.38    2.73
 -14  14  -1   -0.36    3.28
 -14  14  -1    1.67    4.16
  -3  17   1   54.67    7.31
 -14  -3   1   42.29    7.85
 -17  14  -1   58.50   10.17
 -15  17   1   17.84    7.85
 -17   2  -1   11.68    4.65
   2  15  -1    5.46    3.32
 -15  14   1   -3.15    4.01
  14   1   1   -1.09    2.34
  -1  15  -1    2.48    2.21
 -14  -1  -1    1.58    3.44
  11   4   1    3.87    2.37
  -4  15  -1    6.91    3.76
  -4  15  -1    4.45    1.91
 -11  -4  -1    8.10    4.14
   8   7   1  128.92   13.99
  -8  -7  -1  110.68   17.45
  -7  15  -1  131.50   13.85
  -7  15  -1  140.18   15.79
   5  10   1    5.26    2.43
 -15   5   1    4.29    2.45
 -10  15  -1    4.80    2.65
 -10  15  -1    7.86    4.75
  -5 -10  -1    6.07    5.58
   2  13   1   29.16    4.77
 -15   2   1   25.83    5.14
 -13  15  -1   32.61    5.72
 -13  15  -1   34.74    7.37
  -1  16   1   17.64    3.80
 -15  -1   1   13.70    4.45
 -16  15  -1   10.90    5.84
  16   0   1   -0.08    2.92
 -16  16   1   11.41    7.11
 -16   0  -1    1.42    3.61
   0  16  -1   -1.57    2.33
  13   3   1   46.17    6.23
 -13  -3  -1   27.08    6.72
  -3  16  -1   24.51    4.78
  10   6   1    0.62    2.26
 -10  -6  -1   -3.68    4.31
  -6  16  -1   -2.24    3.22
  -6  16  -1    0.74    1.75
   7   9   1   -0.42    2.08
  -9  16  -1   -3.00    3.76
  -9  16  -1    0.49    2.15
  -7  -9  -1    5.36    6.50
 -16   4   1   64.80    8.53
   4  12   1   57.91    7.99
  -4 -12  -1   47.66   10.80
 -12  16  -1   66.89   10.70
 -12  16  -1   58.98    8.28
   1  15   1   20.62    4.18
 -16   1   1   14.66    4.47
 -15  16  -1   15.51    5.91
 -17  15   1   27.31    8.77
  15   2   1   27.53    5.64
 -15  -2  -1   23.98    6.34
  -2  17  -1   24.48    4.75
  12   5   1   10.21    3.54
  -5  17  -1    7.00    2.78
 -12  -5  -1   12.57    5.84
   9   8   1   34.75    5.56
  -9  -8  -1   24.62    8.84
  -8  17  -1   23.91    6.76
  -8  17  -1   34.41    5.30
   6  11   1    3.23    2.78
 -11  17  -1   -0.66    2.58
  -6 -11  -1    3.73    6.66
 -11  17  -1   -0.99    4.51
   3  14   1    2.13    2.63
 -17   3   1   -3.59    2.21
 -14  17  -1    0.52    3.47
 -14  17  -1    1.32    4.16
 -17  17  -1    6.61    5.97
  14   4   1   16.82    4.72
 -18  14   1   31.80    8.69
  -4  18  -1   20.11    4.26
 -14  -4  -1   18.85    6.72
  11   7   1    7.87    3.80
 -11  -7  -1   -1.76    5.42
  -7  18  -1    3.79    4.34
  -7  18  -1   10.97    3.16
   8  10   1   20.53    4.67
 -10  18  -1   19.78    4.42
 -10  18  -1   19.20    6.44
  -8 -10  -1   14.51    8.52
 -18   5   1    7.18    3.76
   5  13   1   10.46    3.55
 -13  18  -1    8.89    5.68
 -13  18  -1    6.29    3.72
 -18   2   1    3.72    4.15
  13   6   1   62.45    8.01
  -6  19  -1   26.67    5.46
 -13  -6  -1   29.73   12.29
  10   9   1    7.61    3.86
  -9  19  -1   11.33    3.45
 -10  -9  -1   -0.69    6.70
  -9  19  -1    5.78    4.70
   7  12   1    4.38    3.35
 -12  19  -1    2.90    3.50
  -7 -12  -1    4.49    7.68
 -12  19  -1    7.03    5.55
 -19   4   1    0.98    4.96
 -11  20  -1   23.58    7.86
  -1   0   2   12.39    1.89
   1   0  -2   12.67    1.85
   1   0  -2   13.52    1.86
  -1   1  -2    6.71    1.70
   0  -1  -2   10.31    2.32
  -1   1  -2   13.12    2.10
   2   0   2   86.92    9.18
   0  -2   2   95.50    9.07
  -2   2   2   91.31    9.22
   0   2  -2   88.54    8.91
   2  -2  -2   87.46    9.21
   0   2  -2   87.74    8.97
   0   2  -2   94.98    9.20
  -2   0  -2   88.91    9.19
  -2   0  -2   74.18    9.86
  -1   3   2  760.70   73.11
  -2  -1   2  803.95   73.36
  -3   2  -2  720.15   73.54
   2   1  -2  760.08   73.32
  -3   2  -2  756.63   73.79
   2   1  -2  750.82   73.45
   1  -3  -2  729.78   73.87
  -3   2  -2  739.07   73.58
  -1  -3   2   91.99    8.69
   4  -1   2   72.52    8.88
   1   3  -2   85.16    8.92
   3  -4  -2   94.21    8.99
  -4   1  -2   90.60    9.86
   1   3  -2   85.53    8.54
  -4   1  -2   90.62    9.09
  -4   1  -2   71.60    8.95
   1   2   2   47.77    4.70
  -3   1   2   44.47    4.85
  -1  -2  -2   37.46    6.21
   3  -1  -2   43.70    4.76
  -2   3  -2   45.05    5.04
  -2   3  -2   44.58    4.75
  -2   3  -2   43.50    4.72
  -3  -2   2   71.34    7.19
   5  -3   2   68.90    7.35
  -2   5   2   66.53    6.87
  -5   3  -2   68.88    7.59
   3   2  -2   72.31    6.88
   3   2  -2   64.30    7.30
   2  -5  -2   65.09    7.87
  -5   3  -2   64.23    7.91
  -4   6   2   35.95    3.74
   6  -2   2   29.06    4.44
  -2  -4   2   34.63    4.06
  -6   2  -2   31.66    4.67
  -6   2  -2   31.30    5.62
   2   4  -2   37.26    3.82
   4  -6  -2   32.97    4.46
   2   4  -2   38.01    4.71
  -6   2  -2   32.26    5.17
  -4   3   2  184.54   17.72
   1  -4   2  177.39   17.49
   3   1   2  183.56   17.71
  -1   4  -2  186.16   17.55
  -1   4  -2  167.71   17.87
  -3  -1  -2  173.48   17.68
   4  -3  -2  181.17   17.64
  -3  -1  -2  167.01   18.71
  -1   4  -2  171.11   17.47
   0   4   2   34.42    3.82
  -4   0   2   39.17    4.10
   0  -4  -2   35.18    5.75
  -4   4  -2   36.24    5.20
  -4   4  -2   36.39    4.44
  -4   4  -2   35.16    4.56
  -4  -3   2   12.94    2.50
   7  -4   2   22.14    2.99
  -7   4  -2   14.42    3.45
   3  -7  -2   18.57    3.43
   4   3  -2   14.10    2.61
   4   3  -2   16.14    2.12
  -7   4  -2   15.98    3.65
  -7   4  -2   10.93    2.84
  -3  -5   2  236.39   24.13
   8  -3   2  240.72   24.21
  -5   8   2  238.39   23.76
   3   5  -2  249.36   24.27
  -8   3  -2  243.39   24.39
  -8   3  -2  224.42   24.88
   3   5  -2  237.54   23.78
  -8   3  -2  264.38   25.43
   5  -8  -2  240.06   24.10
   0  -5   2    0.52    0.82
  -5   5   2    0.85    0.87
   5   0   2    0.50    1.10
   5  -5  -2    1.79    0.93
   0   5  -2    1.27    0.73
  -5   0  -2   -0.25    2.56
  -5   0  -2    3.84    1.30
   0   5  -2    0.68    1.12
  -5   2   2    4.70    1.25
   2   3   2    5.16    1.18
  -2  -3  -2    1.92    2.36
  -3   5  -2    4.55    1.20
   5  -2  -2    3.50    1.18
  -3   5  -2    4.20    1.81
  -5  -1   2  122.48   12.36
  -1   6   2  127.34   12.05
   5   1  -2  117.16   11.91
  -6   5  -2  113.49   13.30
  -6   5  -2  128.66   12.61
  -6   5  -2  102.18   12.43
   1  -6  -2  133.10   13.39
  -4   9   2   -0.58    2.58
  -4   9   2    1.71    1.11
  -5  -4   2   -1.97    1.37
   9  -5   2   -0.10    1.17
   5   4  -2    1.68    1.01
  -9   5  -2    3.56    2.69
  -9   5  -2    3.17    2.06
   5   4  -2    1.02    1.39
  -9   5  -2    0.89    2.64
   4  -9  -2   -1.32    1.57
  -6  10   2   59.41   10.05
  10  -4   2   75.53    8.19
  -4  -6   2   71.41    8.34
  -6  10   2   71.37    7.76
   4   6  -2   70.03    7.72
 -10   4  -2   74.33   10.10
 -10   4  -2   80.33    8.47
   4   6  -2   73.43    8.35
  -6   7   2   10.88    1.60
  -6   7   2    7.65    1.70
  -1  -6   2    9.61    2.03
   7  -1   2    4.91    1.85
   1   6  -2    7.50    1.59
   1   6  -2    9.35    2.24
  -7   1  -2    6.49    1.93
   6  -7  -2    9.56    1.75
  -7   1  -2    2.07    3.09
   2  -6   2  406.96   38.27
  -6   4   2  392.37   38.47
   4   2   2  386.61   38.49
   6  -4  -2  403.43   38.47
  -2   6  -2  377.78   38.97
  -2   6  -2  396.49   38.42
  -4  -2  -2  360.78   39.80
  -6   1   2   15.79    2.47
   1   5   2   14.61    2.12
   6  -1  -2   15.71    2.13
  -5   6  -2   11.73    2.24
  -1  -5  -2   18.00    4.01
  -5   6  -2   15.54    3.60
  -6  -2   2   25.56    3.84
  -2   8   2   26.58    3.28
   6   2  -2   25.96    3.12
  -8   6  -2   22.54    4.95
  -8   6  -2   22.34    4.01
   2  -8  -2   27.61    5.02
  -5  11   2    3.95    1.53
  11  -6   2    0.53    1.30
  -5  11   2    2.73    3.49
  -6  -5   2   -1.10    1.70
   6   5  -2    0.06    1.12
 -11   6  -2    0.56    2.73
   6   5  -2    4.86    2.12
 -11   6  -2    4.45    2.26
  12  -5   2    6.09    2.09
  -5  -7   2    5.97    2.74
  -7  12   2    8.11    4.75
   5   7  -2    7.47    1.99
   5   7  -2    6.21    2.50
 -12   5  -2    9.47    3.67
 -12   5  -2   11.21    2.95
  -2  -7   2   54.82    6.74
   9  -2   2   43.05    6.38
  -7   9   2   53.90    5.79
  -9   2  -2   50.30    8.15
  -9   2  -2   42.43    6.44
   2   7  -2   56.38    6.82
   2   7  -2   55.79    5.85
   7  -9  -2   51.46    5.69
  -7   6   2   18.38    3.14
   6   1   2   30.55    3.88
   1  -7   2   32.67    3.69
  -1   7  -2   25.34    4.18
   7  -6  -2   24.77    3.31
  -6  -1  -2   17.51    5.11
  -1   7  -2   26.03    3.31
   3   4   2   40.54    4.35
  -7   3   2   28.20    4.16
  -4   7  -2   39.82    4.41
  -3  -4  -2   23.86    5.59
  -4   7  -2   35.47    5.73
   0   7   2  227.51   22.69
  -7   0   2  213.45   23.00
  -7   7  -2  244.54   24.33
   0  -7  -2  233.21   24.09
   7   0  -2  240.10   22.50
  -7   7  -2  220.79   23.03
  -7  -3   2   79.14    9.36
  -3  10   2   85.42    8.88
  10  -7   2   71.54    9.16
 -10   7  -2   77.00   10.05
   7   3  -2   88.92    8.78
   3 -10  -2  105.19   10.19
 -10   7  -2   85.01   11.54
  -7  -6   2    2.33    2.44
  -6  13   2    2.99    1.80
  13  -7   2    3.23    1.73
 -13   7  -2   -1.29    2.31
   7   6  -2    3.42    1.66
 -13   7  -2   -1.04    3.22
  -6  -8   2   16.72    4.36
  14  -6   2   17.85    3.47
 -14   6  -2   25.31    4.48
   6   8  -2   14.33    3.51
   6   8  -2   14.79    3.13
 -14   6  -2   11.33    4.58
  -3  -8   2   98.50   11.08
  11  -3   2   83.30   10.72
  -8  11   2   97.06   13.99
   3   8  -2  107.46   10.52
 -11   3  -2  107.94   13.21
   3   8  -2   97.08   10.92
 -11   3  -2  107.98   11.14
   8   0   2  152.56   14.81
  -8   8   2  138.36   14.22
   0  -8   2  142.44   14.59
   0   8  -2  137.60   14.99
   0   8  -2  144.39   14.35
  -8   0  -2  129.47   16.18
   8  -8  -2  139.12   14.21
  -8   5   2   44.89    4.95
   5   3   2   40.91    5.23
  -5  -3  -2   35.50    7.40
  -3   8  -2   42.30    4.90
  -3   8  -2   49.94    6.59
   2   6   2    3.16    1.24
  -8   2   2    2.78    1.47
  -2  -6  -2    4.59    3.64
  -6   8  -2    3.93    2.78
  -6   8  -2    2.13    1.31
  -1   9   2   46.65    5.40
  -8  -1   2   36.80    5.79
   8   1  -2   53.81    5.86
  -9   8  -2   39.23    7.17
  -9   8  -2   41.01    5.94
   1  -9  -2   46.91    7.22
  12  -8   2   57.59    6.70
  -4  12   2   41.51    6.01
  -8  -4   2   49.60    6.83
 -12   8  -2   43.82    7.12
 -12   8  -2   52.29    8.57
   8   4  -2   51.94    5.70
  -8  -7   2   85.21   10.87
  15  -8   2   84.89    9.93
 -15   8  -2   93.91   10.80
   8   7  -2   76.12    9.01
 -15   8  -2   66.23   11.35
  16  -7   2   26.20    4.94
  -7  -9   2   31.04    6.37
   7   9  -2   28.90    4.89
 -16   7  -2   43.83    6.41
  13  -4   2   16.71    3.40
  -9  13   2   15.94    6.43
  -4  -9   2   10.59    3.67
   4   9  -2   16.52    3.79
 -13   4  -2   21.94    4.09
   4   9  -2   19.25    3.31
 -13   4  -2   19.10    5.11
  10  -1   2    5.29    2.14
   1   9  -2    1.68    1.47
   1   9  -2    3.53    2.20
 -10   1  -2   -2.69    2.77
   7   2   2   32.29    4.80
  -9   7   2   34.93    4.54
  -2   9  -2   41.37    4.73
  -2   9  -2   39.60    6.16
  -7  -2  -2   27.31    6.76
  -9   4   2  267.30   26.83
   4   5   2  276.40   26.76
  -4  -5  -2  262.57   28.79
  -5   9  -2  294.15   28.31
  -5   9  -2  254.16   26.72
  -9   1   2    0.19    1.46
   1   8   2    3.26    1.32
  -8   9  -2   -0.36    1.24
  -1  -8  -2   -0.94    3.03
  -8   9  -2    0.18    2.82
  11  -9   2   23.74    4.29
  -9  -2   2   30.24    4.77
  -2  11   2   28.42    3.95
 -11   9  -2   28.94    6.06
 -11   9  -2   30.02    5.22
   2 -11  -2   25.48    5.27
  -5  14   2   30.90    4.89
  -9  -5   2   28.42    5.49
  14  -9   2   36.94    5.17
 -14   9  -2   40.37    6.28
 -14   9  -2   34.55    6.90
  17  -9   2    4.52    2.53
  -9  -8   2    4.64    3.96
 -17   9  -2   -2.03    3.10
 -17   9  -2   -0.77    3.69
  18  -8   2   13.58    3.85
  -8 -10   2    8.93    4.48
   8  10  -2    6.77    3.17
 -18   8  -2   12.94    4.83
  -5 -10   2   45.24    8.81
  15  -5   2   79.48    8.75
 -10  15   2   94.34   12.74
   5  10  -2   58.37    8.36
   5  10  -2   67.39    8.20
  12  -2   2   18.82    3.86
   2  10  -2   23.08    4.09
   2  10  -2   20.17    3.40
 -12   2  -2   16.48    4.88
   9   1   2   26.18    4.50
  -9  -1  -2   35.60    6.85
  -1  10  -2   33.34    4.48
  -1  10  -2   40.04    5.69
 -10   6   2    4.24    1.64
   6   4   2    2.70    1.66
  -4  10  -2    2.45    2.77
  -4  10  -2    1.72    1.32
  -6  -4  -2    4.78    4.67
   3   7   2    3.21    1.50
 -10   3   2    0.14    1.56
  -7  10  -2   -2.83    2.55
  -3  -7  -2    0.71    3.74
  -7  10  -2    0.50    1.25
 -10   0   2   94.60   10.35
   0  10   2   85.36    9.78
   0 -10  -2  101.08   12.47
 -10  10  -2   95.12   10.43
 -10  10  -2   96.67   12.87
 -10  -3   2   40.04    5.97
  13 -10   2   35.59    5.53
  -3  13   2   29.54    4.93
 -13  10  -2   54.99    7.12
 -13  10  -2   31.38    6.99
  -6  16   2    7.79    2.95
  16 -10   2   15.88    3.58
 -10  -6   2   15.73    4.37
 -16  10  -2   13.34    5.45
 -16  10  -2   11.73    4.46
 -10  -9   2   17.95    5.83
  17  -6   2    2.46    2.64
   6  11  -2    1.50    2.64
  14  -3   2    0.65    2.03
 -11  14   2    6.17    6.58
   3  11  -2    1.73    1.99
 -14   3  -2   -2.11    2.94
   3  11  -2   -0.49    2.31
  11   0   2   50.52    7.11
   0  11  -2   50.86    7.64
 -11   0  -2   47.64    8.57
   0  11  -2   61.66    6.91
 -11   8   2   -1.23    1.29
   8   3   2   -0.57    1.47
  -3  11  -2    1.84    1.37
  -3  11  -2    1.93    2.63
  -8  -3  -2    2.45    4.26
   5   6   2   39.86    5.22
 -11   5   2   35.60    5.33
  -5  -6  -2   43.15    8.72
  -6  11  -2   49.40    7.61
  -6  11  -2   36.70    5.06
 -11   2   2   20.01    3.73
   2   9   2   18.83    3.10
  -9  11  -2   14.81    3.06
  -2  -9  -2   13.11    5.17
  -9  11  -2   19.65    5.11
  -1  12   2    0.20    1.50
 -11  -1   2   -1.92    1.81
 -12  11  -2    0.21    2.49
 -12  11  -2   -1.10    2.86
  -4  15   2    2.98    2.07
 -11  -4   2   -2.15    2.47
  15 -11   2    0.30    1.95
 -15  11  -2    4.31    3.85
 -15  11  -2    1.28    3.54
 -11  -7   2   20.67    6.16
  18 -11   2   36.38    5.79
 -18  11  -2   38.40    8.18
 -18  11  -2   44.18    7.82
   7  12  -2    5.56    3.41
 -12  16   2   51.36   10.71
  16  -4   2   31.46    5.82
   4  12  -2   46.92    6.28
 -12  13   2   93.44   12.87
  13  -1   2   58.03    7.92
   1  12  -2   52.47    7.78
   1  12  -2   58.88    7.28
 -13   1  -2   46.53    8.69
  10   2   2    9.61    2.88
  -2  12  -2    9.51    3.70
  -2  12  -2    9.29    2.31
 -10  -2  -2    4.77    4.26
 -12   7   2    0.66    1.74
   7   5   2    0.08    1.40
  -5  12  -2    0.25    1.32
  -7  -5  -2   -0.11    4.17
  -5  12  -2    4.56    3.32
 -12   4   2   20.52    3.72
   4   8   2   13.84    2.95
  -8  12  -2   28.34    6.03
  -4  -8  -2   16.38    6.24
  -8  12  -2   14.44    3.20
   1  11   2   19.17    3.39
 -12   1   2   18.25    4.00
 -11  12  -2   19.58    4.05
  -1 -11  -2   29.96    6.42
 -11  12  -2   19.10    5.41
  -2  14   2   24.13    4.15
 -12  -2   2   22.38    4.69
  14 -12   2   22.48    4.52
 -14  12  -2   27.67    6.48
 -14  12  -2   42.09    6.54
 -12  -5   2   12.85    4.91
  17 -12   2   28.19    4.59
  -5  17   2   13.68    3.72
 -17  12  -2    9.51    5.07
 -17  12  -2   24.28    5.67
  18  -5   2    1.27    2.62
   5  13  -2   -0.77    2.86
  15  -2   2    1.57    2.69
 -13  15   2   16.05    7.32
   2  13  -2    9.10    2.81
 -15   2  -2    4.91    4.12
  12   1   2   35.61    6.19
  -1  13  -2   45.88    5.85
  -1  13  -2   35.75    6.48
 -12  -1  -2   36.83    7.82
   9   4   2  187.11   17.80
  -9  -4  -2  163.34   21.59
  -4  13  -2  158.54   17.42
  -4  13  -2  164.19   19.02
   6   7   2    2.65    1.86
 -13   6   2    1.39    1.97
  -7  13  -2    2.85    1.71
  -6  -7  -2    0.39    5.11
  -7  13  -2    9.43    4.30
   3  10   2   42.74    5.94
 -13   3   2   42.94    6.26
 -10  13  -2   45.99    6.11
 -10  13  -2   36.84    7.51
  -3 -10  -2   46.77    9.22
 -13   0   2   13.34    3.60
   0  13   2   15.16    3.21
 -13  13  -2   18.79    5.45
 -13  13  -2   15.28    4.22
  16 -13   2    3.63    2.77
 -13  -3   2    5.23    3.44
  -3  16   2    5.69    2.81
 -16  13  -2    3.80    4.28
 -16  13  -2   -3.61    3.62
 -19  13  -2   27.16    7.36
  17  -3   2   42.82    7.18
 -14  17   2   67.74   12.66
 -17   3  -2   65.66   13.66
   3  14  -2   40.12    6.69
  14   0   2    1.26    2.95
 -14  14   2    6.40    6.18
   0  14  -2    4.42    2.34
   0  14  -2    5.71    3.27
 -14   0  -2    4.65    4.26
  11   3   2    2.80    2.43
  -3  14  -2   -0.17    1.67
  -3  14  -2    5.62    3.69
 -11  -3  -2   -0.48    4.11
   8   6   2   14.41    3.30
  -6  14  -2   17.24    3.31
  -6  14  -2   23.60    5.72
  -8  -6  -2    3.85    5.83
 -14   5   2  176.55   18.54
   5   9   2  173.00   18.39
  -5  -9  -2  152.86   22.59
  -9  14  -2  184.04   20.41
  -9  14  -2  183.57   18.43
   2  12   2   43.32    6.18
 -14   2   2   33.38    6.25
 -12  14  -2   53.22    7.08
 -12  14  -2   54.79    8.72
  -2 -12  -2   53.46    9.35
  -1  15   2   39.08    6.11
 -14  -1   2   33.33    6.62
  15 -14   2   48.39    6.89
 -15  14  -2   39.61    8.04
 -15  14  -2   69.64    8.87
 -14  -4   2    3.93    3.76
  -4  18   2    5.40    3.09
 -18  14  -2   -1.22    4.14
 -15  16   2  120.89   16.36
  16  -1   2   55.71    9.45
   1  15  -2   66.51    9.09
 -16   1  -2   85.79   11.79
  13   2   2    3.19    2.98
  -2  15  -2    3.60    3.69
 -13  -2  -2    2.49    4.27
  -2  15  -2    5.14    2.47
  10   5   2    2.40    2.35
  -5  15  -2    7.26    2.37
  -5  15  -2    7.67    4.19
 -10  -5  -2   -2.33    4.62
 -15   7   2    0.91    2.34
   7   8   2   -0.68    1.74
  -8  15  -2   -1.27    1.74
  -8  15  -2    1.58    3.73
  -7  -8  -2   -0.70    6.85
   4  11   2    8.26    2.69
 -15   4   2    4.65    2.83
 -11  15  -2    7.95    4.71
 -11  15  -2    8.11    2.97
  -4 -11  -2   -2.31    5.39
   1  14   2   43.68    6.56
 -15   1   2   42.95    7.13
 -14  15  -2   63.67    8.28
 -14  15  -2   36.62    7.78
  17 -15   2   80.77    9.39
 -15  -2   2   58.26    9.24
  -2  17   2   48.32    8.13
 -17  15  -2   84.28   11.07
 -17  15  -2   51.30    9.92
 -16  18   2   32.42   13.49
 -16  15   2   -6.54    5.49
  15   1   2   -0.70    3.15
 -15  -1  -2    5.60    4.62
  -1  16  -2   -3.37    1.94
  12   4   2   21.40    4.81
 -12  -4  -2   24.36    7.19
  -4  16  -2   16.47    3.80
  -4  16  -2   25.48    5.89
   9   7   2   13.34    3.47
  -7  16  -2   13.25    3.23
  -7  16  -2   11.02    5.02
  -9  -7  -2   13.30    7.45
 -16   6   2   -0.50    2.44
   6  10   2    2.15    2.47
 -10  16  -2    6.83    4.32
 -10  16  -2    4.74    2.52
  -6 -10  -2    1.33    6.48
   3  13   2   -1.76    2.09
 -16   3   2    4.71    3.06
 -13  16  -2   -1.08    3.77
 -13  16  -2    0.25    2.88
   0  16   2    2.20    2.84
 -16   0   2   12.31    4.36
  16 -16   2    6.80    3.52
 -16  16  -2   15.43    5.62
 -16  16  -2   17.16    5.96
  14   3   2   37.76    7.28
 -14  -3  -2   50.50    9.71
  -3  17  -2   53.43    7.27
  11   6   2    0.95    2.70
  -6  17  -2    6.87    5.00
  -6  17  -2    5.10    2.58
 -11  -6  -2   -3.92    4.80
   8   9   2    5.19    3.10
  -9  17  -2   11.36    3.36
  -8  -9  -2    4.97    7.89
  -9  17  -2    3.91    4.42
   5  12   2   16.55    4.21
 -17   5   2   20.23    4.77
 -12  17  -2   12.39    5.69
  -5 -12  -2   16.31    8.14
 -12  17  -2   12.59    4.01
 -17   2   2    3.95    3.28
   2  15   2    0.36    2.69
 -15  17  -2   -1.80    3.84
 -15  17  -2   -4.83    3.46
  13   5   2   10.68    4.28
  -5  18  -2   13.31    5.38
 -13  -5  -2    6.91    5.95
  -5  18  -2    5.54    2.87
  10   8   2   66.08    9.90
  -8  18  -2   81.64   12.33
  -8  18  -2   76.85    9.37
 -10  -8  -2   53.49   13.01
   7  11   2   34.83    6.17
 -11  18  -2   31.01    5.81
 -11  18  -2   48.28    9.02
  -7 -11  -2   39.72   11.02
   4  14   2   23.87    5.62
 -18   4   2   27.55    5.67
 -14  18  -2   22.88    7.27
 -14  18  -2   52.11    7.37
  -7  19  -2    5.68    5.20
   9  10   2   14.00    5.09
  -9 -10  -2   -2.69    7.39
 -10  19  -2    8.30    5.31
 -10  19  -2    4.45    3.25
  -6 -13  -2   42.74   12.02
   0   0   3   61.38    7.34
   0   0  -3   76.56    7.35
   0   0  -3   71.35    7.76
   0   0  -3   72.66    7.55
  -1   2   3    2.11    0.78
  -1  -1   3    1.65    1.09
   2  -1   3    0.01    1.07
  -2   1  -3    0.80    1.40
   1   1  -3    1.04    0.93
   1  -2  -3    2.28    1.63
  -2   1  -3    1.76    0.91
   1   1  -3    1.04    0.87
  -2   1  -3    1.55    1.78
   1   1  -3    2.63    0.82
  -2   1   3   91.42    8.79
   1   1   3   83.37    8.48
   1  -2   3   92.15    8.65
  -1   2  -3   73.10    8.54
   2  -1  -3   80.54    8.62
  -1  -1  -3   70.70    8.38
   2  -1  -3   81.00    8.48
  -1   2  -3   88.53    8.62
  -1   2  -3   81.54    8.43
  -1  -1  -3   83.19    8.47
  -1  -1  -3   76.78    9.53
  -2   4   3    8.96    1.23
   4  -2   3    8.98    1.98
  -2  -2   3    9.07    1.85
  -4   2  -3    9.28    1.89
   2   2  -3   11.16    1.81
  -4   2  -3   10.47    3.02
   2   2  -3    7.50    1.25
  -4   2  -3    5.89    2.17
   2  -4  -3    4.99    2.39
   2   2  -3    6.43    1.69
  -3   3   3    1.48    1.23
   0  -3   3    1.25    1.02
   3   0   3    0.76    1.26
  -3   0  -3    1.97    0.77
   3  -3  -3    1.16    1.19
   0   3  -3    0.68    0.77
   0   3  -3    1.99    1.16
  -3   0  -3    1.01    1.24
  -3   0  -3    5.43    2.76
   0   3  -3    0.62    0.66
   0   3   3   10.36    1.59
  -3   0   3   11.50    2.06
   0  -3  -3    8.83    3.22
   3   0  -3    9.34    1.90
   3   0  -3    9.92    1.84
  -3   3  -3    7.03    1.92
  -3   3  -3    8.45    2.08
  -3   3  -3    7.56    1.88
   6  -3   3    7.60    1.94
  -3   6   3    7.81    1.34
  -3  -3   3    8.46    1.92
   3   3  -3    4.83    1.76
  -6   3  -3    8.42    2.41
   3   3  -3    7.96    1.33
  -6   3  -3    9.52    2.50
   3  -6  -3    4.53    2.55
  -6   3  -3   10.90    3.17
   5  -1   3   28.57    4.57
  -1  -4   3   36.47    4.03
  -4   5   3   34.33    4.77
  -5   1  -3   35.45    4.95
   1   4  -3   32.17    3.67
  -5   1  -3   34.54    4.30
   4  -5  -3   33.38    4.73
  -5   1  -3   21.96    5.33
   1   4  -3   35.19    4.75
  -4   2   3   16.69    2.79
   2  -4   3   16.06    2.56
   2   2   3   18.10    2.64
  -2   4  -3   15.32    2.36
  -2  -2  -3   18.03    4.12
  -2   4  -3   17.81    2.98
  -2   4  -3   19.11    2.48
   4  -2  -3   15.57    2.56
  -4  -1   3  122.53   11.43
  -1   5   3  109.73   10.93
   1  -5  -3  112.35   12.62
   4   1  -3  104.20   11.41
  -5   4  -3  111.07   11.84
   4   1  -3  105.38   11.24
   4   1  -3  107.38   10.77
  -5   4  -3  127.46   11.90
  -5   4  -3   86.55   11.39
  -4  -4   3    0.16    1.36
   8  -4   3    2.15    1.40
  -8   4  -3    5.83    2.90
  -8   4  -3    7.37    3.09
   4   4  -3    2.66    1.89
   4   4  -3    2.79    1.00
   4  -8  -3    1.88    2.08
  -8   4  -3    0.88    1.94
  -5   7   3    0.99    1.57
   7  -2   3   -1.78    1.14
  -2  -5   3   -0.64    1.27
   5  -7  -3   -0.92    1.35
  -7   2  -3   -1.63    2.64
   2   5  -3    1.59    0.79
  -7   2  -3    2.48    2.04
  -7   2  -3    1.58    1.89
   2   5  -3    1.37    1.54
   4   1   3   16.81    2.73
  -5   4   3   15.25    2.68
   1  -5   3   17.91    2.44
   5  -4  -3   11.21    2.22
  -4  -1  -3   15.14    2.71
  -4  -1  -3   20.73    4.56
  -1   5  -3   10.62    1.95
  -1   5  -3   11.18    2.64
  -1   5  -3   13.89    2.18
   4  -5   3   30.97    3.84
   1   4   3   36.58    4.18
  -5   1   3   32.13    4.49
  -4   5  -3   33.74    4.17
  -4   5  -3   37.14    5.11
  -4   5  -3   31.86    4.26
  -1  -4  -3   46.58    7.07
   5  -1  -3   31.72    4.39
   7  -5   3  109.33   12.48
  -2   7   3  120.69   12.06
  -5  -2   3  114.88   12.52
  -7   5  -3  125.08   13.40
   2  -7  -3  113.96   13.65
  -7   5  -3  136.07   13.13
   5   2  -3  129.36   12.73
  -7   5  -3  108.57   12.78
  -5  -5   3  133.94   14.20
  10  -5   3  143.85   14.03
   5 -10  -3  137.38   14.37
   5   5  -3  145.23   14.33
   5   5  -3  120.87   13.43
 -10   5  -3  124.50   14.37
 -10   5  -3  130.46   15.29
  -3  -6   3   11.41    2.91
  -6   9   3   12.43    2.87
   9  -3   3   11.57    2.77
   3   6  -3   17.33    2.47
   6  -9  -3   19.10    3.32
  -9   3  -3   16.72    4.94
  -9   3  -3   17.66    3.52
   3   6  -3   13.95    3.07
  -6   6   3  247.84   25.23
   6   0   3  268.26   25.39
   0  -6   3  246.80   24.98
   0   6  -3  237.95   25.43
  -6   0  -3  258.35   25.43
   6  -6  -3  254.06   25.09
   0   6  -3  248.06   24.84
  -6   0  -3  254.74   26.75
  -6   3   3   24.25    3.75
   3   3   3   26.98    3.62
   3  -6   3   30.80    3.56
  -3   6  -3   21.31    4.27
   6  -3  -3   31.52    3.92
  -3   6  -3   26.98    3.63
  -3  -3  -3   21.06    5.41
  -3   6  -3   24.86    3.06
   0   6   3   14.45    2.24
  -6   0   3   11.55    2.54
   0  -6  -3   11.77    4.28
  -6   6  -3   13.53    2.69
  -6   6  -3   12.08    3.39
  -3   9   3   25.25    3.04
  -6  -3   3   11.46    3.22
   9  -6   3   15.14    3.03
   6   3  -3   18.90    3.53
  -9   6  -3   23.68    5.25
  -9   6  -3   15.57    3.44
   3  -9  -3   24.16    4.81
  12  -6   3  174.09   15.89
  -6  -6   3  141.99   16.03
   6   6  -3  141.66   16.06
 -12   6  -3  160.44   16.28
   6   6  -3  134.63   15.94
  -4  -7   3    8.12    2.66
  11  -4   3    3.92    1.92
   4   7  -3    6.64    2.63
 -11   4  -3    3.64    2.38
 -11   4  -3    2.36    3.81
   4   7  -3    7.87    1.81
   8  -1   3   80.01    8.49
  -7   8   3   64.81    8.10
  -1  -7   3   72.46    8.15
  -8   1  -3   76.03   11.16
  -8   1  -3   88.84    9.59
   1   7  -3   80.59    8.69
   1   7  -3   68.78    7.72
   7  -8  -3   73.63    8.02
   5   2   3    9.05    2.09
  -7   5   3    7.95    2.02
  -2   7  -3   14.83    3.26
  -5  -2  -3   10.35    4.57
  -2   7  -3    9.31    1.82
   7  -5  -3    7.91    1.90
   2   5   3  116.91   12.67
  -7   2   3  118.53   12.91
  -5   7  -3  126.55   13.75
  -2  -5  -3  136.13   14.74
  -5   7  -3  132.02   12.81
  -7  -1   3   91.36   10.56
  -1   8   3  100.69   10.11
  -8   7  -3  116.14   11.94
   1  -8  -3  104.48   12.94
  -8   7  -3   84.61   10.63
  11  -7   3    8.24    2.20
  -4  11   3    6.42    2.38
  -7  -4   3    7.20    2.74
 -11   7  -3    5.24    3.82
 -11   7  -3    8.17    3.12
   4 -11  -3    7.54    3.27
  -7  -7   3   14.29    3.75
  14  -7   3    6.25    2.30
   7   7  -3    4.89    2.83
 -14   7  -3   10.11    3.51
  -5  -8   3    5.31    3.04
  13  -5   3   12.75    2.85
   5   8  -3   17.22    3.79
 -13   5  -3   12.41    3.60
   5   8  -3   11.59    2.71
  -8  10   3   -0.38    1.34
  -2  -8   3    0.48    1.73
  10  -2   3    1.54    1.72
   2   8  -3    1.67    1.20
   8 -10  -3    1.66    1.40
   2   8  -3    1.80    1.95
 -10   2  -3    4.25    2.39
 -10   2  -3   -2.09    3.24
   7   1   3   23.18    4.07
  -8   7   3   26.73    4.00
   8  -7  -3   29.81    3.97
  -1   8  -3   25.75    4.78
  -7  -1  -3   37.90    7.82
  -1   8  -3   26.41    3.70
   4   4   3    1.93    1.39
  -8   4   3   -0.82    1.18
  -4   8  -3    2.54    2.22
  -4   8  -3   -0.05    1.02
  -4  -4  -3    2.43    3.77
   8  -4  -3    1.45    1.23
   1   7   3   19.27    3.08
  -8   1   3   19.08    3.58
  -1  -7  -3   33.35    6.09
  -7   8  -3   16.70    3.11
  -7   8  -3   19.82    4.80
  10  -8   3    5.57    2.04
  -8  -2   3    2.34    2.01
  -2  10   3    4.05    1.58
 -10   8  -3    7.75    2.80
   2 -10  -3    5.68    3.61
 -10   8  -3    7.12    3.57
  13  -8   3   73.54    8.15
  -8  -5   3   68.01    9.20
 -13   8  -3   66.98   10.39
 -13   8  -3   67.56    9.37
  -8  -8   3    2.34    3.16
  16  -8   3    0.52    2.09
 -16   8  -3    2.93    3.19
  -6  -9   3   26.76    5.51
  15  -6   3   22.33    4.14
   6   9  -3   19.56    4.69
 -15   6  -3   33.79    5.59
   6   9  -3   24.17    4.31
  12  -3   3    7.18    2.45
 -12   3  -3    1.26    2.83
 -12   3  -3    6.03    4.60
   3   9  -3    6.13    2.94
   3   9  -3    4.21    1.92
   9   0   3    0.18    1.62
  -9   9   3    2.18    1.49
   0   9  -3   -1.80    1.93
   0   9  -3   -0.71    1.05
   9  -9  -3    0.11    1.18
  -9   0  -3    0.00    4.12
   6   3   3    1.80    1.55
  -9   6   3    0.48    1.39
  -3   9  -3   -0.38    1.11
  -3   9  -3    0.65    2.48
   9  -6  -3    1.25    1.39
  -6  -3  -3    4.32    4.61
  -9   3   3   90.97   10.03
   3   6   3   82.37    9.75
  -6   9  -3   95.32    9.83
  -6   9  -3  129.20   13.32
  -3  -6  -3   83.53   12.47
  -9   0   3   30.41    5.22
   0   9   3   40.42    4.85
  -9   9  -3   34.69    6.58
   0  -9  -3   31.84    6.69
  -9   9  -3   34.62    5.29
  -3  12   3    1.68    1.73
  12  -9   3   -0.17    1.55
  -9  -3   3    2.70    2.43
 -12   9  -3    3.44    2.85
 -12   9  -3    2.77    3.30
  15  -9   3   10.13    2.91
  -9  -6   3    4.43    3.00
 -15   9  -3    4.27    4.33
 -15   9  -3   11.85    3.95
  -9  -9   3   13.44    5.35
  18  -9   3   24.00    4.38
 -18   9  -3   20.43    5.29
  17  -7   3   52.12    7.45
 -17   7  -3   56.33    8.60
  14  -4   3    3.44    2.26
   4  10  -3    3.67    1.99
   4  10  -3    3.37    2.80
  11  -1   3  114.06   12.86
 -11   1  -3  114.89   16.09
   1  10  -3  121.83   13.28
   1  10  -3  115.40   12.28
   8   2   3    2.63    1.93
 -10   8   3    4.25    1.75
  -2  10  -3    1.15    1.49
  -2  10  -3    9.77    3.19
  10  -8  -3    3.88    1.70
  -8  -2  -3    7.99    5.16
 -10   5   3   23.52    3.70
   5   5   3    9.89    2.82
  -5  10  -3   23.26    5.07
  -5  -5  -3   12.68    5.80
  -5  10  -3   22.40    3.20
 -10   2   3    1.62    1.69
   2   8   3   -0.20    1.42
  -2  -8  -3   -1.65    3.23
  -8  10  -3   -2.58    2.66
  -8  10  -3    1.45    1.49
 -10  -1   3  100.75   12.98
  -1  11   3  121.30   12.55
 -11  10  -3  127.70   14.50
 -11  10  -3  124.18   13.36
   1 -11  -3  128.05   14.25
 -10  -4   3   14.28    3.86
  14 -10   3   14.50    3.35
 -14  10  -3   15.29    4.96
 -14  10  -3    9.66    4.10
 -10  -7   3   16.42    4.94
  17 -10   3   22.04    4.31
 -17  10  -3   22.80    5.54
  16  -5   3    8.82    3.20
   5  11  -3    1.90    2.65
   5  11  -3   10.83    3.74
  13  -2   3   55.75    7.75
   2  11  -3   63.15    7.41
 -13   2  -3   49.20    9.53
   2  11  -3   50.44    7.72
  10   1   3    8.75    2.88
 -10  -1  -3    8.99    5.75
  -1  11  -3    5.87    3.25
  -1  11  -3    6.94    2.15
 -11   7   3  114.29   12.02
   7   4   3  104.89   12.03
  -4  11  -3  112.37   11.79
  -7  -4  -3  122.02   16.43
  -4  11  -3  110.87   14.54
   4   7   3   67.63    8.06
 -11   4   3   70.52    9.00
  -7  11  -3   92.98   11.30
  -4  -7  -3   79.76   11.93
  -7  11  -3   66.95    7.96
 -11   1   3    9.39    2.94
   1  10   3    8.51    2.47
  -1 -10  -3    4.96    4.25
 -10  11  -3    8.04    4.14
 -10  11  -3    8.30    2.72
  -2  13   3   12.44    3.04
 -11  -2   3   10.66    3.58
  13 -11   3   11.30    3.21
 -13  11  -3   12.11    4.83
 -13  11  -3   11.48    4.23
  16 -11   3   81.43    9.25
 -11  -5   3   62.25    9.64
 -16  11  -3   78.82   10.53
 -16  11  -3   58.40   10.43
  18  -6   3   30.40    5.39
 -12  15   3   11.01    9.30
  15  -3   3    2.41    2.51
   3  12  -3    1.55    2.45
   3  12  -3    8.14    3.60
 -15   3  -3   -0.83    5.25
  12   0   3   24.25    4.58
 -12   0  -3   14.13    5.55
   0  12  -3   20.30    3.80
   0  12  -3   24.78    5.33
   9   3   3   26.41    4.55
 -12   9   3   23.35    4.13
  -9  -3  -3   22.25    7.32
  -3  12  -3   19.18    3.63
  -3  12  -3   28.28    6.07
   6   6   3   34.00    5.16
 -12   6   3   30.83    5.30
  -6  12  -3   40.40    5.30
  -6  12  -3   53.22    8.32
  -6  -6  -3   30.78    8.44
   3   9   3   20.46    3.74
 -12   3   3   18.03    3.92
  -9  12  -3   16.78    3.51
  -9  12  -3   27.69    5.89
  -3  -9  -3   17.45    6.21
 -12   0   3   98.73   11.79
   0  12   3  100.83   11.21
   0 -12  -3  115.03   14.18
 -12  12  -3   91.35   13.43
 -12  12  -3  108.17   12.70
  15 -12   3    0.53    2.02
 -12  -3   3    3.14    3.20
  -3  15   3    3.55    2.50
 -15  12  -3   11.54    4.54
 -15  12  -3   -0.51    3.59
  18 -12   3   26.34    4.86
 -12  -6   3   18.17    5.68
 -18  12  -3   16.70    5.63
 -18  12  -3   20.86    5.72
  17  -4   3   11.73    3.43
   4  13  -3    8.64    3.38
  14  -1   3    3.19    2.77
   1  13  -3   10.19    2.89
   1  13  -3    6.96    3.30
 -14   1  -3   -2.53    3.93
  11   2   3   34.05    5.99
  -2  13  -3   47.01    7.74
 -11  -2  -3   28.30    8.04
  -2  13  -3   36.83    5.45
   8   5   3   28.72    5.01
 -13   8   3   31.95    5.24
  -5  13  -3   33.66    4.96
  -5  13  -3   43.10    7.72
  -8  -5  -3   45.66    9.52
 -13   5   3    1.39    2.27
   5   8   3    0.95    1.94
  -8  13  -3    1.07    3.62
  -8  13  -3    2.19    1.83
  -5  -8  -3    0.36    5.05
   2  11   3   13.47    3.28
 -13   2   3   13.99    3.92
 -11  13  -3   27.42    4.53
  -2 -11  -3   27.61    7.12
 -11  13  -3   20.75    5.77
 -13  -1   3    6.21    3.33
  14 -13   3    5.35    2.82
  -1  14   3    2.62    2.61
 -14  13  -3    5.18    4.11
 -14  13  -3    1.25    3.50
 -13  -4   3   44.73    8.01
  17 -13   3   53.29    7.27
 -17  13  -3   49.35    8.77
 -17  13  -3   39.08    8.54
 -14  16   3    4.49    7.76
  16  -2   3   10.52    3.74
   2  14  -3    2.28    3.72
   2  14  -3   15.93    3.56
 -16   2  -3   13.84    5.50
  13   1   3    5.20    3.04
  -1  14  -3    3.34    3.47
  -1  14  -3    5.61    2.76
 -13  -1  -3    4.78    5.46
  10   4   3   10.70    3.24
 -10  -4  -3   -0.57    4.99
  -4  14  -3   13.21    3.06
  -4  14  -3    9.74    4.83
   7   7   3   35.20    5.65
 -14   7   3   35.56    5.92
  -7  14  -3   39.65    7.66
  -7  14  -3   33.72    5.42
  -7  -7  -3   48.44   10.55
   4  10   3   33.66    5.48
 -14   4   3   36.22    6.16
 -10  14  -3   40.81    5.80
 -10  14  -3   31.79    7.00
  -4 -10  -3   35.12    8.60
   1  13   3   -3.59    2.07
 -14   1   3   -2.76    2.33
 -13  14  -3    5.42    3.41
 -13  14  -3    5.46    4.36
  16 -14   3    1.38    2.59
 -14  -2   3    4.48    3.53
  -2  16   3    3.99    3.10
 -16  14  -3    0.82    3.65
 -16  14  -3    1.97    4.46
  15   0   3    0.10    2.95
 -15  15   3    6.16    7.70
   0  15  -3    4.90    2.69
   0  15  -3    3.97    3.83
 -15   0  -3   14.75    6.22
  12   3   3   21.91    5.16
  -3  15  -3   30.58    4.84
 -12  -3  -3   19.57    7.38
  -3  15  -3   42.96    8.23
   9   6   3    0.24    2.32
  -6  15  -3    5.01    4.68
  -6  15  -3    0.59    2.13
  -9  -6  -3    2.38    5.61
   6   9   3   15.89    3.77
 -15   6   3   21.55    4.65
  -9  15  -3   10.98    5.24
  -6  -9  -3   17.85    7.60
  -9  15  -3   17.57    3.78
   3  12   3    1.47    2.33
 -15   3   3    2.87    2.98
 -12  15  -3    7.21    3.29
 -12  15  -3    5.95    4.13
  -3 -12  -3   -0.42    5.21
 -15   0   3   17.87    4.99
   0  15   3   20.84    4.90
  15 -15   3   22.86    4.95
 -15  15  -3   28.37    6.09
 -15  15  -3   27.29    6.61
 -16  17   3   21.31   10.35
  14   2   3    1.71    3.27
 -14  -2  -3    4.81    5.05
  -2  16  -3    7.93    4.55
  -2  16  -3    8.95    3.22
  11   5   3   20.97    4.69
 -11  -5  -3   21.72    7.84
  -5  16  -3   14.21    3.85
  -5  16  -3   21.48    6.38
   8   8   3   11.50    3.76
  -8  16  -3   17.07    3.94
  -8  -8  -3    8.78    7.60
  -8  16  -3   14.26    5.98
 -16   5   3   37.42    6.64
   5  11   3   29.44    5.91
 -11  16  -3   41.91    6.20
 -11  16  -3   36.16    7.58
  -5 -11  -3   42.18   10.19
   2  14   3    6.80    3.39
 -16   2   3    4.89    3.43
 -14  16  -3    0.19    3.58
 -14  16  -3    1.47    4.24
  13   4   3    5.53    3.58
 -13  -4  -3   -0.09    5.31
  -4  17  -3    8.58    3.17
  -4  17  -3   18.98    6.33
  10   7   3    5.82    3.41
  -7  17  -3    9.99    3.27
  -7  17  -3    2.41    5.00
 -10  -7  -3   10.17    7.29
 -17   7   3   15.11    4.76
   7  10   3   17.00    4.51
 -10  17  -3   19.91    6.61
  -7 -10  -3   23.18    9.46
 -10  17  -3   20.27    4.31
   4  13   3    1.32    2.79
 -17   4   3    2.77    3.45
 -13  17  -3   -0.30    3.79
 -13  17  -3    1.33    3.01
  -4 -13  -3    0.25    6.50
  -3  18  -3    9.64    8.11
  12   6   3   61.96   11.57
 -12  -6  -3   47.80   13.46
  -6  18  -3   87.75   12.96
  -6  18  -3   77.06   10.65
   9   9   3    5.89    4.03
  -9  -9  -3   -0.63    7.87
  -9  18  -3    2.60    2.82
  -9  18  -3    3.08    5.57
 -18   6   3    6.70    3.94
   6  12   3    3.46    3.17
  -6 -12  -3   -0.84    6.73
 -12  18  -3    6.31    3.70
 -12  18  -3    2.54    4.51
  -1   1   4  135.72   13.42
  -1   1   4  135.42   14.18
   1   0   4  115.19   13.60
   0  -1   4  133.11   13.56
   0  -1   4  138.23   13.96
   1  -1  -4  137.44   13.59
   0   1  -4  138.97   13.71
   0   1  -4  130.98   13.86
   1  -1  -4  134.38   13.40
  -1   0  -4  124.61   13.73
   1  -1  -4  136.48   14.17
  -1   0  -4  123.52   14.39
  -1   0  -4  139.87   13.48
  -1  -2   4   23.50    3.61
   3  -1   4   18.82    3.25
   2  -3  -4   24.72    4.32
  -3   1  -4   16.98    2.88
   1   2  -4   23.26    3.30
  -3   1  -4   24.67    4.98
   1   2  -4   18.83    2.70
   1   2  -4   19.40    3.17
  -3   1  -4   24.00    3.82
   2  -2   4   49.88    6.22
   0   2   4   56.66    5.73
  -2   0   4   54.81    6.32
  -2   2  -4   58.96    6.70
   0  -2  -4   62.51    8.39
  -2   2  -4   46.88    5.84
   2   0  -4   50.02    5.94
   2   0  -4   49.08    5.87
  -2   2  -4   51.02    6.86
  -2  -3   4   96.79   10.29
   5  -2   4  104.68   10.39
  -5   2  -4   99.53   10.70
   2   3  -4   89.78   10.08
  -5   2  -4  100.95   10.19
   2   3  -4   89.71    9.69
  -5   2  -4   97.22   12.42
   3  -5  -4   85.60   10.83
   2   3  -4  101.64   10.45
   2   1   4  117.38   11.45
   1  -3   4  105.79   11.42
  -3   2   4  110.01   11.79
  -1   3  -4  113.72   11.35
  -1   3  -4  104.14   11.44
  -2  -1  -4  103.07   11.39
  -1   3  -4  113.46   11.20
  -2  -1  -4  103.09   13.77
   3  -2  -4  104.09   11.54
   4  -3   4    2.69    1.48
  -3  -1   4    0.63    1.39
  -1   4   4   -0.21    0.94
   3   1  -4    0.32    1.08
  -4   3  -4    2.17    2.21
  -4   3  -4    1.69    1.66
   1  -4  -4   -2.63    2.33
  -4   3  -4    0.03    1.44
   3   1  -4    1.40    1.50
  -3  -4   4   87.30   10.08
   7  -3   4  108.87   10.17
  -7   3  -4   81.78   10.93
  -7   3  -4   91.52   11.91
   3   4  -4   88.49   10.14
   4  -7  -4   87.57   10.59
  -4   4   4   98.48   10.10
   4   0   4   91.10    9.74
   0  -4   4   97.95    9.58
   4  -4  -4   84.56    9.78
  -4   0  -4   88.05    9.81
   0   4  -4   78.02    9.59
  -4   0  -4   72.90   11.32
   0   4  -4   94.97    9.31
   0   4  -4   82.77    9.06
  -4   1   4  153.61   15.48
   1   3   4  157.04   14.98
   3  -4   4  142.69   15.16
  -3   4  -4  145.38   15.43
  -3   4  -4  160.65   15.22
   4  -1  -4  141.11   15.14
  -1  -3  -4  134.59   16.87
  -3   4  -4  144.38   15.24
  -4  -2   4   77.82    9.00
   6  -4   4   85.72    8.92
   2  -6  -4   75.86   10.96
   4   2  -4   78.00    8.98
  -6   4  -4   87.65   10.69
  -6   4  -4   81.75    9.20
  -6   4  -4   78.72    9.72
   9  -4   4   14.23    2.88
  -4  -5   4   15.10    3.47
   4   5  -4    7.30    2.64
  -9   4  -4   14.59    3.55
   5  -9  -4   12.43    3.59
  -9   4  -4   12.63    4.17
  -5   6   4   76.47    9.09
  -1  -5   4   82.34    8.71
   6  -1   4   62.98    9.05
  -6   1  -4   85.19    9.83
   1   5  -4   76.49    8.91
  -6   1  -4   63.15   10.66
   5  -6  -4   80.55    9.01
   1   5  -4   83.88    8.16
  -5   3   4  111.42   11.64
   2  -5   4  104.56   11.19
   3   2   4  103.89   11.29
  -2   5  -4  116.80   11.73
   5  -3  -4   99.97   11.25
  -2   5  -4  106.21   11.00
  -3  -2  -4  108.86   14.26
  -2   5  -4  107.89   11.03
  -5   0   4   16.46    3.32
   0   5   4   16.75    2.61
   5   0  -4   14.71    2.91
  -5   5  -4   13.85    3.19
   0  -5  -4   18.08    5.42
  -5   5  -4   15.75    3.47
  -5   5  -4   20.14    3.31
   8  -5   4  134.10   12.51
  -5  -3   4  122.59   12.76
   5   3  -4  101.87   12.55
  -8   5  -4  103.18   12.74
  -8   5  -4  124.73   13.12
   3  -8  -4  115.95   13.56
  11  -5   4   19.30    3.93
  -5  -6   4   30.74    5.41
  -6  11   4   25.32    4.64
 -11   5  -4   19.66    4.40
   6 -11  -4   31.65    5.34
   5   6  -4   32.73    4.98
  -6   8   4    9.46    2.78
  -2  -6   4   11.72    2.81
   8  -2   4    5.99    2.41
  -8   2  -4    8.08    3.81
  -8   2  -4   10.20    3.22
   2   6  -4    9.01    2.72
   2   6  -4    7.10    1.68
   6  -8  -4    9.60    2.91
  -6   5   4    2.51    2.00
   5   1   4    2.80    1.82
   1  -6   4    1.19    1.47
  -1   6  -4   -1.29    1.18
   6  -5  -4   -0.50    1.38
  -1   6  -4    1.51    1.19
  -5  -1  -4   -0.69    3.67
  -1   6  -4   -0.73    1.78
   2   4   4  148.41   15.47
  -6   2   4  138.02   15.77
  -2  -4  -4  157.47   17.62
  -4   6  -4  156.41   16.28
  -4   6  -4  163.93   15.60
   6  -2  -4  151.34   15.64
  -1   7   4    7.71    2.00
   7  -6   4   11.22    2.49
  -6  -1   4   10.57    2.97
  -7   6  -4    9.30    3.08
  -7   6  -4   14.05    3.19
   1  -7  -4   14.54    4.94
  10  -6   4   -0.65    1.25
  -6  -4   4    2.97    2.44
   6   4  -4    2.37    2.36
 -10   6  -4    0.42    2.80
 -10   6  -4    0.00    2.02
   4 -10  -4    6.26    2.96
  13  -6   4   53.94    6.58
  -6  -7   4   37.10    6.71
 -13   6  -4   40.38    6.74
   6   7  -4   40.79    6.68
  -7  10   4   -1.32    1.68
  10  -3   4    3.53    1.79
  -3  -7   4   -3.69    2.01
 -10   3  -4    0.52    3.31
   3   7  -4    1.38    2.08
   7 -10  -4   -0.07    1.88
 -10   3  -4    1.56    2.17
   3   7  -4    0.93    1.15
  -7   7   4   30.07    4.87
   7   0   4   27.39    4.67
   0  -7   4   33.12    5.00
   7  -7  -4   35.73    4.89
  -7   0  -4   37.09    7.41
   0   7  -4   29.75    4.00
   0   7  -4   25.62    4.89
  -7   0  -4   29.60    5.23
   4   3   4    8.92    2.21
  -7   4   4    7.59    2.29
  -3   7  -4    7.55    1.76
  -4  -3  -4    6.09    4.43
   7  -4  -4    1.49    1.61
  -3   7  -4    6.37    2.62
  -7   1   4    3.14    2.10
   1   6   4    5.95    1.80
  -1  -6  -4    9.96    4.33
  -6   7  -4    5.96    2.11
  -6   7  -4    5.77    2.71
  -7  -2   4   29.34    5.18
   9  -7   4   29.81    4.69
   2  -9  -4   38.29    6.98
  -9   7  -4   50.00    7.20
  -9   7  -4   25.79    4.96
  12  -7   4   22.47    4.02
  -7  -5   4   20.84    4.69
 -12   7  -4   16.69    4.51
   5 -12  -4   29.02    5.85
  -7  -8   4   -2.07    3.14
  15  -7   4    0.30    1.92
 -15   7  -4    1.75    3.21
   7   8  -4   -2.32    2.56
  -4  -8   4   31.01    5.50
  12  -4   4   26.13    4.51
 -12   4  -4   44.40    6.14
   4   8  -4   27.41    5.14
  -8   9   4   44.04    6.88
   9  -1   4   63.15    7.62
   1   8  -4   51.61    6.26
   1   8  -4   58.79    7.74
   8  -9  -4   55.58    6.99
  -9   1  -4   41.48    7.19
  -9   1  -4   56.24    9.58
  -8   6   4   28.09    5.08
   6   2   4   43.01    5.54
  -6  -2  -4   27.70    6.92
  -2   8  -4   38.26    4.75
   8  -6  -4   37.74    5.19
  -2   8  -4   49.51    6.81
  -8   3   4   25.99    4.93
   3   5   4   35.86    4.92
   8  -3  -4   42.96    5.37
  -5   8  -4   35.35    6.05
  -5   8  -4   39.67    4.93
  -3  -5  -4   34.17    7.19
  -8   0   4    5.16    2.63
   0   8   4    6.82    2.15
   0  -8  -4   11.43    4.79
  -8   8  -4    5.18    3.10
  -8   8  -4    6.78    2.45
  -8  -3   4    3.96    2.96
  11  -8   4    1.44    1.74
 -11   8  -4    2.76    2.73
 -11   8  -4    1.07    3.37
   3 -11  -4    8.24    3.84
  -8  -6   4    7.69    3.67
  14  -8   4    8.80    2.65
 -14   8  -4   11.14    3.84
  -8  -9   4   35.97    9.05
  17  -8   4   34.06    5.55
 -17   8  -4   34.31    6.88
  14  -5   4   15.38    3.32
   5   9  -4    8.80    3.86
 -14   5  -4   17.43    4.71
  11  -2   4   35.04    5.62
   2   9  -4   38.80    5.08
 -11   2  -4   46.82    8.68
   2   9  -4   33.11    6.01
  -9   8   4   64.85    8.86
   8   1   4   76.88    9.22
  -1   9  -4   72.72    7.94
  -1   9  -4   76.71   10.18
  -8  -1  -4  101.68   13.27
   9  -8  -4   71.18    8.24
   5   4   4   -1.63    1.55
  -9   5   4    2.40    1.97
  -4   9  -4    1.25    1.20
  -4   9  -4   -2.04    2.48
  -5  -4  -4    3.19    4.41
   9  -5  -4    2.60    1.77
  -9   2   4   91.61   10.85
   2   7   4   89.63   10.37
  -7   9  -4  100.31   10.55
  -2  -7  -4   91.37   13.41
  -7   9  -4  113.15   11.95
  -1  10   4   37.85    4.58
  10  -9   4   18.21    3.91
  -9  -1   4   29.51    5.29
   1 -10  -4   35.76    6.89
 -10   9  -4   26.28    6.00
 -10   9  -4   20.04    4.59
  13  -9   4   20.11    3.69
  -9  -4   4   13.35    4.38
 -13   9  -4   14.58    5.09
 -13   9  -4   12.23    4.13
  -9  -7   4    9.11    4.14
  16  -9   4    1.86    2.13
 -16   9  -4    0.02    3.27
  16  -6   4    7.71    2.86
 -16   6  -4   12.80    4.33
   6  10  -4    4.86    3.53
  13  -3   4   46.00    6.49
 -13   3  -4   40.39   11.97
   3  10  -4   48.36    7.43
   3  10  -4   35.40    5.44
 -10  10   4   16.21    3.70
  10   0   4   17.27    3.72
  10 -10  -4   15.77    3.48
   0  10  -4   20.37    4.80
   0  10  -4   23.50    3.40
 -10   0  -4   25.14    7.04
   7   3   4  126.92   12.80
 -10   7   4  114.48   12.62
  10  -7  -4  110.90   12.44
  -3  10  -4  108.66   12.10
  -7  -3  -4  118.40   16.30
  -3  10  -4  127.90   13.86
   4   6   4   37.62    5.43
 -10   4   4   35.90    5.74
  -4  -6  -4   36.73    7.76
  -6  10  -4   47.36    7.35
  -6  10  -4   34.66    5.12
 -10   1   4   24.59    5.11
   1   9   4   28.32    4.49
  -1  -9  -4   30.70    6.89
  -9  10  -4   31.25    6.22
  -9  10  -4   38.62    5.57
  12 -10   4   32.29    5.57
 -10  -2   4   31.72    6.21
 -12  10  -4   47.24    6.88
 -12  10  -4   47.29    8.07
   2 -12  -4   55.18    8.46
  15 -10   4   24.58    4.37
 -10  -5   4   24.07    5.63
 -15  10  -4   19.67    5.41
  15  -4   4   37.67    5.88
   4  11  -4   34.73    6.55
  12  -1   4    0.79    2.02
   1  11  -4    2.75    3.00
 -12   1  -4   -0.85    4.39
   1  11  -4    3.10    1.96
   9   2   4   20.74    4.59
 -11   9   4   34.09    5.28
  -2  11  -4   40.36    4.95
  11  -9  -4   36.28    5.10
  -9  -2  -4   29.94    8.46
  -2  11  -4   21.24    5.76
 -11   6   4   20.87    4.17
   6   5   4   13.90    3.66
  -5  11  -4   19.86    5.70
  -6  -5  -4   27.37    7.27
  -5  11  -4   23.49    3.78
   3   8   4   84.84   10.34
 -11   3   4   95.29   10.89
  -8  11  -4   87.61   10.26
  -3  -8  -4   88.30   13.80
  -8  11  -4  133.09   14.27
   0  11   4    7.33    2.46
 -11   0   4   -0.43    2.32
 -11  11  -4    2.29    2.56
   0 -11  -4    3.44    4.34
 -11  11  -4   -0.99    3.23
 -11  -3   4   33.18    6.53
  14 -11   4   33.35    5.62
 -14  11  -4   38.92    6.98
 -14  11  -4   35.03    7.70
  17 -11   4   10.83    3.43
 -11  -6   4   -0.22    3.77
 -17  11  -4    0.67    3.76
  17  -5   4    0.23    2.74
   5  12  -4   -3.17    3.37
  14  -2   4   31.23    5.10
   2  12  -4   25.00    4.52
 -14   2  -4   29.65    7.54
   2  12  -4   27.47    5.93
  11   1   4   -0.52    2.19
  -1  12  -4    1.77    3.23
  -1  12  -4    2.49    1.94
 -11  -1  -4    6.14    5.39
   8   4   4    3.85    2.22
 -12   8   4   -0.41    2.21
  -4  12  -4    0.49    1.58
  -4  12  -4    5.94    3.84
  -8  -4  -4   -1.07    5.32
 -12   5   4   11.01    3.36
   5   7   4   11.13    3.06
  -7  12  -4   10.55    2.89
  -7  12  -4   25.21    5.87
  -5  -7  -4   14.23    6.04
 -12   2   4   22.23    5.06
   2  10   4   15.29    3.79
 -10  12  -4   31.86    6.48
  -2 -10  -4   28.93    6.98
 -10  12  -4   24.41    4.51
  13 -12   4   14.85    3.66
 -12  -1   4    4.31    3.52
 -13  12  -4   10.97    5.14
 -13  12  -4   16.25    4.87
   1 -13  -4    7.70    4.85
  16 -12   4   24.03    4.45
 -12  -4   4   16.96    5.15
 -16  12  -4   19.22    6.31
 -16  12  -4   18.86    5.63
  16  -3   4   28.16    5.15
   3  13  -4   22.86    5.00
   3  13  -4   34.16    6.82
  13   0   4    7.87    3.28
   0  13  -4   20.22    5.24
   0  13  -4    7.47    2.76
 -13   0  -4    9.00    5.72
  10   3   4    2.26    2.48
 -10  -3  -4   10.34    6.18
  -3  13  -4    8.63    5.07
  -3  13  -4    3.89    2.17
 -13   7   4   19.92    4.46
   7   6   4   20.06    4.13
  -6  13  -4   27.77    6.46
  -6  13  -4   18.11    3.82
  -7  -6  -4   34.45    8.58
 -13   4   4   -2.70    2.30
   4   9   4   -3.91    1.93
  -4  -9  -4   -6.70    4.26
  -9  13  -4   -1.44    1.72
  -9  13  -4    3.54    3.72
 -13   1   4    1.40    3.03
   1  12   4    2.86    2.61
 -12  13  -4    2.81    3.69
 -12  13  -4   -1.82    2.70
  -1 -12  -4   -0.69    4.22
  15 -13   4   26.70    5.00
 -13  -2   4   19.75    5.22
 -15  13  -4   23.71    5.96
 -15  13  -4   20.59    6.50
  15  -1   4    7.99    3.63
   1  14  -4    4.85    4.64
   1  14  -4    9.71    3.47
 -15   1  -4   13.66    5.99
  12   2   4   51.11    7.93
  -2  14  -4   53.75    9.59
 -12  -2  -4   59.08   11.17
  -2  14  -4   55.08    7.30
 -14   9   4    7.15    3.50
   9   5   4   11.07    3.67
  -5  14  -4   16.27    3.39
  -5  14  -4   14.54    5.88
  -9  -5  -4   10.01    7.03
   6   8   4   19.80    4.27
 -14   6   4   14.91    4.26
  -8  14  -4   17.32    6.11
  -8  14  -4   15.60    3.56
  -6  -8  -4   13.10    7.11
   3  11   4   24.87    5.31
 -14   3   4   26.57    6.01
  -3 -11  -4   34.67    8.39
 -11  14  -4   39.50    7.84
 -11  14  -4   36.30    5.74
 -14   0   4   11.78    4.41
  14 -14   4   16.34    4.15
   0  14   4   14.45    4.76
 -14  14  -4   11.06    5.16
 -14  14  -4   11.71    4.85
 -17  14  -4    0.82    4.80
  14   1   4   28.92    5.57
  -1  15  -4   26.56    4.93
 -14  -1  -4   13.52    6.56
  -1  15  -4   41.21    7.46
  11   4   4   15.92    4.70
 -11  -4  -4   26.28    8.35
  -4  15  -4   28.13    4.67
  -4  15  -4   18.47    7.17
   8   7   4   65.05    9.88
 -15   8   4   76.55   10.51
  -8  -7  -4   77.81   14.33
  -7  15  -4   78.19    9.70
  -7  15  -4   81.89   12.77
 -15   5   4    2.63    3.60
   5  10   4    0.83    2.56
 -10  15  -4   -1.01    3.77
  -5 -10  -4   -5.99    5.33
 -10  15  -4    2.12    2.66
 -15   2   4   38.22    7.74
   2  13   4   42.76    7.12
 -13  15  -4   75.48    8.77
 -13  15  -4   49.87    8.98
  -2 -13  -4   53.26   10.10
 -16  15  -4    4.64    4.78
  13   3   4    8.07    3.93
 -13  -3  -4   12.40    6.44
  -3  16  -4   10.75    3.54
  -3  16  -4   16.50    6.51
  10   6   4   11.68    3.99
  -6  16  -4    8.47    5.42
 -10  -6  -4   17.91    8.73
  -6  16  -4   10.40    3.63
   7   9   4   42.19    6.73
 -16   7   4   29.14    6.95
  -7  -9  -4   32.11   10.61
  -9  16  -4   46.60    8.71
  -9  16  -4   50.09    6.62
 -16   4   4   33.37    7.01
   4  12   4   36.93    6.45
 -12  16  -4   36.14    6.35
 -12  16  -4   32.41    7.43
  -4 -12  -4   52.44   10.67
   1  15   4   11.88    4.61
  -5  17  -4   -1.96    5.31
   9   8   4   12.08    4.30
  -9  -8  -4   18.74    9.09
  -8  17  -4   19.76    4.37
  -8  17  -4   17.14    6.94
   6  11   4    1.00    3.27
 -17   6   4    2.54    3.71
  -6 -11  -4    5.08    7.50
 -11  17  -4    0.27    2.87
 -11  17  -4   12.06    5.22
  -1   0   5   14.98    3.48
   1  -1   5    9.50    3.03
   1  -1   5   12.24    2.44
  -1   1  -5   11.31    2.69
   1   0  -5   14.20    2.63
   1   0  -5   12.01    2.96
  -1   1  -5   10.20    3.52
   0  -1  -5   12.13    4.01
  -1   1  -5    9.89    2.24
  -2   2   5   14.17    3.77
   2   0   5   18.68    3.32
   0  -2   5   21.55    3.82
   0   2  -5   20.24    3.31
   2  -2  -5   19.47    4.11
   0   2  -5   17.19    3.33
  -2   0  -5   16.19    3.28
  -2   0  -5   13.35    4.48
   3  -2   5   13.20    2.62
  -2  -1   5   12.76    3.16
  -3   2  -5   15.03    3.91
   2   1  -5   11.38    2.74
  -3   2  -5   15.89    3.23
  -3   2  -5   15.26    2.76
   2   1  -5    9.72    2.53
   1  -3  -5   13.35    4.33
  -1  -3   5  122.48   11.92
  -3   4   5  100.57   12.54
   4  -1   5   99.68   11.64
   3  -4  -5  105.49   12.44
   1   3  -5  114.86   11.77
  -4   1  -5  116.94   14.60
  -4   1  -5   98.32   11.83
   1   3  -5  108.90   11.49
  -3   1   5    1.52    1.95
   2  -3   5   -0.59    1.67
   2  -3   5    1.50    1.37
  -2   3  -5   -1.35    1.71
  -1  -2  -5    1.03    3.46
   3  -1  -5    1.82    1.74
  -2   3  -5   -0.03    1.18
  -2   3  -5    1.07    1.56
  -3  -2   5   57.79    7.59
   5  -3   5   52.40    7.02
   3   2  -5   54.97    7.21
   2  -5  -5   56.38    8.99
  -5   3  -5   60.89    7.63
   3   2  -5   54.61    7.11
  -5   3  -5   69.29    9.14
   6  -2   5    2.18    1.84
  -4   6   5    2.42    2.40
  -2  -4   5    3.37    1.93
  -6   2  -5    4.26    3.59
   4  -6  -5    4.18    2.91
   2   4  -5   -1.14    1.60
   2   4  -5    1.38    1.82
  -6   2  -5    3.46    2.27
  -4   3   5    2.80    2.37
   1  -4   5    4.20    2.00
   3   1   5   -0.29    1.69
  -3  -1  -5    1.86    2.08
  -1   4  -5    6.68    1.83
  -3  -1  -5    5.75    3.85
   4  -3  -5    7.12    2.34
  -1   4  -5    6.62    2.23
  -1   4  -5    6.92    1.90
  -4   0   5   33.71    5.37
   4  -4   5   39.84    5.12
   4  -4   5   32.16    4.98
  -4   4  -5   34.39    5.62
   4   0  -5   30.61    4.73
  -4   4  -5   28.39    4.75
   0  -4  -5   35.56    7.22
  -4  -3   5   49.68    7.17
   7  -4   5   50.12    6.63
   3  -7  -5   52.97    8.65
  -7   4  -5   43.40    6.88
  -7   4  -5   52.85    8.28
   4   3  -5   54.99    7.12
  -3  -5   5    9.13    3.20
   8  -3   5   12.59    3.06
  -5   8   5   10.49    3.44
   5  -8  -5    7.20    3.43
  -8   3  -5    6.66    4.01
  -8   3  -5    8.37    3.10
   3   5  -5   10.19    2.93
  -5   5   5    4.28    2.92
   5   0   5    6.13    2.45
   0  -5   5    5.31    2.33
  -5   0  -5   11.05    3.16
   0   5  -5   11.90    2.89
  -5   0  -5    7.75    4.24
   0   5  -5    6.12    2.23
   5  -5  -5    5.87    2.54
  -5   2   5   29.00    5.03
   2   3   5   27.45    4.08
   3  -5   5   29.55    4.51
   5  -2  -5   28.00    4.41
  -3   5  -5   35.24    4.47
  -2  -3  -5   21.02    6.43
  -3   5  -5   22.14    4.37
  -3   5  -5   26.70    4.13
   6  -5   5    1.41    1.54
  -5  -1   5   -1.46    1.68
   5   1  -5    0.47    1.70
  -6   5  -5   -0.20    1.72
   1  -6  -5    2.74    3.84
  -6   5  -5   -3.03    1.58
   9  -5   5    2.72    1.84
  -5  -4   5    5.70    2.93
   5   4  -5    2.51    2.44
  -9   5  -5    5.58    2.81
   4  -9  -5    1.14    3.14
  -4  -6   5   44.39    7.35
  10  -4   5   50.35    6.72
  -6  10   5   36.21    6.82
   4   6  -5   43.97    6.87
 -10   4  -5   52.95    7.42
   6 -10  -5   55.05    7.83
  -1  -6   5    8.31    3.06
   7  -1   5    6.28    2.51
  -6   7   5    9.58    3.55
   1   6  -5    7.32    2.84
   6  -7  -5   13.73    3.25
  -7   1  -5    6.74    4.20
  -7   1  -5    9.64    3.28
  -6   4   5    6.43    2.74
   4   2   5    0.45    1.78
  -4  -2  -5    1.06    3.77
   6  -4  -5    4.04    2.19
  -2   6  -5    1.42    1.34
  -2   6  -5    5.13    2.41
  -6   1   5   17.79    3.77
  -5   6  -5   18.91    3.44
   6  -1  -5   11.72    3.01
  -1  -5  -5   25.61    6.71
  -5   6  -5   16.47    3.71
   8  -6   5   66.86    8.70
  -6  -2   5   71.03    9.66
  -8   6  -5   74.61   11.20
   2  -8  -5   67.89   10.94
  -8   6  -5   80.01    9.66
  -6  -5   5    9.18    3.76
  11  -6   5    4.29    2.25
 -11   6  -5   -0.07    2.44
   5 -11  -5   10.55    4.13
   6   5  -5    3.82    2.99
  -5  -7   5   42.38    7.44
  12  -5   5   60.07    6.91
  -7  12   5   36.76    6.54
 -12   5  -5   42.61    6.74
   5   7  -5   36.08    6.49
   7 -12  -5   40.24    6.92
  -7   9   5  125.61   13.67
   9  -2   5  123.70   13.03
   7  -9  -5  117.36   13.23
   2   7  -5  121.45   13.46
  -9   2  -5   92.23   14.73
  -9   2  -5  120.88   13.69
   6   1   5    0.72    2.03
  -7   6   5    6.49    2.92
  -1   7  -5    2.54    2.47
  -6  -1  -5    0.05    3.36
  -1   7  -5    3.26    1.43
   7  -6  -5   -0.17    1.84
  -7   3   5   71.72    9.48
   3   4   5   77.36    8.35
  -3  -4  -5   70.68   11.64
   7  -3  -5   68.83    8.37
  -4   7  -5   68.95    9.69
  -4   7  -5   77.00    8.24
  -7   0   5    2.49    2.30
   7  -7   5    1.59    1.76
  -7   7  -5   11.33    3.10
  -7   7  -5   11.96    3.39
   0  -7  -5   17.10    5.83
  10  -7   5   19.70    3.68
  -7  -3   5   25.65    5.10
 -10   7  -5   18.38    4.41
   3 -10  -5   23.36    5.92
  -7  -6   5   35.67    7.12
  13  -7   5   39.45    5.87
 -13   7  -5   41.46    6.58
  14  -6   5   18.02    3.82
 -14   6  -5   23.80    5.18
   6   8  -5   20.83    5.20
  -8  11   5    7.98    3.37
  11  -3   5   18.04    3.47
   3   8  -5   17.22    4.22
 -11   3  -5    3.96    3.58
   8 -11  -5   13.03    3.64
  -8   8   5   18.70    4.29
   8   0   5   19.25    4.21
   0   8  -5   22.78    4.73
   8  -8  -5   24.72    4.28
   0   8  -5   18.82    3.23
  -8   0  -5   27.33    6.59
  -8   5   5   88.09    9.89
   5   3   5   80.42   10.03
   8  -5  -5   78.15    9.36
  -3   8  -5   97.05   11.24
  -3   8  -5   78.37    8.92
  -5  -3  -5   81.06   12.55
  -8   2   5   41.76    7.05
   2   6   5   42.50    6.20
  -6   8  -5   55.98    7.81
  -2  -6  -5   43.85    8.98
  -6   8  -5   69.42    7.25
  -8  -1   5   76.31   10.58
   9  -8   5   66.29    9.35
  -9   8  -5   90.17   10.31
  -9   8  -5   88.09   10.85
   1  -9  -5   76.39   11.94
  12  -8   5   20.78    4.19
  -8  -4   5   30.77    6.09
   4 -12  -5   30.05    6.48
 -12   8  -5   29.35    5.64
  -8  -7   5   12.04    5.18
  15  -8   5   13.61    3.40
 -15   8  -5   13.79    4.64
  13  -4   5    3.52    2.40
 -13   4  -5    0.12    3.26
   4   9  -5    1.87    3.40
  10  -1   5   46.71    6.88
  -9  10   5   40.43    6.86
   1   9  -5   46.19    7.35
   9 -10  -5   45.98    6.64
 -10   1  -5   40.14    8.93
   7   2   5    3.61    2.43
  -9   7   5    2.36    2.53
   9  -7  -5   -2.15    1.64
  -7  -2  -5    7.27    4.87
  -2   9  -5    3.20    2.80
  -2   9  -5    3.50    1.59
   4   5   5    1.27    1.98
  -9   4   5    3.95    2.66
  -5   9  -5    4.80    2.01
   9  -4  -5    2.48    2.14
  -4  -5  -5    1.39    4.51
  -5   9  -5    3.65    3.11
  -9   1   5   14.23    4.04
  -1  -8  -5   22.14    6.54
  -8   9  -5   19.24    4.07
  -8   9  -5   12.54    4.40
  -9  -2   5  107.61   13.71
  11  -9   5   97.53   11.47
 -11   9  -5  109.37   13.75
 -11   9  -5  104.18   13.00
   2 -11  -5  101.65   14.38
  14  -9   5   27.80    4.93
  -9  -5   5   22.61    6.26
 -14   9  -5   23.77    5.50
  15  -5   5   12.14    3.33
   5  10  -5    8.24    4.34
  12  -2   5    9.48    2.97
   2  10  -5    3.88    3.33
 -12   2  -5    9.40    5.74
   9   1   5    6.16    2.88
 -10   9   5    6.46    2.99
  -1  10  -5   15.93    4.47
  10  -9  -5   10.95    3.23
  -1  10  -5    4.77    2.10
  -9  -1  -5    2.49    5.47
 -10   6   5   40.60    6.93
   6   4   5   47.65    6.89
  10  -6  -5   53.50    6.99
  -4  10  -5   48.08    6.16
  -4  10  -5   39.41    7.57
  -6  -4  -5   52.45    9.75
 -10   3   5    4.69    2.89
   3   7   5    3.78    2.29
  -3  -7  -5    5.76    4.90
  -7  10  -5    6.66    4.02
  -7  10  -5    7.03    2.58
  10 -10   5    2.78    2.19
 -10   0   5    1.22    2.99
 -10  10  -5   10.23    4.24
 -10  10  -5    2.95    2.96
   0 -10  -5    4.37    5.02
  13 -10   5    2.04    2.05
 -10  -3   5   -0.59    3.32
   3 -13  -5    2.21    3.86
 -13  10  -5    3.96    3.32
 -10  -6   5   51.61    9.32
  14  -3   5   37.50    5.73
   3  11  -5   24.74    6.01
  11   0   5    5.43    2.95
   0  11  -5    5.99    2.11
   0  11  -5    2.96    3.87
 -11   0  -5   16.10    6.55
   8   3   5   19.82    4.41
 -11   8   5   16.33    4.51
  -3  11  -5   21.88    3.65
  -3  11  -5   27.12    6.04
  -8  -3  -5   19.20    7.39
  11  -8  -5   20.13    4.17
 -11   5   5    4.06    3.19
   5   6   5    3.27    2.67
  -6  11  -5    7.54    2.52
  -6  11  -5    9.79    4.52
  -5  -6  -5    8.20    5.75
   2   9   5   22.94    4.54
 -11   2   5   24.41    5.52
  -2  -9  -5   39.28    8.41
  -9  11  -5   24.65    4.72
  -9  11  -5   21.26    5.73
  12 -11   5    9.29    2.96
 -11  -1   5    8.18    4.10
 -12  11  -5    4.68    3.81
   1 -12  -5   10.99    5.54
 -12  11  -5    7.56    4.64
  15 -11   5    6.99    2.83
 -11  -4   5    3.71    4.21
 -15  11  -5   12.18    4.73
  13  -1   5    5.77    3.03
   1  12  -5    2.05    3.94
 -13   1  -5    4.94    5.23
 -12  10   5   40.69    6.70
  10   2   5   33.63    6.08
  -2  12  -5   41.93    7.96
  -2  12  -5   31.40    5.06
  12 -10  -5   35.82    5.78
 -10  -2  -5   35.97    9.17
   7   5   5   12.38    3.80
 -12   7   5   11.91    4.00
  -7  -5  -5   15.13    7.45
  -5  12  -5   18.86    5.89
  -5  12  -5   14.68    3.20
 -12   4   5   54.44    8.64
   4   8   5   52.59    7.71
  -4  -8  -5   54.61   10.71
  -8  12  -5   72.65   10.39
  -8  12  -5   51.76    7.43
 -12   1   5   -0.83    3.21
  11 -12   5    0.79    2.24
  -1 -11  -5    3.73    5.29
 -11  12  -5    3.15    3.87
 -11  12  -5    2.91    3.01
 -12  -2   5   10.11    4.83
  14 -12   5   11.86    3.35
 -14  12  -5    7.16    4.78
 -14  12  -5    4.79    4.08
   2  13  -5   25.84    6.56
  12   1   5    4.70    3.13
  -1  13  -5    4.18    2.34
 -12  -1  -5    5.96    5.86
  -1  13  -5    7.52    4.57
   9   4   5    7.37    3.59
 -13   9   5    0.83    2.94
  -4  13  -5    1.70    4.33
  -4  13  -5    4.02    2.30
  -9  -4  -5   -1.15    5.61
 -13   6   5    4.00    3.84
   6   7   5   18.41    4.35
  -7  13  -5   26.13    6.38
  -6  -7  -5   22.74    7.72
  -7  13  -5   21.27    4.04
   3  10   5   66.26    9.01
 -13   3   5   48.73    9.30
 -10  13  -5   72.75   11.10
  -3 -10  -5   61.21   11.57
 -10  13  -5   94.08    9.98
 -13   0   5   16.86    5.76
  13 -13   5   24.84    4.85
 -13  13  -5   28.56    5.81
 -13  13  -5   22.34    6.57
   0 -13  -5   20.10    6.95
   0  14  -5   18.99    6.65
   0  14  -5   20.14    4.63
 -14   0  -5   12.24    6.47
  11   3   5   40.93    7.11
  -3  14  -5   40.76    6.27
  -3  14  -5   49.90    9.65
 -11  -3  -5   55.71   11.10
   8   6   5   10.44    4.03
 -14   8   5    3.99    3.56
  -6  14  -5   22.35    6.70
  -6  14  -5   10.92    3.11
  -8  -6  -5    0.03    6.22
   5   9   5   -5.74    2.29
 -14   5   5    2.64    3.74
  -5  -9  -5    4.45    6.24
  -9  14  -5   -0.33    2.42
  -9  14  -5   -0.37    3.91
 -14   2   5    5.74    4.32
 -12  14  -5    3.02    4.22
  -2 -12  -5   -3.37    4.91
 -12  14  -5   -0.21    3.32
 -15  14  -5   64.35   10.72
  -2  15  -5   -0.20    2.36
  -2  15  -5   -3.41    4.94
 -13  -2  -5   -0.79    5.73
  10   5   5   32.49    6.87
 -10  -5  -5   52.12   11.34
  -5  15  -5   45.91    6.57
  -5  15  -5   52.46   10.23
 -15   7   5   17.15    5.70
   7   8   5   22.25    5.25
  -7  -8  -5   32.14    9.62
  -8  15  -5   19.25    6.84
  -8  15  -5   24.72    4.85
   4  11   5   10.18    3.99
 -15   4   5    2.85    4.10
  -4 -11  -5   15.44    7.06
 -11  15  -5    7.25    3.60
 -11  15  -5    9.51    5.20
   9   7   5   11.82    4.59
  -7  16  -5   16.41    6.56
  -7  16  -5   14.75    3.95
 -16   6   5   14.82    5.46
   6  10   5    5.93    3.94
 -10  16  -5   25.35    7.13
  -6 -10  -5    6.62    9.45
   0   0   6    4.09    2.86
   0   0  -6    8.68    3.67
  -1  -1   6  120.40   13.90
  -1   2   6  136.75   14.69
   2  -1   6  108.64   13.78
   1   1  -6  129.40   13.71
   1  -2  -6  129.87   14.76
  -2   1  -6  128.69   14.62
   1  -2   6   35.13    6.10
  -2   1   6   29.18    6.43
  -1  -1  -6   36.08    7.41
  -1   2  -6   37.67    5.50
  -1   2  -6   47.26    6.55
   2  -1  -6   44.27    6.52
   4  -2   6   35.10    5.29
  -2   4   6   35.44    6.97
  -2  -2   6   38.06    6.05
   2   2  -6   40.48    5.73
  -4   2  -6   38.58    7.17
  -4   2  -6   38.89    5.63
   2  -4  -6   43.11    7.82
   2   2  -6   35.53    5.56
   0  -3   6    5.45    2.71
  -3   3   6    0.64    2.94
   3  -3  -6    8.42    3.54
   0   3  -6   10.61    2.88
  -3   0  -6   18.92    5.39
   0   3  -6    7.81    2.61
  -3   0   6   55.46    9.20
   3  -3   6   71.31    9.48
   0  -3  -6   78.93   11.90
  -3   3  -6   89.28   10.52
   3   0  -6   77.82    9.37
  -3  -3   6   -2.47    2.14
   6  -3   6    2.09    1.82
  -3   6   6   -2.88    2.83
   3   3  -6   -0.29    1.82
   3   3  -6    1.24    2.04
  -6   3  -6   -1.77    3.00
  -6   3  -6    0.10    2.02
   3  -6  -6    3.55    3.92
  -4   5   6    2.64    3.29
   5  -1   6    3.97    2.29
  -1  -4   6    3.68    2.60
   1   4  -6    4.10    2.30
  -5   1  -6    1.38    3.61
  -5   1  -6    6.63    2.81
   1   4  -6    1.61    2.26
   4  -5  -6    3.61    3.23
  -4   2   6   -2.92    2.19
   2  -4   6    2.54    2.26
  -2  -2  -6   -3.50    3.94
  -2   4  -6   -0.11    1.76
  -2   4  -6   -0.18    1.95
   4  -2  -6    1.99    2.26
   5  -4   6   20.93    3.62
  -4  -1   6   15.66    4.17
   4   1  -6   18.45    3.87
  -5   4  -6   21.37    4.06
   1  -5  -6   30.13    6.97
  -4   8   6   12.87    5.03
   8  -4   6   19.91    3.74
  -4  -4   6   14.69    4.55
   4   4  -6   23.45    4.38
   4  -8  -6   16.67    5.45
  -8   4  -6   19.43    4.18
  -2  -5   6   73.71    9.66
  -5   7   6   57.70   10.03
   7  -2   6   83.62    8.52
   2   5  -6   68.52    9.17
  -7   2  -6   71.83    9.35
   5  -7  -6   74.66   10.39
  -7   2  -6   54.53   10.18
  -5   4   6   95.55   13.43
   1  -5   6   94.90   11.53
   5  -4  -6  110.11   12.07
  -1   5  -6  117.66   11.51
  -1   5  -6  104.62   11.81
  -4  -1  -6   85.13   13.93
  -5   1   6    0.70    2.43
   4  -5   6    1.47    1.74
  -4   5  -6    2.33    2.28
  -4   5  -6    3.71    2.14
  -1  -4  -6   -2.93    4.05
   5  -1  -6    0.54    1.91
   7  -5   6    1.01    1.69
  -5  -2   6   -0.27    2.43
  -7   5  -6    1.75    2.23
   2  -7  -6   -2.17    3.87
  10  -5   6   22.23    3.93
  -5  10   6   19.39    5.13
  -5  -5   6   11.16    4.68
   5 -10  -6   25.96    5.75
 -10   5  -6   12.55    4.11
   5   5  -6   12.64    4.05
  -3  -6   6    0.70    3.35
   9  -3   6    8.33    2.72
  -6   9   6    8.12    3.92
  -9   3  -6    6.74    3.30
   6  -9  -6   13.52    4.39
   3   6  -6    8.23    3.42
  -6   6   6   60.33    9.12
   6   0   6   47.65    7.62
   0   6  -6   62.70    8.37
   6  -6  -6   75.89    9.00
  -6   0  -6   54.52   10.34
  -6   3   6   22.20    5.00
  -3   6  -6   26.00    4.47
   6  -3  -6   20.83    4.11
  -3   6  -6   21.28    4.59
  -3  -3  -6   24.45    6.87
  -6   0   6  133.40   15.20
   6  -6   6  148.66   14.57
   0  -6  -6  137.16   18.81
   6   0  -6  129.14   14.71
  -6   6  -6  133.04   14.71
  -6  -3   6    5.45    3.46
   9  -6   6    2.50    1.84
  -9   6  -6    3.10    2.89
   3  -9  -6    3.76    4.02
  -6  12   6   -1.54    2.77
  12  -6   6   -1.49    1.80
  -6  -6   6    6.36    4.77
   6   6  -6   -0.81    2.87
 -12   6  -6    2.55    3.04
   6 -12  -6   -1.57    3.53
  11  -4   6   43.28    6.19
  -7  11   6   33.15    6.90
   7 -11  -6   41.77    7.04
   4   7  -6   39.06    6.51
 -11   4  -6   37.22    6.67
  -7   8   6    0.06    3.09
   8  -1   6   -0.23    2.18
   1   7  -6   -1.32    2.46
  -8   1  -6   -1.62    4.24
   7  -8  -6    2.87    2.69
   5   2   6   26.05    4.69
  -7   5   6   24.12    5.34
  -2   7  -6   28.36    5.37
  -5  -2  -6   16.78    6.65
   7  -5  -6   34.96    5.39
   5  -7   6   28.81    5.31
  -7   2   6   26.17    5.85
  -2  -5  -6   29.60    8.08
  -5   7  -6   46.20    7.08
  -5   7  -6   53.12    6.32
   7  -2  -6   39.95    6.02
   8  -7   6    1.55    1.84
  -7  -1   6   -1.35    2.60
   1  -8  -6   -3.32    4.21
  -8   7  -6    1.04    2.43
  11  -7   6   55.81    7.24
  -7  -4   6   46.58    8.48
 -11   7  -6   46.99    7.54
   4 -11  -6   59.59    9.52
  -7  -7   6   11.55    7.03
  14  -7   6   19.62    3.96
 -14   7  -6   10.20    4.49
  13  -5   6    5.31    2.58
   5   8  -6    3.96    3.95
 -13   5  -6   -1.01    3.31
  -8  10   6   -0.88    2.71
  10  -2   6    2.24    2.28
   2   8  -6   -1.61    2.95
 -10   2  -6   -0.56    4.05
   8 -10  -6   -2.18    2.53
   7   1   6   35.66    5.75
  -8   7   6   28.19    6.13
   8  -7  -6   41.20    6.08
  -1   8  -6   31.58    5.94
  -7  -1  -6   32.76    7.93
  -8   4   6   -1.80    2.44
  -4   8  -6    0.79    2.94
   8  -4  -6   -0.18    2.24
  -4   8  -6   -1.43    1.75
  -4  -4  -6   -4.56    4.59
  -8   1   6   15.31    4.50
   7  -8   6   17.03    4.02
  -7   8  -6   26.50    5.32
  -1  -7  -6   18.68    6.74
  -7   8  -6   29.96    5.03
  -8  -2   6    2.37    3.45
  10  -8   6   -1.15    1.58
 -10   8  -6   -0.88    2.73
   2 -10  -6   10.60    5.07
  -5  13   6    8.96    3.70
  -8  -5   6   -0.35    3.74
  13  -8   6    1.57    2.25
 -13   8  -6    1.07    3.16
   5 -13  -6   -0.38    3.76
  -9  12   6   11.62    4.81
  12  -3   6   16.03    3.60
   9 -12  -6    6.38    3.92
   3   9  -6    9.92    4.31
   9   0   6   14.01    3.65
  -9   9   6    7.51    3.60
  -9   0  -6    2.52    5.58
   0   9  -6    7.46    3.98
   9  -9  -6   20.06    4.10
   6   3   6    7.21    3.18
  -9   6   6    8.98    3.93
  -3   9  -6   14.18    4.43
   9  -6  -6    5.40    2.95
  -6  -3  -6    7.99    5.67
  -3   9  -6    4.90    2.24
  -9   3   6    4.16    3.43
  -6   9  -6    8.01    3.82
  -3  -6  -6   16.10    6.67
  -6   9  -6   18.34    3.73
   9  -9   6    1.90    2.33
  -9   0   6   -0.16    3.23
  -9   9  -6    6.33    6.93
  -9   9  -6    2.80    2.81
   0  -9  -6   -0.53    4.90
  12  -9   6   -0.82    1.80
  -9  -3   6   -0.72    3.71
   3 -12  -6   -1.33    4.20
 -12   9  -6    3.33    3.19
   4  10  -6   10.54    4.63
 -10  11   6   25.46    5.68
  11  -1   6   29.72    5.35
  10 -11  -6   25.36    5.16
 -11   1  -6   26.59    7.88
   1  10  -6   34.05    6.86
 -10   8   6    2.99    3.22
   8   2   6    4.21    2.94
  -8  -2  -6    3.52    5.39
  10  -8  -6   -0.39    2.40
  -2  10  -6    5.26    4.22
   5   5   6   53.49    8.27
 -10   5   6   59.25    9.26
  10  -5  -6   63.76    8.88
  -5  10  -6   80.20   10.71
  -5  10  -6   74.61    8.45
  -5  -5  -6   48.93   10.96
 -10   2   6    4.03    3.48
   8 -10   6   -1.25    2.11
  -2  -8  -6   -3.06    4.63
  -8  10  -6    4.13    2.92
  -8  10  -6    4.79    3.59
  11 -10   6   -1.08    1.85
 -10  -1   6    2.39    3.83
 -11  10  -6    4.84    3.04
   1 -11  -6   -1.11    4.35
 -10  -4   6    2.12    4.77
  13  -2   6   -0.65    2.29
   2  11  -6    2.59    4.03
 -11  10   6   13.26    4.54
  10   1   6   14.70    3.94
  -1  11  -6   20.93    5.61
 -10  -1  -6   13.34    6.96
  11 -10  -6   16.52    4.42
   7   4   6   37.65    6.63
 -11   7   6   38.49    7.38
  -7  -4  -6   31.98    9.03
  -4  11  -6   49.55    8.52
  -4  11  -6   41.49    5.95
  11  -7  -6   42.14    6.71
 -11   4   6   -1.79    2.82
  -7  11  -6    4.42    2.72
  -4  -7  -6    9.86    6.61
  -7  11  -6    4.73    3.51
  10 -11   6   44.25    7.53
 -11   1   6   49.55    9.09
 -10  11  -6   69.19   10.35
  -1 -10  -6   60.93   11.08
 -10  11  -6   53.39    7.88
 -11  -2   6   18.20    6.51
  13 -11   6   19.13    4.39
 -13  11  -6   32.20    5.88
   2 -13  -6   23.60    7.03
  12   0   6   57.54    8.22
 -12   0  -6   42.39   10.41
   0  12  -6   73.21   10.51
   9   3   6   10.93    4.45
 -12   9   6   16.17    5.11
  -3  12  -6   11.93    3.09
  -9  -3  -6    6.27    6.42
  -3  12  -6   11.48    5.35
 -12   6   6   14.38    4.96
   6   6   6   19.68    4.63
  -6  -6  -6   21.36    7.81
  -6  12  -6   19.22    6.13
  -6  12  -6   11.61    3.47
 -12   3   6    7.51    4.47
  -3  -9  -6   12.74    7.46
  -9  12  -6   14.71    5.34
  -9  12  -6   22.29    4.66
  12 -12   6   14.05    3.92
 -12   0   6   11.94    5.28
 -12  12  -6   22.14    5.38
   0 -12  -6   29.77    7.52
  11   2   6   -0.87    3.13
  -2  13  -6   18.83    6.24
 -11  -2  -6    8.32    6.86
 -13   8   6   29.08    6.81
   8   5   6   32.47    6.53
  -5  13  -6   34.13    5.31
  -5  13  -6   32.72    7.95
  -8  -5  -6   40.07   10.29
 -13   5   6   39.54    7.92
  -5  -8  -6   45.83   10.92
  -8  13  -6   47.62    7.22
  -8  13  -6   48.05    8.97
 -13   2   6    2.44    4.21
  11 -13   6    5.21    3.27
  -2 -11  -6   -1.42    5.67
 -11  13  -6    4.62    3.83
 -11  13  -6    5.35    5.42
 -14  10   6    6.63    4.71
  10   4   6    2.60    4.10
  -4  14  -6    5.55    2.76
  -4  14  -6    0.33    5.25
 -14   7   6    8.97    4.89
   7   7   6   -1.22    3.62
  -7  14  -6    2.24    2.92
  -7  14  -6   11.23    5.74
  -7  -7  -6    6.37    6.85
 -10  14  -6    3.08    4.98
   6   9   6   12.17    4.99
   1   0   7    1.19    2.82
   0  -1   7    1.55    2.95
  -1   1   7    1.85    3.33
   0   1  -7   -1.24    2.68
  -1   0  -7    2.73    3.96
   1  -1  -7    6.88    3.82
  -2   3   7   -2.01    3.20
  -1  -2   7    3.57    2.93
   3  -1   7    4.84    3.12
   1   2  -7    3.78    2.82
  -3   1  -7    5.89    4.56
   2  -3  -7    7.51    4.27
   2  -2   7   26.13    5.36
  -2   0   7   19.10    5.27
   0   2   7   24.15    5.87
  -2   2  -7   32.94    6.12
   2   0  -7   30.69    5.67
   0  -2  -7   27.62    6.89
  -3   5   7    2.99    4.03
  -2  -3   7    4.18    3.06
   2   3  -7    5.96    3.11
   3  -5  -7    7.59    4.68
   2   3  -7    5.70    2.83
  -5   2  -7    4.87    3.88
  -3   2   7    0.68    3.26
   1  -3   7   -2.24    2.51
  -2  -1  -7    6.18    4.59
   3  -2  -7    2.64    3.27
  -1   3  -7    1.14    2.76
  -3  -1   7    5.63    3.39
  -1   4   7   10.19    4.62
   4  -3   7    9.42    3.45
  -4   3  -7   11.59    4.59
   1  -4  -7    6.15    5.11
   3   1  -7   10.58    3.41
  -4   7   7   20.38    6.87
   7  -3   7   35.89    5.27
  -3  -4   7   25.29    5.86
   4  -7  -7   50.86    8.90
  -7   3  -7   34.51    5.64
   3   4  -7   32.54    5.78
  -4   4   7   31.45    6.69
   0  -4   7   19.58    4.74
   0   4  -7   31.34    5.24
   4  -4  -7   29.97    6.27
   0   4  -7   35.77    5.51
  -4   0  -7   13.73    5.98
  -4   1   7   70.12   10.83
   4  -1  -7   78.63   10.19
  -1  -3  -7   72.60   12.09
  -2   6   7    0.36    3.98
  -4  -2   7   -3.12    2.66
   4   2  -7   -0.97    2.52
   2  -6  -7   -2.32    4.43
   9  -4   7   10.16    3.13
  -4  -5   7   14.90    5.32
  -5   9   7   11.12    5.09
   4   5  -7   13.77    4.28
   5  -9  -7   13.67    5.47
  -9   4  -7   13.47    3.69
  -5   6   7   27.35    7.05
  -6   1  -7   16.58    6.07
   1   5  -7   29.49    5.55
   5  -6  -7   34.42    6.85
  -5   3   7   19.77    5.57
   5  -3  -7   19.73    4.80
  -3  -2  -7   16.15    6.54
  -2   5  -7   18.73    4.47
  -5   0   7    5.54    3.21
   0  -5  -7   10.16    5.89
   5   0  -7    5.83    3.29
  -5  -3   7   67.58   10.49
  -3   8   7   52.54   10.34
   8  -5   7   75.94    9.11
   3  -8  -7   78.56   12.09
  -8   5  -7   80.29    9.48
  11  -5   7    9.08    3.10
  -6  11   7    0.74    3.62
 -11   5  -7    5.42    3.56
   6 -11  -7    6.11    4.69
   5   6  -7    4.12    3.80
   8  -2   7   17.89    4.08
  -6   8   7   15.49    5.64
  -8   2  -7   18.31    4.73
   2   6  -7   17.16    4.42
   6  -8  -7   20.62    5.63
  -6   5   7    7.97    4.28
  -1   6  -7   17.82    4.51
   6  -5  -7    9.29    4.07
  -5  -1  -7   15.78    6.25
  -6   2   7    1.08    3.18
   6  -2  -7   20.69    4.54
  -2  -4  -7   12.02    5.59
   7  -6   7    0.53    1.98
  -6  -1   7   -4.38    2.78
  -7   6  -7   -2.76    2.29
   1  -7  -7    0.74    4.96
  -4  10   7   32.44    7.14
  10  -6   7   29.62    5.30
  -6  -4   7   27.81    6.84
   4 -10  -7   50.65    8.98
 -10   6  -7   30.70    5.54
  -7  10   7    1.80    4.08
  10  -3   7    5.04    2.77
 -10   3  -7   -2.51    2.99
   7 -10  -7    2.06    3.84
   3   7  -7    0.22    3.30
   7   0   7    0.66    3.30
  -7   7   7    5.13    4.39
  -7   0  -7   -0.16    4.36
   7  -7  -7   -2.29    2.86
   0   7  -7    1.99    3.06
  -7   4   7    9.90    4.42
  -3   7  -7    5.98    3.37
   7  -4  -7    8.93    3.58
  -4  -3  -7    2.04    5.24
  -7   1   7   11.83    4.35
   7  -1  -7   15.69    4.40
  -6   7  -7   14.11    5.45
  -1  -6  -7    7.19    6.16
  -7  -2   7    4.83    4.09
   9  -7   7    8.21    3.08
  -9   7  -7   14.97    4.00
   2  -9  -7    9.94    6.00
  -7  -5   7    1.58    5.21
  -5  12   7   11.68    4.70
  12  -7   7   15.71    4.24
   5 -12  -7    8.44    5.16
  -8  12   7   12.43    5.36
   8 -12  -7   20.00    5.64
   9  -1   7   17.56    4.25
  -8   9   7   25.72    6.70
   1   8  -7   20.45    5.24
   8  -9  -7   21.80    5.68
  -9   1  -7   24.99    7.12
  -8   6   7   26.13    6.50
   8  -6  -7   34.35    6.01
  -2   8  -7   26.51    5.71
  -6  -2  -7   17.70    7.09
  -8   3   7    2.25    3.78
   8  -3  -7   -0.98    2.55
  -3  -5  -7    4.11    5.63
  -5   8  -7   -1.42    3.37
  -8   0   7   -0.77    3.49
   8  -8   7    6.11    2.71
   0  -8  -7    0.31    5.21
  -8   8  -7    0.84    2.79
  -3  11   7   13.46    4.73
  11  -8   7   15.00    3.90
  -8  -3   7   12.53    5.76
   3 -11  -7   10.63    6.14
 -11   8  -7   13.28    4.25
  11  -2   7   19.35    4.37
  -9  11   7   13.57    5.56
   9 -11  -7   33.65    5.93
   2   9  -7   19.28    5.80
   8   1   7   18.68    4.20
  -9   8   7   17.62    5.63
   9  -8  -7   15.68    4.81
  -1   9  -7   12.79    4.86
  -8  -1  -7   25.92    7.66
  -9   5   7   -1.57    3.39
   9  -5  -7    6.25    3.63
  -4   9  -7   -1.34    3.34
  -5  -4  -7    8.64    6.81
  -9   2   7   68.20   11.79
   7  -9   7   78.22   10.81
  -2  -7  -7   72.00   13.40
  -7   9  -7  119.67   11.72
  -9  -1   7    7.08    4.46
  10  -9   7    9.59    3.14
 -10   9  -7    5.52    3.46
   1 -10  -7    9.25    6.48
  10   0   7    3.56    2.82
 -10  10   7   -2.12    3.69
   0  10  -7    3.24    4.35
 -10   0  -7   -4.59    5.52
  10 -10  -7   -1.43    3.21
 -10   7   7   26.29    6.91
  10  -7  -7   32.84    6.41
  -3  10  -7   26.76    6.21
  -7  -3  -7   28.66    9.10
 -10   4   7    5.35    4.33
   6 -10   7   11.65    4.70
  -6  10  -7    7.86    4.64
  -6  10  -7   11.11    4.86
  -4  -6  -7    2.95    5.89
 -10   1   7   29.25    6.99
   9 -10   7   25.90    5.34
  -9  10  -7   43.55    6.44
  -1  -9  -7   30.39    8.91
 -11   9   7   24.85    6.70
  11  -9  -7   38.57    6.94
  -2  11  -7   32.49    7.45
  -9  -2  -7   32.90    9.50
 -11   6   7    0.75    3.81
  -6  -5  -7   -3.03    6.40
  -5  11  -7    2.11    4.09
 -11   3   7   15.59    6.15
   8 -11   7   27.81    5.68
  -8  11  -7   31.06    7.31
  -8  11  -7   20.36    5.12
  -3  -8  -7   37.35    9.16
  -4  12  -7   23.00    6.55
  -7  12  -7    6.67    4.93
  -7  12  -7    7.32    3.76
   1  -1   8   -2.82    3.27
  -1   0   8   -2.97    3.59
   0   1   8    0.78    3.46
  -1   1  -8   -2.03    3.44
   1   0  -8    4.21    3.78
   0  -1  -8    2.31    4.19
  -2   2   8   51.89    9.53
   0  -2   8   35.22    7.38
   2   0   8   40.39    7.63
  -2   0  -8   42.54    9.08
   0   2  -8   63.01    8.91
   2  -2  -8   53.10    9.16
   3  -2   8   40.60    7.54
  -2  -1   8   35.75    7.57
  -1   3   8   32.92    7.81
   2   1  -8   60.78    8.57
   1  -3  -8   55.16    9.85
  -3   2  -8   58.96    9.31
  -3   4   8    3.50    4.56
   4  -1   8    4.73    3.17
  -1  -3   8   -0.88    3.37
  -4   1  -8    5.26    4.82
   1   3  -8    7.24    3.89
   3  -4  -8    2.94    4.43
  -3   1   8   14.25    5.32
   1   2   8   21.26    5.71
  -1  -2  -8   26.06    7.18
   3  -1  -8   33.14    6.55
  -3  -2   8   58.27   10.05
  -2   5   8   51.11   10.51
   2  -5  -8   97.50   13.64
   3   2  -8   79.19   10.53
  -4   6   8    0.90    4.56
   2   4  -8    6.59    3.67
   4  -6  -8   -0.19    4.31
  -4   3   8    7.41    5.01
   3   1   8    7.69    3.78
   4  -3  -8    9.56    4.80
  -3  -1  -8    0.69    5.06
  -4   0   8    4.04    3.88
   0   4   8    4.00    3.37
   4   0  -8    0.44    3.39
   0  -4  -8   -4.60    4.98
  -4  -3   8    1.24    3.73
  -3   7   8    6.80    4.81
   3  -7  -8    3.43    5.44
   3   5  -8   11.50    4.32
  -5   5   8    7.04    5.46
   5  -5  -8   23.41    6.33
  -5   0  -8    3.37    5.06
  -5   2   8   -4.42    3.25
   2   3   8    3.06    3.63
   5  -2  -8    5.53    4.04
  -2  -3  -8   -5.01    4.77
  -5  -1   8    8.62    4.46
  -1   6   8    9.16    4.67
   1  -6  -8    9.25    6.37
   5   1  -8    1.83    3.53
  -5  -4   8   11.93    5.31
  -6   7   8   17.09    7.25
   1   6  -8   27.48    5.97
  -7   1  -8   23.40    7.35
   6  -7  -8   34.19    7.37
  -6   4   8   28.04    7.69
  -4  -2  -8   30.39    8.20
   6  -4  -8   31.62    7.04
  -6   1   8   -0.41    3.66
  -1  -5  -8    5.53    5.76
   6  -1  -8    3.15    3.84
  -6  -2   8   -2.21    3.91
  -7   6   8    7.43    5.96
  -6  -1  -8   21.05    7.14
  -1   7  -8   12.44    4.67
   7  -6  -8    9.58    4.88
  -7   3   8   58.45   10.91
   7  -3  -8   94.66   11.93
  -3  -4  -8   57.12   12.03
  -7   0   8    4.15    5.23
   0   8  -8   -4.15    4.03
  -8   0  -8   -1.87    5.92
  -5  -3  -8   11.40    7.90
  -2   9  -8   -0.39    4.36
   0   0   0    0.00    0.00
;
_shelx_hkl_checksum              20921
_shelx_res_file
;
    vsY3_0m.res created by SHELXL-2014/7
TITL vsY3_0m in R-3
CELL 0.71073  13.3664  13.3664   5.9640  90.000  90.000 120.000
ZERR    6.00   0.0015   0.0015   0.0009   0.000   0.000   0.000
LATT  3
SYMM -Y, X-Y, Z
SYMM -X+Y, -X, Z
SFAC Au Y
UNIT 24 18
LIST 6 ! automatically inserted. Change 6 to 4 for CHECKCIF!!
TEMP 23.000
acta
L.S. 24
BOND
FMAP 2
PLAN 20
WGHT    0.018500
EXTI    0.000074
FVAR       0.01816   0.99222
MOLE   1
AU1   1    0.394240    0.115828    0.044246    11.00000    0.00858    0.00775 =
         0.00821    0.00023    0.00068    0.00457
AU2   1    0.000000    0.000000    0.000000    10.16667    0.00957    0.00957 =
         0.05540    0.00000    0.00000    0.00478
AU3   1    0.000000    0.000000    0.500000    10.16667    0.02296    0.02296 =
         0.02785    0.00000    0.00000    0.01148
Y4    2    0.043279    0.213569    0.226581    11.00000    0.00692    0.01197 =
         0.00791   -0.00207   -0.00120    0.00470
MOLE   2
HKLF 4
REM  vsY3_0m in R-3
REM R1 =  0.0471 for     567 Fo > 4sig(Fo)  and  0.0661 for all     722 data
REM     25 parameters refined using      0 restraints
END
WGHT      0.0185      0.0000
REM Highest difference peak  4.067,  deepest hole -3.912,  1-sigma level  0.945
Q1    1   0.0366  0.2184  0.0513  11.00000  0.05    4.07
Q2    1   0.4475  0.1455 -0.0215  11.00000  0.05    3.79
Q3    1   0.0793  0.0109  0.6595  11.00000  0.05    3.44
Q4    1   0.3526  0.1117 -0.0860  11.00000  0.05    3.35
Q5    1   0.4212  0.1670  0.1054  11.00000  0.05    3.28
Q6    1   0.0219  0.0458  0.1144  11.00000  0.05    3.09
Q7    1   0.4910  0.2425 -0.0959  11.00000  0.05    2.98
Q8    1   0.5118  0.2125  0.0065  11.00000  0.05    2.83
Q9    1   0.4456  0.0629  0.0435  11.00000  0.05    2.72
Q10   1   0.4980  0.1240 -0.1320  11.00000  0.05    2.64
Q11   1   0.3804  0.0720 -0.0076  11.00000  0.05    2.63
Q12   1   0.3328  0.0831  0.0887  11.00000  0.05    2.54
Q13   1   0.1025  0.0512  0.0378  11.00000  0.05    2.52
Q14   1   0.3805  0.0359  0.1832  11.00000  0.05    2.50
Q15   1   0.0325  0.1531  0.1943  11.00000  0.05    2.46
Q16   1   0.4962  0.2402  0.1354  11.00000  0.05    2.42
Q17   1   0.0763  0.0298  0.4429  11.00000  0.05    2.39
Q18   1   0.3424  0.1187  0.2005  11.00000  0.05    2.37
Q19   1   0.4305  0.0941  0.1008  11.00000  0.05    2.35
Q20   1   0.3845  0.0966  0.2203  11.00000  0.05    2.27
;
_shelx_res_checksum              11579
loop_
_space_group_symop_operation_xyz
'x, y, z'
'-y, x-y, z'
'-x+y, -x, z'
'x+2/3, y+1/3, z+1/3'
'-y+2/3, x-y+1/3, z+1/3'
'-x+y+2/3, -x+1/3, z+1/3'
'x+1/3, y+2/3, z+2/3'
'-y+1/3, x-y+2/3, z+2/3'
'-x+y+1/3, -x+2/3, z+2/3'
'-x, -y, -z'
'y, -x+y, -z'
'x-y, x, -z'
'-x+2/3, -y+1/3, -z+1/3'
'y+2/3, -x+y+1/3, -z+1/3'
'x-y+2/3, x+1/3, -z+1/3'
'-x+1/3, -y+2/3, -z+2/3'
'y+1/3, -x+y+2/3, -z+2/3'
'x-y+1/3, x+2/3, -z+2/3'
loop_
_atom_site_type_symbol
_atom_site_label
_atom_site_fract_x
_atom_site_fract_y
_atom_site_fract_z
_atom_site_U_iso_or_equiv
_atom_site_adp_type
_atom_site_calc_flag
_atom_site_occupancy
Au Au1 0.39424(5) 0.11583(5) 0.04425(10) 0.00796(19) Uani d 1
Au Au2 0.0000 0.0000 0.0000 0.0248(5) Uani d 1
Au Au3 0.0000 0.0000 0.5000 0.0246(4) Uani d 1
Y Y4 0.04328(13) 0.21357(14) 0.2266(3) 0.0089(3) Uani d 1
loop_
_atom_site_aniso_label
_atom_site_aniso_U_11
_atom_site_aniso_U_22
_atom_site_aniso_U_33
_atom_site_aniso_U_12
_atom_site_aniso_U_13
_atom_site_aniso_U_23
Au1 0.0086(3) 0.0077(3) 0.0082(3) 0.0046(3) 0.0007(2) 0.0002(2)
Au2 0.0096(5) 0.0096(5) 0.0554(13) 0.0048(3) 0.000 0.000
Au3 0.0230(6) 0.0230(6) 0.0278(10) 0.0115(3) 0.000 0.000
Y4 0.0069(7) 0.0120(8) 0.0079(7) 0.0047(6) -0.0012(5) -0.0021(6)
loop_
_atom_type_symbol
_atom_type_description
_atom_type_scat_dispersion_real
_atom_type_scat_dispersion_imag
_atom_type_scat_source
Au Au -2.0133 8.8022 'International Tables Vol C Tables 4.2.6.8 and 6.1.1.4'
Y Y -2.7962 3.5667 'International Tables Vol C Tables 4.2.6.8 and 6.1.1.4'
loop_
_geom_angle_atom_site_label_1
_geom_angle_atom_site_label_2
_geom_angle_atom_site_label_3
_geom_angle_site_symmetry_1
_geom_angle_site_symmetry_3
_geom_angle
Y4 Au1 Au1 3 13 63.11(4)
Y4 Au1 Y4 3 5_554 126.13(5)
Au1 Au1 Y4 13 5_554 121.77(4)
Y4 Au1 Au1 3 6 64.41(3)
Au1 Au1 Au1 13 6 103.00(2)
Y4 Au1 Au1 5_554 6 134.16(4)
Y4 Au1 Au1 3 8_544 64.19(4)
Au1 Au1 Au1 13 8_544 105.38(4)
Y4 Au1 Au1 5_554 8_544 63.33(3)
Au1 Au1 Au1 6 8_544 97.70(2)
Y4 Au1 Y4 3 13 128.93(6)
Au1 Au1 Y4 13 13 134.78(4)
Y4 Au1 Y4 5_554 13 87.62(5)
Au1 Au1 Y4 6 13 64.75(4)
Au1 Au1 Y4 8_544 13 119.02(4)
Y4 Au1 Y4 3 15 120.08(4)
Au1 Au1 Y4 13 15 56.96(4)
Y4 Au1 Y4 5_554 15 87.52(5)
Au1 Au1 Y4 6 15 128.63(4)
Au1 Au1 Y4 8_544 15 131.80(4)
Y4 Au1 Y4 13 15 95.32(6)
Y4 Au1 Y4 3 5 80.97(5)
Au1 Au1 Y4 13 5 64.48(4)
Y4 Au1 Y4 5_554 5 152.77(7)
Au1 Au1 Y4 6 5 55.19(3)
Au1 Au1 Y4 8_544 5 143.55(4)
Y4 Au1 Y4 13 5 74.38(5)
Y4 Au1 Y4 15 5 74.31(5)
Y4 Au1 Y4 3 7_544 80.80(2)
Au1 Au1 Y4 13 7_544 143.91(4)
Y4 Au1 Y4 5_554 7_544 79.36(5)
Au1 Au1 Y4 6 7_544 57.10(3)
Au1 Au1 Y4 8_544 7_544 55.09(3)
Y4 Au1 Y4 13 7_544 68.17(5)
Y4 Au1 Y4 15 7_544 159.11(5)
Y4 Au1 Y4 5 7_544 111.26(4)
Y4 Au1 Y4 3 11 74.98(6)
Au1 Au1 Y4 13 11 60.50(4)
Y4 Au1 Y4 5_554 11 67.70(5)
Au1 Au1 Y4 6 11 139.02(4)
Au1 Au1 Y4 8_544 11 57.66(3)
Y4 Au1 Y4 13 11 154.05(5)
Y4 Au1 Y4 15 11 76.46(6)
Y4 Au1 Y4 5 11 124.98(3)
Y4 Au1 Y4 7_544 11 112.58(2)
Y4 Au2 Y4 10 12 100.58(4)
Y4 Au2 Y4 10 3 79.42(4)
Y4 Au2 Y4 12 3 180.00(7)
Y4 Au2 Y4 10 11 100.58(4)
Y4 Au2 Y4 12 11 100.58(4)
Y4 Au2 Y4 3 11 79.42(4)
Y4 Au2 Y4 10 2 79.42(4)
Y4 Au2 Y4 12 2 79.42(4)
Y4 Au2 Y4 3 2 100.58(4)
Y4 Au2 Y4 11 2 180.00(9)
Y4 Au2 Y4 10 . 180.00(4)
Y4 Au2 Y4 12 . 79.42(4)
Y4 Au2 Y4 3 . 100.58(4)
Y4 Au2 Y4 11 . 79.42(4)
Y4 Au2 Y4 2 . 100.58(4)
Y4 Au2 Au3 10 . 117.34(3)
Y4 Au2 Au3 12 . 117.34(3)
Y4 Au2 Au3 3 . 62.66(3)
Y4 Au2 Au3 11 . 117.34(3)
Y4 Au2 Au3 2 . 62.66(3)
Y4 Au2 Au3 . . 62.66(3)
Y4 Au2 Au3 10 1_554 62.66(3)
Y4 Au2 Au3 12 1_554 62.66(3)
Y4 Au2 Au3 3 1_554 117.34(3)
Y4 Au2 Au3 11 1_554 62.66(3)
Y4 Au2 Au3 2 1_554 117.34(3)
Y4 Au2 Au3 . 1_554 117.34(3)
Au3 Au2 Au3 . 1_554 180.0
Au2 Au3 Au2 1_556 . 180.0
Au2 Au3 Y4 1_556 . 121.96(3)
Au2 Au3 Y4 . . 58.04(3)
Au2 Au3 Y4 1_556 11_556 58.04(3)
Au2 Au3 Y4 . 11_556 121.96(3)
Y4 Au3 Y4 . 11_556 85.43(4)
Au2 Au3 Y4 1_556 2 121.96(3)
Au2 Au3 Y4 . 2 58.04(3)
Y4 Au3 Y4 . 2 94.57(4)
Y4 Au3 Y4 11_556 2 180.0
Au2 Au3 Y4 1_556 12_556 58.04(3)
Au2 Au3 Y4 . 12_556 121.96(3)
Y4 Au3 Y4 . 12_556 85.43(4)
Y4 Au3 Y4 11_556 12_556 94.57(4)
Y4 Au3 Y4 2 12_556 85.43(4)
Au2 Au3 Y4 1_556 3 121.96(3)
Au2 Au3 Y4 . 3 58.04(3)
Y4 Au3 Y4 . 3 94.57(4)
Y4 Au3 Y4 11_556 3 85.43(4)
Y4 Au3 Y4 2 3 94.57(4)
Y4 Au3 Y4 12_556 3 180.0
Au2 Au3 Y4 1_556 10_556 58.04(3)
Au2 Au3 Y4 . 10_556 121.96(3)
Y4 Au3 Y4 . 10_556 180.0
Y4 Au3 Y4 11_556 10_556 94.57(4)
Y4 Au3 Y4 2 10_556 85.43(4)
Y4 Au3 Y4 12_556 10_556 94.57(4)
Y4 Au3 Y4 3 10_556 85.43(4)
Au1 Y4 Au2 2 . 107.57(5)
Au1 Y4 Au1 2 9 103.63(5)
Au2 Y4 Au1 . 9 131.36(6)
Au1 Y4 Au1 2 13 157.52(6)
Au2 Y4 Au1 . 13 77.42(4)
Au1 Y4 Au1 9 13 87.57(4)
Au1 Y4 Au1 2 14_455 59.92(4)
Au2 Y4 Au1 . 14_455 77.34(4)
Au1 Y4 Au1 9 14_455 87.47(4)
Au1 Y4 Au1 13 14_455 141.21(6)
Au1 Y4 Au3 2 . 130.82(6)
Au2 Y4 Au3 . . 59.30(3)
Au1 Y4 Au3 9 . 72.07(4)
Au1 Y4 Au3 13 . 70.98(4)
Au1 Y4 Au3 14_455 . 70.91(4)
Au1 Y4 Au1 2 9_554 60.62(4)
Au2 Y4 Au1 . 9_554 75.87(4)
Au1 Y4 Au1 9 9_554 152.77(7)
Au1 Y4 Au1 13 9_554 100.96(5)
Au1 Y4 Au1 14_455 9_554 100.84(5)
Au3 Y4 Au1 . 9_554 135.16(6)
Au1 Y4 Au1 2 4_455 60.50(3)
Au2 Y4 Au1 . 4_455 167.29(6)
Au1 Y4 Au1 9 4_455 59.58(3)
Au1 Y4 Au1 13 4_455 111.83(5)
Au1 Y4 Au1 14_455 4_455 98.44(5)
Au3 Y4 Au1 . 4_455 131.04(5)
Au1 Y4 Au1 9_554 4_455 93.40(5)
Au1 Y4 Au1 2 12 99.94(5)
Au2 Y4 Au1 . 12 98.02(5)
Au1 Y4 Au1 9 12 112.30(5)
Au1 Y4 Au1 13 12 57.60(3)
Au1 Y4 Au1 14_455 12 155.52(6)
Au3 Y4 Au1 . 12 127.63(5)
Au1 Y4 Au1 9_554 12 55.02(3)
Au1 Y4 Au1 4_455 12 80.81(4)
Au1 Y4 Y4 2 16 111.27(7)
Au2 Y4 Y4 . 16 133.98(8)
Au1 Y4 Y4 9 16 60.22(5)
Au1 Y4 Y4 13 16 57.40(4)
Au1 Y4 Y4 14_455 16 144.71(8)
Au3 Y4 Y4 . 16 108.07(7)
Au1 Y4 Y4 9_554 16 102.73(7)
Au1 Y4 Y4 4_455 16 54.44(5)
Au1 Y4 Y4 12 16 52.08(4)
Au1 Y4 Y4 2 12 57.29(5)
Au2 Y4 Y4 . 12 50.291(19)
Au1 Y4 Y4 9 12 141.34(6)
Au1 Y4 Y4 13 12 123.26(4)
Au1 Y4 Y4 14_455 12 53.99(3)
Au3 Y4 Y4 . 12 94.91(3)
Au1 Y4 Y4 9_554 12 51.60(5)
Au1 Y4 Y4 4_455 12 117.55(5)
Au1 Y4 Y4 12 12 104.48(6)
Y4 Y4 Y4 16 12 154.22(9)
Au1 Y4 Y4 2 11 111.70(7)
Au2 Y4 Y4 . 11 50.291(19)
Au1 Y4 Y4 9 11 141.48(6)
Au1 Y4 Y4 13 11 54.01(3)
Au1 Y4 Y4 14_455 11 123.20(4)
Au3 Y4 Y4 . 11 94.91(3)
Au1 Y4 Y4 9_554 11 51.70(5)
Au1 Y4 Y4 4_455 11 127.39(5)
Au1 Y4 Y4 12 11 47.74(4)
Y4 Y4 Y4 16 11 92.07(6)
Y4 Y4 Y4 12 11 74.04(6)
loop_
_geom_bond_atom_site_label_1
_geom_bond_atom_site_label_2
_geom_bond_site_symmetry_2
_geom_bond_distance
Au1 Y4 3 2.8810(17)
Au1 Au1 13 2.9738(12)
Au1 Y4 5_554 2.9773(17)
Au1 Au1 6 3.0577(9)
Au1 Au1 8_544 3.0578(9)
Au1 Y4 13 3.0596(17)
Au1 Y4 15 3.0651(17)
Au1 Y4 5 3.1590(17)
Au1 Y4 7_544 3.1688(18)
Au1 Y4 11 3.2754(17)
Au2 Y4 10 2.9425(16)
Au2 Y4 12 2.9425(16)
Au2 Y4 3 2.9425(16)
Au2 Y4 11 2.9425(16)
Au2 Y4 2 2.9425(16)
Au2 Y4 . 2.9425(16)
Au2 Au3 . 2.9820(4)
Au2 Au3 1_554 2.9820(4)
Au3 Au2 1_556 2.9820(4)
Au3 Y4 . 3.0808(17)
Au3 Y4 11_556 3.0808(17)
Au3 Y4 2 3.0808(17)
Au3 Y4 12_556 3.0808(17)
Au3 Y4 3 3.0808(17)
Au3 Y4 10_556 3.0808(17)
Y4 Au1 2 2.8810(17)
Y4 Au1 9 2.9773(17)
Y4 Au1 13 3.0596(17)
Y4 Au1 14_455 3.0651(17)
Y4 Au1 9_554 3.1590(17)
Y4 Au1 4_455 3.1688(18)
Y4 Au1 12 3.2755(17)
Y4 Y4 16 3.492(3)
Y4 Y4 12 3.760(3)
Y4 Y4 11 3.760(3)
