#------------------------------------------------------------------------------
#$Date: 2019-12-26 21:22:11 +0200 (Thu, 26 Dec 2019) $
#$Revision: 246100 $
#$URL: file:///home/coder/svn-repositories/cod/cif/2/31/17/2311752.cif $
#------------------------------------------------------------------------------
#
# This file is available in the Crystallography Open Database (COD),
# http://www.crystallography.net/. The original data for this entry
# were provided by IUCr Journals, http://journals.iucr.org/.
#
# The file may be used within the scientific community so long as
# proper attribution is given to the journal article from which the
# data were obtained.
#
data_2311752
loop_
_publ_author_name
'Ende, Martin'
'Effenberger, Herta'
'Miletich, Ronald'
_publ_section_title
;
 Evolution of the \a-BaMg(CO<sub>3</sub>)<sub>2</sub> low-temperature
 superstructure and the tricritical nature of its \a-\b phase transition.
;
_journal_issue                   'Pt 5'
_journal_name_full
'Acta crystallographica Section B, Structural science, crystal engineering and materials'
_journal_page_first              827
_journal_page_last               835
_journal_paper_doi               10.1107/S2052520617009295
_journal_volume                  73
_journal_year                    2017
_chemical_formula_sum            'C6 Ba3 Mg3 O18'
_chemical_formula_weight         845.01
_space_group_crystal_system      trigonal
_space_group_IT_number           167
_space_group_name_Hall           '-R 3 2"c'
_space_group_name_H-M_alt        'R -3 c :H'
_audit_creation_method           SHELXL-2014/7
_cell_angle_alpha                90
_cell_angle_beta                 90
_cell_angle_gamma                120
_cell_formula_units_Z            2
_cell_length_a                   5.02060(10)
_cell_length_b                   5.02060(10)
_cell_length_c                   33.5307(14)
_cell_measurement_reflns_used    5541
_cell_measurement_temperature    360(2)
_cell_measurement_theta_max      45
_cell_measurement_theta_min      1.5
_cell_volume                     731.96(4)
_computing_structure_refinement  'SHELXL-2014/7 (Sheldrick, 2014)'
_diffrn_ambient_temperature      360(2)
_diffrn_measured_fraction_theta_full 0.993
_diffrn_measured_fraction_theta_max 0.996
_diffrn_measurement_device_type  StoeStadiVari
_diffrn_radiation_type           MoK\a
_diffrn_radiation_wavelength     0.71073
_diffrn_reflns_av_R_equivalents  0.0269
_diffrn_reflns_av_unetI/netI     0.0158
_diffrn_reflns_Laue_measured_fraction_full 0.993
_diffrn_reflns_Laue_measured_fraction_max 0.996
_diffrn_reflns_limit_h_max       8
_diffrn_reflns_limit_h_min       -10
_diffrn_reflns_limit_k_max       10
_diffrn_reflns_limit_k_min       -8
_diffrn_reflns_limit_l_max       66
_diffrn_reflns_limit_l_min       -34
_diffrn_reflns_number            5541
_diffrn_reflns_point_group_measured_fraction_full 0.993
_diffrn_reflns_point_group_measured_fraction_max 0.996
_diffrn_reflns_theta_full        25.242
_diffrn_reflns_theta_max         45.579
_diffrn_reflns_theta_min         3.646
_exptl_absorpt_coefficient_mu    8.224
_exptl_absorpt_correction_T_max  0.8
_exptl_absorpt_correction_T_min  0.7
_exptl_absorpt_correction_type   numerical
_exptl_absorpt_process_details   '(Stoe & Cie GmbH 2016)'
_exptl_crystal_density_diffrn    3.834
_exptl_crystal_description       prismatic
_exptl_crystal_F_000             768
_exptl_crystal_size_max          0.060
_exptl_crystal_size_mid          0.030
_exptl_crystal_size_min          0.030
_refine_diff_density_max         0.755
_refine_diff_density_min         -0.719
_refine_diff_density_rms         0.115
_refine_ls_extinction_method     none
_refine_ls_goodness_of_fit_ref   0.990
_refine_ls_hydrogen_treatment    undef
_refine_ls_matrix_type           full
_refine_ls_number_parameters     17
_refine_ls_number_reflns         701
_refine_ls_number_restraints     0
_refine_ls_restrained_S_all      0.990
_refine_ls_R_factor_all          0.0288
_refine_ls_R_factor_gt           0.0116
_refine_ls_shift/su_max          0.000
_refine_ls_shift/su_mean         0.000
_refine_ls_structure_factor_coef Fsqd
_refine_ls_weighting_details
'w=1/[\s^2^(Fo^2^)+(0.0128P)^2^+0.6467P] where P=(Fo^2^+2Fc^2^)/3'
_refine_ls_weighting_scheme      calc
_refine_ls_wR_factor_gt          0.0247
_refine_ls_wR_factor_ref         0.0280
_reflns_Friedel_coverage         0.000
_reflns_number_gt                444
_reflns_number_total             701
_reflns_threshold_expression     'I > 2\s(I)'
_cod_data_source_file            xk5041sup1.cif
_cod_data_source_block           norse_360
_cod_original_cell_volume        731.95(4)
_cod_original_sg_symbol_H-M      'R -3 c'
_cod_database_code               2311752
_shelx_shelxl_version_number     2014/7
_shelx_space_group_comment
;
The symmetry employed for this shelxl refinement is uniquely defined
by the following loop, which should always be used as a source of
symmetry information in preference to the above space-group names.
They are only intended as comments.
;
_shelx_estimated_absorpt_t_min   0.638
_shelx_estimated_absorpt_t_max   0.790
_shelx_res_file
;

    norse_360.res created by SHELXL-2014/7


TITL norse_100K_woo_a.res in R-3c
REM Old TITL norse_100k_woo in R-3c

REM SHELXT solution in R-3c
REM R1 0.027,  Rweak 0.000,  Alpha 0.038,  Orientation as input
REM Formula found by SHELXT:  C2 O6 Mg Ba

CELL  0.71073   5.0206   5.0206  33.5307   90.000   90.000  120.000
ZERR    2.000   0.0001   0.0001   0.0014    0.000    0.000    0.000
LATT  3
SYMM -Y, X-Y, Z
SYMM -X+Y, -X, Z
SYMM Y, X, 1/2-Z
SYMM X-Y, -Y, 1/2-Z
SYMM -X, -X+Y, 1/2-Z
SFAC C O MG BA
UNIT 12 36 6 6
L.S. 20
TEMP 86.85
SIZE 0.06 0.03 0.03
BOND $H
ACTA
LIST 4
FMAP 2
PLAN 20
REM EXTI    0.000085
WGHT    0.012800    0.646700
FVAR       0.22110
BA1   4    0.000000    0.000000    0.250000    10.16667    0.01117    0.01117 =
         0.01572    0.00000    0.00000    0.00558
MG2   3    0.000000    0.000000    0.000000    10.16667    0.00870    0.00870 =
         0.01269    0.00000    0.00000    0.00435
O3    2    0.132649    0.840071    0.129046    11.00000    0.03593    0.03009 =
         0.02563   -0.00769   -0.01211    0.02823
C4    1    0.000000    0.000000    0.130315    10.33333    0.00985    0.00985 =
         0.01094    0.00000    0.00000    0.00493
HKLF 4

REM  norse_100K_woo_a.res in R-3c
REM R1 =  0.0116 for     444 Fo > 4sig(Fo)  and  0.0288 for all     701 data
REM     17 parameters refined using      0 restraints

END

WGHT      0.0128      0.6467

REM Highest difference peak  0.755,  deepest hole -0.719,  1-sigma level  0.115
Q1    1   0.2141  0.9483  0.1363  11.00000  0.05    0.76
Q2    1   0.0482 -0.0646  0.2696  11.00000  0.05    0.32
Q3    1  -0.0064  0.6948  0.1162  11.00000  0.05    0.31
Q4    1   0.0953  0.9317  0.1229  11.00000  0.05    0.30
Q5    1   0.1987  0.7677  0.1408  11.00000  0.05    0.30
Q6    1   0.0499  0.5243  0.1179  11.00000  0.05    0.29
Q7    1   0.4203  1.1074  0.1252  11.00000  0.05    0.28
Q8    1   0.1653  0.8465  0.1587  11.00000  0.05    0.28
Q9    1   0.3113  1.0060  0.1163  11.00000  0.05    0.26
Q10   1  -0.0874  0.4474  0.1285  11.00000  0.05    0.26
Q11   1  -0.1585  0.6732  0.1108  11.00000  0.05    0.26
Q12   1   0.0824  0.7895  0.1081  11.00000  0.05    0.26
Q13   1   0.1182  0.5931  0.1268  11.00000  0.05    0.25
Q14   1   0.1987  0.0973  0.1663  11.00000  0.05    0.25
Q15   1   0.1702  0.0871  0.0916  11.00000  0.05    0.25
Q16   1   0.0078  0.6712  0.0956  11.00000  0.05    0.24
Q17   1  -0.1705  0.5475  0.1211  11.00000  0.05    0.24
Q18   1   0.4529  1.1485  0.1411  11.00000  0.05    0.24
Q19   1  -0.0769 -0.0421  0.0887  11.00000  0.05    0.24
Q20   1   0.0762  0.0389  0.1838  11.00000  0.05    0.23
;
_shelx_res_checksum              24120
_shelx_hkl_file
;
   0   2  19   -2.48    5.50   0
   0   5  -2  311.55    9.03   0
   0   5   1   -3.60    5.26   0
   1   0 -26 1103.56   21.74   0
   2   2  36  332.85    9.97   0
   1   3  28  682.02   12.26   0
   1   0  25   -0.85    6.24   0
   1   2  29   -0.72    5.56   0
   0   1  14 1839.42   26.15   0
   0   4 -13   -2.46    5.50   0
   0   4  11   -2.62    5.88   0
   1  -2   0 3607.60   35.55   0
   0   3  15   -3.81    5.33   0
   1  -2   3    7.27    5.55   0
   1   1  27   -3.25    5.61   0
   1   4  21    1.18    4.92   0
   2  -1  30  575.57   18.21   0
   1   5 -13    6.95    5.34   0
   0   4   5    0.57    4.93   0
   2   2  33    2.21    5.57   0
   0   3  12 2094.45   21.02   0
   0   4  -7    0.79    4.95   0
   0   4   2 1406.76   17.26   0
   1   2  26  511.47   11.65   0
   0   4  -4 1547.95   18.33   0
   1   4  18  717.36   12.06   0
   0   1  11    0.30    5.62   0
   0   2  13   -1.62    4.75   0
   0   3 -15    1.83    5.54   0
   1   5  -7    1.02    5.18   0
   1   5   2  304.63    8.84   0
   2   0  32  600.65   14.42   0
   0   2 -17   -1.39    7.79   0
   1   5  -4  695.06   12.15   0
   1   5  -1    2.43    4.81   0
   0   3   9   -0.23    4.72   0
   1   3  22  339.79    8.91   0
   0   0  -6 1597.86   51.43   0
   1   4  15    2.41    5.38   0
   0   2  10  176.58    8.14   0
   0   3 -12 2617.20   28.45   0
   0   3   6 2024.87   20.62   0
   1   1  24 1704.47   20.54   0
   2   2  30  175.36    7.73   0
   1   0  22  459.79   14.15   0
   2  -3  17    3.15    4.72   0
   2   1  31    4.01    5.75   0
   1   3  19    4.26    5.13   0
   1   4  12 1051.97   13.48   0
   0   1   8 9645.33   61.30   0
   0   3   3    0.82    4.71   0
   1  -2   9    6.39    4.75   0
   0   3  -9    1.56    4.75   0
   0   3   0 2579.32   24.25   0
   3   1  35    2.59    5.25   0
   0   2   7   -4.61    5.99   0
   1   4   9    5.22    4.41   0
   0   0  -9   -0.82    7.96   0
   1   3  16 2030.90   19.29   0
   1   4 -15    6.16    5.02   0
   1   4   6  342.55    9.13   0
   1   2  20 1437.96   17.66   0
   2   2  27    3.52    5.29   0
  -2   1  30  564.50   11.11   0
  -1   0  20 1591.77   19.34   0
   0   1 -10 3632.92   33.92   0
   0   0  -6 1797.93   37.39   0
  -4  -2  16  664.46   12.03   0
  -3  -1  25    0.57    4.64   0
  -1   2  21    1.06    5.36   0
  -3  -2  14  376.34   10.16   0
   0   0  -9    1.58    6.57   0
  -2  -2   9    0.45    3.88   0
  -2  -1  20 1436.46   16.86   0
  -2   2  29   -5.49    5.25   0
  -1  -1  12 4078.65   33.16   0
  -4  -2  13   -0.12    5.18   0
  -2   0  25   -1.89    4.73   0
   0   2   1    0.34    6.31   0
  -4  -1  24  597.52   11.24   0
  -3   1  32 1147.22   14.32   0
  -3   4  32  823.93   15.00   0
  -2   1  27   -1.32    5.59   0
  -1   0  17    2.94    6.64   0
   0   0 -12  305.26   12.68   0
  -3  -2  11   -1.97    6.19   0
  -3   3  33   -2.15    6.04   0
  -3   0  27    2.97    6.67   0
  -1   1  19   -0.79    6.40   0
  -1   3  17    1.01    8.97   0
  -2  -1  17    6.43    7.00   0
   0   3   3    1.80    5.79   0
  -2   6   7   -5.00    5.79   0
   0   2   4 4851.37   37.01   0
  -3   6  12  701.73   11.95   0
  -2   5  11    3.93    5.61   0
  -4   3  17    0.94    5.47   0
   1   4 -12  897.16   13.69   0
   1   2  -4 3032.94   28.66   0
   2   2 -24 1697.52   26.17   0
   0   4   2 1398.89   16.58   0
  -4   5  18  371.81   10.46   0
  -3   0   6 1959.27   27.54   0
  -3   5  16 1764.53   19.16   0
  -3   4  17    0.71    5.50   0
   1   4  -9   -1.52    5.20   0
  -4   6  17    0.48    5.60   0
  -1   3  11   10.66    5.74   0
  -1   4  10 1109.63   14.97   0
   1  -1 -16 5163.50   45.52   0
   1   5 -19    2.24    5.84   0
   2   1 -20 1406.67   30.81   0
  -2   6  10  316.34    8.41   0
  -4   4  19   -2.01    5.64   0
  -3   6  15    0.91    5.52   0
   0   3   6 2027.34   20.60   0
   1   5 -16  562.95   11.15   0
  -1   5   9    2.42    5.30   0
   0   5   1   -2.04    5.40   0
   1   1  -3    5.48    6.58   0
  -2   2  14  327.83   12.49   0
   0  -1  -8 9999.99   59.21   0
   0   4   5   -0.67    4.86   0
   1   4  -6  810.21   12.69   0
   1   2  -1   11.52    5.59   0
   1   5 -13   -0.84    5.15   0
   1  -1 -19   -1.40    4.67   0
  -2   3  16 1988.87   22.54   0
  -2   6  13    2.45    5.70   0
   0   2   7    3.42    6.04   0
  -3   3  18 1271.11   20.75   0
   1   5 -10  414.60    9.84   0
   2   1 -17   -0.11    6.55   0
   2   2 -15    6.17    5.68   0
  -3   5  19   -1.36    5.52   0
  -1   4  13    2.11    5.55   0
   2   3 -19    0.20    5.10   0
  -4   6  20  563.34   11.68   0
   0   1   5   -2.52    6.25   0
   0   5   4 1126.64   13.89   0
  -4   5  21    2.26    5.20   0
  -3   1  11    4.19    9.43   0
  -3   6  18  376.45    9.23   0
  -1   5  12 1108.25   14.19   0
   0   4   8 1526.73   16.84   0
   1   5  -7   -7.60    5.41   0
   2   3 -16 1729.78   20.69   0
  -3   4  20  864.38   15.09   0
  -1   3  14 1580.54   18.80   0
   0   3   9   -0.77    4.67   0
   1   3   1    8.54    4.79   0
  -2   4  18  991.18   14.60   0
  -3   2  16 1998.20   36.36   0
   0  -1 -11   -0.53    4.01   0
   0   5   7    6.09    4.50   0
   1   2   2  680.28   13.75   0
   1   5  -4  683.69   11.66   0
   2   3 -13   -4.15    5.02   0
   2   1 -14 1646.13   29.22   0
  -2   0   4 4889.65   49.60   0
  -1   4  16 2031.81   19.57   0
  -1   5  15    2.06    5.33   0
  -4   4  22  630.45   14.64   0
  -3   6  21    1.35    5.13   0
   0   4  11    1.30    5.43   0
   1   1   0 4069.99   39.33   0
   1   3   4 1322.58   16.42   0
   2   2  -9    0.19    5.66   0
   2   3 -10  711.33   13.20   0
  -4   6  23   -1.57    5.40   0
  -3   5  22  260.25    8.33   0
   1   4   3    1.39    5.20   0
   1   5  -1   -1.67    5.34   0
  -2   5  20  549.83   10.87   0
   0   2  10  187.78    8.14   0
   2   4 -14  251.66    8.56   0
  -2   3  19    0.09    5.19   0
  -1   1  10 3926.81   49.37   0
   0   3  12 1997.54   19.82   0
   0   5  10  683.83   11.02   0
  -4   3  20  828.66   21.02   0
   2   3  -7    2.68    4.50   0
   2   4 -11   -2.21    4.97   0
  -2   4  21   -2.10    5.33   0
   2   1 -11    3.52    5.88   0
   1   2   5    2.23    4.45   0
   2   2  -6  813.02   14.80   0
  -3   4  23    0.86    5.53   0
   1   3   7   -5.06    5.57   0
   2   4  -8  810.90   12.96   0
   0   4  14  306.94    8.30   0
   0   5  13    7.54    5.18   0
  -3   3  21   -0.31    5.09   0
  -2   2  17    0.11    5.21   0
   2   3  -4  667.75   12.06   0
  -3   5  25   -1.73    5.11   0
  -2   5  23   -2.68    4.99   0
   2   4  -5    3.54    5.05   0
   0   1   8 9666.64   61.68   0
   0   3  15   -2.23    5.49   0
   1   4   9   -0.49    5.24   0
   2   2  -3    3.60    4.15   0
   0   2  13   -0.70    4.52   0
   1   1   3    2.45    5.33   0
   2   1  -8 3348.67   35.90   0
   2   3  -1   -2.49    5.11   0
   0   5  16  639.74   11.18   0
   1   3  10 1098.96   14.74   0
   2   4  -2  560.94   10.86   0
   0   4  17    0.44    4.59   0
   1   2   8 3303.93   26.64   0
  -2   4  24 1778.97   19.36   0
  -2   3  22  446.07   11.49   0
  -1   0   2 1919.93   42.65   0
   2   3   2  793.87   12.89   0
   2   4   1   -2.61    5.03   0
   1   4  12 1098.40   13.48   0
  -2   5  26  572.66   11.13   0
  -3   4  26  598.45   12.94   0
   2   1  -5    2.75    4.96   0
  -3   5  28  350.89    9.66   0
   1   3  13    2.24    5.09   0
   0   4  20 1248.75   14.89   0
   2   4   4  797.95   12.25   0
   1   2  11    4.19    5.56   0
   0   2  16 3027.85   26.24   0
   1   4  15    1.91    5.17   0
   1   1   6 1969.99   24.51   0
  -2   4  27    0.17    5.15   0
  -1   3  23    1.09    5.10   0
  -1   4  25    0.03    4.55   0
  -4   2  15    0.28    8.74   0
  -3   3  24 1007.57   18.65   0
   0   1  11    2.46    6.36   0
  -2   0  -2 5035.56   39.51   0
  -2   5  29    2.88    5.24   0
   1   3  16 2061.97   19.08   0
   2   3   8 2075.16   18.80   0
   0   3  21   -1.06    4.52   0
   3   3  -9    1.70    4.89   0
  -2   2  20 3308.47   34.78   0
  -2   3  25    1.37    5.11   0
   0   4  23   -1.31    4.41   0
   1   4  18  682.86   11.18   0
   2   2   6  769.61   12.88   0
   1   2  14 1625.94   18.35   0
   3   2 -14  354.17   11.32   0
   3   3  -6  411.62   10.49   0
   3   2 -11    0.71    5.43   0
   1   0  -5    0.27    9.94   0
  -3   2  19    0.71    6.69   0
  -3   4  29   -2.25    5.22   0
   2   1   1    6.85    5.43   0
   2   3  11   -0.81    4.40   0
   3   2  -8 2161.83   23.48   0
   3   3  -3    1.16    5.00   0
  -1   4  28  644.89   11.52   0
   0   2  19   -1.03    4.57   0
   1   1   9    7.94    6.05   0
  -1   2  21    1.60    4.82   0
   1   0 -23   -0.38    4.70   0
   1   3  19    3.54    4.53   0
   2   2   9    3.77    5.33   0
   2   4  13   -0.30    5.01   0
   1   4  21    3.07    5.31   0
   3   2  -5   -2.30    5.16   0
  -2   4  30  188.18    8.16   0
  -1   3  26  498.50   11.08   0
   0   3  24 1496.58   16.75   0
   3   3   0  984.31   13.60   0
  -3   1   8 3295.96   44.09   0
  -1   0  -1   -1.26    7.07   0
   1   2  17   -2.50    4.87   0
   2   3  14  351.54    8.56   0
   3   2  -2  777.90   13.53   0
   2   1   4 3086.45   27.78   0
   3   3   3   -0.67    5.06   0
   0   1  14 1662.62   23.15   0
   1   0 -20 1542.77   26.64   0
   1   3  22  345.97    8.99   0
   2   2  12  745.27   12.09   0
   3   2   1    1.21    5.24   0
  -2   3  28 1214.02   17.50   0
  -1   4  31    4.15    5.12   0
   1   1  12 4080.13   31.70   0
   3   3   6  422.28    9.66   0
  -3   3  27   -1.95    5.16   0
   0   2  22 1816.29   19.40   0
   2   3  17    3.74    4.31   0
   2   1   7    1.26    4.22   0
   3   2   4  677.55   12.10   0
  -1   0  -4 2590.57   34.41   0
  -1   3  29   -1.70    5.50   0
   1   0 -17   -1.54    5.72   0
   1   2  20 1380.04   16.05   0
   2   2  15   -3.23    5.27   0
   3   3   9    6.86    4.79   0
  -2   2  23    1.23    5.15   0
  -2   4  33   -2.08    4.88   0
  -1   2  24 1759.92   20.96   0
   1   3  25   -1.81    4.42   0
   2   3  20  551.71    9.91   0
   3   1 -10 1093.45   20.22   0
   3   1  -7    4.85    5.70   0
   3   2   7    7.89    5.13   0
  -1   0  -7    0.96    4.66   0
  -3   1 -16 1920.63   48.30   0
  -5   1  21    1.38    4.64   0
  -1  -1  33   -0.99    6.02   0
  -4   1  22  357.60    9.39   0
  -2   1   9    9.56    5.46   0
  -1  -2  40  400.83   10.80   0
  -1   0 -19   -0.47    5.46   0
  -3   1  20 1469.82   17.57   0
  -2  -1  38  282.04    9.37   0
   0  -1  28 1295.90   20.32   0
   1  -2  30  557.55   15.90   0
  -2   1  12 3946.74   32.25   0
  -4   1  25   -1.99    4.83   0
   1  -1 -10 3664.68   33.74   0
   0   0   6 1673.55   43.39   0
  -3   1  23    3.68    5.01   0
  -2   0  31   -6.17    4.89   0
  -5   2   2  790.48   13.79   0
  -5   2   5    2.09    5.47   0
  -2   1  15    0.67    4.78   0
  -1  -1  36  864.34   14.75   0
  -6   2   4  847.94   13.40   0
  -5   2  -1    5.32    5.41   0
  -5   2   8 2101.94   20.37   0
  -6   2   1   -4.71    5.27   0
  -6   2   7   -0.74    5.42   0
  -4   1  28  668.57   11.40   0
  -3   0  36  469.15   10.67   0
  -6   2  -2  560.28   12.03   0
  -6   2  10  301.70    8.96   0
  -5   2  -4  658.34   13.96   0
  -2  -1  41   -7.29    5.80   0
  -1   0  26 1114.86   16.78   0
   0   0   9   -1.25    7.99   0
  -6   2  13    1.36    5.58   0
  -5   2  14  361.68    9.57   0
  -3   1  26  537.70   11.35   0
  -2   1  -9    8.28    9.03   0
  -2   1  18 1197.38   17.46   0
  -6   2  -5   -2.49    5.55   0
   1  -1  -7   -0.15    4.84   0
   1  -1  17    0.55    6.55   0
  -4   2   9   -4.27    5.73   0
  -2   0  34  265.83    9.04   0
   0  -1  31    1.27    5.74   0
  -5   2  -7    2.52    5.70   0
  -5   2  17   -2.35    4.75   0
  -4   1  31    0.29    4.79   0
  -4   2   0 4073.77   31.96   0
  -4   2  12  748.23   12.80   0
  -4   2  -3   -3.17    6.19   0
  -3   1  29    0.63    5.67   0
  -2   1  21    7.49    5.00   0
   0   0  12  262.15   13.96   0
  -5   2  20  552.88   10.43   0
  -4   2  15    1.16    4.82   0
  -1  -1  39    1.47    5.33   0
  -1   0  29    2.51    5.60   0
  -2   0 -23    0.23    5.83   0
   1  -2  33   -0.41    5.49   0
  -5   2  23    5.21    4.73   0
  -2   0  37   -2.83    5.63   0
  -1   0 -16 4970.74   53.17   0
  -5   2 -10  675.47   15.61   0
  -2   1  24 1756.99   19.51   0
   1  -1  -4 2425.23   33.19   0
  -4   2  -6  791.18   16.68   0
  -4   2  21    6.15    4.87   0
   0   0  15    0.57    6.22   0
   0  -1  34  860.58   16.30   0
  -4   2  24 1843.79   18.38   0
  -1   0  32 1670.47   20.06   0
  -3   2   7   -0.43    5.59   0
  -3   2  10 2053.53   22.06   0
  -3   1  35    6.74    5.47   0
  -3   2  13    5.60    5.97   0
  -2   0  40  742.22   13.23   0
  -3   2   4 2945.49   27.96   0
  -4   2  27   -0.90    4.83   0
  -3   2  16 2091.01   20.86   0
  -4   2  -9   -2.44    5.84   0
  -3   2  19   -1.31    5.93   0
  -1   0  35    2.03    5.48   0
   1  -1  -1   -1.26    6.00   0
  -6   3   6  427.86   10.35   0
  -6   3   9    6.87    5.43   0
  -6   3  12  694.61   12.02   0
  -4   2  30  185.37    7.24   0
  -3   1  38  293.13    9.14   0
   0   0  21    1.07    6.00   0
   2  -2   7   -0.63    5.21   0
   2  -2  13    0.34    6.98   0
  -6   3  15    1.71    4.79   0
  -3   2  22  458.89   10.28   0
   0  -1  37    1.05    5.15   0
  -6   3   3    0.84    5.25   0
  -2   0  43    1.75    5.56   0
   2  -2  10  169.73   12.02   0
  -1   1  10 3787.20   37.12   0
  -1   1  13    1.67    5.32   0
  -4   2  33   -0.24    4.59   0
  -3   2  25    4.32    4.80   0
  -2   1  33   -0.22    4.81   0
  -6   3   0 1019.20   15.38   0
  -5   3   7    2.21    4.81   0
  -5   3  16 1733.58   17.61   0
  -1   1   7   -3.85    6.28   0
  -1   1  16 5092.21   38.39   0
   1  -1  23    0.22    5.84   0
  -5   3   4  672.79   12.79   0
  -5   3  19   -0.03    4.74   0
   0   0  24 4674.60   39.06   0
  -1   0  38  240.82    9.06   0
  -1   1  19    0.62    5.70   0
  -3   2  28 1265.02   15.46   0
  -6   3  -3    2.10    5.00   0
  -5   3   1   -0.13    5.43   0
  -2   1  36  836.04   13.72   0
  -5   3  25    0.56    4.73   0
  -1   1   4 2372.12   34.90   0
  -3   2  31    1.10    5.39   0
  -4   2 -12  737.34   20.16   0
  -3   2  -5    1.91    5.18   0
   0   0  27   -3.25    5.06   0
   1  -1   2 1800.38   37.60   0
  -5   3  -2  789.18   14.64   0
  -4   3  11   10.06    5.72   0
  -4   3  14  671.29   11.95   0
  -4   3  17    0.19    5.54   0
  -1   0  41   -0.30    5.21   0
  -4   3  20  902.44   13.45   0
  -2   0 -20 3212.61   40.40   0
  -2   1  39   -1.23    5.60   0
   1  -1  26 1106.13   24.33   0
  -4   3  23    4.38    4.85   0
  -2   2  14  330.94   10.39   0
  -2   2  11    2.72    5.83   0
  -2   2  17   -1.04    4.95   0
  -1   1  28 1334.42   18.13   0
  -4   3  26  610.29   10.89   0
  -2   2  20 3459.89   27.03   0
   0   0  30  157.14    8.51   0
  -5   3  -5    2.10    5.28   0
  -3   2  37   -0.74    5.44   0
  -4   3   2  853.62   14.82   0
  -2   1  42  288.56    9.06   0
  -2   2   8 2134.39   24.30   0
  -2   2  23   -1.10    5.00   0
  -1   1   1    0.39    6.81   0
  -4   3  29    2.01    4.56   0
  -2   2  26 1227.94   16.33   0
  -1   1  31    1.83    4.96   0
   1  -1  29   -0.81    5.76   0
  -6   4  11   -0.82    4.64   0
  -2   2   5    0.62    5.17   0
   0   0  33   -2.88    5.57   0
  -6   4   8  833.21   13.22   0
  -4   3  -1    2.55    5.32   0
  -3   2  -8 3167.87   39.79   0
  -2   1  45    2.03    5.59   0
  -1   1  34  891.53   14.82   0
   0  -1 -11   -2.73    3.33   0
  -6   4   5    0.49    4.63   0
  -5   3  -8 2077.51   25.60   0
  -3   3  15   -5.17    5.81   0
  -3   3  18 1304.16   16.09   0
  -2   2  32  618.13   11.63   0
  -5   4  18  360.88    8.87   0
  -5   4  21   -0.30    5.41   0
  -3   3  21   -3.51    4.95   0
  -6   4   2  565.37   11.80   0
  -3   3  12 2531.78   22.78   0
  -3   3  24 1062.11   14.23   0
  -2   2   2 5165.34   41.51   0
   0   0  36  556.00   13.24   0
  -3   3  27    4.38    5.51   0
  -2   2  35    0.08    5.28   0
  -1   1  37   -0.05    5.38   0
   1  -1  32 1609.74   27.54   0
  -5   4   9    4.26    4.63   0
  -3   3   9    0.23    5.05   0
   1  -1   5    0.04    8.07   0
  -4   3  -4 1273.64   19.92   0
  -5   4   6  823.31   13.50   0
  -3   3  30  291.85    8.29   0
  -6   4  -1    2.11    5.12   0
  -3   3   6  514.70   11.69   0
  -2   2  38  218.09    7.92   0
  -1   1  40  675.16   13.00   0
   0   0  39   -1.64    5.61   0
  -5   4   3   -1.60    5.56   0
  -3   3  36  707.13   12.24   0
  -4   4  19   -3.62    5.69   0
  -2   2  41    3.52    5.33   0
  -4   4  16 1443.75   16.31   0
  -4   4  25    6.34    5.51   0
  -3   3   3   -0.05    5.17   0
  -2   2  -1    1.92    5.06   0
  -6   4  -4  786.08   14.62   0
  -5   3 -11    0.94    5.99   0
  -4   4  13    4.99    5.61   0
  -4   4  28  597.28   11.04   0
  -1   1  -2 1745.13   39.32   0
  -1   1  43   -1.51    5.60   0
  -5   4   0 1368.54   17.93   0
  -4   4  10  380.42    9.51   0
   0  -1  -8 9504.03   61.33   0
  -3   3  -9    0.27    4.95   0
  -2   3  10 2009.57   20.70   0
  -2   3  22  442.84   10.02   0
  -5   5  -1   -0.67    5.16   0
  -3   4  14  681.44   11.63   0
  -3   4  17    0.94    4.64   0
  -3   4  20  866.44   13.08   0
  -2   2  41    0.25    5.02   0
  -1   2  15   -0.65    5.45   0
   0  -1  -8 9616.32   61.87   0
  -3   4  11    7.21    4.80   0
  -2   3   7    3.89    4.35   0
  -1   2  12 4000.46   32.62   0
  -1   2  18 1136.21   16.97   0
  -3   4  23    2.39    4.46   0
  -5   4 -15    0.43    5.60   0
  -4   4  -8 1482.37   18.66   0
  -3   4   8 2561.06   21.48   0
   0   0  33   -1.08    5.34   0
  -2   3  28 1255.06   15.63   0
  -1   2   9    9.30    5.09   0
  -1   2  24 1751.20   20.47   0
  -5   5  -4 1085.10   14.77   0
  -3   4   5    1.12    5.50   0
  -2   3   4 2964.43   25.84   0
  -4   5  12  922.88   13.06   0
  -4   5  15    0.68    4.48   0
  -4   5  18  347.84    8.52   0
  -4   5  21   -4.18    5.16   0
  -3   4  29    0.60    4.50   0
   1  -2   6 1916.55   26.34   0
  -2   4  18 1011.43   13.44   0
  -2   5  32  632.39   11.80   0
  -2   5  35   -7.17    5.89   0
  -2   5  38   84.98    6.33   0
  -1   4   7    1.78    4.37   0
  -1   6  29   -1.28    6.70   0
  -1   6  38  111.05    7.92   0
  -1   6  32  345.01   10.45   0
  -1   6  35   -3.78    5.92   0
   3   6  21    0.03    6.60   0
  -2   4  45    0.37    5.73   0
  -1   3   5    4.79    4.07   0
  -1   5  51    0.21    6.71   0
   1   5   5    1.36    5.65   0
   2   6  17    6.79    6.71   0
  -2   4  21    1.41    4.50   0
  -1   5  15    3.07    5.90   0
   0   6  21   -3.20    6.31   0
   0   6  45    2.02    6.83   0
   1   3  -5    1.94    4.30   0
   2   3  -7    1.34    4.63   0
   3   6  24  139.65    7.82   0
   3   6  27   -2.90    6.75   0
  -2   4  42  342.06    9.77   0
  -1   5  48  107.44    8.13   0
   0   6  24  545.36   11.54   0
   0   6  42  110.86    7.75   0
   2   4  -2  553.47   11.37   0
   2   6  20  176.03    8.78   0
   3   5   7   -2.88    5.99   0
  -2   4  39    0.17    5.65   0
  -1   4  10 1113.81   14.37   0
  -1   5  18  707.75   11.89   0
   0   5  10  664.69   11.21   0
   0   6  27    4.51    6.83   0
   0   6  39    5.65    7.31   0
   1   4   0 1379.88   16.57   0
   2   5   6  402.80   10.22   0
  -2   4  27   -4.08    5.26   0
   0   6  30  117.70    7.48   0
   0   6  33    4.29    7.31   0
   0   6  36  124.31    7.54   0
   1   6  22  131.81    7.29   0
   1   6  43    5.17    7.16   0
   2   6  23   -2.22    7.18   0
  -2   3  43    3.10    5.69   0
  -2   4  30  190.51    7.79   0
  -2   4  33    0.15    5.54   0
  -2   4  36  339.36    8.90   0
  -1   5  45    2.38    6.53   0
   1   5   8  751.52   12.57   0
   1   6  25    3.79    6.79   0
   1   6  40  179.56    8.87   0
  -1   5  21   -0.02    6.07   0
   1   6  28  138.12    8.33   0
   1   6  37   -2.33    6.87   0
   2   6  32  130.52    8.08   0
   2   6  35    5.56    6.91   0
  -1   4  52  161.20    9.06   0
  -1   5  42  179.70    8.66   0
   0   4   5    3.38    5.05   0
   0   5  13    5.21    5.91   0
   0   5  52  125.97    7.77   0
   1   6  31   -1.29    6.60   0
   1   6  34  145.71    7.95   0
   3   5  10  173.50    8.13   0
  -2   2  23    0.91    4.00   0
  -2   3  25    0.68    4.71   0
  -2   3  40  405.97   10.30   0
  -1   3   8 3312.58   24.89   0
  -1   5  24  584.25   10.91   0
   0   4  59   -0.93    5.60   0
   2   5   9   -0.56    5.74   0
  -1   4  13   -7.05    4.59   0
  -1   5  27    2.65    5.91   0
   4   5  17    4.33    6.36   0
  -2   3  28 1272.56   16.01   0
  -2   3  37    0.60    5.16   0
  -1   5  30  151.40    7.18   0
  -1   5  33    3.20    6.42   0
   0   5  49    0.29    7.27   0
  -2   2  26 1206.77   16.85   0
  -2   3  31    1.35    4.94   0
  -2   3  34  556.73   11.41   0
  -1   4  49    0.12    6.30   0
   0   5  16  641.73   11.05   0
   2   4   1   -0.14    5.14   0
   3   5  13   -0.50    6.04   0
  -2   2  29    0.07    4.78   0
  -2   2  35   -0.56    4.79   0
   0   5  46   62.16    7.78   0
   1   4   3   -2.70    4.30   0
   2   5  12  363.52   10.02   0
   3   4   2  213.14    8.77   0
   4   5  20   89.71    7.73   0
  -1   4  16 2023.23   18.39   0
   0   4  56   49.48    7.61   0
   1   3  -2  836.44   13.71   0
  -1   4  46   64.22    7.25   0
   0   4   8 1432.15   15.81   0
   0   5  19   10.08    5.21   0
   2   3  -4  659.38   12.62   0
   4   5  23    6.75    6.69   0
  -1   3  11    5.58    4.87   0
   0   3   3    0.23    4.61   0
   4   5  26  113.72    7.65   0
  -1   4  19    3.35    5.18   0
   0   5  22  205.98    7.81   0
   0   5  40  173.25    8.73   0
   1   5  47    2.44    7.01   0
   2   5  15   -5.04    6.37   0
   4   5  29    2.68    7.00   0
  -1   4  43    0.41    6.45   0
   0   4  53    1.67    6.31   0
   0   5  25    3.82    6.32   0
   0   5  37   -5.80    6.78   0
   1   5  17   -4.96    5.39   0
   3   5  19   -1.19    6.45   0
  -1   3  50  136.49    7.76   0
   0   5  28  602.96   11.82   0
   0   5  31   -8.87    6.46   0
   0   5  34  241.62    9.10   0
   1   4  57    3.48    6.28   0
   1   5  44  129.85    8.29   0
   2   4   4  839.20   13.28   0
   2   5  45    0.21    7.35   0
  -1   4  22  336.91    8.64   0
  -1   4  40  423.05   10.41   0
   0   4  11   -3.32    5.39   0
   1   4   6  335.55    8.63   0
   1   5  20  446.88   10.46   0
   2   5  18  137.62    7.17   0
   3   4   5    1.13    5.61   0
   3   5  22  111.29    7.92   0
  -1   4  25    1.37    5.51   0
  -1   4  37   -0.92    6.00   0
   1   5  41    6.84    7.32   0
   2   5  42   64.45    7.67   0
   3   3  -3    1.48    5.07   0
   3   5  25    7.34    6.92   0
   3   5  37    9.13    7.24   0
  -1   3  14 1627.95   17.58   0
  -1   4  28  663.44   11.72   0
   0   3  57    5.31    5.81   0
   0   4  50  122.67    8.41   0
   1   5  23   -0.62    6.65   0
   1   5  38  118.31    8.23   0
   3   5  34  112.15    8.19   0
   4   4   9   -3.60    5.93   0
  -1   3  47    0.57    5.68   0
   1   4  54   37.17    7.05   0
   1   5  26  208.61    8.85   0
   1   5  35   -3.04    7.01   0
   2   5  24  372.48   10.44   0
   2   5  39   -8.63    7.25   0
   1   5  29   -2.64    5.87   0
   1   5  32  343.23    9.60   0
   2   5  27    0.65    6.86   0
   2   5  33    2.42    7.33   0
   2   5  36  134.24    8.87   0
   0   3   6 2005.74   19.54   0
   0   4  14  295.06    8.17   0
   0   4  47   -1.13    6.87   0
   1   3   1    2.29    4.86   0
   2   4   7    5.62    5.42   0
   2   5  30  157.58    7.86   0
   5   4  19    2.07    5.93   0
  -1   3  44  275.29    9.08   0
   3   4   8  511.11   11.00   0
  -1   3  17    3.86    4.28   0
   0   3  54   61.90    6.80   0
   1   4  51    6.41    7.21   0
   2   3  -1   -2.17    4.63   0
   4   4  12  223.00    8.80   0
   5   4  22   72.34    7.46   0
   0   4  17   -1.14    4.65   0
   0   4  44  335.18    9.28   0
   5   4  25   -2.73    6.20   0
  -1   3  41    0.51    5.48   0
   1   3  58   83.07    7.29   0
   5   4  28   74.73    7.61   0
  -1   3  20 1410.84   16.19   0
   2   4  10  329.48    9.17   0
   4   4  15    0.14    5.96   0
  -1   3  38  277.99    8.95   0
   0   3  51    2.35    6.50   0
   0   4  20 1237.06   14.55   0
   2   4  49   -0.70    6.99   0
   3   3   0 1023.33   15.19   0
   3   4  11    2.87    4.96   0
   0   4  23   -5.43    5.87   0
   3   4  47   -3.99    6.74   0
  -1   2  45   -3.27    5.05   0
  -1   3  23    0.18    4.19   0
  -1   3  35    3.04    5.16   0
   0   3   9   -3.36    4.14   0
   0   4  26  679.64   11.96   0
   0   4  35   -1.57    5.23   0
   4   4  18  170.50    8.52   0
  -1   3  29    3.38    5.13   0
  -1   3  32 1126.19   14.71   0
   0   4  29   -5.88    5.17   0
   0   4  32  444.68    9.94   0
   1   3  55    0.98    6.57   0
   1   4  15   -1.73    4.86   0
   2   4  13   -0.61    5.65   0
   2   4  46   75.43    7.94   0
   3   4  14  341.42    9.51   0
   4   4  21    6.20    6.82   0
   4   4  39   -6.69    6.85   0
   0   3  48  278.71    9.51   0
   1   4  42  197.09    8.93   0
   3   4  44  105.98    8.47   0
   4   4  36   99.47    7.87   0
   1   4  18  699.67   11.78   0
   2   3   2  782.07   12.91   0
   2   3  56   81.19    8.06   0
   4   4  24  297.69   10.06   0
   4   4  27    7.34    6.99   0
   4   4  30   73.86    8.00   0
  -1   2  42  287.13    8.94   0
   1   4  39    0.14    6.78   0
   2   4  43   -4.90    6.39   0
   3   4  17    5.81    6.35   0
   3   4  41   -0.71    7.27   0
   4   3   4  570.19   11.79   0
   6   3  21   -7.34    6.92   0
   0   3  12 2007.31   18.99   0
   1   2  59    2.82    6.30   0
   1   3  52  143.75    8.41   0
   1   4  21    5.86    5.74   0
   1   4  36  450.45   10.80   0
   0   3  45   -1.40    6.15   0
   1   4  24  637.39   11.66   0
   2   4  40  210.72    8.62   0
   3   3   3   -0.26    4.92   0
   3   4  20  368.20   10.19   0
   3   4  38  113.55    7.70   0
   6   3  24  166.59    8.34   0
   6   3  27    4.20    5.88   0
  -1   2  39   -2.48    4.89   0
   0   2  52  151.28    8.21   0
   1   4  27    7.65    6.14   0
   1   4  30  160.58    8.25   0
   1   4  33    1.45    5.56   0
   2   4  19   -5.49    5.29   0
   2   4  37    7.84    6.74   0
   3   2  -5    1.42    4.58   0
   3   4  35   -5.47    7.26   0
   5   3  11    7.62    5.85   0
   1   3   7    1.26    4.90   0
   2   3  53    2.81    6.96   0
   2   4  22  330.62    9.42   0
   2   4  34  148.32    8.45   0
   3   4  29   -2.42    6.80   0
   3   4  32  252.39    8.75   0
   0   3  42  221.81    8.60   0
   1   3  49    8.16    6.53   0
   2   2  60   75.16    7.24   0
   2   4  25   -8.36    6.46   0
   2   4  28  379.07   10.16   0
   2   4  31   -7.83    6.35   0
  -1   2  36  838.39   13.43   0
   0   3  15   -1.55    4.31   0
   1   2  56  145.74    9.01   0
   2   3   5    1.23    4.90   0
   4   3   7   -2.48    5.42   0
   0   3  39   -0.86    5.92   0
   3   3  51   -6.81    7.24   0
   5   3  14  116.71    7.63   0
  -1   2  24 1689.32   18.44   0
  -1   2  33    0.94    3.95   0
   0   2  49   -5.67    5.83   0
  -1   2  27    4.15    4.48   0
  -1   2  30  573.14   11.33   0
   0   3  18  518.99   10.12   0
   1   3  46   63.35    6.53   0
   3   3   6  419.17   10.05   0
   4   3  46   39.03    7.56   0
   5   3  17   -9.11    6.27   0
   1   3  10 1062.55   13.83   0
   2   2  57    1.08    7.00   0
   3   3  48  117.20    8.38   0
   4   3  10  358.45    9.63   0
   0   3  21   -3.41    4.43   0
   5   3  20  190.34    8.69   0
   0   2  46  217.14    8.43   0
   0   3  24 1564.13   16.38   0
   0   3  27    0.73    5.51   0
   0   3  30  515.67   10.17   0
   1   2  53    2.90    6.58   0
   2   3   8 2130.00   19.64   0
   4   3  43    5.99    6.81   0
   5   3  23    0.11    6.38   0
   5   3  26  143.52    8.52   0
   5   3  29   -5.91    6.96   0
   5   3  32  161.11    8.67   0
   3   3  45   -3.79    7.06   0
  -1   1  37    2.37    4.33   0
   1   3  13   -4.89    4.47   0
   2   1  61    2.66    5.82   0
   2   3  44  199.03    9.08   0
   3   3   9    6.15    4.55   0
   4   3  13    5.06    5.93   0
   4   3  40  139.15    8.47   0
   2   2  54   25.27    6.87   0
   3   2  55   -6.45    6.64   0
  -9   3  18  140.22    8.50   0
  -4   0  35   -0.48    5.77   0
  -2  -1  32 1097.82   16.64   0
  -9   4   8  334.02    9.93   0
  -8   3  22  110.97    8.59   0
  -7   4  10  366.41    9.47   0
  -6   3  21    6.37    5.65   0
  -5   0  37   -1.05    6.76   0
  -5   1  33    5.27    6.64   0
  -3   1  26  478.68   10.62   0
  -3   2  16 2008.22   19.48   0
  -8   4  12  224.02    8.92   0
  -7   1  34  146.66    8.84   0
  -7   3  23    3.66    7.19   0
  -4   1  31   10.25    5.98   0
 -10   4   1    4.28    5.99   0
  -8   2  29   -7.28    7.20   0
  -7   2  30  156.70    8.12   0
  -4   2  24 1838.12   18.52   0
  -4   3  11    8.12    5.36   0
  -9   3  21    0.84    7.22   0
  -8   1  33   -0.46    7.22   0
  -7   4  13   -1.72    6.73   0
  -6   1  35    2.35    6.15   0
  -5   3  19   -1.84    5.22   0
  -3  -1  37   -1.52    6.03   0
  -3   0  33   -1.52    5.41   0
  -8   4  15    4.70    7.32   0
  -2   0  28 1032.66   15.35   0
  -8   3  25   -2.99    7.06   0
  -7   0  38   20.82    7.72   0
  -6   0  39    8.16    7.23   0
  -6   3  24  581.52   11.85   0
  -6   4  11    2.47    5.77   0
  -5   2  29   -2.76    5.73   0
  -5   4  -9    7.13    4.74   0
  -5   4  -6  347.09    9.46   0
  -5   4  -3    2.29    4.85   0
  -9   4  14   68.09    7.85   0
  -7   3  26  135.79    8.72   0
  -5   4   0 1366.30   16.49   0
  -9   3  24  153.38    8.75   0
  -7   4  16  392.62    9.86   0
  -5   4 -12  957.83   15.26   0
  -4   3  14  644.84   11.27   0
  -3   2  19    4.61    4.43   0
  -8   4  18  164.33    8.84   0
  -7   1  37    5.84    7.57   0
  -5   1  36  451.25   11.50   0
  -5   3  22  247.22    8.78   0
  -5   4   3    8.79    5.29   0
  -9   4  17    5.91    6.80   0
  -6   4  14  259.80    8.42   0
  -5   0  40  166.90    9.13   0
  -4   2  27   -5.03    5.86   0
  -3   1  29    3.74    5.25   0
  -8   3  28  123.54    8.53   0
  -8   5  -4  230.46    8.85   0
  -7   4  19   -9.77    6.95   0
  -6   1  38  117.28    8.71   0
  -4   1  34  480.33   11.19   0
  -9   5  -5    4.71    5.91   0
  -9   5  -2  141.57    8.24   0
  -8   5  -7   -1.53    5.90   0
  -8   5  -1   -1.00    6.20   0
  -7   3  29   11.64    7.56   0
  -6   3  27    0.06    6.08   0
  -9   3  27   -1.81    6.84   0
  -9   5   1    3.38    6.18   0
  -8   4  21   -8.38    7.11   0
  -8   5   2  219.49    8.80   0
  -4   3  17    2.69    4.75   0
  -9   4  20   90.98    7.64   0
  -9   5   4  111.80    7.69   0
  -8   5   5   -3.27    6.47   0
  -6   4  17   -6.56    5.57   0
  -5   4   9   -5.12    5.59   0
  -3   0  36  485.72   11.45   0
  -8   2  35   -4.72    6.79   0
  -7   2  36  140.29    9.06   0
  -7   5  -6  385.97   10.13   0
  -7   5  -3   -3.91    5.70   0
  -6   0  42  104.26    7.92   0
  -5   3  25    1.17    5.41   0
  -3   2  22  443.50    9.80   0
  -3   3   0 2287.77   22.16   0
  -9   5   7    7.33    6.97   0
  -8   3  31   -7.58    7.44   0
  -8   5   8  411.22   10.74   0
  -7   4  22  152.77    7.85   0
  -7   5  -9   -0.38    5.81   0
  -7   5   0  561.45   11.10   0
  -2   0  31    0.92    4.74   0
 -10   5   0  156.67    8.22   0
 -10   5   3    0.98    7.10   0
  -8   4  24  309.92   10.24   0
  -7   1  40  187.49    9.37   0
  -7   5   3    0.20    5.25   0
  -6   3  30  157.27    8.51   0
  -5   1  39   -1.40    6.35   0
  -5   4  12  884.24   13.25   0
  -2   1  24 1714.25   18.73   0
  -9   4  23    1.15    6.65   0
  -9   5  10  108.01    8.28   0
  -8   5  11   11.49    6.78   0
  -7   3  32  253.06    9.89   0
  -7   5   6  144.42    7.74   0
  -6   4  20  590.80   11.34   0
  -4   3  20  872.99   12.78   0
 -10   5   6   63.95    6.75   0
  -6   1  41    4.79    6.67   0
  -6   2  37   -6.25    7.09   0
  -4   1  37    2.39    6.08   0
  -3   1  32 1071.82   14.66   0
  -3   3   6  515.89   10.84   0
  -7   4  25   -1.85    7.21   0
  -7   5   9   -2.53    6.02   0
  -5   0  43   -0.80    6.74   0
  -5   2  35    6.11    5.68   0
  -4   0  41   -3.53    6.07   0
  -2   2  11    0.01    4.09   0
  -5   4  15    1.50    5.03   0
  -9   4  26  115.17    8.52   0
  -8   3  34   96.91    7.91   0
  -8   4  27  -10.79    6.65   0
  -7   2  39   -2.72    6.95   0
  -6   4  23    5.72    6.84   0
  -3   2  25    5.56    4.54   0
  -3   3   9   -1.82    4.78   0
  -6   3  33   -5.56    6.88   0
  -4   3  23    3.07    5.48   0
  -8   5  17   -5.53    5.92   0
  -6   5  -2  305.47    9.22   0
  -6   5   1    6.77    5.52   0
  -5   4  18  351.38    9.67   0
  -7   1  43   -4.33    6.98   0
  -7   4  28  344.68    9.74   0
  -7   5  15    1.22    6.58   0
  -6   5  -5   -2.73    5.09   0
  -6   5   4  691.46   12.39   0
  -4   2  33    1.32    5.03   0
  -3   0  39   -2.83    5.50   0
  -2   2  14  338.95    9.33   0
  -9   4  29    5.86    6.92   0
  -9   5  19   -3.42    7.22   0
  -8   4  30   64.46    8.13   0
  -6   2  40  214.45    9.67   0
  -5   1  42  195.83    9.13   0
  -5   3  31    5.04    6.58   0
  -3   3  12 2537.74   21.39   0
  -2   1  27   -2.23    4.92   0
  -8   5  20  192.57    9.27   0
  -6   1  44  129.94    8.87   0
  -6   4  26  370.34    9.73   0
  -6   5   7    0.88    5.01   0
  -5   2  38   86.55    7.99   0
  -4   4  -2 1326.05   16.65   0
  -4   4   1   -0.76    4.68   0
  -3   1  35   -0.98    5.49   0
  -2   0  34  270.17    9.13   0
  -5   4  21    6.59    6.19   0
  -4   1  40  401.55   10.74   0
  -4   4  -5    2.62    4.31   0
  -9   5  22   80.92    7.74   0
  -7   2  42   76.03    7.62   0
  -4   3  26  632.62   11.30   0
  -8   5  23    0.23    7.48   0
  -7   4  31    3.30    6.22   0
  -3   3  15   -4.56    4.40   0
  -8   4  33    0.14    7.11   0
  -7   5  21    1.87    7.05   0
  -6   4  29   -3.45    7.02   0
  -2   2  17    2.97    4.04   0
  -9   6   0  252.09    9.40   0
  -9   6   3    3.97    6.69   0
  -4   2  36  343.68    9.85   0
  -9   5  25   -2.68    6.46   0
  -9   6   6  150.19    8.05   0
  -6   2  43   -3.20    7.82   0
  -6   5  16  605.91   11.75   0
  -9   6   9    6.81    6.75   0
  -8   3  40  116.11    8.04   0
  -8   5  26  162.42    8.89   0
  -8   6   1    3.01    6.33   0
  -5   1  45   -2.74    6.82   0
  -5   2  41    1.33    6.83   0
  -4   3  29    2.52    5.98   0
  -4   4 -11   -1.14    4.54   0
  -4   4  13    1.03    5.39   0
  -3   3  18 1291.73   15.62   0
  -8   6  -2  180.36    8.55   0
  -8   6   7   -0.29    6.88   0
  -7   4  34  162.90    8.34   0
  -7   5  24  280.67    9.87   0
  -2   1  30  559.19   11.04   0
  -9   6  12  125.10    8.21   0
  -8   4  36  100.96    8.52   0
  -7   3  41   -1.31    7.34   0
  -6   3  39   -1.53    6.15   0
  -6   4  32  327.17   10.50   0
  -6   5  19   -0.62    6.57   0
  -3   1  38  299.89    9.45   0
  -3   2  31   -3.34    4.66   0
  -8   6  10  164.66    8.77   0
  -7   2  45   10.01    7.17   0
  -5   4  27    7.59    6.20   0
  -4   1  43    3.57    5.89   0
  -4   4  16 1431.48   16.05   0
  -2   2  20 3404.92   25.06   0
  -9   6  15    5.17    6.84   0
  -8   5  29   -1.72    7.34   0
  -8   6  13   -2.79    7.08   0
  -2   0  37    2.22    5.11   0
  -7   5  27   -0.28    7.60   0
  -5   5   2  311.04    9.06   0
  -4   2  39    0.75    6.36   0
  -3   3  21    1.94    4.61   0
  -9   6  18   73.15    7.60   0
  -8   6  16  318.54   10.15   0
  -7   4  37   -2.20    7.30   0
  -6   5  22  195.20    7.96   0
  -5   5  -1    2.08    5.05   0
  -5   5   5    2.46    4.56   0
  -5   5   8  925.36   13.61   0
  -4   3  32  825.34   13.17   0
  -7   6  -1   -0.37    6.43   0
  -7   6   2  298.97    9.57   0
  -7   6   5   -0.94    6.01   0
  -6   2  46   84.22    8.31   0
  -5   5  -4 1046.60   15.04   0
  -4   4  19    6.59    4.94   0
  -1   0  29    3.11    4.74   0
  -7   6   8  616.89   12.24   0
  -6   3  42  129.29    8.78   0
  -6   4  35    2.29    6.19   0
  -5   2  44  199.56    9.35   0
  -5   4  30  282.02    9.38   0
  -2   2  23   -0.49    4.97   0
  -8   5  32  166.03    8.72   0
  -7   3  44  111.66    8.45   0
  -7   5  30   72.96    7.99   0
  -7   6  -4  226.43    8.58   0
  -7   6  11   -2.81    6.47   0
  -6   5  25    0.70    6.89   0
  -3   2  34  553.23   10.90   0
  -2   1  33    2.00    4.96   0
  -5   5  -7    1.26    4.91   0
  -5   5  14  593.47   10.96   0
  -4   4  22  709.28   12.16   0
  -3   3  24 1025.09   13.71   0
  -7   6  14  110.91    7.16   0
  -5   3  40  377.15   10.55   0
  -3   1  41    0.67    5.64   0
  -9   6  24  175.58    9.24   0
  -8   6  22   69.54    7.72   0
  -5   5  17   -2.51    5.84   0
  -4   1  46   63.93    7.35   0
  -8   5  35   -3.80    7.08   0
  -7   5  33   -6.50    7.67   0
  -6   4  38   77.91    8.08   0
  -6   5  28  377.70   10.61   0
  -5   4  33    7.63    6.42   0
  -4   2  42  338.40   10.27   0
  -4   4  25   -1.16    5.73   0
  -1   1  22  442.92   10.63   0
  -9   6  27   -6.41    6.88   0
  -8   6  25   -0.18    7.36   0
  -7   6  20  225.15    9.11   0
  -6   2  49   -1.29    7.52   0
  -6   3  45   -0.08    7.09   0
  -5   5  20  618.32   11.92   0
  -3   3  27   -3.38    4.81   0
  -7   3  47   -0.62    6.85   0
  -5   2  47   -5.97    6.74   0
  -3   2  37    1.13    5.79   0
  -6   5  31    7.12    7.18   0
  -8   5  38   51.20    7.65   0
  -8   6  28  154.73    8.72   0
  -7   4  43   -2.94    7.74   0
  -7   6  23   16.48    7.46   0
  -6   6   3   -0.45    5.73   0
  -6   6   6  226.33    8.67   0
  -6   6   9    2.32    6.18   0
  -5   3  43    1.46    7.25   0
  -5   4  36  297.91    9.99   0
  -5   5  23   -4.10    6.55   0
  -2   1  36  822.29   13.82   0
  -1   0  32 1619.61   20.03   0
  -9   7   5    4.64    6.49   0
  -9   7   8  170.36    8.53   0
  -6   6   0  807.20   13.43   0
  -6   6  12  386.27   10.16   0
  -4   4  28  570.87   11.00   0
  -9   7  11   -6.86    6.46   0
  -3   1  44  290.33    9.80   0
  -3   3  30  300.24    8.60   0
  -9   7  14  107.56    7.77   0
  -7   6  26  236.06    9.87   0
  -6   6  -3    3.83    5.29   0
  -5   5  26  203.17    8.74   0
  -4   2  45   -1.40    6.58   0
  -3   4   8 2588.38   21.84   0
  -1   1  25    0.89    4.50   0
  -8   6  31    7.78    7.32   0
  -6   3  48  126.23    8.69   0
  -6   5  34  214.25    8.64   0
  -3   4   2  870.03   13.74   0
  -3   4  11    0.59    4.56   0
  -2   3   7    0.48    3.99   0
  -2   3  10 1987.02   19.87   0
  -9   7  17    2.29    7.01   0
  -8   7   6  158.24    8.47   0
  -8   7   9   -2.03    6.95   0
  -7   5  39   -5.00    7.44   0
  -6   6  18  315.59    9.22   0
  -4   4  31    0.37    6.40   0
  -3   2  40  414.19   10.67   0
  -8   7   3   -5.34    6.36   0
  -8   7  12  138.49    8.28   0
  -7   4  46   49.43    7.74   0
  -7   6  29   -3.92    7.27   0
  -5   2  50  143.12    9.07   0
  -3   4  -1    7.88    4.67   0
  -3   4  14  681.05   11.49   0
  -2   3  13    4.63    4.42   0
  -9   7  20  105.88    8.56   0
  -8   7  15  -10.70    6.99   0
  -6   4  44  180.01    9.43   0
  -6   6  21   -4.22    5.72   0
  -5   3  46   33.75    7.66   0
  -5   5  29    1.04    6.41   0
  -4   3  41    2.98    6.50   0
  -8   6  34   86.00    8.84   0
  -6   5  37   -5.75    7.72   0
  -4   5   3    2.61    5.20   0
  -4   5   6  818.38   12.73   0
  -4   5  12  869.55   13.21   0
  -3   4  17    3.62    4.66   0
  -2   1  39    1.31    5.05   0
  -2   2  32  616.38   11.73   0
  -2   3  16 2036.72   19.26   0
  -9   7  23   -1.15    6.56   0
  -8   7  18  121.75    8.38   0
  -6   6  24  446.77   11.16   0
  -7   5  42  102.68    8.32   0
  -7   6  32  235.00   10.09   0
  -4   4  34  230.53    8.36   0
  -4   5   0 1355.53   16.80   0
  -4   5  15    2.39    5.01   0
  -3   4  -4 1198.86   16.97   0
  -3   4  20  883.52   13.16   0
  -1   0  35    3.17    4.70   0
  -1   1  28 1254.98   16.67   0
  -8   7  21    3.33    7.21   0
  -5   5  32  454.28   11.02   0
  -4   2  48  268.60    9.95   0
  -4   5  18  371.59    9.78   0
  -2   3  19    0.13    4.45   0
  -8   6  37   -0.15    7.14   0
  -6   3  51    2.13    7.34   0
  -6   6  27   -0.63    6.92   0
  -5   4  42  150.26    7.91   0
  -7   7   7   -3.32    6.38   0
  -7   7  10  210.60    9.05   0
  -6   4  47   -4.49    7.01   0
  -6   5  40  169.31    9.24   0
  -4   3  44  246.80    9.62   0
  -4   5  -3    1.34    4.80   0
  -3   2  43    3.32    6.06   0
  -3   3  36  739.94   12.28   0
  -3   4  23    5.55    5.79   0
  -7   7   4  141.81    7.84   0
  -7   7  13   -1.26    6.94   0
  -5   3  49    1.33    6.66   0
  -4   5  21   -1.43    5.18   0
  -2   3  22  467.23    9.85   0
  -7   7   1    1.63    6.01   0
  -7   7  16  469.59   11.60   0
  -5   5  35    3.46    7.13   0
  -5   6   7   -3.50    5.53   0
  -5   6  10  432.97   10.36   0
  -4   4  37    2.64    5.67   0
  -2   2  35    7.24    5.26   0
  -8   7  27  -10.29    6.59   0
  -6   6  30  119.47    7.58   0
  -5   6   4  681.03   12.37   0
  -4   5  24  845.03   13.18   0
  -3   4  26  626.68   11.58   0
  -1   2  15    1.36    4.13   0
  -5   4  45   10.16    7.30   0
  -2   1  42  296.28    9.56   0
  -2   3  25    0.24    5.42   0
  -1   1  31    0.02    4.71   0
  -7   6  38   37.76    7.76   0
  -5   6   1    1.99    5.41   0
  -5   6  19   -7.50    6.46   0
  -3   3  39    1.79    6.03   0
  -8   7  30   52.06    7.13   0
  -6   6  33    8.05    7.31   0
  -4   2  51    8.45    7.29   0
  -4   5  27    4.82    6.15   0
  -1   2  18 1155.91   15.36   0
  -7   7  25   -0.23    7.01   0
  -6   4  50   91.80    8.16   0
  -5   5  38  177.72    8.24   0
  -5   6  -2  304.25    9.19   0
  -5   6  22  195.21    8.05   0
  -4   3  47    1.17    6.84   0
  -3   2  46  119.70    8.00   0
  -3   4  29    7.48    5.12   0
  -2   2  38  225.45    8.59   0
  -2   3  28 1282.31   15.72   0
  -8   7  33   -2.36    6.98   0
  -5   3  52  105.79    8.58   0
  -4   5  30  278.57    9.51   0
  -1   2  21    5.62    4.18   0
  -9   8  13   -6.93    6.54   0
  -7   6  41   -5.79    6.68   0
  -7   7  28  115.72    7.83   0
  -6   6  36  174.89    9.44   0
  -6   7  11   -3.03    6.45   0
  -5   4  48  172.11    9.37   0
  -5   6  -5   -1.77    5.43   0
  -4   5  -9    2.59    4.71   0
  -3   4  32  837.53   12.80   0
  -1   1  34  889.88   14.42   0
  -6   7   8  602.36   12.26   0
  -6   7  14  112.16    7.11   0
  -6   7  17    4.53    6.97   0
  -5   5  41  -11.48    6.52   0
  -5   6  28  377.74    9.97   0
  -4   4  43   -4.61    6.74   0
  -7   7  31   -0.80    6.78   0
  -4   5  33    0.71    6.82   0
  -2   1  45   -4.26    5.27   0
  -7   6  44   81.15    8.80   0
  -6   4  53   11.16    6.65   0
  -6   6  39   -1.93    7.26   0
  -4   3  50  141.81    8.98   0
  -8   8   8  197.12    8.64   0
  -8   8  11    5.34    6.64   0
  -8   8  14  109.91    8.20   0
  -8   8  17   -0.11    7.29   0
  -6   7  23   10.68    6.96   0
  -5   6  31    2.75    6.02   0
  -3   2  49   -0.88    6.10   0
  -3   4  35   -0.62    5.94   0
  -2   2  41    1.20    5.65   0
  -8   8  20  113.62    8.35   0
  -7   7  34  124.55    8.87   0
  -6   5  49   -1.36    7.52   0
  -6   7  -1   -0.32    5.93   0
  -6   7  26  232.70    9.49   0
  -5   4  51   -1.24    7.30   0
  -4   5  36  307.60   10.01   0
  -8   8  23   -6.73    6.69   0
  -6   6  42  107.41    8.90   0
  -5   6  34  191.27    9.37   0
  -4   4  46  132.97    8.58   0
  -3   3  45   -3.58    6.39   0
  -3   5  13   -1.23    4.85   0
  -3   5  16 1699.51   17.58   0
  -1   1  37   -0.70    4.83   0
  -7   7  37   -2.84    7.37   0
  -3   5  19    4.96    5.69   0
  -8   8  26   93.09    8.11   0
  -6   7  29    0.99    6.16   0
  -4   6  11    3.45    5.80   0
  -2   4  12  767.21   12.48   0
  -2   4  15   -1.93    5.05   0
  -4   5  39   12.13    6.72   0
  -4   6   8  810.26   13.00   0
  -4   6  17    0.01    5.27   0
  -3   5   4  658.34   11.99   0
  -2   4   9    3.15    4.88   0
  -2   4  18 1039.31   13.78   0
  -1   2  30  541.52   10.71   0
  -6   7  32  227.16    9.58   0
  -5   5  47   -0.04    7.05   0
  -5   6  37    4.01    6.24   0
  -4   3  53    0.78    6.47   0
  -4   6  20  594.99   11.30   0
  -2   2  44  616.47   12.57   0
  -2   3  37    1.97    5.69   0
  -2   4  21   -1.32    5.63   0
  -7   7  40  129.98    8.58   0
  -7   8  12  142.32    8.22   0
  -7   8  15    8.08    6.71   0
  -7   8  18  105.79    8.32   0
  -6   6  45    0.98    7.28   0
  -4   6   5   -0.90    5.50   0
  -4   6  23    4.92    6.62   0
  -3   5  25    0.04    5.30   0
  -7   8   9   -2.43    6.44   0
  -7   8  21   -3.99    6.79   0
  -5   4  54   54.21    8.03   0
  -4   4  49   -1.25    7.16   0
  -3   3  48  165.45    8.95   0
  -3   4  41    0.51    6.55   0
  -2   4  24 1830.59   18.18   0
  -7   8   6  163.19    8.03   0
  -6   7  35    1.45    7.20   0
  -4   6   2  566.40   11.47   0
  -3   5   1   -1.01    3.99   0
  -3   5  28  374.23   10.18   0
  -1   2  33   -0.15    5.11   0
  -7   8  24  204.97    8.92   0
  -5   6  40  180.74    8.65   0
  -5   7  12  451.03   11.06   0
  -5   7  15   -8.94    5.50   0
  -5   7   9    7.45    6.11   0
  -4   6  29   -8.05    6.51   0
  -2   3  40  428.14   10.72   0
  -2   4  27   -1.95    5.11   0
  -5   5  50   67.25    7.74   0
  -5   7   6  132.20    7.64   0
  -3   5  31   -3.47    5.65   0
  -7   8  30   58.34    7.93   0
  -6   7  38   38.35    7.39   0
  -4   6  -1   -0.60    5.00   0
  -3   5  -2  750.60   13.07   0
  -2   2  47   -2.76    5.82   0
  -2   4  30  189.41    8.17   0
  -1   3  14 1606.80   17.42   0
  -1   3  17   -1.61    5.23   0
  -5   6  43   -2.83    7.46   0
  -5   7  27    3.34    7.32   0
  -4   6  32  310.38    9.42   0
  -3   4  44  241.88    8.71   0
  -1   2  36  863.37   13.90   0
  -1   3  11    6.59    4.12   0
  -1   3  20 1479.20   16.43   0
  -5   7   3    1.23    5.72   0
  -4   4  52  123.37    8.72   0
  -3   3  51   -1.95    6.73   0
  -3   5  34  402.31    9.98   0
  -2   4   0 3983.78   28.64   0
  -7   8  33   -5.53    6.84   0
  -6   7  41   -1.99    7.46   0
  -5   4  57    1.74    6.23   0
  -5   7  30   71.40    7.97   0
  -1   3   8 3285.37   25.42   0
  -1   3  23    2.82    4.55   0
   0   1  23   -1.26    4.36   0
  -4   6  35   -0.14    6.14   0
  -2   3  43   -2.34    5.26   0
  -2   4  33    1.54    5.26   0
  -1   1  43   -0.37    5.52   0
  -6   8  13   -2.17    6.38   0
  -6   8  16  308.18   10.29   0
  -6   8  19    1.12    6.73   0
  -5   5  53   -0.38    7.55   0
  -5   7   0  539.18   11.58   0
  -5   7  33   -1.74    7.49   0
  -4   6  -4  808.67   14.05   0
  -3   5  37    1.07    6.55   0
  -1   3  26  518.14   10.36   0
  -6   8  22  103.55    8.37   0
  -3   4  47    2.94    6.69   0
   0   0  33   -0.35    4.07   0
   0   1  26 1120.19   16.11   0
  -6   7  44  100.88    8.69   0
  -4   5  48  168.42    8.92   0
  -4   6  38   91.89    8.54   0
  -3   5  -5    3.65    4.59   0
  -1   2  39    7.33    5.41   0
  -1   3   5    0.12    3.96   0
  -1   3  29   -6.14    5.52   0
  -6   8   7   -2.51    6.35   0
  -5   7  36  225.31    9.57   0
  -2   4  -3    1.39    4.13   0
  -4   4  55   -3.66    7.24   0
  -3   5  40  403.23   10.91   0
  -2   3  46  115.07    7.87   0
  -6   8   4  196.46    8.67   0
  -6   8  31    1.05    7.27   0
  -3   3  54   59.71    7.50   0
   0   1  29    0.36    4.42   0
  -5   7  39   -2.84    7.76   0
  -4   6  41    2.99    6.23   0
  -3   6  15    2.89    5.66   0
  -3   6  18  393.72   10.23   0
  -3   6  21   -0.27    6.46   0
  -4   5  51    9.49    6.90   0
  -3   4  50  156.72    8.77   0
  -3   6  24  590.56   11.75   0
  -1   2  42  303.80    9.51   0
  -6   8  34   88.95    8.49   0
  -4   7  16  368.84   10.03   0
  -4   7  22  154.61    8.37   0
  -2   5  17    6.60    5.85   0
  -2   5  20  537.21   11.00   0
  -4   7  13    4.46    5.38   0
  -4   7  25    2.06    7.06   0
  -3   6   9    1.02    4.82   0
  -3   6  27   -0.71    5.86   0
  -2   5  14  356.43    8.93   0
  -2   5  23   -1.91    5.20   0
  -1   3  35   -1.68    5.74   0
   0   1  32 1653.56   19.16   0
  -7   9  17   -0.48    7.23   0
  -6   8  37    9.96    7.72   0
  -5   7  42  111.11    8.57   0
  -4   6  44  185.87    8.63   0
  -4   7  10  362.56   10.15   0
  -2   4  42  349.17   10.47   0
  -2   5  11    1.75    4.67   0
  -7   9  14  103.50    7.41   0
  -7   9  20  111.51    8.14   0
  -7   9  23    1.80    6.50   0
  -4   7  28  318.08    9.56   0
  -3   6   6  419.32   10.17   0
  -2   3  49   -0.26    6.24   0
  -4   7   7   -0.06    5.92   0
  -2   5  29   -1.02    5.53   0
  -5   8  17   -0.02    6.69   0
  -5   8  20  200.45    9.08   0
  -4   5  54   52.60    7.46   0
  -4   7  31    2.69    6.54   0
  -3   4  53   -0.95    6.53   0
  -3   5  46   42.99    6.52   0
  -3   6  33   -0.55    6.02   0
  -1   3  38  300.00    9.31   0
   0   2  19    2.13    4.91   0
  -5   7  45   -1.50    7.43   0
  -3   6   3    4.48    5.36   0
  -1   2  45    1.70    5.59   0
   0   1  35   -1.00    4.78   0
   0   2  16 2982.07   24.26   0
   0   2  22 1843.10   18.86   0
  -5   8  11    6.46    6.57   0
  -4   7   4  587.28   11.83   0
  -4   7  34  153.91    8.04   0
  -3   6  36  243.56    9.41   0
  -2   4  45    3.80    6.27   0
  -2   5   5   -0.28    5.18   0
  -1   4  16 2023.07   18.95   0
  -1   4  19    5.59    4.86   0
   0   2  13    0.11    4.76   0
  -5   8  29    2.40    6.78   0
  -1   4  25   -4.40    5.85   0
  -5   8  32  167.31    9.24   0
  -4   7  37   -5.04    7.34   0
  -2   3  52  225.48    9.44   0
  -2   5  35    4.38    5.69   0
  -1   3  41    0.94    6.10   0
  -1   4  13   -3.10    4.67   0
   0   2  28 1019.64   14.57   0
  -3   5  49   -0.42    6.79   0
  -1   4  28  676.27   11.67   0
  -4   5  57   -3.89    7.03   0
  -4   6  50   80.08    7.79   0
  -4   7   1    3.09    5.36   0
  -3   6   0  998.40   14.76   0
  -2   5  38   80.73    7.89   0
  -1   4  10 1069.40   14.20   0
   0   1  38  238.83    8.90   0
  -5   8   5   -3.13    5.92   0
  -5   8  35  -11.93    6.74   0
  -4   7  40  131.96    8.56   0
  -3   4  56  116.03    8.42   0
  -2   4  48  267.49    9.64   0
  -2   5   2  737.10   12.30   0
  -1   2  48  290.44    9.50   0
  -1   4  31   -2.72    5.33   0
   0   2  31   -0.03    4.31   0
  -6   9  18   69.15    7.53   0
  -6   9  21   -7.18    6.52   0
  -6   9  24  164.51    8.75   0
  -3   6  42  130.67    8.98   0
  -6   9  15    3.11    6.88   0
  -6   9  27    1.49    6.61   0
  -5   8  38   54.28    7.65   0
  -1   3  44  288.75    9.39   0
  -1   4   7    4.32    4.38   0
  -6   9  12  111.75    7.70   0
  -4   7  43    3.16    7.35   0
  -3   5  52  123.33    8.43   0
   0   2  34  253.48    8.10   0
  -4   6  53    3.69    7.33   0
  -4   7  -2  200.58    8.16   0
  -3   6  -3   -0.27    4.87   0
  -2   4  51    0.58    7.05   0
  -2   5  -1    0.24    4.66   0
   0   1  41   -1.87    5.34   0
  -3   7  20  376.66    9.81   0
  -3   7  23    3.49    5.78   0
  -3   7  26  144.10    8.23   0
   0   2  37    3.26    5.27   0
  -4   7  46   48.94    7.65   0
  -3   7  29   -7.33    6.90   0
  -2   5  44  209.25    8.49   0
  -2   6  16  693.56   12.39   0
  -2   6  19   -0.76    5.51   0
  -2   6  22  324.79    9.23   0
  -2   6  25    3.38    6.67   0
  -1   3  47   -0.12    6.05   0
  -4   8  21   -1.87    7.26   0
  -3   5  55    1.76    7.07   0
  -2   6  28  386.41    9.92   0
  -1   4  40  410.09   10.55   0
   0   3  21    3.59    4.59   0
  -4   8  15   -6.55    6.62   0
  -4   8  27   -6.90    6.79   0
  -3   6  48  122.29    8.34   0
  -3   7  11    1.13    5.29   0
  -3   7  32  251.19    9.14   0
  -2   6  31    6.07    6.67   0
   0   3  18  501.19   10.27   0
   0   3  27   -6.59    5.61   0
  -4   8  30   61.48    7.41   0
   0   3  15    0.94    4.53   0
  -4   8  12  215.95    8.40   0
  -4   8  33    8.14    7.02   0
  -3   7   8  503.27   11.20   0
  -3   7  35    3.29    6.42   0
  -2   4  54   27.80    7.37   0
  -2   5  47    4.29    6.30   0
  -2   6  34  134.72    8.66   0
   0   2  40  724.41   13.11   0
  -1   4   1    5.40    4.75   0
  -1   4  43    0.46    6.64   0
  -1   5  18  699.83   12.20   0
  -1   5  21    1.93    5.31   0
  -1   5  24  637.57   11.51   0
  -1   5  27    5.29    6.44   0
   0   3  12 2040.24   19.54   0
  -5   9  22   65.64    7.48   0
  -5   9  25    8.11    7.25   0
  -4   8   9    2.60    6.38   0
  -4   8  36  109.13    8.40   0
  -3   7  38  116.35    8.86   0
  -2   5  -4  634.27   12.45   0
  -2   6  37   12.38    7.03   0
  -1   3  50  142.65    8.25   0
  -1   5  15   -4.57    5.97   0
   0   3  33   -3.13    4.99   0
  -5   9  16  274.96   10.04   0
  -5   9  19    4.83    7.13   0
  -5   9  28   68.14    7.61   0
  -3   6  51    6.92    7.28   0
  -2   6   7   -1.21    5.57   0
  -4   8  39    7.91    7.43   0
  -3   5  58   79.74    7.86   0
  -3   7   5    3.94    5.19   0
  -3   7  41   -3.11    7.43   0
  -2   5  50  138.49    8.42   0
  -1   5  12 1056.79   14.25   0
  -1   5  33    3.39    6.41   0
   0   2  43   -1.13    5.50   0
   0   3  36  490.27   11.08   0
  -5   9  13   -3.29    6.26   0
  -4   8   6  169.60    8.27   0
  -2   6  40  199.03    9.50   0
  -1   4  46   63.52    7.78   0
   0   3   9    5.44    4.24   0
  -1   5  36  444.04   10.89   0
  -5   9  10  109.70    7.53   0
  -2   6   4  815.20   13.19   0
  -1   5   9    6.67    5.60   0
   0   3  39    0.21    6.05   0
  -3   7   2  199.80    8.20   0
  -3   7  44  103.45    7.91   0
  -2   6  43    5.72    7.44   0
  -4   8   3   -4.92    6.08   0
  -2   5  53   -3.31    6.70   0
  -1   4  -2  833.71   13.85   0
  -1   4  49   -1.51    6.90   0
   0   2  46  233.09    8.78   0
   0   3   6 2017.90   19.75   0
   0   4  23   -5.87    5.76   0
   0   4  26  711.99   12.33   0
  -3   7  47   -0.00    6.93   0
   0   3  42  216.48    8.73   0
   0   4  20 1263.47   15.07   0
   0   4  29   -5.85    5.94   0
   1   1  24 1706.20   19.26   0
  -2   5  -7    2.31    4.56   0
  -2   6   1   -4.50    5.34   0
   0   4  17    0.37    4.91   0
   1   1  21    2.24    3.88   0
   1   1  27    0.07    3.84   0
  -3   7  -1    2.99    5.44   0
  -3   8  19   -9.49    7.20   0
  -3   8  25    7.17    7.36   0
  -3   8  28  125.80    8.50   0
  -2   7  21   -5.26    6.85   0
  -2   7  27   -9.74    7.44   0
   0   4  32  439.08   10.12   0
   1   1  30  588.41   11.86   0
  -3   8  16  356.65   10.67   0
  -3   8  31    2.71    7.01   0
  -2   7  30  154.95    8.01   0
   0   4  14  301.91    8.44   0
   1   0  31   -0.53    4.08   0
  -3   8  34   97.55    7.98   0
  -2   5  56   84.05    8.08   0
  -2   6  49    0.56    6.87   0
  -2   7  33   -0.15    7.65   0
  -1   4  52  155.68    8.73   0
  -1   5  45    5.40    7.00   0
   0   3  45   -2.85    5.97   0
   1   1  33    2.06    5.28   0
  -4   9  20  101.84    8.24   0
  -4   9  23    2.45    6.74   0
  -4   9  26  125.14    8.06   0
  -3   8  13    3.42    6.91   0
  -2   7  36  130.35    8.93   0
  -1   5   3   -2.15    4.49   0
  -1   6  23    7.01    6.49   0
  -1   6  26  203.16    8.76   0
   0   3   3    0.24    4.73   0
  -4   9  17   -0.80    7.10   0
  -3   8  37    2.85    7.18   0
  -2   7  12  360.98   10.26   0
  -1   6  20  452.41   10.22   0
  -1   6  29   -4.41    6.13   0
   0   4  11   -2.78    4.68   0
   0   4  38  113.45    7.04   0
   1   0  34  859.97   15.65   0
  -2   6  -2  561.20   11.51   0
  -1   6  17    2.77    5.58   0
  -1   6  32  317.47    9.58   0
   1   2  20 1448.22   16.94   0
   1   2  29   -0.46    5.07   0
  -4   9  14   64.83    7.28   0
  -3   8  10  182.66    8.67   0
  -3   8  40  123.38    8.13   0
  -2   6  52   95.43    8.45   0
  -2   7  39    7.77    6.75   0
  -1   4  -5   -0.31    4.46   0
  -1   5  48  129.75    8.71   0
  -1   6  14  367.66    9.91   0
  -1   6  35    3.07    7.07   0
   0   4  41    0.60    6.63   0
   1   1  36  816.13   13.79   0
   1   2  32 1132.32   15.35   0
  -2   7   9   -7.03    5.23   0
  -1   4  55    2.36    6.76   0
   0   3  48  280.60    9.72   0
   0   4   8 1451.43   16.51   0
   1   2  17    4.51    4.39   0
  -4   9  11   -0.05    6.58   0
  -2   7  42   79.93    7.78   0
  -1   6  38  108.78    8.24   0
  -3   8   7    4.68    6.39   0
  -1   5   0 1336.14   16.13   0
   1   1  39   -2.12    5.35   0
   1   2  35   -0.35    4.54   0
  -2   7   6  401.36   10.41   0
  -1   5  51    5.77    6.56   0
  -1   6  41    0.82    7.02   0
   0   4  44  354.23   10.42   0
   0   5  22  210.41    8.75   0
   0   5  25    5.58    6.31   0
   0   5  28  589.77   12.02   0
   1   2  14 1654.23   17.81   0
  -4   9   8  307.45   10.51   0
  -2   7  45    6.60    6.90   0
   0   5  19   11.37    6.44   0
   0   5  31    4.40    6.49   0
   1   2  38  297.58    9.24   0
  -1   6   8  771.81   12.77   0
   0   3  51    0.65    5.97   0
   0   4   5    1.67    5.25   0
   0   5  34  254.83    9.28   0
   1   3  25    1.31    5.77   0
  -3   8   4  221.89    8.89   0
  -2   6  -5    6.72    4.81   0
   0   4  47   -3.00    6.89   0
   0   5  16  652.75   11.44   0
   1   3  22  347.46    8.94   0
   0   5  37   -1.08    6.85   0
   1   2  11   -0.95    4.39   0
   1   3  19    4.55    4.84   0
  -2   7   3    0.84    5.98   0
  -1   5  54   34.58    7.13   0
   0   5  13   -2.36    6.01   0
   1   2  41    3.69    5.59   0
   1   3  34  475.48   10.46   0
  -2   8  26  148.33    8.59   0
  -1   5  -3    8.18    5.06   0
  -1   6   5    0.13    5.65   0
  -1   6  47    4.10    6.91   0
   1   3  16 2067.70   18.94   0
  -2   8  29   -6.84    6.78   0
  -2   8  32  144.94    8.71   0
   1   3  37    1.59    5.15   0
  -3   8   1   -1.22    5.66   0
  -3   9  21    2.84    7.19   0
  -3   9  24  130.43    8.03   0
  -2   8  35    4.54    7.37   0
  -1   7  22  143.67    8.64   0
  -1   7  25   -7.52    7.06   0
  -1   7  28  123.99    8.55   0
   0   4  50  123.97    8.32   0
   0   5  10  643.96   11.84   0
  -2   8  17   -0.61    5.99   0
  -1   4  -8 2594.04   25.24   0
  -1   7  19    8.48    7.18   0
  -1   7  31   -9.79    6.95   0
   0   5  43    1.16    7.12   0
   1   2  44  277.88    9.17   0
   1   3  13    3.81    4.77   0
   1   3  40  394.16   10.30   0
  -3   9  18  146.75    8.77   0
  -2   7   0  528.06   11.39   0
  -2   8  14   96.45    8.04   0
  -1   5  57    4.00    6.68   0
  -1   6  50   63.38    7.44   0
  -1   7  34  153.35    8.42   0
   1   2   8 3341.73   25.33   0
  -8   7  18  102.95    9.19   0
  -7   8   3   -2.87    7.18   0
  -6   8 -14   98.23    8.00   0
  -5   7   0  558.52   11.80   0
  -4   5  15    4.93    5.60   0
  -1   3 -25   -0.08    4.19   0
  -6   5  25   -0.43    6.17   0
  -6   8 -20  174.43    8.27   0
  -6   8 -11   -6.24    6.09   0
  -5   7 -33   -5.43    6.83   0
  -4   6   5   -4.11    6.23   0
  -8   9 -14   60.16    7.48   0
  -7   6  23    3.72    6.67   0
  -7   7  16  484.79   12.06   0
  -6   8 -23   -2.32    6.45   0
  -2   4   3   -1.05    5.28   0
  -8   9 -11    0.69    7.41   0
  -6   8 -26  156.45    8.23   0
  -6   8  -5   -1.98    7.14   0
  -5   7   3   -2.77    6.77   0
  -4   4  22  659.71   12.69   0
  -1   3  -4 3007.99   25.08   0
  -9   8  13   -1.52    6.39   0
  -8   8  11   -0.38    7.09   0
  -8   9  -8  111.08    8.57   0
  -3   5   7    8.17    5.64   0
  -8   9  -5   -5.66    7.10   0
  -6   6  21   -1.39    6.35   0
  -6   8 -29    0.21    6.66   0
  -6   8  -2  202.92    9.22   0
  -3   3  21   -2.12    4.43   0
  -5   5  23    1.19    5.75   0
  -4   6   8  820.22   12.61   0
  -8   7  21    4.16    6.92   0
  -8   9  -2   82.81    8.18   0
  -6   7  14  118.98    7.36   0
  -5   7   6  137.48    7.47   0
  -3   6 -18  386.42   10.01   0
  -3   6 -15   -0.93    5.69   0
  -7   7  19   -5.04    7.05   0
  -6   8 -32  141.64    8.09   0
  -6   8   1   -2.08    6.23   0
  -4   5  18  364.59    9.92   0
  -3   4  17    0.23    5.00   0
  -3   6 -21   -2.02    5.68   0
  -3   6  -9    5.12    5.93   0
  -2   4   6  796.62   12.51   0
  -1   3  -1   11.27    5.03   0
  -8   9   1    7.90    6.98   0
  -4   7 -20  374.54   10.34   0
  -4   7 -17    0.01    5.44   0
  -7   9 -19   -7.65    6.58   0
  -7   9 -13   -3.46    7.03   0
  -6   8   4  196.87    9.62   0
  -4   7  -8  496.11   11.14   0
  -3   5  10  689.55   11.68   0
  -3   6 -24  549.65   11.43   0
  -3   6  -6  421.12    9.54   0
  -2   5 -16 1712.60   18.25   0
  -2   5 -13   -1.25    5.31   0
  -7   8  12  156.39    9.04   0
  -7   9 -22   28.04    6.68   0
  -5   7   9   -3.20    5.79   0
  -4   6  11    4.67    5.38   0
  -4   7 -23   -7.21    5.52   0
  -2   5 -19    2.25    5.14   0
  -8   9   4  134.07    8.38   0
  -6   7  17   -2.20    6.79   0
  -5   6  19    0.50    5.11   0
  -4   7 -26  124.74    7.78   0
  -4   7  -5   -6.52    5.69   0
  -3   6 -27   -1.25    5.50   0
  -3   6  -3   -5.59    6.09   0
  -2   5 -22  258.51    8.54   0
  -7   9  -4  186.29    9.21   0
  -6   6  24  430.93   11.39   0
  -5   8 -16  365.37   10.45   0
  -2   5  -7   -2.77    4.64   0
  -8   8  17    3.66    6.68   0
  -6   8   7   -4.78    6.54   0
  -5   8 -19    1.94    5.92   0
  -5   8 -10  166.64    8.01   0
  -4   4  25    1.14    5.08   0
  -4   7  -2  208.37    8.08   0
  -2   4   9    0.78    5.04   0
  -1   3   2  671.79   12.23   0
  -7   7  22   86.42    7.97   0
  -7   9  -1   -4.30    6.85   0
  -5   7  12  452.16   11.16   0
  -5   8 -22   90.33    7.63   0
  -5   8  -7    1.37    5.89   0
  -4   7 -29    3.18    6.13   0
  -3   6   0 1027.37   13.65   0
  -2   5 -25    3.22    5.06   0
  -2   5  -4  631.81   11.09   0
  -7   8  15    0.64    6.93   0
  -5   5  26  208.16    8.73   0
  -5   8 -25   -2.22    6.47   0
  -5   8  -4  236.69    9.24   0
  -4   5  21   -0.31    5.69   0
  -4   7   1    3.22    6.40   0
  -3   5  13   -6.18    4.73   0
  -3   6 -30  146.57    7.73   0
  -2   3  16 1922.97   20.50   0
  -7   9   2   55.32    7.66   0
  -6   7  20  226.56    9.76   0
  -5   8 -28  130.84    8.67   0
  -5   8  -1    0.74    7.06   0
  -3   4  20  872.19   13.97   0
  -3   6   3    1.43    5.19   0
  -2   5 -28  328.23    9.58   0
  -2   5  -1    2.54    4.89   0
  -5   6  22  184.58    8.54   0
  -4   7   4  593.56   11.83   0
  -3   3  24 1014.73   16.29   0
  -8   8  20  105.65    7.93   0
  -7   9   5   -3.97    7.28   0
  -6   9 -18  160.51    8.60   0
  -6   9 -15    8.51    6.79   0
  -1   3   5   -2.59    4.97   0
  -1   4 -14  657.94   12.15   0
  -7   8  18  111.72    8.84   0
  -6   9 -21    1.58    6.48   0
  -6   9  -9    1.19    6.67   0
  -2   4  12  744.36   12.23   0
  -2   5   2  761.68   11.93   0
  -1   4 -17    2.00    4.60   0
  -1   4 -11    5.82    4.80   0
  -7   7  25    0.95    6.79   0
  -6   6  27   -0.75    6.51   0
  -6   9  -6   62.30    7.47   0
  -4   6  17   -2.84    5.75   0
  -3   6   6  413.25    9.60   0
  -1   4 -20  821.71   13.78   0
  -8   9  13   -4.19    6.67   0
  -7   9   8  176.19    8.87   0
  -6   9 -24  132.83    8.34   0
  -6   9  -3   13.97    7.12   0
  -5   8   5   -0.78    7.21   0
  -4   7   7   -2.13    5.80   0
  -1   4  -5    4.91    5.06   0
  -6   7  23   -4.59    6.41   0
  -6   9 -27    3.44    5.80   0
  -4   5  24  849.36   14.21   0
  -2   5   5   -0.04    4.91   0
  -1   4 -23    3.62    4.87   0
  -5   7  18  337.69    9.60   0
  -7   8  21    5.20    7.41   0
  -6   8  16  304.06    9.44   0
  -6   9   3    4.93    7.18   0
  -5   6  25    6.28    6.12   0
  -5   8   8  421.58   10.35   0
  -4   7  10  353.22    9.69   0
  -2   3  19   -4.20    4.40   0
  -1   3   8 3338.61   25.86   0
  -1   4  -2  863.00   13.26   0
  -3   4  23    3.50    5.02   0
  -3   7 -16  369.71   10.07   0
  -3   7 -13    8.70    6.40   0
  -4   6  20  580.65   11.36   0
  -4   8 -18  163.52    8.58   0
  -4   8 -15   -9.48    7.06   0
  -3   7 -19    4.72    6.07   0
  -3   7  -7   -0.96    6.12   0
  -1   4 -26  530.81   12.23   0
  -5   8  11    0.93    7.42   0
  -4   8  -6  176.75    8.72   0
  -3   5  19    3.04    4.92   0
  -3   7 -22  135.06    7.77   0
  -2   5   8 2127.24   19.15   0
  -7   9  14  111.18    8.16   0
  -4   7  13   -3.21    6.60   0
  -4   8 -21    0.52    6.65   0
  -3   6  12  692.82   11.84   0
  -3   7  -4  597.18   11.28   0
  -2   6 -14  246.99    8.46   0
  -2   6 -11   -2.05    5.39   0
  -1   4   1    5.94    4.48   0
  -6   8  19    6.99    7.25   0
  -5   7  21    2.46    5.77   0
  -4   8 -24  281.36    9.51   0
  -4   8  -3   -0.30    6.03   0
  -3   7  -1    0.46    6.50   0
  -2   6 -17   -2.92    4.91   0
  -6   7  26  211.80    9.61   0
  -6   9   9   -6.42    7.14   0
  -5   9 -17    4.26    6.77   0
  -5   9 -14   65.00    7.84   0
  -5   9  -8  339.43   10.52   0
  -3   7 -25    1.70    5.86   0
  -2   6 -20  584.61   11.76   0
  -2   6  -5    7.07    5.73   0
  -7   8  24  205.50    9.29   0
  -5   9 -20  102.12    7.57   0
  -5   9  -5    0.23    7.11   0
  -4   5  27   -3.48    5.76   0
  -4   8   0  470.31   10.75   0
  -7   9  17    4.33    7.37   0
  -4   8 -27    2.56    5.80   0
  -3   3  27   -0.94    4.29   0
  -3   7   2  208.89    8.05   0
  -2   5  11    4.83    4.90   0
  -2   6 -23    3.55    5.31   0
  -2   6  -2  563.79   11.31   0
  -1   3  11    0.52    4.85   0
  -1   4   4 1285.73   15.42   0
  -5   9 -23    1.45    6.25   0
  -5   9  -2  147.39    8.24   0
  -4   6  23    6.94    6.18   0
  -4   8   3   -0.32    6.15   0
  -3   6  15   -4.53    5.37   0
  -3   5  22  262.02    8.99   0
  -2   6   1   -9.60    6.15   0
  -6   8  22   80.81    8.38   0
  -5   9 -26   90.95    7.15   0
  -5   9   1   -2.78    6.88   0
  -3   7   5    4.68    5.78   0
  -2   6 -26  329.22    9.61   0
  -4   8   6  174.44    8.19   0
  -3   4  26  609.97   12.26   0
  -5   9   4  106.72    8.79   0
  -2   3  22  419.16   10.16   0
  -2   5  14  367.90    9.57   0
  -2   6   4  842.08   13.23   0
  -1   4   7    4.97    4.59   0
  -1   5 -15    3.30    5.14   0
  -1   5 -12  874.73   13.57   0
  -1   5  -9    1.58    5.34   0
  -6  10  -4  103.62    7.98   0
  -4   7  19    7.45    6.65   0
  -3   7   8  506.15   10.71   0
  -6  10  -1    8.42    7.43   0
  -1   5 -18  347.73    9.19   0
  -5   9   7   -3.64    6.94   0
  -4   6  26  357.47   10.48   0
  -1   5  -3    3.96    5.55   0
  -6   8  25    3.69    6.65   0
  -5   8  20  203.21    9.52   0
  -2   6   7   -1.75    5.41   0
  -1   5 -21   -0.85    5.07   0
   0   3 -15    0.31    4.65   0
   0   3 -12 2502.54   23.85   0
   0   3  -9   -0.64    4.68   0
  -4   5  30  263.30    9.34   0
  -4   8  12  235.93    9.77   0
  -3   7  11   -5.28    5.91   0
  -2   4  21    2.25    5.03   0
  -1   4  10 1133.64   14.79   0
  -6   9  18   74.74    8.55   0
  -5   7  27    0.87    7.03   0
  -5   9  10  108.97    7.73   0
  -3   5  25   -0.52    5.74   0
  -4   7  22  159.30    8.36   0
  -3   8 -14  121.57    8.00   0
  -3   8 -11    3.96    5.61   0
  -1   5 -24  794.53   13.87   0
   0   3 -18 1192.49   17.79   0
  -4   9 -16  283.68   10.02   0
  -4   9 -13   -1.32    6.77   0
  -4   9 -10  109.91    8.34   0
  -3   6  21    5.78    5.28   0
  -3   8 -17    8.50    6.66   0
  -3   8  -5   -3.66    5.90   0
  -2   6  10  318.01    8.90   0
  -1   5   3   -4.03    5.34   0
   0   3  -3    0.42    4.07   0
  -5   9  13    4.68    7.21   0
  -4   8  15    1.53    7.49   0
  -4   9  -4  108.30    8.21   0
  -3   7  14  343.96    9.54   0
  -3   8 -20  201.03    8.76   0
  -3   8  -2  205.24    9.01   0
  -2   7 -12  456.37   11.06   0
  -2   7  -9   -7.62    6.37   0
  -5   8  23    1.86    6.96   0
  -4   9 -19    1.87    6.81   0
  -4   9  -1   -0.12    7.41   0
  -2   7 -15    5.05    6.29   0
  -6   8  28  138.08    8.35   0
  -6   9  21    2.83    7.45   0
  -4   9 -22   57.84    7.87   0
  -3   4  29    2.55    5.00   0
  -3   8 -23   -0.30    6.22   0
  -3   8   1    4.99    5.76   0
  -2   7 -18  357.02    9.98   0
  -1   4  13    2.74    4.59   0
   0   3   0 2607.61   22.67   0
  -4   6  29   -1.56    6.23   0
  -4   9   2  138.16    8.60   0
  -2   3  25   -0.31    4.45   0
  -2   6  13   -0.75    5.36   0
  -1   5   6  348.47    9.06   0
  -5  10  -3   -2.63    7.36   0
  -3   7  17   13.25    6.89   0
  -3   8   4  232.54    9.74   0
  -2   7 -21   -5.57    6.05   0
  -2   7   0  549.70   11.02   0
  -4   7  25    2.56    5.90   0
  -4   9   5  -10.95    7.21   0
  -3   6  24  566.23   12.07   0
  -2   4  24 1801.24   19.12   0
  -5  10   0  185.38    9.18   0
  -3   5  28  356.44   10.07   0
  -3   8   7   -6.41    7.53   0
  -2   7   3    2.40    5.77   0
  -1   5   9    3.42    5.88   0
   0   3   3    1.46    4.16   0
  -6   9  24  176.19    9.34   0
  -5   8  26  152.09    9.05   0
  -5  10   3   -1.06    7.49   0
  -2   7 -24  257.00    9.24   0
  -1   6 -10  451.57   10.53   0
  -2   6  16  691.64   11.98   0
  -2   7   6  407.24   10.56   0
  -1   4  16 2087.82   19.63   0
  -1   6 -13    2.07    5.85   0
   0   4 -10  388.27    9.89   0
  -5   9  19    4.20    7.27   0
  -1   6 -16  595.24   11.88   0
   0   4 -13    0.46    4.06   0
  -5  10   6   62.57    8.21   0
  -4   8  21    1.58    7.41   0
  -1   6  -1    6.45    6.16   0
   0   4 -16 1426.37   17.83   0
   0   4  -4 1516.92   16.82   0
  -4   7  28  342.76   10.58   0
  -4   9  11    7.09    7.19   0
  -2   5  23    0.86    5.70   0
  -1   5  12 1130.97   14.36   0
  -1   6 -19    1.11    5.57   0
   0   3   6 2082.56   19.75   0
  -5  10   9  -14.10    6.84   0
  -4   6  32  302.71   10.01   0
  -1   6   2  317.31    9.51   0
   0   4  -1   -1.48    4.47   0
  -6   9  27    3.85    7.81   0
  -3   6  27   -1.44    5.29   0
  -3   8  13   10.86    7.61   0
  -2   6  19   -1.62    5.39   0
  -1   6 -22  185.89    8.22   0
   0   4 -19   -2.16    4.59   0
  -5   8  29   -1.23    6.79   0
  -5   9  22   68.08    8.31   0
  -4   9  14   75.70    7.88   0
  -1   6   5    5.78    6.37   0
   0   4   2 1374.98   15.74   0
  -4   8  24  281.19   10.34   0
  -3   5  31    0.08    5.59   0
  -3   7  23   -4.32    6.89   0
  -2   4  27   -0.77    5.05   0
  -3   9 -12  106.22    7.87   0
  -3   9  -9   -4.10    6.57   0
  -3   9  -6  153.00    8.80   0
  -1   5  15    3.64    5.10   0
   0   3   9    5.43    4.33   0
  -3   9 -15    2.26    6.85   0
  -2   3  28 1215.97   17.21   0
  -2   8 -10  165.97    8.57   0
  -2   8  -7    2.38    6.93   0
  -1   6   8  748.09   12.47   0
   0   4 -22  600.65   12.52   0
   0   4   5    4.98    5.33   0
  -4   9  17    0.50    7.01   0
  -4  10  -2   66.40    8.04   0
  -3   9 -18   67.23    7.19   0
  -3   9   0  248.20    9.33   0
  -2   5  26  595.03   11.88   0
  -2   8 -13    2.46    6.75   0
  -5   9  25    2.04    6.84   0
  -4   7  31    1.08    6.46   0
  -3   9   3   -0.99    6.97   0
  -2   7  15    6.54    5.98   0
  -2   8 -16  298.57    9.76   0
  -2   8  -1   -4.40    5.94   0
  -4  10   1   -0.43    7.30   0
  -3   6  30  163.18    8.32   0
  -3   9 -21    2.74    6.47   0
  -2   8   2  201.86    9.13   0
   0   5  -8  933.72   13.94   0
  -5   8  32  164.23    9.62   0
  -4   8  27    5.80    7.36   0
  -3   7  26  127.34    8.49   0
  -3   8  19    2.75    7.11   0
  -3   9   6   58.03    7.82   0
  -2   8 -19    3.95    6.31   0
  -1   5  18  692.85   11.71   0
  -1   6  11    2.63    5.42   0
   0   4   8 1470.11   16.09   0
   0   5 -11   -6.89    4.69   0
  -2   8   5   -5.74    7.12   0
  -1   3  23    1.30    4.53   0
  -1   4  22  328.94    9.27   0
   0   3  12 1960.51   18.97   0
   0   5 -14  613.05   11.98   0
   0   5  -2  300.46    8.51   0
  -2   7  18  160.11    8.70   0
  -1   7 -11    0.98    6.37   0
  -1   7  -8  580.61   11.37   0
   0   5   1    3.22    5.84   0
  -3   9   9   -8.01    6.85   0
  -2   8   8  375.72   10.96   0
  -1   6  14  394.62   10.42   0
  -1   7 -14  114.82    7.78   0
   0   5 -17    1.74    5.15   0
  -5   9  28   61.30    7.39   0
  -2   4  30  191.08    7.97   0
  -2   6  25    0.15    5.39   0
  -1   7 -17   -6.29    6.13   0
  -1   7   1   -6.32    5.75   0
   0   4  11   -1.59    4.70   0
   0   5   4 1086.60   14.54   0
  -3   9  12  131.97    8.94   0
  -2   5  29   -4.89    5.74   0
  -4   7  34  153.17    8.85   0
  -4   9  23   -0.77    6.89   0
  -3   7  29    1.65    7.00   0
  -2   8  11    4.03    7.07   0
  -1   7   4  234.60    8.51   0
   0   5 -20  585.92   12.09   0
  -4   8  30   74.53    8.20   0
  -2   7  21   -3.77    5.89   0
  -1   7 -20  206.04    8.71   0
   0   3  15   -0.40    4.30   0
   0   5   7    3.96    6.04   0
  -3   6  33   -3.12    6.18   0
  -1   6  17    9.08    5.73   0
  -1   7   7    0.62    6.00   0
  -3   9  15    6.97    6.75   0
  -2   8  14   84.21    8.30   0
  -1   4  25    1.28    5.17   0
   0   4  14  295.34    8.39   0
  -3   8  25   -3.75    7.37   0
  -2   3  31   -0.38    4.38   0
  -2   6  28  379.10   10.49   0
  -1   7  10  203.70    8.69   0
   0   5  10  674.10   11.95   0
  -4   9  26  109.08    8.16   0
  -1   3  26  500.64   11.03   0
   0   6  -6  225.96    8.84   0
  -3   9  18  147.22    8.61   0
  -1   5  24  590.55   11.18   0
  -1   6  20  441.71   10.85   0
   0   6 -12  347.42   10.01   0
   0   6  -9    0.63    5.15   0
  -3   7  32  260.67    9.90   0
  -2   8  17   -1.68    6.65   0
  -2   9 -11    0.15    7.09   0
  -2   9  -8  174.89    9.03   0
  -2   9  -5    1.77    7.30   0
  -1   7  13   -8.23    6.71   0
   0   3  18  505.71   10.69   0
   0   6   0  834.70   12.94   0
  -4   8  33    3.45    7.18   0
  -2   5  32  612.05   12.34   0
  -2   9 -14  111.34    7.83   0
  -2   9   1    4.86    6.82   0
   0   4  17   -0.06    4.78   0
   0   5  13    6.25    5.27   0
   0   6 -15    3.91    5.78   0
   0   6   3   -4.40    6.46   0
   1   3  -8 2671.54   23.23   0
  -3   8  28  132.93    8.51   0
  -2   4  33    2.25    4.94   0
  -2   9   4  152.63    8.94   0
   1   3  -2  830.41   13.14   0
  -2   9 -17    0.14    6.43   0
  -1   8  -6  152.84    8.70   0
  -1   8  -3  -10.69    7.17   0
   0   6 -18  322.96    9.58   0
   0   6   6  358.21   10.08   0
   1   2  -1   11.49    4.78   0
   1   3 -11    5.10    3.98   0
  -4   9  29    5.81    6.62   0
  -3   6  36  252.55    9.62   0
  -2   6  31   -0.33    6.12   0
  -2   7  27    3.12    6.89   0
  -2   8  20  172.91    8.65   0
  -2   9   7    5.49    6.93   0
  -1   4  28  650.18   12.14   0
  -1   7  16  567.32   11.39   0
  -1   8 -12  138.41    8.41   0
  -1   8  -9    5.10    6.41   0
   1   3   1    5.27    4.34   0
  -1   5  27    3.74    5.82   0
  -1   8   3   -6.23    6.95   0
   0   5  16  634.47   11.32   0
   0   6   9    1.91    6.36   0
   1   3 -14  655.46   12.73   0
  -2   9  10  148.82    8.79   0
  -1   8 -15   -3.54    5.98   0
   0   4  20 1253.70   15.43   0
   1   2   2  665.26   12.15   0
   1   3   4 1277.06   15.37   0
   1   4  -9    0.95    5.15   0
  -1   7  19    0.99    7.42   0
  -1   8   6   75.35    8.38   0
   0   2  19   -2.06    4.63   0
   1   4   0 1339.36   15.50   0
  -3   7  35    3.80    6.32   0
  -3   8  31    2.57    7.20   0
  -3   9  24  139.65    8.65   0
  -1   8 -18  100.77    7.67   0
   0   6  12  309.89    9.94   0
   1   4 -12  901.04   14.00   0
   1   4   3   -4.14    5.56   0
  -2   9  13    6.43    7.31   0
  -1   3  29   -1.68    4.87   0
  -1   8   9    4.27    7.54   0
   0   5  19    0.90    5.87   0
   1   2   5   -0.32    4.13   0
   1   3 -17   -0.11    4.36   0
   1   3   7   -1.37    4.51   0
  -2   5  35   -2.02    5.58   0
  -2   7  30  147.03    8.56   0
  -1   6  26  213.54    8.07   0
   1   4 -15    3.08    4.93   0
  -1   8  12  180.60    8.96   0
   0   6  15    4.08    6.45   0
   0   7 -10  199.56    8.84   0
   0   7  -7   -0.56    6.50   0
   0   7  -4  145.11    7.52   0
   1   4   6  337.35    8.77   0
  -2   6  34  147.88    8.20   0
  -2   9  16  145.83    8.65   0
  -1   5  30  153.87    8.02   0
  -1   7  22  136.19    7.83   0
   0   7   2  190.00    8.19   0
   1   3  10 1110.24   14.49   0
  -3   9  27   -2.02    7.13   0
  -2   8  26  147.65    9.00   0
  -1   4  31    3.62    5.41   0
   0   7 -13    0.82    6.32   0
   0   7   5    1.52    6.91   0
   1   2   8 3310.24   25.13   0
   1   4   9    7.42    5.70   0
   1   5  -4  697.59   12.43   0
  -1   8  15    3.50    7.06   0
   0   5  22  212.38    8.64   0
   1   4 -18  347.61    9.80   0
   1   5 -10  447.35   10.61   0
   1   5   2  331.52    9.32   0
  -3   8  34   89.50    7.93   0
  -2   9  19    1.39    7.06   0
  -1   6  29   -1.65    6.78   0
   0   3  24 1431.82   16.47   0
   0   6  18  246.72    8.61   0
   0   7 -16  440.39   11.02   0
   0   7   8  579.42   12.27   0
   1   3 -20  771.16   14.68   0
  -2   7  33    1.41    7.00   0
   0   2  22 1763.56   19.57   0
   1   3  13    5.70    5.23   0
   1   4  12 1094.24   14.25   0
   1   5 -13    2.15    5.61   0
   1   5   5   -0.78    5.34   0
  -1   8  18  172.94    9.01   0
   0   7  11    2.34    7.12   0
   1   2  11    1.75    4.94   0
  -2   8  29   -0.20    6.97   0
  -1   9  -4  133.88    8.59   0
  -1   9  -1    5.77    7.08   0
   0   4  26  702.67   12.22   0
   1   5 -16  585.00   11.92   0
   1   5   8  752.42   12.24   0
  -2   9  22   37.03    7.20   0
  -1   9  -7    1.32    6.88   0
   0   6  21   -1.36    6.91   0
  -2   6  37   -5.16    6.34   0
  -1   3  32 1078.92   15.77   0
  -1   5  33    0.60    6.00   0
  -1   9 -10   69.69    7.38   0
  -1   9   5   -6.41    6.81   0
   0   7  14  112.11    7.61   0
   1   4  15   -1.51    5.17   0
   1   5  11   -0.49    6.49   0
  -1   7  28  117.23    8.45   0
  -1   8  21    4.95    7.29   0
  -1   9 -13    0.33    5.62   0
   1   3  16 2010.11   18.57   0
  -3   8  37   -5.70    6.39   0
  -1   4  34  479.75   10.94   0
  -1   6  32  314.65   10.07   0
  -1   9   8  115.11    8.38   0
   1   2  14 1674.51   18.04   0
   1   5 -19    1.87    5.14   0
   1   6  -8  598.76   12.02   0
   1   6  -5    4.13    6.45   0
   1   6  -2  291.55    8.86   0
  -2   7  36  133.33    8.71   0
   0   3  27    1.88    4.15   0
   0   6  24  506.66   11.57   0
   0   7  17    2.09    6.08   0
   0   8  -2   93.29    8.23   0
   1   5  14  350.81    9.29   0
   1   6   4  230.05    9.12   0
  -2   8  32  144.02    9.07   0
  -1   9  11   -9.99    6.27   0
   0   8  -8  196.97    8.94   0
   0   8  -5    7.25    7.08   0
   0   8   1   12.26    7.05   0
   1   4  18  700.57   11.58   0
   1   6 -11   -1.06    6.28   0
   1   6   7   -7.81    6.88   0
  -1   8  24  179.48    9.10   0
   0   4  29    3.14    5.26   0
   0   5  28  561.38   11.57   0
   0   2  25   -0.52    4.52   0
   0   7  20  116.38    8.50   0
   0   8 -11    1.94    6.67   0
   0   8   7  -12.24    7.30   0
   1   3  19    7.34    4.65   0
   1   5  17   -0.63    6.13   0
   1   6 -14  107.64    7.44   0
   1   6  10  203.98    8.73   0
  -1   7  31   -9.23    7.36   0
   0   8 -14   85.69    7.90   0
  -1   5  36  395.38   10.53   0
  -1   6  35    3.08    6.83   0
   0   8  10  138.83    8.14   0
   1   2  17   -1.82    4.19   0
   1   4  21    4.65    5.69   0
   1   6 -17    3.70    5.90   0
   1   6  13    1.06    5.94   0
  -2   8  35    3.87    7.12   0
   0   7  23    0.28    6.46   0
   0   8  13    5.73    6.54   0
   1   5  20  457.57   10.20   0
  -2   7  39   -4.75    6.28   0
   0   3  30  509.30   10.98   0
   0   5  31   -2.99    6.23   0
   1   6  16  575.81   12.12   0
  -1   3  35    1.32    4.77   0
  -1   4  37   -0.29    5.22   0
   0   4  32  425.22   10.47   0
   0   8  16  168.67    8.92   0
   1   7  -6  153.87    8.75   0
   1   7  -3    7.69    7.00   0
   1   7   0  331.44   10.54   0
   2   3  -7    9.04    4.85   0
   2   3   2  775.35   12.08   0
   2   4  -5    1.04    5.58   0
  -1   7  34  130.77    8.87   0
   1   4  24  599.02   11.58   0
   1   7   6   78.12    7.87   0
   2   3   5    4.18    4.82   0
   2   4   4  832.14   12.53   0
  -1   8  30   26.92    7.27   0
   0   7  26  166.67    9.18   0
   1   5  23   -2.91    5.60   0
   1   6  19    2.91    7.02   0
   1   7  -9   -0.21    6.69   0
   2   3 -10  690.14   12.46   0
   2   3   8 2144.49   19.27   0
   2   4  -8  806.96   12.71   0
   2   4   7   -6.74    5.74   0
   0   8  19    6.09    6.94   0
   1   7 -12  132.91    8.21   0
   1   7   9   -5.73    6.61   0
  -1   5  39    0.78    6.12   0
  -1   6  38  110.59    7.83   0
   0   2  28 1055.41   15.59   0
   1   7  12  171.42    9.09   0
   2   2   0 4154.32   27.50   0
   2   4 -11    0.80    5.33   0
   2   4  10  324.90    9.36   0
   0   5  34  231.57    8.95   0
   2   2  -6  794.04   13.19   0
   2   2   3   -3.23    4.25   0
   2   3  11   -4.86    4.95   0
   2   5  -6  141.77    7.83   0
   2   5  -3    0.31    5.22   0
   0   8  22   59.41    7.63   0
   1   5  26  193.62    8.75   0
   1   6  22  144.88    7.84   0
   2   2   6  787.40   12.30   0
   2   3 -13    0.22    4.80   0
   2   4  13   -0.49    6.27   0
   2   5   6  411.78    9.89   0
  -1   7  37   -7.86    6.63   0
  -1   8  33   -4.83    7.19   0
   0   6  33    1.05    7.03   0
   1   7  15   -3.75    6.85   0
   2   4 -14  246.43    8.54   0
   2   5  -9    7.49    5.92   0
   2   5   9   -7.08    6.33   0
   0   3  33    2.83    5.12   0
   0   4  35    4.26    5.58   0
   1   2  23    1.28    4.75   0
   2   2  -9    0.61    4.29   0
   2   2   9    3.03    4.36   0
   2   3  14  365.27    8.96   0
   2   4  16  718.52   12.18   0
   2   5 -12  470.12   10.92   0
   2   5  12  359.07   10.18   0
   0   8  25   -9.17    6.88   0
   1   6  25   -4.60    5.95   0
   2   3 -16 1652.17   19.26   0
   0   7  32  224.69    9.49   0
   1   3  28  631.73   11.34   0
   2   2  12  745.38   11.89   0
   2   3  17    7.71    4.96   0
   2   4 -17   -1.37    5.26   0
   2   5  15   -3.05    6.46   0
   2   6  -1   13.67    7.12   0
   2   6   2  195.62    8.99   0
  -1   6  41   -7.16    6.61   0
   0   5  37   -1.34    6.41   0
   1   4  30  158.98    8.12   0
   1   7  21   -4.17    7.10   0
   1   8  -4  132.63    7.80   0
   1   8  -1    0.34    6.84   0
   1   8   2   76.42    7.11   0
   1   8   5   -1.18    6.63   0
   2   2 -12  740.51   13.48   0
   2   4  19   -4.88    6.42   0
   2   5 -15    4.53    5.62   0
   2   6  -4  216.26    9.07   0
   0   6  36  124.90    8.00   0
   1   8  -7    1.36    5.99   0
   2   6  -7    2.94    6.19   0
   2   6   8  389.37   10.93   0
  -1   7  40  155.44    8.34   0
   0   2  31    2.68    4.35   0
   1   8  11    0.22    6.64   0
   2   2  15   -1.85    5.24   0
   2   5  18  162.69    8.47   0
   2   6  11   10.71    6.86   0
   1   2  26  470.79   10.33   0
   2   3  20  540.84   10.55   0
   2   6 -10  156.98    8.15   0
   1   5  32  333.67   10.02   0
   1   7  24  185.59    8.73   0
   1   8  14   68.43    7.36   0
   2   4  22  323.44    9.66   0
   2   6  14  100.19    8.17   0
   0   7  35   -2.01    6.61   0
   1   3  31   -3.25    5.58   0
   2   3 -19    0.90    4.65   0
   2   5  21   -8.56    6.87   0
   2   6 -13    1.96    6.98   0
   1   4  33   -2.55    6.26   0
   2   2 -15    0.03    4.20   0
   2   2  18 1033.91   13.69   0
   2   6  17   -4.15    7.43   0
   1   7  27   -2.03    7.17   0
   2   1   1    7.87    4.17   0
   2   1   4 3054.62   24.67   0
   2   3  23   -4.03    5.02   0
   0   5  40  173.93    8.45   0
   0   6  39   -0.66    6.99   0
   2   1   7    3.04    4.87   0
   2   4  25   -1.29    6.41   0
   2   7   1   -3.32    6.78   0
   2   7   4  156.40    8.96   0
   2   5  24  407.19    9.94   0
   2   6  20  159.10    8.82   0
   2   7  -2   59.42    7.29   0
   1   1  21    2.66    4.37   0
   1   2  29    1.60    4.76   0
   1   5  35   -9.35    6.50   0
   2   2  21    1.19    5.03   0
   2   7  -5    3.63    6.70   0
   2   7  10  144.75    8.52   0
   3   3   3   -6.68    5.61   0
   0   7  38   21.14    7.36   0
   2   1  10 2036.77   19.69   0
   3   3  -3   -3.73    5.49   0
   3   3   6  412.33    9.51   0
   3   4  -1    2.33    5.23   0
   3   4   5    0.93    5.36   0
   3   4   8  534.06   11.21   0
   1   3  34  463.40   10.70   0
   1   4  36  391.34   10.42   0
   1   6  34  125.95    8.85   0
   2   5  27    1.54    6.82   0
   2   6  23   -4.82    7.06   0
   2   7  13    7.84    6.50   0
   3   3   9    5.49    5.15   0
   3   4  -4  578.18   11.14   0
   0   2  34  249.93    8.88   0
   0   4  41   -3.27    5.60   0
   2   7  16  138.29    8.52   0
   3   3  -6  425.97   10.14   0
   3   4  -7    5.30    5.85   0
   3   4  11   -3.43    5.71   0
   2   1  13    3.17    4.38   0
   3   3  12  685.24   11.57   0
   3   4  14  345.58    9.97   0
   3   5  -2  221.65    9.19   0
   3   5   1  -10.18    6.76   0
   3   5   7   -1.42    6.55   0
   0   3  39    2.65    4.94   0
   0   6  42  114.23    8.06   0
   3   2   1   -1.78    5.12   0
   3   2   4  687.06   11.78   0
   3   3  -9    3.21    5.18   0
   3   5  10  166.12    8.38   0
   0   5  43   -2.08    5.76   0
   1   5  38  106.31    7.95   0
   1   7  33   -7.43    6.54   0
   2   6  26  164.92    8.31   0
   2   7  19   -1.09    6.55   0
   3   2   7   -1.44    4.76   0
   3   3  15   -3.55    5.18   0
   3   4 -10  332.53    9.65   0
   3   5  -5   -3.90    5.82   0
   1   1  24 1664.94   18.94   0
   1   6  37    0.85    6.71   0
   2   1  16 2049.62   19.63   0
   3   2  10  727.64   12.19   0
   3   4  17    3.62    5.81   0
   3   5  -8  390.72   10.52   0
   3   5  13    1.20    6.06   0
   1   2  32 1086.12   15.09   0
   2   7  22   38.06    7.30   0
   3   2  -5    4.50    5.03   0
   3   3  18  403.74   10.01   0
   3   5  16  372.93   10.65   0
   1   4  39    6.73    6.17   0
   2   6  29   -2.97    7.16   0
   3   2  13   -2.91    4.83   0
   3   3 -12  692.04   12.54   0
   3   4 -13    3.80    5.39   0
   3   4  20  384.35   10.05   0
   1   3  37    0.32    5.54   0
   2   2  27   -0.40    5.02   0
   3   5 -11    1.70    5.87   0
   3   6   0  264.63    9.24   0
   3   6   3    5.23    7.08   0
   3   6   6   49.68    7.30   0
   2   1  19    2.66    4.55   0
   2   5  33    2.01    6.95   0
   3   2  -8 2160.16   20.46   0
   3   2  16 1757.85   17.44   0
   3   3  21    4.07    6.24   0
   3   5  19    0.37    6.09   0
   3   6  -3    0.44    6.23   0
   2   3  32  611.58   11.32   0
   2   4  34  134.47    8.24   0
   3   4  23    0.94    6.81   0
   3   6  12  151.92    8.26   0
   1   5  41    2.42    6.14   0
   1   6  40  164.15    8.34   0
   3   5  22   94.59    8.07   0
   3   6  15   -1.17    6.73   0
   3   2  19   -8.42    5.84   0
   3   3 -15   -1.00    4.92   0
   3   3  24  568.61   11.46   0
   1   1  27    1.04    4.46   0
   3   2 -11   -0.89    4.67   0
   3   4  26  150.77    8.39   0
   3   6  -9   -0.19    5.88   0
   3   6  18  166.99    8.56   0
   1   2  35   -1.96    4.82   0
   2   2  30  180.77    7.71   0
   2   5  36  135.41    8.35   0
   3   5  25    2.48    6.95   0
   1   4  42  167.69    8.18   0
   3   1   5   -0.60    5.10   0
   3   2  22  266.76    8.66   0
   3   6  21   -1.90    6.96   0
   2   3  35    5.30    5.07   0
   2   4  37    9.92    6.32   0
   2   6  35    3.86    6.58   0
   3   1   2  837.17   12.65   0
   3   1   8 2655.41   21.25   0
   3   3  27   -1.92    6.11   0
   3   1  11    7.17    4.56   0
   3   4  29   -4.78    6.59   0
   1   5  44  127.60    8.13   0
   1   6  43   -2.29    6.00   0
   3   2 -14  351.44    9.92   0
   3   5  28  129.85    7.58   0
   3   6  24  127.48    8.23   0
   4   3   7    1.69    6.34   0
   4   4   3    3.03    6.75   0
   2   1  25    1.45    4.73   0
   3   1  -4 1232.01   15.70   0
   3   1  14  658.11   11.14   0
   3   2  25   -4.43    5.47   0
   4   3   1    3.21    5.25   0
   4   3  10  346.32    9.78   0
   4   4   9   -6.77    5.73   0
   2   2  33   -6.29    5.36   0
   2   5  39   -1.54    6.25   0
   4   3  -2  213.63    8.34   0
   4   3  13    7.22    6.65   0
   4   4  -3    1.02    6.40   0
   4   4  12  225.78    8.39   0
   1   1  30  546.98   11.48   0
   3   1  17    3.87    5.28   0
   3   6  27    4.57    6.58   0
   4   4  15    4.02    7.16   0
   2   3  38   78.67    6.95   0
   2   4  40  201.03    8.53   0
   3   5  31    2.83    6.31   0
   4   2   5   -1.90    5.62   0
   4   2   8  810.96   12.70   0
   4   3  -5   -1.27    5.77   0
   4   3  16  383.32    9.66   0
   4   4  -6  169.24    8.27   0
   4   5   2  145.65    8.10   0
   4   5   5   -1.97    6.57   0
   4   5  11    4.00    6.70   0
   1   2  38  274.75    8.89   0
   3   1  -7    3.06    4.50   0
   4   2  11   -1.65    6.00   0
   4   5  -1    5.04    6.58   0
   4   5  14   71.43    7.84   0
   3   1  20  886.04   12.95   0
   4   2  -1   -0.80    5.51   0
   4   2  14  258.97    8.68   0
   4   3  -8  473.32   10.80   0
   4   3  19   -0.79    5.69   0
   4   5  -4  104.64    7.97   0
   4   4  21    0.56    6.06   0
  -4   9 -10  114.61    8.48   0
  -3   7   5   -0.65    6.61   0
  -2   6   4  838.12   13.03   0
  -1   6 -10  438.42   10.37   0
   0   4  -7   -1.70    4.53   0
  -3   6  12  686.69   12.58   0
  -3   8  -5   -9.78    7.32   0
  -2   7  -6  144.13    7.46   0
  -5   8  11   -2.65    6.83   0
  -4   6  17   -1.90    5.91   0
  -4   9  -7    1.04    7.36   0
  -3   5  16 1640.85   18.22   0
   0   3   0 2570.69   22.04   0
   0   5 -29    0.92    5.42   0
   0   5 -26  193.27    8.24   0
   0   5 -23   -1.23    5.64   0
   0   5 -20  635.76   11.98   0
  -4   7  13   12.86    6.52   0
  -1   4   7    3.46    4.57   0
  -2   7  -3    2.89    6.39   0
  -1   6  -7   -2.76    5.29   0
   0   4  -4 1537.70   16.88   0
   0   5 -17    1.32    4.79   0
  -6   9   9    3.66    6.52   0
  -6  10  -1    6.38    6.58   0
  -4   9  -4  108.41    8.61   0
  -3   8  -2  212.66    9.52   0
  -1   5   3   -1.99    5.80   0
  -2   6   7    4.01    5.94   0
   0   5 -14  578.09   10.89   0
   1   3 -26  557.09   12.27   0
   1   3 -23    4.04    4.54   0
  -5   7  18  343.52   10.47   0
  -2   4  15   -0.82    5.06   0
  -1   6  -4  705.87   12.23   0
  -4   5  21   -1.74    5.32   0
  -2   7   0  557.75   11.48   0
  -2   8 -28  138.48    7.84   0
  -2   8 -25    0.18    6.83   0
  -2   8 -22   85.52    7.99   0
  -2   8 -19    4.34    7.13   0
   1   3 -17    1.94    4.49   0
  -6  10   2   55.32    7.40   0
  -5   8  14  123.48    8.12   0
  -5  10  -6   67.46    7.49   0
  -4   8   9   -6.51    7.36   0
  -4   9  -1   -5.96    6.57   0
  -3   8   1    4.02    6.04   0
  -3   9 -27   -2.21    6.20   0
  -3   9 -24  156.69    8.70   0
  -2   8 -31   -6.86    6.24   0
  -1   3  11    2.63    4.01   0
  -5   9   7    2.34    6.80   0
  -3   6  15   -1.49    5.21   0
  -1   7 -26  202.07    8.84   0
  -1   7 -23   -3.70    6.69   0
   0   3   3    4.64    4.84   0
   0   4  -1   -1.03    4.58   0
  -6   9  12  114.21    8.23   0
  -4   7  16  387.11   10.75   0
  -3   4  20  849.28   14.64   0
  -3   9 -15    3.36    6.44   0
  -2   8 -34   83.20    6.98   0
  -2   8 -13    7.00    7.12   0
  -1   6  -1    4.08    6.07   0
  -1   7 -29   -9.97    6.34   0
  -1   7 -20  211.28    8.29   0
   0   5  -8  891.78   13.31   0
   1   3 -14  675.95   12.40   0
  -5  10  -3    2.09    6.84   0
  -4   6  20  587.47   12.86   0
  -3   9 -12  112.32    8.23   0
  -1   4  10 1097.72   14.38   0
  -1   7 -32  205.33    9.45   0
  -1   7 -17    1.51    5.72   0
  -4   9   2  130.76    8.02   0
  -3   5  19    4.42    5.21   0
  -3   8   4  236.47    9.59   0
  -2   7   3   -8.28    5.85   0
  -2   8 -10  158.71    8.91   0
  -3   9  -9   10.60    6.91   0
  -5   9  10  123.17    8.22   0
  -4   8  12  229.56    9.67   0
  -2   8  -7   -8.24    7.06   0
  -1   7 -11    4.75    6.57   0
   0   5  -5   -1.27    5.04   0
   1   3 -11    6.36    4.06   0
  -1   6   2  316.57    8.92   0
   0   4   2 1384.44   15.70   0
  -5   8  17   -4.73    6.90   0
  -3   9  -6  146.84    8.48   0
  -2   7   6  399.46   10.60   0
  -1   7  -8  557.52   11.63   0
   0   6 -24  418.46   10.69   0
   0   6 -21    1.69    6.06   0
  -6   9  15    4.29    6.47   0
  -3   6  18  405.53   10.57   0
  -3   8   7   -8.75    7.21   0
  -2   8  -4  204.10    9.13   0
  -1   5   9    0.37    5.94   0
   0   6 -27   -3.91    5.92   0
   0   6 -18  325.83    9.82   0
   1   4 -24  839.17   14.15   0
   1   4 -21   -0.74    5.40   0
  -5  10   3   -5.49    6.67   0
  -3   7  14  335.00    9.43   0
  -2   4  18 1001.66   14.78   0
   0   3   6 2007.44   19.37   0
   0   5  -2  295.63    8.62   0
   0   6 -30   87.89    7.24   0
   0   6 -15    4.39    5.96   0
   1   4 -27    0.95    4.86   0
   1   4 -18  348.14    9.64   0
  -4   7  19   -2.12    6.62   0
  -3   9  -3   -7.84    6.59   0
  -1   7  -5    1.57    6.81   0
   1   4 -15    1.65    5.29   0
  -5   9  13    6.00    6.68   0
  -4   8  15    4.74    7.10   0
  -2   8  -1    4.78    7.09   0
  -1   4  13    5.31    5.11   0
  -1   6   5    2.10    5.45   0
   0   6 -12  368.07   10.03   0
  -4   9   8  310.28    9.96   0
  -2   5  17   -3.86    4.61   0
   0   4   5    2.06    5.14   0
  -3   9   0  274.67   10.05   0
  -2   7   9   -4.04    5.92   0
  -1   7  -2  322.49    9.63   0
   1   4 -12  901.76   13.21   0
  -5  10   6   62.49    7.11   0
  -4   6  23    2.26    5.49   0
  -4  10  -2   73.80    7.51   0
   0   5   1   -2.64    5.24   0
  -5   8  20  182.43    8.80   0
  -3   5  22  255.86    8.82   0
  -2   8   2  207.05    9.19   0
  -2   9 -23    3.53    6.74   0
  -2   9 -20   99.96    8.35   0
  -1   5  12 1103.98   14.54   0
   1   4  -9    2.91    5.31   0
  -3   7  17   -1.39    6.74   0
  -3   9   3    5.86    7.50   0
  -2   9 -17   -2.46    6.74   0
  -1   6   8  763.44   12.96   0
   0   6  -6  218.24    8.07   0
  -5   9  16  287.70   10.97   0
  -4   9  11    8.28    7.33   0
  -4  10   1   -2.73    6.70   0
  -3   4  23    1.56    4.83   0
  -2   6  16  688.73   12.51   0
  -1   7   1   -4.68    5.99   0
  -1   8 -24  199.65    8.79   0
  -1   8 -21   -3.64    6.40   0
  -1   8 -18  108.56    7.86   0
  -4   8  18  168.94    9.19   0
  -3   6  21    3.03    6.13   0
  -2   7  12  371.23   10.50   0
  -2   9 -11    1.51    6.66   0
  -1   8 -27   -4.13    5.97   0
  -1   8 -15   -4.54    6.69   0
   0   3   9   -2.36    4.92   0
  -4   7  22  143.17    8.27   0
  -3   8  13   -5.02    5.99   0
  -2   8   5    2.94    7.06   0
   0   4   8 1525.36   16.65   0
   0   5   4 1095.88   14.03   0
   0   6  -3   -7.44    6.55   0
   1   3  -2  825.44   12.63   0
  -3   9   6   58.01    8.16   0
  -2   9  -8  195.31    9.06   0
   1   2  -1    6.33    4.06   0
   1   5 -25    0.68    6.11   0
   1   5 -22  191.92    8.13   0
   1   5 -19    3.88    5.68   0
  -2   5  20  578.02   11.61   0
  -1   7   4  242.83    8.58   0
  -1   8  -9   -3.66    6.77   0
   1   5 -16  567.01   11.71   0
  -4   9  14   67.31    7.96   0
  -2   4  21   -0.18    4.83   0
  -2   9  -5   -0.58    7.20   0
  -1   6  11    6.94    5.66   0
   0   7 -22   80.70    7.49   0
   0   7 -19    4.97    6.62   0
   1   5 -13   -5.40    5.58   0
  -3   7  20  384.92   10.86   0
   0   6   0  826.30   12.84   0
   0   7 -25    7.58    6.32   0
   0   7 -16  449.31   11.22   0
   1   4  -3   -0.84    4.76   0
   0   5   7    2.70    5.20   0
   0   7 -13   -0.00    6.95   0
   1   5 -10  427.70   10.39   0
  -5   9  19    4.30    7.14   0
  -3   8  16  358.50   10.91   0
  -2   6  19    2.87    6.04   0
  -2   9  -2   56.84    7.53   0
  -1   3  17    5.35    3.76   0
  -1   7   7    0.22    6.47   0
   1   3   1    0.29    4.34   0
  -4   8  21    4.99    6.52   0
  -1   8  -3   -2.14    6.00   0
   0   4  11    2.00    5.37   0
   0   6   3   11.12    6.63   0
   1   4   0 1346.18   15.65   0
  -4   7  25    5.93    6.80   0
  -3   6  24  541.01   11.91   0
  -2   8  11   -3.17    7.19   0
  -2   9   1   -0.43    6.95   0
  -1   6  14  349.45   10.04   0
   0   3  12 1947.56   18.95   0
   1   2   2  672.19   12.09   0
  -4   9  17   -1.42    7.42   0
  -1   8   0  331.23    9.63   0
  -1   7  10  201.74    9.11   0
   0   5  10  665.43   11.45   0
   0   7  -4  140.18    8.62   0
  -3   8  19    8.71    7.24   0
  -2   7  18  162.52    8.36   0
  -2   9   4  167.82    9.06   0
  -1   4  19    3.27    5.11   0
   0   6   6  349.61    9.38   0
   1   3   4 1270.44   15.17   0
  -3   7  23    4.70    6.37   0
  -2   3  22  430.62   11.33   0
  -2   5  23   -0.15    4.53   0
  -1   8   3   -9.38    7.17   0
   1   4   3   -2.70    4.84   0
   1   6 -23   -6.10    6.62   0
   1   6 -17   -3.07    6.09   0
  -2   6  22  339.44    9.96   0
   0   7  -1   -0.58    5.99   0
   1   5  -1    3.88    5.25   0
   1   6 -14  122.74    7.82   0
  -4   8  24  271.70   10.15   0
  -1   9 -13   -2.00    6.95   0
   0   4  14  293.80    8.83   0
   1   6 -11    6.18    6.38   0
   2   3 -19    0.37    5.24   0
  -4   9  20   97.58    7.95   0
  -3   9  15    6.31    7.01   0
  -2   4  24 1726.51   19.48   0
  -2   9   7   -1.67    7.04   0
  -1   7  13    1.03    6.88   0
   2   2 -21    0.90    4.40   0
   2   2 -18  954.16   15.92   0
   2   3 -22  249.47    9.00   0
   2   3 -16 1755.53   19.38   0
  -1   8   6   95.10    7.18   0
   0   5  13    3.06    5.16   0
   0   6   9   -4.92    5.70   0
   0   7   2  204.95    8.37   0
   1   2   5    1.46    4.87   0
   2   2 -15    2.07    4.28   0
   2   3 -13    1.36    5.04   0
   0   3  15   -2.25    4.89   0
   0   8 -20  125.90    8.11   0
   0   8 -17   -3.51    6.38   0
   1   3   7    0.40    5.26   0
   1   4   6  339.04    8.66   0
  -3   6  27    2.51    5.75   0
  -3   8  22  108.31    8.64   0
  -2   7  21    3.07    6.49   0
   0   8 -23   -3.30    5.80   0
   0   8 -14   93.65    8.22   0
   2   2 -12  754.70   13.48   0
   2   3 -10  716.18   12.43   0
  -2   9  10  147.24    8.71   0
  -1   5  21   -0.30    5.44   0
  -1   9  -4  145.42    8.31   0
   0   7   5    2.24    7.19   0
   0   8 -11    1.11    6.52   0
   2   4 -20  600.95   12.41   0
   2   4 -17    1.41    5.40   0
  -3   7  26  147.88    8.94   0
  -1   8   9   -9.33    6.53   0
   0   8  -8  195.51    8.97   0
   1   6  -2  323.62    9.87   0
   2   2  -9   -2.36    4.31   0
   2   4 -14  257.98    8.78   0
  -3   9  18  160.21    8.80   0
  -1   7  16  575.36   11.54   0
  -1   9  -1    7.41    7.21   0
   1   5   5   -3.33    5.36   0
   2   3  -7    3.89    4.25   0
   2   4 -11    1.60    5.41   0
  -4   9  23   -8.21    7.61   0
  -2   5  26  577.73   11.79   0
  -2   6  25    0.35    6.09   0
   0   4  17   -6.42    4.71   0
   0   5  16  630.14   11.58   0
   0   7   8  530.86   12.01   0
   1   4   9    1.85    4.95   0
   1   6   1   -6.87    6.74   0
   2   4  -8  803.70   12.99   0
  -2   9  13   -8.81    7.04   0
  -1   9   2   81.28    7.85   0
   0   8  -2   76.32    7.88   0
   1   3  10 1107.71   14.48   0
   2   2  -6  796.03   13.25   0
  -2   7  24  389.19   11.00   0
  -2   8  20  173.69    9.11   0
   1   2   8 3324.20   25.13   0
   1   5   8  744.02   12.56   0
   1   7 -21    3.67    6.47   0
   1   7 -18  105.19    8.02   0
   1   7 -15   -2.85    6.65   0
   2   4  -5   -6.28    5.56   0
  -3   8  25   -3.57    6.87   0
   0   6  15    2.17    6.91   0
   1   7  -9   -1.45    6.99   0
  -3   9  21    5.94    6.84   0
  -1   9   5    5.65    6.89   0
   0   8   1   -1.28    6.57   0
   1   6   4  232.90    8.69   0
   2   5 -18  331.39    9.78   0
  -1   5  24  589.22   11.68   0
   0   7  11    0.53    6.20   0
   1   4  12 1122.13   14.54   0
   1   7  -6  152.18    8.37   0
   2   5 -21    0.40    5.57   0
   2   5 -12  447.65   10.40   0
  -2   4  27   -0.35    4.60   0
  -1   6  23    5.48    5.43   0
  -1   8  15   -3.04    7.51   0
   0   5  19    1.79    6.10   0
   0   8   4  174.93    9.17   0
   2   5  -9    2.59    6.16   0
  -3   7  29   -0.22    6.38   0
   1   5  11    5.84    5.43   0
   1   6   7    4.79    6.97   0
   2   5  -6  147.80    7.98   0
  -2   3  25   -0.20    4.50   0
  -2   6  28  372.57   10.42   0
  -1   3  23   -1.17    4.55   0
   1   3  13    5.36    5.39   0
   2   4   1   -1.18    5.86   0
  -2   8  23    6.96    6.99   0
  -1   4  25   -2.95    5.18   0
   0   6  18  244.22    8.56   0
   0   7  14  121.84    8.43   0
   2   3   2  755.48   11.93   0
  -2   5  29    3.27    5.42   0
  -2   7  27    6.36    6.93   0
  -1   7  22  121.57    8.51   0
   0   8   7    3.58    7.45   0
   1   2  11   -0.52    4.96   0
   2   2   0 4044.95   27.21   0
   2   5  -3    3.78    5.37   0
  -3   8  28  139.47    8.39   0
  -3   9  24  148.92    8.88   0
  -2   9  19    0.86    6.88   0
  -1   8  18  166.64    8.95   0
  -1   9  11    1.10    6.28   0
   1   4  15    0.13    5.20   0
   1   5  14  387.09   10.00   0
   1   6  10  200.02    8.22   0
   1   7   3   -1.14    7.23   0
   2   4   4  839.09   12.85   0
  -1   6  26  208.53    8.83   0
   0   8  10  143.11    8.89   0
   2   3   5    8.32    5.57   0
   2   6 -16  315.92    9.92   0
   2   6 -13    4.67    6.46   0
  -1   5  27    2.06    5.84   0
   2   6 -19    1.70    6.20   0
   2   6 -10  168.08    8.69   0
  -2   8  26  164.30    9.43   0
   0   6  21   -2.40    5.64   0
   1   7   6   90.30    8.05   0
   1   8 -13   -3.10    6.64   0
   2   2   3    2.00    4.18   0
   2   5   3   -3.87    6.22   0
   2   6  -7  -10.53    6.93   0
   1   3  16 2008.67   18.57   0
   1   6  13   -4.04    6.98   0
   1   8 -10   70.53    7.63   0
   2   4   7    0.34    5.72   0
   2   6  -4  206.66    9.22   0
  -2   9  22   35.86    7.30   0
  -1   7  25   -3.03    5.86   0
   0   8  13   -8.75    7.44   0
   1   8  -7    1.93    7.04   0
  -3   9  27    1.85    6.41   0
  -2   6  31    1.39    5.86   0
   1   4  18  690.43   11.54   0
   1   5  17    2.53    5.58   0
   1   7   9    0.40    7.52   0
   1   8  -4  143.36    8.12   0
   2   3   8 2075.49   18.65   0
   2   5   6  403.17   10.46   0
   2   6  -1   -5.14    7.16   0
  -2   7  30  151.72    8.85   0
   0   7  20  124.98    8.87   0
   1   2  14 1642.06   17.58   0
  -2   4  30  179.68    8.17   0
  -1   4  28  642.06   12.13   0
   0   2  19    2.77    4.30   0
   0   5  25   -0.85    6.10   0
   2   2   6  797.56   12.38   0
  -1   6  29    2.14    6.44   0
   1   6  16  547.20   11.25   0
   2   4  10  315.55    8.66   0
  -2   5  32  597.66   12.35   0
  -1   3  26  473.03   10.86   0
  -1   8  24  178.58    9.30   0
   0   8  16  159.49    9.05   0
   1   7  12  174.03    9.07   0
   2   5   9    2.65    6.38   0
  -2   8  29   -3.46    7.34   0
  -1   5  30  144.23    7.80   0
   1   3  19    2.60    5.42   0
   1   5  20  465.34   10.75   0
   2   3  11    2.03    4.85   0
   3   3 -15   -0.89    5.19   0
   3   3 -12  719.91   12.73   0
   3   3  -9    2.81    5.21   0
  -1   7  28  119.36    8.08   0
   0   3  24 1499.23   17.18   0
   0   4  26  673.21   12.14   0
   2   6   5   -1.78    5.97   0
   2   7 -14   97.75    7.26   0
   2   7 -11   -3.04    6.32   0
   3   4 -16  378.04   10.62   0
   3   4 -13    3.02    5.63   0
   3   4 -10  349.66    9.73   0
   1   4  21    4.50    5.23   0
   1   8   5   -3.32    6.27   0
   2   4  13    2.56    5.90   0
   2   7  -8  189.14    9.00   0
   3   3  -6  416.52    9.62   0
   3   4  -7    1.78    5.90   0
   0   8  19   -8.06    7.28   0
   1   6  19    1.30    6.10   0
   1   7  15   -2.98    7.21   0
   2   2   9   -2.67    4.40   0
   2   5  12  374.80   10.07   0
   2   7  -5   -6.46    7.24   0
   3   3  -3    4.72    5.44   0
   3   4  -4  603.28   11.96   0
  -2   7  33    3.04    6.63   0
   1   2  17    2.60    5.00   0
   1   8   8  113.05    8.49   0
   2   6   8  397.87   10.04   0
   2   7  -2   67.28    7.40   0
   3   2 -11   -2.37    5.35   0
  -2   6  34  139.29    7.88   0
   2   3  14  371.94    9.60   0
   3   2 -14  349.82    9.71   0
   3   2  -8 2191.84   21.00   0
   3   4  -1    2.45    6.24   0
  -1   8  27   -5.10    7.63   0
   1   5  23    4.13    6.75   0
   2   7   1  -11.42    6.85   0
   3   2 -17   -0.14    4.76   0
   3   3   0 1052.85   13.90   0
   3   5 -14  118.50    7.58   0
   3   5 -11    3.66    6.37   0
  -1   6  32  333.55   10.23   0
   2   4  16  697.31   12.06   0
   2   5  15   11.06    6.80   0
   2   6  11   -0.57    7.00   0
   3   2  -5    2.16    4.15   0
   3   5  -5   -2.13    6.38   0
  -1   4  31   -0.75    5.21   0
  -1   7  31    1.82    6.72   0
   0   8  22   48.29    7.89   0
   1   3  22  342.03    8.79   0
   1   4  24  610.25   11.64   0
   1   7  18  171.97    8.68   0
   1   8  11   -8.84    6.41   0
   2   1   4 3071.62   25.09   0
   0   2  22 1738.59   19.22   0
   2   2  12  728.69   11.81   0
   3   2  -2  773.14   12.33   0
   3   5  -2  206.02    8.20   0
  -1   5  33   -3.70    5.69   0
   0   4  29    2.08    5.77   0
   3   5   1   -4.89    7.04   0
   0   3  27   -2.34    4.96   0
   1   8  14   57.82    7.57   0
   2   3  17    0.56    5.76   0
   2   6  14   93.12    7.57   0
   2   7   7    1.77    6.58   0
  -1   3  29    2.04    4.72   0
  -1   8  30   32.60    7.87   0
   0   6  30  115.35    8.34   0
   1   7  21    5.21    7.15   0
   2   4  19    1.90    6.35   0
   2   5  18  151.01    8.42   0
   3   3   6  433.10    9.66   0
   0   5  31   -4.57    6.34   0
   1   2  20 1413.00   16.48   0
   1   6  25    2.82    7.18   0
   3   4   8  516.85   11.07   0
   3   6  -9   -3.59    7.39   0
   0   7  29    5.56    7.09   0
   2   1   7   -2.20    4.08   0
   2   7  10  151.13    8.26   0
   3   6 -12  106.67    7.92   0
   3   6  -6  138.69    8.09   0
  -1   6  35    5.72    7.29   0
   2   2  15    0.86    4.59   0
   2   6  17   -0.89    7.55   0
   3   2   4  651.40   11.22   0
   3   6  -3    2.12    6.81   0
  -1   7  34  141.92    8.86   0
   3   6   0  249.35    9.38   0
   1   7  24  179.70    9.01   0
   2   3  20  560.82   10.57   0
   2   5  21   -4.76    6.99   0
   3   4  11   -2.01    5.49   0
   2   4  22  341.16    9.15   0
   3   2   7    6.19    5.46   0
   3   5  10  178.16    8.67   0
   3   6   3   -0.98    6.76   0
  -1   8  33    6.18    7.09   0
   0   4  32  429.00   10.57   0
   0   6  33    1.26    6.48   0
   2   6  20  168.17    8.95   0
   3   3  12  703.41   12.05   0
  -1   5  36  405.03   10.69   0
   1   1  15    0.36    3.90   0
   2   1  10 2020.97   19.56   0
   2   7  16  123.87    8.51   0
   3   1 -10 1073.47   16.25   0
   3   1  -7    2.20    4.40   0
   0   2  25    1.39    3.82   0
   0   3  30  515.37   11.06   0
   0   5  34  233.63    9.13   0
   0   7  32  214.54    9.36   0
   2   2  18 1039.74   13.68   0
   3   1 -13   -0.07    4.35   0
   3   1  -4 1249.98   16.15   0
   3   4  14  323.36    9.08   0
   3   5  13   -0.35    7.23   0
   2   5  24  377.39   10.56   0
   3   2  10  714.17   12.03   0
   1   4  30  153.07    7.24   0
   2   3  23   -4.73    5.95   0
   3   1  -1    3.16    4.05   0
   3   3  15    2.81    5.85   0
  -1   7  37    1.79    6.35   0
   1   3  28  632.98   11.38   0
   2   4  25    1.83    5.58   0
   2   6  23   -3.95    7.59   0
   2   7  19    6.64    7.14   0
  -1   3  32 1083.22   16.09   0
  -1   6  38  102.11    7.84   0
   3   4  17   11.63    5.71   0
   3   5  16  358.41   10.42   0
   3   6  12  139.78    8.79   0
   4   3 -11    1.22    5.44   0
   4   3  -8  503.10   11.10   0
   4   3  -5   -4.23    5.72   0
   4   4  -9    0.63    5.94   0
   1   5  32  343.50   10.49   0
   1   6  31    4.72    6.53   0
   2   1  13    5.59    4.33   0
   3   2  13   -1.65    5.30   0
   4   3  -2  216.95    8.53   0
   4   4  -3    3.19    5.60   0
   0   6  36  113.03    8.25   0
   2   2  21    0.01    5.25   0
   2   5  27    1.27    7.28   0
   4   3   1   -2.13    5.80   0
   4   4   0  470.01   10.61   0
   0   4  35    0.96    5.81   0
   0   7  35   -2.01    6.67   0
   3   1   5    2.17    4.97   0
   3   3  18  379.74    9.36   0
   4   4   3    2.05    6.50   0
   2   3  26  584.97   11.29   0
   2   6  26  161.75    8.93   0
   2   7  22   37.67    6.85   0
   3   4  20  387.61    9.85   0
   3   5  19    3.54    7.35   0
   3   6  15    2.71    6.58   0
   4   3   4  598.69   11.76   0
   4   5  -7    3.03    5.98   0
   4   5  -4  112.97    7.62   0
   0   5  37    0.46    6.35   0
   1   2  26  473.57   10.35   0
   1   4  33    1.23    6.26   0
   2   4  28  381.41    9.57   0
   4   2 -10  310.10    9.24   0
   4   2  -7   -2.19    5.13   0
   4   2  -4  846.64   13.34   0
   4   4   6  167.79    8.50   0
   4   5  -1    2.61    6.59   0
  -1   4  37   -0.51    5.17   0
   3   2  16 1693.49   16.89   0
   4   2  -1    0.91    4.57   0
   4   5   2  136.95    8.03   0
   0   2  28 1027.76   15.18   0
   0   3  33   -1.24    4.59   0
   1   3  31    5.43    4.83   0
   1   6  34  135.98    8.41   0
   2   1  16 2070.04   19.54   0
   3   1   8 2652.04   21.44   0
   3   3  21    2.20    6.43   0
   3   6  18  166.71    8.92   0
   4   2 -13    2.84    5.07   0
   4   2   2  582.43   11.31   0
   1   5  35    7.50    6.51   0
   2   5  30  147.88    8.39   0
   3   4  23    4.18    6.70   0
   4   5   5   -4.36    6.49   0
   1   7  33   -2.70    7.27   0
   2   2  24 1807.26   17.58   0
   2   6  29   -9.01    6.79   0
   4   3  10  352.77    9.24   0
   4   5   8  312.42   10.05   0
   0   6  39    7.93    6.41   0
   0   7  38   24.41    7.34   0
   4   4  12  214.87    9.01   0
   3   2  19    0.99    5.18   0
   3   6  21    2.13    7.08   0
   3   3  24  558.82   11.43   0
   4   3  13   -0.45    5.60   0
   4   6   1    1.15    6.14   0
   0   4  38  114.02    7.35   0
   1   4  36  407.19   10.51   0
   3   4  26  135.75    8.30   0
   3   5  25   -4.74    6.81   0
   4   4  15   -4.97    6.76   0
   1   2  29    0.48    4.34   0
   1   6  37   -3.32    6.84   0
   2   1  19   -1.02    4.32   0
   4   2  11    0.44    5.70   0
   4   5  14   65.14    8.09   0
   1   3  34  471.54   10.71   0
   1   5  38  113.12    8.32   0
   3   1  14  651.62   11.13   0
   3   6  24  143.21    8.34   0
   4   3  16  390.26   10.28   0
   2   2  27    4.10    4.81   0
   3   2  22  261.97    8.27   0
   4   1  -3   -3.19    4.82   0
   4   4  18  175.81    8.90   0
   0   3  36  475.27   10.93   0
   2   4  34  143.98    7.96   0
   3   5  28  142.70    8.82   0
   4   1  -6  347.97    9.48   0
   4   1   0 1370.35   16.33   0
   4   2  14  247.83    8.66   0
   0   2  31   -0.18    4.52   0
   0   6  42  104.58    8.58   0
   3   3  27    1.34    5.62   0
   4   1  -9    4.66    4.79   0
   4   1   3   10.16    5.36   0
   4   5  17    0.81    6.42   0
   4   3  19   -0.35    5.81   0
   2   1  22  454.17   10.07   0
   2   5  36  148.04    8.70   0
   2   6  35   -0.89    7.29   0
   3   1  17   -2.07    4.73   0
   4   1 -12  990.23   15.67   0
   4   4  21    1.19    7.07   0
   1   1  24 1707.23   18.61   0
   1   4  39   -0.22    6.06   0
   1   6  40  181.83    8.67   0
   3   2  25    0.69    5.20   0
   4   2  17   -4.49    5.37   0
   5   3  -4  225.87    9.34   0
   5   3  -1    0.15    6.25   0
   0   4  41   -1.58    5.70   0
   1   2  32 1078.93   14.86   0
   4   1   9    0.47    5.53   0
   4   3  22  153.51    8.39   0
   5   3  -7    0.56    5.90   0
   5   3   2  217.93    8.69   0
   5   4  -5    3.41    6.26   0
   5   4  -2  137.76    7.76   0
   5   4   1   -2.32    6.35   0
   0   5  43    0.16    6.36   0
   1   3  37   -1.39    5.69   0
   1   5  41    2.81    6.26   0
   3   3  30  149.20    8.03   0
   5   4   4  112.10    7.75   0
   2   3  35    7.95    6.11   0
   2   4  37   -0.68    6.86   0
   3   1  20  889.91   12.96   0
   3   4  32  229.77    9.47   0
   4   4  24  314.50   10.28   0
   4   5  23   -0.55    7.36   0
   5   3   8  421.97   10.69   0
   5   4   7    3.20    6.82   0
   3   0   3    1.46    4.55   0
   4   1  12  860.45   12.50   0
   4   2  20  570.80   10.86   0
   5   2  -3    1.14    5.66   0
   5   2   0  543.92   11.26   0
   3   2  28  357.42    9.54   0
   5   2  -6  382.90   10.11   0
   5   2   3   -2.22    5.21   0
   5   4  10  100.62    7.90   0
   5   5   0  144.92    7.80   0
   0   3  39    0.10    5.18   0
   2   0  11   -0.84    4.09   0
   2   1  25    1.92    4.52   0
   2   5  39   -2.59    6.66   0
   3   0   6  529.52   10.98   0
   4   3  25   -6.19    5.98   0
   5   2  -9   -0.76    5.91   0
   5   2   6  132.17    7.71   0
   5   5   3   -0.68    6.62   0
   3   5  34  100.48    7.95   0
   4   1  15    1.14    4.94   0
   5   2   9    4.30    6.29   0
   5   4  13    4.84    6.65   0
   5   5   6   67.12    7.39   0
   0   2  34  245.50    8.47   0
   1   4  42  176.64    8.42   0
   1   6  43   -0.09    6.15   0
   2   2  33    2.08    5.60   0
   3   1  23   -1.39    5.35   0
   3   3  33    0.15    5.68   0
   4   2  23   -4.44    5.43   0
   1   1  27    1.23    4.54   0
   3   0   9    2.13    4.14   0
   1   2  35   -0.31    5.35   0
   1   5  44  133.85    8.45   0
   2   3  38   89.19    7.38   0
   4   1  18  373.04    9.61   0
   4   3  28  319.50   10.00   0
   5   3  17   -3.23    6.69   0
   2   0  14  322.02    8.82   0
   3   2  31    5.18    6.16   0
   3   0  12 2558.55   21.31   0
   4   2  26  360.83    9.98   0
   4   4  30   69.97    7.47   0
   4   5  29   -2.63    6.53   0
   5   2  15    1.31    5.58   0
   5   4  19    5.00    6.79   0
   2   5  42   75.94    7.51   0
   5   1  -2  315.57    9.23   0
   5   1   1    2.90    5.54   0
   5   1   4  714.65   12.19   0
   5   3  20  191.60    8.89   0
   3   1  26  591.88   10.79   0
   3   4  38  101.28    8.28   0
   4   1  21   -3.79    5.71   0
   5   1  -5    1.22    5.11   0
   5   1   7    3.21    5.44   0
   4   0   1   -2.59    4.77   0
   4   3  31    2.51    6.00   0
   5   2  18  331.31    9.22   0
   5   4  22   76.71    7.74   0
   2   0  17    1.06    4.11   0
   3   0  15   -1.04    4.46   0
   4   0  -2 1371.44   16.55   0
   4   4  33    0.23    7.14   0
   5   1  -8  744.13   13.14   0
   5   3  23    6.42    7.26   0
   1   4  45   -0.88    6.47   0
   2   4  43    2.67    6.38   0
   4   0  -5    3.51    4.49   0
   4   0   7    1.78    4.35   0
   4   2  29    0.30    5.71   0
   1   1  30  528.78   10.70   0
   2   3  41    1.04    6.30   0
   3   5  40  106.75    8.27   0
   4   0  10  380.36    9.40   0
   4   1  24  839.12   12.81   0
   5   1  13   -2.35    5.20   0
   5   2  21   -1.50    5.76   0
   0   2  37   -2.71    5.18   0
   1   2  38  276.20    8.90   0
   2   1  31   -1.80    5.19   0
   3   1  29    4.98    5.75   0
   5   4  25    4.66    6.42   0
   1   3  43    4.44    5.63   0
   2   5  45    4.15    6.77   0
   3   0  18 1250.77   14.87   0
   3   3  39    3.82    7.08   0
   4   0  -8 1446.42   18.56   0
   4   3  34  151.33    7.64   0
   5   1  16  604.85   11.66   0
   5   3  26  154.76    8.57   0
   6   3   3   -2.17    6.63   0
   2   0  20 3494.37   25.47   0
   3   4  41   -3.55    6.51   0
   4   0  13    6.86    4.53   0
   4   2  32  322.35    9.89   0
   4   4  36   90.35    7.97   0
   5   2  24  283.87    9.55   0
   6   3   0  242.79    9.27   0
   6   3   6  146.47    8.25   0
   5   4  28   63.51    7.78   0
   6   3   9    3.03    6.90   0
   0   1  29    1.32    4.11   0
   2   2  39   -2.37    5.77   0
   3   2  37    6.39    6.20   0
   4   0  16 1405.42   15.72   0
   4   1  27   -2.57    5.33   0
   5   1  19    2.98    5.42   0
   6   2   1    4.67    6.35   0
   6   2   4  205.01    8.03   0
   6   2   7   -1.54    6.32   0
   6   3  12  123.73    7.72   0
   3   0  21    4.38    4.52   0
   5   3  29    3.84    7.13   0
   6   2  10  165.36    8.29   0
   2   3  44  188.77    8.68   0
   2   4  46   85.96    7.46   0
   4   0 -11   -0.36    4.72   0
   4   3  37   -8.58    6.68   0
   5   2  27    2.17    5.95   0
   6   2  13    2.51    6.81   0
   6   3  15   -2.48    7.03   0
   1   1  33    3.84    4.93   0
   2   1  34  551.90   11.07   0
   3   3  42  130.40    8.37   0
   4   0  19    3.53    5.64   0
   5   1  22  201.06    7.75   0
   2   0  23   -0.93    4.07   0
   3   4  44  109.10    7.68   0
   4   2  35    2.23    5.69   0
   5   0   2  307.10    9.05   0
   5   0   5    2.71    5.36   0
   1   2  41    6.31    5.23   0
   3   0  24 1040.44   13.89   0
   5   0  -1   -1.02    5.04   0
   5   3  32  167.65    8.66   0
   1   3  46   61.37    6.63   0
   3   2  40  394.96   10.34   0
   5   0  11    1.36    4.82   0
   5   1  25    0.50    6.25   0
   5   2  30   57.76    6.74   0
   6   1   2  309.18    9.35   0
   6   1   5    0.37    6.15   0
   6   1   8  587.60   11.65   0
   4   0  22  653.22   11.11   0
   5   0  -4 1090.94   15.12   0
   5   0  14  602.64   11.35   0
   6   1  -1   -0.82    5.65   0
   6   1  11    3.97    6.36   0
   6   1  -4  233.22    9.09   0
   4   1  33    3.52    6.45   0
   5   3  35   -6.42    7.32   0
   6   2  22   84.80    8.02   0
   6   3  24  182.69    8.40   0
   2   3  47    1.87    6.44   0
   2   4  49    4.90    5.98   0
   3   0  27    0.17    5.00   0
   3   3  45   -3.55    6.32   0
   5   0  -7   -4.30    4.79   0
   5   2  33    3.31    7.13   0
   2   1  37   -2.64    4.49   0
   4   0  25   -1.63    4.92   0
   3  -3  24 1528.10   17.44   0
   5  -6  23    0.02    6.58   0
   5  -2  31    0.96    7.02   0
   3   0  24 1000.51   15.16   0
   5  -4  30  155.54    8.07   0
   6  -7  22  137.90    8.52   0
   6  -2  32  306.63   10.90   0
   2  -1  21   -0.23    4.75   0
   3  -2  26  523.99   11.35   0
   5  -5  28  578.91   12.12   0
   5  -1  30  276.32    9.43   0
   6  -3  33   -3.59    7.58   0
   7  -1  29   -4.03    8.58   0
   8  -3  32  164.73   10.01   0
   4  -2  30  188.98    8.69   0
   5  -3  32  615.11   12.20   0
   6   0  27   -4.00    7.31   0
   7  -7  26  180.96    9.51   0
   8  -8  22   57.62    8.16   0
   8  -4  33   -3.55    7.72   0
   3  -5  17    1.19    5.34   0
   6  -1  31    0.73    7.51   0
   7  -5  33    5.60    8.06   0
   4  -6  19    1.03    5.93   0
   7  -6  31    7.09    7.81   0
   6  -4  34  137.61    9.57   0
   7  -8  21    1.41    6.65   0
   7  -2  33   -3.81    8.05   0
   8  -6  32  154.34    9.28   0
   4  -4  29    3.08    6.54   0
   4   0  28  587.89   12.66   0
   7  -4  35   -1.08    6.80   0
   8  -5  34  108.78    8.66   0
   2  -4  15    0.21    4.98   0
   2  -2  22 1843.01   18.91   0
   4  -3  31    4.14    5.65   0
   5  -6  26  209.17    9.10   0
   5   0  29    0.43    6.53   0
   6  -7  25    2.13    6.97   0
   2  -3  20 1359.83   16.54   0
   3  -3  27    7.23    6.04   0
   5  -4  33    1.78    6.26   0
   8  -8  25    3.69    6.67   0
   2   1  19    0.31    4.78   0
   3   1  23    0.74    5.71   0
   5  -5  31   -2.75    5.95   0
   6  -3  36  268.32   10.70   0
   6  -2  35    0.54    6.43   0
   7  -7  29   -6.86    7.15   0
   8  -3  35    7.13    7.54   0
   3  -2  29    5.64    5.82   0
   4  -5  27   -2.05    6.37   0
   5  -7  21    2.29    6.28   0
   5  -3  35    7.85    7.18   0
   5  -1  33    9.27    5.84   0
   8  -4  36   97.27    8.09   0
   3  -5  20  546.80   11.25   0
   3   0  27    2.16    4.78   0
   4  -2  33   -0.55    6.74   0
   4  -1  32  822.82   14.21   0
   7  -8  24  174.75    9.05   0
   7  -6  34  127.12    9.24   0
   7  -5  36  117.77    8.95   0
   4  -6  22  311.51    9.79   0
   6  -5  35    1.09    6.56   0
   6  -1  34  209.17    9.72   0
   8  -6  35   16.52    7.51   0
   8  -2  34   88.46    9.20   0
   6  -4  37   -2.74    6.64   0
   7  -4  38  113.58    9.06   0
   7  -2  36  220.31   10.40   0
   8  -5  37   -3.68    7.76   0
   4  -4  32  422.72   10.89   0
   5  -6  29    5.83    6.83   0
   6  -7  28  111.50    8.25   0
   2  -4  18 1034.86   15.36   0
   4  -3  34  455.53   10.70   0
   4   0  31    0.23    6.19   0
   5  -4  36  391.96   11.09   0
   2  -2  25   -1.17    4.88   0
   3  -3  30  514.18   11.37   0
   5  -5  34  238.45    9.47   0
   5   0  32  448.69   11.77   0
   7  -7  32  216.55    9.70   0
   2  -3  23    6.80    4.63   0
   3  -1  31   -0.94    6.25   0
   4   1  27    2.11    5.60   0
   5  -7  24  368.50   10.51   0
   6  -3  39    4.09    8.05   0
   6  -2  38   80.25    9.06   0
   8  -3  38   45.82    7.91   0
   3  -5  23    1.36    5.70   0
   5  -3  38   84.25    8.39   0
   5  -1  36  275.68   10.18   0
   7  -8  27    3.31    7.21   0
   7  -6  37   -4.86    8.26   0
   7  -5  39   -5.11    7.81   0
   7  -1  35    7.88    8.20   0
   3  -6  15   -3.09    5.01   0
   3  -2  32 1148.78   15.08   0
   4  -6  25    6.36    6.18   0
   4  -2  36  349.66   10.47   0
   6  -5  38  102.77    9.03   0
   7  -3  40  113.00    9.10   0
   2  -1  27   -1.13    5.58   0
   2   1  22  444.20   11.11   0
   3   0  30  307.26    9.61   0
   3   1  26  605.36   12.71   0
   4  -1  35    3.62    5.71   0
   6  -4  40  199.29    9.99   0
   6  -1  37    0.46    7.70   0
   8  -5  40  113.74    8.65   0
   8  -2  37    1.28    8.24   0
   5  -6  32  325.71   10.39   0
   6  -7  31   -1.16    7.23   0
   7  -4  41   -6.99    7.48   0
   7  -2  39   -5.47    7.87   0
   4  -4  35    4.65    5.92   0
   7  -7  35   -0.26    7.71   0
   1  -2  18 1154.74   16.26   0
   2  -4  21    1.86    5.22   0
   4  -3  37    2.64    6.06   0
   5  -7  27    2.70    7.37   0
   5  -5  37   -3.52    7.28   0
   5  -4  39    1.33    6.48   0
   1  -1  20 1567.27   18.56   0
   1   0  19    2.94    4.08   0
   2  -5  13    0.62    4.81   0
   2  -3  26  509.92   11.07   0
   2  -2  28 1073.02   14.49   0
   3  -3  33    4.55    6.35   0
   4   0  34  228.45    9.24   0
   6  -3  42  143.85    9.63   0
   7  -8  30   34.57    6.91   0
   5   0  35    2.40    6.79   0
   6  -2  41   -2.56    8.03   0
   7  -5  42   65.81    8.57   0
   3  -4  31   -3.21    5.45   0
   3  -1  34  542.86   11.24   0
   4  -6  28  392.34   10.21   0
   4   1  30  268.94   10.07   0
   5  -3  41    2.10    6.47   0
   5  -1  39   -7.63    7.44   0
   6  -5  41    6.18    7.60   0
   3  -2  35   -0.74    5.52   0
   4  -2  39    8.91    6.85   0
   6  -7  34  149.14    8.79   0
   6  -4  43    0.69    8.01   0
   7  -3  43    3.47    8.24   0
   4  -1  38  157.94    8.82   0
   5  -6  35    3.65    7.41   0
   7  -4  44   96.44    8.69   0
   2  -1  30  568.70   11.19   0
   3   0  33   -1.73    5.89   0
   3   1  29   -1.64    5.45   0
   4  -4  38  117.17    7.99   0
   7  -7  38   29.01    7.37   0
   7  -2  42  109.91    9.52   0
   1  -3  16 1924.52   21.02   0
   2  -5  16 1656.80   20.09   0
   2  -4  24 1734.76   18.94   0
   2   1  25   -0.80    5.09   0
   4  -3  40  415.19   11.02   0
   5  -7  30  150.00    8.31   0
   5  -5  40  182.47    9.61   0
   5  -4  42  164.40    9.44   0
   7  -8  33    2.16    7.70   0
   1  -2  21    1.41    5.26   0
   2  -3  29    2.17    4.99   0
   2  -2  31    2.29    5.19   0
   3  -6  21    2.54    5.53   0
   3  -5  29   -1.33    6.25   0
   3  -3  36  475.73   10.55   0
   4  -6  31    6.72    6.43   0
   7  -6  43   -6.17    7.72   0
   1  -1  23    1.14    4.52   0
   1   0  22  472.83   10.60   0
   4   0  37    1.63    6.46   0
   5   0  38  170.22    9.25   0
   6  -5  44  125.04    8.87   0
   6  -2  44  178.90    9.79   0
   3  -2  38  298.75    9.89   0
   3  -1  37    3.03    5.45   0
   5  -6  38  116.40    8.69   0
   5  -1  42  151.67    9.31   0
   6  -7  37    6.14    7.00   0
   7  -3  46   48.34    8.39   0
   4  -2  42  361.87   11.08   0
   4   1  33    0.78    6.43   0
   6  -4  46   91.06    8.07   0
   7  -4  47    9.17    7.98   0
   2  -5  19   -0.18    5.08   0
   2  -1  33    7.10    6.05   0
   4  -4  41   -1.33    6.96   0
   4  -1  41   -3.03    7.03   0
   5  -7  33    3.69    6.91   0
   1  -3  19    1.39    4.09   0
   2  -4  27    7.86    4.76   0
   4  -3  43    5.47    7.40   0
   5  -5  43   11.27    7.62   0
   5  -4  45   -2.24    7.65   0
   6  -1  43   -3.05    7.49   0
   7  -2  45    2.25    7.93   0
   1  -2  24 1778.39   18.93   0
   3  -6  24  552.90   12.03   0
   3  -5  32  625.37   12.49   0
   3   1  32  819.59   14.39   0
   2  -3  32 1099.07   14.61   0
   2  -2  34  249.31    8.47   0
   2   1  28 1253.19   16.52   0
   3  -3  39    7.81    5.74   0
   4  -6  34  149.87    7.79   0
   1   0  25    1.06    5.10   0
   2   2  21    0.41    4.65   0
   3  -4  37   -1.88    5.81   0
   5  -3  47    5.91    8.06   0
   6  -7  40  169.58    9.24   0
   6  -5  47    4.95    7.80   0
   6  -2  47    0.06    8.05   0
   1   1  21    2.36    4.58   0
   4   0  40  383.95   11.08   0
   5  -6  41    6.02    7.14   0
   5   0  41   -3.60    7.09   0
   2  -5  22  260.57    9.12   0
   3  -2  41   -9.58    6.15   0
   4  -2  45    6.77    7.10   0
   5  -1  45   13.09    7.67   0
   6  -4  49   -4.40    7.56   0
   2  -4  30  190.78    8.35   0
   3  -6  27   -7.03    5.90   0
   4  -1  44  251.59   10.12   0
   5  -7  36  125.67    8.70   0
   5  -5  46   60.77    8.10   0
   5  -4  48  103.87    8.88   0
   1  -2  27   -5.58    4.77   0
   2  -3  35    7.55    5.96   0
   3  -5  35    3.14    5.58   0
   3   0  39   -2.11    5.42   0
   4  -7  29    6.31    6.17   0
   4  -6  37    2.53    6.97   0
   4  -3  46   76.71    7.47   0
   1  -1  29   -2.07    5.69   0
   2  -2  37    4.71    5.35   0
   2   1  31    4.00    5.33   0
   3  -4  40  393.85   10.90   0
   3  -3  42  218.85    8.62   0
   3   1  35   -3.04    5.61   0
   1   0  28 1369.75   16.76   0
   2  -5  25    3.38    5.42   0
   5  -2  49    0.33    7.71   0
   6  -7  43    6.12    6.67   0
   6  -5  50   49.28    8.17   0
   1   1  24 1703.58   19.57   0
   5  -6  44  115.56    9.07   0
   6  -2  50   92.84    8.75   0
   2  -4  33   -1.78    6.13   0
   3  -6  30  145.43    7.83   0
   3  -2  44  299.53    9.53   0
   4   0  43   -1.77    6.84   0
   5  -7  39    0.89    6.81   0
   5   0  44  163.69    9.95   0
   6  -4  52   97.44    8.63   0
   1  -4  17   -2.94    4.55   0
   4  -4  47    8.62    7.87   0
   4  -2  48  253.95    9.47   0
   5  -1  48  180.87    9.29   0
   1  -2  30  581.25   11.15   0
   2  -3  38  290.32    9.72   0
   2  -1  39    5.02    5.52   0
   3  -5  38   85.65    7.80   0
   4  -6  40  206.91    9.26   0
   4  -1  47   -3.25    7.67   0
   5  -5  49    8.19    7.41   0
   5  -4  51   -3.84    7.69   0
   2  -2  40  754.71   13.04   0
   3  -3  45    1.05    6.79   0
   3   0  42  281.71    9.78   0
   4  -3  49   -3.08    6.55   0
   1  -1  32 1708.90   17.79   0
   2  -5  28  355.02   10.18   0
   2   0  38  226.11    8.40   0
   3  -4  43    8.24    5.97   0
   6  -1  49    1.84    6.95   0
   1  -4  20  850.97   14.25   0
   1   0  31   -1.07    4.67   0
   1   1  27    3.01    4.88   0
   2   1  34  533.93   11.22   0
   3  -6  33   -5.64    7.06   0
   3   1  38  150.88    8.22   0
   5  -6  47   -3.39    6.87   0
   5  -2  52  110.68    9.65   0
   3  -2  47   -7.14    7.32   0
   5  -7  42   69.02    7.60   0
   5  -3  53   -2.47    7.48   0
   1  -2  33    1.42    5.64   0
   2   2  27    0.72    4.78   0
   4  -7  35   -2.66    6.08   0
   4   0  46  128.02    8.78   0
   6  -2  53    1.65    8.02   0
   2  -1  42  304.64    9.99   0
   3  -5  41    6.22    7.28   0
   4  -6  43   -1.89    6.77   0
   4  -4  50  124.37    8.43   0
   4  -2  51   10.12    6.50   0
   1  -4  23    5.82    5.34   0
   2  -5  31    0.49    5.88   0
   2  -3  41    5.86    5.79   0
   4  -3  52  152.11    9.80   0
   4  -1  50  148.35    9.19   0
   5  -5  52  133.18    9.15   0
   5  -4  54   45.27    8.20   0
   5  -1  51   -4.04    7.94   0
   0  -1  19   -1.29    4.26   0
   1  -1  35   -1.65    5.18   0
   2  -2  43    3.55    5.84   0
   2   0  41   -0.62    6.20   0
   3  -4  46   74.61    8.35   0
   3  -3  48  293.36    9.65   0
   3   0  45    4.63    6.51   0
   1   0  34  913.56   13.58   0
   1   1  30  561.62   11.58   0
   2   1  37   -2.48    5.76   0
   3  -6  36  268.59    9.55   0
   3   1  41   -2.18    6.18   0
   4  -7  38  114.22    8.74   0
   5  -7  45    0.77    6.48   0
   5  -6  50   64.78    8.05   0
   0  -1  22  475.24   10.80   0
   0   0  21   -2.23    5.05   0
   1  -4  26  600.58   12.09   0
   1  -2  36  848.14   13.07   0
   3  -2  50  143.62    9.00   0
   5  -3  56   73.78    8.44   0
   5  -2  55    0.65    7.65   0
   2  -5  34  375.52   10.52   0
   2  -3  44  283.33   10.02   0
   2  -1  45   -7.01    6.87   0
   2   2  30  175.21    8.20   0
   3  -5  44  199.59    8.45   0
   4  -6  46   84.38    7.91   0
   4  -4  53   -3.06    7.42   0
   1  -1  38  246.21    8.93   0
   4   0  49   -1.88    7.19   0
   1   0  37    0.49    5.94   0
   2  -2  46  231.94    8.82   0
   3  -6  39   -0.51    6.55   0
   3  -4  49   -7.28    7.45   0
   3  -3  51   -7.78    7.58   0
   4  -1  53   -0.25    7.70   0
   5  -5  55   -0.45    6.64   0
   5  -4  57    5.42    7.27   0
   0  -1  25    0.72    4.41   0
   0   0  24 4859.16   30.85   0
   1  -4  29    1.13    5.68   0
   1   1  33    1.71    5.26   0
   1   2  23   -1.34    4.72   0
   2   0  44  638.01   12.65   0
   1  -2  39    0.85    6.35   0
   2   1  40  432.05   10.96   0
   4  -7  41    1.88    6.19   0
   0  -2  23   -1.81    5.03   0
   2  -5  37   -8.24    6.49   0
   3   1  44  254.39    9.49   0
   1  -3  37   -1.05    5.37   0
   2  -3  47   -2.82    6.79   0
   2   2  33    1.12    5.31   0
   3  -5  47    9.74    5.98   0
   3  -2  53    8.09    6.58   0
   4  -6  49   -5.18    7.19   0
   5  -2  58   79.45    8.14   0
   0  -1  28 1348.84   16.02   0
   0   0  27    3.65    4.54   0
   1  -4  32  824.39   13.65   0
   1  -1  41   -9.84    5.60   0
   2  -1  48  304.57    9.59   0
   0  -2  26 1200.68   15.65   0
   1   0  40  705.34   12.27   0
   1   1  36  855.77   13.90   0
   1   2  26  493.11   11.65   0
   2  -2  49    6.56    6.22   0
   3  -6  42  139.37    8.54   0
   3  -4  52  144.53    9.05   0
   3  -3  54   67.67    8.76   0
   4   0  52  129.31    8.54   0
   1  -2  42  297.26    9.50   0
   2   0  47    3.01    6.57   0
   4  -3  58   82.36    8.34   0
   4  -1  56  104.38    9.30   0
   1  -3  40  433.82   10.83   0
   2  -5  40  388.17   10.43   0
   2   1  43   -2.19    6.11   0
   3   0  51    1.44    7.32   0
   4  -7  44  102.62    8.04   0
   5  -1  57    9.69    7.55   0
   0  -1  31    2.87    4.88   0
   3  -5  50  135.28    8.89   0
   0  -3  15    1.59    4.20   0
   0  -2  29    3.18    4.69   0
   1  -4  35    2.16    5.09   0
   1   2  29   -1.27    4.89   0
   2   2  36  335.96   10.23   0
   3  -2  56  155.19    9.28   0
   3  -1  55    3.53    7.73   0
   3   1  47   -3.68    6.71   0
   4  -6  52   85.97    8.30   0
   0  -3  18 1261.63   17.41   0
   1  -5  21    4.33    5.08   0
   2  -1  51    1.39    6.23   0
   3  -6  45   -2.41    6.50   0
   4  -4  59    7.53    7.91   0
   0  -3  21   -1.59    5.10   0
   1  -2  45    2.61    6.90   0
   1   1  39    2.64    4.96   0
   3  -4  55    4.78    7.39   0
   0  -2  32  629.48   11.96   0
   0  -1  34  915.87   13.31   0
   0   0  33    4.81    4.82   0
   1  -3  43   -2.68    6.47   0
   2  -5  43    5.54    6.00   0
   3  -3  57    1.44    7.87   0
   4  -7  47    2.95    7.50   0
   4   0  55    0.74    7.34   0
   0  -3  24 1025.31   15.09   0
   1  -4  38  137.86    8.31   0
   2   1  46  111.39    7.63   0
   3   0  54   72.28    8.57   0
   4  -3  61    9.95    7.25   0
   4  -1  59    4.58    7.77   0
   1  -5  27   -2.00    5.38   0
   1  -1  47    8.44    6.56   0
   1   2  32 1101.06   15.99   0
   2  -6  35    0.48    6.06   0
   3  -5  53    4.06    6.99   0
   0  -3  27   -1.75    5.25   0
   2  -3  53    0.92    6.28   0
   2   2  39    3.58    5.46   0
   3  -6  48  112.28    8.50   0
   3   1  50  151.69    9.45   0
   0  -2  35    1.32    5.10   0
   0  -1  37   -2.32    5.24   0
   0   0  36  592.10   11.15   0
   1   1  42  306.88    9.71   0
   2  -2  55   -7.92    7.92   0
   2  -1  54   83.18    7.47   0
   3  -2  59   -0.86    7.05   0
   3  -1  58   89.51    8.38   0
   1  -5  30  263.26    9.40   0
   1  -4  41    1.55    6.24   0
   1  -3  46  107.60    8.12   0
   1  -2  48  286.29    9.50   0
   2  -5  46   50.08    6.73   0
   3  -4  58   90.00    8.45   0
   0  -3  30  305.02    8.78   0
   1   2  35   -3.77    5.33   0
   2  -6  38   85.15    7.93   0
   2   0  53    8.56    7.18   0
   3  -3  60   94.00    8.64   0
   2   1  49    0.29    6.39   0
   4   0  58   51.84    8.46   0
   0  -2  38  212.22    7.98   0
   0  -1  40  684.25   12.14   0
   0   0  39   -3.74    5.25   0
   1  -5  33    0.89    5.80   0
   1  -1  50  240.89    9.11   0
   2  -3  56  152.61    9.30   0
   3  -5  56   78.19    7.88   0
   3   0  57   -1.10    6.98   0
   0  -3  33    2.14    4.89   0
   1   1  45    5.63    6.39   0
   3  -6  51    5.85    6.60   0
   1  -4  44  234.42    8.65   0
   1  -3  49   -2.66    7.14   0
   1  -2  51    2.60    6.32   0
   2  -5  49   -2.17    6.61   0
   2  -2  58   71.23    8.85   0
   2  -1  57    4.17    7.10   0
   3  -2  62   41.34    7.83   0
   3   1  53    8.06    6.87   0
   0  -2  41   -7.07    6.29   0
   1  -5  36  280.41    9.63   0
   1   2  38  288.17    9.42   0
   2  -6  41    1.92    6.33   0
   3  -1  61    4.28    7.93   0
   0  -3  36  732.53   12.48   0
   0  -1  43   -5.06    5.64   0
   0   0  42  696.21   12.20   0
   2   0  56   94.25    8.71   0
   3  -4  61    2.32    6.73   0
   3  -3  63    9.12    7.86   0
   0   2  22 1791.05   21.07   0
   1  -1  53   -3.47    6.31   0
   2   1  52  224.08    9.47   0
   0   2  25   -2.88    3.88   0
   1  -4  47   -2.39    6.95   0
   1   1  48  294.82    9.74   0
   2  -3  59   -4.98    7.48   0
   0  -3  39   -0.41    6.29   0
   0  -2  44  650.82   12.40   0
   0   2  28 1066.89   15.79   0
   1  -5  39    2.99    6.34   0
   1  -3  52  233.32   10.08   0
   1  -2  54   87.83    7.54   0
   1   2  41   -0.12    5.74   0
   2  -6  44  173.01    8.53   0
   2  -5  52  102.44    8.50   0
   3   0  60  134.26    8.62   0
   0  -4  19    2.76    5.13   0
   0  -4  22  632.31   12.76   0
   0  -4  25   -4.18    5.10   0
   0  -1  46   97.83    8.08   0
   0   0  45    4.50    6.42   0
   2  -2  61    1.24    7.41   0
   0  -4  28  583.45   12.20   0
   0   2  31    5.13    4.98   0
   3  -1  64   44.90    8.25   0
  -1   0  23   -4.55    5.30   0
   1  -5  42  145.54    8.47   0
   1  -1  56  189.83    9.55   0
   2   0  59    0.65    7.50   0
  -1  -1  21    2.69    4.49   0
  -1  -1  24 1782.23   18.60   0
  -1  -1  27   -4.78    5.18   0
  -1   0  20 1549.87   18.08   0
  -1   0  26 1170.33   15.19   0
   0  -4  31   -6.56    5.66   0
   0  -2  47    4.73    6.71   0
   1  -4  50  146.12    7.92   0
   1   1  51    2.03    7.22   0
   2  -6  47   -9.09    7.29   0
   2   1  55   -2.15    6.65   0
  -1  -1  18 1188.09   16.45   0
  -1  -1  30  578.32   11.51   0
  -1   0  29    1.69    4.69   0
   0  -1  49    7.19    6.76   0
   0   0  48  450.42   11.31   0
   0   1  44  407.36   10.66   0
   0   2  34  273.71    8.93   0
   1  -3  55   -3.83    7.56   0
   1  -2  57   -2.74    7.52   0
   1   2  44  285.11    9.63   0
   2  -5  55    2.65    6.95   0
   2  -3  62   40.62    8.08   0
  -1   0  32 1734.51   18.13   0
   0  -4  34  230.27    8.94   0
  -1  -1  33   -3.53    5.80   0
   1  -5  45    4.88    6.80   0
   2  -2  64   73.94    8.74   0
   3   0  63   -0.82    6.76   0
  -1   0  35    6.05    5.92   0
   0  -4  37   -2.17    6.11   0
   0  -2  50  175.22    9.21   0
   0   2  37    0.63    5.53   0
   1  -4  53    2.76    6.88   0
   1  -1  59   -5.75    8.01   0
  -1  -2  25    2.18    5.16   0
  -1  -1  36  850.09   13.44   0
  -1   1  25    2.45    5.16   0
   0   1  47   -7.50    6.56   0
   2  -6  50   73.08    7.25   0
  -1  -2  22  445.12   10.57   0
  -1   1  22  462.61   10.47   0
  -1   1  28 1326.03   16.13   0
   0  -1  52  254.32    9.40   0
   0   0  51   -2.36    6.15   0
   1  -3  58   91.45    8.16   0
   1  -2  60  122.49    9.13   0
   1   0  58  130.56    9.24   0
   1   1  54   93.84    7.57   0
   1   2  47   -2.33    6.20   0
   2  -5  58   85.90    8.23   0
   2   0  62   51.71    7.46   0
   2   1  58   82.85    7.90   0
  -1   0  38  240.25    8.30   0
  -1   1  31    5.72    4.74   0
   0  -4  40  378.71   10.49   0
   0   2  40  739.43   13.23   0
   1  -5  48  167.50    9.08   0
  -1  -2  19   -0.34    4.07   0
  -1  -1  39    0.97    5.40   0
  -1   1  19    0.30    4.09   0
  -1   1  34  922.19   13.82   0
  -1   0  41    0.22    6.58   0
   0  -2  53   -2.24    6.36   0
   1  -4  56  105.93    8.26   0
  -1  -1  42  299.61    9.49   0
  -1   1  37    0.15    5.67   0
   0  -4  43   -2.56    6.41   0
   0  -1  55    5.46    7.42   0
   0   0  54   42.60    7.67   0
   0   1  50  247.39    8.78   0
   0   2  43   -6.02    5.97   0
   1  -1  62   39.68    7.74   0
   1   2  50  151.29    9.04   0
   2  -6  53    2.12    5.96   0
  -1  -2  16 1941.41   21.46   0
   1  -5  51    0.89    7.77   0
   1  -3  61   -9.43    7.36   0
   1   0  61    1.31    7.34   0
   1   1  57    0.80    7.26   0
  -1   0  44  411.82   10.54   0
   1  -2  63   -0.90    7.10   0
   2   0  65   -0.31    6.89   0
   2   1  61   -5.39    7.33   0
  -1  -1  45   -0.03    6.51   0
  -1   1  40  707.63   12.16   0
   0  -4  46  125.06    8.55   0
   0  -2  56   89.72    8.62   0
   0   1  53   -7.76    7.40   0
   0   2  46  221.68    9.12   0
   1  -4  59    8.29    7.00   0
  -1  -2  43   -8.67    5.81   0
  -1   0  47    0.88    6.96   0
  -1   1  43   -0.25    6.16   0
   0  -1  58  128.52    8.02   0
   0   0  57    2.69    7.71   0
   1  -1  65    6.48    7.75   0
   1   2  53    0.24    7.36   0
  -1  -3  26  609.60   12.32   0
  -1  -3  29    0.50    4.74   0
  -1  -3  32  841.35   14.00   0
  -1  -1  48  283.94   10.26   0
   1  -5  54   43.19    7.15   0
   1  -3  64   48.73    8.26   0
   1   1  60  135.73    9.10   0
  -1  -3  23    4.86    5.11   0
  -1  -3  35    1.54    6.15   0
  -1   2  27    1.42    4.87   0
  -1   2  30  545.94   11.43   0
   0  -4  49   -5.17    7.24   0
   1  -2  66   29.93    7.67   0
   1   0  64   67.77    8.20   0
  -1  -2  46  105.69    7.36   0
  -1   2  24 1684.85   19.35   0
  -1   2  33    0.51    4.55   0
   0  -2  59   -5.13    7.12   0
   0   1  56  173.74    9.49   0
   0   2  49   -0.01    6.78   0
  -1  -3  38  143.79    7.42   0
  -1   2  36  810.72   13.08   0
   0  -1  61   -6.04    7.74   0
  -1  -3  20  840.85   14.52   0
  -1  -3  41    3.51    6.59   0
  -1  -1  51   -7.29    6.30   0
  -1   2  39    0.04    5.96   0
   0  -4  52  124.43    8.90   0
   0   0  60  115.66    8.58   0
   0   3  30  504.29   12.08   0
   1  -5  57    2.47    7.72   0
  -1  -2  49   -2.45    6.03   0
  -1   2  21    1.11    4.93   0
   0   3  27    0.65    4.51   0
   0   3  33   -0.77    4.95   0
   1   2  56  141.19    9.07   0
  -1   0  53   -8.14    7.45   0
   0  -5  41   -6.21    6.42   0
   0  -2  62   43.52    8.24   0
   0   2  52  160.58    9.00   0
   1   1  63   -2.02    7.04   0
  -1  -3  44  238.28    8.77   0
  -1  -1  54   74.27    8.86   0
  -1   2  42  288.46    8.89   0
   0   1  59   -1.33    7.24   0
   0   3  24 1433.88   20.39   0
  -1  -3  17   -1.27    4.69   0
  -1  -2  52  218.16   10.16   0
   0  -4  55    5.67    7.42   0
   0  -1  64   66.83    8.36   0
   0   3  39   -2.47    5.46   0
  -1  -3  47    4.40    7.27   0
  -1   2  45   -6.59    6.21   0
   0  -5  44  135.21    8.31   0
  -2   0  28 1095.91   14.79   0
  -2   0  31   -2.60    5.05   0
  -2   0  34  271.97    8.52   0
  -1   0  56  187.47    9.52   0
   0   2  55    4.55    6.97   0
   0   3  42  207.46    8.72   0
  -2  -1  32 1111.88   15.19   0
  -2   0  37   -1.47    5.51   0
  -1  -2  55   -4.99    7.76   0
  -1  -1  57   13.60    7.49   0
   0  -5  47    1.69    7.39   0
   0  -2  65   -2.26    7.32   0
  -2  -1  29    7.35    4.91   0
  -2  -1  35   -3.97    5.40   0
  -2  -1  38  293.40    9.59   0
  -2   0  25    2.28    4.76   0
  -2   0  40  773.87   12.70   0
  -2   1  33    8.71    6.03   0
  -1  -3  50  141.03    8.72   0
  -1   2  48  294.68   10.10   0
   0   1  62   41.67    7.43   0
  -2  -1  26  473.37   10.77   0
  -2   0  43    1.68    6.81   0
  -2   1  30  578.01   11.11   0
   0  -4  58   50.40    7.84   0
   0   3  45    5.66    5.86   0
  -2  -1  41    0.74    5.85   0
  -2   0  22 1872.80   19.34   0
  -2   1  27   -1.68    4.79   0
  -2   1  39    1.59    5.50   0
  -1  -4  30  273.03    9.46   0
  -1  -4  33    7.38    5.86   0
  -1  -4  36  271.55    9.60   0
  -1   0  59    9.59    7.62   0
   0  -5  50   54.22    8.31   0
  -2  -1  44  283.79   10.15   0
  -2   0  46  237.34    9.73   0
  -1  -4  27   -1.37    5.96   0
  -1  -4  39    0.74    6.09   0
  -1  -3  53   -0.49    7.40   0
  -1  -2  58   76.93    8.36   0
  -1  -1  60  128.53    9.00   0
  -1   2  51    4.26    6.57   0
   0   2  58   75.14    8.18   0
  -2   1  24 1811.18   18.66   0
  -1  -4  42  145.66    8.40   0
  -2  -2  33    1.50    5.99   0
  -2  -2  36  345.89   10.23   0
  -2  -1  47   -4.78    7.39   0
  -2   1  45   -4.27    5.97   0
   0   1  65    5.28    7.12   0
  -2  -2  30  178.37    8.27   0
  -2  -2  39    1.17    6.32   0
  -2   0  19    1.66    5.25   0
  -2   0  49   -8.31    6.31   0
  -1  -4  45   -1.49    6.94   0
  -1   0  62   35.45    8.12   0
  -1   3  32 1140.87   16.32   0
  -1   3  35   -1.62    5.35   0
  -1   3  38  293.34    9.62   0
  -2  -2  27   -1.04    5.55   0
  -2  -2  42  364.00   10.72   0
  -2   1  21    5.69    5.35   0
  -2   1  48  291.67   10.00   0
  -1  -3  56  103.50    8.57   0
  -1  -2  61   -5.87    7.44   0
  -1  -1  63    6.82    7.85   0
  -1   2  54   88.00    7.30   0
  -1   3  29   -0.68    4.88   0
   0   2  61    4.70    7.98   0
  -2  -1  50  154.45    9.31   0
  -2   0  52  165.23    9.72   0
  -1   3  41    2.01    6.08   0
  -2  -2  45    3.86    7.19   0
  -1  -4  48  164.81    9.22   0
  -1   3  44  292.66    9.82   0
  -2  -2  24 1809.38   19.63   0
  -2   1  51    4.73    6.27   0
  -1   2  57   -1.29    7.31   0
  -1   3  26  489.56   11.44   0
  -2  -1  53    2.87    6.53   0
  -2   0  55    1.38    7.96   0
  -2   2  26 1211.29   15.69   0
  -1  -4  51   -4.55    7.12   0
  -1  -3  59    9.65    6.86   0
  -1   0  65    0.46    7.55   0
  -2   0  16 2967.65   25.15   0
  -2   1  18 1206.99   16.35   0
  -2   1  54   88.62    8.87   0
  -1  -2  64   52.62    7.23   0
  -1   3  47    2.75    6.42   0
  -1   1  64   61.21    8.16   0
   0   2  64   82.55    8.10   0
  -2  -2  21    1.51    4.32   0
  -2  -1  56  151.43    8.64   0
  -2   2  23    0.11    5.22   0
  -2   2  50  178.96    9.04   0
  -1  -4  54   39.63    7.45   0
  -1   2  60  124.30    8.88   0
  -1   3  23   -0.68    4.70   0
  -1   3  50  138.30    8.55   0
  -2  -3  34  385.57   10.91   0
  -2  -3  37   -3.89    6.29   0
  -2   0  58   73.61    8.08   0
  -2  -3  31    1.86    6.11   0
  -2  -3  40  374.63   11.06   0
  -2   1  57    5.19    6.89   0
  -2  -3  43    3.50    5.97   0
  -2  -1  59   -1.63    7.77   0
  -2   2  53    5.89    7.19   0
  -1   3  53    2.69    6.83   0
  -2  -3  28  350.65   10.44   0
  -2  -3  46   46.20    7.42   0
  -2   0  61   -0.05    7.63   0
  -1  -4  57    0.37    6.43   0
  -3   0  36  502.22   11.50   0
  -3   0  39   -6.11    6.85   0
  -2  -2  18 1033.68   15.74   0
  -2   1  15   -2.22    5.18   0
  -2   2  20 3280.19   26.20   0
  -2   3  37   -1.89    6.07   0
  -2   3  40  440.41   11.14   0
  -1   2  63   -4.67    7.48   0
  -3   0  33    2.08    6.50   0
  -3   0  42  215.42    8.72   0
  -3   1  35    5.66    6.25   0
  -3   1  38  300.47    9.18   0
  -3   1  41    1.16    6.66   0
  -2  -3  49    2.93    7.14   0
  -2  -1  14 1533.83   18.72   0
  -2  -1  62   35.26    8.29   0
  -2   0  13    2.51    4.96   0
  -2   2  56   88.13    8.68   0
  -2   3  34  554.52   11.71   0
  -2   3  43    3.24    6.44   0
  -3   0  30  535.83   11.40   0
  -3   0  45   -6.02    6.14   0
  -3   1  32 1162.61   15.57   0
  -2  -3  25    2.23    5.44   0
  -2   3  31    7.18    5.58   0
  -1   3  56  154.91    9.29   0
  -3   0  48  292.95   10.56   0
  -3   1  47    2.97    7.00   0
  -2  -3  52  109.08    8.17   0
  -2   0  64   78.32    8.55   0
  -2   3  46  109.08    7.16   0
  -3   1  29    2.90    5.32   0
  -2   1  63   -5.77    7.91   0
  -2   2  59   -3.17    7.33   0
  -2   3  49   -4.13    6.81   0
  -3   0  27    2.15    5.18   0
  -9   6 -12  136.80    8.17   0
  -9   6  -9   -8.03    6.76   0
  -9   6  -3    6.77    6.61   0
  -5   4  18  352.11    9.79   0
  -4   2  30  192.26    8.24   0
 -10   6  -1   -0.71    7.35   0
  -9   6   3   -3.38    7.46   0
  -8   6  -8  377.07   10.68   0
  -8   6  -2  194.43    9.39   0
  -6   5  10  435.88   10.09   0
  -5   3  28  364.22   10.33   0
  -4   4   7   -3.10    4.72   0
  -3   3  12 2559.32   22.16   0
 -10   6   2   66.54    8.09   0
  -9   6 -15   -2.56    6.35   0
  -8   6 -11   -1.00    7.12   0
  -8   6   1   -7.27    6.95   0
  -6   5 -23   -6.16    5.50   0
  -9   6 -18  139.05    8.46   0
  -9   6   6  160.95    8.84   0
  -8   6 -14   97.34    8.01   0
  -7   4  28  338.68   10.62   0
  -7   5  18  339.17   10.51   0
  -4   3  23    5.48    4.63   0
  -4   4 -20 1152.96   16.12   0
  -8   6   4  196.09    8.54   0
  -6   5  13    5.11    5.63   0
  -9   4  29   -4.78    6.90   0
  -9   5  22   63.44    7.77   0
  -9   6   9    8.26    7.22   0
  -8   6 -17    3.98    6.66   0
  -8   6   7   -0.13    7.44   0
  -6   3  33   -3.82    6.46   0
  -6   4  26  350.74   10.39   0
  -5   5 -10  669.37   12.00   0
  -5   5  -4 1049.23   14.01   0
  -5   5  -1   -5.57    5.86   0
  -3   2  25    2.09    4.90   0
  -9   6 -21   -0.52    5.93   0
  -8   4  30   74.06    7.95   0
  -7   6  -7    7.42    6.66   0
  -8   5  23    0.72    7.51   0
  -8   6 -20  149.31    8.46   0
  -7   6 -10  192.70    8.75   0
  -7   6  -1    5.55    6.74   0
  -5   5 -13   -1.82    5.50   0
  -5   5   2  325.59    8.78   0
  -3   3  15   -4.79    5.11   0
  -8   6  10  170.60    8.21   0
  -7   6 -13   -4.16    6.02   0
  -7   6   2  297.70    9.93   0
  -6   5  16  606.97   11.44   0
  -5   5   5    1.03    6.01   0
  -4   4 -23    1.42    4.36   0
  -4   4  13   -4.85    5.64   0
  -7   6   5   -1.01    7.06   0
  -5   3  31   -0.73    5.81   0
  -5   5 -16  630.43   12.08   0
  -9   5  25    8.02    6.69   0
  -9   6  15    3.11    7.37   0
  -8   6  13   -1.96    7.14   0
  -7   4  31    0.66    6.74   0
  -7   6 -16  571.38   11.84   0
  -4   3  26  602.25   12.01   0
  -7   6   8  606.77   12.13   0
  -5   5   8  917.93   13.12   0
  -4   2  33    1.02    5.68   0
  -8   5  26  154.85    9.07   0
  -7   5  24  285.67    9.88   0
  -6   4  29   -0.22    6.52   0
  -6   5  19    0.09    5.79   0
  -5   4  24  844.47   13.14   0
  -5   5 -19    0.96    5.11   0
  -8   4  33   -7.46    7.13   0
  -7   6 -19    5.13    6.11   0
  -4   4  16 1422.97   16.07   0
  -2   2  17    2.37    4.37   0
  -9   6  18   81.72    8.19   0
  -7   6  11    0.28    6.26   0
  -5   5  11   -1.41    5.20   0
  -9   5  28   72.39    7.49   0
  -7   6 -22  124.81    7.80   0
  -6   6   0  820.85   13.31   0
  -3   2  28 1259.92   17.31   0
  -9   7  -7    4.96    6.84   0
  -8   5  29    5.61    7.11   0
  -8   6  19    8.88    7.53   0
  -7   4  34  151.99    8.90   0
  -7   5  27   -1.96    7.08   0
  -7   6  14  129.42    7.69   0
  -6   6  -9    2.14    5.23   0
  -5   5 -22  184.46    7.92   0
  -5   5  14  593.88   11.08   0
  -9   7 -10  136.94    8.17   0
  -9   7   2   72.42    7.90   0
  -6   6 -12  319.64    9.58   0
  -6   6   3   -1.12    5.68   0
  -5   3  34  410.34   10.93   0
  -5   4  27   -5.39    6.15   0
  -9   7 -13   -0.42    6.44   0
  -9   7   5    5.33    7.01   0
  -6   4  32  297.73   10.29   0
  -6   6   6  226.19    9.05   0
  -4   3  29   -3.50    5.40   0
  -3   4  -4 1221.36   15.66   0
  -7   6  17    5.12    6.08   0
  -6   6 -15    0.55    5.84   0
  -3   3  21    0.94    4.89   0
  -3   4  -1    5.59    4.33   0
  -2   3  -2  646.35   12.39   0
  -9   7 -16  118.05    7.55   0
  -9   7   8  193.50    8.64   0
  -8   7  -9   -5.83    7.03   0
  -8   7  -6   85.38    7.47   0
  -8   7   0  316.86   10.55   0
  -6   5  25    4.59    6.68   0
  -6   6   9   -4.50    6.70   0
  -5   5  17   -4.99    5.44   0
  -3   4 -10 1039.66   14.83   0
  -3   4   2  837.46   12.74   0
  -9   6  24  169.41    9.22   0
  -8   7   3    0.90    6.14   0
  -2   2  20 3275.77   27.13   0
  -2   3   1    7.98    4.24   0
  -9   7  11   -9.76    6.76   0
  -8   5  32  171.12    9.24   0
  -8   7 -12  156.59    8.26   0
  -7   5  30   79.16    8.09   0
  -7   6  20  232.08    9.76   0
  -6   6 -18  244.74    8.80   0
  -4   5  -3   -4.34    5.33   0
  -3   4   5    1.83    4.54   0
  -8   7 -15   -0.01    6.80   0
  -6   6  12  377.93    9.85   0
  -4   5   0 1353.58   15.54   0
  -3   4 -13    3.61    4.54   0
  -2   3   4 2982.42   24.36   0
  -9   7  14  120.12    8.56   0
  -8   6  25    0.55    7.22   0
  -8   7   9    1.84    6.66   0
  -5   4  30  265.67    9.41   0
  -5   5  20  621.87   12.02   0
  -4   5  -9    1.73    4.45   0
  -4   5   3    5.56    4.95   0
  -3   4   8 2626.37   21.56   0
  -9   6  27    0.44    7.40   0
  -6   4  35   -0.32    7.03   0
  -6   6 -21    0.59    6.21   0
  -6   6  15    5.39    6.85   0
  -8   7 -18  154.01    8.10   0
  -8   7  12  146.50    9.33   0
  -6   5  28  382.06   10.74   0
  -4   5 -12 1026.92   14.13   0
  -4   5   6  815.03   12.37   0
  -3   2  31   -2.19    5.11   0
  -3   3  24 1007.31   14.59   0
  -2   3   7    2.12    4.26   0
  -9   7  17    8.39    7.14   0
  -7   7  -8  541.75   11.96   0
  -7   7  -5    5.68    6.78   0
  -7   7   1    1.59    6.76   0
  -4   3  32  824.06   14.08   0
  -3   4 -16 1885.44   20.54   0
  -8   7  15   -5.06    7.59   0
  -7   7   4  144.69    9.06   0
  -4   5 -15    2.94    4.96   0
  -4   5   9    2.28    4.98   0
  -3   4  11    7.30    4.64   0
  -8   5  35    5.50    6.59   0
  -8   6  28  148.78    8.62   0
  -7   5  33   -4.26    7.24   0
  -7   7 -11   -5.90    6.63   0
  -7   7   7    6.82    7.09   0
  -6   6  18  316.06    9.34   0
  -5   6   1    5.73    6.12   0
  -4   4  25    1.37    4.99   0
  -5   6  -8  735.56   12.64   0
  -5   6   4  689.77   12.34   0
  -2   3  10 2001.11   19.77   0
  -8   7  18  108.00    8.60   0
  -7   6  26  203.20    9.51   0
  -7   7 -14  107.84    7.88   0
  -7   7  10  197.80    9.14   0
  -5   4  33    0.97    6.11   0
  -4   5  12  897.94   12.94   0
  -2   2  23   -2.21    4.26   0
  -6   5  31    2.10    6.45   0
  -5   6 -11    3.11    4.75   0
  -5   6   7   -1.24    5.39   0
  -4   5 -18  654.54   12.31   0
  -3   4 -19    4.59    4.75   0
  -7   7 -17    2.31    6.21   0
  -7   7  13    1.06    7.21   0
  -6   6  21    1.03    5.71   0
  -9   8  -2   88.31    7.64   0
  -8   6  31   -3.54    7.44   0
  -5   6 -14  348.27    9.71   0
  -5   6  10  432.63    9.91   0
  -4   5  15   -1.07    5.11   0
  -2   3  13    6.39    5.01   0
  -9   8  -8  105.33    7.59   0
  -9   8   4  155.74    8.49   0
  -8   7  21   -5.20    7.40   0
  -4   4  28  604.52   11.96   0
  -3   3  27   -2.21    4.16   0
  -9   8 -11   -4.80    7.16   0
  -9   8   7   10.93    6.96   0
  -7   5  36  214.46    9.74   0
  -7   6  29    1.92    7.01   0
  -7   7  16  471.94   11.79   0
  -5   6  13    4.79    6.49   0
  -4   3  35   -0.00    6.00   0
  -3   4  17    3.07    4.57   0
  -5   6 -17   -2.20    5.27   0
  -9   8  10   79.20    8.37   0
  -6   7  -7    2.57    6.41   0
  -6   7  -4  229.34    8.19   0
  -6   7   2  286.53    9.07   0
  -4   5 -21    3.26    4.68   0
  -4   5  18  369.39    9.23   0
  -8   8  -4  157.27    8.97   0
  -8   8   2   95.67    8.25   0
  -7   7  19   -2.27    7.30   0
  -6   5  34  199.81    9.37   0
  -6   7   5    3.77    6.01   0
  -5   6  16  597.03   11.77   0
  -2   3  16 2027.98   20.03   0
  -9   8  13    1.66    7.63   0
  -8   6  34   82.85    8.74   0
  -8   8  -7    1.08    6.51   0
  -8   8   5   -2.73    7.01   0
  -6   7 -10  214.41    8.70   0
  -6   7   8  622.42   12.27   0
  -5   4  36  287.32    9.71   0
  -5   5  29    0.86    6.40   0
  -3   4 -22  296.12    9.77   0
  -8   8 -10  144.22    8.31   0
  -8   8   8  211.93    9.31   0
  -5   6 -20  454.19   11.09   0
  -2   2  26 1194.70   17.16   0
  -7   6  32  225.35    9.95   0
  -7   7  22   87.28    8.35   0
  -6   6  27    5.58    6.00   0
  -6   7 -13   -1.90    6.02   0
  -6   7  11    1.32    5.95   0
  -4   4  31   -1.58    5.59   0
  -4   5  21    3.57    6.01   0
  -8   7  27   -1.94    7.04   0
  -8   8 -13   -6.08    6.67   0
  -8   8  11    8.81    7.03   0
  -5   6  19   -1.14    5.57   0
  -6   7  14  117.86    8.38   0
  -8   8  14  114.50    8.33   0
  -6   7 -16  547.39   11.74   0
  -8   8 -16  124.25    7.69   0
  -6   5  37   -5.01    6.44   0
  -5   5  32  433.94   10.84   0
  -5   6  22  182.37    8.88   0
  -3   4  23   -0.45    5.12   0
  -8   6  37   -1.19    6.18   0
  -8   8  17    3.54    7.58   0
  -7   8  -3    0.46    7.18   0
  -6   6  30   97.81    8.32   0
  -6   7  17    4.76    6.11   0
  -3   5   1    1.01    4.57   0
  -3   5   4  671.14   11.79   0
  -8   7  30   60.39    7.96   0
  -7   6  35   -2.64    6.91   0
  -7   8  -6   86.47    7.64   0
  -7   8   3    4.09    6.08   0
  -7   8   6  165.98    8.81   0
  -6   7 -19    1.65    5.87   0
  -4   6  -1    0.24    5.00   0
  -4   6   2  580.12   10.84   0
  -4   6   5   -1.04    6.03   0
  -7   8  -9   -1.45    6.84   0
  -4   6  -7   -2.52    5.25   0
  -3   5  -8 2083.14   19.87   0
  -3   5   7   -1.86    4.74   0
  -8   8  20  103.62    8.51   0
  -7   8   9   -2.55    6.44   0
  -6   7  20  215.14    8.60   0
  -4   4  34  224.59    8.77   0
  -4   6   8  790.46   12.39   0
  -7   7  28  120.11    8.75   0
  -7   8 -12  153.82    8.42   0
  -7   8  12  146.60    8.85   0
  -4   6 -10  304.51    9.09   0
  -3   5  10  689.99   11.46   0
  -2   3  22  420.87   10.16   0
  -2   4   0 4094.63   27.33   0
  -6   6  33    2.66    7.06   0
  -5   7   3   -2.09    6.53   0
  -4   5  27    2.07    5.93   0
  -4   6  11   -2.99    5.29   0
  -3   3  33   -1.31    4.99   0
  -3   4  26  583.17   11.46   0
  -3   5 -11    4.27    4.80   0
  -2   2  29    2.07    4.30   0
  -2   4  -3    3.56    4.03   0
  -2   4   3   -4.68    4.39   0
  -8   7  33   -1.55    6.67   0
  -7   8  15   -2.17    7.12   0
  -6   7  23    1.10    7.00   0
  -5   5  35   -1.82    6.20   0
  -5   7   6  128.57    7.30   0
  -3   5  13    0.26    5.73   0
  -2   4   6  795.52   12.38   0
  -8   8  23    4.26    7.17   0
  -7   8 -15   -5.39    5.98   0
  -5   7   9   -3.66    6.72   0
  -4   6 -13    2.91    5.40   0
  -4   6  14  254.68    8.22   0
  -7   6  38   47.54    7.60   0
  -5   7  -9    5.95    4.96   0
  -3   5 -14  336.31    9.30   0
  -2   4   9   -0.29    4.47   0
  -7   7  31   -4.65    7.60   0
  -7   8  18  111.39    7.77   0
  -5   6  28  369.51    9.80   0
  -5   7  12  452.00   10.46   0
  -3   5  16 1761.72   17.76   0
  -2   4  -9    2.61    4.40   0
  -5   7 -12  368.25   10.01   0
  -4   6  17  -10.90    5.53   0
  -2   4  12  758.27   12.44   0
  -5   7  15   -9.54    6.95   0
  -4   5  30  269.24    9.33   0
  -4   6 -16  674.98   12.40   0
  -2   3  25   -0.32    4.79   0
  -8   9  -2   91.01    7.53   0
  -8   9   1    2.32    6.34   0
  -8   9   7   -1.31    7.21   0
  -7   8  21   -0.31    6.73   0
  -6   6  36  165.33    9.07   0
  -6   8  -2  200.52    9.13   0
  -6   8   4  185.87    8.11   0
  -6   8   7   -9.66    7.40   0
  -4   4  37   -3.81    5.86   0
  -3   4  29    1.37    4.60   0
  -8   9  -5   -0.07    6.96   0
  -6   8  -5    3.67    5.86   0
  -5   5  38  165.28    9.06   0
  -5   7 -15   -1.57    5.41   0
  -4   6  20  604.33   11.83   0
  -3   5 -17    0.95    4.64   0
  -3   5  19    1.25    5.02   0
  -2   4 -12  707.64   12.93   0
  -8   9  -8  115.59    7.46   0
  -8   9  10   80.39    7.20   0
  -7   7  34  119.49    8.34   0
  -6   8  -8  372.81   10.17   0
  -6   8  10  172.62    8.00   0
  -5   6  31    6.87    6.84   0
  -2   4  15   -3.95    4.48   0
  -8   9  13   -5.69    6.97   0
  -7   8  24  198.12    9.26   0
  -6   7  29   -0.65    6.29   0
  -6   8  13   -2.25    7.17   0
  -4   6 -19   -0.15    5.60   0
  -3   3  36  731.14   13.77   0
  -8   9 -11    2.57    5.72   0
  -6   8 -11   -1.58    6.13   0
  -2   2  32  589.92   12.83   0
  -6   8  16  297.68   10.16   0
  -5   7 -18  136.72    7.48   0
  -5   7  21   -2.49    5.98   0
  -4   5  33    6.30    6.21   0
  -4   6  23   10.11    5.57   0
  -3   5  22  246.73    8.08   0
  -2   4  18 1054.59   14.29   0
  -2   4 -15   -0.86    4.84   0
  -6   6  39   -1.96    6.87   0
  -6   8 -14   88.33    7.41   0
  -3   4  32  811.53   13.61   0
  -2   3  28 1269.44   16.64   0
  -1   3  -1    9.13    4.72   0
  -1   3   2  669.87   12.14   0
  -1   3   5    3.53    4.77   0
  -7   7  37   -4.40    6.55   0
  -7   9  -1   -5.35    7.31   0
  -6   7  32  225.75    9.30   0
  -6   8  19   -1.45    6.43   0
  -5   7  24  272.51    9.89   0
  -3   5 -20  501.48   11.35   0
  -7   9  -4  172.86    8.74   0
  -7   9   8  191.01    9.08   0
  -1   2  21    3.87    4.45   0
  -1   3   8 3337.02   25.34   0
  -4   7   4  600.46   11.67   0
  -3   6   0  998.23   14.07   0
  -3   6   3    6.34    5.62   0
  -7   8  30   53.23    7.60   0
  -7   9  -7    7.22    6.80   0
  -4   7   7    5.67    5.67   0
  -3   6   6  417.12    9.59   0
  -1   3  11    4.58    4.98   0
  -4   5  36  285.92    9.65   0
  -4   7  -5   -0.70    5.97   0
  -4   7  10  371.32    9.59   0
  -3   6   9    5.37    5.19   0
  -7   9 -10  139.85    8.05   0
  -6   7  35   -3.63    6.75   0
  -4   7  13    7.69    6.84   0
  -3   6  -6  421.40   10.11   0
  -3   6  12  696.03   12.06   0
  -7   9  17    0.80    7.08   0
  -6   8  25    7.70    6.97   0
  -5   6  37   -2.86    6.62   0
  -5   8  -1    0.62    7.04   0
  -5   8   5   -4.31    5.89   0
  -5   8   8  404.33   10.74   0
  -4   6  29   -4.31    5.52   0
  -4   7  -8  477.27   10.95   0
  -3   4  35    4.26    5.64   0
  -3   5  28  370.52    9.88   0
  -2   4 -18  949.39   15.61   0
  -1   3  14 1657.17   18.15   0
  -7   9 -13   -0.57    6.40   0
  -5   8  -4  237.70    9.36   0
  -5   8  11    0.30    7.12   0
  -4   7  16  385.17   10.50   0
  -3   6  -9    3.71    5.32   0
  -3   6  15   -6.56    5.88   0
  -2   3  31   -0.87    5.06   0
  -2   4  24 1694.11   17.56   0
  -2   5   2  766.06   12.47   0
  -2   5   5    3.17    5.30   0
  -7   8  33   -5.00    7.13   0
  -7   9  20  109.49    8.17   0
  -5   7  30   74.33    8.07   0
  -5   8  -7    3.16    6.62   0
  -4   7 -11   -1.41    5.78   0
  -2   5  -1    1.62    4.38   0
  -2   5   8 2119.86   18.92   0
  -5   8  14  131.79    7.97   0
  -2   5  11   -0.34    5.78   0
  -1   2  24 1760.38   20.22   0
  -4   7  19    4.61    6.79   0
  -3   6  18  398.97    9.63   0
  -1   3  17    4.79    4.89   0
  -7   9  23   -3.84    6.81   0
  -6   7  38   40.12    7.19   0
  -5   8 -10  188.19    8.47   0
  -4   5  39   -1.58    6.13   0
  -4   6  32  289.27    9.13   0
  -3   6 -12  649.17   11.72   0
  -2   5  -7    3.72    4.94   0
  -2   5  14  371.01    9.56   0
  -6   9   0  251.79    9.60   0
  -6   9   6  151.48    8.21   0
  -6   9   9    1.58    6.97   0
  -4   7 -14  320.89    9.50   0
  -3   5  31    0.64    6.00   0
  -2   4  27    4.80    5.37   0
  -6   9  -3   -2.40    7.12   0
  -6   9  12  123.24    8.29   0
  -5   6  40  167.92    8.85   0
  -5   7  33  -12.84    6.88   0
  -5   8  20  201.93    9.12   0
  -4   7  22  147.31    7.74   0
  -3   6  21   -2.83    5.48   0
  -6   8  31   -1.35    6.77   0
  -6   9  -6   67.04    7.04   0
  -5   8 -13   -0.90    6.18   0
  -2   5  17    1.55    4.85   0
  -6   9  15   -4.87    7.37   0
  -3   4  38  144.42    7.74   0
  -3   6 -15    1.23    5.03   0
  -2   5 -10  671.95   11.75   0
  -6   9  -9   -1.75    6.24   0
  -5   8  23    1.47    6.89   0
  -4   6  35   10.52    6.78   0
  -4   7 -17   -0.43    5.53   0
  -4   7  25   -0.54    6.59   0
  -3   6  24  563.42   11.63   0
  -2   3  34  546.77   11.78   0
  -6   7  41    4.25    7.36   0
  -6   9  18   79.94    8.36   0
  -5   8 -16  332.87   10.22   0
  -2   5  20  563.22   11.25   0
  -5   7  36  218.22    9.86   0
  -3   5  34  390.48   10.41   0
  -2   4  30  186.63    8.01   0
  -1   2  27   -1.21    4.20   0
  -6   8  34   89.99    8.37   0
  -6   9 -12  141.10    7.78   0
  -6   9  21    0.64    7.20   0
  -2   5 -13   -0.96    4.78   0
  -1   4   1    5.07    5.05   0
  -1   4   4 1305.82   15.38   0
  -1   4   7    3.86    4.67   0
  -3   6 -18  376.61   10.24   0
  -1   3  23   -2.52    4.73   0
  -1   4  10 1098.32   14.55   0
  -1   4  -2  846.97   12.88   0
  -6   9  24  175.52    8.76   0
  -4   6  38   87.06    7.75   0
  -4   8   0  457.00   11.14   0
  -4   8   6  169.57    7.83   0
  -4   8   9  -10.00    6.54   0
  -3   7   2  202.48    7.82   0
  -3   7   5    2.89    5.51   0
  -3   7   8  507.77   11.21   0
  -1   4  13    3.23    4.69   0
  -4   8  -3    0.29    6.83   0
  -4   8  12  218.58    9.38   0
  -3   7  11   -0.54    5.72   0
  -6   8  37   -2.95    6.68   0
  -5   7  39    3.19    7.17   0
  -4   7  31   -1.46    6.76   0
  -4   8  15    2.15    7.42   0
  -3   5  37   -5.85    6.16   0
  -3   7  -4  615.58   11.79   0
  -3   7  14  336.71    9.84   0
  -1   4  16 2080.89   19.35   0
  -6   9  27   -6.25    6.88   0
  -5   9   1   -4.69    6.68   0
  -5   9   7    5.13    7.17   0
  -5   9  10   98.50    8.45   0
  -4   8  -6  171.78    8.30   0
  -2   3  37   -0.16    5.32   0
  -2   4  33   -0.34    4.73   0
  -2   5 -16 1671.54   19.11   0
  -5   9  -2  144.04    8.26   0
  -5   9  13   10.59    7.46   0
  -4   8  18  163.65    8.84   0
  -3   7  -7    1.52    6.03   0
  -3   7  17    1.39    6.77   0
  -2   6   1    2.43    5.53   0
  -2   6   4  839.98   12.64   0
  -2   6   7   -8.78    5.16   0
  -2   6  10  318.82    9.46   0
  -1   3  26  487.90   10.33   0
  -5   8  32  170.95    8.91   0
  -1   2  30  567.70   12.18   0
  -1   4  -8 2606.89   22.89   0
  -1   4  19   -1.92    5.20   0
  -5   9  -5    8.42    6.55   0
  -5   9  16  285.65   10.14   0
  -4   8  -9   -4.24    5.56   0
  -3   7  20  377.79   10.40   0
  -2   6  13    2.38    5.40   0
  -4   6  41    8.41    6.59   0
  -4   7  34  146.63    8.90   0
  -4   8  21    5.41    6.19   0
  -3   7 -10  355.01    9.83   0
  -2   5  29    2.39    5.95   0
  -2   6  -5    1.93    5.56   0
  -2   6  16  694.22   12.22   0
  -5   9  -8  317.27    9.79   0
  -3   6  33    2.28    5.73   0
  -6  10   2   58.25    7.10   0
  -5   7  42  105.27    7.78   0
  -4   8 -12  212.67    8.63   0
  -4   8  24  307.88   10.17   0
  -3   7  23   -0.89    7.06   0
  -2   6  19    8.10    6.44   0
  -6  10  -1   -0.13    6.20   0
  -5   8  35    5.42    7.39   0
  -5   9  22   55.29    7.73   0
  -3   5  40  379.83   10.57   0
  -2   4  36  331.18    9.76   0
  -2   5 -19    0.65    5.00   0
  -2   6  -8  778.35   12.88   0
  -1   3  29    0.56    5.08   0
  -1   4 -11    6.10    4.54   0
  -5   9 -11    4.65    6.37   0
  -3   7 -13    4.34    5.57   0
  -4   7  37    4.64    6.54   0
  -4   8  27   -0.98    7.14   0
  -3   7  26  147.49    8.16   0
  -2   5  32  634.09   12.30   0
  -2   6  22  326.87    9.65   0
  -5   9  25    2.94    7.36   0
  -4   8 -15    3.29    6.13   0
  -3   6  36  263.75    9.66   0
  -1   4  25   -1.06    5.41   0
  -1   5   3    0.97    5.61   0
  -1   5   6  339.52    8.78   0
  -1   5   9    9.50    5.03   0
  -2   6 -11   -4.51    5.31   0
  -1   5   0 1327.68   15.82   0
  -1   5  12 1098.90   14.06   0
  -5   8  38   41.76    7.17   0
  -2   6  25    2.21    6.13   0
  -1   2  33    1.48    4.45   0
  -1   5  15   -1.72    5.60   0
  -5   9  28   65.03    7.66   0
  -3   7 -16  365.09   10.09   0
  -1   4 -14  649.17   12.57   0
  -3   8   7   -1.96    6.82   0
  -1   3  32 1126.55   15.71   0
  -1   5  18  697.74   12.04   0
  -4   7  40  131.98    8.19   0
  -4   9   8  328.40   10.09   0
  -4   9  11    0.05    6.95   0
  -3   8  10  168.26    8.06   0
  -3   8  13   -5.64    7.03   0
  -2   4  39   -0.52    5.34   0
  -2   5  35   -4.33    5.79   0
  -2   6 -14  263.61    8.74   0
  -1   4  28  641.52   11.52   0
   0   3   6 2084.65   19.79   0
   0   3   9   -3.32    4.38   0
  -4   9  14   62.56    7.83   0
  -3   6  39    2.93    6.53   0
  -3   8  -2  207.49    8.92   0
  -1   5  -6  806.65   12.59   0
   0   2  19   -1.44    3.75   0
   0   3   3    3.92    4.24   0
   0   3  12 2057.10   19.69   0
  -4   8  33   -5.40    6.71   0
  -4   9  -1   -9.46    6.43   0
  -3   7  32  245.11    8.68   0
  -3   8  16  358.15   10.01   0
  -2   7   6  397.00   10.26   0
  -2   7   9   -3.97    6.32   0
  -1   5  21    3.51    5.22   0
   0   3   0 2633.28   22.87   0
  -4   9  17   -3.02    6.81   0
  -3   8  -5   -1.09    6.71   0
  -3   8  19   -3.76    7.06   0
  -2   7   3   -1.00    5.51   0
  -2   7  12  372.45    9.69   0
   0   3  15    2.69    4.32   0
  -5  10   3    1.99    6.40   0
  -5  10   6   74.61    7.85   0
  -4   9  20  103.04    8.14   0
  -2   7  15   -2.07    5.93   0
  -5  10   0  175.36    8.34   0
  -3   8  22   98.53    8.24   0
  -2   6  31    0.16    6.56   0
  -2   7  -3    1.73    6.09   0
  -2   7  18  138.75    8.48   0
  -1   4  31   -0.17    5.47   0
  -1   5  -9    0.96    4.33   0
  -4   7  43    0.90    7.37   0
  -4   9  -7   -5.50    6.76   0
  -4   9  23   -0.83    7.62   0
  -3   7  35   -5.05    6.71   0
  -3   8  -8  404.21   10.60   0
  -2   5  38   77.04    7.17   0
  -2   6 -17   -1.56    5.66   0
   0   3  -3   -2.60    3.99   0
   0   3  18  499.45   10.19   0
  -5  10  -3    4.29    6.51   0
  -4   8  36  101.54    7.69   0
  -3   6  42  136.70    9.16   0
  -2   7  21   -1.02    6.99   0
  -1   3  35    2.33    4.87   0
  -1   4 -17    1.04    4.24   0
  -3   8  25   -1.19    7.29   0
  -2   7  -6  143.27    7.05   0
  -5  10  -6   49.82    7.08   0
  -4   9  26  100.62    8.21   0
  -3   8 -11    5.65    6.08   0
  -1   5 -12  883.71   13.80   0
  -1   6   5    4.91    5.80   0
  -1   6   8  748.17   12.21   0
  -1   6  11    8.35    6.02   0
  -2   6  34  149.05    7.73   0
  -2   7  24  401.65   10.99   0
  -1   6   2  316.71    9.30   0
  -1   6  14  372.77    9.93   0
   0   4   5   -1.31    5.37   0
   0   4   8 1516.43   16.30   0
   0   4  11    1.89    5.52   0
  -3   7  38  111.06    8.32   0
  -3   8  28  139.07    8.86   0
  -2   7  -9   -3.22    6.07   0
  -1   4  34  453.66   10.80   0
  -1   6  17   -5.34    6.68   0
   0   2  25   -3.25    4.40   0
   0   4   2 1417.19   16.25   0
   0   4  14  312.91    9.03   0
  -4   8  39   -2.35    7.06   0
  -4   9  29   -5.60    6.82   0
  -2   5  41    1.06    6.13   0
  -2   7  27    4.12    7.20   0
  -1   5  30  149.46    7.29   0
   0   3  24 1493.60   16.96   0
   0   4  -1    1.13    5.14   0
   0   4  17   -5.96    5.62   0
  -3   8 -14  110.98    7.66   0
  -1   6  -4  670.05   11.62   0
  -2   6  37   -1.74    6.73   0
  -1   3  38  285.35    9.49   0
  -1   5 -15    4.21    5.43   0
   0   4  20 1275.80   15.49   0
  -3   9   9    5.68    6.88   0
  -3   9  12  162.73    8.77   0
  -1   6  23   -0.33    5.68   0
   0   3  -9    6.09    4.21   0
  -3   7  41    6.31    6.60   0
  -3   9   3   -6.41    6.76   0
  -3   9  15    3.19    6.92   0
  -1   4  37    2.76    5.53   0
  -1   5  33   -1.69    6.20   0
  -1   6  -7   -2.34    4.76   0
   0   3  27    7.49    4.92   0
  -3   8  34  107.54    8.11   0
  -3   9   0  260.99    9.35   0
  -3   9  18  158.52    8.96   0
  -2   8   8  364.43    9.87   0
  -2   8  11    3.92    6.37   0
  -2   8  14   90.36    8.47   0
  -1   4 -20  768.87   14.89   0
   0   2  28 1020.26   15.30   0
  -3   9  -3    0.79    6.49   0
  -3   9  21   -2.34    7.04   0
  -2   6  40  218.46    9.40   0
  -2   7 -15    0.25    5.65   0
  -2   7  33    5.26    6.95   0
  -2   8  -1    4.24    6.86   0
  -1   6 -10  420.12   10.27   0
   0   4  -7    0.16    4.81   0
   0   5  10  687.70   12.13   0
  -2   8  20  167.85    8.96   0
   0   5   4 1103.42   14.53   0
   0   5   7   -5.11    5.11   0
   0   5  13   -8.03    5.39   0
  -3   9  -6  151.54    8.42   0
  -3   9  24  145.18    8.53   0
  -2   8  -4  199.61    8.87   0
   0   4  26  690.07   11.71   0
   0   5  16  657.71   11.53   0
  -3   7  44  101.03    8.09   0
  -3   8  37   -4.20    7.11   0
  -2   8  23    1.88    7.08   0
  -1   5 -18  350.80    9.80   0
  -1   5  36  389.89    9.97   0
  -1   7   4  233.43    8.71   0
  -1   7   7    4.61    5.65   0
  -1   7  10  204.37    8.16   0
   0   3  30  514.52   10.96   0
   0   5   1    4.61    4.91   0
  -2   7  36  143.81    8.80   0
  -1   4  40  401.12   10.89   0
  -1   7  16  537.54   11.08   0
   0   3 -12 2451.83   24.05   0
   0   5  19    0.09    5.27   0
  -3   9  -9    5.44    7.11   0
  -3   9  27    7.19    7.32   0
  -2   8  -7   -8.49    6.14   0
  -2   8  26  161.18    8.94   0
  -1   6 -13   -0.07    5.42   0
  -1   7  19    2.93    6.65   0
   0   2  31    1.04    4.48   0
   0   4 -10  381.12    9.68   0
  -1   6  32  335.89    9.52   0
  -1   7  -2  300.55    9.37   0
   0   4  29    2.45    4.82   0
   0   5  22  200.76    7.81   0
  -2   6  43    8.45    6.68   0
  -1   7  22  126.55    8.46   0
  -1   5  39   -2.07    6.21   0
   0   5  -5    4.04    4.54   0
  -2   7  39    1.44    7.25   0
  -2   8 -10  157.16    8.27   0
  -1   7  -5    0.28    6.33   0
  -1   7  25    2.12    6.93   0
   0   3  33    0.57    5.00   0
  -1   6  35    0.70    6.87   0
   0   4  32  432.66   10.42   0
  -1   6 -16  563.71   11.64   0
   0   5  -8  940.12   13.82   0
   0   6   9    7.07    6.20   0
   0   6  12  313.35    9.64   0
  -2   8  32  147.35    8.17   0
  -1   7  -8  575.84   11.87   0
   0   4 -13    4.50    4.84   0
   0   6   6  335.00    9.37   0
   0   6  15    0.52    6.68   0
   1   2   8 3411.98   25.51   0
   1   2  11    3.01    4.17   0
   1   3  10 1134.48   14.66   0
  -2   8 -13    6.97    5.86   0
  -2   9  10  134.80    8.18   0
  -2   9  13    2.80    7.12   0
   0   2  34  250.40    8.94   0
   0   6   3    3.33    5.47   0
   0   6  18  229.87    9.27   0
   1   2   5    4.96    4.75   0
   1   2  14 1593.08   17.51   0
   1   3   7    5.24    4.52   0
   1   3  13    0.21    4.63   0
  -2   9   4  166.30    8.54   0
  -2   9  16  132.80    8.43   0
   1   3   4 1303.60   15.35   0
   1   3  16 2049.87   18.82   0
  -2   7  42   73.34    7.45   0
  -2   8  35    1.72    7.06   0
  -2   9   1    3.57    7.14   0
  -2   9  19    5.14    6.89   0
   0   3  36  486.31   11.39   0
   0   5  31    1.83    6.42   0
   0   6  21    3.37    5.93   0
  -1   7 -11   -4.07    5.86   0
  -1   8   9   -4.54    7.29   0
  -1   8  12  172.46    9.09   0
   0   4  35   -1.07    5.03   0
   0   5 -11    4.25    5.27   0
   1   2   2  670.21   12.12   0
   1   3   1    4.87    5.06   0
   1   3  19    1.40    4.65   0
  -2   9  -2   55.84    7.26   0
  -2   9  22   45.06    7.82   0
  -1   8  15    3.09    7.32   0
   0   6  -3   -4.77    5.17   0
   0   6  24  517.39   11.13   0
   1   4   9    0.79    4.95   0
   1   4  12 1128.53   14.15   0
   1   4   6  350.65    8.83   0
   1   4  15    2.93    5.06   0
  -2  -4  20  573.66   12.53   0
  -2  -3  19    2.67    5.86   0
  -1  -3  29    1.41    6.50   0
  -1  -2  25   -7.21    6.20   0
   0  -6  36  160.90    9.58   0
   1  -2  33    3.11    5.17   0
   2  -2  34  270.93    9.77   0
  -2  -5  18  335.30   10.81   0
   0  -4  37   -6.22    6.71   0
   1  -5  42  148.08    9.74   0
   1  -4  41   -2.06    7.63   0
  -1  -6  29    1.70    8.03   0
  -1  -5  31   -1.52    6.55   0
  -1  -1  18 1177.96   16.38   0
   0  -5  38  167.97   10.17   0
   1  -1  26 1087.06   16.74   0
  -1  -7  24  212.36   10.04   0
   1  -7  41   -6.56    7.94   0
   2  -7  45    7.09    7.96   0
  -2  -5  21    7.08    7.00   0
  -2  -4  23    2.23    6.84   0
   0  -2  32  646.63   12.25   0
   1  -6  43   10.43    8.49   0
   2  -5  46   44.94    9.08   0
   3  -6  48  117.80    9.54   0
  -2  -6  16  288.34   11.01   0
  -1  -4  33   -0.18    6.65   0
   0  -1  25    4.26    5.49   0
   2  -3  41    3.39    6.95   0
   4  -6  49  -11.12    7.96   0
  -1  -3  32  812.27   13.52   0
  -1  -2  28 1281.30   16.16   0
   0  -6  39   -9.68    7.92   0
   2  -4  45    1.37    7.80   0
   2  -1  27    1.05    5.29   0
  -1  -7  27   -1.18    7.26   0
  -1  -5  34  201.40   10.00   0
   0  -7  37  -13.78    8.30   0
   0  -4  40  389.21   11.61   0
   3  -2  35   -0.86    6.02   0
  -2  -6  19    1.41    7.03   0
  -2  -5  24  280.20   10.38   0
  -1  -1  21    6.48    4.92   0
   1  -5  45    7.42    8.42   0
   1  -2  36  810.30   13.87   0
   3  -4  46   64.19    8.73   0
  -2  -2  21   -7.35    5.73   0
   1  -7  44   90.14    9.38   0
   2  -2  37   -1.33    6.04   0
   3  -3  42  216.50    9.72   0
  -1  -4  36  286.97   10.50   0
   0  -3  39   -1.91    7.29   0
   1  -6  46   42.11    8.83   0
   1  -1  29   -0.45    5.27   0
  -1  -7  30   65.47    7.82   0
   0  -2  35    0.18    5.58   0
  -2  -6  22   92.34    8.62   0
  -2  -5  27    0.08    7.33   0
  -1  -5  37   -1.70    7.92   0
  -1  -3  35    1.78    6.31   0
  -1  -2  31   -2.68    5.65   0
   0  -6  42  109.10    9.56   0
   0  -1  28 1289.32   16.81   0
   2  -5  49   -0.35    8.44   0
   3  -6  51   -0.62    8.38   0
  -2  -3  28  358.58   10.41   0
  -2  -2  24 1747.62   18.87   0
  -1  -1  24 1802.31   19.19   0
   0  -7  40  140.45    9.50   0
   1  -3  43    2.86    6.79   0
   2  -6  50   85.34    8.88   0
   2  -3  44  301.72   10.81   0
  -2  -1  14 1549.91   18.86   0
   0  -5  44  151.53    9.98   0
   0  -4  43    4.05    6.86   0
   2  -4  48  275.34   11.25   0
  -3  -3   9    2.55    5.64   0
  -2  -6  25   -2.88    7.05   0
   1  -5  48  167.45    9.49   0
   1  -2  39    0.94    6.48   0
  -3  -4  13    6.81    6.78   0
  -3  -3  12  679.34   13.42   0
  -2  -5  30   61.29    8.31   0
  -1  -7  33    3.50    7.72   0
  -1  -4  39    7.39    6.68   0
   0  -3  42  281.82   10.55   0
   2  -1  30  561.64   13.20   0
  -2  -1  17    2.30    5.20   0
  -1  -5  40  167.05   10.28   0
  -1  -3  38  151.42    8.89   0
  -1  -2  34  567.66   12.03   0
   0  -2  38  225.66    9.42   0
   1  -6  49   -5.56    7.97   0
   3  -4  49   -1.48    7.84   0
  -3  -4  16  387.95   10.98   0
  -3  -3  15   -0.94    5.88   0
  -2  -3  31    5.84    6.21   0
  -2  -2  27    3.72    5.51   0
  -1  -1  27    0.61    6.00   0
   0  -6  45   -7.82    7.35   0
   1  -1  32 1705.67   20.25   0
   2  -2  40  757.43   14.63   0
   3  -3  45    2.89    7.45   0
  -2  -6  28  132.08    9.20   0
   2  -5  52  111.62    9.95   0
  -3  -3  18  385.13   10.70   0
  -3  -2   8 2096.95   22.76   0
  -2  -5  33    4.06    7.99   0
   0  -5  47   -3.04    8.09   0
   1  -3  46  110.11    9.03   0
   2  -6  53    6.02    7.58   0
  -3  -2   5    1.07    5.08   0
  -3  -2  11   -3.38    5.74   0
  -2  -1  20 1410.04   16.99   0
  -1  -4  42  155.80    9.24   0
   2  -3  47    6.01    7.36   0
   3  -5  53   -1.41    7.68   0
  -3  -2  14  371.15   10.32   0
  -2  -4  35   -6.47    7.69   0
  -2  -2  30  188.76    8.88   0
  -1  -6  41   -5.39    7.71   0
   2  -4  51    0.61    8.17   0
  -3  -3  21   -0.71    5.42   0
  -2  -6  31    8.62    7.76   0
  -1  -5  43    3.66    8.27   0
  -1  -3  41   -6.87    6.50   0
  -1  -2  37   -2.88    6.05   0
  -1  -1  30  596.81   11.99   0
   1  -4  50  149.74    8.69   0
   1  -2  42  294.68   10.46   0
  -3  -2  17    3.57    5.73   0
  -2  -1  23   -0.88    5.99   0
   0  -6  48   83.36    8.23   0
  -3  -5  20  180.54    9.27   0
  -2  -5  36  205.55   10.17   0
   2  -1  33   -1.14    5.16   0
  -3  -4  25   -5.58    6.97   0
   0  -5  50   59.47    9.38   0
   0  -4  49  -10.78    8.09   0
   1  -1  35   -2.41    4.96   0
   3  -4  52  147.81    9.20   0
  -3  -2  20  531.03   11.23   0
  -2  -6  34   81.51    8.64   0
  -2  -4  38   79.63    7.70   0
  -2  -3  37    2.49    7.58   0
  -2  -2  33    0.61    5.88   0
  -1  -6  44   93.34    9.11   0
  -1  -4  45   -6.44    7.45   0
   2  -5  55   -7.85    7.80   0
   2  -2  43    4.01    6.45   0
  -3  -5  23    3.45    7.09   0
  -2  -1  26  505.92   10.87   0
  -1  -5  46   42.34    8.56   0
  -1  -3  44  245.91   10.45   0
  -1  -2  40  437.39   11.49   0
  -1  -1  33    6.85    6.43   0
   1  -3  49   -9.99    6.95   0
  -3  -4  28  308.55   10.95   0
  -3  -3  27   -6.19    5.83   0
  -3  -2  23    0.47    6.39   0
   1  -5  54   41.13    7.69   0
   3  -5  56   78.91    9.70   0
  -3  -5  26  154.13    9.85   0
   1  -4  53   -1.11    8.43   0
   1  -2  45    2.39    6.51   0
   2  -4  54   30.56    8.47   0
   2  -3  50  150.62    9.44   0
  -2  -6  37   -2.32    7.09   0
  -2  -4  41   -5.82    7.83   0
  -2  -2  36  355.78   10.47   0
   0  -1  37   -4.64    5.32   0
  -3  -3  30  155.58    9.03   0
  -2  -3  40  402.35   10.82   0
  -2  -1  29    0.61    5.57   0
  -1  -4  48  175.85   10.53   0
  -1   0  20 1531.58   19.01   0
  -3  -4  31   -0.81    6.42   0
   0  -4  52  116.90    9.05   0
   1  -1  38  240.09    9.37   0
   2  -1  36  835.81   15.83   0
  -3  -5  29   -1.54    7.51   0
  -3  -1  10 1059.10   16.06   0
  -3  -1  13   -0.85    5.55   0
  -1  -5  49    0.96    7.96   0
  -1  -3  47    8.00    7.61   0
  -1  -2  43    6.57    6.45   0
  -1  -1  36  846.31   13.64   0
  -3  -1  16 1938.12   19.98   0
  -1   0  23   -2.64    5.56   0
   2  -5  58   86.51    8.45   0
   2  -2  46  228.33    9.77   0
  -3  -4  34  138.73    9.04   0
  -3  -1   7    2.12    4.86   0
  -2  -4  44  171.84    9.97   0
  -2  -2  39   -0.47    6.38   0
  -2  -1  32 1124.04   15.11   0
   1  -5  57    1.71    8.26   0
  -3  -5  32  162.80    9.07   0
   0  -2  47   -1.10    6.35   0
   0  -1  40  701.05   12.98   0
   1  -4  56  107.44    9.28   0
   1  -2  48  291.44   10.66   0
  -3  -2  32  640.69   12.92   0
  -1  -4  51   -2.22    8.07   0
   0   0  27    0.74    5.13   0
   2  -4  57   -1.15    8.20   0
   2  -3  53   -0.80    7.53   0
  -2  -5  45   -6.38    7.68   0
  -1  -2  46  118.13    8.93   0
  -1  -1  39   -5.24    5.92   0
  -1   0  26 1155.84   15.79   0
  -3  -5  35   -1.51    7.73   0
  -3  -4  37   -1.33    7.46   0
  -3  -1  25    5.62    5.81   0
  -2  -2  42  355.94   11.18   0
  -2  -1  35    0.56    5.87   0
  -2   0  13    0.25    4.38   0
  -2   0  16 2886.37   25.09   0
  -1  -3  50  155.60   10.32   0
   1  -1  41   -1.92    5.46   0
  -2  -4  47   -0.67    7.88   0
  -2   0  19    1.75    4.79   0
   2  -1  39    1.14    6.05   0
  -3  -2  35   -4.03    7.34   0
  -2  -3  46   48.99    7.49   0
   0  -3  54   77.19    9.16   0
   1  -3  55    1.98    7.61   0
  -4  -3  17    5.20    6.24   0
  -3  -3  39    2.42    7.66   0
  -3  -1  28  659.00   12.09   0
  -2   0  22 1848.50   19.27   0
  -1   0  29   -1.63    4.87   0
   0  -2  50  183.11    9.77   0
   0  -1  43    1.07    5.55   0
   0   0  30  159.21    7.40   0
   2  -2  49   -2.06    6.57   0
  -4  -3  20  379.44   11.00   0
  -3  -5  38   36.31    7.49   0
  -3  -4  40  121.13    8.99   0
  -2  -1  38  303.57    9.52   0
  -1  -4  54   32.93    8.53   0
  -1  -1  42  302.96    9.48   0
   1  -4  59    0.91    8.22   0
   1  -2  51   -6.70    7.50   0
  -4  -3  23    3.48    6.63   0
  -2  -2  45   -7.33    7.40   0
  -2   0  25   -4.95    5.15   0
  -1  -2  49    5.86    7.63   0
   1   0  28 1274.58   18.84   0
  -4  -2  13    0.74    5.58   0
  -4  -2  16  686.41   13.27   0
  -4  -2  19   -1.28    6.10   0
  -3  -2  38   82.40    7.42   0
  -3  -1  31    4.77    5.72   0
  -2  -4  50   95.88    8.73   0
  -1   0  32 1717.97   19.00   0
   0  -4  58   40.80    8.43   0
   1  -1  44  417.11   11.46   0
   2  -4  60   87.97    9.64   0
   2  -3  56  151.82    9.53   0
  -4  -4  24  255.70   10.13   0
  -4  -3  26  137.44    8.68   0
  -4  -2  22  341.77   10.38   0
  -3  -3  42  124.28    9.15   0
  -2   0  28 1098.80   15.22   0
   0   0  33   -4.44    5.38   0
  -2  -1  41   -1.84    7.03   0
  -4  -4  27    5.95    7.11   0
  -4  -3  29    0.28    7.17   0
  -4  -2  25    0.57    6.64   0
  -3  -1  34  482.32   10.93   0
   0  -3  57   -0.80    7.82   0
   0  -2  53   -5.18    7.85   0
   0  -1  46  102.10    7.62   0
   1  -3  58   87.36    9.43   0
  -3  -2  41   -7.88    6.63   0
  -2  -2  48  276.35   10.72   0
  -2   0  31   -1.51    5.92   0
  -1  -4  57   -8.34    7.57   0
   1   0  31    0.32    5.11   0
  -4  -4  30   73.01    7.70   0
  -4  -3  32  240.98   10.22   0
  -4  -2  28  384.54   10.23   0
  -3  -3  45    4.84    8.23   0
  -3  -1  37   -5.51    6.80   0
  -2  -4  53    6.40    8.33   0
  -2  -3  52  108.71    9.72   0
  -1  -3  56   97.64    9.30   0
   0   0  36  573.64   12.30   0
   1  -2  54   84.55    8.78   0
  -4  -4  33    1.66    7.44   0
  -4  -2  31    8.44    7.16   0
  -3   0  18  484.24   10.76   0
  -3   0  21    1.67    5.75   0
  -2  -1  44  284.93    9.67   0
   1  -1  47    3.49    6.37   0
  -4  -3  35    1.81    7.27   0
  -4  -1  18  680.14   12.99   0
  -4  -1  21   -2.05    5.93   0
  -3  -2  44  204.28    9.06   0
  -3   0  24 1551.86   17.85   0
  -2   0  34  257.30    8.72   0
  -4  -2  34  162.45    9.05   0
  -4  -1  15    1.99    5.54   0
  -4  -1  24  613.43   12.28   0
  -2  -2  51   -6.80    7.89   0
   0  -1  49    2.74    7.18   0
   1   0  34  907.29   15.67   0
  -4  -4  36   98.12    8.20   0
  -4  -1  12 1074.57   16.07   0
  -4  -1  27    1.49    6.73   0
  -3  -3  48  102.97    9.07   0
  -3  -1  40  417.83   10.76   0
  -3   0  27   -1.31    5.24   0
   0  -3  60  128.25    9.94   0
   0  -2  56   95.21    9.28   0
  -4  -3  38  108.11    8.60   0
  -2  -3  55    3.22    8.13   0
  -2  -1  47   -0.77    7.76   0
  -2   0  37   -1.31    5.78   0
   0   0  39    1.72    6.07   0
   1  -3  61    6.36    7.49   0
  -3  -2  47    8.78    7.84   0
  -3   0   9    1.09    5.02   0
  -3   0  30  536.03   11.08   0
  -4  -4  39   -1.06    7.48   0
  -4  -1   9   -1.40    5.34   0
  -3  -1  43    1.62    7.76   0
   1  -2  57   -3.32    7.27   0
  -4  -3  41    5.49    7.66   0
  -3   0  33    7.08    5.70   0
  -1  -1  51   -6.09    6.43   0
   1  -1  50  243.38   10.01   0
   1   0  37   -2.53    5.28   0
  -3  -3  51    3.63    7.17   0
  -2  -2  54   30.81    7.59   0
  -2   0  40  716.19   12.70   0
   0  -1  52  272.55   10.46   0
  -3  -2  50  130.97    9.78   0
  -2  -1  50  148.67    9.12   0
   0  -2  59   -7.16    8.38   0
   0   0  42  686.79   13.52   0
  -4  -1  36  438.15   10.84   0
  -3  -1  46   66.30    8.69   0
  -3   0  36  480.59   10.99   0
  -2  -3  58   76.58    8.66   0
  -1  -2  58   74.36    8.24   0
  -1   0  44  393.82   11.13   0
   0  -3  63    0.05    7.47   0
  -4  -3  44  106.42    8.60   0
  -2   0  43   -0.53    7.15   0
  -3  -3  54   32.80    7.94   0
  -1  -1  54   92.36    9.19   0
   1   0  40  701.45   14.36   0
  -4  -1  39   10.22    6.43   0
  -3   0  39    4.37    6.14   0
  -2  -2  57    9.57    8.01   0
   1  -1  53    2.20    7.54   0
  -4   0  20 1192.03   15.69   0
  -3  -2  53   11.41    7.82   0
  -2  -1  53   -0.60    7.75   0
   0  -1  55    3.46    7.28   0
   0   0  45   -1.77    6.42   0
  -5  -2  21   -3.22    6.65   0
  -5  -2  24  383.64   11.24   0
  -4  -3  47   -1.11    8.07   0
  -4  -2  46   91.57    8.46   0
  -4   0  17    3.60    4.81   0
  -4   0  29   -2.01    5.69   0
  -3  -1  49   -3.75    7.24   0
  -1   0  47   -0.04    6.71   0
  -5  -2  27    6.55    6.98   0
  -4  -1  42  186.99    8.79   0
  -3   0  42  218.24    8.90   0
  -2   0  46  227.79    9.16   0
  -2   1  21    3.69    5.70   0
  -2   1  24 1841.42   19.64   0
  -1  -2  61    0.18    7.81   0
  -1   1  22  452.26   11.21   0
  -1   1  25   -0.79    5.31   0
   0  -2  62   44.47    8.72   0
  -5  -3  31    0.77    6.71   0
  -5  -2  30  153.35    9.09   0
  -4   0  14  295.60    8.85   0
  -2   1  27   -1.19    5.05   0
  -1   1  19   -3.78    5.05   0
  -5  -2  33    0.13    7.30   0
  -4   0  35    0.81    6.66   0
  -2  -2  60   86.20    9.06   0
  -2   1  18 1192.24   16.33   0
  -2   1  30  588.86   11.62   0
  -1  -1  57    1.46    7.74   0
   1   0  43   -2.36    5.77   0
  -5  -3  34   93.90    8.46   0
  -4  -2  49    9.23    7.50   0
  -4  -1  45   12.06    8.12   0
  -3  -2  56   80.53    8.85   0
  -3  -1  52  168.35   10.21   0
  -3   0  45   -0.23    7.23   0
   0   0  48  426.32   11.64   0
  -5  -2  36  134.61    8.92   0
  -5  -1  20  450.15   11.34   0
  -5  -1  23    6.15    5.71   0
  -5  -1  26  210.64    9.41   0
  -5  -1  29   -0.31    7.04   0
  -4   0  11   -1.26    5.31   0
  -4   0  38  106.86    8.69   0
  -2   1  15    0.23    5.36   0
  -2   1  33    2.28    5.45   0
  -1   0  50  240.79   10.20   0
   0  -1  58  139.74    9.43   0
  -5  -3  37    7.18    6.65   0
  -5  -1  17   -2.20    6.69   0
  -5  -1  32  325.10   10.83   0
  -3   1  23   -0.65    5.03   0
  -3   1  26  518.35   10.87   0
  -1   1  34  890.61   14.48   0
  -5  -2  39    0.62    7.80   0
  -4  -1  48  112.83    9.41   0
  -3   1  20 1396.63   16.83   0
  -3   1  29    1.27    5.47   0
  -2   1  36  865.25   14.27   0
  -1  -2  64   56.50    8.01   0
  -5  -1  35   -1.62    7.24   0
  -4  -2  52   97.98    8.67   0
  -4   0  41    1.54    7.65   0
  -3  -1  55    4.89    8.14   0
  -3   0  48  282.42   10.85   0
  -3   1  32 1155.49   15.25   0
   0  -2  65   -1.59    8.58   0
   1   0  46  104.89    8.26   0
  -5  -1  14  355.61   10.80   0
  -3   1  17    5.08    4.76   0
  -1  -1  60  141.26    9.37   0
  -1   1  37   -1.77    5.06   0
   0   0  51    3.71    6.95   0
   0   1  26 1091.64   16.88   0
  -5  -2  42   80.09    8.23   0
  -5  -1  38  103.54    8.75   0
  -4   0   8 1472.26   19.07   0
  -3   1  35   -2.45    5.91   0
  -2   1  39   -0.24    5.82   0
  -1   0  53   -2.71    7.32   0
   0   1  29   -0.09    5.19   0
  -4  -1  51   -0.89    7.82   0
  -4   0  44  371.34   11.63   0
  -5  -1  41   -0.76    7.55   0
  -3   1  14 1543.82   18.29   0
  -1   1  40  701.40   12.77   0
   0  -1  61    4.37    7.23   0
   0   1  32 1575.33   19.26   0
  -5  -2  45    6.12    7.17   0
  -5   0  22  205.83    8.91   0
  -5   0  25    0.25    5.43   0
  -5   0  28  591.02   11.92   0
  -5   0  31    5.11    6.92   0
  -3  -1  58   82.07    8.63   0
  -4   0  47    6.22    7.86   0
  -4   1  25   -0.65    5.43   0
  -4   1  28  664.71   12.15   0
  -4   1  31    3.59    6.89   0
  -2   0  55    6.18    7.71   0
   0   1  35   -5.17    5.51   0
  -5   0  19    0.81    6.15   0
  -4  -1  54   47.56    8.04   0
  -4   1  22  334.80    9.34   0
  -4   1  34  481.40   11.66   0
  -2  -1  62   28.15    8.19   0
  -1  -1  63    4.97    7.58   0
  -1   0  56  166.74    9.79   0
  -1   1  43    2.58    6.25   0
   0   0  54   38.07    7.35   0
  -3   0  54   71.49    8.80   0
   0   1  38  245.73    9.30   0
  -5   0  16  644.33   12.93   0
  -4   1  37    4.81    7.36   0
  -3   1  11    6.79    4.39   0
  -3   1  44  284.88    9.79   0
  -5   0  40  186.96    9.80   0
  -4   0   5   -0.14    4.64   0
  -3  -1  61   -5.85    7.67   0
  -4   1  40  422.97   10.73   0
  -2   0  58   72.32    8.55   0
  -2   1  48  291.40   10.56   0
  -1   1  46  102.72    8.18   0
  -5   0  13   -2.99    6.30   0
  -5   0  43   -2.96    7.57   0
  -4  -1  57   -1.62    6.99   0
  -3   1  47    1.28    7.52   0
   0   1  41    3.04    5.82   0
  -4   0  53   -0.21    7.99   0
  -4   1  43   -0.79    7.24   0
  -3   0  57   -7.52    7.53   0
  -1   0  59    0.47    7.63   0
   0   0  57    3.68    6.89   0
  -6  -1  28  127.30    8.77   0
  -6  -1  31    1.87    7.30   0
  -4   1  13    0.52    4.65   0
  -3   1  50  152.35    9.51   0
  -2   1  51    3.83    7.48   0
  -1   1  49   -2.97    6.70   0
   0   1  44  409.43   11.36   0
  -6  -1  25    4.17    6.81   0
  -5   1  33    2.63    6.77   0
  -4   1  46   60.57    7.71   0
  -2   0  61   -0.27    7.69   0
  -6  -1  37    2.58    7.33   0
  -5   0  49   -8.83    8.35   0
  -5   1  24  612.86   11.86   0
  -5   1  36  440.63   11.45   0
  -4   0  56   51.95    8.75   0
  -5   0  10  651.89   13.20   0
  -5   1  21    0.37    5.85   0
  -5   1  39   -2.21    7.63   0
  -6  -1  40  159.20    9.54   0
  -4   1  49   -5.19    6.72   0
  -2   1  54   99.29    9.16   0
  -1   0  62   33.46    8.32   0
  -1   1  52  264.18   10.33   0
   0   1  47    0.00    6.22   0
  -6   0  27    3.83    7.00   0
  -6   0  30  117.07    8.86   0
  -6   0  33   -4.14    7.11   0
  -5   1  42  184.52    9.49   0
  -4   1  10 1061.00   15.96   0
  -3   2  28 1279.46   16.48   0
  -3   2  31   -4.74    5.59   0
  -6  -1  43   -3.36    7.65   0
  -6   0  24  548.45   12.51   0
  -6   0  36  128.86    8.95   0
  -5   0  52  121.33    9.53   0
  -5   1  18  695.14   12.47   0
  -4   0  59   -2.38    7.86   0
  -3   2  25    0.82    6.20   0
  -3   2  34  523.33   11.22   0
  -2   2  29   -0.61    5.97   0
  -6   0  39    0.80    7.45   0
  -5   1  45    1.46    7.82   0
  -4   1  52  160.94   10.15   0
  -3   0  63    1.52    7.43   0
  -3   2  37    0.52    5.98   0
  -2   2  26 1238.30   16.09   0
   1   1  33   -2.15    5.28   0
  -6   0  21   -1.02    6.02   0
  -4   2  30  202.39    9.07   0
  -4   2  33    4.70    6.62   0
  -3   2  22  459.98   10.44   0
  -3   2  40  400.47   11.30   0
  -6   0  42  111.35    8.95   0
  -5   0  55   -4.07    7.61   0
  -5   1  15   -0.28    5.88   0
  -4   2  27    3.67    5.70   0
  -4   2  36  351.01    9.96   0
  -2   1  57    3.05    8.04   0
  -2   2  23    1.89    4.86   0
  -1   1  55    0.46    7.45   0
  -5   0   7    1.50    5.28   0
  -5   1  48  134.10    9.69   0
  -4   1  55    3.55    8.23   0
  -4   2  24 1768.78   18.43   0
  -4   2  39   -6.48    7.42   0
  -3   2  43   -1.64    7.34   0
  -2   2  41   -0.53    6.62   0
  -1   0  65    2.61    7.11   0
  -6   0  18  241.12    9.48   0
  -6   0  45   -5.26    7.82   0
  -3   2  19    2.39    4.93   0
  -4   2  21    0.55    5.25   0
  -4   2  42  352.65   10.32   0
  -3   1  59    0.97    8.01   0
  -2   2  20 3395.86   26.46   0
  -2   2  44  605.74   12.89   0
  -6   0  48  107.24    8.65   0
  -6   1  29    1.20    7.21   0
  -6   1  32  349.68   10.20   0
  -6   1  35    8.35    7.80   0
  -5   1  51   -2.38    7.61   0
  -4   1   7    2.60    4.98   0
  -1   2  30  558.54   12.04   0
  -1   2  33    1.98    5.63   0
  -6   1  26  212.15    9.54   0
  -6   1  38  119.41    7.92   0
  -5   1  12 1082.79   15.96   0
  -5   2  32  649.31   12.94   0
  -5   2  35    0.63    7.43   0
  -4   1  58   81.19    9.08   0
  -4   2  45   -2.03    6.79   0
  -2   1  60  136.25    9.81   0
  -1   1  58  128.48    9.25   0
  -1   2  27    2.58    5.55   0
  -1   2  36  825.97   13.94   0
  -6   1  23   -0.09    6.66   0
  -5   2  26  588.02   12.35   0
  -5   2  29    8.28    6.01   0
  -5   2  38   82.49    8.23   0
  -4   2  18 1001.97   14.47   0
  -3   2  16 2000.12   20.31   0
  -2   2  47   -2.41    7.23   0
  -1   2  39    2.66    6.23   0
  -5   1  54   36.99    8.87   0
  -5   2  41    3.54    7.72   0
  -2   2  17   -0.55    4.69   0
  -1   2  24 1760.53   20.21   0
  -3   1  62   38.52    8.10   0
  -1   2  42  305.01   10.24   0
  -6   1  20  445.05   11.62   0
  -5   2  44  201.03   10.53   0
  -3   2  52  241.56   10.42   0
  -2   2  50  160.25    9.52   0
  -6   1  47   -1.27    7.22   0
  -5   1  57    0.18    7.68   0
  -4   1  61   -2.43    7.07   0
  -4   2  15   -0.39    5.66   0
  -4   2  51   -1.13    6.83   0
  -2   1  63   -4.65    8.17   0
  -1   1  61   -0.10    7.19   0
  -1   2  45   -2.76    6.61   0
  -5   1   9    0.59    5.37   0
  -5   2  47    4.09    8.47   0
  -3   2  13    2.33    5.68   0
  -6   1  17   -1.94    6.23   0
  -6   1  50   50.54    8.41   0
  -2   2  53   -0.89    7.67   0
  -7   0  35   -4.37    6.88   0
  -5   2  50  148.24    9.58   0
  -4   2  54   31.33    7.70   0
  -3   2  55   -4.68    7.76   0
  -2   2  14  337.58   10.25   0
  -1   2  48  296.10   10.58   0
  -7   0  38   16.72    7.72   0
  -6   2  37   -1.82    7.65   0
  -5   2  17   -1.61    6.06   0
  -4   1   4 1228.67   18.38   0
  -6   2  28  394.24   11.26   0
  -6   2  40  221.81   10.28   0
  -6   2  25    3.42    6.96   0
  -6   2  43    0.71    7.79   0
  -5   2  53   -6.39    7.70   0
  -3   2  58   93.17    9.59   0
  -2   2  56   87.97    8.46   0
  -1   2  51   -0.64    7.55   0
  -6   1  14  354.23   10.63   0
  -7   1  31    0.40    6.88   0
  -7   1  34  140.60    9.39   0
  -7   1  37    1.80    7.72   0
  -7   1  40  154.99    9.71   0
  -6   2  46   89.47    8.45   0
  -4   3  32  845.00   13.72   0
  -4   3  35   -1.29    6.29   0
  -4   3  38  150.85    9.19   0
  -7   1  28  133.30    8.55   0
  -6   2  22  317.79    9.82   0
  -5   2  14  350.09    9.63   0
  -5   2  56   80.25    8.95   0
  -4   3  29   -3.67    6.00   0
  -4   3  41   -0.15    6.69   0
  -3   2  10 1987.40   21.13   0
  -3   3  30  308.19    9.91   0
  -3   3  33    6.75    5.83   0
  -3   3  36  728.87   13.03   0
   0   2  34  260.77    9.68   0
   0   2  37    1.56    5.51   0
  -7   1  43   -3.83    7.59   0
  -6   2  49   -2.00    7.43   0
  -5   3  34  410.37   11.50   0
  -5   3  37    4.19    7.70   0
  -4   2  60   74.40    8.69   0
  -2   2  59   -1.56    8.02   0
  -1   2  54   88.86    8.44   0
   0   2  31   -3.05    5.21   0
  -7   1  25    4.25    7.13   0
  -5   3  31   -3.96    6.30   0
  -5   3  40  399.29   11.86   0
  -3   2  61    7.40    8.29   0
  -3   3  27   -3.77    5.45   0
  -6   1  11    1.80    6.38   0
  -6   2  19   -2.86    5.65   0
  -6   2  52   84.16    8.76   0
  -5   3  43   -1.87    8.14   0
  -4   3  47    1.37    8.25   0
  -3   3  45   10.20    6.49   0
  -2   2  11   -0.36    4.71   0
   0   2  28 1032.52   16.92   0
  -7   1  22  129.02    8.77   0
  -5   3  46   58.71    9.19   0
  -4   3  23    5.02    5.56   0
  -3   3  24 1048.99   15.36   0
  -5   3  25    4.04    5.83   0
  -3   3  48  167.65    8.82   0
  -2   3  34  544.41   12.26   0
  -2   3  37    0.72    6.59   0
  -7   2  33    2.09    7.41   0
  -7   2  36  140.16    9.61   0
  -7   2  39    4.76    7.51   0
  -5   2  11    1.03    4.91   0
  -5   3  49   -1.09    8.02   0
  -3   2  64   63.13    8.88   0
  -2   2  62   48.79    8.51   0
  -2   3  31   -1.28    6.06   0
  -2   3  40  413.48   10.82   0
   0   2  25   -0.32    4.73   0
  -7   2  30  159.84    9.74   0
  -7   2  42   72.78    8.51   0
  -6   2  16  680.44   13.35   0
  -6   3  33   -1.74    7.43   0
  -6   3  36  250.03   10.74   0
  -6   3  39    2.26    8.08   0
  -5   3  22  266.29    9.43   0
  -4   3  20  853.35   13.53   0
  -3   3  21   -0.88    6.09   0
  -3   3  51    4.69    7.70   0
  -2   3  43    8.90    7.07   0
  -7   2  27   12.31    7.45   0
  -7   2  45    6.44    7.50   0
  -6   3  30  156.68    8.90   0
  -6   3  42  135.72    9.93   0
  -2   3  46  119.75    8.79   0
  -6   3  45    1.40    8.08   0
  -5   3  52  109.84    8.89   0
  -7   2  24  398.97   11.64   0
  -3   2   7   -0.19    4.52   0
  -3   3  54   61.19    8.46   0
  -6   3  48  103.61    8.96   0
  -5   3  19    6.42    5.63   0
  -5   3  55    7.39    8.06   0
  -4   3  17   -1.31    5.43   0
  -4   3  56  113.24    9.05   0
  -2   3  49   -1.17    7.52   0
  -6   2  13   -2.82    6.11   0
  -5   1   3   -2.02    5.26   0
  -3   3  18 1266.93   16.29   0
  -7   2  21   -2.16    7.20   0
  -6   3  51   -7.70    7.54   0
  -5   2   8 2118.59   22.12   0
  -4   2   6  776.36   14.33   0
  -3   3  57    8.59    8.36   0
  -2   3  52  228.25   10.60   0
  -6   3  21   11.52    6.98   0
  -4   3  59    7.70    7.88   0
  -2   3  22  427.47   10.46   0
  -6   3  54   30.79    8.21   0
  -5   3  16 1703.72   18.63   0
  -7   3  32  263.72   10.60   0
  -4   3  14  680.11   12.95   0
  -7   2  18  146.87    8.40   0
  -7   3  29    5.57    7.76   0
  -3   3  15    1.00    5.95   0
  -2   3  55   -2.25    7.80   0
  -1   3  35    0.13    6.03   0
  -1   3  38  281.10   10.13   0
  -1   3  41    2.87    6.21   0
  -7   3  47    5.61    8.45   0
  -6   2  10  321.52   10.37   0
  -6   3  18  409.39   11.13   0
  -5   4  33   -7.16    7.89   0
  -5   4  36  308.60   11.12   0
  -5   4  39    1.00    8.15   0
  -5   4  42  146.01    9.84   0
  -4   4  40  383.81   11.73   0
  -1   3  32 1076.91   16.57   0
  -1   3  44  284.28   10.47   0
  -7   3  26  129.89    8.99   0
  -5   4  45   10.39    8.27   0
  -4   4  34  233.14    9.18   0
  -2   3  19    1.95    4.85   0
  -8   2  35   -1.20    7.02   0
  -5   4  30  260.73    9.54   0
  -4   4  31    1.65    6.33   0
  -1   3  29    0.23    5.95   0
  -1   3  47    1.04    6.60   0
  -8   2  32  146.09    9.43   0
  -6   4  35   -1.37    8.29   0
  -6   4  38   89.74    8.14   0
  -6   4  41   -5.03    8.45   0
  -5   4  27    2.13    6.97   0
  -5   4  48  179.18    9.96   0
  -4   4  28  605.87   12.63   0
  -8   2  29    1.48    6.94   0
  -7   2  15    5.97    6.49   0
  -7   3  23    0.19    6.44   0
  -6   4  32  331.18   10.39   0
  -6   4  44  188.50   10.06   0
  -5   2   5   -1.06    5.60   0
  -4   4  49   -4.52    8.49   0
  -3   4  38  154.21    9.25   0
  -6   3  15   -4.79    5.77   0
  -6   4  29   -0.15    7.98   0
  -6   4  47  -11.66    8.52   0
  -5   4  51   -1.35    7.74   0
  -4   3  11   12.39    5.40   0
  -3   4  35   -0.88    6.20   0
  -3   4  41   -1.17    6.44   0
  -3   4  44  255.04   10.80   0
  -1   3  26  500.64   12.00   0
  -6   4  50   73.72    9.56   0
  -5   4  24  860.14   13.96   0
  -4   4  25   -0.57    6.08   0
  -4   4  52  120.79    9.97   0
  -3   3  12 2587.43   23.69   0
  -7   3  20  379.59   11.53   0
  -6   4  26  353.71   11.29   0
  -4   2   3    0.20    5.21   0
  -3   4  47    4.37    8.01   0
  -2   3  16 1974.83   20.86   0
  -8   3  37   -8.11    8.16   0
  -7   4  40  122.75    9.78   0
  -6   4  53   -4.47    8.61   0
  -4   4  55    5.91    8.72   0
  -7   4  37   -1.90    7.35   0
  -4   4  22  690.47   12.78   0
  -3  -2  26  572.16   11.23   0
  -2  -1  26  526.58   11.06   0
  -1  -6  44   89.76    8.48   0
  -1  -2  37    2.52    5.39   0
   1  -1  29   -0.66    4.40   0
  -4  -5  10  111.72    8.26   0
  -4  -4  18  176.02    9.23   0
  -4  -3  17    7.61    6.67   0
  -4  -2   4  834.49   13.76   0
  -4  -2   7    1.14    5.59   0
  -4  -2  10  311.20    9.56   0
   0  -1  31   -0.93    4.91   0
  -4  -5  13    7.48    7.05   0
  -4  -2   1   -0.80    5.17   0
  -3  -5  32  166.63    9.03   0
  -3  -1  19   10.21    5.00   0
  -1  -4  45    4.52    7.73   0
   1  -2  39    1.08    5.51   0
  -4  -5  16  271.61    9.92   0
  -4  -2  -2  541.91   12.12   0
  -4  -2  13    1.19    5.03   0
  -3  -4  34  147.42    9.43   0
  -2  -4  41   -0.92    7.34   0
  -1  -5  46   46.12    7.22   0
   0  -3  45    3.76    6.60   0
   1  -5  51   -3.13    7.37   0
  -4  -4  21   -7.81    7.29   0
  -3  -3  33    1.04    6.12   0
  -3  -2  29   -3.09    5.72   0
   0  -5  50   72.84    8.46   0
  -4  -5  19   -0.34    6.73   0
  -2  -5  42  108.56    8.55   0
  -2  -3  40  386.81   11.07   0
  -2  -2  36  332.74    9.99   0
  -2  -1  29   -2.81    5.56   0
   1  -3  46  103.96    7.92   0
  -4  -4  24  264.18   10.06   0
  -3  -5  35   -8.18    7.40   0
  -1  -3  44  229.90    8.76   0
   0  -4  49   -2.42    7.19   0
   0  -2  41   -0.86    6.02   0
   1  -4  50  144.34    8.53   0
  -2   0  13   -0.19    5.09   0
  -1  -2  40  392.80    9.97   0
  -1  -1  33    0.71    5.47   0
  -4  -5  22   62.89    7.25   0
  -3  -4  37   -2.02    7.39   0
  -3  -3  36  279.48   10.34   0
  -3  -2  32  654.17   12.58   0
  -4  -3  26  121.79    8.67   0
  -4  -2  22  330.50    9.91   0
  -3  -1  25    2.87    5.14   0
  -2  -4  44  183.38    9.25   0
  -1  -5  49   -2.04    6.93   0
  -1  -4  48  180.02    9.20   0
   0  -1  34  913.62   14.73   0
  -4  -5  25   -1.92    6.69   0
  -2  -5  45  -10.09    7.29   0
  -2  -1  32 1181.87   15.37   0
  -2   0  16 2996.20   24.39   0
   1  -1  32 1622.77   21.06   0
  -4  -1   9    0.08    5.28   0
  -3  -5  38   39.03    7.01   0
  -2  -2  39    6.39    5.74   0
   0  -3  48  179.40    8.97   0
   1  -2  42  307.16   10.32   0
  -4  -3  29    6.90    7.08   0
  -4  -2  25    5.06    5.63   0
  -4  -1   6  352.93    9.49   0
  -4  -1  12 1072.67   14.71   0
  -3  -2  35    5.46    6.98   0
  -3  -1  28  688.43   12.24   0
  -1  -3  47    0.44    6.89   0
   0  -5  53   -4.53    6.68   0
  -4  -5  28   63.29    7.28   0
  -4  -4  30   71.37    7.59   0
  -4  -1   3    2.19    4.93   0
  -3  -4  40  117.05    8.29   0
  -3  -3  39    5.28    7.31   0
  -2   0  19   -0.01    4.46   0
  -1  -2  43   -2.21    6.33   0
  -1  -1  36  818.30   13.17   0
   0  -4  52  128.48    8.59   0
   0  -2  44  630.63   12.88   0
  -4  -1   0 1312.75   17.08   0
  -4  -1  18  664.51   11.60   0
  -4  -4  33   -1.28    6.98   0
  -3  -1  31   -4.41    6.42   0
  -3   0   9    1.53    5.12   0
  -3   0  12 1980.85   19.57   0
  -2  -1  35   -4.79    5.23   0
  -2   0  22 1914.87   18.94   0
  -1  -4  51   -6.54    6.95   0
  -4  -1  21    3.20    5.26   0
  -3  -2  38   76.08    7.69   0
  -3   0  15    3.25    5.16   0
   0  -1  37    2.91    5.40   0
  -5  -3   7    2.64    6.04   0
  -5  -3  10  175.93    8.31   0
  -5  -3  13   -3.48    6.37   0
  -4  -2  31    7.50    6.96   0
  -3  -4  43   -4.58    6.67   0
  -3  -3  42  131.61    8.74   0
  -5  -4  14   74.04    8.00   0
  -5  -3  16  369.69   10.34   0
  -4  -3  35   -5.09    7.32   0
  -4  -1  -3    3.40    5.10   0
  -4  -1  24  621.12   11.83   0
  -3   0   3    1.81    4.33   0
  -3   0  18  526.77   10.40   0
  -5  -4  17    2.03    6.74   0
  -5  -3  19    0.10    6.87   0
  -2   0  25    1.84    4.57   0
  -1  -2  46  114.68    7.96   0
  -1  -1  39   -4.92    5.92   0
   0  -3  51    1.16    6.80   0
   1  -1  35    1.91    4.53   0
  -5  -2   9    0.33    5.75   0
  -5  -2  12  364.48   10.17   0
  -5  -2  15    2.28    6.29   0
  -3  -1  34  454.66   10.29   0
  -3   0  21   -0.97    5.26   0
  -2  -4  50   81.77    8.03   0
  -5  -4  20   92.89    8.00   0
  -5  -3  22  101.69    8.24   0
  -5  -2   6  411.08   10.38   0
  -5  -2  18  148.84    8.20   0
  -4  -2  34  147.92    8.61   0
  -4  -1  27    1.91    5.49   0
  -3  -2  41   -6.35    7.18   0
  -2  -2  45   -0.01    6.78   0
   0  -4  55   -4.26    6.57   0
   0  -2  47    0.66    6.06   0
  -5  -4  23   -5.40    6.93   0
  -4  -3  38   96.81    8.35   0
  -3  -4  46   43.10    7.61   0
  -3  -3  45    4.06    7.13   0
  -2  -3  49   -4.74    7.41   0
  -1  -4  54   39.18    7.46   0
  -5  -3  25    3.30    6.73   0
  -5  -2   3   -2.54    5.36   0
  -5  -2  21   -3.23    6.73   0
  -4  -4  39   -0.80    7.04   0
  -2   0  28 1068.94   14.30   0
  -4  -1  30  156.89    7.63   0
  -3  -1  37    0.14    6.30   0
  -1   0  29   -3.08    5.15   0
  -5  -4  26  108.74    8.34   0
  -5  -3  28  132.22    8.55   0
  -4  -2  37    4.69    7.51   0
  -2  -1  41   -4.67    6.27   0
  -3  -2  44  203.24    9.28   0
  -3   0  27   -1.97    4.94   0
  -2  -4  53    2.89    7.53   0
  -1  -3  53   -1.69    7.06   0
  -1  -2  49    0.90    6.65   0
  -1  -1  42  311.13    9.65   0
  -5  -4  29   -5.81    6.39   0
  -5  -1  11    5.99    5.80   0
  -5  -1  14  373.67   10.00   0
  -4  -3  41   -3.64    6.82   0
  -4  -1  33    9.24    6.38   0
  -4   0  14  297.36    8.37   0
  -4   0  17    3.96    5.50   0
  -2   0  31   -5.69    4.82   0
  -5  -1   8  748.06   12.85   0
  -5  -1  17   -1.41    5.23   0
  -4   0   8 1452.08   16.86   0
  -3  -3  48  122.04    8.78   0
  -2  -3  52  112.32    8.32   0
   0   0  27   -0.13    4.16   0
  -5  -2  30  144.32    8.87   0
  -4  -2  40  213.02    9.71   0
  -4   0  20 1211.35   14.69   0
  -3  -1  40  412.43   10.21   0
  -3   0  30  538.69   10.90   0
  -1   0  32 1626.11   18.30   0
  -5  -1   5    2.69    5.44   0
  -4   0   5    1.19    4.74   0
  -4   0  23   -6.21    5.70   0
  -1  -4  57    3.08    6.38   0
   0  -2  50  175.23    8.69   0
  -5  -3  34  101.46    8.13   0
  -4  -3  44  105.47    8.29   0
  -4  -1  36  423.97   10.29   0
  -5  -2  33    6.08    6.92   0
  -4   0  26  698.02   12.19   0
  -1  -1  45   -0.13    6.18   0
   0  -1  43   -1.70    5.37   0
  -4  -2  43    0.48    7.15   0
  -3   0  33   -2.39    5.20   0
  -1  -3  56  112.96    9.26   0
  -5  -3  37   -1.02    7.36   0
  -5  -1  29    8.06    6.72   0
  -2  -2  51   -5.00    7.22   0
  -1  -2  52  230.70    9.82   0
   0   0  30  168.84    7.60   0
  -5  -2  36  137.05    8.79   0
  -4  -1  39   -2.42    5.95   0
  -4   0  29    1.57    5.49   0
  -2  -3  55    1.20    6.72   0
  -1   0  35    2.88    4.29   0
  -4  -3  47   -5.67    6.93   0
  -2   0  37   -4.45    5.80   0
  -5  -1  32  314.06   10.27   0
  -3  -2  50  142.31    8.61   0
  -3   0  36  495.97   10.38   0
  -2  -1  47    3.82    6.27   0
  -6  -3  18  144.22    8.33   0
  -5  -3  40  122.83    8.07   0
  -4  -2  46   82.95    8.06   0
  -4   0  32  433.99    9.95   0
  -6  -3  21    2.68    6.18   0
  -6  -2  14   97.10    7.22   0
  -6  -2  17   -4.03    6.18   0
  -6  -2  20  153.57    8.74   0
  -5  -2  39   -0.12    7.08   0
  -5   0  13    0.69    5.56   0
  -4  -1  42  198.59    9.51   0
  -4   0  -1    2.63    4.23   0
  -1  -1  48  299.54    9.97   0
   0  -1  46  104.72    7.81   0
  -6  -3  24  134.36    7.82   0
  -6  -2  11    2.02    6.14   0
  -6  -2  23   -6.35    6.77   0
  -5  -1  35    0.12    6.06   0
  -5   0  10  683.70   12.18   0
  -5   0  22  209.89    7.89   0
  -2  -2  54   35.84    7.35   0
  -1   0  38  240.94    8.69   0
   0   0  33   -1.67    4.48   0
  -5   0  25    3.84    5.96   0
  -4   0  35    1.52    5.80   0
  -2   0  40  728.41   12.97   0
  -1  -2  55    4.24    6.94   0
  -6  -2  26  163.16    9.02   0
  -5   0   7    0.34    5.27   0
  -2  -3  58   74.66    7.43   0
  -6  -2  29    6.71    7.12   0
  -6  -1  16  542.22   11.72   0
  -5  -2  42   65.62    7.44   0
  -5  -1  38  118.59    8.47   0
  -5   0  28  585.20   11.86   0
  -4  -2  49    5.44    7.31   0
  -3  -2  53    6.68    7.20   0
  -3   1  17    4.12    5.22   0
  -2  -1  50  144.10    8.45   0
  -6  -1  13   -4.45    5.96   0
  -6  -1  19    1.39    5.67   0
  -6  -1  22  130.56    8.28   0
  -4   0  38  124.55    7.79   0
  -3  -1  49   -0.98    7.08   0
  -3   1  14 1616.79   17.53   0
  -3   1  20 1475.77   16.44   0
  -6  -1  10  189.20    8.36   0
  -6  -1  25   -8.72    6.77   0
  -5   0   4 1101.94   15.26   0
  -5   0  31   -5.35    6.50   0
  -3   1  23    5.81    4.83   0
  -2   1  15    5.49    4.86   0
  -2   1  18 1194.31   15.68   0
  -6  -2  32  141.78    8.05   0
  -5  -1  41   -6.24    7.60   0
  -3   1  11    2.05    4.31   0
  -3   1  26  536.13   10.99   0
  -2   0  43   -3.97    6.13   0
  -2   1  21    5.35    4.35   0
  -1  -1  51   -3.90    6.40   0
  -1   0  41    2.98    5.46   0
   0   0  36  566.03   12.46   0
  -6  -1   7   -3.84    6.23   0
  -5  -2  45    1.07    6.56   0
  -4   1  16 2007.02   18.98   0
  -4   1  19    0.71    5.61   0
  -2  -2  57   -4.64    6.84   0
  -2   1  24 1780.38   18.45   0
  -5   0  34  249.08    8.77   0
  -4  -1  48  122.89    8.77   0
  -4   0  41   -1.74    6.98   0
  -4   1  13    3.15    4.86   0
  -4   1  22  333.77    8.84   0
  -4   1  25    5.57    5.11   0
  -3  -2  56   81.66    7.79   0
  -3   1   8 3213.77   25.54   0
  -3   1  29    0.75    4.93   0
  -2  -1  53   -0.05    7.11   0
  -5  -1  44  139.86    8.72   0
  -5   0   1   -1.81    4.91   0
  -5   0  37    6.06    7.13   0
  -4   1  28  688.04   12.13   0
  -3  -1  52  157.78    8.64   0
  -3   0  45   -0.27    6.66   0
  -6  -1  34  145.83    8.81   0
  -3   1  32 1166.12   15.02   0
  -2   0  46  231.21    9.11   0
  -6   0  15    3.07    5.97   0
  -6   0  18  228.07    8.16   0
  -6   0  21    0.11    5.57   0
  -4   0  44  359.20   10.59   0
  -4   1  31   -5.11    6.27   0
  -1   0  44  413.51   10.73   0
  -6  -1  37   -4.92    7.29   0
  -6   0  12  311.01    9.54   0
  -3   1   5    1.55    4.51   0
   0   0  39    1.64    5.10   0
  -5   1  18  687.39   12.19   0
  -5   1  21    3.84    5.14   0
  -5   1  24  625.81   11.89   0
  -2  -2  60   78.06    8.55   0
  -6   0   9   -3.38    5.70   0
  -6   0  30  107.78    7.39   0
  -4   1  34  491.46   10.49   0
  -3  -1  55   -1.76    7.55   0
  -3   0  48  271.22   10.10   0
  -2   1  33   -4.47    4.50   0
  -6  -1  40  174.70    9.05   0
  -5   1  12 1049.93   14.32   0
  -5   1  27   13.62    5.54   0
  -2  -1  56  151.32    8.97   0
  -1   1  22  433.08   10.72   0
  -6   0  33    1.52    6.00   0
;
_shelx_hkl_checksum              43683
loop_
_space_group_symop_operation_xyz
'x, y, z'
'-y, x-y, z'
'-x+y, -x, z'
'y, x, -z+1/2'
'x-y, -y, -z+1/2'
'-x, -x+y, -z+1/2'
'x+2/3, y+1/3, z+1/3'
'-y+2/3, x-y+1/3, z+1/3'
'-x+y+2/3, -x+1/3, z+1/3'
'y+2/3, x+1/3, -z+5/6'
'x-y+2/3, -y+1/3, -z+5/6'
'-x+2/3, -x+y+1/3, -z+5/6'
'x+1/3, y+2/3, z+2/3'
'-y+1/3, x-y+2/3, z+2/3'
'-x+y+1/3, -x+2/3, z+2/3'
'y+1/3, x+2/3, -z+7/6'
'x-y+1/3, -y+2/3, -z+7/6'
'-x+1/3, -x+y+2/3, -z+7/6'
'-x, -y, -z'
'y, -x+y, -z'
'x-y, x, -z'
'-y, -x, z-1/2'
'-x+y, y, z-1/2'
'x, x-y, z-1/2'
'-x+2/3, -y+1/3, -z+1/3'
'y+2/3, -x+y+1/3, -z+1/3'
'x-y+2/3, x+1/3, -z+1/3'
'-y+2/3, -x+1/3, z-1/6'
'-x+y+2/3, y+1/3, z-1/6'
'x+2/3, x-y+1/3, z-1/6'
'-x+1/3, -y+2/3, -z+2/3'
'y+1/3, -x+y+2/3, -z+2/3'
'x-y+1/3, x+2/3, -z+2/3'
'-y+1/3, -x+2/3, z+1/6'
'-x+y+1/3, y+2/3, z+1/6'
'x+1/3, x-y+2/3, z+1/6'
loop_
_atom_site_label
_atom_site_type_symbol
_atom_site_fract_x
_atom_site_fract_y
_atom_site_fract_z
_atom_site_U_iso_or_equiv
_atom_site_adp_type
_atom_site_occupancy
_atom_site_site_symmetry_order
_atom_site_calc_flag
_atom_site_refinement_flags_posn
_atom_site_refinement_flags_adp
_atom_site_refinement_flags_occupancy
Ba1 Ba 0.0000 0.0000 0.2500 0.01269(3) Uani 1 6 d S T P
Mg2 Mg 0.0000 0.0000 0.0000 0.01003(9) Uani 1 6 d S T P
O3 O 0.1326(4) 0.8401(4) 0.12905(3) 0.0253(2) Uani 1 1 d . . .
C4 C 0.0000 0.0000 0.13031(4) 0.01021(15) Uani 1 3 d S T P
loop_
_atom_site_aniso_label
_atom_site_aniso_U_11
_atom_site_aniso_U_22
_atom_site_aniso_U_33
_atom_site_aniso_U_23
_atom_site_aniso_U_13
_atom_site_aniso_U_12
Ba1 0.01117(3) 0.01117(3) 0.01572(5) 0.000 0.000 0.00558(2)
Mg2 0.00870(14) 0.00870(14) 0.0127(2) 0.000 0.000 0.00435(7)
O3 0.0359(8) 0.0301(6) 0.0256(3) -0.0077(6) -0.0121(7) 0.0282(5)
C4 0.0099(2) 0.0099(2) 0.0109(4) 0.000 0.000 0.00493(11)
loop_
_atom_type_symbol
_atom_type_description
_atom_type_scat_dispersion_real
_atom_type_scat_dispersion_imag
_atom_type_scat_source
C C 0.0033 0.0016 'International Tables Vol C Tables 4.2.6.8 and 6.1.1.4'
O O 0.0106 0.0060 'International Tables Vol C Tables 4.2.6.8 and 6.1.1.4'
Mg Mg 0.0486 0.0363 'International Tables Vol C Tables 4.2.6.8 and 6.1.1.4'
Ba Ba -0.3244 2.2819 'International Tables Vol C Tables 4.2.6.8 and 6.1.1.4'
loop_
_geom_angle_atom_site_label_1
_geom_angle_atom_site_label_2
_geom_angle_atom_site_label_3
_geom_angle
_geom_angle_site_symmetry_1
_geom_angle_site_symmetry_3
O3 Ba1 O3 123.17(3) 35_445 26_445
O3 Ba1 O3 136.62(4) 35_445 25_455
O3 Ba1 O3 94.46(4) 26_445 25_455
O3 Ba1 O3 94.46(4) 35_445 34_545
O3 Ba1 O3 136.62(4) 26_445 34_545
O3 Ba1 O3 64.57(6) 25_455 34_545
O3 Ba1 O3 94.46(4) 35_445 36
O3 Ba1 O3 64.57(6) 26_445 36
O3 Ba1 O3 123.17(3) 25_455 36
O3 Ba1 O3 94.45(4) 34_545 36
O3 Ba1 O3 64.57(6) 35_445 27
O3 Ba1 O3 94.46(4) 26_445 27
O3 Ba1 O3 94.45(4) 25_455 27
O3 Ba1 O3 123.17(3) 34_545 27
O3 Ba1 O3 136.62(4) 36 27
O3 Ba1 O3 178.61(4) 35_445 27_545
O3 Ba1 O3 57.13(3) 26_445 27_545
O3 Ba1 O3 43.92(3) 25_455 27_545
O3 Ba1 O3 84.75(2) 34_545 27_545
O3 Ba1 O3 84.47(2) 36 27_545
O3 Ba1 O3 116.82(3) 27 27_545
O3 Ba1 O3 57.13(3) 35_445 36_455
O3 Ba1 O3 178.61(4) 26_445 36_455
O3 Ba1 O3 84.75(2) 25_455 36_455
O3 Ba1 O3 43.92(3) 34_545 36_455
O3 Ba1 O3 116.82(3) 36 36_455
O3 Ba1 O3 84.47(2) 27 36_455
O3 Ba1 O3 122.61(3) 27_545 36_455
O3 Ba1 O3 43.92(3) 35_445 34_655
O3 Ba1 O3 84.47(2) 26_445 34_655
O3 Ba1 O3 178.61(5) 25_455 34_655
O3 Ba1 O3 116.82(3) 34_545 34_655
O3 Ba1 O3 57.13(3) 36 34_655
O3 Ba1 O3 84.75(2) 27 34_655
O3 Ba1 O3 135.58(3) 27_545 34_655
O3 Ba1 O3 96.31(3) 36_455 34_655
O3 Ba1 O3 84.47(2) 35_445 25_565
O3 Ba1 O3 43.92(3) 26_445 25_565
O3 Ba1 O3 116.82(3) 25_455 25_565
O3 Ba1 O3 178.61(5) 34_545 25_565
O3 Ba1 O3 84.75(2) 36 25_565
O3 Ba1 O3 57.13(3) 27 25_565
O3 Ba1 O3 96.31(3) 27_545 25_565
O3 Ba1 O3 135.58(3) 36_455 25_565
O3 Ba1 O3 61.78(5) 34_655 25_565
O3 Ba1 O3 84.75(2) 35_445 26_345
O3 Ba1 O3 116.82(3) 26_445 26_345
O3 Ba1 O3 57.13(3) 25_455 26_345
O3 Ba1 O3 84.47(2) 34_545 26_345
O3 Ba1 O3 178.61(4) 36 26_345
O3 Ba1 O3 43.92(3) 27 26_345
O3 Ba1 O3 96.31(3) 27_545 26_345
O3 Ba1 O3 61.78(5) 36_455 26_345
O3 Ba1 O3 122.61(3) 34_655 26_345
O3 Ba1 O3 96.31(3) 25_565 26_345
O3 Ba1 O3 116.82(3) 35_445 35_435
O3 Ba1 O3 84.75(2) 26_445 35_435
O3 Ba1 O3 84.47(2) 25_455 35_435
O3 Ba1 O3 57.13(3) 34_545 35_435
O3 Ba1 O3 43.92(3) 36 35_435
O3 Ba1 O3 178.61(4) 27 35_435
O3 Ba1 O3 61.78(5) 27_545 35_435
O3 Ba1 O3 96.31(3) 36_455 35_435
O3 Ba1 O3 96.31(3) 34_655 35_435
O3 Ba1 O3 122.61(3) 25_565 35_435
O3 Ba1 O3 135.58(3) 26_345 35_435
O3 Mg2 O3 180.00(14) 30_455 18_544
O3 Mg2 O3 86.40(4) 30_455 29_445
O3 Mg2 O3 93.60(4) 18_544 29_445
O3 Mg2 O3 93.60(4) 30_455 17_554
O3 Mg2 O3 86.40(4) 18_544 17_554
O3 Mg2 O3 180.00(13) 29_445 17_554
O3 Mg2 O3 86.40(4) 30_455 28
O3 Mg2 O3 93.60(4) 18_544 28
O3 Mg2 O3 86.40(4) 29_445 28
O3 Mg2 O3 93.60(4) 17_554 28
O3 Mg2 O3 93.60(4) 30_455 16_444
O3 Mg2 O3 86.40(4) 18_544 16_444
O3 Mg2 O3 93.60(4) 29_445 16_444
O3 Mg2 O3 86.40(4) 17_554 16_444
O3 Mg2 O3 180.00(9) 28 16_444
O3 Mg2 Ba1 43.10(5) 30_455 13_444
O3 Mg2 Ba1 136.90(5) 18_544 13_444
O3 Mg2 Ba1 98.25(3) 29_445 13_444
O3 Mg2 Ba1 81.75(3) 17_554 13_444
O3 Mg2 Ba1 46.48(6) 28 13_444
O3 Mg2 Ba1 133.52(6) 16_444 13_444
O3 Mg2 Ba1 136.90(5) 30_455 25
O3 Mg2 Ba1 43.10(5) 18_544 25
O3 Mg2 Ba1 81.75(3) 29_445 25
O3 Mg2 Ba1 98.25(3) 17_554 25
O3 Mg2 Ba1 133.52(6) 28 25
O3 Mg2 Ba1 46.48(6) 16_444 25
Ba1 Mg2 Ba1 180.0 13_444 25
O3 Mg2 Ba1 98.25(3) 30_455 13_554
O3 Mg2 Ba1 81.75(3) 18_544 13_554
O3 Mg2 Ba1 46.47(6) 29_445 13_554
O3 Mg2 Ba1 133.53(6) 17_554 13_554
O3 Mg2 Ba1 43.10(5) 28 13_554
O3 Mg2 Ba1 136.90(5) 16_444 13_554
Ba1 Mg2 Ba1 77.143(2) 13_444 13_554
Ba1 Mg2 Ba1 102.857(2) 25 13_554
O3 Mg2 Ba1 81.75(3) 30_455 25_445
O3 Mg2 Ba1 98.25(3) 18_544 25_445
O3 Mg2 Ba1 133.53(6) 29_445 25_445
O3 Mg2 Ba1 46.47(6) 17_554 25_445
O3 Mg2 Ba1 136.90(5) 28 25_445
O3 Mg2 Ba1 43.10(5) 16_444 25_445
Ba1 Mg2 Ba1 102.857(2) 13_444 25_445
Ba1 Mg2 Ba1 77.143(2) 25 25_445
Ba1 Mg2 Ba1 180.0 13_554 25_445
O3 Mg2 Ba1 133.52(6) 30_455 25_455
O3 Mg2 Ba1 46.48(6) 18_544 25_455
O3 Mg2 Ba1 136.90(5) 29_445 25_455
O3 Mg2 Ba1 43.10(5) 17_554 25_455
O3 Mg2 Ba1 81.75(3) 28 25_455
O3 Mg2 Ba1 98.25(3) 16_444 25_455
Ba1 Mg2 Ba1 102.857(2) 13_444 25_455
Ba1 Mg2 Ba1 77.143(2) 25 25_455
Ba1 Mg2 Ba1 102.857(2) 13_554 25_455
Ba1 Mg2 Ba1 77.143(2) 25_445 25_455
O3 Mg2 Ba1 46.48(6) 30_455 13_544
O3 Mg2 Ba1 133.52(6) 18_544 13_544
O3 Mg2 Ba1 43.10(5) 29_445 13_544
O3 Mg2 Ba1 136.90(5) 17_554 13_544
O3 Mg2 Ba1 98.25(3) 28 13_544
O3 Mg2 Ba1 81.75(3) 16_444 13_544
Ba1 Mg2 Ba1 77.143(2) 13_444 13_544
Ba1 Mg2 Ba1 102.857(2) 25 13_544
Ba1 Mg2 Ba1 77.143(2) 13_554 13_544
Ba1 Mg2 Ba1 102.857(2) 25_445 13_544
Ba1 Mg2 Ba1 180.0 25_455 13_544
C4 O3 Mg2 139.99(8) 1_565 16_554
C4 O3 Ba1 97.15(9) 1_565 25_455
Mg2 O3 Ba1 107.74(7) 16_554 25_455
C4 O3 Ba1 91.71(10) 1_565 25_565
Mg2 O3 Ba1 103.73(7) 16_554 25_565
Ba1 O3 Ba1 116.82(3) 25_455 25_565
O3 C4 O3 119.889(8) 3_455 2_665
O3 C4 O3 119.889(8) 3_455 1_545
O3 C4 O3 119.889(9) 2_665 1_545
O3 C4 Ba1 65.57(9) 3_455 25_445
O3 C4 Ba1 149.42(8) 2_665 25_445
O3 C4 Ba1 60.31(9) 1_545 25_445
O3 C4 Ba1 149.42(8) 3_455 25
O3 C4 Ba1 60.31(9) 2_665 25
O3 C4 Ba1 65.57(9) 1_545 25
Ba1 C4 Ba1 99.09(2) 25_445 25
O3 C4 Ba1 60.31(9) 3_455 25_455
O3 C4 Ba1 65.57(9) 2_665 25_455
O3 C4 Ba1 149.42(8) 1_545 25_455
Ba1 C4 Ba1 99.09(2) 25_445 25_455
Ba1 C4 Ba1 99.09(2) 25 25_455
loop_
_geom_bond_atom_site_label_1
_geom_bond_atom_site_label_2
_geom_bond_distance
_geom_bond_site_symmetry_2
Ba1 O3 2.8884(19) 35_445
Ba1 O3 2.8884(19) 26_445
Ba1 O3 2.8884(19) 25_455
Ba1 O3 2.8884(19) 34_545
Ba1 O3 2.8884(19) 36
Ba1 O3 2.8884(19) 27
Ba1 O3 3.005(2) 27_545
Ba1 O3 3.005(2) 36_455
Ba1 O3 3.005(2) 34_655
Ba1 O3 3.005(2) 25_565
Ba1 O3 3.005(2) 26_345
Ba1 O3 3.005(2) 35_435
Mg2 O3 2.0595(8) 30_455
Mg2 O3 2.0595(8) 18_544
Mg2 O3 2.0595(8) 29_445
Mg2 O3 2.0595(8) 17_554
Mg2 O3 2.0595(8) 28
Mg2 O3 2.0595(8) 16_444
Mg2 Ba1 4.02620(9) 13_444
Mg2 Ba1 4.02620(9) 25
Mg2 Ba1 4.02619(10) 13_554
Mg2 Ba1 4.02619(10) 25_445
Mg2 Ba1 4.02622(10) 25_455
Mg2 Ba1 4.02622(10) 13_544
O3 C4 1.2747(8) 1_565
O3 Mg2 2.0595(8) 16_554
O3 Ba1 2.8884(19) 25_455
O3 Ba1 3.005(2) 25_565
C4 O3 1.2747(8) 3_455
C4 O3 1.2747(8) 2_665
C4 O3 1.2747(8) 1_545
C4 Ba1 3.2990(6) 25_445
C4 Ba1 3.2990(6) 25
C4 Ba1 3.2990(6) 25_455
