#------------------------------------------------------------------------------
#$Date: 2019-12-26 22:20:04 +0200 (Thu, 26 Dec 2019) $
#$Revision: 246170 $
#$URL: file:///home/coder/svn-repositories/cod/cif/2/31/19/2311926.cif $
#------------------------------------------------------------------------------
#
# This file is available in the Crystallography Open Database (COD),
# http://www.crystallography.net/. The original data for this entry
# were provided by IUCr Journals, http://journals.iucr.org/.
#
# The file may be used within the scientific community so long as
# proper attribution is given to the journal article from which the
# data were obtained.
#
data_2311926
loop_
_publ_author_name
'Shakuntala, K.'
'Naveen, S.'
'Lokanath, N. K.'
'Suchetan, P. A.'
'Abdoh, M.'
_publ_section_title
;
 Different supramolecular architectures mediated by different weak
 interactions in the crystals of three
 N-aryl-2,5-dimethoxybenzenesulfonamides.
;
_journal_issue                   'Pt 10'
_journal_name_full
'Acta crystallographica. Section C, Structural chemistry'
_journal_page_first              833
_journal_page_last               844
_journal_paper_doi               10.1107/S2053229617013195
_journal_volume                  73
_journal_year                    2017
_chemical_formula_iupac          'C14 H13 Cl2 N O4 S'
_chemical_formula_moiety         'C14 H13 Cl2 N O4 S'
_chemical_formula_sum            'C14 H13 Cl2 N O4 S'
_chemical_formula_weight         362.21
_chemical_name_systematic
;
<i>N</i>-(2,4-Dichlorophenyl)-2,5-dimethoxybenzenesulfonamide
;
_space_group_crystal_system      triclinic
_space_group_IT_number           2
_space_group_name_Hall           '-P 1'
_space_group_name_H-M_alt        'P -1'
_atom_sites_solution_hydrogens   mixed
_audit_creation_method           SHELXL-2016/4
_cell_angle_alpha                98.151(2)
_cell_angle_beta                 95.566(2)
_cell_angle_gamma                114.952(2)
_cell_formula_units_Z            2
_cell_length_a                   7.4855(5)
_cell_length_b                   8.1175(6)
_cell_length_c                   13.9643(10)
_cell_measurement_reflns_used    133
_cell_measurement_temperature    296(2)
_cell_measurement_theta_max      64.5
_cell_measurement_theta_min      7.5
_cell_volume                     749.84(9)
_computing_cell_refinement
;
APEX2 and SAINT-Plus (Bruker, 2009)
;
_computing_data_collection
;
APEX2 (Bruker, 2009
;
_computing_data_reduction
;
SAINT-Plus and XPREP (Bruker, 2009)
;
_computing_molecular_graphics
;
Mercury (Macrae <i>et al.</i>,  2008)
;
_computing_publication_material
;
SHELXL2016 (Sheldrick, 2015b)
;
_computing_structure_refinement
;
SHELXL2016 (Sheldrick, 2015b)
;
_computing_structure_solution
;
SHELXT2016 (Sheldrick, 2015a)
;
_diffrn_ambient_temperature      296(2)
_diffrn_measured_fraction_theta_full 0.974
_diffrn_measured_fraction_theta_max 0.974
_diffrn_measurement_device_type  'Bruker APEXII CCD area detector'
_diffrn_measurement_method       'phi and \f scans'
_diffrn_radiation_monochromator  graphite
_diffrn_radiation_type           CuK\a
_diffrn_radiation_wavelength     1.54178
_diffrn_reflns_av_R_equivalents  0.0340
_diffrn_reflns_limit_h_max       8
_diffrn_reflns_limit_h_min       -8
_diffrn_reflns_limit_k_max       9
_diffrn_reflns_limit_k_min       -9
_diffrn_reflns_limit_l_max       16
_diffrn_reflns_limit_l_min       -16
_diffrn_reflns_number            9208
_diffrn_reflns_theta_full        64.525
_diffrn_reflns_theta_max         64.525
_diffrn_reflns_theta_min         7.464
_exptl_absorpt_coefficient_mu    5.363
_exptl_absorpt_correction_T_max  0.361
_exptl_absorpt_correction_T_min  0.294
_exptl_absorpt_correction_type   multi-scan
_exptl_absorpt_process_details
;
(SADABS; Bruker, 2009)
;
_exptl_crystal_colour            Colourless
_exptl_crystal_density_diffrn    1.604
_exptl_crystal_description       Prism
_exptl_crystal_F_000             372
_exptl_crystal_size_max          0.270
_exptl_crystal_size_mid          0.240
_exptl_crystal_size_min          0.190
_refine_diff_density_max         0.306
_refine_diff_density_min         -0.387
_refine_ls_extinction_method     none
_refine_ls_goodness_of_fit_ref   1.018
_refine_ls_hydrogen_treatment    mixed
_refine_ls_matrix_type           full
_refine_ls_number_parameters     205
_refine_ls_number_reflns         2452
_refine_ls_number_restraints     1
_refine_ls_restrained_S_all      1.018
_refine_ls_R_factor_all          0.0348
_refine_ls_R_factor_gt           0.0340
_refine_ls_shift/su_max          0.001
_refine_ls_shift/su_mean         0.000
_refine_ls_structure_factor_coef Fsqd
_refine_ls_weighting_details
'w=1/[\s^2^(Fo^2^)+(0.0635P)^2^+0.7485P] where P=(Fo^2^+2Fc^2^)/3'
_refine_ls_weighting_scheme      calc
_refine_ls_wR_factor_gt          0.0989
_refine_ls_wR_factor_ref         0.1001
_reflns_number_gt                2393
_reflns_number_total             2452
_reflns_threshold_expression     'I > 2\s(I)'
_cod_data_source_file            yp3146sup1.cif
_cod_data_source_block           II
_cod_database_code               2311926
_shelx_space_group_comment
;
The symmetry employed for this shelxl refinement is uniquely defined
by the following loop, which should always be used as a source of
symmetry information in preference to the above space-group names.
They are only intended as comments.
;
_shelx_estimated_absorpt_t_min   0.325
_shelx_estimated_absorpt_t_max   0.429
_shelx_hkl_file
;
   1   0   0    0.00    0.03
   1   0   0    0.00    0.03
  -2   0   0    1.96    0.36
   2   0   0    1.27    0.30
   2   0   0    1.56    0.33
  -3   0   0   58.70    3.24
  -3   0   0   52.87    3.21
  -4   0   0  346.92   16.04
   4   0   0  353.76   16.00
   4   0   0  355.51   16.00
   4   0   0  357.19   15.98
   4   0   0  371.68   16.03
   4   0   0  371.16   16.05
  -5   0   0   38.91    1.97
   5   0   0   39.67    1.91
   5   0   0   39.31    1.94
   5   0   0   41.13    1.97
   5   0   0   39.98    1.92
   5   0   0   39.35    1.88
  -6   0   0   65.59    3.19
   6   0   0   69.16    3.12
   6   0   0   63.72    3.06
   6   0   0   65.05    3.10
  -7   0   0    1.02    0.24
   7   0   0    1.55    0.21
   7   0   0    1.55    0.21
   7   0   0    1.51    0.19
   8  -1   0    0.83    0.14
   8  -1   0    0.68    0.13
   7  -1   0    3.60    0.32
   7  -1   0    3.75    0.33
   7  -1   0    2.87    0.27
  -7   1   0    4.60    0.42
   6  -1   0  110.39    4.81
   6  -1   0  102.25    4.75
   6  -1   0  110.17    4.81
   6  -1   0   95.46    4.82
  -6   1   0  103.81    4.90
   5  -1   0  152.33    6.67
   5  -1   0  145.07    6.59
   5  -1   0  149.45    6.66
   5  -1   0  136.53    6.67
   5  -1   0  144.55    6.63
   5  -1   0  150.91    6.64
  -5   1   0  147.52    6.71
   4  -1   0    8.03    0.47
   4  -1   0    7.12    0.43
  -4   1   0    7.88    0.48
  -4   1   0    7.77    1.02
   3  -1   0  180.26    8.76
  -3   1   0  167.72    8.76
  -3   1   0  189.78    8.82
   2  -1   0  102.72    5.25
   2  -1   0  105.28    5.26
  -2   1   0  104.79    5.27
  -2   1   0  115.46    5.32
  -1   1   0   -0.98    0.03
  -2  -1   0    4.09    0.46
   2   1   0    3.80    0.37
  -3  -1   0    1.01    0.33
  -4  -1   0   20.65    1.11
   4   1   0   21.66    1.07
   4   1   0   22.05    1.12
   4   1   0   22.27    1.09
   4   1   0   22.73    1.14
   4   1   0   21.69    1.09
  -5  -1   0    8.15    0.61
   5   1   0    9.79    0.56
   5   1   0    9.52    0.58
   5   1   0   10.69    0.64
   5   1   0    9.84    0.59
   6   1   0   14.83    0.83
   6   1   0   15.90    0.86
   6   1   0   16.11    0.87
   6   1   0   15.24    0.91
   7   1   0    5.41    0.36
   7   1   0    5.49    0.35
   8  -2   0    0.93    0.17
   8  -2   0    0.93    0.16
  -8   2   0    1.09    0.24
   7  -2   0    0.22    0.10
   7  -2   0    0.32    0.11
   7  -2   0    0.50    0.15
   7  -2   0    0.18    0.14
  -7   2   0    0.40    0.16
   6  -2   0  109.05    4.93
   6  -2   0  105.21    4.94
   6  -2   0  111.28    4.93
   6  -2   0  102.61    4.98
   6  -2   0  104.77    4.86
  -6   2   0  110.97    5.04
   5  -2   0    0.62    0.14
   5  -2   0    0.34    0.09
   5  -2   0    0.39    0.11
   5  -2   0    0.42    0.10
  -5   2   0    0.48    0.14
   4  -2   0    5.19    0.37
  -4   2   0    5.79    0.39
  -4   2   0    5.55    0.89
   3  -2   0  284.84   13.13
   3  -2   0  263.63   13.11
  -3   2   0  258.79   13.07
  -3   2   0  293.84   13.19
   2  -2   0  653.14   29.54
   2  -2   0  664.18   29.56
  -2   2   0  643.10   29.53
   0  -2   0   81.68    3.99
   0  -2   0   91.68    4.04
  -1  -2   0   13.97    2.16
  -2  -2   0   17.72    1.11
  -2  -2   0   20.96    1.16
   3   2   0   97.65    4.44
   3   2   0   98.13    4.48
   3   2   0  104.14    4.49
   3   2   0   99.71    4.43
   3   2   0   96.81    4.47
   3   2   0   91.35    4.43
   4   2   0    0.82    0.18
   4   2   0    1.18    0.18
   4   2   0    0.68    0.14
   4   2   0    1.13    0.16
   4   2   0    0.87    0.20
   5   2   0   14.24    0.83
   5   2   0   15.60    0.88
   5   2   0   14.95    0.81
   5   2   0   15.43    0.83
   6   2   0   11.51    0.63
   6   2   0   10.25    0.62
   6   2   0   11.62    0.69
   8  -3   0   16.13    0.88
   8  -3   0   16.39    0.87
  -8   3   0   16.59    0.97
   7  -3   0    7.44    0.49
   7  -3   0    7.29    0.50
   7  -3   0    6.70    0.52
  -7   3   0    7.57    0.59
   6  -3   0    6.13    0.48
   6  -3   0    6.97    0.45
  -6   3   0    7.10    0.53
   5  -3   0  119.33    5.52
   5  -3   0  120.03    5.51
   5  -3   0  117.67    5.44
  -5   3   0  123.72    5.55
   4  -3   0  180.15    7.99
   4  -3   0  177.07    7.96
  -4   3   0  172.96    7.99
   3  -3   0  254.73   11.95
   3  -3   0  234.68   10.98
  -3   3   0  247.42   11.96
   2  -3   0  160.02    7.94
   2  -3   0  164.44    7.93
   1  -3   0   56.43    2.98
   1  -3   0   57.96    3.03
  -1   3   0   54.14    2.90
   0  -3   0   87.36    4.07
   0  -3   0   83.14    4.01
  -1  -3   0    1.27    0.93
   2   3   0   12.71    0.69
   2   3   0   11.81    0.66
   2   3   0   11.75    0.67
   2   3   0   12.63    0.63
   2   3   0   12.75    0.69
   2   3   0   13.16    0.65
   3   3   0    8.72    0.50
   3   3   0    8.63    0.55
   3   3   0    7.89    0.49
   3   3   0    9.25    0.57
   3   3   0    8.46    0.48
   4   3   0   96.62    4.36
   4   3   0   89.06    4.35
   4   3   0  100.61    4.45
   5   3   0    3.81    0.31
   5   3   0    3.55    0.31
   5   3   0    3.80    0.38
   6   3   0    0.92    0.14
   8  -4   0   32.76    1.71
   8  -4   0   36.59    1.69
   8  -4   0   35.18    1.68
  -8   4   0   33.77    1.78
   7  -4   0   13.21    0.77
   7  -4   0   13.58    0.85
   7  -4   0   13.93    0.79
  -7   4   0   15.12    0.91
   6  -4   0    3.48    0.35
   6  -4   0    3.10    0.28
   6  -4   0    3.44    0.33
  -6   4   0    3.78    0.38
   5  -4   0  173.84    7.76
   5  -4   0  166.71    7.65
   5  -4   0  169.58    7.72
  -5   4   0  170.36    7.76
   4  -4   0    1.13    0.18
   4  -4   0    0.89    0.13
   4  -4   0    1.49    0.18
  -4   4   0    1.08    0.18
  -4   4   0    1.03    0.21
   3  -4   0   38.01    2.69
   3  -4   0   35.51    1.90
   3  -4   0   41.59    1.86
   2  -4   0  123.43    6.15
   2  -4   0  112.05    5.31
   1  -4   0  262.96   12.50
   1  -4   0  272.45   12.60
   0   4   0    6.98    0.38
   0   4   0    5.67    0.38
   0   4   0    4.91    0.37
   1   4   0  129.36    6.15
   1   4   0  140.89    6.23
   1   4   0  145.51    6.24
   1   4   0  141.68    6.22
   1   4   0  129.35    6.17
   2   4   0   10.94    0.58
   2   4   0   10.86    0.62
   2   4   0   10.90    0.66
   2   4   0   10.33    0.59
   2   4   0   11.02    0.66
   3   4   0   29.50    1.48
   3   4   0   28.64    1.48
   3   4   0   27.60    1.38
   4   4   0   25.35    1.27
   4   4   0   26.09    1.35
   5   4   0    0.39    0.11
   5   4   0    0.32    0.13
   8  -5   0    0.24    0.12
   8  -5   0    0.34    0.14
   8  -5   0    0.47    0.13
  -8   5   0    0.08    0.13
   7  -5   0  122.47    6.17
   7  -5   0  141.15    6.18
   7  -5   0  133.03    6.07
  -7   5   0  138.42    6.22
   6  -5   0    5.40    0.36
   6  -5   0    5.58    0.44
   6  -5   0    5.28    0.46
  -6   5   0    4.60    0.44
   5  -5   0  313.92   13.13
   5  -5   0  273.62   13.10
   5  -5   0  304.58   13.16
  -5   5   0  273.96   13.15
   4  -5   0   70.97    3.28
   4  -5   0   71.06    3.29
  -4   5   0   67.22    3.34
   3  -5   0  227.18   10.46
   3  -5   0  241.16   10.49
  -3   5   0  222.50   10.43
  -3   5   0  239.32   10.48
  -3   5   0  235.17   10.57
   2  -5   0   34.20    1.63
  -2   5   0   34.07    1.65
  -2   5   0   35.81    1.63
  -2   5   0   32.36    1.62
  -2   5   0   33.35    1.72
  -2   5   0   31.25    1.58
  -1   5   0  294.15   12.84
  -1   5   0  288.83   12.73
  -1   5   0  280.57   12.73
  -1   5   0  301.72   12.72
  -1   5   0  255.29   12.65
   0   5   0   27.11    1.34
   0   5   0   25.73    1.35
   0   5   0   26.89    1.35
   1   5   0  220.82   10.16
   1   5   0  226.09   10.18
   1   5   0  230.24   10.19
   2   5   0   32.83    1.62
   2   5   0   31.91    1.59
   2   5   0   29.61    1.51
   2   5   0   32.27    1.61
   3   5   0   87.53    4.08
   3   5   0   92.63    4.18
   3   5   0   88.96    4.18
   4   5   0   26.93    1.30
   4   5   0   27.56    1.37
   8  -6   0    0.14    0.11
   8  -6   0    0.67    0.14
   7  -6   0   19.40    1.11
   7  -6   0   18.83    1.08
   6  -6   0   59.80    2.91
   6  -6   0   64.27    2.89
   6  -6   0   53.34    2.86
   5  -6   0    2.20    0.32
   5  -6   0    1.28    0.23
   5  -6   0    1.68    0.25
  -5   6   0    1.64    0.32
   4  -6   0    7.18    0.51
   4  -6   0    6.78    0.48
  -4   6   0    6.52    0.48
  -4   6   0    6.57    0.56
   3  -6   0    0.69    0.17
   3  -6   0    0.73    0.15
  -3   6   0    0.21    0.15
  -3   6   0    0.27    0.13
  -3   6   0    0.34    0.11
  -2   6   0   68.54    3.33
  -2   6   0   69.71    3.20
  -2   6   0   67.29    3.20
  -2   6   0   66.92    3.22
  -1   6   0    1.10    0.21
  -1   6   0    0.96    0.18
  -1   6   0    1.05    0.19
   0   6   0   15.09    0.88
   0   6   0   15.44    0.89
   0   6   0   15.47    0.87
   1   6   0    2.14    0.29
   1   6   0    2.01    0.29
   1   6   0    2.01    0.26
   2   6   0    2.16    0.29
   2   6   0    1.64    0.24
   2   6   0    1.80    0.27
   3   6   0    1.87    0.25
   8  -7   0   20.07    1.05
   7  -7   0   68.70    3.51
   7  -7   0   76.17    3.50
  -7   7   0   77.66    3.48
   6  -7   0   27.07    1.40
   6  -7   0   25.49    1.43
   6  -7   0   26.30    1.43
  -6   7   0   25.97    1.37
   5  -7   0  127.24    5.77
   5  -7   0  122.73    5.81
   5  -7   0  124.97    5.82
  -5   7   0  126.95    5.77
  -5   7   0  123.17    5.89
   4  -7   0   10.32    0.64
   4  -7   0   10.03    0.68
  -4   7   0    8.81    0.60
  -4   7   0   10.46    0.66
  -4   7   0   10.20    0.76
   3  -7   0   39.27    2.04
  -3   7   0   43.21    2.07
  -3   7   0   44.23    2.10
  -3   7   0   41.32    2.21
  -2   7   0   28.49    1.50
  -2   7   0   27.22    1.46
  -2   7   0   30.26    1.49
  -1   7   0  170.14    8.02
  -1   7   0  179.19    8.02
  -1   7   0  179.22    8.01
   0   7   0   81.24    3.74
   0   7   0   79.54    3.75
   0   7   0   78.56    3.74
   1   7   0   17.37    0.97
   1   7   0   18.70    1.00
   1   7   0   18.10    0.99
   2   7   0    0.57    0.19
   7  -8   0   43.64    2.08
  -7   8   0   42.91    2.06
   6  -8   0    8.26    0.54
   6  -8   0    8.36    0.58
   6  -8   0    8.74    0.62
  -6   8   0    8.08    0.54
   5  -8   0    0.93    0.18
   5  -8   0    0.82    0.21
   5  -8   0    0.88    0.22
  -5   8   0    1.22    0.21
   4  -8   0   17.57    1.00
  -4   8   0   18.17    0.99
  -4   8   0   20.39    1.05
  -3   8   0    0.90    0.19
  -3   8   0    0.83    0.19
  -2   8   0    6.12    0.44
  -2   8   0    4.81    0.40
  -2   8   0    5.44    0.42
  -1   8   0  124.14    5.51
  -1   8   0  120.80    5.51
  -1   8   0  115.96    5.50
   0   8   0    1.44    0.23
   0   8   0    1.46    0.21
   0   8   0    1.53    0.21
   5  -9   0    0.59    0.18
  -5   9   0    0.32    0.12
   4  -9   0   58.27    2.60
  -4   9   0   49.19    2.51
   3  -9   0    0.19    0.13
  -3   9   0    0.17    0.11
  -3   9   0    0.07    0.11
  -2   9   0   45.11    2.14
  -2   9  -1   33.54    1.63
  -3   9  -1    2.90    0.27
  -4   9  -1   41.46    2.15
   4  -9   1   50.52    2.27
   5  -9   1    0.05    0.10
   5  -9   1    0.16    0.14
   0   8  -1   60.79    2.89
   0   8  -1   62.64    2.91
  -1   8  -1   19.79    1.08
  -1   8  -1   21.19    1.09
  -1   8  -1   19.94    1.07
  -2   8  -1    0.84    0.18
  -2   8  -1    0.68    0.18
  -2   8  -1    0.60    0.16
  -3   8  -1   91.24    4.08
  -3   8  -1   88.48    4.08
   3  -8   1   82.44    4.05
  -4   8  -1   24.56    1.27
  -4   8  -1   23.99    1.25
   4  -8   1   23.56    1.26
  -5   8  -1    7.03    0.50
  -5   8  -1    7.33    0.60
   5  -8   1    7.18    0.56
   5  -8   1    6.89    0.50
   5  -8   1    7.38    0.55
  -6   8  -1   24.47    1.30
   6  -8   1   25.76    1.38
   6  -8   1   27.35    1.35
   6  -8   1   25.40    1.37
  -7   8  -1    3.09    0.30
   7  -8   1    3.98    0.31
   2   7  -1   24.89    1.27
   1   7  -1   13.17    0.76
   1   7  -1   13.37    0.79
   1   7  -1   13.31    0.77
   0   7  -1  139.27    6.39
   0   7  -1  138.41    6.36
   0   7  -1  140.25    6.37
  -1   7  -1   23.28    1.26
  -1   7  -1   23.95    1.26
  -1   7  -1   23.64    1.25
  -2   7  -1    4.76    0.36
  -2   7  -1    4.65    0.39
  -2   7  -1    5.22    0.40
  -2   7  -1    4.81    0.41
  -3   7  -1   33.02    1.58
  -3   7  -1   31.38    1.60
  -3   7  -1   32.23    1.74
   3  -7   1   27.88    1.56
  -4   7  -1    7.16    0.51
  -4   7  -1    6.41    0.46
  -4   7  -1    6.81    0.60
   4  -7   1    6.59    0.49
   4  -7   1    6.93    0.53
  -5   7  -1   33.90    1.86
  -5   7  -1   32.47    1.72
   5  -7   1   35.61    1.80
   5  -7   1   34.38    1.75
  -6   7  -1    1.87    0.26
  -6   7  -1    1.29    0.29
   6  -7   1    1.55    0.27
   6  -7   1    1.85    0.28
   6  -7   1    1.48    0.29
  -7   7  -1   29.87    1.50
   7  -7   1   30.83    1.54
   7  -7   1   28.93    1.56
   8  -7   1    1.78    0.22
   3   6  -1   19.35    1.01
   2   6  -1    0.27    0.17
   2   6  -1    0.27    0.15
   2   6  -1    0.53    0.15
   1   6  -1    0.02    0.11
   1   6  -1    0.11    0.11
   1   6  -1    0.70    0.18
   0   6  -1   10.85    0.68
   0   6  -1   11.40    0.70
   0   6  -1   11.75    0.69
   0   6  -1   11.21    0.64
  -1   6  -1    6.09    0.42
  -1   6  -1    5.65    0.44
  -1   6  -1    5.43    0.38
  -1   6  -1    5.93    0.43
  -2   6  -1    3.26    0.28
  -2   6  -1    2.53    0.28
  -2   6  -1    3.14    0.26
  -2   6  -1    2.98    0.28
  -2   6  -1    2.96    0.34
   2  -6   1    2.04    0.25
  -3   6  -1   75.89    3.48
  -3   6  -1   74.08    3.61
  -3   6  -1   75.55    3.51
   3  -6   1   74.53    3.51
   3  -6   1   72.79    3.49
  -4   6  -1    4.13    0.35
  -4   6  -1    3.32    0.38
   4  -6   1    3.74    0.33
   4  -6   1    3.14    0.32
  -5   6  -1   62.14    3.13
   5  -6   1   61.45    3.06
   5  -6   1   65.97    3.05
   6  -6   1   37.97    1.95
   6  -6   1   38.92    2.00
   7  -6   1  147.64    6.96
   7  -6   1  154.54    6.93
   8  -6   1   38.91    1.92
   8  -6   1   39.71    1.87
   4   5  -1   18.31    0.97
   4   5  -1   18.40    0.92
   3   5  -1   32.38    1.56
   3   5  -1   29.51    1.46
   3   5  -1   29.28    1.55
   2   5  -1   19.92    1.06
   2   5  -1   19.60    0.97
   2   5  -1   19.04    1.00
   2   5  -1   18.75    1.02
   2   5  -1   19.68    1.07
   1   5  -1    0.17    0.11
   1   5  -1    0.29    0.09
   1   5  -1    0.20    0.11
   1   5  -1    0.36    0.13
   1   5  -1    0.32    0.12
   0   5  -1    9.60    0.57
   0   5  -1   10.32    0.60
   0   5  -1   10.90    0.63
   0   5  -1   10.10    0.61
  -1   5  -1    4.16    0.31
  -1   5  -1    4.44    0.33
  -1   5  -1    4.09    0.32
  -1   5  -1    3.93    0.29
  -1   5  -1    3.88    0.37
  -2   5  -1   27.24    1.33
  -2   5  -1   28.67    1.37
  -2   5  -1   29.35    1.36
  -2   5  -1   26.08    1.37
   2  -5   1   26.63    1.35
  -3   5  -1  152.73    6.99
  -3   5  -1  153.36    6.90
  -3   5  -1  147.08    6.86
   3  -5   1  155.51    6.90
  -4   5  -1    0.07    0.11
   4  -5   1    0.13    0.07
   4  -5   1    0.25    0.10
  -5   5  -1   48.31    2.73
  -5   5  -1   53.53    2.63
   5  -5   1   58.42    2.59
   5  -5   1   55.52    2.60
   5  -5   1   50.41    2.47
   5  -5   1   51.02    2.55
  -6   5  -1    0.99    0.24
   6  -5   1    0.93    0.16
   6  -5   1    1.23    0.24
   6  -5   1    0.88    0.21
  -7   5  -1   30.92    1.61
   7  -5   1   27.05    1.57
   7  -5   1   31.10    1.49
   7  -5   1   30.83    1.57
  -8   5  -1    3.00    0.32
   8  -5   1    3.07    0.29
   8  -5   1    2.74    0.25
   8  -5   1    2.96    0.27
   5   4  -1    0.12    0.11
   5   4  -1   -0.07    0.09
   4   4  -1   57.91    2.71
   4   4  -1   54.48    2.65
   4   4  -1   58.02    2.65
   3   4  -1   14.70    0.75
   3   4  -1   13.55    0.76
   3   4  -1   14.15    0.83
   3   4  -1   14.26    0.84
   2   4  -1  143.30    6.60
   2   4  -1  152.24    6.65
   2   4  -1  144.54    6.62
   2   4  -1  140.93    6.55
   2   4  -1  148.45    6.58
   1   4  -1   30.51    1.50
   1   4  -1   31.84    1.53
   1   4  -1   31.79    1.56
   1   4  -1   32.82    1.55
   1   4  -1   34.00    1.59
   0   4  -1  117.96    5.21
   0   4  -1  111.39    5.19
   1  -4   1  396.21   17.97
   1  -4   1  381.01   17.83
   2  -4   1   11.95    0.64
   2  -4   1   12.61    1.20
   3  -4   1  296.08   12.77
   3  -4   1  278.48   13.84
   3  -4   1  281.62   12.76
  -4   4  -1    0.41    0.15
  -4   4  -1    0.40    0.12
   4  -4   1    0.54    0.10
   4  -4   1    0.53    0.12
   4  -4   1    0.31    0.10
  -5   4  -1  262.56   11.56
   5  -4   1  270.39   11.57
   5  -4   1  250.35   11.45
   5  -4   1  240.24   11.51
  -6   4  -1   74.26    3.48
   6  -4   1   74.40    3.42
   6  -4   1   68.68    3.44
   6  -4   1   70.62    3.34
  -7   4  -1  146.58    6.47
   7  -4   1  138.13    6.31
   7  -4   1  131.19    6.37
  -8   4  -1   10.23    0.66
   8  -4   1    9.90    0.57
   8  -4   1    9.38    0.56
   8  -4   1    8.49    0.56
   6   3  -1    1.47    0.18
   5   3  -1   48.22    2.30
   5   3  -1   48.07    2.28
   5   3  -1   48.97    2.35
   4   3  -1    5.47    0.47
   4   3  -1    5.71    0.39
   4   3  -1    5.29    0.37
   4   3  -1    4.82    0.42
   3   3  -1   11.75    0.60
   3   3  -1   10.35    0.60
   3   3  -1   10.82    0.66
   3   3  -1   11.50    0.65
   3   3  -1   10.43    0.61
   2   3  -1   74.69    3.40
   2   3  -1   76.43    3.45
   2   3  -1   69.16    3.41
   2   3  -1   75.08    3.42
   2   3  -1   79.52    3.47
  -1  -3   1   28.44    4.01
   0  -3   1   36.97    1.97
   0  -3   1   41.98    2.02
  -1   3  -1  127.35    6.17
   1  -3   1  131.78    6.24
   1  -3   1  127.16    6.22
   2  -3   1  207.85    9.97
  -3   3  -1   34.30    2.41
   3  -3   1   33.71    2.38
  -4   3  -1    8.55    0.53
   4  -3   1    8.27    0.51
   4  -3   1    7.89    0.46
   4  -3   1    8.08    0.50
  -5   3  -1    5.63    0.44
   5  -3   1    5.32    0.41
   5  -3   1    5.65    0.41
   5  -3   1    5.62    0.37
  -6   3  -1   22.97    1.25
   6  -3   1   20.81    1.18
   6  -3   1   21.63    1.15
   6  -3   1   21.90    1.13
  -7   3  -1    8.25    0.60
   7  -3   1    7.03    0.49
   7  -3   1    6.95    0.48
   7  -3   1    6.44    0.50
  -8   3  -1   18.06    1.04
   8  -3   1   18.35    0.95
   8  -3   1   17.84    0.94
   6   2  -1   13.70    0.75
   6   2  -1   13.91    0.77
   6   2  -1   14.46    0.82
   5   2  -1   12.69    0.78
   5   2  -1   12.33    0.73
   5   2  -1   12.77    0.73
   5   2  -1   12.92    0.70
   4   2  -1   69.73    3.26
   4   2  -1   67.01    3.22
   4   2  -1   72.24    3.20
   4   2  -1   69.52    3.22
   3   2  -1  112.41    5.13
   3   2  -1  115.54    5.09
   3   2  -1  111.00    5.10
   3   2  -1  113.64    5.15
   3   2  -1  109.90    5.10
   3   2  -1  115.02    5.13
  -2  -2   1  103.38    7.30
  -1  -2   1   47.84    4.38
   0  -2   1  179.46    8.12
  -1   2  -1   73.18    3.86
   1  -2   1   85.16    3.93
  -2   2  -1  106.18    5.61
  -2   2  -1  123.09    5.71
   2  -2   1  105.08    5.60
   2  -2   1  117.80    5.67
  -3   2  -1   23.05    1.74
  -3   2  -1   20.13    1.69
   3  -2   1   19.88    1.67
   3  -2   1   25.05    1.78
  -4   2  -1  311.31   13.27
  -4   2  -1  299.23   14.47
   4  -2   1  273.44   13.23
   4  -2   1  300.39   13.20
  -5   2  -1   58.47    2.71
   5  -2   1   56.02    2.63
   5  -2   1   56.75    2.58
   5  -2   1   51.34    2.65
   5  -2   1   57.33    2.62
  -6   2  -1  174.22    7.48
   6  -2   1  150.89    7.38
   6  -2   1  158.28    7.36
   6  -2   1  152.73    7.28
   6  -2   1  163.64    7.35
   6  -2   1  172.44    7.36
  -7   2  -1    9.56    0.68
   7  -2   1    9.40    0.59
   7  -2   1    9.97    0.60
   7  -2   1    8.76    0.54
  -8   2  -1   48.56    2.48
   8  -2   1   50.03    2.35
   8  -2   1   51.84    2.37
   7   1  -1   24.90    1.23
   7   1  -1   24.44    1.20
   6   1  -1   25.64    1.32
   6   1  -1   25.48    1.28
   6   1  -1   25.77    1.32
   6   1  -1   25.72    1.35
   5   1  -1   20.06    1.03
   5   1  -1   19.25    0.99
   5   1  -1   20.07    1.06
   5   1  -1   20.22    1.03
  -5  -1   1   18.17    1.06
   4   1  -1   24.74    1.33
   4   1  -1   27.41    1.31
   4   1  -1   27.10    1.33
   4   1  -1   27.00    1.31
   4   1  -1   27.81    1.29
   4   1  -1   28.37    1.36
  -4  -1   1   25.69    1.34
  -3  -1   1  111.78    5.71
   2   1  -1    4.21    0.39
  -2  -1   1    4.47    0.47
  -2  -1   1    4.21    0.46
   1   1  -1  111.17    4.64
  -1  -1   1   94.80    4.69
  -1  -1   1  101.75    4.72
   0   1  -1   -0.02    0.02
   1  -1   1    5.62    0.52
  -2   1  -1  125.47    6.19
  -2   1  -1  126.69    6.22
   2  -1   1  132.46    6.20
   2  -1   1  123.15    6.19
  -3   1  -1  257.08   11.68
  -3   1  -1  232.54   11.63
   3  -1   1  235.96   11.55
  -4   1  -1   34.50    2.57
  -4   1  -1   36.54    1.73
   4  -1   1   37.77    1.70
   4  -1   1   33.68    1.64
   4  -1   1   33.78    1.66
   4  -1   1   35.32    1.69
  -5   1  -1   52.29    2.52
   5  -1   1   46.33    2.46
   5  -1   1   52.08    2.44
   5  -1   1   52.26    2.41
   5  -1   1   54.12    2.48
   5  -1   1   52.69    2.45
   5  -1   1   53.31    2.48
  -6   1  -1    1.81    0.27
   6  -1   1    2.37    0.27
   6  -1   1    2.37    0.25
   6  -1   1    2.37    0.26
   6  -1   1    2.80    0.24
  -7   1  -1   63.52    2.94
   7  -1   1   60.60    2.82
   7  -1   1   53.88    2.74
   7  -1   1   59.02    2.79
   8  -1   1   29.33    1.42
   7   0  -1  168.77    7.54
   7   0  -1  165.71    7.49
   7   0  -1  174.96    7.56
  -7   0   1  156.96    7.61
   6   0  -1   23.39    1.19
   6   0  -1   22.68    1.13
   6   0  -1   22.65    1.18
  -6   0   1   21.42    1.25
   5   0  -1   64.67    2.89
   5   0  -1   61.94    2.92
   5   0  -1   59.46    2.96
   5   0  -1   65.21    2.98
   5   0  -1   62.97    2.93
   5   0  -1   61.93    2.94
  -5   0   1   62.12    2.99
   4   0  -1   10.24    0.56
   4   0  -1    9.76    0.55
   4   0  -1    8.59    0.55
   4   0  -1    9.52    0.52
   4   0  -1    9.76    0.50
   4   0  -1    9.20    0.52
  -4   0   1    9.25    1.15
  -4   0   1    9.30    0.56
   3   0  -1   47.70    3.19
  -3   0   1   45.29    2.84
  -3   0   1   50.48    2.86
   2   0  -1  524.30   23.64
   1   0  -1   -0.07    0.03
   0   0  -1    0.00    0.02
   0   0   1    0.00    0.01
  -3   0  -1   88.39    4.74
  -4   0  -1   56.00    2.77
   4   0   1   61.18    2.78
   4   0   1   59.29    2.74
   4   0   1   62.31    2.77
   4   0   1   59.61    2.72
   4   0   1   57.31    2.74
  -5   0  -1   36.94    1.98
   5   0   1   41.50    1.98
   5   0   1   40.34    1.92
   5   0   1   41.19    1.96
   5   0   1   40.27    1.93
   5   0   1   39.40    1.89
  -6   0  -1  111.82    5.31
   6   0   1  110.35    5.27
   6   0   1  113.59    5.22
   6   0   1  113.66    5.18
   6   0   1  117.06    5.26
   6   0   1  114.88    5.20
  -7   0  -1    1.15    0.25
   7   0   1    1.35    0.20
   7   0   1    1.59    0.19
   7   0   1    1.42    0.20
   8  -1  -1    9.49    0.57
   8  -1  -1   10.96    0.59
   7  -1  -1   40.89    1.99
   7  -1  -1   39.10    1.92
   7  -1  -1   41.81    1.99
  -7   1   1   41.16    2.09
   6  -1  -1   40.44    2.01
   6  -1  -1   41.22    2.06
   6  -1  -1   39.96    1.96
   6  -1  -1   42.63    2.02
  -6   1   1   42.63    2.10
   5  -1  -1  111.52    5.15
   5  -1  -1  115.53    5.23
   5  -1  -1  114.21    5.19
   5  -1  -1  116.20    5.19
   5  -1  -1  112.10    5.25
  -5   1   1  115.62    5.27
   4  -1  -1   12.20    0.62
   4  -1  -1   10.64    0.58
  -4   1   1   10.70    0.63
  -4   1   1   10.43    1.22
   3  -1  -1   12.30    1.12
  -3   1   1   11.88    1.10
  -3   1   1   11.36    1.11
   2  -1  -1  257.33   11.79
   2  -1  -1  240.81   11.80
  -2   1   1  262.86   11.80
  -2   1   1  254.44   11.81
   1  -1  -1   80.66    3.94
  -1   1   1   82.95    3.96
   0   1   1   -0.01    0.04
   2   1   1  802.42   35.90
  -3  -1  -1  128.12    6.66
  -3  -1  -1  151.30    7.47
   3   1   1  155.65    6.70
   3   1   1  152.95    6.68
   3   1   1  153.89    6.64
  -4  -1  -1  115.50    5.57
   4   1   1  123.25    5.57
   4   1   1  127.70    5.52
   4   1   1  122.38    5.53
   4   1   1  123.34    5.59
   4   1   1  121.21    5.54
  -5  -1  -1   89.68    4.59
   5   1   1   98.61    4.52
   5   1   1  101.63    4.59
   5   1   1  100.97    4.61
   5   1   1  102.24    4.56
   5   1   1  100.25    4.53
   6   1   1  141.72    6.45
   6   1   1  143.82    6.49
   6   1   1  140.01    6.41
   6   1   1  140.40    6.41
   7   1   1    7.34    0.43
   8  -2  -1   77.38    3.57
   8  -2  -1   77.88    3.56
  -8   2   1   76.16    3.66
   7  -2  -1    4.33    0.36
   7  -2  -1    4.19    0.39
   7  -2  -1    4.81    0.38
  -7   2   1    4.82    0.44
   6  -2  -1    1.51    0.26
   6  -2  -1    1.49    0.18
   6  -2  -1    1.49    0.21
   6  -2  -1    1.53    0.22
  -6   2   1    1.13    0.23
   5  -2  -1   35.50    1.75
   5  -2  -1   35.80    1.79
   5  -2  -1   35.39    1.71
   5  -2  -1   38.22    1.74
  -5   2   1   37.28    1.82
   4  -2  -1    8.90    0.51
  -4   2   1    8.18    1.09
  -4   2   1    7.91    0.51
   3  -2  -1  189.22    9.97
   3  -2  -1  219.17   10.01
  -3   2   1  219.60   10.03
  -3   2   1  188.96    9.92
   2  -2  -1  126.21    6.25
   2  -2  -1  129.86    6.21
  -2   2   1  132.49    6.22
  -2   2   1  114.90    6.14
   1  -2  -1   28.05    1.64
   1  -2  -1   28.75    1.63
  -1   2   1   25.72    1.61
   0  -2  -1   34.88    1.79
   0  -2  -1   36.64    1.81
   0   2   1   34.53    1.69
   0   2   1   29.81    1.68
  -1  -2  -1  457.21   20.55
  -2  -2  -1  156.40    7.84
  -2  -2  -1  176.35    7.88
   3   2   1  123.78    5.54
   3   2   1  123.30    5.60
   3   2   1  127.93    5.60
   3   2   1  119.41    5.54
   3   2   1  130.29    5.61
   3   2   1  113.98    5.55
   4   2   1    0.55    0.15
   4   2   1    0.55    0.13
   4   2   1    0.31    0.11
   4   2   1    1.00    0.23
   4   2   1    0.41    0.11
   5   2   1   96.12    4.24
   5   2   1   95.82    4.32
   5   2   1   87.79    4.25
   5   2   1   90.04    4.23
   6   2   1   13.00    0.71
   6   2   1   12.76    0.76
   8  -3  -1   42.01    1.99
   8  -3  -1   42.29    1.98
   8  -3  -1   38.34    2.00
  -8   3   1   42.74    2.09
   7  -3  -1   39.58    1.89
   7  -3  -1   39.78    1.88
   7  -3  -1   37.76    1.95
  -7   3   1   36.73    1.98
   6  -3  -1    1.67    0.26
   5  -3  -1    0.70    0.11
   5  -3  -1    0.56    0.14
   4  -3  -1    8.88    0.53
   4  -3  -1    9.29    0.55
  -4   3   1    8.92    0.55
   3  -3  -1  223.61   10.22
   3  -3  -1  234.19   11.18
  -3   3   1  226.74   11.18
   2  -3  -1   18.58    1.49
   2  -3  -1   20.09    1.49
   1  -3  -1  360.43   16.04
   1  -3  -1  343.46   15.96
  -1   3   1  341.22   15.90
   0  -3  -1   15.66    1.01
   0  -3  -1   16.94    1.10
   1   3   1   55.93    2.60
   2   3   1   60.98    2.66
   2   3   1   55.34    2.58
   2   3   1   57.52    2.65
   2   3   1   51.88    2.61
   2   3   1   57.12    2.63
   2   3   1   55.51    2.75
   3   3   1  110.07    5.22
   3   3   1  115.21    5.23
   3   3   1  114.20    5.15
   3   3   1  116.47    5.24
   4   3   1  104.82    4.85
   4   3   1  107.96    4.94
   5   3   1   39.96    1.91
   5   3   1   40.31    1.98
   6   3   1    5.52    0.35
   8  -4  -1   15.69    0.90
   8  -4  -1   15.91    0.85
   8  -4  -1   15.28    0.84
  -8   4   1   16.44    0.94
   7  -4  -1    1.69    0.22
   7  -4  -1    2.06    0.26
   7  -4  -1    2.05    0.31
  -7   4   1    1.77    0.28
   6  -4  -1   59.04    2.72
   6  -4  -1   56.08    2.82
   6  -4  -1   56.91    2.80
  -6   4   1   60.65    2.86
   5  -4  -1    1.39    0.24
   5  -4  -1    1.60    0.23
   5  -4  -1    1.64    0.17
   5  -4  -1    1.71    0.21
  -5   4   1    1.56    0.23
   4  -4  -1    3.56    0.29
   4  -4  -1    3.89    0.31
  -4   4   1    3.83    0.31
  -4   4   1    3.05    0.32
   3  -4  -1    5.04    0.82
   3  -4  -1    4.45    0.32
   3  -4  -1    3.85    0.35
   2  -4  -1  191.39    8.89
   2  -4  -1  205.44    9.77
   1  -4  -1   65.67    3.58
   0   4   1    3.87    0.30
   0   4   1    4.18    0.30
   0   4   1    4.38    0.30
   1   4   1    0.18    0.09
   1   4   1    0.19    0.08
   1   4   1    0.22    0.09
   1   4   1    0.05    0.10
   2   4   1    7.62    0.49
   2   4   1    8.16    0.52
   2   4   1    6.97    0.50
   2   4   1    7.02    0.43
   3   4   1    0.22    0.10
   3   4   1    0.05    0.17
   3   4   1    0.45    0.17
   4   4   1   26.67    1.31
   4   4   1   26.64    1.39
   5   4   1    5.97    0.41
   5   4   1    5.58    0.36
   8  -5  -1   74.58    3.41
   8  -5  -1   74.24    3.34
  -8   5   1   67.94    3.42
   7  -5  -1    4.34    0.38
   7  -5  -1    3.77    0.39
  -7   5   1    3.88    0.39
   6  -5  -1   46.70    2.21
   6  -5  -1   43.19    2.24
  -6   5   1   43.27    2.22
   5  -5  -1   20.94    1.21
   5  -5  -1   22.89    1.20
   5  -5  -1   23.49    1.25
   4  -5  -1    9.54    0.61
   4  -5  -1    9.77    0.60
  -4   5   1    9.64    0.66
   3  -5  -1   82.65    3.87
   3  -5  -1   85.44    3.89
  -3   5   1   76.85    3.83
  -3   5   1   89.39    3.89
  -3   5   1   85.76    3.98
   2  -5  -1    0.17    0.08
  -2   5   1    0.69    0.12
  -2   5   1    0.48    0.17
  -2   5   1    0.41    0.11
  -2   5   1    0.44    0.12
  -1   5   1  128.68    5.87
  -1   5   1  126.79    5.88
  -1   5   1  132.07    5.87
   0   5   1   28.86    1.49
   0   5   1   29.13    1.47
   0   5   1   30.77    1.49
   1   5   1  556.67   24.30
   1   5   1  540.81   24.30
   1   5   1  536.70   24.27
   2   5   1    0.21    0.16
   2   5   1    0.30    0.15
   2   5   1    0.20    0.15
   3   5   1   88.59    4.13
   4   5   1    6.90    0.47
   8  -6  -1    7.65    0.49
   8  -6  -1    8.90    0.56
   7  -6  -1   72.19    3.68
   7  -6  -1   82.44    3.67
   6  -6  -1    7.54    0.58
   6  -6  -1    8.66    0.58
   6  -6  -1    7.25    0.61
   5  -6  -1   72.10    3.28
   5  -6  -1   68.22    3.31
   5  -6  -1   67.21    3.30
  -5   6   1   67.11    3.35
  -5   6   1   68.89    3.26
   4  -6  -1  125.27    5.86
   4  -6  -1  132.29    5.91
  -4   6   1  125.71    5.98
   3  -6  -1   75.07    3.57
   3  -6  -1   69.32    3.52
  -3   6   1   74.49    3.52
  -3   6   1   78.26    3.69
  -3   6   1   82.17    3.59
   2  -6  -1    0.37    0.13
  -2   6   1    0.26    0.11
  -2   6   1    0.38    0.12
  -2   6   1    0.22    0.11
  -1   6   1  129.96    5.88
  -1   6   1  127.31    5.88
  -1   6   1  128.15    5.91
   0   6   1   15.56    0.91
   0   6   1   17.91    0.95
   0   6   1   15.84    0.93
   1   6   1   22.43    1.20
   1   6   1   20.82    1.17
   1   6   1   22.36    1.17
   2   6   1    2.98    0.32
   2   6   1    3.54    0.35
   2   6   1    2.81    0.35
   3   6   1   84.05    3.86
   8  -7  -1   14.66    0.81
   7  -7  -1   15.99    0.99
   7  -7  -1   17.72    0.97
  -7   7   1   17.89    0.95
   6  -7  -1    2.15    0.28
   6  -7  -1    1.98    0.33
   6  -7  -1    1.93    0.25
  -6   7   1    1.73    0.26
   5  -7  -1  109.32    5.21
   5  -7  -1  112.32    5.29
   5  -7  -1  114.52    5.29
  -5   7   1  115.66    5.24
   4  -7  -1   13.94    0.88
   4  -7  -1   12.88    0.80
  -4   7   1   16.04    0.88
  -3   7   1    9.24    0.62
  -3   7   1   11.00    0.67
  -2   7   1   49.84    2.32
  -2   7   1   43.62    2.29
  -2   7   1   49.77    2.36
  -1   7   1   54.09    2.58
  -1   7   1   52.93    2.58
  -1   7   1   53.36    2.60
   0   7   1   88.46    4.05
   0   7   1   84.99    4.04
   0   7   1   85.99    4.03
   1   7   1    4.75    0.40
   1   7   1    5.07    0.42
   1   7   1    4.65    0.39
   7  -8  -1    4.79    0.35
  -7   8   1    4.88    0.36
   6  -8  -1    2.15    0.28
   6  -8  -1    2.40    0.34
   6  -8  -1    2.00    0.23
  -6   8   1    2.43    0.26
   5  -8  -1    1.99    0.29
   5  -8  -1    1.90    0.24
   5  -8  -1    2.30    0.33
  -5   8   1    2.24    0.27
   4  -8  -1   -0.02    0.09
   4  -8  -1    0.02    0.13
  -4   8   1    0.09    0.11
  -3   8   1   36.96    1.88
  -3   8   1   39.75    1.93
  -2   8   1   11.01    0.66
  -2   8   1    9.17    0.72
  -2   8   1   11.13    0.67
  -1   8   1    2.10    0.27
  -1   8   1    2.05    0.27
  -1   8   1    2.91    0.29
   0   8   1   24.00    1.21
   0   8   1   24.06    1.21
   5  -9  -1    0.71    0.18
   4  -9  -1   22.20    1.14
  -4   9   1   19.23    1.05
   3  -9  -1    8.39    0.58
  -3   9   1    9.18    0.53
  -3   9   1    8.88    0.53
  -2   9   1   33.65    1.62
  -1   9  -2   17.01    0.98
  -2   9  -2    3.39    0.28
  -3   9  -2   40.57    1.95
  -4   9  -2    4.90    0.36
   4  -9   2    5.26    0.37
   5  -9   2    8.25    0.55
   5  -9   2    7.73    0.49
   0   8  -2   11.30    0.66
   0   8  -2   11.20    0.67
  -1   8  -2  112.32    5.23
  -1   8  -2  115.18    5.22
  -2   8  -2    6.66    0.46
  -2   8  -2    6.22    0.45
   2  -8   2    5.00    0.41
  -3   8  -2   12.46    0.75
   3  -8   2   12.64    0.75
  -4   8  -2    0.12    0.11
   4  -8   2    0.08    0.09
   4  -8   2    0.04    0.10
  -5   8  -2   81.87    3.90
   5  -8   2   79.96    3.76
   5  -8   2   78.04    3.80
  -6   8  -2   10.66    0.73
   6  -8   2   10.60    0.64
   6  -8   2    9.86    0.66
   6  -8   2    9.32    0.66
   7  -8   2    4.63    0.35
   2   7  -2   54.39    2.58
   1   7  -2    9.90    0.63
   1   7  -2   10.81    0.66
   0   7  -2   29.14    1.65
   0   7  -2   30.87    1.54
   0   7  -2   30.15    1.56
  -1   7  -2   37.27    1.91
  -1   7  -2   38.23    1.95
  -1   7  -2   39.21    1.88
  -1   7  -2   41.58    1.95
  -2   7  -2  399.77   18.65
  -2   7  -2  417.42   18.44
  -2   7  -2  391.98   18.49
  -2   7  -2  424.08   18.51
  -2   7  -2  433.92   18.51
  -3   7  -2    5.97    0.46
  -3   7  -2    5.90    0.48
  -3   7  -2    6.41    0.56
  -3   7  -2    6.72    0.47
   3  -7   2    5.30    0.46
   3  -7   2    7.04    0.47
  -4   7  -2   67.85    3.36
  -4   7  -2   63.62    3.19
  -4   7  -2   64.05    3.16
   4  -7   2   70.92    3.23
   4  -7   2   70.68    3.26
  -5   7  -2    3.30    0.41
  -5   7  -2    3.29    0.32
   5  -7   2    3.26    0.34
   5  -7   2    3.12    0.34
  -6   7  -2   55.71    2.74
  -6   7  -2   56.17    2.88
   6  -7   2   59.80    2.85
   6  -7   2   58.96    2.80
  -7   7  -2    6.73    0.46
   7  -7   2    7.13    0.53
   7  -7   2    7.13    0.50
   3   6  -2    4.92    0.39
   2   6  -2   38.23    1.90
   2   6  -2   45.78    2.01
   2   6  -2   38.91    1.97
   2   6  -2   40.80    1.99
   2   6  -2   37.28    1.93
   1   6  -2  106.99    5.07
   1   6  -2  112.79    5.05
   1   6  -2  108.56    5.08
   1   6  -2  113.86    5.13
   0   6  -2  240.12   10.45
   0   6  -2  231.23   10.36
   0   6  -2  235.89   10.41
   0   6  -2  216.35   10.38
  -1   6  -2   50.45    2.61
  -1   6  -2   52.63    2.52
  -1   6  -2   52.14    2.45
  -1   6  -2   50.80    2.49
  -1   6  -2   54.58    2.50
  -2   6  -2   96.25    4.71
  -2   6  -2  108.14    4.72
  -2   6  -2  103.01    4.67
  -2   6  -2  101.39    4.84
  -2   6  -2  103.50    4.73
  -3   6  -2   31.14    1.59
  -3   6  -2   30.30    1.56
  -3   6  -2   31.85    1.70
  -3   6  -2   32.75    1.57
   3  -6   2   31.73    1.61
  -4   6  -2  121.92    5.96
  -4   6  -2  130.90    6.01
  -4   6  -2  128.87    6.15
   4  -6   2  135.21    6.04
   4  -6   2  139.46    6.06
  -5   6  -2   36.56    2.00
   5  -6   2   39.58    1.93
   5  -6   2   37.35    1.93
  -6   6  -2    1.42    0.30
   6  -6   2    1.14    0.18
   6  -6   2    1.44    0.28
   6  -6   2    1.49    0.26
   7  -6   2   40.41    1.96
   7  -6   2   37.16    1.87
   7  -6   2   40.12    2.01
   8  -6   2    7.21    0.43
   8  -6   2    6.50    0.45
   4   5  -2   19.90    0.99
   3   5  -2    3.70    0.30
   3   5  -2    3.38    0.34
   3   5  -2    3.43    0.38
   3   5  -2    3.71    0.29
   2   5  -2   36.12    1.72
   2   5  -2   32.90    1.72
   2   5  -2   34.75    1.68
   2   5  -2   37.78    1.79
   2   5  -2   35.05    1.74
   1   5  -2  140.66    6.32
   1   5  -2  136.84    6.32
   1   5  -2  142.60    6.30
   1   5  -2  143.41    6.37
   1   5  -2  132.09    6.25
   0   5  -2   96.93    4.61
   0   5  -2   92.72    4.70
   0   5  -2  106.34    4.65
   0   5  -2  102.29    4.59
   0   5  -2  105.96    4.63
  -1   5  -2   18.60    1.01
  -1   5  -2   21.15    1.05
  -1   5  -2   19.34    1.10
  -1   5  -2   20.48    1.00
  -2   5  -2   14.53    0.89
  -2   5  -2   12.13    0.73
  -2   5  -2   13.47    0.74
  -2   5  -2   13.11    0.70
  -2   5  -2   13.69    0.73
   2  -5   2   13.19    0.72
  -3   5  -2   30.45    1.55
  -3   5  -2   30.54    1.42
  -3   5  -2   30.20    1.43
  -3   5  -2   28.08    1.44
   3  -5   2   24.92    1.38
   3  -5   2   30.33    1.46
  -4   5  -2   47.29    2.32
   4  -5   2   46.34    2.24
   4  -5   2   47.85    2.23
   4  -5   2   41.99    2.14
  -5   5  -2   65.73    3.54
  -5   5  -2   74.54    3.63
   5  -5   2   80.63    3.56
   5  -5   2   80.26    3.59
   5  -5   2   73.89    3.46
  -6   5  -2    8.60    0.64
   6  -5   2    9.30    0.63
   6  -5   2    9.24    0.56
   6  -5   2    8.86    0.64
  -7   5  -2    1.70    0.30
   7  -5   2    1.83    0.22
   7  -5   2    1.79    0.27
   8  -5   2    2.14    0.21
   8  -5   2    1.63    0.22
   8  -5   2    2.16    0.22
   5   4  -2   11.30    0.65
   5   4  -2   12.08    0.63
   5   4  -2   10.95    0.63
   4   4  -2   35.41    1.80
   4   4  -2   37.53    1.75
   4   4  -2   36.68    1.77
   3   4  -2    6.05    0.41
   3   4  -2    6.02    0.45
   3   4  -2    5.99    0.39
   3   4  -2    5.99    0.47
   2   4  -2  656.84   28.89
   2   4  -2  629.55   28.88
   2   4  -2  643.00   28.83
   2   4  -2  657.14   28.87
   2   4  -2  662.27   28.93
   1   4  -2  140.69    6.69
   1   4  -2  147.02    6.67
   1   4  -2  147.47    6.69
   1   4  -2  146.19    6.64
   1   4  -2  160.29    6.74
   0   4  -2   79.99    3.65
   0   4  -2   78.76    3.63
   1  -4   2   60.32    3.35
   2  -4   2   67.81    3.19
   2  -4   2   71.53    3.99
  -3   4  -2   70.17    3.25
   3  -4   2   68.10    3.18
   3  -4   2   67.04    4.12
  -4   4  -2    3.88    0.32
  -4   4  -2    3.71    0.36
   4  -4   2    3.91    0.32
   4  -4   2    4.49    0.32
   4  -4   2    3.76    0.27
  -5   4  -2   27.78    1.46
  -5   4  -2   26.46    1.48
   5  -4   2   28.36    1.37
   5  -4   2   28.90    1.47
   5  -4   2   27.25    1.42
  -6   4  -2    0.08    0.11
   6  -4   2    0.08    0.11
   6  -4   2    0.13    0.08
   6  -4   2    0.08    0.11
  -7   4  -2   73.99    3.52
   7  -4   2   73.54    3.39
   7  -4   2   69.90    3.42
  -8   4  -2   39.24    1.98
   8  -4   2   39.03    1.89
   8  -4   2   39.87    1.88
   6   3  -2    9.13    0.51
   6   3  -2    8.82    0.51
   5   3  -2   29.92    1.49
   5   3  -2   29.83    1.46
   5   3  -2   29.91    1.51
   4   3  -2   28.27    1.43
   4   3  -2   27.03    1.39
   4   3  -2   28.44    1.37
   3   3  -2    1.67    0.17
   3   3  -2    1.49    0.20
   3   3  -2    1.75    0.24
   3   3  -2    2.06    0.22
   2   3  -2  160.79    7.02
   2   3  -2  153.58    7.03
   2   3  -2  157.92    7.00
   2   3  -2  162.56    7.06
   2   3  -2  146.87    7.04
  -1  -3   2    0.06    0.41
   0  -3   2  324.64   14.71
  -1   3  -2    9.20    0.80
   1  -3   2   10.25    0.85
  -2   3  -2   36.62    2.35
   2  -3   2   36.35    2.37
   2  -3   2   36.91    2.33
  -3   3  -2    0.74    0.15
  -3   3  -2    1.09    0.51
   3  -3   2    1.09    0.15
   3  -3   2    1.06    0.39
  -4   3  -2    5.89    0.40
   4  -3   2    5.30    0.38
   4  -3   2    5.40    0.34
   4  -3   2    5.33    0.38
  -5   3  -2   27.64    1.48
   5  -3   2   28.28    1.44
   5  -3   2   28.55    1.36
   5  -3   2   27.27    1.46
   5  -3   2   30.61    1.41
  -6   3  -2   14.11    0.86
   6  -3   2   12.33    0.70
   6  -3   2   12.91    0.78
   6  -3   2   13.85    0.76
  -7   3  -2   12.49    0.80
   7  -3   2    9.78    0.62
   7  -3   2   12.25    0.69
   7  -3   2   11.83    0.69
  -8   3  -2    0.60    0.17
   8  -3   2    0.54    0.13
   8  -3   2    0.61    0.13
   6   2  -2   47.03    2.23
   6   2  -2   47.97    2.27
   5   2  -2  211.64    9.43
   5   2  -2  216.65    9.49
   5   2  -2  203.84    9.46
   5   2  -2  207.46    9.46
   4   2  -2   25.60    1.21
   4   2  -2   24.57    1.24
   4   2  -2   26.06    1.27
   4   2  -2   23.17    1.25
   4   2  -2   24.25    1.23
   3   2  -2  180.06    7.89
   3   2  -2  179.66    7.88
   3   2  -2  182.78    7.86
   3   2  -2  167.66    7.90
   3   2  -2  168.24    7.90
   3   2  -2  176.06    7.90
  -2  -2   2  115.58    5.79
  -2  -2   2  131.18    5.85
  -1  -2   2  137.14    6.04
  -1  -2   2  125.04    5.97
   0   2  -2    9.87    0.65
   0   2  -2   10.50    0.69
   0  -2   2   11.26    0.74
   0  -2   2   10.69    0.73
  -1   2  -2  286.28   13.82
   1  -2   2  309.12   13.89
   1  -2   2  309.58   13.84
  -2   2  -2  194.68    8.86
  -2   2  -2  180.40    8.86
   2  -2   2  177.58    8.77
   2  -2   2  179.15    8.86
  -3   2  -2  214.35   11.35
  -3   2  -2  229.82   10.45
  -3   2  -2  248.27   11.41
   3  -2   2  241.09   11.34
  -4   2  -2    1.44    0.18
  -4   2  -2    1.42    0.58
   4  -2   2    1.10    0.16
   4  -2   2    1.19    0.14
  -5   2  -2   18.98    1.03
   5  -2   2   16.20    0.96
   5  -2   2   19.19    0.96
   5  -2   2   18.79    0.97
   5  -2   2   18.22    0.91
  -6   2  -2  355.88   15.59
   6  -2   2  332.37   15.41
   6  -2   2  337.54   15.49
   6  -2   2  357.67   15.47
   6  -2   2  344.06   15.46
  -7   2  -2    5.90    0.50
   7  -2   2    5.82    0.42
   7  -2   2    5.54    0.38
   7  -2   2    5.79    0.42
   8  -2   2    7.05    0.45
   8  -2   2    8.56    0.47
   8  -2   2    8.89    0.50
   7   1  -2   27.40    1.34
   7   1  -2   26.75    1.30
   6   1  -2   47.61    2.24
   6   1  -2   45.60    2.24
   6   1  -2   45.77    2.19
   5   1  -2   17.06    0.90
   5   1  -2   17.91    0.87
   5   1  -2   17.50    0.91
   5   1  -2   15.43    0.92
   5   1  -2   17.46    0.92
  -5  -1   2   14.68    0.92
   4   1  -2    1.02    0.15
   4   1  -2    1.65    0.21
   4   1  -2    1.33    0.15
   4   1  -2    1.14    0.15
  -4  -1   2    0.95    0.16
  -3  -1   2  581.25   26.53
   2   1  -2  225.02   10.47
  -2  -1   2  225.23   10.55
  -2  -1   2  236.20   10.64
   1   1  -2  181.45    8.71
   1   1  -2  186.30    8.70
  -1  -1   2  197.05    8.77
  -1  -1   2  201.56    8.80
  -1   1  -2  101.83    4.90
  -1   1  -2   98.51    4.91
   1  -1   2  103.56    4.92
   1  -1   2   99.17    4.93
  -2   1  -2  165.25    7.98
  -2   1  -2  166.98    7.91
   2  -1   2  172.42    7.95
   2  -1   2  149.55    7.91
  -3   1  -2  160.45    7.73
  -3   1  -2  147.51    6.86
   3  -1   2  149.44    8.07
  -4   1  -2   14.35    0.83
  -4   1  -2   15.49    1.63
   4  -1   2   16.36    0.83
   4  -1   2   14.21    0.79
   4  -1   2   16.62    0.82
   4  -1   2   15.36    0.77
  -5   1  -2   69.94    3.31
   5  -1   2   68.21    3.20
   5  -1   2   72.26    3.27
   5  -1   2   67.88    3.22
   5  -1   2   69.52    3.27
   5  -1   2   69.36    3.24
  -6   1  -2   94.22    4.42
   6  -1   2   92.03    4.26
   6  -1   2   97.42    4.33
   6  -1   2   90.16    4.34
   6  -1   2   91.50    4.29
  -7   1  -2   16.09    0.98
   7  -1   2   16.22    0.88
   7  -1   2   15.37    0.85
   7  -1   2   16.06    0.84
   7   0  -2   98.97    4.47
   7   0  -2   90.93    4.40
   7   0  -2  102.65    4.48
  -7   0   2   95.80    4.54
   6   0  -2   90.96    4.18
   6   0  -2   93.44    4.23
   6   0  -2   87.09    4.27
   6   0  -2   94.80    4.23
  -6   0   2   90.58    4.31
   5   0  -2  203.69    9.54
   5   0  -2  208.73    9.58
   5   0  -2  212.99    9.52
   5   0  -2  220.20    9.53
   5   0  -2  214.76    9.49
  -5   0   2  211.45    9.59
   4   0  -2    2.55    0.21
   4   0  -2    2.59    0.21
   4   0  -2    2.57    0.23
   4   0  -2    2.69    0.20
   4   0  -2    2.89    0.23
  -4   0   2    2.67    0.63
  -4   0   2    2.46    0.23
  -3   0   2  148.12    7.49
  -3   0   2  156.14    7.61
   2   0  -2   44.85    2.56
  -2   0   2   49.48    2.60
  -2   0   2   48.07    2.62
   1   0  -2   49.31    2.55
  -1   0   2   51.98    2.57
  -1   0   2   47.81    2.53
  -1   0  -2  239.84   14.06
  -2   0  -2  201.73    9.82
  -2   0  -2  213.56    9.79
   2   0   2  204.00    9.78
  -3   0  -2    3.74    0.28
  -3   0  -2    4.10    0.66
  -4   0  -2   38.98    2.00
   4   0   2   42.34    1.95
   4   0   2   42.50    1.98
   4   0   2   41.67    2.00
   4   0   2   43.25    1.94
   4   0   2   40.17    1.96
   5   0   2    0.05    0.11
   5   0   2    0.05    0.08
   5   0   2    0.21    0.10
   5   0   2    0.10    0.08
   5   0   2    0.09    0.11
  -6   0  -2    0.22    0.13
   6   0   2    0.53    0.18
   6   0   2    0.30    0.13
   6   0   2    0.46    0.12
   6   0   2    0.36    0.13
   6   0   2    0.32    0.12
  -7   0  -2    4.67    0.43
   7   0   2    4.20    0.31
   7   0   2    4.70    0.34
   7   0   2    4.20    0.32
   8  -1  -2    3.40    0.28
   8  -1  -2    3.85    0.29
   7  -1  -2   49.57    2.48
   7  -1  -2   57.42    2.57
   7  -1  -2   56.19    2.57
   7  -1  -2   50.36    2.60
  -7   1   2   55.09    2.67
   6  -1  -2   40.35    1.93
   6  -1  -2   40.87    1.98
   6  -1  -2   41.88    1.99
   6  -1  -2   40.12    2.05
  -6   1   2   41.05    2.08
   5  -1  -2  194.90    8.75
   5  -1  -2  187.45    8.80
   5  -1  -2  198.18    8.75
   5  -1  -2  191.11    8.70
  -5   1   2  201.20    8.82
   4  -1  -2    0.54    0.14
   4  -1  -2    0.78    0.13
   4  -1  -2    0.54    0.13
  -4   1   2    0.49    0.40
  -4   1   2    0.32    0.13
   3  -1  -2  148.21    7.37
  -3   1   2  144.43    7.39
  -3   1   2  148.52    7.35
   2  -1  -2   13.19    1.06
   2  -1  -2   12.93    1.03
  -2   1   2   12.46    1.01
  -2   1   2   11.94    1.01
   1  -1  -2   46.08    2.40
   1  -1  -2   43.87    2.36
  -1   1   2   45.08    2.37
  -1   1   2   40.22    2.32
   0  -1  -2   13.19    0.89
   0  -1  -2   13.79    0.92
   0   1   2   11.99    0.86
  -2  -1  -2  299.62   13.09
  -2  -1  -2  278.76   13.08
   2   1   2  256.36   12.86
  -3  -1  -2  211.54   10.16
  -3  -1  -2  217.90   11.09
   3   1   2  234.86   10.12
   3   1   2  225.04   10.16
   3   1   2  229.41   10.18
   3   1   2  242.62   10.31
  -4  -1  -2  376.60   17.73
   4   1   2  400.70   17.75
   4   1   2  389.91   17.67
   4   1   2  414.10   17.73
   4   1   2  407.53   17.67
   4   1   2  392.20   17.69
  -5  -1  -2    1.26    0.25
   5   1   2    2.07    0.24
   5   1   2    1.91    0.25
   5   1   2    2.06    0.24
   5   1   2    1.89    0.26
   5   1   2    1.55    0.22
   6   1   2   77.42    3.67
   6   1   2   76.12    3.62
   6   1   2   80.85    3.61
   7   1   2   28.29    1.35
   8  -2  -2   68.23    3.13
   8  -2  -2   67.26    3.13
   8  -2  -2   58.80    3.13
  -8   2   2   75.47    3.25
   7  -2  -2    7.30    0.47
   7  -2  -2    6.49    0.45
   7  -2  -2    5.93    0.49
  -7   2   2    6.40    0.53
   6  -2  -2   53.27    2.55
   6  -2  -2   54.09    2.55
   6  -2  -2   53.56    2.63
  -6   2   2   54.50    2.66
   5  -2  -2   16.62    0.87
   5  -2  -2   16.89    0.92
  -5   2   2   17.00    0.94
   4  -2  -2  105.08    4.83
   4  -2  -2  103.34    4.81
  -4   2   2  107.38    4.84
  -4   2   2  107.51    5.97
   3  -2  -2  141.27    7.58
   3  -2  -2  155.94    7.60
  -3   2   2  165.55    7.62
  -3   2   2  133.30    7.49
   2  -2  -2   73.65    4.06
   2  -2  -2   80.60    4.09
  -2   2   2   72.89    4.00
  -2   2   2   76.27    4.07
   1  -2  -2   63.76    3.30
   1  -2  -2   63.97    3.30
  -1   2   2   58.87    3.27
   0  -2  -2    5.04    0.54
   0  -2  -2    5.50    0.56
   0   2   2    5.09    0.49
  -1  -2  -2  131.40    6.49
  -1  -2  -2  136.99    6.55
  -2  -2  -2    9.29    0.90
   2   2   2    9.63    0.63
   2   2   2    9.68    0.55
   2   2   2    9.65    0.54
   3   2   2    1.04    0.18
   3   2   2    1.08    0.20
   3   2   2    1.01    0.22
   3   2   2    1.26    0.16
   4   2   2   21.36    1.13
   4   2   2   20.63    1.03
   4   2   2   18.87    1.03
   4   2   2   20.24    1.10
   5   2   2   18.10    0.98
   5   2   2   14.70    1.00
   5   2   2   18.08    0.91
   6   2   2   35.86    1.80
   6   2   2   37.52    1.75
   8  -3  -2  102.64    4.53
   8  -3  -2   95.06    4.58
   8  -3  -2   96.82    4.52
  -8   3   2  101.16    4.64
   7  -3  -2  139.69    6.39
   7  -3  -2  139.25    6.40
  -7   3   2  142.68    6.53
   6  -3  -2  127.46    5.82
   6  -3  -2  124.73    5.73
   6  -3  -2  123.86    5.72
  -6   3   2  127.24    5.84
   5  -3  -2    6.29    0.41
   5  -3  -2    6.41    0.45
   5  -3  -2    7.80    0.50
  -5   3   2    6.98    0.50
   4  -3  -2    1.36    0.27
   4  -3  -2    1.55    0.19
   4  -3  -2    1.64    0.18
  -4   3   2    1.27    0.18
   3  -3  -2   98.43    5.34
   3  -3  -2   93.54    4.38
   2  -3  -2  439.87   21.06
   2  -3  -2  471.85   21.07
   1  -3  -2  122.63    5.83
   1  -3  -2  116.81    5.77
  -1   3   2  107.47    5.64
   0  -3  -2   26.86    1.66
   0  -3  -2   26.62    1.73
  -1  -3  -2  315.82   14.50
  -1  -3  -2  322.94   14.59
   1   3   2  319.27   14.19
   1   3   2  329.22   14.18
   1   3   2  301.00   14.16
   2   3   2   18.97    1.04
   2   3   2   20.78    1.07
   2   3   2   20.82    1.05
   2   3   2   20.57    1.00
   2   3   2   21.53    1.08
   2   3   2   21.11    1.18
   3   3   2   51.40    2.53
   3   3   2   54.38    2.47
   3   3   2   51.76    2.54
   3   3   2   54.41    2.55
   4   3   2    1.08    0.24
   4   3   2    0.68    0.14
   5   3   2   67.88    3.10
   5   3   2   66.22    3.16
   8  -4  -2    4.11    0.31
   8  -4  -2    4.45    0.33
   8  -4  -2    4.14    0.36
  -8   4   2    3.42    0.37
   7  -4  -2    6.85    0.46
   7  -4  -2    7.48    0.48
   7  -4  -2    7.40    0.54
  -7   4   2    7.07    0.56
   6  -4  -2    2.39    0.23
   6  -4  -2    2.27    0.27
   6  -4  -2    1.96    0.27
  -6   4   2    2.13    0.29
   5  -4  -2    4.17    0.39
   5  -4  -2    4.30    0.36
   5  -4  -2    4.60    0.38
  -5   4   2    4.51    0.38
   4  -4  -2    2.93    0.27
   4  -4  -2    2.91    0.26
   4  -4  -2    2.94    0.28
  -4   4   2    2.74    0.26
   3  -4  -2  118.45    6.68
   3  -4  -2  130.58    5.61
   3  -4  -2  120.17    5.57
   2  -4  -2  329.43   14.91
   2  -4  -2  338.11   15.85
  -2   4   2  335.23   14.91
   1  -4  -2    1.51    0.16
   1  -4  -2    1.64    0.40
  -1   4   2    1.60    0.18
  -1   4   2    1.52    0.17
  -1   4   2    1.90    0.18
   0   4   2   42.58    1.98
   0   4   2   41.98    1.99
   0   4   2   40.87    2.00
   1   4   2   11.85    0.68
   1   4   2   11.00    0.75
   1   4   2   12.71    0.69
   1   4   2   11.66    0.66
   2   4   2   20.64    1.05
   2   4   2   21.52    1.14
   2   4   2   21.78    1.15
   2   4   2   21.57    1.12
   3   4   2   23.49    1.16
   3   4   2   23.34    1.26
   4   4   2   16.58    0.85
   4   4   2   16.28    0.93
   5   4   2    9.62    0.56
   8  -5  -2   87.18    3.83
   8  -5  -2   80.89    3.73
  -8   5   2   76.44    3.82
   7  -5  -2   35.53    1.71
   7  -5  -2   32.44    1.81
   7  -5  -2   38.47    1.82
  -7   5   2   34.15    1.82
   6  -5  -2  154.24    6.84
   6  -5  -2  151.59    6.78
   6  -5  -2  140.88    6.79
  -6   5   2  143.78    6.79
   5  -5  -2   41.41    2.09
   5  -5  -2   40.62    2.09
   5  -5  -2   42.66    2.06
   4  -5  -2  203.73    8.92
   4  -5  -2  203.15    8.95
  -4   5   2  185.13    8.98
   3  -5  -2   16.44    0.89
   3  -5  -2   17.74    0.93
  -3   5   2   17.54    1.00
  -3   5   2   15.66    0.87
  -3   5   2   17.56    0.92
   2  -5  -2   77.07    3.58
  -2   5   2   78.82    3.59
  -2   5   2   71.51    3.54
  -2   5   2   82.17    3.58
  -1   5   2    9.16    0.56
  -1   5   2    9.16    0.57
  -1   5   2    9.38    0.56
   0   5   2   17.86    0.95
   0   5   2   17.56    0.94
   0   5   2   16.88    0.95
   1   5   2  101.42    4.74
   1   5   2  101.33    4.73
   1   5   2  104.75    4.75
   2   5   2   70.53    3.39
   2   5   2   73.08    3.41
   2   5   2   72.85    3.42
   3   5   2   13.34    0.81
   4   5   2    1.50    0.21
   8  -6  -2   40.28    1.91
   8  -6  -2   34.17    1.81
  -8   6   2   41.73    1.89
   7  -6  -2    0.27    0.15
   7  -6  -2    0.24    0.12
   7  -6  -2    0.41    0.13
   6  -6  -2   84.41    4.01
   6  -6  -2   86.07    3.96
   6  -6  -2   81.31    4.01
   5  -6  -2   35.24    1.89
   5  -6  -2   38.06    1.86
   5  -6  -2   37.58    1.92
  -5   6   2   36.93    1.85
   4  -6  -2  218.09    9.70
   4  -6  -2  204.80    9.63
  -4   6   2  223.73    9.67
  -4   6   2  207.27    9.76
   3  -6  -2    4.48    0.36
   3  -6  -2    5.52    0.42
  -3   6   2    5.56    0.41
  -3   6   2    4.61    0.37
   2  -6  -2    2.99    0.32
  -2   6   2    4.30    0.36
  -2   6   2    3.75    0.32
  -2   6   2    4.89    0.35
  -1   6   2  120.77    5.59
  -1   6   2  125.09    5.57
  -1   6   2  118.37    5.57
   1   6   2    3.88    0.38
   1   6   2    4.17    0.39
   1   6   2    4.07    0.38
   2   6   2    7.17    0.51
   2   6   2    7.70    0.54
   3   6   2   59.92    2.78
   8  -7  -2    3.11    0.32
  -8   7   2    3.40    0.36
   7  -7  -2   47.45    2.31
   7  -7  -2   47.08    2.36
  -7   7   2   48.88    2.31
   6  -7  -2   20.56    1.14
   6  -7  -2   20.72    1.20
   6  -7  -2   21.73    1.24
  -6   7   2   22.10    1.15
   5  -7  -2   10.78    0.73
   5  -7  -2   11.01    0.76
   5  -7  -2   10.83    0.68
  -5   7   2   11.28    0.70
   4  -7  -2    0.06    0.11
   4  -7  -2    0.09    0.11
   4  -7  -2    0.06    0.09
  -4   7   2    0.36    0.13
  -3   7   2    1.40    0.23
  -3   7   2    1.81    0.23
  -2   7   2   11.33    0.71
  -2   7   2   11.64    0.69
  -2   7   2    9.85    0.66
  -1   7   2   28.97    1.51
  -1   7   2   29.62    1.50
  -1   7   2   28.56    1.49
   0   7   2   25.97    1.40
   0   7   2   28.48    1.42
   0   7   2   27.21    1.40
   1   7   2    5.13    0.41
   1   7   2    4.75    0.40
   7  -8  -2   37.24    2.05
  -7   8   2   41.57    1.90
   6  -8  -2    6.71    0.47
   6  -8  -2    8.19    0.58
  -6   8   2    7.60    0.50
   5  -8  -2   29.15    1.54
  -5   8   2   28.66    1.47
   4  -8  -2    2.27    0.29
  -4   8   2    1.84    0.26
   3  -8  -2    0.28    0.14
  -3   8   2    0.32    0.13
  -3   8   2    0.13    0.11
   2  -8  -2    2.49    0.31
  -2   8   2    2.60    0.29
  -2   8   2    2.84    0.29
  -1   8   2    0.16    0.11
  -1   8   2   -0.01    0.13
   0   8   2    8.91    0.53
   0   8   2    8.60    0.53
   5  -9  -2    1.71    0.25
   4  -9  -2    0.09    0.12
  -4   9   2    0.08    0.09
  -3   9   2    0.55    0.18
  -1   9  -3   10.54    0.62
  -2   9  -3   26.33    1.45
  -2   9  -3   31.18    1.43
  -3   9  -3    0.33    0.12
   3  -9   3    0.18    0.11
  -4   9  -3    0.61    0.15
   4  -9   3    0.46    0.13
   5  -9   3    5.20    0.41
   5  -9   3    5.26    0.38
   1   8  -3   20.55    1.11
   0   8  -3    0.10    0.11
   0   8  -3    0.12    0.10
  -1   8  -3   85.62    3.85
  -1   8  -3   81.40    3.84
  -1   8  -3   80.00    3.77
  -2   8  -3   31.88    1.65
  -2   8  -3   35.28    1.67
   2  -8   3   31.71    1.65
  -3   8  -3   94.82    4.30
  -3   8  -3   92.41    4.46
  -3   8  -3   89.98    4.44
   3  -8   3   92.28    4.30
  -4   8  -3   15.97    0.93
  -4   8  -3   18.05    1.10
   4  -8   3   17.09    0.96
  -5   8  -3   87.60    4.29
   5  -8   3   89.18    4.16
   5  -8   3   90.03    4.21
  -6   8  -3    5.53    0.50
   6  -8   3    5.89    0.46
   6  -8   3    5.90    0.44
   7  -8   3    2.89    0.26
   2   7  -3    9.15    0.58
   1   7  -3    0.73    0.16
   1   7  -3    0.64    0.15
   1   7  -3    1.13    0.21
   0   7  -3   57.78    2.68
   0   7  -3   55.20    2.75
   0   7  -3   58.37    2.74
  -1   7  -3   86.45    3.95
  -1   7  -3   85.53    4.01
  -1   7  -3   84.55    3.99
  -2   7  -3   38.57    1.83
  -2   7  -3   36.30    2.01
  -2   7  -3   38.14    1.89
  -2   7  -3   37.60    1.87
  -3   7  -3    4.86    0.37
  -3   7  -3    4.27    0.36
  -3   7  -3    4.41    0.46
   3  -7   3    3.26    0.35
  -4   7  -3   33.59    1.84
  -4   7  -3   32.95    1.68
   4  -7   3   33.87    1.74
   4  -7   3   33.51    1.72
  -5   7  -3    1.15    0.29
   5  -7   3    1.66    0.25
   5  -7   3    1.67    0.27
  -6   7  -3    0.12    0.15
   6  -7   3    0.14    0.12
   6  -7   3    0.11    0.11
   7  -7   3   20.09    1.11
   7  -7   3   19.66    1.07
   3   6  -3    3.09    0.31
   3   6  -3    3.23    0.27
   3   6  -3    3.33    0.27
   2   6  -3   51.26    2.43
   2   6  -3   47.43    2.31
   2   6  -3   50.36    2.35
   1   6  -3   78.73    3.64
   1   6  -3   80.49    3.60
   1   6  -3   72.49    3.54
   1   6  -3   78.78    3.67
   0   6  -3  237.57   10.37
   0   6  -3  231.51   10.29
   0   6  -3  217.85   10.31
  -1   6  -3    0.47    0.13
  -1   6  -3    0.34    0.16
  -1   6  -3    0.38    0.13
  -2   6  -3  314.12   14.06
  -2   6  -3  320.54   13.88
  -2   6  -3  318.12   13.94
  -2   6  -3  332.66   13.93
   2  -6   3  267.87   13.90
  -3   6  -3   72.34    3.53
  -3   6  -3   76.87    3.71
  -3   6  -3   78.89    3.57
  -3   6  -3   74.12    3.57
   3  -6   3   80.50    3.61
  -4   6  -3  532.92   22.17
  -4   6  -3  484.78   21.95
  -4   6  -3  462.44   21.96
   4  -6   3  499.34   22.03
   4  -6   3  525.51   22.03
   4  -6   3  450.47   21.91
  -5   6  -3   11.23    0.79
   5  -6   3   10.90    0.70
   5  -6   3   10.04    0.61
   5  -6   3   10.39    0.71
  -6   6  -3   99.97    4.92
   6  -6   3  106.44    4.89
   6  -6   3  100.89    4.74
   6  -6   3  106.89    4.84
   7  -6   3    6.20    0.41
   7  -6   3    6.53    0.46
   7  -6   3    5.91    0.49
   8  -6   3   38.16    1.81
   4   5  -3    3.39    0.27
   3   5  -3   44.54    2.14
   3   5  -3   44.10    2.18
   3   5  -3   45.37    2.10
   2   5  -3   61.54    3.08
   2   5  -3   65.57    3.08
   2   5  -3   69.41    3.15
   2   5  -3   67.22    3.04
   1   5  -3    0.13    0.08
   1   5  -3    0.18    0.09
   1   5  -3    0.18    0.11
   1   5  -3    0.26    0.11
   0   5  -3  107.45    5.03
   0   5  -3  117.48    5.09
   0   5  -3  119.13    5.14
   0   5  -3  111.13    5.10
   0   5  -3  104.09    5.19
  -1   5  -3    1.71    0.24
  -1   5  -3    1.70    0.19
  -1   5  -3    1.77    0.28
  -1   5  -3    1.83    0.21
  -1   5  -3    1.59    0.18
  -2   5  -3    6.19    0.37
  -2   5  -3    6.29    0.53
  -2   5  -3    6.12    0.40
  -2   5  -3    5.89    0.46
   2  -5   3    5.37    0.38
   2  -5   3    4.98    0.35
  -3   5  -3    1.18    0.17
  -3   5  -3    1.02    0.18
  -3   5  -3    1.53    0.20
  -3   5  -3    1.60    0.19
  -3   5  -3    1.25    0.26
   3  -5   3    1.06    0.15
   3  -5   3    1.36    0.17
  -4   5  -3   38.30    2.00
   4  -5   3   40.02    1.91
   4  -5   3   39.36    1.93
   4  -5   3   36.37    1.83
  -5   5  -3    0.31    0.15
  -5   5  -3    0.32    0.17
   5  -5   3    0.37    0.14
   5  -5   3    0.16    0.09
   5  -5   3    0.27    0.13
  -6   5  -3   28.59    1.66
  -6   5  -3   31.02    1.64
   6  -5   3   33.52    1.67
   6  -5   3   29.82    1.59
   6  -5   3   31.22    1.54
  -7   5  -3    8.72    0.65
   7  -5   3    8.65    0.58
   7  -5   3    9.54    0.57
   8  -5   3   12.17    0.68
   8  -5   3   12.59    0.68
   5   4  -3    0.18    0.11
   5   4  -3    0.13    0.10
   4   4  -3   65.12    3.01
   4   4  -3   63.52    2.98
   3   4  -3   23.80    1.22
   3   4  -3   22.86    1.17
   3   4  -3   23.21    1.15
   3   4  -3   22.51    1.20
   2   4  -3   46.23    2.18
   2   4  -3   40.60    2.12
   2   4  -3   45.60    2.10
   2   4  -3   47.07    2.33
   2   4  -3   46.11    2.13
   1   4  -3    1.36    0.16
   1   4  -3    1.58    0.24
   1   4  -3    1.49    0.15
   1   4  -3    1.56    0.17
   1   4  -3    1.51    0.18
   0   4  -3  148.02    6.52
   0   4  -3  158.34    6.58
   0   4  -3  148.30    6.54
   0   4  -3  148.58    6.69
   0  -4   3  123.24    6.82
  -1   4  -3  261.84   12.02
   1  -4   3  276.31   12.74
   2  -4   3   56.89    3.45
   2  -4   3   53.93    2.57
  -3   4  -3   65.97    3.16
   3  -4   3   65.42    3.04
   3  -4   3   70.52    3.10
   3  -4   3   63.46    4.13
  -4   4  -3  152.42    7.08
  -4   4  -3  157.88    7.16
   4  -4   3  163.26    7.09
   4  -4   3  151.01    7.05
   4  -4   3  153.45    7.01
  -5   4  -3   25.64    1.40
   5  -4   3   25.75    1.27
   5  -4   3   24.78    1.35
   5  -4   3   24.14    1.30
  -6   4  -3    9.56    0.69
   6  -4   3    8.89    0.64
   6  -4   3   10.74    0.60
   6  -4   3    9.06    0.61
  -7   4  -3    0.71    0.21
   7  -4   3    0.40    0.19
   7  -4   3    0.57    0.14
  -8   4  -3    5.44    0.46
   8  -4   3    5.62    0.38
   6   3  -3    0.96    0.16
   6   3  -3    0.70    0.13
   5   3  -3   11.20    0.63
   5   3  -3   11.93    0.68
   5   3  -3   11.06    0.67
   4   3  -3   46.52    2.09
   4   3  -3   44.61    2.12
   4   3  -3   44.85    2.14
   4   3  -3   40.88    2.13
   3   3  -3    2.66    0.30
   3   3  -3    2.66    0.26
   3   3  -3    2.69    0.24
   3   3  -3    2.99    0.23
   2   3  -3   99.19    4.28
   2   3  -3   83.72    4.32
   2   3  -3   96.51    4.34
   2   3  -3   96.44    4.34
   2   3  -3   98.19    4.30
  -1  -3   3    0.03    0.41
   0  -3   3  416.64   18.56
   0  -3   3  397.68   18.53
  -1   3  -3   75.94    4.04
   1  -3   3   78.60    4.08
   1  -3   3   76.35    4.10
  -2   3  -3  135.12    6.85
   2  -3   3  148.01    6.96
   2  -3   3  121.46    6.85
  -3   3  -3  250.71   11.23
   3  -3   3  243.32   12.29
   3  -3   3  257.70   11.23
  -4   3  -3  106.12    5.07
  -4   3  -3  110.49    4.99
   4  -3   3  109.51    4.91
   4  -3   3  112.78    4.98
   4  -3   3  102.19    4.93
  -5   3  -3    1.62    0.32
  -5   3  -3    1.72    0.24
   5  -3   3    1.37    0.21
   5  -3   3    1.50    0.18
   5  -3   3    1.26    0.23
   5  -3   3    1.57    0.17
   5  -3   3    1.67    0.22
  -6   3  -3   17.18    0.98
   6  -3   3   13.51    0.89
   6  -3   3   16.27    0.86
   6  -3   3   14.57    0.80
  -7   3  -3    2.80    0.34
   7  -3   3    2.41    0.25
   7  -3   3    2.25    0.26
   7  -3   3    2.10    0.24
   8  -3   3    5.09    0.35
   8  -3   3    4.70    0.33
   6   2  -3   37.86    1.81
   6   2  -3   36.13    1.76
   5   2  -3   90.51    4.14
   5   2  -3   92.60    4.13
   5   2  -3   82.77    4.14
   5   2  -3   88.85    4.13
   5   2  -3   91.35    4.08
   4   2  -3   17.45    0.88
   4   2  -3   16.77    0.88
   4   2  -3   16.52    0.91
   4   2  -3   16.98    0.85
   4   2  -3   15.13    0.88
   3   2  -3    3.00    0.26
   3   2  -3    3.12    0.24
   3   2  -3    3.34    0.22
   3   2  -3    2.84    0.27
   3   2  -3    3.04    0.23
  -2  -2   3   16.47    1.11
  -2  -2   3   17.25    1.19
  -1  -2   3  299.99   13.55
  -1  -2   3  292.18   13.49
   0   2  -3    4.75    0.51
   0  -2   3    4.78    0.51
   0  -2   3    4.95    0.52
  -1   2  -3   69.12    3.88
  -1   2  -3   76.73    3.92
   1  -2   3   75.18    3.94
   1  -2   3   78.47    3.92
  -2   2  -3  100.18    5.51
  -2   2  -3  108.32    5.48
   2  -2   3  101.48    5.52
   2  -2   3  111.88    5.52
  -3   2  -3  150.00    6.99
  -3   2  -3  168.22    8.08
   3  -2   3  145.36    6.98
   3  -2   3  156.78    7.98
  -4   2  -3  118.34    5.12
  -4   2  -3  104.28    6.27
   4  -2   3  111.74    5.05
   4  -2   3  111.69    5.04
   4  -2   3  109.18    5.07
  -5   2  -3    0.45    0.14
   5  -2   3    0.52    0.13
   5  -2   3    0.70    0.14
   5  -2   3    0.62    0.12
  -6   2  -3    0.29    0.14
   6  -2   3    0.41    0.14
   6  -2   3    0.51    0.14
   6  -2   3    0.35    0.11
   6  -2   3    0.78    0.17
  -7   2  -3   23.63    1.30
   7  -2   3   22.30    1.14
   7  -2   3   21.96    1.19
   7  -2   3   22.90    1.17
   7  -2   3   21.13    1.12
   8  -2   3   26.32    1.28
   7   1  -3    0.34    0.12
   7   1  -3    0.22    0.09
   6   1  -3   10.46    0.70
   6   1  -3   12.07    0.69
   6   1  -3   12.16    0.65
   6   1  -3   12.04    0.69
   5   1  -3  210.02    9.24
   5   1  -3  207.16    9.20
   5   1  -3  205.21    9.24
   5   1  -3  208.98    9.31
   5   1  -3  201.44    9.25
  -5  -1   3  198.33    9.29
   4   1  -3   46.67    2.20
   4   1  -3   46.68    2.25
   4   1  -3   48.14    2.17
   4   1  -3   45.81    2.19
   4   1  -3   47.61    2.20
  -4  -1   3   45.97    2.23
  -3  -1   3  186.36    8.57
  -3  -1   3  163.55    7.84
   2   1  -3    0.68    0.21
  -2  -1   3    0.60    0.24
  -2  -1   3    0.69    0.23
   1   1  -3  636.90   28.59
   1  -1   3  272.33   16.87
  -2   1  -3  243.72   11.36
  -2   1  -3  226.39   11.41
   2  -1   3  226.38   11.41
   2  -1   3  258.85   11.41
  -3   1  -3  292.90   13.61
  -3   1  -3  315.99   14.58
  -4   1  -3    5.10    0.38
  -4   1  -3    4.57    0.94
   4  -1   3    5.38    0.37
   4  -1   3    5.29    0.35
   4  -1   3    5.30    0.37
  -5   1  -3  347.65   15.11
   5  -1   3  337.99   14.99
   5  -1   3  341.75   15.01
   5  -1   3  331.51   15.05
   5  -1   3  331.34   15.03
   5  -1   3  322.73   14.97
  -6   1  -3    4.08    0.42
   6  -1   3    4.82    0.35
   6  -1   3    4.77    0.38
   6  -1   3    4.60    0.39
   6  -1   3    4.98    0.36
  -7   1  -3    0.28    0.16
   7  -1   3    0.26    0.12
   7  -1   3    0.14    0.10
   7  -1   3    0.03    0.10
   7   0  -3    5.02    0.34
   7   0  -3    5.48    0.39
   7   0  -3    4.30    0.38
   7   0  -3    5.24    0.38
  -7   0   3    4.59    0.43
   6   0  -3    9.74    0.55
   6   0  -3    9.80    0.59
   6   0  -3    9.39    0.64
   6   0  -3    9.96    0.59
  -6   0   3    8.46    0.64
   5   0  -3    3.06    0.26
   5   0  -3    2.83    0.29
   5   0  -3    3.16    0.26
   5   0  -3    3.51    0.25
  -5   0   3    2.74    0.29
   4   0  -3   12.95    0.67
   4   0  -3   12.27    0.66
   4   0  -3   12.36    0.64
   4   0  -3   12.48    0.68
   4   0  -3   12.47    0.71
  -4   0   3   14.13    0.73
  -3   0   3  110.33    5.65
  -3   0   3  136.20    6.37
  -2   0   3  162.96    7.54
  -2   0   3  146.26    7.45
   1   0  -3  200.32    9.92
   1   0  -3  220.96   10.03
  -1   0   3  213.27    9.96
  -1   0   3  214.07    9.97
   0   0  -3  143.96    7.41
   0   0  -3  157.18    7.50
   0   0   3  169.33    7.50
   0   0   3  157.13    7.48
  -1   0  -3   88.97    4.47
  -1   0  -3   86.27    4.49
   1   0   3   88.85    4.48
   1   0   3   85.75    4.49
  -2   0  -3   28.84    1.92
  -2   0  -3   27.75    1.97
  -3   0  -3   59.46    2.94
  -3   0  -3   65.10    3.82
   3   0   3   66.63    2.94
   3   0   3   62.32    2.93
  -4   0  -3    3.29    0.31
   4   0   3    3.84    0.29
   4   0   3    4.06    0.29
   4   0   3    3.67    0.31
   4   0   3    3.92    0.32
   4   0   3    4.12    0.28
  -5   0  -3   27.75    1.52
   5   0   3   28.13    1.46
   5   0   3   29.62    1.44
   5   0   3   29.53    1.49
   5   0   3   27.15    1.40
   5   0   3   29.00    1.41
  -6   0  -3   22.03    1.28
   6   0   3   23.56    1.16
   6   0   3   23.31    1.19
   6   0   3   21.80    1.14
   6   0   3   22.15    1.22
   6   0   3   23.01    1.24
   7   0   3    1.21    0.16
   7   0   3    0.97    0.15
   8  -1  -3    0.36    0.11
   8  -1  -3    0.33    0.12
  -8   1   3    0.02    0.39
   7  -1  -3   42.73    2.10
   7  -1  -3   42.84    2.10
   7  -1  -3   42.19    2.16
  -7   1   3   45.65    2.21
   6  -1  -3   44.79    2.18
   6  -1  -3   46.03    2.27
   6  -1  -3   42.47    2.12
   6  -1  -3   47.18    2.19
  -6   1   3   47.16    2.29
   5  -1  -3   46.66    2.29
   5  -1  -3   48.17    2.23
   5  -1  -3   43.56    2.18
   5  -1  -3   47.49    2.23
  -5   1   3   50.71    2.33
   4  -1  -3   41.82    1.98
   4  -1  -3   41.94    2.03
   4  -1  -3   43.29    1.99
  -4   1   3   42.62    2.99
  -4   1   3   44.01    2.05
   3  -1  -3  280.07   12.75
  -3   1   3  283.15   12.76
  -3   1   3  257.78   14.00
  -3   1   3  241.93   11.91
   2  -1  -3  216.68    9.90
   2  -1  -3  200.42    9.84
  -2   1   3  216.86    9.90
  -2   1   3  190.88    9.80
   0   1   3    1.24    0.28
  -1  -1  -3   13.54    1.12
  -1  -1  -3   14.29    1.14
   1   1   3   14.22    1.09
  -2  -1  -3   26.35    1.87
  -3  -1  -3  737.79   33.61
   3   1   3  788.87   33.62
   3   1   3  756.24   33.59
   3   1   3  802.28   33.76
   3   1   3  686.07   33.55
   3   1   3  768.57   33.55
  -4  -1  -3   31.83    1.66
   4   1   3   32.58    1.59
   4   1   3   32.67    1.58
   4   1   3   33.95    1.65
   4   1   3   32.96    1.66
  -5  -1  -3    5.50    0.48
   5   1   3    6.08    0.47
   5   1   3    6.02    0.46
   5   1   3    6.45    0.43
   5   1   3    5.78    0.41
   6   1   3   13.42    0.78
   6   1   3   14.67    0.85
   6   1   3   15.77    0.80
   8  -2  -3   12.01    0.64
   8  -2  -3   10.98    0.62
   8  -2  -3   10.03    0.66
  -8   2   3   11.34    0.72
   7  -2  -3  170.59    7.57
   7  -2  -3  167.55    7.57
   7  -2  -3  166.32    7.66
  -7   2   3  164.01    7.68
   6  -2  -3  220.59   10.17
   6  -2  -3  224.01   10.09
   6  -2  -3  223.56   10.09
  -6   2   3  229.17   10.20
   5  -2  -3    1.15    0.20
   5  -2  -3    1.18    0.16
   5  -2  -3    1.11    0.15
  -5   2   3    1.21    0.19
   4  -2  -3   37.93    1.84
   4  -2  -3   38.00    1.83
  -4   2   3   36.58    2.81
  -4   2   3   40.30    1.86
   3  -2  -3  158.21    7.34
   3  -2  -3  181.31    8.40
  -3   2   3  171.51    8.29
  -3   2   3  147.72    8.24
  -3   2   3  156.42    7.33
   2  -2  -3    0.00    0.15
  -2   2   3    0.07    0.18
  -2   2   3   -0.06    0.15
   1  -2  -3  202.48    9.47
   1  -2  -3  190.83    9.38
   0  -2  -3   95.87    4.93
   0  -2  -3  104.02    4.99
   0   2   3   90.08    4.80
  -1  -2  -3  115.64    5.89
  -1  -2  -3  117.30    5.98
  -2  -2  -3  148.40    7.71
   2   2   3  160.08    7.07
   2   2   3  151.81    6.87
   2   2   3  151.39    6.91
   2   2   3  147.54    6.92
   2   2   3  155.99    6.93
   2   2   3  160.38    6.93
   3   2   3   35.20    1.73
   3   2   3   35.44    1.73
   3   2   3   36.24    1.88
   3   2   3   35.34    1.66
   3   2   3   32.64    1.71
   4   2   3  136.32    6.40
   4   2   3  142.73    6.40
   5   2   3    3.86    0.37
   5   2   3    3.74    0.31
   5   2   3    3.57    0.36
   6   2   3    0.20    0.13
   6   2   3    0.16    0.10
   8  -3  -3    4.80    0.34
   8  -3  -3    4.93    0.40
   8  -3  -3    5.23    0.36
  -8   3   3    4.71    0.42
   7  -3  -3    2.63    0.27
   7  -3  -3    2.92    0.28
   7  -3  -3    2.92    0.33
  -7   3   3    3.39    0.36
   6  -3  -3  107.87    4.94
   6  -3  -3  101.06    4.83
   6  -3  -3  104.15    4.84
  -6   3   3  111.02    4.98
   5  -3  -3   16.19    0.97
   5  -3  -3   18.25    0.96
   5  -3  -3   16.00    0.87
   5  -3  -3   17.75    0.97
  -5   3   3   18.38    0.98
   4  -3  -3  165.07    7.02
   4  -3  -3  148.68    7.01
   4  -3  -3  150.58    6.97
  -4   3   3  152.86    7.00
   3  -3  -3   13.74    1.41
   3  -3  -3   13.41    0.72
  -3   3   3   12.10    0.69
   2  -3  -3   51.46    2.48
   2  -3  -3   55.68    3.30
   1  -3  -3   11.74    1.11
   0  -3  -3   73.00    3.99
   1   3   3    1.14    0.17
   1   3   3    1.21    0.16
   1   3   3    1.00    0.20
   1   3   3    1.13    0.16
   2   3   3  102.32    4.77
   2   3   3  108.90    4.85
   2   3   3  107.98    4.84
   2   3   3   98.57    4.82
   2   3   3  105.33    5.00
   2   3   3  111.51    4.86
   3   3   3    3.24    0.35
   3   3   3    3.46    0.36
   3   3   3    3.50    0.32
   3   3   3    3.56    0.28
   4   3   3   49.33    2.40
   4   3   3   49.49    2.32
   4   3   3   48.76    2.41
   5   3   3   48.69    2.24
   5   3   3   46.76    2.29
   8  -4  -3   11.97    0.71
   8  -4  -3   11.43    0.64
  -8   4   3   11.01    0.73
   7  -4  -3    6.51    0.50
   7  -4  -3    6.25    0.43
  -7   4   3    6.19    0.51
   6  -4  -3   51.29    2.71
   6  -4  -3   53.39    2.73
   6  -4  -3   58.86    2.72
  -6   4   3   59.66    2.75
   5  -4  -3   76.22    3.65
   5  -4  -3   78.32    3.65
   5  -4  -3   80.77    3.61
  -5   4   3   72.82    3.62
   4  -4  -3  274.74   12.35
   4  -4  -3  288.32   12.40
   4  -4  -3  274.91   12.39
  -4   4   3  263.82   12.35
   3  -4  -3    5.70    0.38
   3  -4  -3    5.15    0.92
   3  -4  -3    6.34    0.41
  -3   4   3    6.78    0.46
   2  -4  -3  216.88    9.76
   2  -4  -3  220.37   10.84
  -2   4   3  214.61    9.74
  -2   4   3  217.93    9.75
   1  -4  -3   38.96    2.02
  -1   4   3   44.88    2.06
  -1   4   3   45.89    2.04
  -1   4   3   43.34    2.04
   0   4   3  302.98   13.26
   0   4   3  308.72   13.27
   0   4   3  264.12   13.33
   0   4   3  310.75   13.28
   1   4   3    5.62    0.49
   1   4   3    5.82    0.41
   1   4   3    6.23    0.43
   1   4   3    5.67    0.41
   2   4   3  106.72    5.07
   2   4   3  114.64    5.07
   2   4   3  108.92    5.05
   2   4   3  109.47    5.23
   3   4   3    1.09    0.27
   3   4   3    1.00    0.24
   3   4   3    1.04    0.16
   4   4   3   12.84    0.73
   4   4   3   10.99    0.63
   8  -5  -3    0.12    0.11
   8  -5  -3    0.15    0.12
  -8   5   3    0.14    0.15
   7  -5  -3   38.84    1.88
   7  -5  -3   35.29    1.76
  -7   5   3   36.08    1.88
   6  -5  -3   65.63    3.10
   6  -5  -3   61.49    3.12
   6  -5  -3   68.66    3.16
  -6   5   3   61.63    3.10
   5  -5  -3    0.80    0.21
   5  -5  -3    1.19    0.23
   4  -5  -3    1.02    0.18
   4  -5  -3    0.65    0.17
   4  -5  -3    0.75    0.18
   3  -5  -3   12.98    0.74
   3  -5  -3   14.75    0.80
  -3   5   3   13.05    0.73
  -3   5   3   14.48    0.78
   2  -5  -3   93.67    4.47
  -2   5   3   98.49    4.45
  -2   5   3   99.63    4.48
  -1   5   3    2.12    0.23
  -1   5   3    2.18    0.23
  -1   5   3    2.34    0.24
   0   5   3   21.49    1.15
   0   5   3   22.21    1.16
   0   5   3   21.58    1.14
   1   5   3    0.10    0.14
   1   5   3    0.54    0.17
   1   5   3   -0.03    0.12
   1   5   3   -0.03    0.10
   2   5   3   21.63    1.18
   2   5   3   22.20    1.19
   3   5   3    4.81    0.43
   4   5   3    0.44    0.18
   8  -6  -3  133.97    6.18
  -8   6   3  137.09    6.16
   7  -6  -3    3.05    0.32
  -7   6   3    2.83    0.30
   6  -6  -3  114.89    5.43
   6  -6  -3  113.72    5.36
   6  -6  -3  118.02    5.43
  -6   6   3  116.65    5.35
   5  -6  -3   16.06    0.97
   5  -6  -3   14.94    0.92
   5  -6  -3   15.05    0.88
  -5   6   3   15.53    0.89
   4  -6  -3  267.47   11.55
   4  -6  -3  254.33   11.52
   4  -6  -3  234.38   11.43
  -4   6   3  262.03   11.48
   3  -6  -3   31.22    1.60
  -3   6   3   29.18    1.51
  -3   6   3   31.30    1.56
  -2   6   3  170.55    7.41
  -2   6   3  163.88    7.43
  -2   6   3  154.66    7.40
  -1   6   3   21.82    1.18
  -1   6   3   22.51    1.18
  -1   6   3   21.59    1.17
   0   6   3   75.39    3.59
   0   6   3   76.53    3.60
   0   6   3   76.87    3.59
   1   6   3   22.78    1.22
   1   6   3   23.33    1.23
   2   6   3   21.07    1.11
   2   6   3   21.05    1.11
   7  -7  -3   22.38    1.26
   7  -7  -3   23.73    1.24
   7  -7  -3   23.88    1.28
  -7   7   3   24.94    1.24
   6  -7  -3   47.30    2.37
   6  -7  -3   48.48    2.40
   6  -7  -3   45.78    2.30
  -6   7   3   48.47    2.32
   5  -7  -3    0.30    0.15
   5  -7  -3    0.28    0.12
   5  -7  -3    0.16    0.16
  -5   7   3    0.16    0.11
   4  -7  -3    3.05    0.35
   4  -7  -3    3.16    0.36
  -4   7   3    3.48    0.34
   3  -7  -3   84.66    3.89
  -3   7   3   76.41    3.79
  -3   7   3   83.92    3.85
   2  -7  -3   30.47    1.63
  -2   7   3   32.28    1.62
  -2   7   3   31.48    1.60
  -1   7   3   18.10    1.00
  -1   7   3   17.79    1.00
  -1   7   3   17.59    0.99
   0   7   3   17.95    0.98
   0   7   3   17.71    0.98
   1   7   3    5.20    0.41
   1   7   3    5.70    0.41
   6  -8  -3    4.40    0.38
   6  -8  -3    4.57    0.43
  -6   8   3    4.29    0.35
   5  -8  -3   97.23    4.27
   5  -8  -3   81.07    4.22
  -5   8   3   92.55    4.18
   4  -8  -3   20.62    1.14
  -4   8   3   19.35    1.07
   3  -8  -3   66.29    3.10
  -3   8   3   61.49    3.02
  -3   8   3   65.00    3.04
   2  -8  -3    8.36    0.60
  -2   8   3    8.49    0.55
  -2   8   3    8.70    0.56
  -1   8   3   17.81    0.98
  -1   8   3   19.00    0.98
  -2   9  -4   23.57    1.25
  -2   9  -4   25.45    1.24
  -3   9  -4   15.36    0.81
   3  -9   4   14.28    0.81
  -4   9  -4    7.45    0.49
   4  -9   4    8.62    0.53
   5  -9   4   14.63    0.83
   5  -9   4   14.98    0.81
   1   8  -4    8.24    0.60
   0   8  -4    8.18    0.49
   0   8  -4    8.55    0.53
   0   8  -4    8.05    0.54
  -1   8  -4    1.20    0.21
  -1   8  -4    1.52    0.21
  -2   8  -4    0.31    0.13
  -2   8  -4    0.18    0.12
  -2   8  -4    0.27    0.12
  -3   8  -4    0.06    0.09
  -3   8  -4    0.07    0.13
  -3   8  -4    0.51    0.16
   3  -8   4    0.22    0.11
  -4   8  -4    3.01    0.38
  -4   8  -4    2.56    0.27
   4  -8   4    2.51    0.28
   4  -8   4    1.95    0.28
  -5   8  -4   12.11    0.83
   5  -8   4   11.47    0.73
   5  -8   4   12.05    0.76
  -6   8  -4   67.34    3.34
   6  -8   4   67.95    3.28
   6  -8   4   71.36    3.25
   2   7  -4   19.43    1.00
   2   7  -4   17.59    0.92
   1   7  -4    7.49    0.48
   1   7  -4    8.20    0.54
   1   7  -4    7.01    0.49
   0   7  -4    0.93    0.17
   0   7  -4    0.57    0.15
   0   7  -4    0.33    0.14
  -1   7  -4    7.52    0.54
  -1   7  -4    7.16    0.61
  -1   7  -4    7.69    0.49
  -1   7  -4    7.03    0.50
  -2   7  -4   10.60    0.67
  -2   7  -4   10.23    0.68
  -2   7  -4   11.85    0.65
  -2   7  -4   10.66    0.79
  -3   7  -4  127.53    5.95
  -3   7  -4  138.45    6.14
  -3   7  -4  139.40    5.97
   3  -7   4  113.93    5.96
  -4   7  -4  107.29    4.97
  -4   7  -4  108.36    5.16
   4  -7   4  105.65    5.01
   4  -7   4  110.18    5.05
  -5   7  -4    5.29    0.52
   5  -7   4    4.99    0.43
   5  -7   4    5.01    0.44
  -6   7  -4    2.33    0.34
   6  -7   4    2.16    0.27
   6  -7   4    1.90    0.23
   6  -7   4    2.08    0.28
   7  -7   4   37.96    1.93
   7  -7   4   39.14    1.88
   3   6  -4   66.86    3.04
   3   6  -4   64.44    3.11
   3   6  -4   67.95    3.07
   2   6  -4    2.49    0.26
   2   6  -4    3.46    0.33
   2   6  -4    2.51    0.27
   1   6  -4   27.46    1.39
   1   6  -4   28.19    1.46
   1   6  -4   29.85    1.45
   1   6  -4   29.69    1.51
   0   6  -4   77.44    3.49
   0   6  -4   72.80    3.41
   0   6  -4   70.71    3.36
   0   6  -4   72.59    3.45
  -1   6  -4    3.03    0.30
  -1   6  -4    3.07    0.36
  -1   6  -4    2.88    0.28
  -1   6  -4    3.85    0.29
  -2   6  -4    0.34    0.12
  -2   6  -4    0.36    0.11
  -2   6  -4    0.49    0.15
  -2   6  -4    0.48    0.19
  -2   6  -4    0.34    0.17
   2  -6   4    0.67    0.13
  -3   6  -4  172.20    7.74
  -3   6  -4  165.10    7.62
  -3   6  -4  162.27    7.43
  -3   6  -4  177.27    7.49
  -3   6  -4  162.91    7.48
   3  -6   4  151.50    7.41
   3  -6   4  161.06    7.49
  -4   6  -4  258.37   11.46
  -4   6  -4  243.26   11.27
   4  -6   4  258.69   11.34
   4  -6   4  259.39   11.33
   4  -6   4  233.26   11.23
  -5   6  -4  130.59    6.07
   5  -6   4  124.51    5.84
   5  -6   4  129.89    5.97
   5  -6   4  128.13    5.93
  -6   6  -4   88.90    4.28
   6  -6   4   88.47    4.22
   6  -6   4   87.42    4.09
   6  -6   4   90.04    4.16
   7  -6   4   12.68    0.74
   7  -6   4   12.47    0.80
   7  -6   4   12.84    0.70
   8  -6   4   11.00    0.59
   4   5  -4    0.31    0.12
   4   5  -4    0.08    0.11
   3   5  -4   18.58    0.96
   3   5  -4   17.62    0.91
   3   5  -4   17.20    0.98
   2   5  -4   31.84    1.59
   2   5  -4   28.96    1.47
   2   5  -4   31.34    1.53
   1   5  -4   37.22    1.91
   1   5  -4   40.36    1.90
   1   5  -4   39.89    1.96
   1   5  -4   40.37    1.86
   0   5  -4   26.63    1.29
   0   5  -4   28.07    1.35
   0   5  -4   23.70    1.40
   0   5  -4   26.66    1.32
   0   5  -4   28.49    1.38
   0   5  -4   27.35    1.51
  -1   5  -4    2.70    0.35
  -1   5  -4    2.92    0.26
  -1   5  -4    2.72    0.30
  -1   5  -4    2.58    0.21
  -1   5  -4    2.82    0.25
   1  -5   4    2.74    0.34
  -2   5  -4  136.83    6.14
  -2   5  -4  133.26    6.28
  -2   5  -4  137.68    6.18
  -2   5  -4  138.77    6.17
  -2   5  -4  146.85    6.40
   2  -5   4  132.70    6.17
   2  -5   4  125.86    6.14
  -3   5  -4   14.19    0.89
  -3   5  -4   14.61    0.78
  -3   5  -4   14.95    0.96
  -3   5  -4   14.83    0.80
  -3   5  -4   13.57    0.79
   3  -5   4   15.03    0.82
   3  -5   4   14.39    0.77
  -4   5  -4  310.86   14.38
  -4   5  -4  286.52   14.53
  -4   5  -4  349.17   14.57
   4  -5   4  324.93   14.37
   4  -5   4  333.17   14.46
   4  -5   4  324.59   14.43
  -5   5  -4   39.54    2.04
  -5   5  -4   32.44    1.99
   5  -5   4   39.33    1.86
   5  -5   4   40.13    1.96
   5  -5   4   38.84    1.92
  -6   5  -4  214.13    9.88
  -6   5  -4  211.64    9.93
   6  -5   4  221.70    9.77
   6  -5   4  219.88    9.89
   6  -5   4  216.36    9.81
  -7   5  -4    1.54    0.28
   7  -5   4    1.60    0.21
   7  -5   4    1.21    0.20
   8  -5   4   71.15    3.27
   5   4  -4    4.25    0.31
   5   4  -4    4.42    0.33
   4   4  -4   18.14    0.96
   4   4  -4   17.66    0.92
   3   4  -4   19.36    1.06
   3   4  -4   20.13    1.00
   3   4  -4   19.43    1.02
   2   4  -4    6.39    0.41
   2   4  -4    6.25    0.44
   2   4  -4    6.04    0.38
   1   4  -4   33.63    1.51
   1   4  -4   28.61    1.66
   1   4  -4   32.19    1.58
   1   4  -4   33.67    1.59
   1   4  -4   30.26    1.54
   1   4  -4   33.90    1.54
   0   4  -4  111.02    4.96
   0   4  -4  119.19    5.03
   0   4  -4  109.69    5.13
   0   4  -4  109.98    4.93
   0   4  -4  116.10    5.01
   0   4  -4  109.29    4.98
   0  -4   4   93.70    5.48
  -1   4  -4   74.80    3.46
  -1   4  -4   73.14    3.43
  -1   4  -4   79.65    3.62
  -1   4  -4   77.87    3.48
   1  -4   4   80.41    4.28
   1  -4   4   67.00    3.44
  -2   4  -4   22.31    1.11
  -2   4  -4   22.29    1.21
  -2   4  -4   23.29    1.28
  -2   4  -4   22.73    1.13
  -2   4  -4   22.27    1.14
   2  -4   4   23.53    1.15
   2  -4   4   22.68    1.89
   2  -4   4   22.75    1.20
  -3   4  -4  155.25    7.37
  -3   4  -4  164.34    7.24
  -3   4  -4  166.56    7.36
  -3   4  -4  149.49    7.22
   3  -4   4  165.39    7.28
   3  -4   4  167.26    7.22
   3  -4   4  154.84    8.53
  -4   4  -4   11.95    0.75
  -4   4  -4   13.06    0.83
   4  -4   4   12.91    0.70
   4  -4   4   12.64    0.73
   4  -4   4   13.01    0.76
  -5   4  -4   10.73    0.76
  -5   4  -4    9.75    0.69
   5  -4   4   11.80    0.71
   5  -4   4   10.32    0.62
   5  -4   4   10.31    0.65
  -6   4  -4    1.85    0.31
   6  -4   4    1.28    0.19
   6  -4   4    1.69    0.29
   6  -4   4    1.61    0.23
   6  -4   4    1.39    0.23
  -7   4  -4   13.43    0.86
   7  -4   4   13.51    0.76
   7  -4   4   13.58    0.75
   7  -4   4   12.70    0.77
   8  -4   4    0.22    0.09
   8  -4   4    0.09    0.09
   6   3  -4   17.38    0.88
   6   3  -4   16.46    0.85
   5   3  -4   19.68    1.00
   5   3  -4   19.59    1.04
   4   3  -4   24.26    1.29
   4   3  -4   23.42    1.24
   4   3  -4   26.10    1.22
   3   3  -4   46.39    2.16
   3   3  -4   46.54    2.13
   3   3  -4   44.66    2.20
   3   3  -4   45.03    2.19
   2   3  -4    0.15    0.09
   2   3  -4    0.17    0.09
   2   3  -4    0.24    0.07
   2   3  -4    0.29    0.08
   1   3  -4   98.54    4.89
  -1  -3   4  109.16    5.23
  -1  -3   4  107.30    5.17
   0   3  -4    2.24    0.41
   0  -3   4    2.38    0.46
   0  -3   4    2.92    0.49
  -1   3  -4   28.71    2.16
   1  -3   4   22.38    1.74
   1  -3   4   23.18    1.74
   2  -3   4  292.81   13.64
   2  -3   4  275.13   12.69
  -3   3  -4   50.26    2.41
  -3   3  -4   45.98    2.56
   3  -3   4   51.75    3.42
   3  -3   4   50.33    2.36
   3  -3   4   55.70    2.42
  -4   3  -4   71.17    3.50
  -4   3  -4   76.51    3.36
   4  -3   4   74.20    3.27
   4  -3   4   72.67    3.33
   4  -3   4   65.81    3.26
   4  -3   4   64.43    3.27
  -5   3  -4  110.38    5.28
  -5   3  -4  117.86    5.21
   5  -3   4  104.15    5.03
   5  -3   4  116.70    5.10
   5  -3   4  106.08    5.09
   5  -3   4  112.58    5.16
  -6   3  -4   65.27    3.04
   6  -3   4   64.24    2.91
   6  -3   4   57.92    2.91
   6  -3   4   58.30    2.84
  -7   3  -4    4.02    0.41
   7  -3   4    3.79    0.33
   7  -3   4    4.20    0.33
   7  -3   4    4.61    0.32
   8  -3   4   20.00    1.01
   6   2  -4   36.68    1.79
   6   2  -4   36.93    1.76
   5   2  -4   36.07    1.81
   5   2  -4   37.88    1.78
   5   2  -4   36.46    1.86
   5   2  -4   38.14    1.82
   4   2  -4   36.49    1.81
   4   2  -4   38.26    1.88
   4   2  -4   39.96    1.80
   4   2  -4   38.97    1.83
   4   2  -4   35.80    1.81
   3   2  -4   11.90    0.63
   3   2  -4   11.21    0.65
   3   2  -4   12.01    0.62
   3   2  -4    9.73    0.62
   3   2  -4   12.59    0.60
  -2  -2   4   69.26    3.59
  -2  -2   4   64.63    3.67
   1   2  -4   26.37    1.58
  -1  -2   4   27.38    1.75
  -1  -2   4   26.73    1.71
   0   2  -4    1.40    0.33
   0  -2   4    1.61    0.34
   0  -2   4    1.72    0.35
  -1   2  -4   81.55    4.36
   1  -2   4   75.36    4.32
   1  -2   4   88.31    4.39
  -2   2  -4  123.92    5.91
  -2   2  -4   97.94    5.82
   2  -2   4  103.39    5.88
   2  -2   4  117.26    5.87
  -3   2  -4   18.59    0.96
  -3   2  -4   18.03    1.68
   3  -2   4   18.02    0.94
  -4   2  -4  171.59    7.34
   4  -2   4  169.74    7.27
   4  -2   4  144.49    7.28
   4  -2   4  159.07    7.28
  -5   2  -4   12.23    0.77
   5  -2   4   11.81    0.69
   5  -2   4   11.83    0.71
   5  -2   4   11.52    0.65
  -6   2  -4    0.54    0.18
   6  -2   4    0.68    0.15
   6  -2   4    0.87    0.15
   6  -2   4    0.81    0.18
   6  -2   4    0.90    0.17
  -7   2  -4    0.39    0.18
   7  -2   4    0.23    0.10
   7  -2   4    0.17    0.11
   7  -2   4    0.25    0.11
   7  -2   4    0.13    0.11
   7   1  -4    1.00    0.14
   7   1  -4    1.11    0.18
   6   1  -4   70.98    3.21
   6   1  -4   65.91    3.31
   6   1  -4   71.33    3.27
   6   1  -4   70.11    3.26
   5   1  -4   71.13    3.47
   5   1  -4   75.33    3.41
   5   1  -4   76.04    3.41
   5   1  -4   76.05    3.37
  -5  -1   4   67.94    3.44
   4   1  -4  154.57    7.14
   4   1  -4  161.30    7.09
   4   1  -4  164.19    7.06
   4   1  -4  155.12    7.07
   4   1  -4  151.30    7.08
  -4  -1   4  156.74    7.12
   3   1  -4   27.01    1.23
   3   1  -4   25.29    1.26
   3   1  -4   25.07    1.22
   3   1  -4   24.92    1.26
  -3  -1   4   26.59    1.89
  -3  -1   4   24.31    1.24
   2   1  -4   45.08    2.60
  -2  -1   4   45.79    2.72
  -2  -1   4   47.96    2.72
   1   1  -4   90.19    4.51
  -1  -1   4   86.08    4.52
  -1  -1   4   87.11    4.48
   0   1  -4  351.33   16.03
   0   1  -4  340.79   15.96
   0  -1   4  340.67   15.99
   0  -1   4  350.39   15.97
  -1   1  -4  386.89   17.44
  -1   1  -4  353.45   17.39
   1  -1   4  394.58   17.40
   1  -1   4  367.89   17.46
  -2   1  -4   46.02    2.79
  -2   1  -4   38.50    2.74
   2  -1   4   46.32    2.79
  -3   1  -4  154.03    7.07
  -3   1  -4  158.67    8.11
  -4   1  -4    3.38    0.31
   4  -1   4    3.76    0.30
   4  -1   4    3.51    0.28
   4  -1   4    3.51    0.26
   4  -1   4    3.51    0.30
  -5   1  -4  338.27   15.56
   5  -1   4  348.64   15.43
   5  -1   4  348.68   15.46
   5  -1   4  343.53   15.42
   5  -1   4  358.38   15.49
   5  -1   4  336.25   15.50
  -6   1  -4    5.69    0.50
   6  -1   4    5.69    0.41
   6  -1   4    4.91    0.38
   6  -1   4    5.56    0.39
   6  -1   4    5.27    0.44
  -7   1  -4  147.28    6.67
   7  -1   4  146.17    6.53
   7  -1   4  139.24    6.50
   7   0  -4    4.17    0.34
   7   0  -4    4.19    0.34
   7   0  -4    4.05    0.37
   7   0  -4    3.83    0.29
  -7   0   4    4.74    0.41
   6   0  -4   10.61    0.64
   6   0  -4   11.19    0.64
   6   0  -4   10.51    0.59
   6   0  -4   10.89    0.71
  -6   0   4   10.09    0.70
   5   0  -4    2.15    0.22
   5   0  -4    2.21    0.21
   5   0  -4    2.55    0.27
   5   0  -4    2.32    0.23
  -5   0   4    2.48    0.27
   4   0  -4    1.98    0.23
   4   0  -4    2.72    0.21
   4   0  -4    2.63    0.21
   4   0  -4    2.56    0.24
  -4   0   4    2.50    0.24
  -3   0   4  154.05    7.46
  -3   0   4  137.76    6.57
   2   0  -4    8.89    0.91
  -2   0   4    8.08    0.89
  -2   0   4    9.21    0.92
   1   0  -4  620.04   27.81
   1   0  -4  636.94   27.89
  -1   0   4  581.85   27.79
  -1   0   4  612.14   27.78
   0   0  -4  289.06   13.55
   0   0  -4  285.26   13.47
   0   0   4  321.28   13.56
   0   0   4  262.53   13.45
  -1   0  -4  609.85   27.15
  -1   0  -4  570.86   27.14
   1   0   4  648.85   27.20
   1   0   4  550.83   27.15
  -2   0  -4   60.41    3.01
  -2   0  -4   70.59    3.85
  -3   0  -4  290.98   13.37
  -3   0  -4  264.81   12.01
   3   0   4  261.12   11.93
   3   0   4  233.26   12.03
   3   0   4  273.37   11.97
   3   0   4  271.12   12.00
   3   0   4  279.39   12.11
  -4   0  -4   34.64    1.73
   4   0   4   32.07    1.67
   4   0   4   39.65    1.66
   4   0   4   32.70    1.81
   4   0   4   34.25    1.71
   4   0   4   32.50    1.65
  -5   0  -4   62.07    2.91
   5   0   4   60.08    2.77
   5   0   4   55.49    2.80
   5   0   4   58.38    2.79
   5   0   4   59.17    2.86
  -6   0  -4   37.01    1.82
   6   0   4   34.10    1.74
   6   0   4   33.08    1.65
   6   0   4   32.82    1.70
   6   0   4   32.23    1.66
   7   0   4   79.50    3.62
   8  -1  -4   30.27    1.39
   8  -1  -4   26.54    1.40
   7  -1  -4   98.59    4.61
   7  -1  -4   98.94    4.52
   7  -1  -4   96.14    4.51
  -7   1   4   99.04    4.63
   6  -1  -4    0.49    0.13
   6  -1  -4    0.75    0.19
   6  -1  -4    0.80    0.16
  -6   1   4    0.42    0.15
   5  -1  -4    8.50    0.49
   5  -1  -4    8.01    0.54
   5  -1  -4    8.14    0.50
  -5   1   4    8.67    0.56
   4  -1  -4    0.84    0.15
   4  -1  -4    0.13    0.06
   4  -1  -4    0.30    0.12
  -4   1   4    0.38    0.11
  -4   1   4    0.19    0.27
  -3   1   4   38.63    1.84
  -3   1   4   38.96    2.62
   2  -1  -4  119.19    5.88
   2  -1  -4  105.46    5.77
  -2   1   4  116.91    5.85
  -2   1   4  106.43    5.80
   1  -1  -4  967.14   44.27
  -1   1   4 1000.00   44.31
   0  -1  -4   33.86    2.19
   0  -1  -4   33.55    2.16
   0   1   4   35.23    2.18
  -1  -1  -4   27.08    1.97
  -1  -1  -4   29.75    1.99
   1   1   4   29.07    1.92
  -2  -1  -4    5.77    0.84
  -2  -1  -4    4.71    0.34
  -3  -1  -4    9.94    0.63
   3   1   4    9.76    0.61
   3   1   4   11.22    0.74
   3   1   4   10.58    0.63
   3   1   4   11.18    0.58
   3   1   4   11.20    0.62
  -4  -1  -4  169.10    7.95
   4   1   4  173.30    7.90
   4   1   4  182.44    7.86
   4   1   4  181.98    7.95
   4   1   4  164.95    7.85
  -5  -1  -4  125.55    5.94
   5   1   4  115.21    5.89
   5   1   4  131.78    5.88
   5   1   4  134.64    5.83
   5   1   4  132.37    5.93
   6   1   4   23.00    1.16
   6   1   4   22.45    1.20
   6   1   4   23.74    1.25
   8  -2  -4  175.25    7.81
   8  -2  -4  168.65    7.81
   8  -2  -4  171.78    7.87
  -8   2   4  178.61    7.92
   7  -2  -4   19.14    1.03
   7  -2  -4   20.20    1.12
   7  -2  -4   18.45    1.03
  -7   2   4   20.58    1.14
   6  -2  -4   36.22    1.77
   6  -2  -4   34.93    1.76
   6  -2  -4   37.98    1.87
  -6   2   4   36.98    1.88
   5  -2  -4    0.08    0.08
   5  -2  -4    0.38    0.09
   5  -2  -4    0.07    0.12
   5  -2  -4    0.36    0.10
  -5   2   4    0.22    0.10
   4  -2  -4   70.11    3.47
   4  -2  -4   75.89    3.47
   4  -2  -4   76.38    3.44
   4  -2  -4   69.42    3.38
  -4   2   4   80.59    3.48
   3  -2  -4  104.69    4.81
   3  -2  -4  110.87    5.91
  -3   2   4  101.13    4.79
  -3   2   4  105.18    5.79
   2  -2  -4   90.33    4.79
   2  -2  -4   77.48    4.62
  -2   2   4   85.66    4.69
   1  -2  -4   38.54    2.53
   1  -2  -4   38.33    2.45
  -1   2   4   38.17    2.42
   0  -2  -4   11.78    1.11
   0  -2  -4   11.39    1.12
   0   2   4    9.82    1.46
  -1  -2  -4   33.84    1.75
  -1  -2  -4   40.19    2.54
   1   2   4   37.69    1.77
  -2  -2  -4   19.67    1.08
   2   2   4   20.85    1.02
   2   2   4   19.69    1.07
   2   2   4   23.01    1.23
   2   2   4   20.99    1.08
   2   2   4   23.48    1.09
  -3  -2  -4  162.30    8.12
   3   2   4  168.17    8.08
   3   2   4  182.46    8.13
   3   2   4  184.63    8.05
   3   2   4  188.08    8.11
   3   2   4  189.82    8.32
   4   2   4  451.68   20.48
   4   2   4  454.25   20.45
   4   2   4  466.80   20.39
   5   2   4   83.78    3.97
   5   2   4   84.67    3.92
   5   2   4   87.11    4.02
   6   2   4    4.92    0.35
   6   2   4    4.84    0.32
   8  -3  -4    0.92    0.20
   8  -3  -4    1.05    0.17
   8  -3  -4    0.51    0.13
  -8   3   4    0.83    0.20
   7  -3  -4   51.27    2.54
   7  -3  -4   55.70    2.66
   7  -3  -4   53.67    2.55
  -7   3   4   55.68    2.69
   6  -3  -4    0.19    0.12
   6  -3  -4    0.18    0.11
   6  -3  -4    0.09    0.08
  -6   3   4    0.57    0.41
  -6   3   4    0.13    0.11
   5  -3  -4   11.08    0.60
   5  -3  -4   11.37    0.66
   5  -3  -4   10.05    0.70
   5  -3  -4   11.30    0.69
  -5   3   4   10.52    0.68
   4  -3  -4   84.25    3.93
   4  -3  -4   89.09    3.92
   4  -3  -4   83.79    3.87
  -4   3   4   86.20    3.90
  -4   3   4   76.92    4.02
   3  -3  -4   60.68    2.71
   3  -3  -4   59.81    3.82
   3  -3  -4   55.90    2.71
  -3   3   4   54.01    2.68
   2  -3  -4   24.60    1.99
   2  -3  -4   24.43    1.22
   1  -3  -4    4.45    0.30
   1  -3  -4    4.67    0.73
   0  -3  -4   49.57    3.07
   0  -3  -4   42.26    2.18
   0   3   4   48.21    2.20
   0   3   4   46.84    2.19
   0   3   4   47.49    2.20
  -1  -3  -4    6.65    0.54
   1   3   4    7.44    0.48
   1   3   4    8.06    0.48
   1   3   4    7.98    0.58
   1   3   4    8.19    0.48
   2   3   4   36.12    1.88
   2   3   4   35.07    1.70
   2   3   4   33.24    1.62
   2   3   4   35.41    1.70
   2   3   4   32.48    1.68
   3   3   4   60.29    2.98
   3   3   4   57.93    2.77
   3   3   4   57.07    2.76
   3   3   4   55.46    2.74
   3   3   4   58.03    2.68
   4   3   4   31.10    1.49
   4   3   4   30.78    1.59
   4   3   4   30.07    1.57
   5   3   4    6.20    0.43
   5   3   4    5.84    0.38
   8  -4  -4    1.93    0.24
   8  -4  -4    1.82    0.22
  -8   4   4    1.55    0.26
   7  -4  -4   66.02    3.10
   7  -4  -4   61.77    2.98
  -7   4   4   64.65    3.12
   6  -4  -4    2.03    0.25
   6  -4  -4    1.67    0.21
   6  -4  -4    1.22    0.27
  -6   4   4    1.69    0.26
   5  -4  -4    8.00    0.57
   5  -4  -4    8.31    0.53
   5  -4  -4    7.05    0.57
  -5   4   4    7.91    0.55
   4  -4  -4   77.68    3.65
   4  -4  -4   84.08    3.72
   4  -4  -4   80.56    3.73
  -4   4   4   73.48    3.67
   3  -4  -4    5.03    0.38
   3  -4  -4    4.35    0.92
   3  -4  -4    4.25    0.32
   3  -4  -4    5.19    0.37
  -3   4   4    4.77    0.34
   2  -4  -4  205.59    9.20
  -2   4   4  206.95    9.19
  -2   4   4  200.51    9.16
   1  -4  -4   76.85    3.57
  -1   4   4   78.85    3.57
  -1   4   4   80.90    3.57
  -1   4   4   80.30    3.58
  -1   4   4   70.65    3.65
   0   4   4   81.05    3.59
   0   4   4   77.85    3.59
   0   4   4   73.04    3.69
   0   4   4   77.57    3.59
   1   4   4   38.95    2.12
   1   4   4   42.06    1.99
   1   4   4   39.34    1.97
   1   4   4   41.44    1.98
   2   4   4  387.26   17.20
   2   4   4  380.54   17.40
   2   4   4  384.60   17.19
   3   4   4   42.10    2.13
   3   4   4   46.02    2.16
   4   4   4   53.78    2.54
   8  -5  -4   10.97    0.67
   7  -5  -4    0.82    0.20
   7  -5  -4    0.83    0.21
  -7   5   4    1.13    0.24
   6  -5  -4   38.47    2.01
   6  -5  -4   39.36    1.95
   6  -5  -4   41.01    2.02
  -6   5   4   36.50    1.97
   5  -5  -4    1.62    0.29
   5  -5  -4    2.02    0.24
   5  -5  -4    1.83    0.26
   4  -5  -4   45.67    2.27
   4  -5  -4   48.52    2.37
   4  -5  -4   49.44    2.35
  -4   5   4   46.30    2.28
   3  -5  -4   30.39    1.52
   3  -5  -4   30.38    1.53
  -3   5   4   27.49    1.44
  -3   5   4   29.23    1.48
   2  -5  -4    1.52    0.21
  -2   5   4    1.56    0.22
  -2   5   4    1.74    0.21
   1  -5  -4   12.59    0.77
   1  -5  -4   13.55    0.78
  -1   5   4   14.61    0.79
  -1   5   4   13.29    0.77
  -1   5   4   14.48    0.79
   0   5   4   72.41    3.39
   0   5   4   71.30    3.39
   0   5   4   72.44    3.39
   1   5   4   43.79    2.11
   1   5   4   41.58    2.24
   1   5   4   43.35    2.11
   2   5   4   44.67    2.21
   2   5   4   45.59    2.20
   3   5   4    0.81    0.20
   8  -6  -4    3.33    0.29
  -8   6   4    2.78    0.27
   7  -6  -4    4.70    0.43
   7  -6  -4    5.10    0.41
   7  -6  -4    4.63    0.45
  -7   6   4    5.41    0.40
   6  -6  -4    9.44    0.63
   6  -6  -4   10.28    0.74
  -6   6   4    9.90    0.63
   5  -6  -4   11.99    0.75
   5  -6  -4   13.28    0.83
   5  -6  -4   13.88    0.88
  -5   6   4   12.84    0.77
   4  -6  -4   19.46    1.11
   4  -6  -4   19.40    1.13
  -4   6   4   18.99    1.06
   3  -6  -4    7.21    0.53
   3  -6  -4    7.53    0.53
  -3   6   4    7.06    0.51
  -3   6   4    6.21    0.46
   2  -6  -4   94.61    4.54
  -2   6   4   98.96    4.51
  -2   6   4   98.55    4.53
  -1   6   4  122.31    5.42
  -1   6   4  116.75    5.40
  -1   6   4  112.90    5.38
   0   6   4  131.65    6.04
   0   6   4  131.71    6.04
   1   6   4   16.32    0.94
   1   6   4   16.69    0.93
   2   6   4   26.20    1.35
   2   6   4   27.78    1.36
   7  -7  -4    0.18    0.15
   7  -7  -4   -0.01    0.11
   7  -7  -4    0.11    0.10
   6  -7  -4   15.46    0.92
   6  -7  -4   15.78    0.96
   6  -7  -4   13.93    0.83
  -6   7   4   15.91    0.87
   5  -7  -4   62.67    3.01
   5  -7  -4   62.44    3.03
  -5   7   4   59.60    2.93
   4  -7  -4   54.23    2.89
   4  -7  -4   61.11    2.91
  -4   7   4   62.52    2.85
   3  -7  -4    2.22    0.29
  -3   7   4    1.56    0.23
  -3   7   4    2.14    0.26
   2  -7  -4   60.27    2.96
  -2   7   4   62.43    2.93
  -2   7   4   60.67    2.91
  -1   7   4    0.24    0.16
  -1   7   4    0.09    0.11
   0   7   4   51.75    2.47
   0   7   4   52.22    2.49
   1   7   4    1.73    0.22
   1   7   4    1.79    0.23
   6  -8  -4    0.22    0.15
  -6   8   4    0.15    0.09
   5  -8  -4    1.09    0.23
   5  -8  -4    1.20    0.22
  -5   8   4    0.94    0.17
   4  -8  -4   11.89    0.76
  -4   8   4   11.82    0.70
   3  -8  -4   70.24    3.18
  -3   8   4   60.32    3.07
  -3   8   4   67.85    3.11
  -2   8   4   36.59    1.81
  -2   8   4   37.29    1.80
  -1   8   4   31.16    1.55
  -1   8   4   32.10    1.53
  -2   9  -5   46.27    2.20
  -3   9  -5    3.07    0.28
   3  -9   5    3.36    0.29
  -4   9  -5   27.58    1.46
   4  -9   5   32.85    1.52
  -5   9  -5   11.48    0.74
   5  -9   5   11.48    0.66
   0   8  -5    0.94    0.16
   0   8  -5    0.85    0.18
   0   8  -5    0.59    0.15
  -1   8  -5   28.18    1.37
  -1   8  -5   27.34    1.41
  -1   8  -5   27.29    1.43
  -2   8  -5   16.75    0.94
  -2   8  -5   17.90    0.92
  -2   8  -5   16.38    0.95
  -2   8  -5   17.43    1.09
  -3   8  -5   49.23    2.40
  -3   8  -5   46.14    2.39
  -3   8  -5   52.74    2.58
   3  -8   5   50.59    2.42
  -4   8  -5    6.14    0.44
  -4   8  -5    6.57    0.56
   4  -8   5    5.47    0.47
   4  -8   5    6.52    0.47
  -5   8  -5    4.92    0.47
   5  -8   5    4.54    0.39
   5  -8   5    4.35    0.40
  -6   8  -5   20.88    1.21
   6  -8   5   22.00    1.12
   6  -8   5   21.16    1.16
   2   7  -5   28.24    1.35
   2   7  -5   27.46    1.40
   1   7  -5    9.23    0.62
   1   7  -5   10.09    0.58
   1   7  -5    9.12    0.59
   0   7  -5   11.57    0.71
   0   7  -5   12.48    0.70
   0   7  -5   11.54    0.74
  -1   7  -5   84.02    3.85
  -1   7  -5   80.29    3.87
  -1   7  -5   78.96    3.98
  -1   7  -5   84.52    3.80
  -2   7  -5   67.34    3.31
  -2   7  -5   71.94    3.26
  -2   7  -5   71.43    3.46
  -2   7  -5   67.80    3.29
  -3   7  -5   49.42    2.39
  -3   7  -5   53.81    2.58
  -3   7  -5   52.16    2.40
   3  -7   5   43.12    2.31
   3  -7   5   47.17    2.41
  -4   7  -5   22.69    1.36
  -4   7  -5   21.01    1.19
   4  -7   5   25.55    1.28
   4  -7   5   20.09    1.13
   4  -7   5   23.56    1.24
  -5   7  -5    2.01    0.38
   5  -7   5    2.22    0.28
   5  -7   5    1.67    0.26
   5  -7   5    1.57    0.21
  -6   7  -5   17.72    1.08
   6  -7   5   17.31    1.01
   6  -7   5   16.09    0.89
   6  -7   5   17.69    0.97
   7  -7   5    8.46    0.50
   7  -7   5    9.40    0.54
   3   6  -5   43.66    2.02
   3   6  -5   45.69    2.05
   3   6  -5   40.46    2.07
   2   6  -5    2.63    0.30
   2   6  -5    2.62    0.26
   2   6  -5    2.89    0.28
   1   6  -5  102.28    4.88
   1   6  -5  104.71    4.94
   1   6  -5  104.68    4.82
   1   6  -5  113.03    4.88
   0   6  -5   11.57    0.72
   0   6  -5   11.11    0.67
   0   6  -5   11.92    0.70
   0   6  -5   10.91    0.64
  -1   6  -5   98.16    4.70
  -1   6  -5   97.85    4.46
  -1   6  -5   92.84    4.38
  -1   6  -5   93.11    4.58
  -1   6  -5   99.24    4.43
  -1   6  -5   96.38    4.49
  -2   6  -5   42.89    2.03
  -2   6  -5   41.44    1.98
  -2   6  -5   40.75    2.15
  -2   6  -5   43.29    2.27
  -2   6  -5   43.10    2.05
   2  -6   5   39.47    2.02
   2  -6   5   37.94    1.97
  -3   6  -5   51.86    2.61
  -3   6  -5   46.03    2.30
  -3   6  -5   49.12    2.50
  -3   6  -5   50.05    2.35
  -3   6  -5   45.26    2.34
   3  -6   5   46.63    2.30
   3  -6   5   50.63    2.38
  -4   6  -5   69.70    3.43
  -4   6  -5   74.91    3.62
   4  -6   5   72.28    3.41
   4  -6   5   73.29    3.48
   4  -6   5   76.14    3.51
  -5   6  -5  254.46   11.51
   5  -6   5  244.25   11.28
   5  -6   5  259.42   11.40
   5  -6   5  246.01   11.35
  -6   6  -5    0.22    0.17
   6  -6   5    0.14    0.09
   6  -6   5    0.30    0.14
   6  -6   5    0.16    0.12
   7  -6   5   17.80    1.04
   7  -6   5   19.40    0.96
   7  -6   5   17.71    0.96
   4   5  -5    0.07    0.10
   4   5  -5    0.07    0.10
   3   5  -5   47.28    2.23
   3   5  -5   48.75    2.28
   3   5  -5   46.74    2.31
   2   5  -5   75.17    3.58
   2   5  -5   73.31    3.49
   2   5  -5   79.57    3.54
   1   5  -5  183.70    8.14
   1   5  -5  190.19    8.08
   1   5  -5  170.02    8.08
   1   5  -5  164.95    8.24
   1   5  -5  185.62    8.03
   0   5  -5    7.39    0.49
   0   5  -5    6.69    0.58
   0   5  -5    5.94    0.50
   0   5  -5    7.71    0.45
   0   5  -5    6.90    0.46
   0   5  -5    7.35    0.42
  -1   5  -5   70.36    3.52
  -1   5  -5   76.84    3.41
  -1   5  -5   77.34    3.65
  -1   5  -5   73.11    3.43
  -1   5  -5   69.67    3.36
  -1   5  -5   78.79    3.46
   1  -5   5   70.68    3.42
  -2   5  -5   39.63    2.01
  -2   5  -5   37.37    1.80
  -2   5  -5   38.89    1.82
  -2   5  -5   35.75    1.76
  -2   5  -5   36.11    1.90
   2  -5   5   35.36    1.77
   2  -5   5   35.45    1.80
  -3   5  -5  148.23    6.76
  -3   5  -5  136.98    6.61
  -3   5  -5  150.73    6.60
  -3   5  -5  143.75    6.62
  -3   5  -5  147.37    6.83
   3  -5   5  145.55    6.59
   3  -5   5  147.17    6.66
  -4   5  -5    9.57    0.74
  -4   5  -5   10.15    0.61
  -4   5  -5   10.34    0.74
   4  -5   5    9.88    0.63
   4  -5   5   10.40    0.60
   4  -5   5   10.32    0.66
  -5   5  -5    1.27    0.30
   5  -5   5    0.88    0.16
   5  -5   5    0.84    0.20
   5  -5   5    0.87    0.20
  -6   5  -5  281.27   12.69
  -6   5  -5  267.92   12.61
   6  -5   5  297.17   12.52
   6  -5   5  281.99   12.63
   6  -5   5  265.14   12.52
  -7   5  -5    0.76    0.20
   7  -5   5    0.51    0.13
   5   4  -5    1.14    0.16
   5   4  -5    0.99    0.17
   4   4  -5   62.06    2.88
   4   4  -5   62.29    2.92
   3   4  -5   32.72    1.70
   3   4  -5   35.79    1.65
   3   4  -5   34.48    1.68
   2   4  -5  143.40    6.39
   2   4  -5  142.89    6.42
   2   4  -5  143.59    6.48
   2   4  -5  137.74    6.46
   1   4  -5   53.11    2.36
   1   4  -5   49.31    2.39
   1   4  -5   52.73    2.40
   1   4  -5   48.04    2.35
   1   4  -5   45.96    2.49
   1   4  -5   51.93    2.32
   0   4  -5    0.71    0.14
   0   4  -5    0.93    0.12
   0   4  -5    0.80    0.15
   0   4  -5    0.83    0.14
   0   4  -5    0.61    0.18
   0   4  -5    0.86    0.14
   0  -4   5    0.47    0.15
  -1   4  -5  412.34   17.96
  -1   4  -5  423.90   17.76
  -1   4  -5  408.71   17.81
  -1   4  -5  366.04   17.85
  -1   4  -5  380.82   17.73
  -1   4  -5  412.46   17.81
  -1   4  -5  408.30   17.79
   1  -4   5  401.13   18.81
   1  -4   5  378.65   17.78
  -2   4  -5   34.41    1.56
  -2   4  -5   33.35    1.59
  -2   4  -5   32.04    1.67
  -2   4  -5   33.30    1.74
  -2   4  -5   33.32    1.58
   2  -4   5   30.10    2.46
   2  -4   5   31.90    1.56
   2  -4   5   32.06    1.60
  -3   4  -5    5.40    0.48
  -3   4  -5    5.24    0.38
  -3   4  -5    5.56    0.47
  -3   4  -5    5.72    0.37
   3  -4   5    5.67    0.40
   3  -4   5    5.38    0.35
   3  -4   5    4.07    0.92
  -4   4  -5  138.15    6.69
  -4   4  -5  144.69    6.76
  -4   4  -5  159.53    6.90
   4  -4   5  140.86    6.70
   4  -4   5  155.31    6.78
   4  -4   5  147.92    6.69
  -5   4  -5    9.30    0.66
  -5   4  -5    9.62    0.73
   5  -4   5    9.71    0.60
   5  -4   5    9.68    0.66
   5  -4   5    9.58    0.59
  -6   4  -5    2.07    0.31
  -6   4  -5    2.48    0.36
   6  -4   5    2.22    0.25
   6  -4   5    2.28    0.25
  -7   4  -5    3.60    0.38
   7  -4   5    3.97    0.32
   7  -4   5    3.74    0.29
   7  -4   5    4.04    0.31
   8  -4   5   24.18    1.18
   6   3  -5   36.79    1.76
   6   3  -5   38.24    1.79
   5   3  -5   21.17    1.10
   5   3  -5   21.19    1.07
   4   3  -5  106.01    4.75
   4   3  -5  103.01    4.84
   4   3  -5  103.87    4.78
   3   3  -5  251.41   10.88
   3   3  -5  241.43   10.94
   3   3  -5  222.43   10.90
   3   3  -5  255.96   10.86
   2   3  -5  200.23    8.75
   2   3  -5  196.18    8.81
   2   3  -5  193.29    8.82
   2   3  -5  184.59    8.81
   2   3  -5  204.11    8.78
   1   3  -5    9.01    0.49
   1   3  -5    9.14    0.53
   1   3  -5    9.11    0.53
   1   3  -5    9.22    0.48
   1   3  -5    8.96    0.53
  -1  -3   5    8.43    0.90
   0  -3   5   61.58    3.58
   1  -3   5   94.91    4.44
   1  -3   5  100.40    5.29
   2  -3   5   98.19    4.73
   2  -3   5  109.39    5.80
  -3   3  -5    0.71    0.15
  -3   3  -5    0.43    0.23
   3  -3   5    0.57    0.13
   3  -3   5    0.73    0.12
  -4   3  -5    3.11    0.30
  -4   3  -5    2.64    0.45
   4  -3   5    3.53    0.32
   4  -3   5    3.14    0.26
   4  -3   5    3.36    0.28
  -5   3  -5   41.60    2.29
  -5   3  -5   45.94    2.18
   5  -3   5   40.35    2.11
   5  -3   5   44.28    2.06
   5  -3   5   40.74    2.07
  -6   3  -5   22.42    1.25
   6  -3   5   20.28    1.14
   6  -3   5   20.07    1.07
   6  -3   5   22.19    1.13
  -7   3  -5   50.29    2.44
   7  -3   5   50.09    2.32
   7  -3   5   45.10    2.26
   6   2  -5    0.89    0.19
   6   2  -5    0.85    0.14
   6   2  -5    1.32    0.19
   5   2  -5   34.47    1.82
   5   2  -5   36.19    1.76
   5   2  -5   37.44    1.73
   4   2  -5   13.07    0.78
   4   2  -5   13.24    0.73
   4   2  -5   13.74    0.71
   3   2  -5  300.75   13.02
   3   2  -5  311.04   13.00
   3   2  -5  284.58   13.06
   3   2  -5  307.10   13.08
  -3  -2   5  255.81   13.03
   2   2  -5   81.72    3.62
   2   2  -5   82.83    3.56
   2   2  -5   81.83    3.58
  -2  -2   5   70.81    3.58
  -2  -2   5   76.64    4.28
  -1  -2   5   39.03    2.45
  -1  -2   5   37.63    2.45
   0   2  -5   12.47    1.18
   0  -2   5   14.22    1.22
   0  -2   5   12.50    1.17
  -1   2  -5   99.06    5.43
   1  -2   5   94.61    5.39
   1  -2   5  110.99    5.45
  -2   2  -5   21.51    1.12
  -2   2  -5   23.66    1.93
   2  -2   5   21.77    1.81
   2  -2   5   22.34    1.12
  -3   2  -5    3.09    0.28
   3  -2   5    2.87    0.26
   3  -2   5    2.97    0.23
   3  -2   5    2.75    0.24
  -4   2  -5    0.16    0.10
  -4   2  -5   -0.33    0.19
   4  -2   5    0.27    0.09
   4  -2   5    0.24    0.09
   4  -2   5    0.67    0.15
  -5   2  -5    7.88    0.59
   5  -2   5    8.64    0.53
   5  -2   5    8.59    0.51
   5  -2   5    8.27    0.56
  -6   2  -5    1.43    0.27
   6  -2   5    0.81    0.17
   6  -2   5    1.10    0.21
   6  -2   5    0.95    0.18
   6  -2   5    0.89    0.16
  -7   2  -5   36.37    1.83
   7  -2   5   33.27    1.67
   7  -2   5   35.90    1.70
   7  -2   5   34.34    1.73
   7   1  -5   36.43    1.60
   7   1  -5   31.71    1.61
   7   1  -5   30.44    1.53
   6   1  -5  157.41    7.07
   6   1  -5  161.92    7.21
   6   1  -5  162.98    7.13
  -6  -1   5  146.25    7.18
   5   1  -5   15.38    0.84
   5   1  -5   14.73    0.80
   5   1  -5   15.45    0.83
   5   1  -5   15.91    0.91
  -5  -1   5   15.55    0.89
   4   1  -5  129.73    5.81
   4   1  -5  130.72    5.88
   4   1  -5  129.96    5.82
   4   1  -5  130.17    5.78
   4   1  -5  117.96    5.84
  -4  -1   5  131.97    5.86
   3   1  -5  169.25    7.40
   3   1  -5  175.61    7.42
   3   1  -5  166.07    7.38
   3   1  -5  157.19    7.45
   3   1  -5  169.79    7.46
  -3  -1   5  155.72    7.43
  -3  -1   5  163.11    8.39
  -2  -1   5  215.51   10.23
  -2  -1   5  237.24   11.01
  -1  -1   5    2.93    0.53
  -1  -1   5    2.94    0.52
   0   1  -5  101.74    5.70
   0   1  -5  116.93    5.85
   0  -1   5  106.19    5.75
   0  -1   5  120.30    5.81
  -1   1  -5   19.99    1.61
  -1   1  -5   17.52    1.54
   1  -1   5   20.55    1.59
   1  -1   5   17.65    1.58
  -2   1  -5  172.51    8.60
  -2   1  -5  204.97    9.68
   2  -1   5  197.73    9.72
  -3   1  -5    8.05    0.51
  -3   1  -5    7.99    1.16
   3  -1   5    7.88    0.49
   3  -1   5    7.85    0.46
  -4   1  -5   25.41    1.34
   4  -1   5   25.50    1.28
   4  -1   5   26.25    1.27
   4  -1   5   24.69    1.24
   4  -1   5   23.97    1.39
   4  -1   5   26.53    1.32
  -5   1  -5  160.24    7.45
   5  -1   5  163.57    7.40
   5  -1   5  161.77    7.35
   5  -1   5  164.47    7.34
   5  -1   5  159.28    7.31
  -6   1  -5   22.32    1.24
   6  -1   5   19.90    1.07
   6  -1   5   20.79    1.10
   6  -1   5   20.50    1.15
  -7   1  -5    1.48    0.28
   7  -1   5    1.61    0.22
   7  -1   5    1.82    0.19
   7  -1   5    1.24    0.17
   7   0  -5   -0.06    0.10
   7   0  -5    0.18    0.10
  -7   0   5    0.15    0.14
   6   0  -5   54.74    2.60
   6   0  -5   56.06    2.70
   6   0  -5   52.14    2.54
   6   0  -5   55.73    2.62
  -6   0   5   56.48    2.71
   5   0  -5   38.52    1.84
   5   0  -5   39.91    1.89
   5   0  -5   39.23    1.96
   5   0  -5   41.31    1.90
  -5   0   5   37.94    1.96
   4   0  -5  740.90   33.99
   4   0  -5  698.16   34.07
   4   0  -5  786.19   34.09
   4   0  -5  798.25   34.02
   4   0  -5  790.94   34.03
  -4   0   5  786.57   34.09
  -3   0   5    3.77    0.69
  -3   0   5    3.61    0.28
   2   0  -5   11.36    1.13
  -2   0   5   10.19    1.09
  -2   0   5   11.42    1.15
   1   0  -5  667.94   29.02
   1   0  -5  602.13   28.86
  -1   0   5  633.13   28.93
  -1   0   5  628.24   28.85
   0   0  -5  831.12   35.61
   0   0  -5  747.64   35.43
   0   0   5  721.29   35.46
   0   0   5  825.73   35.48
  -1   0  -5    0.26    0.24
  -1   0  -5    0.19    0.21
   1   0   5    0.32    0.24
  -2   0  -5   26.61    1.36
  -2   0  -5   28.82    2.18
  -3   0  -5  127.71    5.60
   3   0   5  111.38    5.50
   3   0   5  120.90    5.57
   3   0   5  123.24    5.54
   3   0   5  128.39    5.70
   3   0   5  120.94    5.50
  -4   0  -5   32.04    1.67
   4   0   5   31.84    1.76
   4   0   5   31.14    1.57
   4   0   5   33.58    1.57
   4   0   5   31.39    1.59
   4   0   5   33.74    1.65
  -5   0  -5  139.13    6.29
   5   0   5  137.30    6.24
   5   0   5  133.32    6.14
   5   0   5  134.93    6.13
   5   0   5  130.54    6.17
  -6   0  -5   13.15    0.85
   6   0   5   12.24    0.72
   6   0   5   13.86    0.73
   6   0   5   13.39    0.80
   7   0   5   94.47    4.29
   8  -1  -5   26.04    1.32
   8  -1  -5   26.56    1.28
  -8   1   5   26.26    1.61
   7  -1  -5   44.01    2.19
   7  -1  -5   45.18    2.20
   7  -1  -5   47.58    2.29
  -7   1   5   46.79    2.30
   6  -1  -5   26.38    1.32
   6  -1  -5   25.73    1.33
   6  -1  -5   26.20    1.41
  -6   1   5   26.88    1.43
   5  -1  -5   12.09    0.66
   5  -1  -5   11.86    0.73
   5  -1  -5   12.38    0.73
   5  -1  -5   12.26    0.68
  -5   1   5   12.41    0.75
   4  -1  -5    8.50    0.51
   4  -1  -5    8.28    0.53
   4  -1  -5    8.13    0.46
   4  -1  -5    8.19    0.46
  -4   1   5    7.41    1.14
  -4   1   5    8.58    0.52
   3  -1  -5  212.01   10.02
  -3   1   5  233.64   11.19
  -3   1   5  225.50   10.03
   2  -1  -5   76.68    4.21
  -2   1   5   60.33    3.97
  -2   1   5   75.61    4.15
   1  -1  -5    3.29    0.59
   1  -1  -5    3.73    0.65
  -1   1   5    3.12    0.59
  -1   1   5    3.61    0.61
   0  -1  -5   17.54    1.51
   0  -1  -5   20.13    1.62
   0   1   5   19.88    1.58
  -1  -1  -5    0.06    0.21
  -1  -1  -5    0.01    0.07
  -2  -1  -5  111.20    6.00
  -2  -1  -5  106.08    4.83
   2   1   5  103.19    4.79
   2   1   5  104.40    4.80
   2   1   5  100.82    4.81
   2   1   5  104.93    4.75
   2   1   5  108.70    4.94
  -3  -1  -5   18.53    1.04
   3   1   5   19.00    0.95
   3   1   5   18.42    0.99
   3   1   5   19.16    1.15
   3   1   5   19.76    1.04
  -4  -1  -5    0.51    0.17
  -4  -1  -5    0.19    0.20
   4   1   5    0.58    0.21
   4   1   5    0.68    0.15
   4   1   5    0.63    0.18
   4   1   5    0.97    0.19
  -5  -1  -5   29.50    1.61
   5   1   5   29.74    1.53
   5   1   5   30.85    1.48
   5   1   5   29.55    1.57
   6   1   5    0.07    0.10
   6   1   5    0.20    0.10
   8  -2  -5    2.65    0.28
   8  -2  -5    2.77    0.24
  -8   2   5    3.18    0.32
  -8   2   5    2.58    0.48
   7  -2  -5   50.23    2.40
   7  -2  -5   50.43    2.40
   7  -2  -5   51.71    2.50
  -7   2   5   50.75    2.53
   6  -2  -5  301.93   13.27
   6  -2  -5  285.37   13.16
   6  -2  -5  288.51   13.17
  -6   2   5  301.12   13.30
   5  -2  -5   32.64    1.66
   5  -2  -5   35.12    1.66
   5  -2  -5   32.55    1.75
   5  -2  -5   36.46    1.75
  -5   2   5   37.74    1.78
   4  -2  -5    0.28    0.12
   4  -2  -5    0.41    0.10
   4  -2  -5    0.36    0.11
   4  -2  -5    0.60    0.13
  -4   2   5    0.14    0.24
  -4   2   5    0.78    0.15
   3  -2  -5   55.34    2.75
   3  -2  -5   59.38    2.71
  -3   2   5   58.39    2.70
   2  -2  -5   44.31    3.02
   2  -2  -5   44.04    2.09
   1  -2  -5   17.88    1.64
   1  -2  -5   16.58    0.87
   0  -2  -5    0.55    0.40
   0  -2  -5    0.29    0.12
  -1  -2  -5   77.58    4.60
  -1  -2  -5   73.13    3.53
   1   2   5   76.77    3.66
   1   2   5   79.71    3.53
   1   2   5   76.36    3.52
  -2  -2  -5   61.65    2.89
   2   2   5   61.97    2.86
   2   2   5   59.96    2.86
   2   2   5   61.02    2.88
   2   2   5   60.64    2.80
   2   2   5   61.18    3.02
  -3  -2  -5   11.98    0.78
   3   2   5   13.29    0.77
   3   2   5   13.48    0.71
   3   2   5   12.95    0.91
   3   2   5   13.09    0.77
   3   2   5   13.14    0.76
   4   2   5    9.10    0.64
   4   2   5   10.03    0.65
   4   2   5    9.73    0.57
   5   2   5   25.05    1.32
   5   2   5   26.23    1.36
   5   2   5   25.82    1.27
   8  -3  -5   34.85    1.72
   8  -3  -5   37.50    1.80
  -8   3   5   36.00    1.83
   7  -3  -5   72.49    3.50
   7  -3  -5   80.15    3.62
  -7   3   5   76.41    3.88
  -7   3   5   74.17    3.62
   6  -3  -5   32.60    1.76
   6  -3  -5   36.10    1.67
   6  -3  -5   36.35    1.78
  -6   3   5   33.14    1.78
  -6   3   5   34.09    2.06
   5  -3  -5  167.07    6.96
   5  -3  -5  149.86    6.99
   5  -3  -5  134.07    6.94
  -5   3   5  147.47    7.17
  -5   3   5  162.66    6.99
   4  -3  -5   31.48    1.50
   4  -3  -5   30.14    1.56
  -4   3   5   30.88    1.53
  -4   3   5   28.83    1.63
   3  -3  -5    0.23    0.10
   3  -3  -5    0.27    0.35
  -3   3   5    0.18    0.12
  -3   3   5    0.48    0.11
   2  -3  -5   44.66    2.01
   2  -3  -5   39.86    2.00
   2  -3  -5   40.50    3.02
   1  -3  -5    8.31    1.11
   1  -3  -5    8.32    0.49
  -1   3   5    7.24    0.68
  -1   3   5    8.59    0.49
  -1   3   5    8.57    0.49
   0  -3  -5   88.44    4.22
   0   3   5   93.71    4.21
   0   3   5   91.19    4.35
   0   3   5   94.90    4.22
  -1  -3  -5    0.20    0.10
   1   3   5    0.47    0.13
   1   3   5    0.19    0.12
   1   3   5    0.15    0.09
   2   3   5    0.12    0.15
   2   3   5    0.15    0.13
   2   3   5    0.05    0.10
   2   3   5    0.12    0.12
   3   3   5   13.26    0.81
   3   3   5   14.60    0.99
   3   3   5   13.06    0.81
   3   3   5   13.31    0.81
   3   3   5   14.12    0.74
   4   3   5    0.74    0.18
   4   3   5    0.49    0.13
   4   3   5    0.68    0.19
   5   3   5   87.45    4.00
   8  -4  -5   12.13    0.70
  -8   4   5   11.09    0.72
   7  -4  -5   92.27    4.46
   7  -4  -5  102.93    4.52
  -7   4   5   91.85    4.50
   6  -4  -5   34.91    1.67
   6  -4  -5   31.96    1.70
   6  -4  -5   30.31    1.67
  -6   4   5   31.00    1.68
   5  -4  -5  212.77   10.02
   5  -4  -5  223.34    9.96
  -5   4   5  224.96   10.00
   4  -4  -5  135.94    6.02
   4  -4  -5  137.67    6.01
   4  -4  -5  130.54    5.92
  -4   4   5  116.28    5.93
   3  -4  -5  243.08   10.59
  -3   4   5  225.26   10.50
   2  -4  -5   29.10    1.39
   2  -4  -5   27.77    1.40
  -2   4   5   27.31    1.36
  -2   4   5   27.17    1.35
  -2   4   5   25.18    1.44
   1  -4  -5   22.13    1.15
   1  -4  -5   20.27    1.13
  -1   4   5   22.44    1.13
  -1   4   5   24.11    1.14
  -1   4   5   21.49    1.24
   0  -4  -5   78.05    3.76
   0   4   5   78.78    3.90
   0   4   5   83.47    3.76
   0   4   5   83.06    3.76
   1   4   5   13.27    0.92
   1   4   5   13.46    0.77
   1   4   5   12.78    0.78
   2   4   5    2.72    0.32
   2   4   5    2.14    0.32
   2   4   5    2.39    0.37
   4   4   5   39.65    1.90
   8  -5  -5    2.22    0.24
  -8   5   5    2.19    0.24
   7  -5  -5   10.15    0.68
   7  -5  -5   11.26    0.68
   7  -5  -5    9.71    0.68
  -7   5   5   10.37    0.69
   6  -5  -5    3.58    0.37
   6  -5  -5    3.34    0.42
   6  -5  -5    4.04    0.36
   5  -5  -5   81.22    3.83
   5  -5  -5   82.90    3.94
  -5   5   5   81.95    3.83
   4  -5  -5    5.02    0.44
  -4   5   5    4.15    0.35
   3  -5  -5   29.90    1.50
   3  -5  -5   29.74    1.52
  -3   5   5   28.73    1.45
  -3   5   5   25.96    1.41
   2  -5  -5   53.35    2.65
   2  -5  -5   55.87    2.64
  -2   5   5   54.26    2.60
  -2   5   5   55.92    2.62
   1  -5  -5    0.80    0.18
   1  -5  -5    0.66    0.20
  -1   5   5    0.86    0.18
  -1   5   5    0.67    0.15
   0   5   5   41.21    2.22
   0   5   5   41.83    2.08
   0   5   5   44.72    2.10
   1   5   5   67.23    3.47
   1   5   5   69.77    3.30
   1   5   5   73.29    3.33
   2   5   5  104.94    4.85
   2   5   5  105.96    4.86
   3   5   5   19.94    1.04
   8  -6  -5   48.67    2.41
   7  -6  -5   34.48    1.69
   7  -6  -5   33.15    1.72
   7  -6  -5   31.61    1.72
  -7   6   5   35.70    1.69
   6  -6  -5   63.86    3.14
   6  -6  -5   66.20    3.22
   6  -6  -5   68.25    3.25
  -6   6   5   67.34    3.15
   5  -6  -5    5.35    0.46
   5  -6  -5    5.96    0.53
  -5   6   5    5.22    0.43
   4  -6  -5   41.72    2.10
   4  -6  -5   41.05    2.07
  -4   6   5   39.00    2.00
   3  -6  -5    3.40    0.35
   3  -6  -5    3.07    0.33
  -3   6   5    2.72    0.29
  -3   6   5    2.29    0.27
   2  -6  -5   14.02    0.88
  -2   6   5   15.26    0.86
  -2   6   5   15.24    0.86
  -1   6   5    0.38    0.14
  -1   6   5    0.91    0.21
   0   6   5   28.80    1.49
   0   6   5   29.43    1.51
   1   6   5    3.51    0.38
   1   6   5    3.06    0.32
   2   6   5    4.69    0.37
   7  -7  -5   29.18    1.64
   7  -7  -5   35.54    1.72
  -7   7   5   38.62    1.69
   6  -7  -5    4.96    0.43
   6  -7  -5    5.04    0.48
  -6   7   5    5.25    0.40
   5  -7  -5   90.12    4.34
   5  -7  -5   94.67    4.34
  -5   7   5   89.81    4.26
   4  -7  -5    1.38    0.26
   4  -7  -5    1.56    0.25
  -4   7   5    1.86    0.23
   3  -7  -5    0.25    0.14
   3  -7  -5    0.09    0.12
  -3   7   5    0.64    0.17
  -3   7   5    0.30    0.12
   2  -7  -5   31.91    1.74
  -2   7   5   35.39    1.72
  -2   7   5   34.90    1.72
  -1   7   5    2.77    0.29
  -1   7   5    3.05    0.35
   0   7   5    1.89    0.28
   0   7   5    1.92    0.24
   6  -8  -5    0.51    0.16
  -6   8   5    0.68    0.14
   5  -8  -5    6.21    0.93
   5  -8  -5    7.91    0.54
  -5   8   5    7.45    0.47
   4  -8  -5    3.09    0.34
  -4   8   5    3.58    0.30
   3  -8  -5    1.13    0.22
  -3   8   5    1.34    0.19
  -3   8   5    1.12    0.21
   2  -8  -5   20.22    1.60
  -2   8   5   19.21    1.03
  -2   8   5   19.88    1.01
  -2   9  -6   51.08    2.41
  -3   9  -6    0.09    0.08
   3  -9   6    0.07    0.10
  -4   9  -6  108.03    4.87
  -4   9  -6   90.76    4.75
   4  -9   6  112.95    4.77
   0   8  -6    2.51    0.25
   0   8  -6    2.26    0.26
   0   8  -6    2.56    0.24
  -1   8  -6   15.21    0.79
  -1   8  -6   13.97    0.83
  -1   8  -6   13.75    0.81
  -2   8  -6   13.95    0.83
  -2   8  -6   14.19    0.82
  -2   8  -6   13.72    0.93
  -2   8  -6   14.66    0.78
  -3   8  -6   14.50    0.88
  -3   8  -6   16.35    1.03
  -3   8  -6   15.89    0.89
   3  -8   6   15.85    0.91
  -4   8  -6   33.09    1.66
  -4   8  -6   34.42    1.82
   4  -8   6   31.68    1.70
   4  -8   6   33.64    1.69
  -5   8  -6   26.40    1.48
   5  -8   6   26.76    1.38
   5  -8   6   26.27    1.40
  -6   8  -6   16.41    0.99
   6  -8   6   17.01    0.90
   2   7  -6   28.45    1.32
   2   7  -6   25.79    1.29
   2   7  -6   26.74    1.36
   1   7  -6   96.43    4.65
   1   7  -6  106.45    4.72
   1   7  -6  105.48    4.63
   1   7  -6   96.68    4.59
   0   7  -6   20.61    1.05
   0   7  -6   19.93    1.08
   0   7  -6   19.95    1.12
   0   7  -6   18.62    1.00
  -1   7  -6   78.09    3.64
  -1   7  -6   76.11    3.78
  -1   7  -6   79.98    3.68
  -1   7  -6   83.41    3.61
   1  -7   6   69.41    3.58
  -2   7  -6   22.45    1.20
  -2   7  -6   21.39    1.21
  -2   7  -6   23.33    1.16
  -2   7  -6   22.56    1.34
   2  -7   6   21.46    1.14
  -3   7  -6  129.92    5.87
  -3   7  -6  133.37    6.07
  -3   7  -6  125.53    5.88
   3  -7   6  122.70    5.81
   3  -7   6  127.16    5.91
  -4   7  -6  115.88    5.47
  -4   7  -6  126.16    5.69
   4  -7   6  108.72    5.41
   4  -7   6  120.78    5.54
   4  -7   6  123.78    5.52
  -5   7  -6   65.92    3.22
   5  -7   6   66.56    3.07
   5  -7   6   58.66    2.98
   5  -7   6   64.90    3.11
  -6   7  -6    1.88    0.32
   6  -7   6    2.47    0.23
   6  -7   6    2.83    0.28
   6  -7   6    2.66    0.30
   7  -7   6   43.44    2.15
   3   6  -6    1.39    0.18
   3   6  -6    1.49    0.25
   3   6  -6    1.47    0.20
   2   6  -6   12.92    0.70
   2   6  -6   11.88    0.74
   2   6  -6   11.67    0.67
   1   6  -6    9.49    0.57
   1   6  -6    8.60    0.61
   1   6  -6    8.81    0.57
   1   6  -6    8.45    0.53
   0   6  -6    0.19    0.11
   0   6  -6    0.19    0.12
   0   6  -6    0.23    0.16
   0   6  -6    0.21    0.11
   0   6  -6    0.33    0.14
  -1   6  -6    9.56    0.73
  -1   6  -6   10.20    0.58
  -1   6  -6    9.97    0.61
  -1   6  -6   10.08    0.81
  -1   6  -6    9.87    0.63
  -1   6  -6   11.06    0.68
  -2   6  -6    0.27    0.11
  -2   6  -6    0.31    0.12
  -2   6  -6    0.71    0.22
  -2   6  -6    0.52    0.15
  -2   6  -6    0.43    0.19
   2  -6   6    0.29    0.12
   2  -6   6    0.42    0.11
  -3   6  -6   70.42    3.52
  -3   6  -6   71.84    3.36
  -3   6  -6   73.72    3.63
  -3   6  -6   72.59    3.32
  -3   6  -6   70.54    3.37
   3  -6   6   69.17    3.32
   3  -6   6   70.24    3.39
  -4   6  -6    2.10    0.29
  -4   6  -6    2.22    0.25
  -4   6  -6    2.22    0.37
  -4   6  -6    2.77    0.36
   4  -6   6    2.37    0.29
   4  -6   6    2.04    0.26
   4  -6   6    1.94    0.22
  -5   6  -6   34.26    1.87
   5  -6   6   34.27    1.77
   5  -6   6   32.81    1.66
   5  -6   6   32.51    1.70
  -6   6  -6   11.79    0.81
   6  -6   6   11.40    0.65
   6  -6   6   10.34    0.66
   6  -6   6   10.24    0.72
   7  -6   6    2.81    0.24
   4   5  -6   16.82    0.89
   4   5  -6   17.07    0.87
   3   5  -6   23.61    1.17
   3   5  -6   24.79    1.22
   3   5  -6   22.37    1.23
   2   5  -6  113.48    5.14
   2   5  -6  112.83    5.10
   2   5  -6  110.18    5.19
   1   5  -6  206.04    9.27
   1   5  -6  195.90    9.40
   1   5  -6  204.96    9.16
   1   5  -6  203.63    9.21
   1   5  -6  210.24    9.20
   0   5  -6   31.90    1.60
   0   5  -6   31.90    1.54
   0   5  -6   30.71    1.77
   0   5  -6   33.16    1.64
   0   5  -6   32.87    1.57
  -1   5  -6  136.42    5.95
  -1   5  -6  124.83    6.01
  -1   5  -6  132.02    5.91
  -1   5  -6  123.14    5.84
  -1   5  -6  130.06    5.87
  -1   5  -6  131.31    6.13
   1  -5   6  128.04    5.91
  -2   5  -6   25.38    1.31
  -2   5  -6   25.97    1.34
  -2   5  -6   26.37    1.52
  -2   5  -6   24.63    1.27
  -2   5  -6   25.22    1.42
   2  -5   6   25.43    1.33
   2  -5   6   27.20    1.30
  -3   5  -6  218.33   10.28
  -3   5  -6  231.62   10.43
  -3   5  -6  227.92   10.28
  -3   5  -6  230.85   10.51
   3  -5   6  227.09   10.32
   3  -5   6  232.63   10.25
  -4   5  -6    4.36    0.49
  -4   5  -6    5.15    0.50
  -4   5  -6    4.82    0.39
  -4   5  -6    4.95    0.39
   4  -5   6    4.54    0.38
   4  -5   6    6.23    0.46
   4  -5   6    4.74    0.36
  -5   5  -6  186.43    8.46
   5  -5   6  186.15    8.36
   5  -5   6  169.89    8.24
   5  -5   6  185.32    8.24
  -6   5  -6   88.78    4.48
  -6   5  -6   96.87    4.57
   6  -5   6   99.05    4.50
   6  -5   6   91.28    4.33
   6  -5   6   99.00    4.39
  -7   5  -6   25.94    1.47
   7  -5   6   31.08    1.42
   5   4  -6   18.39    0.95
   5   4  -6   19.83    0.99
   4   4  -6    8.88    0.54
   4   4  -6    8.46    0.51
   3   4  -6  171.75    7.44
   3   4  -6  154.90    7.46
   3   4  -6  174.59    7.41
   3   4  -6  156.48    7.47
   2   4  -6   42.92    2.14
   2   4  -6   43.50    2.14
   2   4  -6   44.06    2.09
   2   4  -6   44.87    2.06
   1   4  -6   73.33    3.29
   1   4  -6   71.96    3.34
   1   4  -6   73.52    3.26
   1   4  -6   73.23    3.35
   1   4  -6   67.41    3.46
   1   4  -6   67.94    3.29
   0   4  -6   28.99    1.41
   0   4  -6   29.27    1.41
   0   4  -6   27.13    1.37
   0   4  -6   27.80    1.35
   0   4  -6   28.49    1.32
   0   4  -6   27.07    1.52
   0  -4   6   25.14    1.36
  -1   4  -6  136.43    5.90
  -1   4  -6  134.10    5.89
  -1   4  -6  130.07    5.87
  -1   4  -6  128.79    5.83
  -1   4  -6  119.42    5.94
  -1   4  -6  129.30    6.04
  -1   4  -6  128.43    5.81
   1  -4   6  126.76    5.87
  -2   4  -6    1.35    0.19
  -2   4  -6    1.45    0.19
  -2   4  -6    1.22    0.19
  -2   4  -6    1.44    0.28
  -2   4  -6    1.30    0.28
   2  -4   6    1.37    0.18
   2  -4   6    1.67    0.17
  -3   4  -6  163.12    7.45
  -3   4  -6  165.37    7.61
  -3   4  -6  163.66    7.48
  -3   4  -6  156.68    7.61
   3  -4   6  167.50    7.42
   3  -4   6  170.37    7.50
  -4   4  -6    5.77    0.41
  -4   4  -6    5.35    0.45
  -4   4  -6    6.09    0.56
  -4   4  -6    5.93    0.45
   4  -4   6    4.88    0.38
   4  -4   6    5.29    0.44
   4  -4   6    5.75    0.39
  -5   4  -6   84.71    4.10
  -5   4  -6   80.86    3.98
   5  -4   6   83.77    3.88
   5  -4   6   85.04    3.99
  -6   4  -6    7.90    0.62
  -6   4  -6    7.76    0.65
   6  -4   6    8.51    0.51
   6  -4   6    8.73    0.54
  -7   4  -6    2.00    0.28
   7  -4   6    1.71    0.20
   7  -4   6    1.53    0.19
   7  -4   6    1.76    0.21
   6   3  -6    9.55    0.53
   6   3  -6    9.98    0.56
   5   3  -6    5.21    0.38
   5   3  -6    6.31    0.41
   4   3  -6   18.45    0.98
   4   3  -6   18.48    1.04
   4   3  -6   18.47    0.95
   3   3  -6   13.03    0.77
   3   3  -6   12.79    0.72
   3   3  -6   14.16    0.79
   3   3  -6   13.17    0.71
   2   3  -6  162.53    7.35
   2   3  -6  149.56    7.32
   2   3  -6  166.03    7.36
   2   3  -6  165.02    7.27
   2   3  -6  167.66    7.30
   1   3  -6    6.48    0.42
   1   3  -6    6.64    0.53
   1   3  -6    6.92    0.39
   1   3  -6    6.99    0.41
   1   3  -6    7.36    0.45
   1   3  -6    7.12    0.45
  -1  -3   6    6.78    0.43
   0   3  -6   56.31    2.84
   0   3  -6   60.30    2.73
   0   3  -6   61.53    2.73
   0   3  -6   60.61    2.66
   0  -3   6   56.63    3.60
   0  -3   6   54.61    2.71
  -1   3  -6  105.59    4.64
   1  -3   6   97.96    4.59
   1  -3   6   98.23    5.59
  -2   3  -6    6.91    0.53
  -2   3  -6    5.09    0.56
  -2   3  -6    6.24    0.42
   2  -3   6    6.59    0.39
   2  -3   6    6.86    0.44
   2  -3   6    6.72    1.00
  -3   3  -6   74.29    3.42
  -3   3  -6   66.24    3.48
   3  -3   6   77.05    3.42
   3  -3   6   76.90    3.35
   3  -3   6   68.82    3.36
  -4   3  -6  123.44    5.71
   4  -3   6  127.34    5.61
   4  -3   6  120.41    5.63
   4  -3   6  122.20    5.69
  -5   3  -6   15.29    0.93
  -5   3  -6   14.52    1.08
   5  -3   6   14.99    0.82
   5  -3   6   14.05    0.85
  -6   3  -6    0.30    0.20
  -6   3  -6    0.33    0.16
   6  -3   6    0.12    0.09
   6  -3   6    0.15    0.09
   6  -3   6    0.11    0.10
  -7   3  -6   36.75    1.80
   7  -3   6   36.19    1.68
   7  -3   6   34.08    1.65
   7  -3   6   31.63    1.69
   6   2  -6    1.35    0.24
   6   2  -6    1.22    0.18
   6   2  -6    0.97    0.15
   5   2  -6   23.68    1.17
   5   2  -6   22.95    1.20
   5   2  -6   23.77    1.27
   4   2  -6  101.50    4.38
   4   2  -6   89.14    4.43
   4   2  -6  100.50    4.40
   4   2  -6   93.89    4.46
  -4  -2   6   95.49    4.50
   3   2  -6  108.03    4.83
   3   2  -6  107.45    4.76
   3   2  -6  102.27    4.82
   3   2  -6  110.11    4.74
  -3  -2   6   96.61    4.78
   2   2  -6   58.59    2.62
   2   2  -6   57.09    2.69
   2   2  -6   59.05    2.64
   2   2  -6   58.59    2.69
  -2  -2   6   56.15    2.67
  -2  -2   6   55.00    3.53
  -1  -2   6  133.23    6.05
  -1  -2   6  134.49    6.99
   0  -2   6   99.40    5.45
   0  -2   6  100.32    4.55
   1  -2   6   21.12    1.78
   1  -2   6   19.35    1.03
  -2   2  -6  796.91   34.14
   2  -2   6  763.64   34.13
   2  -2   6  743.73   35.30
  -3   2  -6  150.47    6.57
   3  -2   6  140.18    6.53
   3  -2   6  144.88    6.46
   3  -2   6  138.13    6.50
  -4   2  -6   57.15    2.75
   4  -2   6   56.98    2.70
   4  -2   6   55.83    2.65
  -5   2  -6    2.23    0.30
   5  -2   6    2.27    0.27
   5  -2   6    2.60    0.24
   5  -2   6    2.42    0.25
  -6   2  -6   47.48    2.37
   6  -2   6   46.63    2.29
   6  -2   6   44.92    2.20
   6  -2   6   46.79    2.23
  -7   2  -6    1.13    0.24
   7  -2   6    1.07    0.15
   7  -2   6    1.25    0.16
   7  -2   6    1.34    0.20
   7   1  -6    3.05    0.27
   7   1  -6    4.57    0.31
   7   1  -6    4.76    0.35
  -7  -1   6    2.81    0.65
   6   1  -6   11.12    0.66
   6   1  -6   10.82    0.63
   6   1  -6   12.23    0.75
  -6  -1   6   12.24    0.75
   5   1  -6    3.00    0.31
   5   1  -6    2.92    0.26
  -5  -1   6    2.59    0.30
   4   1  -6    0.49    0.14
   4   1  -6    0.87    0.14
   4   1  -6    0.67    0.12
   4   1  -6    0.57    0.15
  -4  -1   6    0.48    0.14
   3   1  -6   10.89    0.58
   3   1  -6   10.99    0.64
   3   1  -6   11.55    0.64
   3   1  -6   10.44    0.56
  -3  -1   6   11.17    0.63
  -2  -1   6   22.38    1.11
  -2  -1   6   21.66    1.86
  -1  -1   6    0.40    0.29
  -1  -1   6    0.40    0.10
   0   1  -6   22.23    1.82
   0  -1   6   21.53    1.73
   0  -1   6   16.98    1.62
  -1   1  -6    4.19    0.77
  -1   1  -6    3.34    0.73
  -1   1  -6    3.87    0.29
   1  -1   6    3.97    0.72
   1  -1   6    3.13    0.85
  -2   1  -6   27.68    2.25
  -2   1  -6   26.56    1.33
   2  -1   6   25.89    1.31
   2  -1   6   26.05    1.32
  -3   1  -6   10.72    1.49
  -3   1  -6   14.79    0.79
   3  -1   6   13.28    0.81
   3  -1   6   12.99    0.70
   3  -1   6   13.56    0.75
  -4   1  -6    1.36    0.24
   4  -1   6    1.03    0.17
   4  -1   6    0.93    0.18
   4  -1   6    0.98    0.16
   4  -1   6    0.75    0.15
   4  -1   6    0.81    0.21
  -5   1  -6   11.22    0.73
   5  -1   6    9.96    0.62
   5  -1   6   10.24    0.62
   5  -1   6   10.04    0.67
   5  -1   6   10.24    0.60
  -6   1  -6   10.78    0.76
   6  -1   6   11.74    0.72
   6  -1   6   11.19    0.65
   6  -1   6   11.59    0.65
   7  -1   6    0.80    0.15
   7  -1   6    0.68    0.13
   7   0  -6    0.57    0.16
   7   0  -6    0.39    0.12
  -7   0   6    0.23    0.15
  -7   0   6    0.47    0.50
   6   0  -6  131.65    6.10
   6   0  -6  135.17    6.21
  -6   0   6  136.04    6.23
   5   0  -6    3.75    0.29
   5   0  -6    4.26    0.37
   5   0  -6    4.34    0.33
   5   0  -6    4.31    0.32
   5   0  -6    4.54    0.37
  -5   0   6    4.65    0.38
   4   0  -6  158.45    7.10
   4   0  -6  165.05    7.12
   4   0  -6  157.42    7.19
   4   0  -6  137.66    7.06
   4   0  -6  166.16    7.18
  -4   0   6  163.68    7.19
   3   0  -6   11.15    0.65
   3   0  -6   11.81    0.64
  -3   0   6   11.43    0.65
  -3   0   6   10.77    1.31
  -2   0   6  877.55   39.91
  -2   0   6  921.46   41.09
   1   0  -6  329.34   15.22
  -1   0   6  336.53   15.10
  -1   0   6  279.97   14.98
  -1   0   6  316.50   14.13
   0   0  -6  343.52   18.16
   0   0  -6  414.50   18.45
   0   0   6  404.96   18.28
  -1   0  -6   79.87    3.80
  -1   0  -6   85.36    4.84
  -2   0  -6  305.36   15.15
  -2   0  -6  309.96   13.79
   2   0   6  315.60   13.77
   2   0   6  299.79   13.86
  -3   0  -6    5.53    0.42
   3   0   6    5.07    0.38
   3   0   6    5.76    0.41
   3   0   6    5.93    0.36
   3   0   6    4.45    0.40
   3   0   6    6.35    0.51
  -4   0  -6   59.29    2.88
   4   0   6   56.35    2.74
   4   0   6   58.31    2.77
   4   0   6   61.38    2.75
   4   0   6   58.96    2.84
   4   0   6   58.12    2.97
   5   0   6    0.98    0.18
   5   0   6    0.68    0.15
   5   0   6    0.70    0.18
   5   0   6    0.48    0.15
  -6   0  -6   10.74    0.73
   6   0   6   10.79    0.67
   6   0   6   10.44    0.60
   8  -1  -6    8.86    0.54
   8  -1  -6    7.51    0.49
   7  -1  -6    9.24    0.63
   7  -1  -6    9.40    0.56
  -7   1   6    6.71    1.00
  -7   1   6   10.63    0.67
   6  -1  -6    0.97    0.17
   6  -1  -6    0.70    0.18
   6  -1  -6    0.64    0.14
  -6   1   6    0.83    0.20
  -6   1   6    0.73    0.52
   5  -1  -6   38.89    1.97
   5  -1  -6   38.01    1.86
   5  -1  -6   37.89    1.87
   5  -1  -6   40.88    1.96
  -5   1   6   40.72    1.98
   4  -1  -6   27.99    1.45
   4  -1  -6   27.25    1.35
   4  -1  -6   27.41    1.36
   4  -1  -6   29.40    1.42
  -4   1   6   29.67    1.45
   3  -1  -6    0.53    0.12
   3  -1  -6    0.24    0.09
   3  -1  -6    0.21    0.10
  -3   1   6    0.14    0.07
  -3   1   6   -0.03    0.18
  -3   1   6    0.21    0.30
   2  -1  -6  101.98    5.75
   2  -1  -6   95.45    4.58
  -2   1   6  104.13    5.69
   1  -1  -6  279.36   12.91
   1  -1  -6  295.49   14.13
  -1   1   6  291.57   13.99
  -1  -1  -6    3.21    0.27
   1   1   6    3.44    0.33
  -2  -1  -6  280.32   12.19
   2   1   6  272.52   12.29
   2   1   6  269.40   12.14
   2   1   6  256.03   12.11
   2   1   6  271.99   12.16
   2   1   6  275.81   12.08
  -3  -1  -6   38.17    2.02
   3   1   6   42.89    1.93
   3   1   6   41.62    2.02
   3   1   6   39.01    1.96
   3   1   6   41.76    2.17
  -4  -1  -6    3.41    0.36
   4   1   6    3.12    0.32
   4   1   6    3.41    0.29
   4   1   6    3.04    0.40
   4   1   6    2.79    0.32
  -5  -1  -6   28.87    1.59
   5   1   6   28.81    1.50
   5   1   6   30.42    1.56
   5   1   6   31.47    1.47
   6   1   6    1.83    0.19
   6   1   6    1.76    0.22
   8  -2  -6    0.43    0.12
   8  -2  -6    0.51    0.15
  -8   2   6    0.71    0.27
   7  -2  -6   32.58    1.66
   7  -2  -6   35.48    1.77
  -7   2   6   35.72    1.81
  -7   2   6   33.40    2.12
   6  -2  -6   15.02    0.84
   6  -2  -6   12.68    0.82
   6  -2  -6   14.29    0.75
   6  -2  -6   13.81    0.74
  -6   2   6   13.63    0.84
  -6   2   6   10.61    1.18
   5  -2  -6   24.85    1.28
   5  -2  -6   26.70    1.38
   5  -2  -6   27.78    1.42
  -5   2   6   26.77    1.40
   4  -2  -6   26.82    1.44
   4  -2  -6   29.74    1.40
   4  -2  -6   27.48    1.42
  -4   2   6   25.63    1.63
  -4   2   6   29.34    1.44
   3  -2  -6  347.33   16.50
   3  -2  -6  374.03   16.50
  -3   2   6  374.74   16.49
  -3   2   6  379.93   16.63
   2  -2  -6  160.44    8.55
   2  -2  -6  167.88    7.26
  -2   2   6  152.89    7.24
   1  -2  -6  119.39    6.80
   1  -2  -6  124.38    5.55
  -1  -2  -6    1.53    0.38
  -1  -2  -6    2.42    0.23
   1   2   6    1.74    0.21
   1   2   6    1.78    0.23
   1   2   6    2.04    0.21
   1   2   6    2.49    0.30
  -2  -2  -6   10.08    0.65
   2   2   6   10.03    0.56
   2   2   6   10.46    0.64
   2   2   6   10.49    0.64
   2   2   6   10.22    0.75
   2   2   6   10.81    0.62
  -3  -2  -6    4.71    0.42
   3   2   6    4.64    0.49
   3   2   6    4.82    0.41
   3   2   6    5.21    0.35
   3   2   6    4.58    0.41
  -4  -2  -6   12.12    0.90
   4   2   6   14.13    0.83
   4   2   6   16.03    0.79
   4   2   6   15.36    0.88
   5   2   6   26.52    1.33
   5   2   6   23.99    1.27
   5   2   6   25.88    1.24
   8  -3  -6    4.39    0.35
  -8   3   6    3.93    0.37
   7  -3  -6   87.29    4.36
   7  -3  -6   99.73    4.49
  -7   3   6   97.36    4.52
  -7   3   6   98.71    4.70
   6  -3  -6   26.09    1.44
   6  -3  -6   27.31    1.43
  -6   3   6   28.26    1.68
  -6   3   6   26.39    1.46
   5  -3  -6  189.97    8.18
   5  -3  -6  171.03    8.19
   5  -3  -6  173.94    8.21
  -5   3   6  179.27    8.37
  -5   3   6  184.07    8.21
   4  -3  -6  222.38    9.92
   4  -3  -6  210.80    9.99
   4  -3  -6  232.28   10.00
  -4   3   6  217.72   10.08
  -4   3   6  219.27    9.96
   3  -3  -6    1.25    0.18
   3  -3  -6    1.22    0.21
  -3   3   6    1.02    0.15
  -3   3   6    1.22    0.24
  -3   3   6    1.00    0.18
   2  -3  -6   75.94    3.54
   2  -3  -6   69.75    4.77
   2  -3  -6   77.44    3.54
  -2   3   6   77.27    3.49
  -2   3   6   75.02    3.48
  -2   3   6   79.39    3.62
   1  -3  -6   81.09    4.05
   1  -3  -6   91.33    4.08
  -1   3   6   85.79    4.03
  -1   3   6   91.43    4.05
  -1   3   6   91.15    4.18
   0  -3  -6   25.53    1.34
   0   3   6   26.98    1.32
   0   3   6   26.38    1.33
   0   3   6   26.67    1.47
  -1  -3  -6   56.76    2.89
   1   3   6   60.79    2.89
   1   3   6   62.84    3.07
   1   3   6   64.34    2.88
  -2  -3  -6   10.35    0.68
   2   3   6    9.85    0.64
   2   3   6   11.01    0.82
   2   3   6   10.87    0.68
   2   3   6   10.85    0.66
  -3  -3  -6    0.33    0.21
   3   3   6    0.24    0.16
   3   3   6    0.18    0.17
   3   3   6    0.15    0.12
   4   3   6    2.98    0.30
   4   3   6    3.00    0.32
   8  -4  -6    4.88    0.37
   7  -4  -6   26.92    1.36
   7  -4  -6   21.21    1.37
  -7   4   6   27.78    1.40
   6  -4  -6   24.09    1.24
   6  -4  -6   22.85    1.28
   6  -4  -6   21.20    1.25
  -6   4   6   21.99    1.25
   5  -4  -6    7.96    0.54
   5  -4  -6    8.07    0.59
   5  -4  -6    8.07    0.62
  -5   4   6    8.05    0.57
   4  -4  -6   83.15    3.68
   4  -4  -6   71.07    3.57
   4  -4  -6   82.23    3.70
   4  -4  -6   76.49    4.14
  -4   4   6   72.87    3.57
   3  -4  -6  140.14    6.26
   3  -4  -6  141.72    6.23
  -3   4   6  133.74    6.16
  -3   4   6  126.80    6.26
   2  -4  -6    0.32    0.11
   2  -4  -6    0.35    0.13
  -2   4   6    0.64    0.14
  -2   4   6    0.38    0.15
   1  -4  -6   33.29    1.66
   1  -4  -6   29.11    1.63
  -1   4   6   34.38    1.64
  -1   4   6   34.41    1.78
  -1   4   6   33.68    1.63
   0  -4  -6    1.91    0.24
   0   4   6    2.06    0.32
   0   4   6    2.25    0.28
  -1  -4  -6    1.30    0.38
   1   4   6    1.24    0.21
   1   4   6    1.32    0.30
   1   4   6    1.42    0.26
   2   4   6    0.77    0.23
   2   4   6    0.90    0.21
   4   4   6    8.27    0.48
   8  -5  -6    3.49    0.29
   7  -5  -6   93.93    4.55
   7  -5  -6  101.70    4.55
   6  -5  -6   10.21    0.73
   6  -5  -6   10.22    0.71
   6  -5  -6   10.47    0.66
  -6   5   6   10.15    0.64
   5  -5  -6  200.01    8.84
   5  -5  -6  181.54    8.70
   5  -5  -6  199.01    8.81
  -5   5   6  189.26    8.71
   4  -5  -6   81.75    3.90
   4  -5  -6   82.53    3.94
  -4   5   6   82.37    3.84
   3  -5  -6  401.21   17.16
   3  -5  -6  392.21   17.18
  -3   5   6  389.36   17.09
  -3   5   6  344.93   17.13
   2  -5  -6   10.90    0.71
   2  -5  -6   11.58    0.71
  -2   5   6   10.59    0.66
  -2   5   6   10.84    0.66
   1  -5  -6   68.33    3.50
  -1   5   6   72.68    3.61
  -1   5   6   78.56    3.50
  -1   5   6   77.02    3.48
   0   5   6   14.80    0.88
   0   5   6   15.12    0.85
   0   5   6   14.71    0.99
   1   5   6  221.26    9.92
   1   5   6  216.36    9.89
   1   5   6  220.31   10.10
   2   5   6    0.64    0.20
   2   5   6    0.17    0.15
   3   5   6   32.21    1.54
   7  -6  -6    0.92    0.17
   7  -6  -6    1.15    0.22
   7  -6  -6    1.14    0.22
  -7   6   6    0.85    0.17
   6  -6  -6   38.51    1.89
   6  -6  -6   35.84    1.84
   6  -6  -6   32.28    1.79
  -6   6   6   37.03    1.79
   5  -6  -6   41.18    2.12
   5  -6  -6   40.89    2.08
  -5   6   6   39.96    2.00
   4  -6  -6   66.72    3.26
   4  -6  -6   67.87    3.29
  -4   6   6   67.76    3.20
   3  -6  -6    3.23    0.35
   3  -6  -6    3.14    0.34
  -3   6   6    2.70    0.31
  -3   6   6    3.05    0.30
   2  -6  -6   25.11    1.39
  -2   6   6   26.66    1.36
  -2   6   6   26.49    1.37
  -1   6   6    0.20    0.11
  -1   6   6    0.23    0.18
   0  -6  -6    4.30    0.71
   0   6   6    4.43    0.44
   0   6   6    4.56    0.37
   1   6   6    1.23    0.21
   1   6   6    1.51    0.25
  -7   7   6   20.19    1.07
   6  -7  -6   13.13    0.81
   6  -7  -6   12.29    0.77
  -6   7   6   13.21    0.74
   5  -7  -6  119.68    5.36
   5  -7  -6  111.73    5.35
  -5   7   6  113.23    5.27
   4  -7  -6   27.48    1.57
   4  -7  -6   31.17    1.58
  -4   7   6   30.47    1.50
   3  -7  -6   13.25    0.81
  -3   7   6   12.13    0.75
  -3   7   6   13.45    0.76
  -2   7   6   15.72    0.86
  -2   7   6   15.34    0.88
   1  -7  -6    8.81    1.03
  -1   7   6    9.86    0.58
  -1   7   6    9.89    0.63
   0   7   6   44.89    2.12
   0   7   6   45.15    2.14
   5  -8  -6    0.40    0.15
  -5   8   6    0.32    0.11
   4  -8  -6    3.44    0.33
   4  -8  -6    2.51    0.66
  -4   8   6    3.28    0.27
   3  -8  -6   25.55    1.89
  -3   8   6   28.59    1.34
  -3   9  -7    0.74    0.14
   3  -9   7    0.47    0.13
   0   8  -7    6.59    0.46
   0   8  -7    6.64    0.42
   0   8  -7    6.66    0.45
  -1   8  -7   46.27    2.13
  -1   8  -7   44.34    2.19
  -1   8  -7   43.78    2.17
  -2   8  -7   57.31    2.63
  -2   8  -7   54.35    2.80
  -2   8  -7   58.01    2.68
  -2   8  -7   54.12    2.69
  -3   8  -7    0.26    0.12
  -3   8  -7    0.10    0.11
  -3   8  -7    0.08    0.14
   3  -8   7    0.15    0.11
   3  -8   7    0.08    0.12
  -4   8  -7   26.82    1.40
  -4   8  -7   28.23    1.55
   4  -8   7   26.81    1.46
   4  -8   7   29.25    1.44
  -5   8  -7    6.88    0.54
   5  -8   7    5.25    0.40
   5  -8   7    6.84    0.49
   5  -8   7    7.04    0.47
  -6   8  -7   17.02    1.05
   2   7  -7   59.13    2.78
   2   7  -7   65.07    2.81
   2   7  -7   57.77    3.04
   1   7  -7    7.93    0.48
   1   7  -7    6.55    0.48
   1   7  -7    7.21    0.45
   1   7  -7    7.85    0.54
   0   7  -7    3.68    0.31
   0   7  -7    3.55    0.33
   0   7  -7    3.61    0.36
   0   7  -7    4.02    0.33
  -1   7  -7   40.29    1.98
  -1   7  -7   36.64    2.05
  -1   7  -7   38.78    1.93
  -1   7  -7   42.20    1.90
   1  -7   7   36.20    1.88
  -2   7  -7   37.53    2.02
  -2   7  -7   37.99    2.11
  -2   7  -7   37.68    1.86
  -2   7  -7   37.77    1.82
  -2   7  -7   36.28    1.89
   2  -7   7   35.05    1.80
  -3   7  -7    1.90    0.36
  -3   7  -7    1.91    0.33
  -3   7  -7    1.97    0.26
  -3   7  -7    1.98    0.24
   3  -7   7    1.98    0.27
   3  -7   7    2.22    0.24
  -4   7  -7   15.43    1.00
  -4   7  -7   12.95    0.83
  -4   7  -7   14.14    0.83
   4  -7   7   13.82    0.79
   4  -7   7   15.29    0.90
   4  -7   7   14.98    0.86
  -5   7  -7   80.97    3.84
   5  -7   7   79.25    3.68
   5  -7   7   73.04    3.61
   5  -7   7   79.18    3.73
  -6   7  -7    0.22    0.15
   6  -7   7    0.19    0.09
   6  -7   7    0.17    0.12
   6  -7   7    0.15    0.11
   3   6  -7    0.55    0.13
   3   6  -7    0.37    0.12
   2   6  -7    2.86    0.28
   2   6  -7    2.88    0.31
   2   6  -7    2.78    0.27
   1   6  -7   27.84    1.48
   1   6  -7   26.33    1.42
   1   6  -7   27.34    1.38
   1   6  -7   30.11    1.42
   0   6  -7    0.09    0.09
   0   6  -7    0.18    0.12
   0   6  -7    0.28    0.12
   0   6  -7    0.23    0.13
   0   6  -7    0.26    0.17
  -1   6  -7   42.80    2.05
  -1   6  -7   44.79    2.08
  -1   6  -7   45.32    2.18
  -1   6  -7   42.54    2.13
  -1   6  -7   42.94    2.36
  -1   6  -7   40.59    2.24
  -2   6  -7    0.02    0.12
  -2   6  -7    0.06    0.10
  -2   6  -7    0.02    0.12
  -2   6  -7    0.15    0.09
  -2   6  -7    0.09    0.10
   2  -6   7    0.09    0.07
   2  -6   7    0.04    0.10
  -3   6  -7  152.60    7.07
  -3   6  -7  157.65    7.35
  -3   6  -7  157.17    7.25
  -3   6  -7  154.35    7.09
   3  -6   7  150.00    7.03
   3  -6   7  157.17    7.12
  -4   6  -7    7.83    0.68
  -4   6  -7    7.55    0.53
  -4   6  -7    7.20    0.51
  -4   6  -7    7.17    0.63
   4  -6   7    7.51    0.53
   4  -6   7    7.51    0.49
   4  -6   7    7.34    0.55
  -5   6  -7  131.45    6.09
   5  -6   7  129.77    5.86
   5  -6   7  122.65    5.88
   5  -6   7  128.72    5.96
  -6   6  -7   74.75    3.62
   6  -6   7   74.38    3.44
   6  -6   7   72.70    3.54
   7  -6   7  128.15    5.79
   4   5  -7   67.33    3.13
   4   5  -7   69.30    3.16
   3   5  -7    2.04    0.25
   3   5  -7    1.97    0.23
   2   5  -7   50.44    2.37
   2   5  -7   49.55    2.47
   2   5  -7   51.56    2.41
   1   5  -7    0.74    0.16
   1   5  -7    0.60    0.15
   1   5  -7    0.45    0.13
   1   5  -7    0.52    0.16
   1   5  -7    0.34    0.18
   0   5  -7    2.27    0.25
   0   5  -7    2.31    0.35
   0   5  -7    2.58    0.24
   0   5  -7    2.68    0.25
   0   5  -7    2.45    0.28
  -1   5  -7   10.77    0.81
  -1   5  -7   10.03    0.58
  -1   5  -7    9.35    0.56
  -1   5  -7   10.00    0.62
  -1   5  -7   10.15    0.65
  -1   5  -7   10.04    0.71
   1  -5   7    9.70    0.62
  -2   5  -7    1.63    0.31
  -2   5  -7    1.57    0.30
  -2   5  -7    1.67    0.22
  -2   5  -7    1.53    0.22
  -2   5  -7    1.43    0.20
   2  -5   7    1.39    0.21
   2  -5   7    1.58    0.22
  -3   5  -7  205.49    9.50
  -3   5  -7  206.86    9.36
  -3   5  -7  204.73    9.57
  -3   5  -7  205.20    9.34
   3  -5   7  220.90    9.31
   3  -5   7  195.29    9.37
  -4   5  -7   76.08    3.52
  -4   5  -7   64.92    3.65
  -4   5  -7   80.19    3.72
  -4   5  -7   71.06    3.52
   4  -5   7   79.07    3.59
   4  -5   7   77.75    3.49
   4  -5   7   73.77    3.50
  -5   5  -7    1.72    0.35
   5  -5   7    1.63    0.24
   5  -5   7    1.99    0.23
   5  -5   7    2.17    0.29
  -6   5  -7   14.81    0.96
   6  -5   7   14.38    0.89
   6  -5   7   13.36    0.76
   6  -5   7   15.00    0.81
   7  -5   7   15.78    0.83
   5   4  -7   58.29    2.69
   5   4  -7   57.62    2.67
   4   4  -7   38.57    1.83
   4   4  -7   38.19    1.86
   3   4  -7  164.05    7.42
   3   4  -7  164.79    7.39
   3   4  -7  163.36    7.48
   2   4  -7   25.13    1.26
   2   4  -7   25.52    1.23
   2   4  -7   25.29    1.32
   2   4  -7   23.39    1.29
   1   4  -7    1.95    0.18
   1   4  -7    1.25    0.21
   1   4  -7    1.52    0.21
   1   4  -7    1.96    0.20
   1   4  -7    1.14    0.19
   0   4  -7    5.17    0.38
   0   4  -7    4.80    0.34
   0   4  -7    5.63    0.40
   0   4  -7    4.86    0.33
   0   4  -7    5.56    0.51
   0   4  -7    5.51    0.41
   0  -4   7    5.40    0.39
  -1   4  -7   43.63    2.30
  -1   4  -7   48.10    2.23
  -1   4  -7   47.45    2.16
  -1   4  -7   50.20    2.26
  -1   4  -7   47.43    2.41
  -1   4  -7   47.87    2.23
  -1   4  -7   45.07    2.16
   1  -4   7   45.55    2.23
   1  -4   7   41.24    2.20
  -2   4  -7    5.43    0.52
  -2   4  -7    5.86    0.51
  -2   4  -7    5.71    0.41
  -2   4  -7    5.75    0.43
  -2   4  -7    5.63    0.37
   2  -4   7    6.52    0.39
   2  -4   7    4.85    0.38
   2  -4   7    5.72    0.42
  -3   4  -7  256.20   11.00
  -3   4  -7  238.55   10.78
  -3   4  -7  241.36   10.98
  -3   4  -7  240.16   10.83
   3  -4   7  243.61   10.83
   3  -4   7  248.20   10.74
   3  -4   7  207.66   10.73
  -4   4  -7   27.66    1.52
  -4   4  -7   24.05    1.28
  -4   4  -7   22.76    1.31
  -4   4  -7   24.06    1.33
   4  -4   7   26.28    1.26
   4  -4   7   21.54    1.25
   4  -4   7   25.58    1.35
  -5   4  -7  106.54    4.98
  -5   4  -7   99.36    4.83
   5  -4   7  104.06    4.72
   5  -4   7  100.43    4.82
  -6   4  -7   18.17    1.13
  -6   4  -7   17.61    1.07
   6  -4   7   18.74    0.97
   6  -4   7   17.92    0.94
  -7   4  -7  109.92    5.26
   7  -4   7  120.36    5.17
   7  -4   7  110.72    5.13
   6   3  -7    4.66    0.31
   6   3  -7    4.37    0.29
  -6  -3   7    3.75    0.82
   5   3  -7   10.29    0.59
   5   3  -7   10.77    0.61
   4   3  -7    2.61    0.26
   4   3  -7    2.81    0.25
   4   3  -7    2.66    0.29
   4   3  -7    3.10    0.31
   3   3  -7   63.87    3.08
   3   3  -7   64.18    3.01
   3   3  -7   64.81    2.98
   3   3  -7   65.69    3.09
   2   3  -7    5.22    0.40
   2   3  -7    5.78    0.42
   2   3  -7    7.25    0.45
   2   3  -7    6.11    0.38
   2   3  -7    5.93    0.36
   2   3  -7    5.05    0.61
  -2  -3   7    5.51    0.41
   1   3  -7   50.13    2.33
   1   3  -7   48.57    2.33
   1   3  -7   49.78    2.24
   1   3  -7   50.04    2.27
   1   3  -7   48.97    2.46
   1   3  -7   45.83    2.29
  -1  -3   7   46.82    2.31
   0   3  -7  358.26   15.92
   0   3  -7  368.06   15.92
   0   3  -7  358.86   16.08
   0   3  -7  368.14   15.94
   0   3  -7  336.80   15.86
   0   3  -7  375.29   15.86
   0  -3   7  365.87   15.93
   0  -3   7  319.56   17.06
  -1   3  -7    3.07    0.23
  -1   3  -7    2.86    0.22
  -1   3  -7    2.83    0.38
  -1   3  -7    3.53    0.37
  -1   3  -7    2.93    0.26
   1  -3   7    2.55    0.25
   1  -3   7    2.59    0.69
  -2   3  -7   33.68    1.74
  -2   3  -7   32.46    1.67
  -2   3  -7   37.17    1.89
   2  -3   7   37.59    1.76
   2  -3   7   33.26    1.70
   2  -3   7   38.04    1.69
  -3   3  -7   58.95    3.05
  -3   3  -7   63.19    2.96
   3  -3   7   60.70    2.87
   3  -3   7   60.69    2.91
   3  -3   7   65.64    2.97
  -4   3  -7    5.60    0.45
  -4   3  -7    3.92    0.61
   4  -3   7    5.14    0.40
   4  -3   7    5.17    0.43
   4  -3   7    5.69    0.38
  -5   3  -7   44.94    2.51
  -5   3  -7   46.93    2.32
   5  -3   7   45.68    2.19
   5  -3   7   44.35    2.23
  -6   3  -7   17.94    1.07
  -6   3  -7   16.88    1.10
   6  -3   7   17.98    0.94
   6  -3   7   17.79    0.99
   6  -3   7   18.08    0.92
  -7   3  -7    6.97    0.57
   7  -3   7    7.02    0.40
   7  -3   7    6.19    0.43
   7  -3   7    6.65    0.41
   6   2  -7    0.36    0.12
   6   2  -7    0.67    0.12
   6   2  -7    0.39    0.15
  -6  -2   7    0.13    0.44
   5   2  -7   78.66    3.61
   5   2  -7   75.30    3.52
   5   2  -7   73.94    3.48
   4   2  -7   10.18    0.58
   4   2  -7   10.75    0.57
   4   2  -7    9.65    0.64
   4   2  -7   10.22    0.64
  -4  -2   7    8.74    0.62
   3   2  -7   48.13    2.36
   3   2  -7   50.59    2.36
   3   2  -7   52.06    2.27
   3   2  -7   47.67    2.29
  -3  -2   7   46.27    2.34
   2   2  -7    1.52    0.18
   2   2  -7    1.53    0.19
   2   2  -7    1.52    0.18
   2   2  -7    1.33    0.25
   2   2  -7    1.53    0.14
   2   2  -7    1.49    0.18
  -2  -2   7    1.26    0.17
   1   2  -7    0.29    0.08
   1   2  -7    0.13    0.14
  -1  -2   7    0.11    0.08
  -1  -2   7    0.08    0.25
   0  -2   7  143.67    6.34
   0  -2   7  135.61    7.42
  -1   2  -7   25.52    1.42
   1  -2   7   24.08    2.12
   1  -2   7   22.79    1.21
   1  -2   7   25.38    1.25
  -2   2  -7  151.38    6.65
  -2   2  -7  145.34    6.80
   2  -2   7  144.51    6.63
   2  -2   7  143.56    6.55
   2  -2   7  143.81    6.59
  -3   2  -7   11.88    0.72
   3  -2   7   11.00    0.69
   3  -2   7   11.70    0.63
   3  -2   7   11.36    0.67
  -4   2  -7  165.48    7.53
   4  -2   7  162.08    7.40
   4  -2   7  164.09    7.46
  -5   2  -7   47.27    2.40
   5  -2   7   47.67    2.27
   5  -2   7   49.10    2.26
   5  -2   7   46.28    2.34
  -6   2  -7   55.91    2.83
   6  -2   7   56.26    2.69
   6  -2   7   58.73    2.77
   6  -2   7   58.92    2.68
   7  -2   7    1.58    0.20
   7  -2   7    1.63    0.17
   7   1  -7    7.51    0.44
   7   1  -7    7.20    0.48
  -7  -1   7    7.22    0.83
   6   1  -7    0.55    0.12
   6   1  -7    0.46    0.16
   6   1  -7    0.75    0.15
  -6  -1   7    0.56    0.18
  -6  -1   7    0.57    0.51
   5   1  -7    5.27    0.39
   5   1  -7    6.14    0.52
   5   1  -7    6.20    0.46
   5   1  -7    5.66    0.37
  -5  -1   7    5.69    0.46
   4   1  -7   41.55    2.00
   4   1  -7   41.50    1.97
   4   1  -7   44.90    2.09
   4   1  -7   41.65    2.09
  -4  -1   7   41.99    2.08
   3   1  -7    0.46    0.13
   3   1  -7    0.62    0.10
   3   1  -7    0.60    0.12
   3   1  -7    0.63    0.13
  -3  -1   7    0.66    0.14
   2   1  -7    0.59    0.13
   2   1  -7    0.62    0.14
  -2  -1   7    0.70    0.45
  -2  -1   7    0.69    0.14
  -1  -1   7    3.37    0.27
  -1  -1   7    2.86    0.65
   0   1  -7   70.57    3.42
   0  -1   7   74.99    4.43
   0  -1   7   76.97    3.44
  -1   1  -7  219.72    9.61
   1  -1   7  205.65    9.57
   1  -1   7  214.40    9.60
  -2   1  -7   74.77    4.09
  -2   1  -7   89.66    3.90
   2  -1   7   89.47    3.86
   2  -1   7   82.60    3.79
   2  -1   7   80.91    3.92
   2  -1   7   83.50    3.87
  -3   1  -7   52.76    2.52
   3  -1   7   51.97    2.41
   3  -1   7   52.43    2.48
   3  -1   7   49.11    2.56
  -4   1  -7  133.40    6.14
   4  -1   7  122.46    6.18
   4  -1   7  135.32    6.09
   4  -1   7  131.82    6.00
   4  -1   7  138.99    6.00
  -5   1  -7    2.16    0.30
   5  -1   7    2.47    0.25
   5  -1   7    2.48    0.24
   5  -1   7    2.34    0.28
  -6   1  -7   25.75    1.34
   6  -1   7   24.28    1.18
   6  -1   7   23.54    1.25
   6  -1   7   21.58    1.16
   7   0  -7   16.19    0.89
   7   0  -7   15.33    0.81
  -7   0   7   14.44    1.26
  -7   0   7   15.39    0.91
   6   0  -7   18.05    1.00
   6   0  -7   16.28    0.90
  -6   0   7   16.80    1.01
   5   0  -7   82.66    4.08
   5   0  -7   89.33    4.10
   5   0  -7   87.05    4.00
  -5   0   7   89.59    4.11
   4   0  -7   30.90    1.56
   4   0  -7   33.12    1.66
   4   0  -7   33.44    1.64
  -4   0   7   33.32    1.65
   3   0  -7    2.92    0.25
   3   0  -7    2.86    0.27
  -3   0   7    1.73    0.40
  -3   0   7    2.99    0.26
  -3   0   7    2.60    0.75
   2   0  -7   23.01    1.24
   2   0  -7   24.63    1.25
  -2   0   7   28.17    1.28
  -2   0   7   25.16    1.41
  -2   0   7   24.18    2.16
   1   0  -7  227.90   10.63
  -1   0   7  244.50   11.85
  -1   0   7  239.16   10.64
   0   0  -7  132.39    6.13
   0   0  -7  139.73    7.39
   0   0   7  133.01    6.12
  -1   0  -7   10.45    1.34
   1   0   7    9.42    0.58
   1   0   7   10.17    0.58
   1   0   7   10.61    0.65
  -2   0  -7   58.60    4.47
  -2   0  -7   58.46    2.80
   2   0   7   57.50    2.87
   2   0   7   60.30    2.78
  -3   0  -7   62.03    2.97
   3   0   7   58.63    3.05
   3   0   7   63.32    2.85
   3   0   7   62.40    2.93
  -4   0  -7  222.41   10.04
   4   0   7  211.47    9.89
   4   0   7  212.63   10.12
   4   0   7  230.10    9.88
   4   0   7  223.52    9.99
  -5   0  -7    3.86    0.40
   5   0   7    4.12    0.37
   5   0   7    3.93    0.33
   5   0   7    4.38    0.32
   6   0   7   26.40    1.33
   6   0   7   25.84    1.26
   7  -1  -7    2.77    0.27
   7  -1  -7    3.25    0.33
  -7   1   7    3.89    0.68
  -7   1   7    3.79    0.37
   6  -1  -7    1.03    0.21
   6  -1  -7    0.83    0.16
  -6   1   7    1.13    0.54
  -6   1   7    1.01    0.21
   5  -1  -7   33.73    1.70
   5  -1  -7   32.13    1.72
   5  -1  -7   31.73    1.61
  -5   1   7   36.64    1.76
   4  -1  -7    5.33    0.41
   4  -1  -7    5.02    0.37
  -4   1   7    5.37    0.40
  -4   1   7    3.80    0.64
   3  -1  -7   65.63    3.14
   3  -1  -7   62.15    3.12
   3  -1  -7   64.30    3.09
  -3   1   7   69.19    3.35
  -3   1   7   73.38    3.16
   2  -1  -7  361.67   16.27
   2  -1  -7  346.09   16.25
  -2   1   7  358.86   16.37
  -2   1   7  389.75   16.29
   1  -1  -7   16.71    0.86
   1  -1  -7   15.32    1.70
  -1   1   7   15.68    0.84
  -1   1   7   15.08    0.90
   0  -1  -7  412.06   17.42
   0  -1  -7  405.73   18.94
   0   1   7  400.11   17.47
   0   1   7  341.45   17.36
  -1  -1  -7   16.66    0.88
  -1  -1  -7   13.57    1.66
   1   1   7   15.96    0.95
   1   1   7   16.98    0.86
  -2  -1  -7  126.34    5.63
   2   1   7  128.24    5.51
   2   1   7  123.48    5.74
   2   1   7  106.50    5.52
   2   1   7  126.56    5.60
  -3  -1  -7    7.77    0.56
   3   1   7    7.81    0.54
   3   1   7    6.86    0.50
   3   1   7    7.51    0.46
   3   1   7    7.30    0.63
  -4  -1  -7  102.24    4.69
   4   1   7   90.93    4.55
   4   1   7   98.53    4.79
   4   1   7  103.66    4.53
   4   1   7   99.94    4.63
  -5  -1  -7    7.76    0.59
   5   1   7    8.26    0.48
   5   1   7    8.08    0.54
   5   1   7    7.44    0.50
   8  -2  -7   84.86    3.92
   7  -2  -7   26.06    1.37
   7  -2  -7   23.43    1.26
  -7   2   7   25.56    1.40
  -7   2   7   28.71    1.68
   6  -2  -7   21.96    1.25
   6  -2  -7   23.11    1.25
  -6   2   7   22.98    1.28
  -6   2   7   24.33    1.62
   5  -2  -7   58.27    2.91
   5  -2  -7   56.94    2.87
  -5   2   7   62.57    3.23
  -5   2   7   63.50    2.93
   4  -2  -7    9.39    0.55
   4  -2  -7    8.07    0.57
   4  -2  -7    8.08    0.58
  -4   2   7    9.10    0.75
  -4   2   7    9.29    0.59
   3  -2  -7   34.12    1.69
   3  -2  -7   30.15    1.62
   3  -2  -7   33.63    1.68
  -3   2   7   34.21    1.68
  -3   2   7   36.48    1.81
   2  -2  -7    0.18    0.09
   2  -2  -7    0.14    0.09
   2  -2  -7    0.17    0.19
  -2   2   7    0.14    0.08
  -2   2   7    0.28    0.12
   1  -2  -7   29.06    1.58
   1  -2  -7   29.63    2.69
   1  -2  -7   36.58    1.63
  -1   2   7   33.80    1.69
  -1   2   7   32.91    1.58
   0  -2  -7    1.44    0.40
   0   2   7    1.99    0.27
   0   2   7    2.05    0.21
   0   2   7    2.41    0.24
  -1  -2  -7  112.70    5.21
   1   2   7  111.63    5.17
   1   2   7  117.95    5.35
   1   2   7  108.76    5.14
   1   2   7  114.94    5.18
  -2  -2  -7   31.79    1.64
   2   2   7   31.13    1.57
   2   2   7   33.12    1.62
   2   2   7   31.02    1.76
  -3  -2  -7   60.34    3.02
   3   2   7   63.82    2.98
   3   2   7   64.18    2.87
   3   2   7   59.42    2.92
   3   2   7   62.20    3.16
  -4  -2  -7    1.40    0.26
   4   2   7    1.40    0.23
   4   2   7    1.07    0.16
   4   2   7    1.24    0.21
   5   2   7    0.70    0.13
   5   2   7    0.64    0.15
   5   2   7    0.76    0.13
   8  -3  -7    1.56    0.22
   7  -3  -7    7.49    0.54
  -7   3   7    8.07    0.69
  -7   3   7    7.54    0.57
   6  -3  -7   69.37    3.52
   6  -3  -7   74.88    3.51
  -6   3   7   76.85    3.73
  -6   3   7   74.23    3.55
   5  -3  -7   56.83    2.84
   5  -3  -7   62.22    2.81
   5  -3  -7   58.25    2.86
  -5   3   7   57.49    2.98
  -5   3   7   57.35    2.84
   4  -3  -7   21.09    1.15
   4  -3  -7   20.12    1.06
   4  -3  -7   20.73    1.12
  -4   3   7   18.71    1.03
  -4   3   7   20.33    1.11
  -4   3   7   20.20    1.20
   3  -3  -7  185.18    7.96
   3  -3  -7  178.74    7.97
  -3   3   7  166.57    7.92
  -3   3   7  181.14    8.03
  -3   3   7  162.12    7.85
   2  -3  -7   19.83    1.11
   2  -3  -7   21.76    1.12
   2  -3  -7   22.45    1.56
  -2   3   7   20.10    1.07
  -2   3   7   21.61    1.19
  -2   3   7   19.60    1.05
   1  -3  -7    3.40    0.30
   1  -3  -7    2.76    0.29
   1  -3  -7    4.65    0.62
  -1   3   7    3.36    0.30
  -1   3   7    2.97    0.27
   0  -3  -7    4.20    0.63
   0  -3  -7    4.72    0.38
   0   3   7    5.02    0.47
   0   3   7    4.98    0.39
   0   3   7    4.35    0.34
  -1  -3  -7  139.66    6.43
   1   3   7  137.60    6.36
   1   3   7  140.31    6.39
   1   3   7  142.51    6.60
  -2  -3  -7   40.00    2.06
   2   3   7   41.27    2.01
   2   3   7   42.12    2.24
   2   3   7   40.98    2.03
   3   3   7  153.54    6.97
   3   3   7  150.18    7.17
   3   3   7  155.01    6.95
   4   3   7    0.15    0.15
   4   3   7    0.18    0.12
   8  -4  -7   13.23    0.74
   7  -4  -7    9.21    0.58
   7  -4  -7    7.59    0.57
  -7   4   7    9.00    0.62
   6  -4  -7   20.87    1.18
   6  -4  -7   21.65    1.14
   6  -4  -7   19.93    1.17
  -6   4   7   20.37    1.17
  -6   4   7   20.81    1.10
   5  -4  -7   11.66    0.75
   5  -4  -7   11.71    0.69
  -5   4   7   10.39    0.77
  -5   4   7   10.55    0.72
  -5   4   7   11.99    0.68
   4  -4  -7  231.91   10.10
   4  -4  -7  231.48   10.13
  -4   4   7  212.23   10.12
  -4   4   7  212.86    9.99
   3  -4  -7   65.33    3.05
   3  -4  -7   61.36    3.00
   3  -4  -7   66.35    3.63
  -3   4   7   61.75    2.94
  -3   4   7   59.27    3.06
   2  -4  -7   55.81    2.78
   2  -4  -7   58.39    2.78
  -2   4   7   60.27    2.88
  -2   4   7   56.49    2.71
  -2   4   7   57.11    2.73
   1  -4  -7    0.35    0.13
  -1   4   7    0.50    0.13
  -1   4   7    0.51    0.19
  -1   4   7    0.42    0.15
   0  -4  -7   14.02    0.82
   0  -4  -7   12.45    1.19
   0   4   7   13.13    0.92
   0   4   7   13.03    0.80
   0   4   7   12.75    0.75
  -1  -4  -7    4.64    0.42
   1   4   7    4.90    0.39
   1   4   7    5.14    0.53
   1   4   7    5.01    0.46
   2   4   7    1.72    0.25
   7  -5  -7    1.34    0.22
   7  -5  -7    1.36    0.23
  -7   5   7    0.92    0.17
   6  -5  -7    2.23    0.26
   6  -5  -7    2.83    0.36
   6  -5  -7    2.36    0.30
  -6   5   7    2.38    0.27
   5  -5  -7   23.03    1.27
   5  -5  -7   23.43    1.32
  -5   5   7   21.59    1.19
   4  -5  -7    1.06    0.22
   4  -5  -7    0.54    0.52
   4  -5  -7    0.97    0.24
  -4   5   7    1.74    0.23
   3  -5  -7  126.03    5.84
   3  -5  -7  128.23    5.85
  -3   5   7  123.06    5.75
   2  -5  -7    6.27    0.49
   2  -5  -7    5.97    0.48
  -2   5   7    6.11    0.45
  -2   5   7    5.64    0.72
  -2   5   7    6.59    0.48
   1  -5  -7  178.00    8.92
  -1   5   7  206.32    8.91
  -1   5   7  202.42    8.88
  -1   5   7  198.47    9.06
   0   5   7   39.78    2.13
   0   5   7   39.09    1.94
   0   5   7   40.20    1.99
   1   5   7  214.47    9.73
   1   5   7  213.43    9.75
   1   5   7  220.21    9.94
  -2  -5  -7   -0.21    0.25
   2   5   7    0.28    0.14
   7  -6  -7   31.65    1.56
  -7   6   7   30.04    1.50
   6  -6  -7    3.07    0.36
   6  -6  -7    2.55    0.30
  -6   6   7    2.83    0.28
   5  -6  -7   77.75    3.63
   5  -6  -7   73.19    3.59
  -5   6   7   73.95    3.51
   4  -6  -7   15.11    0.89
   4  -6  -7   14.83    0.90
   4  -6  -7   12.02    1.41
  -4   6   7   12.89    0.79
   3  -6  -7   15.07    0.92
   3  -6  -7   14.92    0.90
  -3   6   7   13.86    0.83
  -3   6   7   15.16    0.85
   2  -6  -7    0.10    0.12
   2  -6  -7    0.00    0.30
  -2   6   7    0.14    0.17
  -2   6   7    0.20    0.11
   1  -6  -7   69.16    4.18
  -1   6   7   79.05    3.60
  -1   6   7   79.92    3.56
   0   6   7    8.03    0.56
   0   6   7    7.59    0.50
   1   6   7    9.33    0.54
   6  -7  -7    5.45    0.43
  -6   7   7    4.75    0.35
   5  -7  -7    6.96    0.52
   5  -7  -7    6.98    0.51
  -5   7   7    5.92    0.43
   4  -7  -7   18.50    1.13
   4  -7  -7   21.65    1.14
  -4   7   7   20.73    1.07
   3  -7  -7   10.16    0.65
   3  -7  -7    8.21    1.13
  -3   7   7   10.58    0.61
   2  -7  -7   87.04    5.17
  -2   7   7  108.27    4.58
  -2   7   7  103.20    4.58
   1  -7  -7    1.11    0.48
  -1   7   7    2.46    0.29
  -1   7   7    2.19    0.21
   0   8  -8    0.14    0.11
   0   8  -8    0.29    0.10
   0   8  -8    0.17    0.11
  -1   8  -8   74.25    3.26
  -1   8  -8   68.99    3.30
  -1   8  -8   68.63    3.33
  -2   8  -8    3.03    0.30
  -2   8  -8    2.93    0.36
  -2   8  -8    3.26    0.30
   2  -8   8    2.96    0.27
  -3   8  -8   21.20    1.22
  -3   8  -8   19.49    1.09
  -3   8  -8   20.61    1.09
   3  -8   8   19.82    1.03
   3  -8   8   22.06    1.11
  -4   8  -8    4.11    0.33
  -4   8  -8    4.52    0.43
   4  -8   8    3.57    0.29
   4  -8   8    4.10    0.37
   4  -8   8    4.26    0.35
  -5   8  -8    6.35    0.50
   5  -8   8    5.63    0.37
   5  -8   8    6.37    0.42
   2   7  -8   24.53    1.19
   1   7  -8    2.29    0.36
   1   7  -8    2.84    0.31
   1   7  -8    2.87    0.26
   1   7  -8    2.57    0.24
   0   7  -8  102.69    4.77
   0   7  -8  106.87    4.91
   0   7  -8  102.06    4.85
   0   7  -8  108.44    4.81
  -1   7  -8   10.01    0.67
  -1   7  -8    9.82    0.60
  -1   7  -8    9.95    0.64
   1  -7   8    9.12    0.59
  -2   7  -8   29.24    1.69
  -2   7  -8   30.87    1.51
  -2   7  -8   30.94    1.59
  -2   7  -8   30.81    1.56
  -2   7  -8   30.81    1.79
   2  -7   8   28.39    1.50
  -3   7  -8    6.64    0.52
  -3   7  -8    7.27    0.52
  -3   7  -8    7.22    0.62
  -3   7  -8    7.20    0.67
   3  -7   8    7.72    0.55
   3  -7   8    7.05    0.48
  -4   7  -8   13.41    0.79
  -4   7  -8   13.88    0.93
  -4   7  -8   12.67    0.78
   4  -7   8   13.38    0.84
   4  -7   8   13.56    0.75
   4  -7   8   13.13    0.79
  -5   7  -8   10.72    0.78
   5  -7   8   10.97    0.64
   5  -7   8   11.56    0.68
   5  -7   8   11.78    0.74
  -6   7  -8   30.01    1.58
   6  -7   8   29.41    1.43
   3   6  -8    4.02    0.29
   3   6  -8    3.73    0.28
   2   6  -8  100.89    4.70
   2   6  -8  104.38    4.64
   2   6  -8   98.46    4.60
   1   6  -8   18.61    1.07
   1   6  -8   19.91    1.03
   1   6  -8   19.43    1.12
   1   6  -8   21.39    1.05
   0   6  -8  190.79    8.66
   0   6  -8  194.29    8.72
   0   6  -8  191.02    8.61
   0   6  -8  187.80    8.91
   0   6  -8  188.76    8.58
  -1   6  -8    0.35    0.20
  -1   6  -8    0.36    0.15
  -1   6  -8    0.74    0.18
  -1   6  -8    0.37    0.13
  -1   6  -8    0.40    0.19
   1  -6   8    0.15    0.11
  -2   6  -8   22.97    1.44
  -2   6  -8   21.26    1.14
  -2   6  -8   21.67    1.20
  -2   6  -8   22.63    1.35
  -2   6  -8   22.09    1.23
   2  -6   8   22.61    1.16
   2  -6   8   21.48    1.22
  -3   6  -8   31.78    1.62
  -3   6  -8   31.02    1.59
  -3   6  -8   31.82    1.84
  -3   6  -8   29.13    1.73
   3  -6   8   31.73    1.56
   3  -6   8   30.08    1.63
  -4   6  -8   47.17    2.61
  -4   6  -8   52.52    2.62
  -4   6  -8   46.71    2.43
  -4   6  -8   50.43    2.43
   4  -6   8   49.71    2.42
   4  -6   8   51.39    2.49
   4  -6   8   51.48    2.40
  -5   6  -8   29.27    1.60
   5  -6   8   26.21    1.48
   5  -6   8   29.14    1.40
   5  -6   8   25.70    1.39
  -6   6  -8    0.28    0.16
   6  -6   8    0.28    0.10
   4   5  -8    1.81    0.20
   4   5  -8    1.81    0.20
   3   5  -8   24.50    1.23
   3   5  -8   25.01    1.25
   2   5  -8   11.26    0.65
   2   5  -8   11.49    0.63
   2   5  -8   10.06    0.69
   1   5  -8   22.10    1.20
   1   5  -8   22.20    1.11
   1   5  -8   21.32    1.36
   1   5  -8   22.54    1.14
   1   5  -8   21.55    1.21
   1   5  -8   20.80    1.15
   0   5  -8    0.09    0.09
   0   5  -8    0.09    0.10
   0   5  -8    0.16    0.15
   0   5  -8    0.13    0.11
   0   5  -8    0.43    0.12
   0  -5   8   -0.09    0.10
  -1   5  -8    5.72    0.40
  -1   5  -8    6.01    0.53
  -1   5  -8    5.90    0.60
  -1   5  -8    6.14    0.41
  -1   5  -8    6.37    0.46
  -1   5  -8    7.04    0.51
   1  -5   8    5.82    0.46
  -2   5  -8   11.56    0.67
  -2   5  -8   11.68    0.84
  -2   5  -8   12.40    0.92
  -2   5  -8   12.01    0.76
  -2   5  -8   12.11    0.74
   2  -5   8   12.11    0.76
   2  -5   8   12.73    0.71
  -3   5  -8   19.78    1.23
  -3   5  -8   19.63    1.29
  -3   5  -8   20.71    1.12
  -3   5  -8   19.87    1.10
   3  -5   8   18.84    1.12
   3  -5   8   20.44    1.06
  -4   5  -8    0.14    0.12
  -4   5  -8    0.08    0.10
  -4   5  -8    0.05    0.16
  -4   5  -8    0.10    0.15
   4  -5   8    0.07    0.11
  -5   5  -8    5.69    0.55
   5  -5   8    5.74    0.41
   5  -5   8    5.15    0.47
  -6   5  -8   14.47    0.94
   6  -5   8   14.44    0.78
   6  -5   8   13.93    0.75
   7  -5   8   74.78    3.42
   5   4  -8    2.37    0.22
   5   4  -8    2.24    0.22
   4   4  -8  102.89    4.82
   4   4  -8  108.25    4.80
   3   4  -8  285.96   12.60
   3   4  -8  280.55   12.70
   3   4  -8  278.68   12.63
   2   4  -8  100.17    4.65
   2   4  -8  101.36    4.55
   2   4  -8   95.49    4.63
   2   4  -8  102.05    4.58
   1   4  -8    0.34    0.10
   1   4  -8    0.33    0.18
   1   4  -8    0.31    0.12
   1   4  -8    0.86    0.16
   1   4  -8    0.46    0.15
   1   4  -8    0.31    0.11
  -1  -4   8    0.22    0.12
   0   4  -8    5.99    0.45
   0   4  -8    5.85    0.40
   0   4  -8    6.34    0.45
   0   4  -8    6.45    0.40
   0   4  -8    6.34    0.59
   0   4  -8    5.97    0.47
   0  -4   8    6.63    0.46
   0  -4   8    6.40    0.47
  -1   4  -8   15.82    0.90
  -1   4  -8   19.23    0.86
  -1   4  -8   15.61    0.84
  -1   4  -8   17.65    0.95
  -1   4  -8   16.09    0.90
  -1   4  -8   16.36    1.07
  -1   4  -8   15.36    0.98
   1  -4   8   15.60    0.91
   1  -4   8   14.69    0.88
  -2   4  -8    0.16    0.14
  -2   4  -8    0.16    0.10
  -2   4  -8    0.22    0.11
  -2   4  -8    0.41    0.15
  -2   4  -8    0.02    0.13
   2  -4   8    0.09    0.09
   2  -4   8    0.14    0.07
   2  -4   8    0.18    0.10
  -3   4  -8   17.18    0.99
  -3   4  -8   16.36    0.93
  -3   4  -8   16.24    1.09
   3  -4   8   15.47    0.90
   3  -4   8   17.21    0.89
   3  -4   8   16.60    0.97
  -4   4  -8    7.75    0.54
  -4   4  -8    7.39    0.59
  -4   4  -8    8.37    0.73
  -4   4  -8    7.63    0.58
   4  -4   8    8.96    0.52
   4  -4   8    7.42    0.53
   4  -4   8    8.18    0.59
  -5   4  -8   70.47    3.34
  -5   4  -8   66.24    3.18
   5  -4   8   66.16    3.06
   5  -4   8   59.22    3.07
   5  -4   8   63.42    3.15
  -6   4  -8    0.90    0.22
  -6   4  -8    1.04    0.27
   6  -4   8    0.98    0.17
   6  -4   8    0.96    0.16
   7  -4   8    0.23    0.09
   7  -4   8    0.20    0.08
   5   3  -8    0.10    0.09
   5   3  -8    0.13    0.11
  -5  -3   8    0.08    0.36
   4   3  -8  120.24    5.64
   4   3  -8  130.03    5.56
   4   3  -8  117.11    5.57
   3   3  -8    0.44    0.15
   3   3  -8    0.92    0.19
   3   3  -8    0.54    0.12
   3   3  -8    0.53    0.13
  -3  -3   8    0.07    0.28
  -3  -3   8    0.46    0.17
   2   3  -8   48.80    2.14
   2   3  -8   43.73    2.20
   2   3  -8   43.28    2.36
   2   3  -8   47.14    2.16
   2   3  -8   46.51    2.23
  -2  -3   8   43.97    2.21
   1   3  -8   10.76    0.79
   1   3  -8   10.75    0.66
   1   3  -8   11.53    0.66
   1   3  -8   10.88    0.58
   1   3  -8   10.06    0.59
   1   3  -8   10.43    0.63
  -1  -3   8   10.74    0.65
   0   3  -8  208.52   10.22
   0   3  -8  242.20   10.35
   0   3  -8  235.71   10.24
   0   3  -8  232.44   10.31
   0   3  -8  233.47   10.50
   0   3  -8  221.29   10.30
   0  -3   8  234.24   10.33
   0  -3   8  223.37   10.32
  -1   3  -8   22.32    1.19
  -1   3  -8   24.87    1.39
  -1   3  -8   22.20    1.14
  -1   3  -8   22.82    1.39
   1  -3   8   22.92    1.20
   1  -3   8   25.27    1.24
  -2   3  -8   22.07    1.23
  -2   3  -8   23.34    1.37
   2  -3   8   23.50    1.20
   2  -3   8   24.69    1.25
   2  -3   8   22.89    1.16
  -3   3  -8    1.02    0.22
  -3   3  -8    0.93    0.40
  -3   3  -8    1.06    0.28
   3  -3   8    1.04    0.21
   3  -3   8    0.99    0.15
   3  -3   8    1.11    0.19
  -4   3  -8   13.83    0.83
  -4   3  -8   10.74    1.04
   4  -3   8   12.86    0.76
   4  -3   8   12.87    0.72
   4  -3   8   12.64    0.80
  -5   3  -8   21.47    1.44
  -5   3  -8   21.19    1.24
   5  -3   8   21.51    1.12
   5  -3   8   22.02    1.18
  -6   3  -8    0.65    0.19
  -6   3  -8    0.84    0.26
   6  -3   8    0.75    0.17
   6  -3   8    0.76    0.13
   6  -3   8    1.00    0.15
   7  -3   8   39.39    1.83
   6   2  -8    3.92    0.28
   6   2  -8    4.38    0.31
  -6  -2   8    3.60    0.64
   5   2  -8  270.93   12.04
   5   2  -8  272.54   12.13
   5   2  -8  262.82   12.01
   4   2  -8   44.48    2.10
   4   2  -8   45.90    2.20
   4   2  -8   45.89    2.23
   4   2  -8   44.42    2.12
  -4  -2   8   42.53    2.20
   3   2  -8  173.64    7.91
   3   2  -8  174.16    7.82
   3   2  -8  178.57    7.90
   3   2  -8  169.82    7.79
  -3  -2   8  172.73    7.90
   2   2  -8    4.17    0.29
   2   2  -8    4.56    0.36
   2   2  -8    4.70    0.47
   2   2  -8    4.21    0.28
   2   2  -8    4.49    0.33
  -2  -2   8    3.05    0.47
  -2  -2   8    4.60    0.35
   1   2  -8  103.96    4.70
   1   2  -8  103.55    4.62
   1   2  -8  103.13    4.70
   1   2  -8  107.47    4.68
   1   2  -8   86.61    4.60
   1   2  -8  110.91    4.93
  -1  -2   8  113.55    4.73
  -1  -2   8   89.34    4.77
   0   2  -8    6.15    0.43
   0   2  -8    6.49    0.60
   0   2  -8    6.97    0.40
   0  -2   8    8.20    0.48
   0  -2   8    6.65    0.46
  -1   2  -8   49.77    2.46
  -1   2  -8   42.82    2.21
   1  -2   8   45.87    2.19
   1  -2   8   49.25    2.25
   1  -2   8   43.04    2.14
  -2   2  -8   54.97    2.74
  -2   2  -8   54.70    2.57
   2  -2   8   52.45    2.54
   2  -2   8   50.82    2.50
   2  -2   8   51.76    2.45
  -3   2  -8   35.23    1.75
   3  -2   8   33.49    1.62
   3  -2   8   32.37    1.70
   3  -2   8   33.69    1.68
  -4   2  -8    1.91    0.27
   4  -2   8    1.82    0.21
   4  -2   8    1.89    0.23
  -5   2  -8    1.28    0.50
  -5   2  -8    2.19    0.30
   5  -2   8    2.32    0.23
   5  -2   8    2.06    0.26
   5  -2   8    2.28    0.23
  -6   2  -8   13.05    0.90
  -6   2  -8   14.40    0.86
   6  -2   8   14.23    0.73
   6  -2   8   13.45    0.73
   6  -2   8   13.83    0.80
   7   1  -8   20.48    1.11
  -7  -1   8   22.80    1.37
   6   1  -8   43.19    2.05
   6   1  -8   44.73    2.13
  -6  -1   8   41.30    2.14
   5   1  -8   50.54    2.38
   5   1  -8   48.20    2.46
   5   1  -8   49.32    2.34
   5   1  -8   52.82    2.48
  -5  -1   8   51.30    2.50
   4   1  -8   47.72    2.34
   4   1  -8   49.70    2.32
   4   1  -8   48.53    2.24
   4   1  -8   46.09    2.20
  -4  -1   8   45.74    2.33
   3   1  -8  145.28    6.55
   3   1  -8  139.01    6.44
   3   1  -8  146.79    6.52
   3   1  -8  138.75    6.43
  -3  -1   8  146.81    6.55
   2   1  -8    1.00    0.17
   2   1  -8    0.91    0.12
   2   1  -8    0.91    0.16
   2   1  -8    0.91    0.29
  -2  -1   8    0.83    0.25
  -2  -1   8    0.84    0.16
   1   1  -8    1.69    0.39
   1   1  -8    1.58    0.16
   1   1  -8    1.59    0.20
   1   1  -8    1.69    0.19
  -1  -1   8    2.12    0.62
  -1  -1   8    1.81    0.20
  -1  -1   8    1.56    0.24
  -1  -1   8    1.34    0.21
   0   1  -8   10.12    0.58
   0   1  -8    7.29    0.75
   0  -1   8   10.88    0.60
   0  -1   8    9.86    0.57
   0  -1   8    8.40    0.59
  -1   1  -8   28.56    1.89
  -1   1  -8   35.26    1.68
   1  -1   8   31.72    1.58
   1  -1   8   35.59    1.64
   1  -1   8   32.44    1.69
   1  -1   8   37.05    1.68
  -2   1  -8   71.50    3.24
  -2   1  -8   64.75    3.47
   2  -1   8   71.77    3.19
   2  -1   8   63.74    3.11
   2  -1   8   68.53    3.20
   2  -1   8   67.40    3.27
  -3   1  -8    6.81    0.49
   3  -1   8    5.49    0.38
   3  -1   8    5.33    0.49
   3  -1   8    5.97    0.44
  -4   1  -8   71.21    3.36
   4  -1   8   65.72    3.19
   4  -1   8   71.68    3.30
   4  -1   8   65.14    3.39
   4  -1   8   71.89    3.20
  -5   1  -8    7.69    0.58
   5  -1   8    7.17    0.53
   5  -1   8    7.32    0.46
  -6   1  -8  175.47    7.79
   6  -1   8  165.54    7.71
   6  -1   8  170.00    7.64
   7   0  -8   37.35    1.75
   7   0  -8   32.39    1.66
  -7   0   8   40.06    2.08
  -7   0   8   31.25    1.84
   6   0  -8   23.30    1.21
   6   0  -8   20.48    1.11
  -6   0   8   19.80    1.60
  -6   0   8   24.04    1.26
   5   0  -8   15.13    0.84
   5   0  -8   16.88    0.96
   5   0  -8   16.98    0.94
  -5   0   8   12.57    1.29
  -5   0   8   17.44    0.97
   4   0  -8   72.69    3.36
   4   0  -8   70.69    3.44
   4   0  -8   72.90    3.41
  -4   0   8   73.60    3.44
   3   0  -8   69.46    3.18
   3   0  -8   66.38    3.20
  -3   0   8   71.64    3.22
  -3   0   8   64.37    3.43
   2   0  -8   52.54    2.67
   2   0  -8   58.31    2.68
   2   0  -8   54.26    2.64
  -2   0   8   61.36    2.71
  -2   0   8   58.03    2.83
   1   0  -8   67.54    3.29
   1   0  -8   71.52    3.33
  -1   0   8   72.07    3.31
  -1   0   8   70.51    3.39
  -1   0   8   74.03    3.33
   0   0  -8  103.03    4.51
   0   0   8   94.87    4.54
   0   0   8   94.68    4.48
   0   0   8   97.42    4.46
  -1   0  -8   37.76    1.79
   1   0   8   32.89    1.74
   1   0   8   37.32    1.75
   1   0   8   35.35    1.83
  -2   0  -8    9.02    0.86
  -3   0  -8    3.59    0.36
   3   0   8    3.74    0.41
   3   0   8    3.71    0.28
   3   0   8    3.79    0.34
  -4   0  -8   34.87    1.85
   4   0   8   36.36    1.70
   4   0   8   36.49    1.81
   4   0   8   33.33    1.91
  -5   0  -8    5.28    0.45
   5   0   8    4.46    0.34
   5   0   8    4.53    0.39
   6   0   8    2.97    0.22
   6   0   8    3.04    0.26
   7  -1  -8   22.70    1.26
   7  -1  -8   26.25    1.36
  -7   1   8   29.78    1.67
  -7   1   8   26.91    1.41
   6  -1  -8   38.76    1.95
   6  -1  -8   44.59    2.08
   6  -1  -8   37.90    2.04
  -6   1   8   44.05    2.47
  -6   1   8   41.21    2.10
   5  -1  -8  162.25    7.61
   5  -1  -8  170.03    7.59
  -5   1   8  161.93    7.97
  -5   1   8  170.29    7.64
   4  -1  -8    5.02    0.38
   4  -1  -8    4.85    0.40
  -4   1   8    5.23    0.42
  -4   1   8    5.16    0.63
   3  -1  -8    0.50    0.13
   3  -1  -8    0.07    0.30
   3  -1  -8    0.60    0.14
   3  -1  -8    0.54    0.15
  -3   1   8    0.73    0.22
  -3   1   8    0.75    0.16
   2  -1  -8  121.89    5.66
   2  -1  -8  125.67    5.65
  -2   1   8  114.94    5.61
  -2   1   8  130.06    5.77
  -2   1   8  125.83    5.67
   1  -1  -8  518.78   24.47
   1  -1  -8  592.63   24.54
  -1   1   8  547.54   24.49
  -1   1   8  511.02   24.45
  -1   1   8  580.14   24.60
   0  -1  -8    0.34    0.25
   0  -1  -8    0.87    0.17
   0   1   8    1.34    0.18
   0   1   8    0.94    0.17
   0   1   8    1.09    0.22
  -1  -1  -8   50.29    2.37
   1   1   8   47.34    2.31
   1   1   8   47.46    2.43
  -2  -1  -8  160.33    7.37
   2   1   8  161.90    7.33
   2   1   8  154.42    7.46
   2   1   8  166.76    7.23
  -3  -1  -8   11.28    0.75
   3   1   8   11.13    0.83
   3   1   8   11.62    0.73
   3   1   8   11.72    0.64
  -4  -1  -8   62.79    3.01
   4   1   8   61.05    3.09
   4   1   8   53.44    2.85
   4   1   8   65.29    2.85
   4   1   8   64.41    2.96
  -5  -1  -8   28.39    1.56
   5   1   8   31.85    1.53
   5   1   8   31.10    1.45
   7  -2  -8  106.83    4.95
  -7   2   8  111.35    5.18
  -7   2   8  102.61    4.98
   6  -2  -8   32.35    1.77
   6  -2  -8   34.21    1.76
  -6   2   8   38.96    2.09
  -6   2   8   33.28    1.80
   5  -2  -8    2.45    0.31
   5  -2  -8    2.91    0.29
  -5   2   8    2.96    0.50
  -5   2   8    2.61    0.31
   4  -2  -8   45.44    2.27
   4  -2  -8   44.43    2.27
   4  -2  -8   44.80    2.21
  -4   2   8   48.46    2.45
  -4   2   8   46.92    2.28
   3  -2  -8   37.98    1.91
   3  -2  -8   39.78    1.93
  -3   2   8   37.67    1.90
  -3   2   8   37.96    2.01
   2  -2  -8   22.83    1.24
   2  -2  -8   24.70    1.27
  -2   2   8   24.90    1.34
  -2   2   8   23.03    1.23
   1  -2  -8   23.78    1.18
   1  -2  -8   19.21    1.10
  -1   2   8   21.89    1.22
  -1   2   8   21.07    1.12
   0  -2  -8   94.41    4.40
   0   2   8   94.02    4.35
   0   2   8   94.73    4.49
  -1  -2  -8    8.31    0.59
   1   2   8    8.20    0.66
   1   2   8   10.30    0.59
  -2  -2  -8    1.04    0.21
   2   2   8    0.91    0.24
   2   2   8    0.98    0.18
   2   2   8    1.05    0.21
  -3  -2  -8   28.63    1.52
   3   2   8   28.59    1.47
   3   2   8   29.08    1.64
   3   2   8   26.45    1.41
  -4  -2  -8    3.72    0.39
   4   2   8    4.73    0.36
   4   2   8    5.52    0.39
   8  -3  -8   33.07    1.72
   7  -3  -8   63.52    3.23
   7  -3  -8   72.80    3.27
  -7   3   8   69.33    3.30
  -7   3   8   69.79    3.39
   6  -3  -8   73.31    3.56
   6  -3  -8   75.04    3.54
  -6   3   8   77.32    3.73
  -6   3   8   73.17    3.58
   5  -3  -8    1.82    0.26
   5  -3  -8    1.34    0.26
   5  -3  -8    1.75    0.30
  -5   3   8    1.29    0.29
   4  -3  -8  133.40    6.11
   4  -3  -8  135.18    6.12
  -4   3   8  131.46    6.18
  -4   3   8  127.39    6.07
   3  -3  -8   42.40    2.08
   3  -3  -8   44.16    2.09
  -3   3   8   41.56    2.14
  -3   3   8   37.43    2.02
   2  -3  -8  112.03    5.30
   2  -3  -8  115.65    5.31
  -2   3   8  111.81    5.25
  -2   3   8  119.24    5.40
   1  -3  -8    0.50    0.15
   1  -3  -8    0.55    0.32
  -1   3   8    0.66    0.17
  -1   3   8    0.57    0.13
  -1   3   8    0.83    0.21
   0  -3  -8    2.14    0.26
   0   3   8    2.09    0.23
   0   3   8    2.40    0.33
   0   3   8    2.32    0.30
  -1  -3  -8   55.58    2.60
   1   3   8   52.24    2.54
   1   3   8   48.29    2.48
   1   3   8   54.76    2.74
  -2  -3  -8    1.60    0.28
   2   3   8    1.68    0.24
   2   3   8    1.79    0.31
   3   3   8   98.26    4.66
   3   3   8  105.84    4.90
   7  -4  -8    2.95    0.29
   7  -4  -8    2.78    0.30
  -7   4   8    2.65    0.31
   6  -4  -8   24.76    1.30
   6  -4  -8   22.95    1.35
   6  -4  -8   27.57    1.39
  -6   4   8   24.15    1.35
   5  -4  -8   25.28    1.34
   5  -4  -8   23.99    1.31
  -5   4   8   22.52    1.33
  -5   4   8   22.77    1.20
  -5   4   8   21.69    1.26
   4  -4  -8  179.82    7.88
   4  -4  -8  180.64    7.90
  -4   4   8  159.79    7.74
  -4   4   8  165.16    7.90
   3  -4  -8    2.59    0.30
   3  -4  -8    1.50    0.60
   3  -4  -8    2.52    0.32
  -3   4   8    2.50    0.33
  -3   4   8    2.83    0.28
   2  -4  -8    2.22    0.29
   2  -4  -8    2.09    0.59
   2  -4  -8    2.16    0.27
  -2   4   8    2.55    0.30
  -2   4   8    2.39    0.26
  -2   4   8    2.23    0.32
   1  -4  -8   20.23    1.13
  -1   4   8   20.19    1.10
  -1   4   8   20.76    1.24
  -1   4   8   19.16    1.05
   0  -4  -8   10.99    0.70
   0   4   8    9.93    0.68
   0   4   8    9.60    0.62
   0   4   8   10.64    0.79
   1   4   8   37.33    1.84
   1   4   8   34.92    1.79
   1   4   8   37.64    2.02
   2   4   8   10.03    0.63
   2   4   8   11.20    0.79
   7  -5  -8   38.13    1.79
   7  -5  -8   33.91    1.73
   6  -5  -8   49.43    2.37
   6  -5  -8   47.21    2.37
  -6   5   8   46.04    2.27
   5  -5  -8    7.34    0.58
   5  -5  -8    6.56    0.53
  -5   5   8    6.98    0.48
   4  -5  -8   38.97    1.99
   4  -5  -8   38.12    1.97
  -4   5   8   37.24    1.87
   3  -5  -8   19.83    1.15
   3  -5  -8   20.22    1.15
  -3   5   8   19.91    1.06
   2  -5  -8   57.65    2.88
   2  -5  -8   61.05    2.92
   2  -5  -8   51.20    3.46
  -2   5   8   62.45    2.84
  -2   5   8   62.61    2.85
  -2   5   8   62.58    3.00
   1  -5  -8   10.71    0.74
  -1   5   8   11.92    0.74
  -1   5   8   11.50    0.68
  -1   5   8   12.37    0.84
   0   5   8    5.43    0.40
   0   5   8    5.73    0.54
   0   5   8    5.82    0.50
   1   5   8    2.99    0.30
   1   5   8    3.44    0.39
  -2  -5  -8   -0.07    0.34
   2   5   8    1.09    0.25
   6  -6  -8   51.53    2.41
   6  -6  -8   49.19    2.41
  -6   6   8   47.06    2.33
   5  -6  -8    0.11    0.12
   5  -6  -8    0.19    0.14
  -5   6   8    0.26    0.11
   4  -6  -8    6.15    0.49
   4  -6  -8    5.57    0.48
  -4   6   8    5.28    0.41
   3  -6  -8   10.17    0.68
   3  -6  -8   10.46    0.70
  -3   6   8   10.03    0.62
   2  -6  -8    0.29    0.43
   2  -6  -8    0.78    0.20
  -2   6   8    1.11    0.23
  -2   6   8    0.87    0.16
  -1   6   8   53.61    2.50
  -1   6   8   50.52    2.45
   0  -6  -8    0.38    0.36
   0   6   8    1.45    0.19
   5  -7  -8   49.09    2.33
  -5   7   8   47.19    2.26
   4  -7  -8    6.85    0.47
   4  -7  -8    6.00    0.49
  -4   7   8    6.25    0.42
  -3   7   8    9.22    0.54
  -2   7   8   13.16    0.70
  -1   8  -9   45.66    2.22
  -1   8  -9   50.24    2.18
  -1   8  -9   46.56    2.25
   1  -8   9   43.81    2.17
  -2   8  -9   48.55    2.32
  -2   8  -9   48.94    2.34
   2  -8   9   47.87    2.27
  -3   8  -9   56.04    2.76
  -3   8  -9   52.95    2.66
  -3   8  -9   58.41    2.66
   3  -8   9   52.94    2.60
   3  -8   9   60.71    2.67
  -4   8  -9   23.66    1.27
  -4   8  -9   26.48    1.40
   4  -8   9   27.86    1.30
   4  -8   9   24.81    1.25
   1   7  -9    5.27    0.42
   1   7  -9    5.86    0.37
   1   7  -9    5.80    0.36
   0   7  -9    4.03    0.35
   0   7  -9    4.17    0.33
   0   7  -9    4.13    0.38
   0  -7   9    3.86    0.32
  -1   7  -9    2.60    0.27
  -1   7  -9    2.35    0.28
  -1   7  -9    2.72    0.40
  -1   7  -9    2.63    0.31
   1  -7   9    2.23    0.24
  -2   7  -9   19.03    1.03
  -2   7  -9   18.14    1.13
  -2   7  -9   18.65    1.06
  -2   7  -9   18.41    1.23
  -2   7  -9   18.94    0.97
   2  -7   9   18.76    0.98
   2  -7   9   16.44    1.02
  -3   7  -9   45.11    2.35
  -3   7  -9   45.83    2.44
  -3   7  -9   44.44    2.20
  -3   7  -9   42.56    2.22
   3  -7   9   44.63    2.16
   3  -7   9   47.51    2.26
  -4   7  -9    0.15    0.12
  -4   7  -9    0.02    0.09
  -4   7  -9    0.09    0.14
   4  -7   9    0.12    0.08
   4  -7   9    0.44    0.14
   4  -7   9    0.15    0.11
  -5   7  -9    5.95    0.51
   5  -7   9    6.15    0.47
   5  -7   9    6.06    0.39
   5  -7   9    5.64    0.40
   3   6  -9    0.41    0.11
   3   6  -9    0.41    0.12
   2   6  -9   78.67    3.54
   2   6  -9   80.84    3.56
   2   6  -9   71.87    3.61
   1   6  -9    0.58    0.18
   1   6  -9    0.77    0.25
   1   6  -9    0.42    0.15
   1   6  -9    0.71    0.17
   1   6  -9    0.55    0.15
   0   6  -9  287.64   12.90
   0   6  -9  289.10   12.88
   0   6  -9  290.15   13.25
   0   6  -9  289.25   13.03
   0   6  -9  283.16   12.97
  -1   6  -9  100.41    4.71
  -1   6  -9  107.85    4.81
  -1   6  -9  106.23    4.85
  -1   6  -9  103.03    5.06
   1  -6   9  104.00    4.74
   1  -6   9   95.93    4.79
  -2   6  -9  176.54    8.17
  -2   6  -9  181.59    8.25
  -2   6  -9  178.85    8.40
  -2   6  -9  182.13    8.53
  -2   6  -9  178.90    8.28
   2  -6   9  187.27    8.20
   2  -6   9  181.67    8.29
  -3   6  -9   11.96    0.93
  -3   6  -9   12.07    0.74
  -3   6  -9   11.69    0.76
  -3   6  -9   11.96    0.86
   3  -6   9   12.12    0.71
   3  -6   9   11.79    0.78
  -4   6  -9   38.29    1.92
  -4   6  -9   38.45    2.08
  -4   6  -9   35.79    2.09
  -4   6  -9   36.80    1.93
   4  -6   9   38.58    1.91
   4  -6   9   41.43    1.90
   4  -6   9   41.86    2.01
  -5   6  -9    3.04    0.39
   5  -6   9    3.21    0.28
   5  -6   9    3.14    0.34
  -6   6  -9   65.75    3.07
   6  -6   9   66.03    2.91
   6  -6   9   56.49    2.86
   4   5  -9    0.93    0.14
   4   5  -9    0.77    0.13
  -4  -5   9    0.53    0.23
   3   5  -9    0.04    0.11
   3   5  -9    0.18    0.10
   2   5  -9   11.66    0.76
   2   5  -9   12.50    0.71
   2   5  -9   13.45    0.71
   1   5  -9    0.84    0.17
   1   5  -9    0.93    0.20
   1   5  -9    1.55    0.34
   1   5  -9    0.76    0.18
   1   5  -9    0.89    0.21
   1   5  -9    1.02    0.18
  -1  -5   9    1.33    0.24
   0   5  -9   88.07    4.26
   0   5  -9   83.88    3.92
   0   5  -9   85.05    4.03
   0   5  -9   86.40    4.01
   0   5  -9   87.44    3.90
   0   5  -9   87.71    4.00
   0  -5   9   78.47    3.97
   0  -5   9   81.26    3.98
  -1   5  -9    0.04    0.10
  -1   5  -9    0.09    0.09
  -1   5  -9    0.15    0.16
  -1   5  -9    0.08    0.09
  -1   5  -9    0.05    0.13
   1  -5   9    0.16    0.11
   1  -5   9    0.06    0.10
  -2   5  -9   92.82    4.49
  -2   5  -9  101.68    4.85
  -2   5  -9  103.61    4.60
  -2   5  -9  104.29    4.63
  -2   5  -9   87.60    4.68
   2  -5   9   96.27    4.61
   2  -5   9  101.05    4.53
  -3   5  -9   66.24    3.43
  -3   5  -9   68.48    3.30
  -3   5  -9   67.17    3.51
  -3   5  -9   69.46    3.29
   3  -5   9   73.37    3.24
   3  -5   9   68.19    3.33
  -4   5  -9   13.01    0.80
  -4   5  -9   11.92    0.79
  -4   5  -9   13.92    0.95
   4  -5   9   13.96    0.86
   4  -5   9   13.81    0.76
  -5   5  -9   12.23    0.86
   5  -5   9   11.01    0.75
   5  -5   9   11.76    0.67
  -6   5  -9   80.49    3.84
   6  -5   9   78.69    3.64
   6  -5   9   80.62    3.67
   5   4  -9   24.66    1.16
   5   4  -9   22.92    1.15
   4   4  -9   26.21    1.28
   4   4  -9   25.83    1.29
   3   4  -9   36.16    1.82
   3   4  -9   34.90    1.74
   3   4  -9   35.91    1.72
   2   4  -9   63.72    2.99
   2   4  -9   60.66    3.42
   2   4  -9   62.00    2.90
   2   4  -9   60.71    2.97
   2   4  -9   62.34    2.88
   1   4  -9  213.29    9.71
   1   4  -9  220.73    9.71
   1   4  -9  214.68    9.61
   1   4  -9  212.36    9.67
   1   4  -9  215.47    9.59
   1   4  -9  221.38    9.95
  -1  -4   9  191.90    9.70
  -1  -4   9  220.22    9.71
   0   4  -9    2.89    0.31
   0   4  -9    3.52    0.31
   0   4  -9    2.74    0.40
   0   4  -9    2.78    0.29
   0   4  -9    2.85    0.25
   0   4  -9    2.69    0.24
   0  -4   9    2.57    0.29
   0  -4   9    2.59    0.30
  -1   4  -9   24.79    1.34
  -1   4  -9   24.63    1.45
  -1   4  -9   23.12    1.26
  -1   4  -9   27.21    1.57
  -1   4  -9   26.68    1.39
  -1   4  -9   27.08    1.37
   1  -4   9   27.77    1.39
   1  -4   9   25.83    1.34
  -2   4  -9   46.84    2.42
  -2   4  -9   46.51    2.27
  -2   4  -9   49.49    2.32
  -2   4  -9   47.65    2.49
  -2   4  -9   42.48    2.17
   2  -4   9   44.62    2.20
   2  -4   9   47.84    2.31
   2  -4   9   43.73    2.22
  -3   4  -9   61.63    3.13
  -3   4  -9   60.45    2.98
  -3   4  -9   58.83    3.11
  -3   4  -9   59.06    2.92
   3  -4   9   63.99    2.98
   3  -4   9   63.06    2.86
   3  -4   9   58.65    2.89
  -4   4  -9    4.07    0.41
  -4   4  -9    3.94    0.43
  -4   4  -9    5.21    0.56
  -4   4  -9    4.48    0.38
   4  -4   9    4.69    0.42
   4  -4   9    4.79    0.35
   4  -4   9    3.92    0.36
  -5   4  -9   11.67    0.77
  -5   4  -9   12.50    0.81
  -5   4  -9   13.46    0.93
   5  -4   9   13.56    0.72
   5  -4   9   11.54    0.78
   5  -4   9   12.58    0.75
  -6   4  -9    2.25    0.31
  -6   4  -9    2.23    0.32
   6  -4   9    2.19    0.21
   6  -4   9    2.48    0.22
   5   3  -9    7.66    0.45
   5   3  -9    7.25    0.45
  -5  -3   9    7.08    0.75
   4   3  -9   21.11    1.19
   4   3  -9   22.39    1.10
   4   3  -9   21.65    1.11
   3   3  -9   25.40    1.27
   3   3  -9   23.66    1.17
   3   3  -9   25.26    1.15
  -3  -3   9   18.98    1.42
  -3  -3   9   21.01    1.22
   2   3  -9  315.01   13.85
   2   3  -9  307.27   13.75
   2   3  -9  312.34   14.05
   2   3  -9  296.11   13.81
   2   3  -9  317.66   13.73
  -2  -3   9  297.58   13.83
   1   3  -9   24.71    1.27
   1   3  -9   22.22    1.18
   1   3  -9   25.12    1.28
   1   3  -9   23.98    1.25
   1   3  -9   24.57    1.46
   1   3  -9   23.70    1.18
  -1  -3   9   23.78    1.27
   0   3  -9   64.26    3.11
   0   3  -9   64.36    3.31
   0   3  -9   66.70    3.13
   0   3  -9   69.89    3.17
   0   3  -9   59.23    3.02
   0   3  -9   69.36    3.05
   0  -3   9   66.62    3.14
   0  -3   9   67.90    3.16
  -1   3  -9    7.77    0.69
  -1   3  -9    6.79    0.48
  -1   3  -9    7.55    0.64
   1  -3   9    7.53    0.52
   1  -3   9    7.14    0.49
  -2   3  -9  109.49    5.17
  -2   3  -9  102.87    4.98
   2  -3   9  113.77    5.01
   2  -3   9  103.38    4.93
   2  -3   9  107.25    4.89
  -3   3  -9    1.61    0.35
  -3   3  -9    1.55    0.49
  -3   3  -9    1.91    0.27
   3  -3   9    1.69    0.19
   3  -3   9    1.96    0.26
   3  -3   9    1.71    0.22
  -4   3  -9   36.89    2.41
  -4   3  -9   45.29    2.18
   4  -3   9   44.07    2.11
   4  -3   9   45.00    2.05
   4  -3   9   40.73    2.13
  -5   3  -9   28.83    1.66
  -5   3  -9   26.23    1.44
   5  -3   9   25.21    1.30
   5  -3   9   25.71    1.37
   5  -3   9   24.69    1.27
  -6   3  -9    7.55    0.55
  -6   3  -9    7.78    0.60
   6  -3   9    7.66    0.50
   6  -3   9    7.25    0.45
   6  -3   9    7.80    0.45
   6   2  -9   13.41    0.73
  -6  -2   9   15.12    1.06
   5   2  -9   19.20    1.01
   5   2  -9   19.62    1.09
   5   2  -9   20.60    1.10
   5   2  -9   18.17    0.98
  -5  -2   9   20.67    1.11
  -5  -2   9   20.32    1.47
   4   2  -9    2.03    0.21
   4   2  -9    1.86    0.27
   4   2  -9    2.06    0.25
   4   2  -9    2.19    0.25
  -4  -2   9    1.30    0.47
  -4  -2   9    1.68    0.28
   3   2  -9   68.06    3.14
   3   2  -9   68.75    3.11
   3   2  -9   62.21    3.02
   3   2  -9   64.92    3.00
  -3  -2   9   58.99    3.36
  -3  -2   9   68.74    3.13
   2   2  -9   23.04    1.20
   2   2  -9   22.71    1.10
   2   2  -9   22.55    1.37
   2   2  -9   20.85    1.10
   2   2  -9   23.41    1.18
  -2  -2   9   23.13    1.20
  -2  -2   9   21.33    1.33
   1   2  -9    4.26    0.48
   1   2  -9    3.84    0.32
   1   2  -9    3.57    0.27
   1   2  -9    3.81    0.34
  -1  -2   9    4.26    0.35
  -1  -2   9    3.30    0.37
  -1  -2   9    4.43    0.37
   0   2  -9    0.21    0.17
   0   2  -9    0.16    0.09
   0  -2   9    0.19    0.10
  -1   2  -9  120.31    5.63
  -1   2  -9  108.47    5.36
   1  -2   9  123.39    5.40
   1  -2   9  120.27    5.35
   1  -2   9  111.38    5.28
  -2   2  -9   32.18    1.80
  -2   2  -9   29.89    1.60
   2  -2   9   31.16    1.50
   2  -2   9   30.90    1.55
   2  -2   9   30.93    1.59
  -3   2  -9    6.30    0.52
   3  -2   9    6.83    0.47
   3  -2   9    6.40    0.41
   3  -2   9    6.35    0.48
  -4   2  -9   86.89    4.04
   4  -2   9   80.96    3.88
   4  -2   9   85.46    3.96
  -5   2  -9   13.64    0.84
  -5   2  -9   11.94    1.10
   5  -2   9   12.41    0.70
   5  -2   9   13.36    0.78
   5  -2   9   13.27    0.71
  -6   2  -9    0.38    0.21
   6  -2   9    0.55    0.11
   6  -2   9    0.47    0.12
   6   1  -9    1.07    0.19
   6   1  -9    0.87    0.16
  -6  -1   9    1.22    0.23
  -6  -1   9    1.24    0.41
   5   1  -9  163.93    7.70
   5   1  -9  178.16    7.83
   5   1  -9  175.26    7.79
  -5  -1   9  179.85    7.85
  -5  -1   9  156.59    8.17
   4   1  -9  132.54    6.32
   4   1  -9  137.81    6.36
   4   1  -9  151.15    6.46
   4   1  -9  147.96    6.49
  -4  -1   9  129.59    6.80
  -4  -1   9  144.96    6.49
   3   1  -9  129.43    5.69
   3   1  -9  111.53    5.55
   3   1  -9  127.16    5.66
  -3  -1   9  124.35    5.69
  -3  -1   9  124.63    5.94
   2   1  -9    4.22    0.32
   2   1  -9    4.42    0.55
   2   1  -9    4.07    0.29
   2   1  -9    4.35    0.34
  -2  -1   9    4.03    0.35
  -2  -1   9    4.02    0.43
   1   1  -9  243.23   11.13
   1   1  -9  241.07   10.75
   1   1  -9  209.29   10.73
  -1  -1   9  240.91   10.77
  -1  -1   9  263.31   10.80
  -1  -1   9  237.37   10.85
   0   1  -9  154.66    6.97
   0   1  -9  133.60    7.25
   0   1  -9  147.83    6.91
   0  -1   9  163.35    6.95
   0  -1   9  167.26    6.99
   0  -1   9  149.95    7.01
  -1   1  -9  499.17   24.51
  -1   1  -9  573.73   24.22
   1  -1   9  545.88   24.14
   1  -1   9  556.65   24.18
   1  -1   9  534.51   24.23
  -2   1  -9   18.08    1.00
  -2   1  -9   16.75    1.20
   2  -1   9   15.73    0.94
   2  -1   9   16.16    1.01
   2  -1   9   18.70    0.95
  -3   1  -9   71.51    3.30
   3  -1   9   69.11    3.23
   3  -1   9   63.11    3.32
  -4   1  -9   25.00    1.39
   4  -1   9   27.72    1.26
   4  -1   9   25.04    1.33
   4  -1   9   22.74    1.41
  -5   1  -9  161.41    7.44
   5  -1   9  159.86    7.37
   5  -1   9  164.12    7.28
   6  -1   9    2.82    0.22
   6  -1   9    2.94    0.26
   7   0  -9    1.47    0.21
  -7   0   9    1.62    0.34
   6   0  -9    0.15    0.12
   6   0  -9    0.23    0.11
   6   0  -9    0.76    0.17
  -6   0   9    0.10    0.30
  -6   0   9    0.47    0.16
   5   0  -9   31.88    1.63
   5   0  -9   31.62    1.65
  -5   0   9   31.20    1.98
  -5   0   9   31.79    1.67
   4   0  -9   65.72    3.18
   4   0  -9   64.99    3.22
  -4   0   9   68.24    3.52
  -4   0   9   70.26    3.25
   3   0  -9    0.35    0.12
   3   0  -9    0.28    0.28
  -3   0   9    0.55    0.23
  -3   0   9    0.32    0.12
   2   0  -9   23.71    1.30
   2   0  -9   25.68    1.30
  -2   0   9   26.98    1.33
  -2   0   9   24.57    1.41
  -2   0   9   25.77    1.32
   1   0  -9   31.91    1.61
   1   0  -9   29.67    1.56
  -1   0   9   31.76    1.68
  -1   0   9   32.11    1.58
  -1   0   9   34.36    1.62
   0   0  -9  111.29    5.02
   0   0   9  105.81    5.06
   0   0   9  109.63    5.00
   0   0   9  106.85    4.95
  -1   0  -9   21.75    1.11
   1   0   9   19.04    1.03
   1   0   9   18.16    1.03
   1   0   9   19.54    1.13
  -2   0  -9   -0.29    0.29
  -2   0  -9    0.28    0.13
  -2   0  -9   -0.11    0.20
   2   0   9    0.12    0.11
   2   0   9    0.09    0.09
  -3   0  -9    5.44    0.45
   3   0   9    3.61    0.44
   3   0   9    4.89    0.39
   3   0   9    3.91    0.31
  -4   0  -9    2.28    0.30
   4   0   9    2.56    0.28
   4   0   9    2.39    0.24
   4   0   9    2.28    0.33
  -5   0  -9   -0.08    0.38
  -5   0  -9    0.25    0.14
   5   0   9    0.44    0.11
   5   0   9    0.40    0.13
   7  -1  -9   12.83    0.78
  -7   1   9   14.64    0.98
  -7   1   9   14.55    0.85
   6  -1  -9   53.89    2.62
   6  -1  -9   51.04    2.62
  -6   1   9   57.52    2.94
  -6   1   9   54.17    2.68
   5  -1  -9   52.01    2.57
   5  -1  -9   50.41    2.52
  -5   1   9   54.39    2.86
  -5   1   9   51.74    2.59
   4  -1  -9    9.81    0.65
   4  -1  -9    9.83    0.62
  -4   1   9    9.91    0.66
  -4   1   9    9.88    0.83
   3  -1  -9  100.39    4.78
   3  -1  -9  106.38    4.78
  -3   1   9  106.19    4.80
  -3   1   9  111.08    4.96
  -3   1   9   91.62    4.73
   2  -1  -9   88.45    4.22
   2  -1  -9   89.16    4.19
  -2   1   9   92.59    4.32
  -2   1   9   97.48    4.23
  -2   1   9   84.91    4.16
   1  -1  -9  171.28    8.53
   1  -1  -9  206.38    8.63
  -1   1   9  201.23    8.70
  -1   1   9  183.72    8.53
  -1   1   9  185.07    8.58
   0  -1  -9   59.43    2.74
   0   1   9   52.70    2.64
   0   1   9   56.51    2.78
  -1  -1  -9   62.57    3.04
   1   1   9   62.32    3.12
   1   1   9   64.33    2.98
  -2  -1  -9   21.13    1.22
   2   1   9   21.71    1.11
   2   1   9   23.41    1.33
   2   1   9   22.29    1.18
  -3  -1  -9    3.55    0.37
   3   1   9    3.79    0.28
   3   1   9    3.21    0.41
   3   1   9    3.57    0.35
  -4  -1  -9   -0.03    0.49
   4   1   9    0.50    0.12
   4   1   9    0.52    0.15
   5   1   9    2.18    0.22
   7  -2  -9   41.19    2.03
  -7   2   9   42.10    2.08
  -7   2   9   41.41    2.18
   6  -2  -9    1.27    0.24
   6  -2  -9    1.91    0.27
  -6   2   9    1.72    0.27
  -6   2   9    1.54    0.36
   5  -2  -9   15.58    0.88
   5  -2  -9   15.40    0.92
  -5   2   9   14.03    0.92
  -5   2   9   16.23    1.10
   4  -2  -9    0.65    0.17
   4  -2  -9    1.45    0.25
   4  -2  -9    0.41    0.13
  -4   2   9    0.74    0.24
  -4   2   9    0.65    0.18
   3  -2  -9   27.38    1.41
   3  -2  -9   26.07    1.38
  -3   2   9   25.71    1.38
  -3   2   9   25.90    1.48
   2  -2  -9    0.06    0.29
   2  -2  -9    0.10    0.10
   2  -2  -9    0.12    0.09
  -2   2   9    0.10    0.10
  -2   2   9    0.06    0.09
   1  -2  -9   89.39    3.94
   1  -2  -9   73.83    3.95
  -1   2   9   85.71    4.00
   0  -2  -9   83.14    3.88
   0   2   9   80.51    3.96
  -1  -2  -9  134.62    6.07
   1   2   9  132.89    6.18
   1   2   9  125.20    5.97
  -2  -2  -9   78.60    3.86
   2   2   9   83.80    3.81
   2   2   9   81.06    3.99
  -3  -2  -9    7.14    0.55
   3   2   9    7.06    0.50
   3   2   9    7.29    0.61
  -4  -2  -9   -0.35    0.41
   7  -3  -9    0.32    0.13
   7  -3  -9    0.31    0.13
  -7   3   9    0.25    0.16
  -7   3   9    0.14    0.12
   6  -3  -9   32.12    1.69
   6  -3  -9   34.32    1.75
  -6   3   9   35.22    1.87
  -6   3   9   33.29    1.76
   5  -3  -9    0.69    0.19
   5  -3  -9    0.55    0.16
   5  -3  -9    0.78    0.20
  -5   3   9    0.78    0.24
  -5   3   9    0.64    0.19
   4  -3  -9  231.46   10.22
   4  -3  -9  230.78   10.24
  -4   3   9  216.98   10.18
  -4   3   9  219.38   10.30
   3  -3  -9    0.43    0.15
   3  -3  -9    0.28    0.43
   3  -3  -9    0.39    0.14
  -3   3   9    0.27    0.14
   2  -3  -9   17.50    1.02
   2  -3  -9   18.08    1.05
  -2   3   9   19.21    1.12
   1  -3  -9    3.39    0.34
  -1   3   9    3.58    0.40
   0  -3  -9   41.26    2.12
   0   3   9   42.70    2.23
  -1  -3  -9    5.19    0.45
   1   3   9    5.53    0.53
  -2  -3  -9   41.12    2.11
   2   3   9   43.19    2.25
  -3  -3  -9   -0.35    0.41
   7  -4  -9    9.85    0.58
   7  -4  -9    9.13    0.59
   6  -4  -9   92.87    4.07
  -6   4   9   85.36    4.12
  -6   4   9   79.93    4.04
   5  -4  -9   21.18    1.24
   5  -4  -9   24.76    1.28
  -5   4   9   20.63    1.27
   4  -4  -9   21.28    1.20
   4  -4  -9   20.31    1.19
  -4   4   9   20.33    1.21
   3  -4  -9   59.03    2.85
   3  -4  -9   57.45    2.85
  -3   4   9   57.90    2.90
   2  -4  -9  445.25   19.46
   2  -4  -9  412.36   19.39
  -2   4   9  442.46   19.54
   1  -4  -9   13.88    0.84
  -1   4   9   11.65    0.73
  -1   4   9   14.33    0.93
  -1   4   9   13.33    0.81
   0  -4  -9   25.84    1.37
   0   4   9   22.56    1.24
   0   4   9   26.71    1.48
  -1  -4  -9   -0.20    0.25
  -1  -4  -9    0.09    0.13
   1   4   9    0.44    0.18
   1   4   9    0.30    0.12
   2   4   9   19.74    1.10
   2   4   9   24.74    1.30
   7  -5  -9   14.09    0.79
   6  -5  -9   13.35    0.78
   6  -5  -9   11.54    0.76
   5  -5  -9  102.92    4.68
   5  -5  -9   96.22    4.67
   4  -5  -9    1.92    0.27
   4  -5  -9    1.21    0.70
   4  -5  -9    2.14    0.30
  -4   5   9    1.88    0.24
   3  -5  -9   37.10    1.83
   3  -5  -9   35.55    1.80
  -3   5   9   33.12    1.70
  -3   5   9   33.54    1.83
   2  -5  -9    0.09    0.10
   2  -5  -9   -0.13    0.39
  -2   5   9    0.18    0.15
  -2   5   9    0.19    0.11
   1  -5  -9   91.30    4.66
  -1   5   9  107.81    4.78
  -1   5   9  100.01    4.57
   0  -5  -9    0.97    0.42
   1   5   9   17.65    0.98
   1   5   9   15.06    0.84
   6  -6  -9   30.98    1.56
   5  -6  -9   62.70    2.91
   5  -6  -9   61.72    2.93
  -5   6   9   57.41    2.98
   4  -6  -9   49.49    2.34
   4  -6  -9   48.44    2.30
  -4   6   9   42.40    2.20
   3  -6  -9    6.38    0.49
   3  -6  -9    5.47    0.44
  -3   6   9    5.89    0.41
  -2   6   9   27.57    1.36
  -1   6   9    7.91    0.47
   0  -6  -9    1.91    0.54
   3  -7  -9    7.39    0.97
  -2   8 -10    4.83    0.37
  -2   8 -10    4.86    0.35
   2  -8  10    4.74    0.32
  -3   8 -10    0.50    0.12
   3  -8  10    0.44    0.10
   3  -8  10    0.48    0.12
   1   7 -10    1.37    0.24
   1   7 -10    1.40    0.18
  -1  -7  10    1.39    0.18
   0   7 -10    0.63    0.15
   0   7 -10    0.76    0.19
   0   7 -10    0.71    0.14
   0  -7  10    0.50    0.12
  -1   7 -10   18.18    1.04
  -1   7 -10   18.75    1.20
  -1   7 -10   18.19    1.01
  -1   7 -10   19.23    0.96
   1  -7  10   17.03    0.95
  -2   7 -10   19.21    1.23
  -2   7 -10   19.42    1.07
  -2   7 -10   19.73    1.04
  -2   7 -10   17.92    1.11
   2  -7  10   19.71    1.00
   2  -7  10   17.74    1.05
  -3   7 -10   36.68    1.78
  -3   7 -10   35.02    1.80
  -3   7 -10   35.85    1.90
  -3   7 -10   35.74    1.98
   3  -7  10   35.62    1.82
   3  -7  10   36.44    1.74
   3  -7  10   35.20    1.76
  -4   7 -10    0.56    0.16
  -4   7 -10    0.53    0.18
  -4   7 -10    0.50    0.14
   4  -7  10    0.64    0.15
   4  -7  10    0.51    0.12
   4  -7  10    0.67    0.17
  -5   7 -10   23.11    1.30
   5  -7  10   24.59    1.18
   2   6 -10   27.53    1.54
   2   6 -10   32.57    1.51
   2   6 -10   33.78    1.50
   1   6 -10    0.13    0.13
   1   6 -10    0.20    0.16
   1   6 -10    0.34    0.13
   1   6 -10    0.22    0.14
   1   6 -10    0.05    0.11
   0   6 -10    2.72    0.33
   0   6 -10    2.94    0.28
   0   6 -10    2.98    0.44
   0   6 -10    3.13    0.32
  -1   6 -10   50.61    2.37
  -1   6 -10   52.72    2.51
  -1   6 -10   50.99    2.45
  -1   6 -10   49.18    2.69
   1  -6  10   46.88    2.44
   1  -6  10   48.72    2.39
  -2   6 -10   10.49    0.78
  -2   6 -10    9.74    0.84
  -2   6 -10   10.16    0.68
  -2   6 -10   10.06    0.70
   2  -6  10   11.79    0.66
   2  -6  10   11.72    0.73
  -3   6 -10  169.68    7.71
  -3   6 -10  165.63    7.95
  -3   6 -10  171.84    7.86
  -3   6 -10  167.77    7.73
   3  -6  10  169.68    7.66
   3  -6  10  169.49    7.76
  -4   6 -10   42.33    2.08
  -4   6 -10   41.16    2.10
  -4   6 -10   38.98    2.23
  -4   6 -10   44.80    2.25
   4  -6  10   45.53    2.06
   4  -6  10   42.55    2.14
  -5   6 -10    1.22    0.26
   5  -6  10    1.28    0.17
   5  -6  10    1.26    0.23
   3   5 -10    5.27    0.37
   3   5 -10    5.73    0.38
   2   5 -10    1.24    0.19
   2   5 -10    1.47    0.21
   2   5 -10    1.08    0.22
  -2  -5  10    1.10    0.24
   1   5 -10   38.75    1.94
   1   5 -10   39.73    1.85
   1   5 -10   38.32    1.85
   1   5 -10   40.12    2.17
   1   5 -10   38.50    1.96
   1   5 -10   36.81    1.90
  -1  -5  10   34.90    1.91
   0   5 -10   34.28    1.96
   0   5 -10   35.12    1.72
   0   5 -10   34.47    1.76
   0   5 -10   32.03    1.62
   0   5 -10   32.67    1.62
   0  -5  10   32.36    1.71
   0  -5  10   31.86    1.69
  -1   5 -10    3.52    0.42
  -1   5 -10    3.90    0.38
  -1   5 -10    3.73    0.36
  -1   5 -10    3.70    0.49
  -1   5 -10    3.54    0.30
   1  -5  10    3.64    0.36
   1  -5  10    3.31    0.32
   1  -5  10    3.74    0.32
  -2   5 -10  333.58   15.32
  -2   5 -10  328.50   15.44
  -2   5 -10  358.46   15.24
  -2   5 -10  346.54   15.20
   2  -5  10  296.30   15.11
   2  -5  10  355.61   15.13
   2  -5  10  344.96   15.23
  -3   5 -10    1.32    0.23
  -3   5 -10    1.27    0.24
  -3   5 -10    1.41    0.36
  -3   5 -10    1.46    0.33
   3  -5  10    1.33    0.26
   3  -5  10    1.13    0.19
  -4   5 -10  101.55    4.95
  -4   5 -10  108.95    5.12
  -4   5 -10  103.20    4.94
   4  -5  10  108.85    4.89
   4  -5  10  110.77    5.01
  -5   5 -10    3.04    0.38
   5  -5  10    3.05    0.33
   5  -5  10    2.77    0.26
  -6   5 -10  107.88    4.98
   6  -5  10  106.75    4.83
   6  -5  10  105.12    4.81
   4   4 -10    6.25    0.41
   4   4 -10    6.53    0.41
   3   4 -10  175.09    7.80
   3   4 -10  168.69    7.81
   3   4 -10  175.88    7.91
   2   4 -10   57.42    3.07
   2   4 -10   63.87    2.80
   2   4 -10   57.71    2.88
   2   4 -10   61.05    2.90
   2   4 -10   59.71    2.80
  -2  -4  10   58.78    2.89
   1   4 -10    5.48    0.44
   1   4 -10    5.06    0.42
   1   4 -10    4.67    0.55
   1   4 -10    5.55    0.36
   1   4 -10    4.63    0.40
   1   4 -10    5.10    0.36
  -1  -4  10    3.83    0.40
  -1  -4  10    4.57    0.41
   0   4 -10   16.65    0.95
   0   4 -10   15.69    0.90
   0   4 -10   14.60    0.81
   0   4 -10   15.32    0.82
   0   4 -10   16.14    0.92
   0   4 -10   15.17    1.09
   0  -4  10   15.08    0.91
   0  -4  10   14.84    0.90
  -1   4 -10   94.20    4.44
  -1   4 -10   91.44    4.56
  -1   4 -10   95.58    4.71
  -1   4 -10   99.18    4.51
  -1   4 -10   98.42    4.48
  -1   4 -10   88.78    4.35
   1  -4  10   98.12    4.50
   1  -4  10   97.88    4.41
   1  -4  10   96.38    4.45
  -2   4 -10   11.86    0.74
  -2   4 -10   11.94    0.78
  -2   4 -10   11.18    0.84
  -2   4 -10   11.88    0.91
   2  -4  10   11.57    0.68
   2  -4  10   11.27    0.70
   2  -4  10   12.31    0.78
  -3   4 -10   60.37    2.94
  -3   4 -10   61.11    2.99
  -3   4 -10   64.61    3.15
  -3   4 -10   58.56    3.13
   3  -4  10   62.17    2.87
   3  -4  10   62.01    2.99
   3  -4  10   58.21    2.90
  -4   4 -10   14.66    0.98
  -4   4 -10   12.66    0.82
  -4   4 -10   12.13    0.77
   4  -4  10   12.06    0.75
   4  -4  10   12.22    0.81
   4  -4  10   13.01    0.72
  -5   4 -10   10.45    0.76
  -5   4 -10    8.24    0.62
  -5   4 -10    8.87    0.60
   5  -4  10    9.07    0.58
   5  -4  10    9.51    0.55
  -6   4 -10    1.55    0.25
   6  -4  10    1.32    0.15
   6  -4  10    1.24    0.15
   5   3 -10    0.96    0.15
   5   3 -10    1.25    0.16
  -5  -3  10    0.73    0.27
   4   3 -10   35.86    1.77
   4   3 -10   36.73    1.67
   4   3 -10   34.93    1.67
  -4  -3  10   30.85    1.91
   3   3 -10   90.40    4.10
   3   3 -10   84.37    4.10
   3   3 -10   93.50    4.23
  -3  -3  10   89.56    4.21
   2   3 -10  193.17    9.08
   2   3 -10  187.14    8.75
   2   3 -10  197.04    8.74
   2   3 -10  202.09    8.86
  -2  -3  10  194.03    8.86
   1   3 -10   16.63    0.95
   1   3 -10   14.65    0.85
   1   3 -10   17.03    0.95
   1   3 -10   16.96    0.87
   1   3 -10   17.29    0.98
   1   3 -10   17.45    1.16
  -1  -3  10   17.62    0.98
  -1  -3  10   16.68    0.98
   0   3 -10  188.71    8.48
   0   3 -10  177.26    8.42
   0   3 -10  186.89    8.45
   0   3 -10  179.99    8.66
   0  -3  10  191.75    8.48
   0  -3  10  189.52    8.45
  -1   3 -10   57.36    3.01
  -1   3 -10   62.27    3.26
  -1   3 -10   64.66    3.15
  -1   3 -10   65.76    3.30
   1  -3  10   63.97    3.06
   1  -3  10   66.73    3.01
   1  -3  10   70.25    3.12
  -2   3 -10   28.80    1.95
  -2   3 -10   35.62    1.93
  -2   3 -10   31.38    1.72
   2  -3  10   35.15    1.65
   2  -3  10   36.60    1.77
   2  -3  10   34.85    1.70
  -3   3 -10   41.95    2.64
  -3   3 -10   46.04    2.52
  -3   3 -10   49.44    2.40
   3  -3  10   48.51    2.27
   3  -3  10   49.37    2.39
   3  -3  10   51.04    2.35
  -4   3 -10   27.47    1.73
  -4   3 -10   25.70    1.44
   4  -3  10   26.38    1.37
   4  -3  10   27.57    1.32
   4  -3  10   24.70    1.39
  -5   3 -10   26.06    1.50
  -5   3 -10   23.47    1.32
   5  -3  10   22.81    1.19
   5  -3  10   24.12    1.26
   5  -3  10   23.54    1.18
  -6   3 -10   14.54    0.87
   6  -3  10   14.81    0.74
   6  -3  10   14.26    0.78
   5   2 -10    0.47    0.12
   5   2 -10    0.27    0.12
   5   2 -10    0.31    0.13
   5   2 -10    0.32    0.12
  -5  -2  10    0.17    0.15
  -5  -2  10    0.36    0.27
   4   2 -10   13.53    0.78
   4   2 -10   12.09    0.70
   4   2 -10   13.58    0.81
   4   2 -10   12.76    0.69
  -4  -2  10   12.12    0.79
  -4  -2  10   12.88    1.02
   3   2 -10   17.65    0.95
   3   2 -10   16.67    0.95
   3   2 -10   19.62    1.07
   3   2 -10   19.17    1.04
  -3  -2  10   20.52    1.08
  -3  -2  10   18.83    1.24
   2   2 -10   29.79    1.50
   2   2 -10   28.87    1.40
   2   2 -10   29.33    1.71
  -2  -2  10   27.07    1.60
  -2  -2  10   29.77    1.51
   1   2 -10    3.28    0.31
   1   2 -10    3.33    0.46
   1   2 -10    3.49    0.34
   1   2 -10    3.33    0.26
  -1  -2  10    4.07    0.35
  -1  -2  10    3.06    0.33
  -1  -2  10    3.10    0.35
   0   2 -10   47.52    2.59
   0   2 -10   45.63    2.31
   0  -2  10   50.86    2.39
   0  -2  10   48.84    2.34
  -1   2 -10   17.61    1.16
  -1   2 -10   14.94    0.91
   1  -2  10   16.57    0.90
   1  -2  10   15.61    0.93
   1  -2  10   15.46    0.83
  -2   2 -10    4.10    0.51
  -2   2 -10    4.18    0.39
   2  -2  10    4.27    0.38
   2  -2  10    4.03    0.30
   2  -2  10    4.04    0.34
  -3   2 -10   14.45    0.89
   3  -2  10   13.08    0.82
   3  -2  10   14.32    0.81
   3  -2  10   12.66    0.73
  -4   2 -10   17.92    1.05
   4  -2  10   17.65    0.97
   4  -2  10   16.11    0.88
  -5   2 -10   15.87    1.17
  -5   2 -10   15.66    0.94
   5  -2  10   15.74    0.89
   5  -2  10   15.93    0.82
   6  -2  10   17.18    0.93
   6  -2  10   17.91    0.86
   6   1 -10   28.29    1.45
  -6  -1  10   27.25    1.47
  -6  -1  10   30.94    1.69
   5   1 -10    7.11    0.49
   5   1 -10    6.86    0.52
  -5  -1  10    6.23    0.52
  -5  -1  10    6.72    0.73
   4   1 -10   27.34    1.43
   4   1 -10   28.19    1.47
  -4  -1  10   26.83    1.69
  -4  -1  10   27.34    1.47
   3   1 -10   11.07    0.70
   3   1 -10   10.37    0.66
  -3  -1  10   11.39    0.86
  -3  -1  10   11.18    0.71
   2   1 -10    5.15    0.61
   2   1 -10    4.55    0.36
   2   1 -10    5.04    0.39
   2   1 -10    4.03    0.31
  -2  -1  10    5.42    0.48
  -2  -1  10    4.70    0.40
  -2  -1  10    4.94    0.42
   1   1 -10  115.88    5.84
   1   1 -10  107.06    5.48
   1   1 -10  122.37    5.48
  -1  -1  10  126.98    5.54
  -1  -1  10  125.52    5.51
  -1  -1  10  119.28    5.59
   0   1 -10    2.77    0.49
   0   1 -10    2.91    0.30
   0   1 -10    2.74    0.27
   0  -1  10    3.03    0.28
   0  -1  10    2.64    0.30
   0  -1  10    2.87    0.32
  -1   1 -10  270.01   12.31
  -1   1 -10  267.37   11.94
   1  -1  10  268.57   11.91
   1  -1  10  252.02   11.96
   1  -1  10  262.79   11.87
  -2   1 -10   16.19    0.94
  -2   1 -10   16.00    1.15
   2  -1  10   13.74    0.87
   2  -1  10   15.77    0.88
   2  -1  10   14.99    0.96
  -3   1 -10  138.64    6.25
   3  -1  10  141.04    6.17
   3  -1  10  122.76    6.25
  -4   1 -10    2.13    0.29
  -4   1 -10    1.00    0.57
   4  -1  10    2.03    0.25
   4  -1  10    2.10    0.22
  -5   1 -10   47.02    2.31
   5  -1  10   46.36    2.24
   6   0 -10   17.24    0.98
   6   0 -10   16.66    0.99
  -6   0  10   19.38    1.23
  -6   0  10   18.91    1.05
   5   0 -10   16.98    0.99
   5   0 -10   18.41    1.04
  -5   0  10   17.73    1.05
  -5   0  10   18.56    1.27
   4   0 -10   19.47    1.10
   4   0 -10   20.26    1.14
  -4   0  10   21.69    1.37
  -4   0  10   20.78    1.17
   3   0 -10   51.16    2.75
   3   0 -10   50.20    2.41
   3   0 -10   45.31    2.34
  -3   0  10   50.63    2.43
  -3   0  10   48.01    2.41
  -3   0  10   49.69    2.57
   2   0 -10    1.12    0.19
   2   0 -10    1.19    0.43
   2   0 -10    1.24    0.21
  -2   0  10    1.16    0.21
  -2   0  10    1.37    0.27
   1   0 -10  148.53    6.92
   1   0 -10  149.97    6.97
  -1   0  10  157.38    6.98
  -1   0  10  149.86    6.92
  -1   0  10  155.85    7.06
   0   0 -10   41.54    2.00
   0   0  10   38.82    1.96
   0   0  10   37.98    1.91
   0   0  10   39.00    2.03
  -1   0 -10  118.59    5.43
   1   0  10  114.66    5.47
   1   0  10  115.69    5.34
  -2   0 -10    2.89    0.54
  -2   0 -10    2.82    0.32
   2   0  10    2.90    0.29
   2   0  10    2.92    0.36
  -3   0 -10  122.87    5.77
   3   0  10  119.46    5.83
   3   0  10  128.74    5.60
   3   0  10  123.59    5.70
  -4   0 -10    0.32    0.53
  -4   0 -10    0.77    0.18
   4   0  10    0.28    0.11
   4   0  10    0.33    0.12
   4   0  10    0.45    0.17
   5   0  10   30.06    1.49
   5   0  10   33.69    1.57
   7  -1 -10   18.98    1.02
  -7   1  10   20.25    1.16
   6  -1 -10    1.17    0.22
   6  -1 -10    1.24    0.22
  -6   1  10    0.58    0.18
  -6   1  10    0.90    0.28
   5  -1 -10    1.04    0.22
   5  -1 -10    1.36    0.24
  -5   1  10    1.33    0.26
  -5   1  10    1.60    0.37
   4  -1 -10   33.92    1.74
   4  -1 -10   32.36    1.68
  -4   1  10   34.95    1.92
  -4   1  10   34.14    1.77
   3  -1 -10    3.81    0.75
   3  -1 -10    5.74    0.44
   3  -1 -10    5.49    0.44
  -3   1  10    5.47    0.43
  -3   1  10    5.75    0.45
  -3   1  10    5.37    0.52
   2  -1 -10   94.17    4.42
   2  -1 -10   94.44    4.37
  -2   1  10   89.70    4.33
  -2   1  10   93.33    4.40
  -2   1  10   99.23    4.52
   1  -1 -10    2.21    0.25
   1  -1 -10    2.61    0.29
  -1   1  10    2.77    0.26
  -1   1  10    2.47    0.32
  -1   1  10    2.41    0.28
   0  -1 -10   50.93    2.47
   0   1  10   50.14    2.52
   0   1  10   48.00    2.37
  -1  -1 -10    1.68    0.28
   1   1  10    1.73    0.23
   1   1  10    1.33    0.27
  -2  -1 -10  102.31    4.71
   2   1  10   96.73    4.78
   2   1  10  100.80    4.64
  -3  -1 -10   11.90    0.78
   3   1  10   11.90    0.72
   3   1  10   11.88    0.83
  -4  -1 -10   33.27    1.71
   4   1  10   33.58    1.65
   7  -2 -10   13.63    0.84
   7  -2 -10   17.17    0.87
  -7   2  10   17.12    0.99
   6  -2 -10   13.99    0.85
   6  -2 -10   13.93    0.83
  -6   2  10   14.09    0.88
  -6   2  10   15.68    1.01
   5  -2 -10    1.88    0.25
   5  -2 -10    1.84    0.28
  -5   2  10    1.88    0.27
  -5   2  10    2.14    0.36
   4  -2 -10    8.13    0.57
   4  -2 -10    7.31    0.57
  -4   2  10    8.39    0.59
  -4   2  10    7.74    0.66
   3  -2 -10   20.45    1.13
   3  -2 -10   19.12    1.09
  -3   2  10   18.83    1.09
  -3   2  10   19.47    1.19
   2  -2 -10   10.66    0.68
   2  -2 -10    9.83    0.63
  -2   2  10    9.27    0.63
  -2   2  10    9.96    0.73
   1  -2 -10   44.80    2.25
  -1   2  10   44.67    2.32
   0  -2 -10   -0.02    0.26
   0  -2 -10    0.31    0.13
   0   2  10    0.51    0.18
  -1  -2 -10   84.27    3.95
   1   2  10   78.36    3.84
   1   2  10   85.46    4.05
  -2  -2 -10   73.70    3.51
   2   2  10   71.62    3.42
   2   2  10   73.66    3.62
  -3  -2 -10   56.92    2.70
   3   2  10   53.04    2.61
   3   2  10   55.80    2.77
   7  -3 -10   15.70    0.89
   7  -3 -10   16.43    0.87
  -7   3  10   17.55    0.98
   6  -3 -10   10.30    0.66
   6  -3 -10    8.71    0.60
  -6   3  10   10.61    0.75
  -6   3  10   10.66    0.68
   5  -3 -10   43.15    2.05
   5  -3 -10   36.34    2.02
  -5   3  10   37.45    2.02
  -5   3  10   43.10    2.16
   4  -3 -10   16.43    0.98
   4  -3 -10   16.54    0.97
  -4   3  10   14.89    0.93
  -4   3  10   16.47    1.04
   3  -3 -10    9.42    0.66
   3  -3 -10    9.00    0.63
  -3   3  10    8.87    0.69
   2  -3 -10    8.64    0.61
   2  -3 -10    7.82    0.56
  -2   3  10    8.48    0.65
   1  -3 -10   14.28    0.90
  -1   3  10   15.20    0.98
   0  -3 -10    0.26    0.13
   0  -3 -10   -0.22    0.25
   0   3  10    0.35    0.16
  -1  -3 -10    6.95    0.53
   1   3  10    6.76    0.59
  -2  -3 -10    2.13    0.29
   2   3  10    2.93    0.35
  -3  -3 -10    0.14    0.43
   7  -4 -10    6.35    0.44
   6  -4 -10   18.33    0.99
  -6   4  10   16.34    1.01
   5  -4 -10   21.78    1.25
   5  -4 -10   23.51    1.25
  -5   4  10   21.76    1.27
   4  -4 -10   75.36    3.46
   4  -4 -10   70.82    3.46
  -4   4  10   69.44    3.49
   3  -4 -10    0.12    0.11
   3  -4 -10    0.23    0.58
   3  -4 -10    0.09    0.11
  -3   4  10    0.10    0.11
   2  -4 -10   12.31    0.80
  -2   4  10   12.95    0.87
   1  -4 -10    1.44    0.25
   1  -4 -10    0.29    0.40
   0  -4 -10  198.23    9.25
   0   4  10  208.03    9.36
  -1  -4 -10   30.62    1.57
  -2  -4 -10    0.00    0.41
   6  -5 -10   50.70    2.44
   5  -5 -10   14.19    0.82
   5  -5 -10   12.46    0.81
   4  -5 -10    4.64    0.42
   4  -5 -10    4.53    0.40
   3  -5 -10   93.59    4.46
   3  -5 -10  102.26    4.54
  -3   5  10   92.80    4.54
   2  -5 -10   43.59    2.12
  -2   5  10   39.69    2.12
   1  -5 -10   53.52    2.88
  -1   5  10   66.61    2.98
   0  -5 -10   34.94    2.13
   5  -6 -10   32.02    1.59
   4  -6 -10   22.81    1.21
   4  -6 -10   24.56    1.27
   3  -6 -10   17.39    0.99
   2  -6 -10    0.74    0.51
   0   7 -11   26.01    1.25
   0   7 -11   23.97    1.28
   0   7 -11   25.90    1.33
   0  -7  11   27.10    1.27
  -1   7 -11   13.99    0.94
  -1   7 -11   13.56    0.73
  -1   7 -11   14.19    0.82
  -1   7 -11   13.28    0.78
   1  -7  11   13.89    0.74
  -2   7 -11    0.44    0.12
  -2   7 -11    0.50    0.15
  -2   7 -11    0.38    0.18
   2  -7  11    0.29    0.10
   2  -7  11    0.36    0.15
  -3   7 -11    3.14    0.29
  -3   7 -11    3.43    0.36
  -3   7 -11    3.33    0.40
  -3   7 -11    2.94    0.30
   3  -7  11    3.23    0.28
   3  -7  11    3.83    0.28
   3  -7  11    4.09    0.34
  -4   7 -11    3.32    0.34
  -4   7 -11    3.00    0.27
   4  -7  11    3.43    0.26
   2   6 -11    0.12    0.10
   2   6 -11    0.17    0.09
   1   6 -11   20.40    1.13
   1   6 -11   21.31    1.04
   1   6 -11   20.24    1.25
   0   6 -11   19.64    1.05
   0   6 -11   18.80    1.24
   0   6 -11   18.01    0.98
   0   6 -11   19.61    1.10
   0  -6  11   19.43    1.01
  -1   6 -11    2.60    0.28
  -1   6 -11    2.49    0.30
  -1   6 -11    2.45    0.39
  -1   6 -11    2.02    0.24
   1  -6  11    2.79    0.31
   1  -6  11    2.26    0.24
  -2   6 -11   15.32    1.08
  -2   6 -11   15.86    0.89
  -2   6 -11   15.76    0.92
  -2   6 -11   13.89    0.95
   2  -6  11   16.13    0.85
   2  -6  11   15.11    0.92
  -3   6 -11    0.60    0.17
  -3   6 -11    0.49    0.21
  -3   6 -11    0.57    0.14
  -3   6 -11    0.55    0.20
   3  -6  11    0.74    0.15
   3  -6  11    0.92    0.22
  -4   6 -11    4.11    0.42
  -4   6 -11    4.08    0.34
  -4   6 -11    4.31    0.36
   4  -6  11    3.91    0.36
   4  -6  11    4.45    0.32
  -5   6 -11    0.11    0.11
   5  -6  11    0.05    0.07
   3   5 -11   23.50    1.09
   3   5 -11   20.81    1.08
  -3  -5  11   21.70    1.16
   2   5 -11   16.81    0.87
   2   5 -11   17.00    0.87
  -2  -5  11   15.83    0.94
   1   5 -11   65.50    3.17
   1   5 -11   76.60    3.19
   1   5 -11   69.52    3.30
   1   5 -11   69.31    3.51
   1   5 -11   65.09    3.23
  -1  -5  11   66.14    3.26
  -1  -5  11   67.83    3.26
   0   5 -11    0.06    0.11
   0   5 -11    0.06    0.15
   0   5 -11    0.14    0.10
   0   5 -11    0.88    0.19
   0  -5  11    0.22    0.13
   0  -5  11    0.20    0.12
  -1   5 -11   75.86    3.50
  -1   5 -11   72.68    3.70
  -1   5 -11   64.42    3.32
  -1   5 -11   74.26    3.45
   1  -5  11   74.72    3.48
   1  -5  11   75.84    3.39
   1  -5  11   68.14    3.39
  -2   5 -11    6.83    0.60
  -2   5 -11    7.75    0.56
  -2   5 -11    8.05    0.71
  -2   5 -11    7.27    0.53
   2  -5  11    6.00    0.48
   2  -5  11    7.53    0.48
   2  -5  11    7.29    0.56
  -3   5 -11   14.82    1.05
  -3   5 -11   14.90    0.90
  -3   5 -11   14.78    0.88
  -3   5 -11   15.01    0.99
   3  -5  11   14.11    0.84
   3  -5  11   15.99    0.93
   3  -5  11   15.24    0.83
  -4   5 -11  117.56    5.50
  -4   5 -11  115.06    5.34
  -4   5 -11  113.82    5.36
   4  -5  11  118.56    5.41
   4  -5  11  115.74    5.29
  -5   5 -11   19.42    1.12
   5  -5  11   17.92    0.94
   4   4 -11   24.15    1.29
   4   4 -11   28.31    1.30
  -4  -4  11   28.53    1.42
   3   4 -11   40.25    1.97
   3   4 -11   40.90    1.88
   3   4 -11   36.14    1.86
  -3  -4  11   40.29    2.01
   2   4 -11   11.59    0.72
   2   4 -11   10.55    0.86
   2   4 -11   10.85    0.63
   2   4 -11   11.23    0.64
  -2  -4  11   11.79    0.73
  -2  -4  11   11.08    0.74
   1   4 -11   62.97    3.13
   1   4 -11   59.64    2.85
   1   4 -11   57.78    2.82
   1   4 -11   58.74    2.87
   1   4 -11   54.89    2.74
   1   4 -11   58.77    2.74
  -1  -4  11   58.50    2.86
  -1  -4  11   59.19    2.86
   0   4 -11    0.15    0.12
   0   4 -11    0.26    0.12
   0   4 -11    0.52    0.16
   0   4 -11    0.11    0.16
   0  -4  11    0.20    0.12
   0  -4  11    0.48    0.16
  -1   4 -11   23.90    1.31
  -1   4 -11   21.36    1.34
  -1   4 -11   24.27    1.49
  -1   4 -11   23.70    1.27
  -1   4 -11   21.12    1.23
   1  -4  11   23.96    1.30
   1  -4  11   24.90    1.22
   1  -4  11   24.35    1.26
  -2   4 -11   26.18    1.56
  -2   4 -11   27.51    1.45
  -2   4 -11   29.71    1.50
  -2   4 -11   27.47    1.66
   2  -4  11   28.23    1.50
   2  -4  11   26.84    1.38
   2  -4  11   26.65    1.42
  -3   4 -11    7.51    0.69
  -3   4 -11    8.21    0.57
  -3   4 -11    8.27    0.70
  -3   4 -11    8.40    0.61
   3  -4  11    8.06    0.55
   3  -4  11    8.56    0.51
   3  -4  11    8.30    0.61
  -4   4 -11   48.92    2.33
  -4   4 -11   48.71    2.48
  -4   4 -11   46.25    2.28
   4  -4  11   45.17    2.32
   4  -4  11   47.81    2.23
   4  -4  11   44.81    2.26
  -5   4 -11    5.96    0.47
  -5   4 -11    8.25    0.61
   5  -4  11    7.13    0.42
   5  -4  11    7.17    0.47
   5  -4  11    7.10    0.43
  -5  -3  11   41.74    2.06
   4   3 -11  106.50    4.67
   4   3 -11  101.18    4.55
   4   3 -11   92.84    4.55
   3   3 -11    1.08    0.22
  -3  -3  11    0.70    0.23
  -3  -3  11    0.80    0.19
   2   3 -11   13.97    0.80
   2   3 -11   15.32    0.90
   2   3 -11   15.33    1.08
  -2  -3  11   15.58    0.94
  -2  -3  11   15.21    0.91
   1   3 -11   29.40    1.53
   1   3 -11   28.77    1.75
   1   3 -11   30.07    1.54
   1   3 -11   29.95    1.56
   1   3 -11   27.75    1.43
  -1  -3  11   30.70    1.58
  -1  -3  11   29.78    1.56
   0   3 -11  368.37   15.53
   0   3 -11  328.23   15.71
   0   3 -11  327.17   15.46
   0   3 -11  353.95   15.49
   0  -3  11  345.36   15.52
   0  -3  11  344.87   15.48
  -1   3 -11   20.94    1.32
  -1   3 -11   21.04    1.20
  -1   3 -11   19.22    1.27
   1  -3  11   19.96    1.10
   1  -3  11   21.16    1.16
   1  -3  11   19.14    1.04
  -2   3 -11   24.82    1.50
  -2   3 -11   21.67    1.52
   2  -3  11   24.12    1.34
   2  -3  11   25.19    1.23
   2  -3  11   24.80    1.28
  -3   3 -11    8.17    0.71
  -3   3 -11    9.62    0.91
  -3   3 -11    8.36    0.62
   3  -3  11    8.71    0.52
   3  -3  11    9.01    0.58
   3  -3  11    8.65    0.62
  -4   3 -11    7.77    0.77
  -4   3 -11    6.68    0.54
   4  -3  11    6.43    0.43
   4  -3  11    7.45    0.50
  -5   3 -11   13.56    0.86
  -5   3 -11   17.45    1.03
  -5   3 -11   14.65    0.88
   5  -3  11   13.07    0.76
   5  -3  11   16.57    0.78
   5  -3  11   15.40    0.83
   5   2 -11    6.68    0.47
  -5  -2  11    6.27    0.58
  -5  -2  11    5.86    0.47
   4   2 -11    1.99    0.26
   4   2 -11    1.89    0.21
  -4  -2  11    1.84    0.27
  -4  -2  11    1.78    0.36
   3   2 -11    8.46    0.58
   3   2 -11    7.74    0.48
  -3  -2  11    8.39    0.64
  -3  -2  11    7.96    0.57
  -3  -2  11    7.68    0.67
   2   2 -11   76.45    3.59
   2   2 -11   82.31    3.72
   2   2 -11   80.10    3.95
  -2  -2  11   72.56    3.78
  -2  -2  11   78.56    3.73
  -2  -2  11   80.79    3.74
   1   2 -11  251.23   11.13
   1   2 -11  237.87   10.84
   1   2 -11  244.84   10.83
  -1  -2  11  241.79   10.84
  -1  -2  11  245.13   10.87
  -1  -2  11  216.50   10.87
   0   2 -11    0.23    0.11
   0   2 -11    0.24    0.20
   0  -2  11    0.19    0.12
   0  -2  11    0.45    0.12
   0  -2  11    0.37    0.13
  -1   2 -11  148.63    6.75
  -1   2 -11  133.79    6.45
   1  -2  11  130.85    6.32
   1  -2  11  142.12    6.42
   1  -2  11  145.83    6.48
  -2   2 -11    0.15    0.17
  -2   2 -11    0.33    0.43
  -2   2 -11    0.21    0.14
   2  -2  11    1.16    0.23
   2  -2  11    0.23    0.09
   2  -2  11    0.50    0.14
  -3   2 -11    1.07    0.54
  -3   2 -11    1.56    0.28
   3  -2  11    1.42    0.22
  -4   2 -11    4.85    0.44
  -4   2 -11    3.65    0.70
   4  -2  11    5.31    0.33
   4  -2  11    4.73    0.38
  -5   2 -11    8.82    0.73
  -5   2 -11    8.18    0.58
   5  -2  11    8.54    0.47
   5  -2  11    8.47    0.53
  -6  -1  11  134.88    6.21
  -6  -1  11  131.29    6.07
   5   1 -11   22.09    1.21
   5   1 -11   22.02    1.18
  -5  -1  11   22.48    1.38
  -5  -1  11   22.11    1.22
   4   1 -11   34.13    1.72
   4   1 -11   32.82    1.68
  -4  -1  11   33.37    1.90
  -4  -1  11   33.32    1.74
   3   1 -11   14.51    0.83
   3   1 -11   14.62    1.03
   3   1 -11   14.85    0.87
  -3  -1  11   13.98    0.98
  -3  -1  11   14.35    0.90
  -3  -1  11   14.05    0.87
   2   1 -11   58.37    2.79
   2   1 -11   59.04    3.10
  -2  -1  11   57.54    2.81
  -2  -1  11   59.50    2.81
  -2  -1  11   54.77    2.88
   1   1 -11    3.21    0.53
   1   1 -11    3.21    0.31
  -1  -1  11    3.18    0.31
  -1  -1  11    3.31    0.33
  -1  -1  11    2.85    0.35
   0   1 -11   45.98    2.42
   0   1 -11   50.42    2.78
   0  -1  11   47.97    2.48
   0  -1  11   51.99    2.45
   0  -1  11   50.56    2.39
  -1   1 -11    0.56    0.29
  -1   1 -11    0.44    0.46
  -1   1 -11    0.59    0.18
   1  -1  11    0.84    0.22
   1  -1  11    0.63    0.15
   1  -1  11    0.64    0.17
  -2   1 -11   47.07    2.35
  -2   1 -11   48.14    2.57
   2  -1  11   47.60    2.27
   2  -1  11   42.28    2.34
  -3   1 -11    0.36    0.15
  -3   1 -11    0.36    0.55
   3  -1  11    0.17    0.14
   3  -1  11    0.50    0.14
  -4   1 -11   17.86    1.05
   4  -1  11   18.27    1.00
   4  -1  11   18.21    0.92
  -5   1 -11    5.64    0.58
   5  -1  11    5.49    0.38
   5  -1  11    5.45    0.33
   6   0 -11   26.39    1.32
   6   0 -11   25.53    1.33
  -6   0  11   27.04    1.38
  -6   0  11   23.76    1.32
  -6   0  11   27.08    1.49
   5   0 -11    0.20    0.12
   5   0 -11    0.22    0.12
  -5   0  11    0.22    0.13
  -5   0  11    0.41    0.22
   4   0 -11  159.32    7.19
   4   0 -11  150.48    7.12
  -4   0  11  153.27    7.18
  -4   0  11  161.43    7.38
  -4   0  11  158.68    7.21
   3   0 -11    3.10    0.55
   3   0 -11    3.17    0.31
  -3   0  11    3.02    0.33
  -3   0  11    3.18    0.34
  -3   0  11    3.23    0.40
   2   0 -11    0.90    0.18
   2   0 -11    0.77    0.38
   2   0 -11    0.97    0.21
  -2   0  11    0.90    0.23
  -2   0  11    0.93    0.20
  -2   0  11    0.64    0.17
   1   0 -11    7.09    0.52
   1   0 -11    5.72    0.80
   1   0 -11    6.45    0.47
  -1   0  11    6.59    0.47
  -1   0  11    7.06    0.57
  -1   0  11    7.52    0.53
   0   0 -11    2.85    0.63
   0   0 -11    3.00    0.33
   0   0  11    3.26    0.29
   0   0  11    2.78    0.31
   0   0  11    2.88    0.34
  -1   0 -11   35.59    2.40
  -1   0 -11   42.81    2.10
   1   0  11   42.47    2.02
   1   0  11   41.69    2.15
  -2   0 -11    0.55    0.31
  -2   0 -11    0.34    0.57
  -2   0 -11    0.60    0.17
   2   0  11    0.65    0.20
   2   0  11    0.56    0.15
  -3   0 -11  109.99    4.93
   3   0  11  100.82    4.96
   3   0  11  107.48    4.84
   3   0  11   99.72    4.73
  -4   0 -11   -0.01    0.11
  -4   0 -11    0.35    0.46
   4   0  11    0.29    0.11
   4   0  11    0.28    0.10
   6  -1 -11    7.14    0.49
   6  -1 -11    7.70    0.52
  -6   1  11    7.88    0.55
  -6   1  11    7.68    0.63
   5  -1 -11   16.94    0.97
   5  -1 -11   18.07    1.03
  -5   1  11   17.72    1.05
  -5   1  11   19.25    1.19
   4  -1 -11   11.20    0.73
  -4   1  11   11.58    0.86
  -4   1  11   11.20    0.74
   3  -1 -11   47.39    2.21
   3  -1 -11   38.08    2.58
   3  -1 -11   42.59    2.20
  -3   1  11   44.74    2.21
  -3   1  11   44.56    2.15
  -3   1  11   46.75    2.34
   2  -1 -11   87.62    4.07
   2  -1 -11   88.90    4.13
  -2   1  11   82.60    4.02
  -2   1  11   91.82    4.23
  -2   1  11   84.42    4.10
   1  -1 -11   76.55    3.52
  -1   1  11   70.94    3.40
  -1   1  11   69.08    3.46
  -1   1  11   76.11    3.59
   0  -1 -11    1.03    0.21
   0  -1 -11    0.10    0.48
   0  -1 -11    0.47    0.36
   0   1  11    0.57    0.18
   0   1  11    0.92    0.18
  -1  -1 -11   45.50    2.26
   1   1  11   44.32    2.32
   1   1  11   43.53    2.16
  -2  -1 -11   68.11    3.21
   2   1  11   64.41    3.11
   2   1  11   65.29    3.27
  -3  -1 -11    1.30    0.26
  -3  -1 -11    0.62    0.60
   3   1  11    1.33    0.26
   3   1  11    1.27    0.20
  -4  -1 -11    0.05    0.35
   4   1  11    0.27    0.10
   6  -2 -11   30.55    1.59
   6  -2 -11   33.31    1.65
  -6   2  11   31.04    1.66
  -6   2  11   35.03    1.78
   5  -2 -11   49.24    2.37
  -5   2  11   44.55    2.36
  -5   2  11   49.78    2.51
   4  -2 -11    0.43    0.15
   4  -2 -11    0.20    0.13
  -4   2  11    0.40    0.16
  -4   2  11    0.42    0.17
   3  -2 -11    0.64    0.18
   3  -2 -11    0.67    0.50
   3  -2 -11    0.88    0.21
  -3   2  11    0.63    0.18
  -3   2  11    0.59    0.20
   2  -2 -11   61.57    2.93
   2  -2 -11   57.61    2.84
  -2   2  11   58.93    2.98
   1  -2 -11   10.28    1.19
   0  -2 -11    6.61    0.94
  -1  -2 -11   11.94    1.13
  -2  -2 -11    8.11    0.58
   2   2  11    7.12    0.49
   2   2  11    7.95    0.62
   6  -3 -11    0.39    0.14
  -6   3  11    0.12    0.13
  -6   3  11    0.23    0.15
   5  -3 -11    1.64    0.26
  -5   3  11    1.53    0.27
  -5   3  11    1.63    0.29
   4  -3 -11    6.34    0.52
   4  -3 -11    6.47    0.50
  -4   3  11    6.48    0.56
   3  -3 -11    0.14    0.12
   3  -3 -11   -0.12    0.52
   3  -3 -11    0.11    0.11
  -3   3  11    0.10    0.12
   2  -3 -11    6.69    0.53
   2  -3 -11    5.92    0.46
  -2   3  11    7.03    0.58
   1  -3 -11    0.64    0.49
   0  -3 -11   -0.16    0.32
   0  -3 -11   -0.42    0.49
   0  -3 -11    0.05    0.12
   0   3  11    0.03    0.10
  -1  -3 -11    1.89    0.50
   6  -4 -11   13.37    0.73
  -6   4  11   11.00    0.74
   5  -4 -11   36.57    1.74
   5  -4 -11   32.01    1.72
  -5   4  11   32.92    1.76
   4  -4 -11   10.88    0.73
   4  -4 -11   11.90    0.72
  -4   4  11   11.00    0.76
   3  -4 -11   27.76    1.46
   3  -4 -11   25.84    1.38
  -3   4  11   26.52    1.48
   2  -4 -11    0.52    0.56
   2  -4 -11    0.98    0.21
  -2   4  11    0.85    0.21
   1  -4 -11    1.28    0.57
   1  -4 -11   -0.07    0.50
   0  -4 -11    2.84    0.61
  -1  -4 -11    0.21    0.46
   1   4  11    0.17    0.12
   6  -5 -11    7.96    0.53
   5  -5 -11    7.38    0.50
   4  -5 -11   33.86    1.69
   4  -5 -11   34.28    1.74
   3  -5 -11    8.24    0.55
  -3   5  11    6.38    0.52
   2  -5 -11    2.67    0.71
   1  -5 -11   10.06    1.05
   3  -6 -11    0.78    0.64
  -1   7 -12  118.40    5.65
  -1   7 -12  128.70    5.81
  -1   7 -12  119.49    5.61
   1  -7  12  128.23    5.59
  -2   7 -12   21.96    1.16
  -2   7 -12   22.43    1.14
  -2   7 -12   23.06    1.30
   2  -7  12   20.80    1.11
   2  -7  12   23.38    1.11
  -3   7 -12   32.90    1.72
  -3   7 -12   31.07    1.76
  -3   7 -12   31.35    1.57
   3  -7  12   33.53    1.54
   1   6 -12   19.66    1.22
   1   6 -12   20.17    1.11
   1   6 -12   21.47    1.04
  -1  -6  12   23.42    1.08
   0   6 -12    0.12    0.10
   0   6 -12    0.26    0.13
   0   6 -12    0.33    0.12
   0   6 -12    0.24    0.16
   0  -6  12    0.29    0.10
   0  -6  12    0.34    0.15
  -1   6 -12    5.72    0.57
  -1   6 -12    5.99    0.46
  -1   6 -12    5.54    0.42
   1  -6  12    5.81    0.40
   1  -6  12    5.90    0.46
  -2   6 -12    0.29    0.12
  -2   6 -12    0.58    0.21
  -2   6 -12    0.24    0.11
   2  -6  12    0.32    0.14
   2  -6  12    0.33    0.11
  -3   6 -12   26.53    1.48
  -3   6 -12   26.41    1.40
  -3   6 -12   27.06    1.42
  -3   6 -12   28.15    1.58
   3  -6  12   29.20    1.37
   3  -6  12   28.63    1.45
  -4   6 -12    4.86    0.38
  -4   6 -12    5.31    0.44
  -4   6 -12    5.13    0.37
   4  -6  12    5.81    0.35
   3   5 -12   36.84    1.72
   2   5 -12   25.53    1.33
   2   5 -12   29.16    1.34
  -2  -5  12   28.31    1.41
   1   5 -12   82.13    4.02
   1   5 -12   90.00    4.15
   1   5 -12   92.97    4.37
  -1  -5  12   90.29    4.11
  -1  -5  12   85.95    4.11
   0   5 -12   45.23    2.20
   0   5 -12   39.18    2.19
   0   5 -12   45.44    2.44
   0   5 -12   44.59    2.24
   0  -5  12   48.11    2.16
   0  -5  12   44.21    2.17
   0  -5  12   45.57    2.23
  -1   5 -12   24.58    1.34
  -1   5 -12   25.54    1.56
  -1   5 -12   25.84    1.39
   1  -5  12   26.59    1.40
   1  -5  12   26.91    1.30
   1  -5  12   23.84    1.31
  -2   5 -12    0.39    0.13
  -2   5 -12    0.53    0.22
  -2   5 -12    0.52    0.16
  -2   5 -12    0.45    0.19
   2  -5  12    0.49    0.16
   2  -5  12    0.24    0.10
   2  -5  12    0.26    0.12
  -3   5 -12   42.69    2.34
  -3   5 -12   44.02    2.16
  -3   5 -12   43.43    2.17
  -3   5 -12   44.34    2.27
   3  -5  12   45.44    2.21
   3  -5  12   41.32    2.11
   3  -5  12   47.02    2.11
  -4   5 -12   70.10    3.22
  -4   5 -12   65.45    3.08
  -4   5 -12   61.16    3.08
   4  -5  12   63.69    3.11
   4  -5  12   67.53    3.04
  -5   5 -12   13.49    0.81
   5  -5  12   12.14    0.77
   5  -5  12   13.20    0.66
  -4  -4  12    2.91    0.30
   3   4 -12   34.99    1.74
   3   4 -12   36.67    1.83
  -3  -4  12   38.68    1.86
   2   4 -12    4.82    0.53
   2   4 -12    5.38    0.36
   2   4 -12    5.28    0.42
  -2  -4  12    5.18    0.44
  -2  -4  12    4.85    0.42
   1   4 -12   53.36    2.64
   1   4 -12   54.63    2.66
   1   4 -12   55.62    2.91
   1   4 -12   54.34    2.68
  -1  -4  12   56.10    2.67
  -1  -4  12   55.51    2.68
   0   4 -12    2.22    0.38
   0   4 -12    2.45    0.30
   0   4 -12    2.23    0.28
   0   4 -12    2.27    0.26
   0  -4  12    2.02    0.23
   0  -4  12    1.78    0.27
   0  -4  12    1.78    0.25
  -1   4 -12   53.92    2.63
  -1   4 -12   54.56    2.60
  -1   4 -12   50.82    2.81
   1  -4  12   53.95    2.52
   1  -4  12   52.04    2.62
   1  -4  12   53.69    2.57
  -2   4 -12    0.74    0.24
  -2   4 -12    1.57    0.26
  -2   4 -12    0.77    0.18
  -2   4 -12    0.68    0.24
   2  -4  12    1.27    0.21
   2  -4  12    0.60    0.14
   2  -4  12    0.76    0.20
  -3   4 -12   63.47    3.12
  -3   4 -12   61.26    3.27
  -3   4 -12   66.04    3.10
  -3   4 -12   65.84    3.24
   3  -4  12   66.40    3.08
   3  -4  12   66.67    3.14
   3  -4  12   65.44    3.02
  -4   4 -12    1.79    0.25
  -4   4 -12    1.52    0.23
  -4   4 -12    1.83    0.31
   4  -4  12    1.47    0.20
   4  -4  12    1.76    0.18
   4  -4  12    1.22    0.23
  -5   4 -12   22.99    1.25
   5  -4  12   21.60    1.08
   4   3 -12   83.70    3.70
   4   3 -12   76.24    3.59
  -4  -3  12   88.60    3.75
  -4  -3  12   67.99    3.68
   3   3 -12    5.32    0.36
   3   3 -12    5.41    0.43
  -3  -3  12    5.23    0.45
  -3  -3  12    5.33    0.47
   2   3 -12   71.37    3.57
   2   3 -12   65.76    3.21
   2   3 -12   68.11    3.33
  -2  -3  12   72.40    3.37
  -2  -3  12   71.60    3.36
   1   3 -12  109.18    5.09
   1   3 -12  111.15    5.11
   1   3 -12  110.45    5.35
   1   3 -12  108.94    5.08
  -1  -3  12  107.72    5.12
  -1  -3  12  110.53    5.11
   0   3 -12   18.53    1.08
   0   3 -12   17.92    1.04
   0   3 -12   17.99    1.24
   0   3 -12   18.75    1.06
   0  -3  12   20.28    1.10
   0  -3  12   19.39    1.00
   0  -3  12   19.39    1.06
  -1   3 -12    0.68    0.26
  -1   3 -12    1.00    0.24
  -1   3 -12    0.79    0.26
   1  -3  12    0.83    0.20
   1  -3  12    0.93    0.19
   1  -3  12    0.75    0.15
  -2   3 -12  128.11    6.15
  -2   3 -12  126.15    6.13
  -2   3 -12  122.96    5.97
   2  -3  12  123.17    5.81
   2  -3  12  136.22    5.97
   2  -3  12  132.43    5.90
  -3   3 -12    0.44    0.29
  -3   3 -12    0.16    0.14
  -3   3 -12    0.13    0.16
   3  -3  12    0.13    0.09
   3  -3  12    0.10    0.12
   3  -3  12    0.62    0.16
  -4   3 -12    6.34    0.46
  -4   3 -12    5.38    0.48
  -4   3 -12    6.62    0.54
  -4   3 -12    7.42    0.65
   4  -3  12    6.29    0.44
  -5   3 -12    9.93    0.65
   5  -3  12    8.77    0.48
   5  -3  12    8.31    0.52
   5   2 -12   20.83    1.10
  -5  -2  12   21.26    1.13
   4   2 -12  112.16    5.14
  -4  -2  12  110.48    5.15
  -4  -2  12  115.58    5.18
  -4  -2  12  106.02    5.24
   3   2 -12   65.26    2.97
   3   2 -12   57.71    2.83
  -3  -2  12   61.95    2.98
  -3  -2  12   57.13    3.04
  -3  -2  12   65.15    3.00
   2   2 -12   17.20    0.97
   2   2 -12   17.18    1.16
  -2  -2  12   17.87    1.00
  -2  -2  12   17.14    0.99
  -2  -2  12   14.58    1.00
   1   2 -12    0.60    0.16
   1   2 -12    0.61    0.24
   1   2 -12    0.64    0.18
   1   2 -12    0.60    0.17
  -1  -2  12    0.50    0.18
  -1  -2  12    0.83    0.21
  -1  -2  12    0.49    0.15
   0   2 -12  210.18   10.38
   0   2 -12  234.19   10.73
   0   2 -12  238.15   10.51
   0  -2  12  233.64   10.48
   0  -2  12  236.97   10.43
  -1   2 -12  244.39   12.31
  -1   2 -12  292.82   12.64
   1  -2  12  276.96   12.35
   1  -2  12  278.02   12.30
  -2   2 -12  103.80    4.90
  -2   2 -12  105.27    5.09
   2  -2  12  101.85    4.87
   2  -2  12  106.32    4.84
  -3   2 -12    5.00    0.46
  -3   2 -12    4.82    0.82
   3  -2  12    5.87    0.43
  -4   2 -12   26.45    1.43
  -4   2 -12   28.48    1.70
   4  -2  12   26.58    1.37
   4  -2  12   26.64    1.30
   5  -2  12    7.63    0.50
   5   1 -12    2.33    0.26
  -5  -1  12    2.62    0.35
  -5  -1  12    2.45    0.29
  -5  -1  12    2.71    0.31
   4   1 -12    7.37    0.55
  -4  -1  12    8.59    0.60
  -4  -1  12    7.92    0.66
  -4  -1  12    8.48    0.59
   3   1 -12    0.67    0.26
   3   1 -12    0.79    0.18
  -3  -1  12    0.65    0.19
  -3  -1  12    0.52    0.19
  -3  -1  12    0.63    0.19
   2   1 -12    1.35    0.23
   2   1 -12    1.36    0.37
  -2  -1  12    1.39    0.23
  -2  -1  12    1.40    0.27
  -2  -1  12    1.38    0.25
   1   1 -12    0.24    0.19
   1   1 -12    0.23    0.23
  -1  -1  12    0.06    0.08
  -1  -1  12    0.05    0.11
   0   1 -12    0.91    0.34
   0   1 -12    1.14    0.23
   0  -1  12    0.92    0.18
   0  -1  12    1.13    0.24
   0  -1  12    1.09    0.22
  -1   1 -12   11.16    0.78
  -1   1 -12   12.92    1.04
   1  -1  12   12.49    0.74
   1  -1  12   12.12    0.75
   1  -1  12   11.76    0.81
  -2   1 -12    7.15    0.69
  -2   1 -12    6.94    0.55
   2  -1  12    5.98    0.54
   2  -1  12    7.40    0.50
  -3   1 -12    3.20    0.36
   3  -1  12    3.05    0.29
   3  -1  12    3.39    0.25
  -4   1 -12   22.20    1.14
  -4   1 -12   16.86    1.35
   4  -1  12   20.03    1.00
   4  -1  12   23.11    1.09
   6   0 -12   88.02    4.28
  -6   0  12   98.88    4.43
   5   0 -12   43.01    2.11
   5   0 -12   45.63    2.16
  -5   0  12   43.64    2.29
  -5   0  12   43.24    2.18
  -5   0  12   42.93    2.13
   4   0 -12   28.54    1.46
  -4   0  12   27.16    1.48
  -4   0  12   27.34    1.59
  -4   0  12   27.17    1.44
   3   0 -12    1.84    0.42
   3   0 -12    1.75    0.24
  -3   0  12    1.59    0.25
  -3   0  12    1.38    0.29
  -3   0  12    1.97    0.26
   2   0 -12   76.63    3.98
   2   0 -12   74.45    3.54
  -2   0  12   76.25    3.53
  -2   0  12   73.09    3.58
  -2   0  12   74.61    3.68
   1   0 -12  259.43   12.20
   1   0 -12  262.54   12.72
   1   0 -12  265.08   12.28
  -1   0  12  271.05   12.21
  -1   0  12  289.15   12.30
  -1   0  12  281.50   12.37
   0   0 -12  162.57    7.27
   0   0 -12  151.80    7.69
   0   0  12  164.95    7.18
   0   0  12  159.12    7.33
   0   0  12  149.54    7.20
  -1   0 -12    4.62    0.43
  -1   0 -12    4.55    0.69
   1   0  12    4.41    0.37
   1   0  12    5.18    0.48
  -2   0 -12   24.35    1.54
  -2   0 -12   25.46    1.38
   2   0  12   24.56    1.28
   2   0  12   24.06    1.40
  -3   0 -12    0.82    0.56
  -3   0 -12    1.50    0.25
   3   0  12    1.46    0.22
   3   0  12    1.36    0.26
   4   0  12   50.85    2.38
   6  -1 -12   28.10    1.50
   6  -1 -12   32.04    1.55
  -6   1  12   33.05    1.66
   5  -1 -12   43.48    2.17
  -5   1  12   45.49    2.31
  -5   1  12   42.95    2.19
   4  -1 -12    0.22    0.12
  -4   1  12    0.49    0.20
  -4   1  12    0.24    0.14
   3  -1 -12   11.11    1.10
   3  -1 -12   11.75    0.73
  -3   1  12   11.15    0.81
  -3   1  12   10.93    0.73
   2  -1 -12  209.58    8.88
   2  -1 -12  164.10    9.32
   2  -1 -12  197.81    8.92
  -2   1  12  194.99    8.82
  -2   1  12  209.06    9.03
  -2   1  12  195.34    8.90
   1  -1 -12   59.29    2.84
  -1   1  12   53.90    2.71
  -1   1  12   59.25    2.91
   0  -1 -12   25.32    1.36
   0   1  12   23.08    1.24
   0   1  12   24.26    1.41
  -1  -1 -12    1.03    0.23
  -1  -1 -12    0.42    0.63
  -1  -1 -12    0.92    0.42
   1   1  12    1.17    0.26
   1   1  12    0.89    0.17
  -2  -1 -12   15.88    0.93
   2   1  12   14.90    0.84
   2   1  12   15.00    0.97
  -3  -1 -12    9.37    0.60
   3   1  12    8.41    0.52
   3   1  12    8.65    0.61
   6  -2 -12    0.45    0.13
  -6   2  12    0.40    0.16
   5  -2 -12   59.14    2.83
  -5   2  12   55.05    2.83
  -5   2  12   62.19    2.96
   4  -2 -12   11.23    0.70
   4  -2 -12    9.20    1.44
  -4   2  12   11.24    0.80
  -4   2  12   10.27    0.69
   3  -2 -12   41.92    2.13
   3  -2 -12   44.75    2.11
  -3   2  12   37.67    2.07
  -3   2  12   43.70    2.22
   2  -2 -12   46.32    2.32
   2  -2 -12   45.21    2.24
  -2   2  12   46.29    2.39
   1  -2 -12   24.55    1.89
   0  -2 -12    2.46    0.31
   0   2  12    3.08    0.37
  -1  -2 -12   13.53    1.20
  -1  -2 -12   17.15    0.96
   1   2  12   17.19    1.03
  -2  -2 -12    4.41    0.37
   2   2  12    3.30    0.36
   6  -3 -12   10.27    0.60
  -6   3  12    9.51    0.65
   5  -3 -12   19.42    1.05
  -5   3  12   18.50    1.12
   4  -3 -12   29.79    1.49
   4  -3 -12   26.06    1.49
  -4   3  12   29.09    1.57
   3  -3 -12   85.70    4.11
   3  -3 -12   85.32    4.05
  -3   3  12   88.39    4.17
   2  -3 -12   27.18    1.49
  -2   3  12   28.25    1.56
   1  -3 -12   16.95    1.52
   0  -3 -12    9.51    1.03
  -1  -3 -12    0.54    0.53
  -1  -3 -12    1.53    0.23
   1   3  12    1.17    0.23
   5  -4 -12   88.18    3.94
  -5   4  12   81.16    3.98
   4  -4 -12    6.36    0.44
   4  -4 -12    4.33    0.85
   4  -4 -12    5.81    0.47
  -4   4  12    6.11    0.49
   3  -4 -12    0.62    0.55
   3  -4 -12    0.78    0.19
   3  -4 -12    0.76    0.17
  -3   4  12    0.88    0.21
   2  -4 -12   13.53    0.82
  -2   4  12   13.88    0.87
   1  -4 -12    4.49    0.83
   0  -4 -12    1.06    0.39
   0  -4 -12    0.58    0.47
   4  -5 -12    5.10    0.78
   3  -5 -12   43.11    2.51
   2  -5 -12    0.61    0.42
  -1  -6  13   45.42    2.21
   0   6 -13    0.02    0.10
   0   6 -13   -0.01    0.09
   0   6 -13    0.10    0.13
   0  -6  13    0.19    0.08
  -1   6 -13   33.20    1.66
  -1   6 -13   34.32    1.69
  -1   6 -13   33.68    1.84
   1  -6  13   34.10    1.62
  -2   6 -13   19.20    1.09
  -2   6 -13   21.58    1.25
  -2   6 -13   21.35    1.09
   2  -6  13   21.48    1.05
  -3   6 -13   35.71    1.72
  -3   6 -13   34.71    1.74
  -3   6 -13   35.77    1.87
   3  -6  13   36.39    1.69
  -2  -5  13    2.16    0.23
   1   5 -13    0.92    0.19
   1   5 -13    0.92    0.24
  -1  -5  13    1.06    0.20
  -1  -5  13    1.09    0.16
  -1  -5  13    1.13    0.18
   0   5 -13    0.65    0.18
   0   5 -13    0.13    0.15
   0   5 -13    0.10    0.10
   0  -5  13    0.09    0.11
   0  -5  13    0.18    0.09
   0  -5  13    0.12    0.10
  -1   5 -13    0.70    0.24
  -1   5 -13    0.83    0.18
  -1   5 -13    0.68    0.15
   1  -5  13    0.69    0.15
   1  -5  13    0.58    0.12
   1  -5  13    0.57    0.17
  -2   5 -13  113.20    5.19
  -2   5 -13   98.61    5.23
  -2   5 -13  116.01    5.39
  -2   5 -13  115.54    5.17
   2  -5  13  118.77    5.22
   2  -5  13  116.47    5.10
   2  -5  13  107.17    5.13
  -3   5 -13    0.00    0.11
  -3   5 -13    0.13    0.09
  -3   5 -13    0.04    0.14
  -3   5 -13    0.04    0.08
   3  -5  13    0.34    0.12
   3  -5  13    0.14    0.11
   3  -5  13    0.26    0.09
  -4   5 -13    0.78    0.19
  -4   5 -13    0.54    0.18
  -4   5 -13    0.89    0.14
   4  -5  13    0.80    0.13
   3   4 -13    6.50    0.45
  -3  -4  13    6.86    0.46
   2   4 -13    2.43    0.44
   2   4 -13    2.99    0.29
  -2  -4  13    3.06    0.32
  -2  -4  13    3.02    0.30
   1   4 -13    7.39    0.54
   1   4 -13    7.79    0.53
   1   4 -13    7.75    0.68
  -1  -4  13    7.69    0.53
  -1  -4  13    7.71    0.55
   0   4 -13   18.43    1.04
   0   4 -13   18.76    1.25
   0   4 -13   20.27    1.09
   0   4 -13   19.47    1.05
   0  -4  13   19.29    1.08
   0  -4  13   18.53    1.04
   0  -4  13   18.47    0.98
  -1   4 -13   58.31    3.05
  -1   4 -13   57.45    2.82
  -1   4 -13   58.44    2.86
   1  -4  13   61.41    2.82
   1  -4  13   60.10    2.87
   1  -4  13   57.42    2.75
  -2   4 -13    0.32    0.18
  -2   4 -13    0.30    0.12
  -2   4 -13    0.28    0.17
  -2   4 -13    0.49    0.16
   2  -4  13    0.41    0.15
   2  -4  13    0.74    0.16
   2  -4  13    0.58    0.12
  -3   4 -13   16.72    0.93
  -3   4 -13   16.31    1.01
  -3   4 -13   17.08    0.92
  -3   4 -13   15.97    1.05
   3  -4  13   16.06    0.85
   3  -4  13   16.87    0.91
   3  -4  13   16.47    0.95
  -4   4 -13   29.70    1.54
  -4   4 -13   35.58    1.67
  -4   4 -13   31.39    1.53
   4  -4  13   30.92    1.52
   4  -4  13   28.15    1.46
   4   3 -13   32.99    1.68
  -4  -3  13   36.24    1.72
   3   3 -13   21.36    1.14
  -3  -3  13   20.57    1.15
  -3  -3  13   21.75    1.16
   2   3 -13    2.50    0.28
   2   3 -13    2.32    0.39
  -2  -3  13    3.03    0.32
  -2  -3  13    3.26    0.32
   1   3 -13   36.10    1.84
   1   3 -13   36.07    1.86
   1   3 -13   38.24    1.87
   1   3 -13   37.40    2.09
  -1  -3  13   36.42    1.88
  -1  -3  13   37.56    1.86
   0   3 -13   51.79    2.49
   0   3 -13   52.08    2.73
   0   3 -13   53.12    2.52
   0   3 -13   46.46    2.45
   0  -3  13   53.35    2.49
   0  -3  13   51.43    2.53
   0  -3  13   49.40    2.39
  -1   3 -13   11.17    0.71
  -1   3 -13   11.81    0.89
  -1   3 -13   12.09    0.75
   1  -3  13   10.28    0.62
   1  -3  13   10.42    0.72
   1  -3  13   11.27    0.69
  -2   3 -13    2.60    0.41
  -2   3 -13    2.22    0.37
  -2   3 -13    3.80    0.39
   2  -3  13    2.50    0.31
   2  -3  13    2.47    0.27
  -3   3 -13   59.07    2.93
  -3   3 -13   60.93    2.89
  -3   3 -13   61.25    3.06
   3  -3  13   61.15    2.88
  -4   3 -13    0.56    0.13
  -4   3 -13    0.81    0.18
  -4   3 -13    0.47    0.21
   4  -3  13    0.35    0.11
   4  -3  13    0.36    0.09
   4   2 -13    3.02    0.29
  -4  -2  13    2.34    0.33
  -4  -2  13    3.13    0.31
  -4  -2  13    3.35    0.33
   3   2 -13   26.34    1.37
  -3  -2  13   28.38    1.40
  -3  -2  13   26.10    1.39
  -3  -2  13   23.63    1.41
   2   2 -13   64.86    3.29
   2   2 -13   63.27    3.06
  -2  -2  13   67.46    3.12
  -2  -2  13   66.61    3.08
  -2  -2  13   58.87    3.11
   1   2 -13   37.42    2.07
   1   2 -13   35.17    1.83
   1   2 -13   35.83    1.82
   1   2 -13   35.44    1.81
  -1  -2  13   36.53    1.87
  -1  -2  13   37.09    1.83
   0   2 -13    9.53    0.68
   0   2 -13    9.83    0.82
   0  -2  13    9.97    0.63
   0  -2  13    9.78    0.67
  -1   2 -13    4.40    0.63
  -1   2 -13    5.54    0.58
   1  -2  13    4.79    0.43
   1  -2  13    5.11    0.40
  -2   2 -13  111.33    5.35
  -2   2 -13  120.48    5.53
   2  -2  13  123.42    5.31
   2  -2  13  104.60    5.29
  -3   2 -13   67.50    3.25
  -3   2 -13   66.75    3.48
   3  -2  13   69.12    3.19
  -4   2 -13   59.18    2.70
  -4   2 -13   48.49    2.46
   4  -2  13   51.02    2.40
   4  -2  13   51.81    2.47
   5   1 -13   10.97    0.64
  -5  -1  13   10.42    0.71
  -5  -1  13   10.80    0.63
   4   1 -13    2.06    0.25
  -4  -1  13    1.93    0.26
  -4  -1  13    1.93    0.30
  -4  -1  13    1.85    0.26
   3   1 -13    0.63    0.16
   3   1 -13    0.35    0.19
  -3  -1  13    0.23    0.14
  -3  -1  13    0.49    0.16
  -3  -1  13    0.32    0.15
   2   1 -13   38.49    1.92
   2   1 -13   38.75    2.17
  -2  -1  13   39.53    1.92
  -2  -1  13   37.65    1.96
  -2  -1  13   37.30    2.01
   1   1 -13    0.58    0.16
   1   1 -13    0.94    0.34
   1   1 -13    0.84    0.32
  -1  -1  13    0.50    0.17
  -1  -1  13    0.61    0.19
  -1  -1  13    0.62    0.16
   0   1 -13    9.67    0.85
   0   1 -13    7.29    0.57
   0  -1  13    7.94    0.58
   0  -1  13    8.67    0.55
   0  -1  13    8.12    0.63
  -1   1 -13    7.11    0.56
  -1   1 -13    7.65    0.74
   1  -1  13    7.02    0.57
   1  -1  13    7.21    0.50
   1  -1  13    6.45    0.53
  -2   1 -13  242.10   11.13
  -2   1 -13  241.53   10.98
   2  -1  13  241.79   10.90
  -3   1 -13   14.39    0.85
   3  -1  13   14.70    0.79
   3  -1  13   13.02    0.71
  -4   1 -13   31.52    1.85
   4  -1  13   33.26    1.59
   5   0 -13    8.90    0.57
  -5   0  13    9.09    0.66
  -5   0  13    9.01    0.60
   4   0 -13    6.39    0.47
  -4   0  13    6.55    0.50
  -4   0  13    6.27    0.55
  -4   0  13    6.47    0.46
   3   0 -13   13.90    0.81
   3   0 -13   12.71    1.00
  -3   0  13   12.92    0.83
  -3   0  13   13.50    0.90
  -3   0  13   13.93    0.79
   2   0 -13    6.15    0.47
   2   0 -13    7.00    0.78
  -2   0  13    6.21    0.55
  -2   0  13    6.13    0.51
  -2   0  13    6.94    0.47
   1   0 -13   56.87    2.88
   1   0 -13   63.48    3.31
  -1   0  13   57.54    2.87
  -1   0  13   58.97    2.96
  -1   0  13   59.73    2.81
   0   0 -13   47.47    2.48
   0   0 -13   54.62    2.90
   0   0  13   49.48    2.55
   0   0  13   48.83    2.40
  -1   0 -13   25.88    1.63
  -1   0 -13   24.54    1.36
   1   0  13   23.92    1.39
   1   0  13   24.53    1.28
  -2   0 -13   19.95    1.08
  -2   0 -13   17.14    1.15
   2   0  13   18.53    0.98
   2   0  13   17.87    1.08
   3   0  13    6.72    0.51
   3   0  13    7.69    0.46
   5  -1 -13    5.09    0.41
  -5   1  13    5.24    0.43
  -5   1  13    6.96    0.53
   4  -1 -13   16.62    0.92
  -4   1  13   16.36    1.02
  -4   1  13   14.73    0.92
   3  -1 -13    9.70    0.92
   3  -1 -13    8.87    0.59
  -3   1  13    8.41    0.61
  -3   1  13    8.99    0.69
   2  -1 -13   65.93    3.57
   2  -1 -13   63.49    3.11
   2  -1 -13   62.75    3.04
  -2   1  13   68.38    3.21
  -2   1  13   60.94    3.07
   1  -1 -13    6.01    0.89
   1  -1 -13    5.34    0.46
  -1   1  13    5.85    0.52
  -1   1  13    5.46    0.40
   0  -1 -13   95.91    4.47
   0  -1 -13   94.33    4.89
   0   1  13   90.40    4.35
   0   1  13   97.85    4.55
  -1  -1 -13   10.71    0.70
  -1  -1 -13   11.71    0.95
   1   1  13   10.25    0.73
   1   1  13    9.70    0.61
  -2  -1 -13   27.50    1.36
   2   1  13   25.21    1.38
   2   1  13   23.59    1.25
   5  -2 -13    0.36    0.12
  -5   2  13    0.50    0.17
   4  -2 -13    2.34    0.26
  -4   2  13    2.09    0.30
  -4   2  13    1.55    0.25
   3  -2 -13   37.10    2.36
   3  -2 -13   38.53    1.92
   3  -2 -13   37.72    1.96
  -3   2  13   41.20    2.06
   2  -2 -13    1.75    0.26
   2  -2 -13    1.68    0.59
  -2   2  13    1.76    0.28
   1  -2 -13    4.18    0.39
   1  -2 -13    3.69    0.77
  -1   2  13    4.17    0.43
   0  -2 -13    5.96    0.84
   0  -2 -13    6.85    0.52
   0   2  13    7.28    0.57
  -1  -2 -13   48.49    2.26
  -1  -2 -13   42.35    2.42
   1   2  13   46.11    2.31
   5  -3 -13   39.56    1.86
  -5   3  13   36.55    1.92
   4  -3 -13    0.56    0.35
   4  -3 -13    0.56    0.18
   4  -3 -13    0.76    0.17
  -4   3  13    0.84    0.20
   3  -3 -13   41.02    2.01
   3  -3 -13   43.47    2.08
   3  -3 -13   35.96    2.46
  -3   3  13   44.72    2.15
   2  -3 -13   10.74    1.25
   2  -3 -13   14.23    0.84
  -2   3  13   15.14    0.90
   1  -3 -13   39.11    1.94
  -1   3  13   38.37    2.00
   0  -3 -13   11.85    0.70
   0  -3 -13    9.57    0.93
   0   3  13   11.92    0.74
   4  -4 -13    0.21    0.36
   4  -4 -13    0.18    0.11
  -4   4  13    0.14    0.12
   3  -4 -13    8.32    0.98
  -3   4  13   10.97    0.67
   2  -4 -13    2.28    0.57
  -2   4  13    3.02    0.31
   1  -4 -13    4.54    0.67
  -1   4  13    5.21    0.41
   1   5 -14   23.40    1.37
  -1  -5  14   25.00    1.17
  -1  -5  14   23.71    1.19
   0   5 -14    2.95    0.29
   0   5 -14    3.21    0.38
   0   5 -14    3.03    0.26
   0  -5  14    3.19    0.26
   0  -5  14    3.02    0.24
  -1   5 -14   10.97    0.63
  -1   5 -14   10.88    0.65
  -1   5 -14   11.33    0.79
   1  -5  14    9.87    0.60
   1  -5  14   10.67    0.59
   1  -5  14   10.68    0.66
  -2   5 -14   59.93    2.85
  -2   5 -14   54.90    2.68
  -2   5 -14   57.89    2.66
   2  -5  14   56.33    2.61
   2  -5  14   53.77    2.63
  -3   5 -14   21.85    1.31
  -3   5 -14   27.09    1.23
   2   4 -14   31.39    1.55
  -2  -4  14   31.62    1.54
  -2  -4  14   30.50    1.49
   1   4 -14   26.91    1.40
   1   4 -14   27.22    1.57
  -1  -4  14   28.80    1.43
  -1  -4  14   28.64    1.40
  -1  -4  14   26.64    1.34
   0   4 -14    0.06    0.11
   0   4 -14    0.07    0.13
   0   4 -14    0.06    0.09
   0  -4  14    0.03    0.10
   0  -4  14    0.20    0.09
   0  -4  14    0.03    0.07
  -1   4 -14    1.03    0.19
  -1   4 -14    0.98    0.25
  -1   4 -14    1.06    0.18
   1  -4  14    1.06    0.20
   1  -4  14    0.80    0.16
   1  -4  14    1.21    0.16
  -2   4 -14    0.16    0.11
  -2   4 -14    0.16    0.15
  -2   4 -14    0.01    0.13
  -2   4 -14    0.15    0.09
   2  -4  14    0.48    0.15
   2  -4  14    0.12    0.08
   2  -4  14    0.16    0.09
  -3   4 -14    4.41    0.65
  -3   4 -14    6.56    0.47
  -3   4 -14    5.85    0.40
  -3   4 -14    5.62    0.41
   3  -4  14    5.64    0.38
   3   3 -14    5.74    0.41
  -3  -3  14    6.27    0.43
   2   3 -14   16.98    0.92
   2   3 -14   15.97    1.06
  -2  -3  14   15.82    0.86
  -2  -3  14   17.66    0.93
  -2  -3  14   17.17    0.95
   1   3 -14    3.39    0.43
   1   3 -14    3.04    0.29
  -1  -3  14    3.17    0.32
  -1  -3  14    3.13    0.30
   0   3 -14   13.13    0.96
   0   3 -14   12.72    0.80
   0   3 -14   12.87    0.78
   0  -3  14   14.16    0.79
   0  -3  14   14.64    0.83
  -1   3 -14    5.35    0.43
  -1   3 -14    5.51    0.43
  -1   3 -14    5.49    0.55
   1  -3  14    5.86    0.46
   1  -3  14    5.76    0.42
  -2   3 -14    7.12    0.52
  -2   3 -14    7.00    0.56
  -2   3 -14    7.74    0.51
  -2   3 -14    7.39    0.63
   2  -3  14    7.24    0.52
   2  -3  14    7.42    0.49
  -3   3 -14   11.07    0.64
  -3   3 -14   11.12    0.73
  -3   3 -14   10.19    0.66
   3  -3  14   11.18    0.63
   4   2 -14   28.38    1.42
  -4  -2  14   28.27    1.41
   3   2 -14  121.37    5.52
  -3  -2  14  120.35    5.51
  -3  -2  14  119.05    5.55
   2   2 -14    2.33    0.25
   2   2 -14    1.96    0.35
  -2  -2  14    2.22    0.25
  -2  -2  14    1.97    0.27
   1   2 -14   45.35    2.03
   1   2 -14   41.80    2.24
   1   2 -14   38.04    1.99
  -1  -2  14   40.41    2.05
  -1  -2  14   39.59    2.01
   0   2 -14   26.70    1.46
   0   2 -14   28.94    1.67
   0  -2  14   28.24    1.48
   0  -2  14   28.42    1.44
  -1   2 -14    3.83    0.46
  -1   2 -14    3.87    0.41
   1  -2  14    3.84    0.33
   1  -2  14    3.27    0.35
  -2   2 -14   14.40    0.97
  -2   2 -14   14.15    0.90
  -2   2 -14   14.78    1.01
   2  -2  14   15.44    0.83
  -3   2 -14   64.38    3.15
  -3   2 -14   71.62    3.28
   3  -2  14   67.85    3.10
   3  -2  14   62.15    3.01
   4   1 -14   17.38    0.90
  -4  -1  14   16.15    0.87
  -4  -1  14   15.62    0.95
  -4  -1  14   16.10    0.92
   3   1 -14   22.08    1.39
   3   1 -14   24.55    1.28
  -3  -1  14   25.62    1.27
  -3  -1  14   25.24    1.32
  -3  -1  14   24.22    1.35
   2   1 -14    0.39    0.20
   2   1 -14    0.22    0.12
  -2  -1  14    0.28    0.12
  -2  -1  14    0.20    0.14
  -2  -1  14    0.37    0.15
   1   1 -14    2.06    0.39
  -1  -1  14    1.86    0.26
  -1  -1  14    1.63    0.22
  -1  -1  14    1.63    0.27
   0   1 -14  124.78    5.81
   0   1 -14  137.97    6.10
   0  -1  14  117.57    5.83
   0  -1  14  128.76    5.75
   0  -1  14  119.11    5.77
  -1   1 -14   51.23    2.66
  -1   1 -14   58.63    2.89
   1  -1  14   54.86    2.61
  -2   1 -14    1.82    0.48
  -2   1 -14    2.17    0.28
  -2   1 -14    1.77    0.31
   2  -1  14    1.73    0.21
  -3   1 -14    4.99    0.56
   3  -1  14    5.05    0.35
   5   0 -14    0.13    0.09
  -5   0  14    0.09    0.11
   4   0 -14   37.13    1.82
  -4   0  14   34.80    1.83
  -4   0  14   38.32    1.92
   3   0 -14    1.28    0.20
   3   0 -14    1.14    0.29
  -3   0  14    1.27    0.25
  -3   0  14    0.99    0.21
  -3   0  14    0.96    0.17
   2   0 -14    2.34    0.27
   2   0 -14    2.59    0.47
  -2   0  14    2.86    0.27
  -2   0  14    2.69    0.33
  -2   0  14    2.39    0.29
   1   0 -14    0.18    0.14
   1   0 -14    0.30    0.25
  -1   0  14    0.13    0.10
  -1   0  14    0.15    0.12
  -1   0  14    0.29    0.14
   0   0 -14    7.72    0.75
   0   0 -14    6.23    0.51
   0   0  14    6.84    0.55
   0   0  14    6.74    0.46
  -1   0 -14    0.38    0.15
  -1   0 -14    0.18    0.44
  -1   0 -14    0.23    0.20
   1   0  14    0.17    0.13
   1   0  14    0.20    0.10
   2   0  14    6.40    0.41
   2   0  14    5.84    0.46
   5  -1 -14   46.02    2.19
  -5   1  14   45.54    2.26
   4  -1 -14    0.45    0.13
  -4   1  14    0.21    0.13
  -4   1  14    0.14    0.13
   3  -1 -14    9.03    0.55
   3  -1 -14    8.56    0.77
  -3   1  14    8.53    0.63
  -3   1  14    7.21    0.55
   2  -1 -14    0.12    0.14
   2  -1 -14    0.46    0.32
  -2   1  14    0.24    0.14
   1  -1 -14    4.39    0.41
   1  -1 -14    5.67    0.73
  -1   1  14    4.90    0.45
   0  -1 -14    1.22    0.22
   0  -1 -14    1.42    0.38
   0   1  14    1.19    0.23
  -1  -1 -14    7.71    0.55
  -1  -1 -14    8.16    0.68
   1   1  14    7.99    0.57
   5  -2 -14    8.22    0.51
  -5   2  14    7.77    0.56
   4  -2 -14   12.45    0.71
  -4   2  14   12.17    0.78
   3  -2 -14    3.96    0.60
   3  -2 -14    3.34    0.30
  -3   2  14    3.15    0.35
   2  -2 -14    9.82    0.98
   2  -2 -14    8.51    0.61
  -2   2  14    9.97    0.68
   1  -2 -14   12.33    0.77
   1  -2 -14   13.67    1.13
  -1   2  14   12.58    0.82
   0  -2 -14   18.03    1.19
   0  -2 -14   15.73    0.95
   0   2  14   16.78    0.98
   1   2  14    9.63    0.72
  -4   3  14   63.49    3.04
   3  -3 -14   11.95    0.99
  -3   3  14   12.24    0.76
   2  -3 -14   20.15    1.40
  -2   3  14   19.40    1.11
   1  -3 -14    6.83    0.71
  -1   3  14    5.89    0.46
   1   4 -15   21.48    1.25
  -1  -4  15   22.60    1.11
   0   4 -15    3.05    0.36
   0   4 -15    2.78    0.26
   0   4 -15    2.47    0.24
   0  -4  15    2.55    0.24
  -1   4 -15    7.55    0.47
  -1   4 -15    7.93    0.61
  -1   4 -15    6.93    0.48
   1  -4  15    7.66    0.47
  -2   4 -15    0.02    0.12
  -2   4 -15    0.01    0.08
  -2   4 -15    0.30    0.10
   2  -4  15   -0.03    0.07
   2   3 -15    8.66    0.66
   2   3 -15    9.64    0.57
  -2  -3  15   10.41    0.57
   1   3 -15   39.96    2.06
   1   3 -15   36.19    1.86
  -1  -3  15   40.20    1.88
  -1  -3  15   38.72    1.91
   0   3 -15   18.75    1.13
   0   3 -15   16.78    0.93
   0   3 -15   15.37    0.93
   0  -3  15   18.01    0.94
   0  -3  15   18.61    0.98
  -1   3 -15   16.82    0.91
  -1   3 -15   15.05    0.91
  -1   3 -15   17.97    1.09
   1  -3  15   16.83    0.97
   1  -3  15   18.55    0.92
  -2   3 -15   21.71    1.16
  -2   3 -15   23.26    1.15
  -2   3 -15   22.14    1.27
   2  -3  15   22.97    1.14
   3   2 -15   16.41    0.89
  -3  -2  15   17.06    0.88
   2   2 -15    0.58    0.20
   2   2 -15    0.92    0.17
  -2  -2  15    0.57    0.13
  -2  -2  15    0.75    0.16
   1   2 -15   45.47    2.35
  -1  -2  15   43.66    2.18
  -1  -2  15   44.88    2.14
   0   2 -15    1.59    0.30
   0   2 -15    1.38    0.22
   0   2 -15    1.39    0.20
   0  -2  15    1.24    0.22
   0  -2  15    1.32    0.19
  -1   2 -15    4.28    0.37
  -1   2 -15    4.59    0.47
  -1   2 -15    4.84    0.37
   1  -2  15    4.48    0.34
  -2   2 -15    0.08    0.09
  -2   2 -15    0.12    0.14
  -2   2 -15    0.06    0.12
   2  -2  15    0.04    0.07
   3   1 -15   91.23    4.08
  -3  -1  15   92.89    4.40
  -3  -1  15   80.58    4.12
  -3  -1  15   89.62    4.06
   2   1 -15   23.60    1.23
   2   1 -15   26.06    1.43
  -2  -1  15   23.66    1.27
  -2  -1  15   22.56    1.29
  -2  -1  15   25.37    1.23
   1   1 -15  123.63    5.38
  -1  -1  15  113.90    5.11
  -1  -1  15  102.76    5.17
  -1  -1  15  106.71    5.14
   0   1 -15   15.90    1.01
   0   1 -15   13.23    0.81
   0  -1  15   14.12    0.79
  -1   1 -15   30.47    1.60
  -1   1 -15   32.70    1.73
   1  -1  15   31.26    1.54
   2  -1  15    5.80    0.37
   4   0 -15    2.35    0.23
  -4   0  15    2.41    0.28
   3   0 -15    2.41    0.25
   3   0 -15    2.54    0.34
  -3   0  15    2.60    0.30
   2   0 -15   10.54    0.78
  -2   0  15    9.61    0.65
  -2   0  15    8.66    0.58
  -2   0  15    9.28    0.55
   1   0 -15    0.58    0.23
  -1   0  15    0.32    0.14
  -1   0  15    0.46    0.12
   0   0 -15   12.25    0.85
   0   0  15   10.13    0.69
   0   0  15   10.23    0.61
  -1   0 -15    0.46    0.18
   1   0  15    0.35    0.10
   1   0  15    0.26    0.13
  -4   1  15   36.85    1.85
   3  -1 -15    7.86    0.63
   3  -1 -15    7.09    0.47
  -3   1  15    7.68    0.55
   2  -1 -15  141.44    6.39
  -2   1  15  126.97    6.18
   1  -1 -15    1.49    0.35
  -1   1  15    1.37    0.22
   0  -1 -15    6.66    0.58
   0   1  15    5.33    0.44
  -3   2  15   67.88    3.23
   2  -2 -15    6.11    0.61
  -2   2  15    5.37    0.44
   1  -2 -15    3.61    0.47
  -1   2  15    3.05    0.31
   0   3 -16    0.37    0.15
   0  -3  16    0.33    0.10
   1   2 -16    2.42    0.31
  -1  -2  16    2.36    0.22
   0   2 -16    0.45    0.16
   0  -2  16    0.40    0.11
   1   1 -16   65.18    3.07
  -1  -1  16   59.21    2.87
   0   1 -16   28.18    1.47
   0  -1  16   24.52    1.32
   2   0 -16   22.16    1.47
   1   0 -16   21.72    1.25
   0   0   0    0.00    0.00
;
_shelx_hkl_checksum              22515
_shelx_res_file
;
TITL msa9-final in P-1
 shelx.res created by SHELXL-2016/4 at 12:17:29 on 06-Apr-2017
CELL  1.54178   7.4855   8.1175  13.9643   98.151   95.566  114.952
ZERR     2.00   0.0005   0.0006   0.0010    0.002    0.002    0.002
LATT   1
SFAC  C    H    N    O    S    CL
UNIT  28 26 2 8 2 4
MERG   2
SIZE 0.19 0.24 0.27
OMIT    -1.00 180.00
OMIT    -1   1   0
OMIT    -1   0   1
OMIT     0  -1   1
OMIT     0   1   1
OMIT     1   0   0
OMIT     2   4  10
OMIT     0   0   1
OMIT     0   6   9
OMIT     1  -1   3
OMIT     3   3   9
OMIT     1   0   2
OMIT     0   5  10
DFIX 0.86 0.04 N1 H1
LIST 4
FMAP   2
PLAN   25
ACTA
BOND
BOND   $H
CONF
L.S.  88
TEMP    23.00
WGHT    0.063500    0.748500
FVAR       0.37389
C1    1    0.632522    0.718308    0.646371    11.00000    0.01134    0.01653 =
         0.01199    0.00055    0.00168    0.00512
C2    1    0.705748    0.588050    0.622290    11.00000    0.01323    0.01556 =
         0.01985    0.00444    0.00042    0.00623
C3    1    0.784636    0.585614    0.536541    11.00000    0.01623    0.01986 =
         0.02189    0.00157    0.00275    0.01109
AFIX  43
H3    2    0.835731    0.501147    0.519660    11.00000   -1.20000
AFIX   0
C4    1    0.788333    0.708073    0.475355    11.00000    0.01699    0.02175 =
         0.01552    0.00125    0.00448    0.00834
AFIX  43
H4    2    0.841093    0.704355    0.417915    11.00000   -1.20000
AFIX   0
C5    1    0.713484    0.835775    0.499816    11.00000    0.01412    0.01848 =
         0.01501    0.00508    0.00038    0.00701
C6    1    0.636163    0.841208    0.586182    11.00000    0.01377    0.01514 =
         0.01706    0.00162    0.00098    0.00684
AFIX  43
H6    2    0.587035    0.927038    0.603518    11.00000   -1.20000
AFIX   0
C7    1    0.894505    0.882856    0.864289    11.00000    0.01474    0.01815 =
         0.01042    0.00385    0.00439    0.00611
C8    1    1.049426    0.836668    0.892145    11.00000    0.01871    0.01565 =
         0.01165    0.00452    0.00443    0.00815
C9    1    1.247169    0.966686    0.912413    11.00000    0.01617    0.01940 =
         0.01452    0.00443    0.00432    0.00903
AFIX  43
H9    2    1.347917    0.933638    0.931681    11.00000   -1.20000
AFIX   0
C10   1    1.293118    1.147163    0.903591    11.00000    0.01670    0.01793 =
         0.01501    0.00415    0.00577    0.00435
C11   1    1.144700    1.199366    0.876953    11.00000    0.02334    0.01462 =
         0.01805    0.00535    0.00700    0.00814
AFIX  43
H11   2    1.177565    1.321279    0.871557    11.00000   -1.20000
AFIX   0
C12   1    0.945931    1.067370    0.858366    11.00000    0.01899    0.01891 =
         0.01641    0.00664    0.00441    0.01054
AFIX  43
H12   2    0.845496    1.102357    0.841716    11.00000   -1.20000
AFIX   0
C13   1    0.777803    0.345413    0.665692    11.00000    0.03492    0.02215 =
         0.02949    0.00545    0.00422    0.02140
AFIX 137
H13A  2    0.722237    0.271548    0.600547    11.00000   -1.50000
H13B  2    0.750793    0.265805    0.712533    11.00000   -1.50000
H13C  2    0.919816    0.415643    0.671122    11.00000   -1.50000
AFIX   0
C14   1    0.772014    0.944997    0.350434    11.00000    0.02329    0.03645 =
         0.01763    0.01259    0.00770    0.01426
AFIX 137
H14A  2    0.910104    0.968704    0.360573    11.00000   -1.50000
H14B  2    0.756342    1.033933    0.316222    11.00000   -1.50000
H14C  2    0.691959    0.822195    0.312121    11.00000   -1.50000
AFIX   0
N1    3    0.693480    0.745578    0.846300    11.00000    0.01597    0.01611 =
         0.01669    0.00775    0.00339    0.00687
O1    4    0.357294    0.555327    0.750849    11.00000    0.01248    0.02593 =
         0.02060    0.00591    0.00417    0.00459
O2    4    0.505496    0.896042    0.767664    11.00000    0.02354    0.02597 =
         0.01909    0.00480    0.00618    0.01778
O3    4    0.689389    0.469238    0.684845    11.00000    0.02567    0.01991 =
         0.02145    0.00812    0.00653    0.01503
O4    4    0.708516    0.960221    0.443946    11.00000    0.02632    0.02757 =
         0.01961    0.01287    0.00939    0.01576
S1    5    0.527431    0.727892    0.754073    11.00000    0.01273    0.01888 =
         0.01418    0.00401    0.00379    0.00805
CL1   6    1.543285    1.308176    0.926279    11.00000    0.01627    0.01985 =
         0.03227    0.00737    0.00475    0.00262
CL2   6    0.995832    0.611774    0.904658    11.00000    0.01833    0.01555 =
         0.02779    0.00824    0.00193    0.00718
H1    2    0.684414    0.642695    0.853945    11.00000    0.02344
HKLF 4  1.0  1.00  0.00  0.00  0.00  1.00  0.00  0.00  0.00  1.00
REM  msa9-final in P-1
REM R1 =  0.0340 for    2393 Fo > 4sig(Fo)  and  0.0348 for all    2452 data
REM    205 parameters refined using      1 restraints
END
WGHT      0.0493      0.8294
REM Highest difference peak  0.306,  deepest hole -0.387,  1-sigma level  0.069
Q1    1   0.6134  0.7408  0.6926  11.00000  0.05    0.31
Q2    1   0.7993  0.6223  0.9091  11.00000  0.05    0.28
Q3    1   1.3570  1.3219  0.9263  11.00000  0.05    0.27
Q4    1   0.5598  0.8140  0.6771  11.00000  0.05    0.26
Q5    1   1.1710  0.6024  0.8952  11.00000  0.05    0.26
Q6    1   0.8535  0.6009  0.9398  11.00000  0.05    0.25
Q7    1   1.0317  0.5366  0.8222  11.00000  0.05    0.24
Q8    1   0.7278  0.7438  0.7568  11.00000  0.05    0.23
Q9    1   0.3085  0.7076  0.7563  11.00000  0.05    0.23
Q10   1   0.8102  0.5693  0.8494  11.00000  0.05    0.22
Q11   1   1.7192  1.3006  0.8811  11.00000  0.05    0.22
Q12   1   1.5624  1.3618  0.8407  11.00000  0.05    0.22
Q13   1   0.3539  0.5817  0.7969  11.00000  0.05    0.21
Q14   1   1.5586  1.3224  1.0348  11.00000  0.05    0.21
Q15   1   0.6625  0.7697  0.8081  11.00000  0.05    0.21
Q16   1   0.6309  0.5021  0.9114  11.00000  0.05    0.21
Q17   1   1.2028  1.1733  0.9360  11.00000  0.05    0.21
Q18   1   1.2217  1.1538  0.8658  11.00000  0.05    0.21
Q19   1   0.7561  0.3414  0.7600  11.00000  0.05    0.20
Q20   1   1.5752  1.3921  1.0180  11.00000  0.05    0.20
Q21   1   0.5932  0.4312  0.5181  11.00000  0.05    0.20
Q22   1   0.8625  0.7014  0.8894  11.00000  0.05    0.20
Q23   1   1.7267  1.3070  0.9522  11.00000  0.05    0.20
Q24   1   1.0943  0.7101  0.8360  11.00000  0.05    0.20
Q25   1   1.0480  1.1377  0.9009  11.00000  0.05    0.20
;
_shelx_res_checksum              95627
loop_
_space_group_symop_operation_xyz
'x, y, z'
'-x, -y, -z'
loop_
_atom_site_type_symbol
_atom_site_label
_atom_site_fract_x
_atom_site_fract_y
_atom_site_fract_z
_atom_site_U_iso_or_equiv
_atom_site_adp_type
_atom_site_calc_flag
_atom_site_occupancy
C C1 0.6325(3) 0.7183(3) 0.64637(15) 0.0139(4) Uani d 1
C C2 0.7057(3) 0.5880(3) 0.62229(16) 0.0163(4) Uani d 1
C C3 0.7846(3) 0.5856(3) 0.53654(16) 0.0186(5) Uani d 1
H H3 0.835731 0.501147 0.519660 0.022 Uiso calc 1
C C4 0.7883(3) 0.7081(3) 0.47535(16) 0.0183(5) Uani d 1
H H4 0.841093 0.704355 0.417915 0.022 Uiso calc 1
C C5 0.7135(3) 0.8358(3) 0.49982(15) 0.0159(4) Uani d 1
C C6 0.6362(3) 0.8412(3) 0.58618(15) 0.0155(4) Uani d 1
H H6 0.587035 0.927038 0.603518 0.019 Uiso calc 1
C C7 0.8945(3) 0.8829(3) 0.86429(14) 0.0146(4) Uani d 1
C C8 1.0494(3) 0.8367(3) 0.89214(14) 0.0148(4) Uani d 1
C C9 1.2472(3) 0.9667(3) 0.91241(15) 0.0161(4) Uani d 1
H H9 1.347917 0.933638 0.931681 0.019 Uiso calc 1
C C10 1.2931(3) 1.1472(3) 0.90359(15) 0.0174(5) Uani d 1
C C11 1.1447(3) 1.1994(3) 0.87695(16) 0.0183(5) Uani d 1
H H11 1.177565 1.321279 0.871557 0.022 Uiso calc 1
C C12 0.9459(3) 1.0674(3) 0.85837(15) 0.0169(5) Uani d 1
H H12 0.845496 1.102357 0.841716 0.020 Uiso calc 1
C C13 0.7778(4) 0.3454(3) 0.66569(18) 0.0258(5) Uani d 1
H H13A 0.722237 0.271548 0.600547 0.039 Uiso calc 1
H H13B 0.750793 0.265805 0.712533 0.039 Uiso calc 1
H H13C 0.919816 0.415643 0.671122 0.039 Uiso calc 1
C C14 0.7720(4) 0.9450(4) 0.35043(17) 0.0243(5) Uani d 1
H H14A 0.910104 0.968704 0.360573 0.036 Uiso calc 1
H H14B 0.756342 1.033933 0.316222 0.036 Uiso calc 1
H H14C 0.691959 0.822195 0.312121 0.036 Uiso calc 1
N N1 0.6935(3) 0.7456(3) 0.84630(13) 0.0158(4) Uani d 1
O O1 0.3573(2) 0.5553(2) 0.75085(11) 0.0208(4) Uani d 1
O O2 0.5055(2) 0.8960(2) 0.76766(11) 0.0202(4) Uani d 1
O O3 0.6894(2) 0.4692(2) 0.68484(11) 0.0200(3) Uani d 1
O O4 0.7085(2) 0.9602(2) 0.44395(11) 0.0219(4) Uani d 1
S S1 0.52743(7) 0.72789(7) 0.75407(3) 0.01471(17) Uani d 1
Cl CL1 1.54329(8) 1.30818(7) 0.92628(4) 0.02443(18) Uani d 1
Cl CL2 0.99583(7) 0.61177(7) 0.90466(4) 0.02040(18) Uani d 1
H H1 0.684(4) 0.643(4) 0.854(2) 0.023(7) Uiso d 1
loop_
_atom_site_aniso_label
_atom_site_aniso_U_11
_atom_site_aniso_U_22
_atom_site_aniso_U_33
_atom_site_aniso_U_12
_atom_site_aniso_U_13
_atom_site_aniso_U_23
C1 0.0113(9) 0.0165(10) 0.0120(10) 0.0051(8) 0.0017(8) 0.0005(8)
C2 0.0132(10) 0.0156(11) 0.0198(11) 0.0062(8) 0.0004(8) 0.0044(9)
C3 0.0162(10) 0.0199(11) 0.0219(11) 0.0111(9) 0.0027(9) 0.0016(9)
C4 0.0170(11) 0.0217(12) 0.0155(10) 0.0083(9) 0.0045(8) 0.0012(9)
C5 0.0141(10) 0.0185(11) 0.0150(10) 0.0070(9) 0.0004(8) 0.0051(9)
C6 0.0138(10) 0.0151(11) 0.0171(10) 0.0068(9) 0.0010(8) 0.0016(8)
C7 0.0147(10) 0.0182(11) 0.0104(9) 0.0061(9) 0.0044(8) 0.0038(8)
C8 0.0187(11) 0.0157(11) 0.0116(10) 0.0082(9) 0.0044(8) 0.0045(8)
C9 0.0162(10) 0.0194(11) 0.0145(10) 0.0090(9) 0.0043(8) 0.0044(9)
C10 0.0167(11) 0.0179(11) 0.0150(10) 0.0043(9) 0.0058(8) 0.0041(9)
C11 0.0233(11) 0.0146(11) 0.0181(11) 0.0081(9) 0.0070(9) 0.0053(9)
C12 0.0190(11) 0.0189(11) 0.0164(10) 0.0105(9) 0.0044(8) 0.0066(9)
C13 0.0349(13) 0.0222(12) 0.0295(13) 0.0214(11) 0.0042(10) 0.0054(10)
C14 0.0233(12) 0.0364(14) 0.0176(11) 0.0143(11) 0.0077(9) 0.0126(10)
N1 0.0160(9) 0.0161(10) 0.0167(9) 0.0069(8) 0.0034(7) 0.0077(7)
O1 0.0125(7) 0.0259(9) 0.0206(8) 0.0046(7) 0.0042(6) 0.0059(7)
O2 0.0235(8) 0.0260(9) 0.0191(8) 0.0178(7) 0.0062(6) 0.0048(6)
O3 0.0257(8) 0.0199(8) 0.0215(8) 0.0150(7) 0.0065(6) 0.0081(6)
O4 0.0263(8) 0.0276(9) 0.0196(8) 0.0158(7) 0.0094(7) 0.0129(7)
S1 0.0127(3) 0.0189(3) 0.0142(3) 0.0080(2) 0.0038(2) 0.0040(2)
CL1 0.0163(3) 0.0199(3) 0.0323(3) 0.0026(2) 0.0048(2) 0.0074(2)
CL2 0.0183(3) 0.0155(3) 0.0278(3) 0.0072(2) 0.0019(2) 0.0082(2)
loop_
_atom_type_symbol
_atom_type_description
_atom_type_scat_dispersion_real
_atom_type_scat_dispersion_imag
_atom_type_scat_source
C C 0.0181 0.0091 'International Tables Vol C Tables 4.2.6.8 and 6.1.1.4'
H H 0.0000 0.0000 'International Tables Vol C Tables 4.2.6.8 and 6.1.1.4'
N N 0.0311 0.0180 'International Tables Vol C Tables 4.2.6.8 and 6.1.1.4'
O O 0.0492 0.0322 'International Tables Vol C Tables 4.2.6.8 and 6.1.1.4'
S S 0.3331 0.5567 'International Tables Vol C Tables 4.2.6.8 and 6.1.1.4'
Cl Cl 0.3639 0.7018 'International Tables Vol C Tables 4.2.6.8 and 6.1.1.4'
loop_
_geom_angle_atom_site_label_1
_geom_angle_atom_site_label_2
_geom_angle_atom_site_label_3
_geom_angle
C6 C1 C2 121.35(19)
C6 C1 S1 117.92(16)
C2 C1 S1 120.71(16)
O3 C2 C3 124.94(19)
O3 C2 C1 116.80(19)
C3 C2 C1 118.24(19)
C2 C3 C4 120.9(2)
C2 C3 H3 119.6
C4 C3 H3 119.6
C5 C4 C3 120.3(2)
C5 C4 H4 119.9
C3 C4 H4 119.9
O4 C5 C6 115.97(19)
O4 C5 C4 124.56(19)
C6 C5 C4 119.5(2)
C1 C6 C5 119.81(19)
C1 C6 H6 120.1
C5 C6 H6 120.1
C12 C7 C8 117.8(2)
C12 C7 N1 122.36(19)
C8 C7 N1 119.83(19)
C9 C8 C7 121.8(2)
C9 C8 CL2 117.90(16)
C7 C8 CL2 120.23(17)
C8 C9 C10 118.8(2)
C8 C9 H9 120.6
C10 C9 H9 120.6
C9 C10 C11 121.3(2)
C9 C10 CL1 118.36(17)
C11 C10 CL1 120.37(17)
C10 C11 C12 119.2(2)
C10 C11 H11 120.4
C12 C11 H11 120.4
C11 C12 C7 121.1(2)
C11 C12 H12 119.5
C7 C12 H12 119.5
O3 C13 H13A 109.5
O3 C13 H13B 109.5
H13A C13 H13B 109.5
O3 C13 H13C 109.5
H13A C13 H13C 109.5
H13B C13 H13C 109.5
O4 C14 H14A 109.5
O4 C14 H14B 109.5
H14A C14 H14B 109.5
O4 C14 H14C 109.5
H14A C14 H14C 109.5
H14B C14 H14C 109.5
C7 N1 S1 122.50(14)
C7 N1 H1 112(2)
S1 N1 H1 112(2)
C2 O3 C13 117.48(17)
C5 O4 C14 116.37(18)
O2 S1 O1 119.39(10)
O2 S1 N1 107.92(9)
O1 S1 N1 104.97(9)
O2 S1 C1 106.61(10)
O1 S1 C1 110.39(10)
N1 S1 C1 106.94(9)
loop_
_geom_bond_atom_site_label_1
_geom_bond_atom_site_label_2
_geom_bond_distance
C1 C6 1.386(3)
C1 C2 1.398(3)
C1 S1 1.771(2)
C2 O3 1.367(3)
C2 C3 1.387(3)
C3 C4 1.393(3)
C3 H3 0.9300
C4 C5 1.390(3)
C4 H4 0.9300
C5 O4 1.371(3)
C5 C6 1.390(3)
C6 H6 0.9300
C7 C12 1.398(3)
C7 C8 1.399(3)
C7 N1 1.415(3)
C8 C9 1.379(3)
C8 CL2 1.735(2)
C9 C10 1.383(3)
C9 H9 0.9300
C10 C11 1.383(3)
C10 CL1 1.737(2)
C11 C12 1.389(3)
C11 H11 0.9300
C12 H12 0.9300
C13 O3 1.428(3)
C13 H13A 0.9600
C13 H13B 0.9600
C13 H13C 0.9600
C14 O4 1.439(3)
C14 H14A 0.9600
C14 H14B 0.9600
C14 H14C 0.9600
N1 S1 1.6464(18)
N1 H1 0.83(3)
O1 S1 1.4325(16)
O2 S1 1.4310(16)
loop_
_geom_hbond_atom_site_label_D
_geom_hbond_atom_site_label_H
_geom_hbond_atom_site_label_A
_geom_hbond_site_symmetry_A
_geom_hbond_distance_DH
_geom_hbond_distance_HA
_geom_hbond_distance_DA
_geom_hbond_angle_DHA
N1 H1 Cl1 5_555 0.83(3) 2.50(3) 2.989(2) 119(3)
C12 H12 O2 5_555 0.93 2.40 3.038(3) 126
C14 H14B O2 2_676 0.96 2.49 3.302(3) 142
C14 H14A Cg 2_556 0.96 2.89 3.645(3) 136
loop_
_geom_torsion_atom_site_label_1
_geom_torsion_atom_site_label_2
_geom_torsion_atom_site_label_3
_geom_torsion_atom_site_label_4
_geom_torsion
C6 C1 C2 O3 -177.93(18)
S1 C1 C2 O3 0.8(3)
C6 C1 C2 C3 0.6(3)
S1 C1 C2 C3 179.37(16)
O3 C2 C3 C4 177.6(2)
C1 C2 C3 C4 -0.9(3)
C2 C3 C4 C5 0.3(3)
C3 C4 C5 O4 -179.2(2)
C3 C4 C5 C6 0.4(3)
C2 C1 C6 C5 0.1(3)
S1 C1 C6 C5 -178.64(16)
O4 C5 C6 C1 179.03(19)
C4 C5 C6 C1 -0.7(3)
C12 C7 C8 C9 -0.6(3)
N1 C7 C8 C9 -178.62(18)
C12 C7 C8 CL2 178.02(15)
N1 C7 C8 CL2 0.0(3)
C7 C8 C9 C10 -0.9(3)
CL2 C8 C9 C10 -179.54(15)
C8 C9 C10 C11 1.3(3)
C8 C9 C10 CL1 -178.37(15)
C9 C10 C11 C12 -0.3(3)
CL1 C10 C11 C12 179.42(16)
C10 C11 C12 C7 -1.3(3)
C8 C7 C12 C11 1.7(3)
N1 C7 C12 C11 179.65(18)
C12 C7 N1 S1 43.3(3)
C8 C7 N1 S1 -138.80(17)
C3 C2 O3 C13 6.5(3)
C1 C2 O3 C13 -175.07(19)
C6 C5 O4 C14 -174.79(19)
C4 C5 O4 C14 4.9(3)
C7 N1 S1 O2 -61.92(19)
C7 N1 S1 O1 169.74(16)
C7 N1 S1 C1 52.45(19)
C6 C1 S1 O2 -12.68(19)
C2 C1 S1 O2 168.52(17)
C6 C1 S1 O1 118.41(17)
C2 C1 S1 O1 -60.38(19)
C6 C1 S1 N1 -127.93(17)
C2 C1 S1 N1 53.3(2)
