#------------------------------------------------------------------------------
#$Date: 2019-12-26 21:59:38 +0200 (Thu, 26 Dec 2019) $
#$Revision: 246130 $
#$URL: file:///home/coder/svn-repositories/cod/cif/2/31/18/2311838.cif $
#------------------------------------------------------------------------------
#
# This file is available in the Crystallography Open Database (COD),
# http://www.crystallography.net/. The original data for this entry
# were provided by IUCr Journals, http://journals.iucr.org/.
#
# The file may be used within the scientific community so long as
# proper attribution is given to the journal article from which the
# data were obtained.
#
data_2311838
loop_
_publ_author_name
'Praveen, Aletti S.'
'Yathirajan, Hemmige S.'
'Kaur, Manpreet'
'Narayana, Badiadka'
'Hosten, Eric C.'
'Betz, Richard'
'Glidewell, Christopher'
_publ_section_title
;
 Different patterns of supramolecular assembly in constitutionally similar
 6-arylimidazo[2,1-b][1,3,4]thiadiazoles.
;
_journal_coeditor_code           SK3560
_journal_issue                   'Pt 9'
_journal_name_full
'Acta crystallographica. Section C, Structural chemistry'
_journal_page_first              920
_journal_page_last               926
_journal_paper_doi               10.1107/S2053229614018762
_journal_volume                  70
_journal_year                    2014
_chemical_formula_iupac          'C10 H5 Cl2 N3 S'
_chemical_formula_moiety         'C10 H5 Cl2 N3 S'
_chemical_formula_sum            'C10 H5 Cl2 N3 S'
_chemical_formula_weight         270.13
_chemical_name_systematic
;
6-(3,4-Dichlorophenyl)imidazo[2,1-<i>b</i>][1,3,4]thiadiazole
;
_space_group_crystal_system      triclinic
_space_group_IT_number           2
_space_group_name_Hall           '-P 1'
_space_group_name_H-M_alt        'P -1'
_atom_sites_solution_hydrogens   geom
_audit_creation_method           SHELXL-2014
_cell_angle_alpha                102.027(2)
_cell_angle_beta                 91.293(2)
_cell_angle_gamma                98.430(2)
_cell_formula_units_Z            2
_cell_length_a                   5.5186(2)
_cell_length_b                   7.5194(3)
_cell_length_c                   12.8406(5)
_cell_measurement_reflns_used    2453
_cell_measurement_temperature    200(2)
_cell_measurement_theta_max      28.284
_cell_measurement_theta_min      1.624
_cell_volume                     514.74(3)
_computing_cell_refinement       'SAINT (Bruker, 2010)'
_computing_data_collection       'APEX2 (Bruker, 2010)'
_computing_data_reduction        'SAINT (Bruker, 2010)'
_computing_molecular_graphics    'PLATON (Spek, 2009)'
_computing_publication_material
'SHELXL2014 (Sheldrick, 2014) and PLATON (Spek, 2009)'
_computing_structure_refinement  'SHELXL2014 (Sheldrick, 2014)'
_computing_structure_solution    'SHELXS97 (Sheldrick, 2008)'
_diffrn_ambient_temperature      200(2)
_diffrn_measured_fraction_theta_full 0.984
_diffrn_measured_fraction_theta_max 0.957
_diffrn_measurement_device_type  'Bruker APEXII CCD'
_diffrn_measurement_method       '\f and \w scans'
_diffrn_radiation_type           MoK\a
_diffrn_radiation_wavelength     0.71073
_diffrn_reflns_av_R_equivalents  0.0168
_diffrn_reflns_limit_h_max       7
_diffrn_reflns_limit_h_min       -7
_diffrn_reflns_limit_k_max       9
_diffrn_reflns_limit_k_min       -10
_diffrn_reflns_limit_l_max       16
_diffrn_reflns_limit_l_min       -16
_diffrn_reflns_number            12326
_diffrn_reflns_theta_full        25.242
_diffrn_reflns_theta_max         28.284
_diffrn_reflns_theta_min         1.624
_exptl_absorpt_coefficient_mu    0.802
_exptl_absorpt_correction_T_max  0.794
_exptl_absorpt_correction_T_min  0.747
_exptl_absorpt_correction_type   multi-scan
_exptl_absorpt_process_details
;
(SADABS; Sheldrick, 2003)
;
_exptl_crystal_colour            colourless
_exptl_crystal_density_diffrn    1.743
_exptl_crystal_description       block
_exptl_crystal_F_000             272
_exptl_crystal_size_max          0.386
_exptl_crystal_size_mid          0.378
_exptl_crystal_size_min          0.301
_refine_diff_density_max         0.361
_refine_diff_density_min         -0.327
_refine_ls_extinction_method     none
_refine_ls_goodness_of_fit_ref   1.116
_refine_ls_hydrogen_treatment    constr
_refine_ls_matrix_type           full
_refine_ls_number_parameters     145
_refine_ls_number_reflns         2453
_refine_ls_number_restraints     0
_refine_ls_restrained_S_all      1.116
_refine_ls_R_factor_all          0.0305
_refine_ls_R_factor_gt           0.0271
_refine_ls_shift/su_max          0.000
_refine_ls_shift/su_mean         0.000
_refine_ls_structure_factor_coef Fsqd
_refine_ls_weighting_details
'w=1/[\s^2^(Fo^2^)+(0.0289P)^2^+0.2696P] where P=(Fo^2^+2Fc^2^)/3'
_refine_ls_weighting_scheme      calc
_refine_ls_wR_factor_gt          0.0667
_refine_ls_wR_factor_ref         0.0710
_reflns_number_gt                2254
_reflns_number_total             2453
_reflns_threshold_expression     I>2\s(I)
_cod_data_source_file            sk3560sup1.cif
_cod_data_source_block           III
_cod_database_code               2311838
_shelx_space_group_comment
;
The symmetry employed for this shelxl refinement is uniquely defined
by the following loop, which should always be used as a source of
symmetry information in preference to the above space-group names.
They are only intended as comments.
;
_shelx_estimated_absorpt_t_min   0.747
_shelx_estimated_absorpt_t_max   0.794
_shelx_hkl_file
;
  -2   0   0  655.64   14.27
  -2   0   0  666.35   14.92
  -2   0   0  650.46   17.98
  -2   0   0  657.55   13.10
  -2   0   0  683.36   14.18
  -2   0   0  649.07   12.02
  -2   0   0  640.90   12.07
   2   0   0  655.73   12.04
   2   0   0  641.24   12.04
   2   0   0  630.10   14.22
   2   0   0  652.65   14.24
   2   0   0  658.49   14.24
   2   0   0  666.56   13.06
  -3   0   0    8.19    0.25
  -3   0   0    7.67    0.21
  -3   0   0    8.13    0.24
  -3   0   0    7.73    0.25
  -3   0   0    7.67    0.27
  -3   0   0    7.89    0.20
   3   0   0    7.82    0.19
   3   0   0    7.88    0.25
   3   0   0    7.45    0.23
   3   0   0    7.87    0.19
   3   0   0    7.96    0.19
   3   0   0    8.64    0.23
  -4   0   0   20.00    0.52
  -4   0   0   19.36    0.52
  -4   0   0   19.88    0.46
  -4   0   0   18.51    0.61
  -4   0   0   20.17    0.54
   4   0   0   19.80    0.41
   4   0   0   19.72    0.49
   4   0   0   19.34    0.41
   4   0   0   19.68    0.52
   4   0   0   19.61    0.50
  -5   0   0    6.50    0.26
  -5   0   0    5.93    0.26
  -5   0   0    5.98    0.24
  -5   0   0    5.65    0.28
   5   0   0    5.74    0.24
   5   0   0    5.58    0.19
  -6   0   0    5.57    0.32
  -6   0   0    5.97    0.31
   6   0   0    6.30    0.19
   6   0   0    5.88    0.28
  -7   0   0    0.16    0.15
  -7   1   0   -0.28    0.17
  -7   1   0    0.10    0.15
   6  -1   0    0.76    0.10
   6  -1   0    0.81    0.13
  -6   1   0    0.71    0.16
  -6   1   0    0.60    0.15
   5  -1   0    8.91    0.31
   5  -1   0    8.73    0.31
   5  -1   0    8.59    0.25
  -5   1   0    8.68    0.37
  -5   1   0    9.77    0.32
  -5   1   0    8.99    0.34
  -5   1   0    9.24    0.32
  -5   1   0    8.77    0.29
   4  -1   0    0.55    0.06
   4  -1   0    1.01    0.13
   4  -1   0    0.58    0.09
   4  -1   0    0.37    0.10
   4  -1   0    1.03    0.11
   4  -1   0    0.85    0.09
  -4   1   0    0.54    0.10
  -4   1   0    0.17    0.11
  -4   1   0    0.66    0.09
  -4   1   0    0.56    0.08
   3  -1   0  101.83    2.24
   3  -1   0  102.88    2.24
   3  -1   0  100.11    1.90
   3  -1   0   94.54    2.80
   3  -1   0  100.49    1.90
   3  -1   0   99.81    2.24
   3  -1   0  104.77    2.33
   3  -1   0  101.25    2.05
  -3   1   0  102.98    2.07
  -3   1   0  102.47    2.35
  -3   1   0  101.80    2.83
  -3   1   0  104.19    2.25
  -3   1   0  106.44    2.44
   2  -1   0  108.26    2.02
   2  -1   0  111.11    2.38
   2  -1   0  110.26    2.19
   2  -1   0  109.31    2.38
   2  -1   0  106.01    2.02
   2  -1   0  106.04    3.00
   2  -1   0  112.01    2.49
   2  -1   0  107.70    2.38
  -2   1   0  109.18    2.38
  -2   1   0  108.01    2.02
  -2   1   0  111.49    2.50
  -2   1   0  108.57    3.01
  -2   1   0  108.91    2.38
  -2   1   0  110.94    2.20
  -2   1   0  109.31    2.20
  -2   1   0  108.02    2.38
   1  -1   0    6.89    0.18
   1  -1   0    6.78    0.18
   1  -1   0    6.69    0.16
   1  -1   0    6.59    0.18
   1  -1   0    6.93    0.17
   1  -1   0    6.65    0.22
   1  -1   0    7.05    0.17
  -1   1   0    7.10    0.17
  -1   1   0    6.96    0.18
  -1   1   0    6.64    0.16
  -1   1   0    6.84    0.23
  -1   1   0    6.89    0.18
  -1   1   0    7.05    0.17
   0  -1   0    2.31    0.07
   0  -1   0    1.95    0.06
   0  -1   0    2.25    0.09
   0  -1   0    2.15    0.06
   0  -1   0    2.16    0.07
   0   1   0    2.22    0.07
   0   1   0    2.24    0.07
   0   1   0    2.18    0.07
   0   1   0    2.40    0.09
   0   1   0    2.21    0.08
   0   1   0    2.28    0.06
  -1  -1   0    7.26    0.16
  -1  -1   0    7.43    0.17
  -1  -1   0    7.19    0.20
  -1  -1   0    7.06    0.16
  -1  -1   0    6.91    0.15
   1   1   0    7.04    0.20
   1   1   0    6.80    0.15
   1   1   0    7.11    0.16
   1   1   0    7.00    0.15
   1   1   0    7.04    0.18
  -2  -1   0  138.86    2.61
  -2  -1   0  144.12    2.84
  -2  -1   0  145.86    3.23
  -2  -1   0  137.47    3.89
  -2  -1   0  144.96    3.10
  -2  -1   0  141.07    2.62
   2   1   0  141.48    2.61
   2   1   0  139.51    2.61
   2   1   0  143.30    3.10
   2   1   0  143.15    3.09
   2   1   0  141.46    2.83
  -3  -1   0   35.18    0.70
  -3  -1   0   35.36    0.88
  -3  -1   0   36.52    0.84
  -3  -1   0   37.19    0.86
  -3  -1   0   35.76    0.76
  -3  -1   0   35.23    1.03
   3   1   0   35.86    0.69
   3   1   0   36.10    0.84
   3   1   0   35.52    0.69
   3   1   0   36.19    0.82
  -4  -1   0    0.26    0.10
  -4  -1   0    0.15    0.07
  -4  -1   0    0.17    0.07
  -4  -1   0    0.14    0.09
  -4  -1   0   -0.11    0.08
  -4  -1   0    0.18    0.06
   4   1   0    0.17    0.06
   4   1   0    0.13    0.07
   4   1   0    0.33    0.05
  -5  -1   0    0.37    0.11
  -5  -1   0    0.37    0.08
  -5  -1   0    0.53    0.12
  -5  -1   0    0.37    0.09
   5   1   0    0.39    0.09
   5   1   0    0.36    0.07
  -6  -1   0    0.10    0.14
  -6  -1   0   -0.30    0.13
   6   1   0   -0.25    0.11
  -7  -1   0    0.57    0.17
  -7   2   0    0.82    0.20
   6  -2   0    0.15    0.12
   6  -2   0    0.17    0.10
  -6   2   0    0.23    0.13
  -6   2   0    0.02    0.15
   5  -2   0    6.15    0.27
   5  -2   0    6.02    0.26
   5  -2   0    5.93    0.19
   5  -2   0    5.90    0.21
  -5   2   0    5.90    0.31
  -5   2   0    6.31    0.24
  -5   2   0    5.90    0.30
  -5   2   0    6.38    0.27
   4  -2   0    5.12    0.18
   4  -2   0    4.76    0.21
   4  -2   0    4.84    0.17
   4  -2   0    5.28    0.22
   4  -2   0    5.15    0.17
   4  -2   0    5.30    0.21
  -4   2   0    4.79    0.22
  -4   2   0    5.21    0.20
  -4   2   0    4.81    0.25
  -4   2   0    5.52    0.20
  -4   2   0    4.74    0.24
   3  -2   0  343.21    6.97
   3  -2   0  335.53    9.60
   3  -2   0  356.23    7.65
   3  -2   0  351.84    7.59
   3  -2   0  351.76    6.42
   3  -2   0  332.22    7.58
   3  -2   0  365.72    7.97
  -3   2   0  359.00    8.21
  -3   2   0  349.46    6.98
  -3   2   0  350.01    9.67
  -3   2   0  348.64    6.99
   2  -2   0   19.88    0.44
   2  -2   0   19.31    0.44
   2  -2   0   19.31    0.41
   2  -2   0   19.62    0.47
   2  -2   0   19.91    0.49
   2  -2   0   19.31    0.48
   2  -2   0   19.19    0.47
   2  -2   0   18.99    0.59
  -2   2   0   19.55    0.47
  -2   2   0   19.79    0.44
  -2   2   0   19.71    0.44
  -2   2   0   19.65    0.47
  -2   2   0   19.64    0.60
  -1  -2   0  337.02    7.46
  -1  -2   0  334.33    6.27
  -1  -2   0  337.67    6.85
  -1  -2   0  346.95    6.81
  -1  -2   0  344.15    7.35
   1   2   0  344.18    7.37
   1   2   0  342.85    6.82
   1   2   0  338.47    6.23
   1   2   0  333.48    6.78
   1   2   0  334.60    6.28
  -2  -2   0    3.74    0.13
  -2  -2   0    3.63    0.13
  -2  -2   0    3.49    0.12
  -2  -2   0    3.48    0.16
   2   2   0    3.64    0.11
   2   2   0    3.57    0.17
   2   2   0    3.74    0.14
   2   2   0    3.66    0.11
   2   2   0    3.68    0.10
  -3  -2   0   53.14    1.05
  -3  -2   0   55.61    1.27
  -3  -2   0   53.48    1.55
  -3  -2   0   54.64    1.14
  -3  -2   0   56.54    1.29
   3   2   0   55.41    1.24
   3   2   0   54.99    1.26
   3   2   0   54.88    1.04
  -4  -2   0   12.92    0.33
  -4  -2   0   12.84    0.31
  -4  -2   0   12.49    0.43
  -4  -2   0   12.95    0.39
  -4  -2   0   13.36    0.37
   4   2   0   12.87    0.28
   4   2   0   12.73    0.28
   4   2   0   12.64    0.35
  -5  -2   0   19.18    0.53
  -5  -2   0   18.41    0.43
  -5  -2   0   18.59    0.54
  -5  -2   0   17.43    0.61
   5   2   0   18.88    0.50
  -6  -2   0    0.25    0.14
  -6  -2   0    0.12    0.14
   6   2   0    0.08    0.11
   7  -3   0    0.25    0.12
   6  -3   0    9.26    0.29
   6  -3   0    8.99    0.26
   6  -3   0    9.15    0.37
  -6   3   0    8.88    0.43
   5  -3   0    5.36    0.20
   5  -3   0    5.84    0.27
   5  -3   0    5.96    0.27
   5  -3   0    5.60    0.19
   5  -3   0    5.74    0.22
  -5   3   0    5.40    0.31
  -5   3   0    5.33    0.24
   4  -3   0   20.55    0.54
   4  -3   0   20.46    0.46
   4  -3   0   20.16    0.54
   4  -3   0   21.33    0.54
   4  -3   0   20.24    0.48
  -4   3   0   20.46    0.50
  -4   3   0   20.95    0.51
  -4   3   0   20.25    0.67
  -4   3   0   20.41    0.60
   3  -3   0   85.83    2.42
   3  -3   0   88.51    2.01
   3  -3   0   83.85    1.64
   3  -3   0   85.95    1.92
   3  -3   0   85.02    1.93
   3  -3   0   86.22    1.93
   3  -3   0   84.90    1.77
  -3   3   0   87.31    2.10
  -3   3   0   86.25    1.78
  -3   3   0   86.83    2.44
  -3   3   0   86.65    1.92
  -3   3   0   87.34    1.78
   2  -3   0   17.12    0.37
   2  -3   0   16.80    0.53
   2  -3   0   16.56    0.43
   2  -3   0   16.44    0.43
   2  -3   0   16.84    0.40
   2  -3   0   16.85    0.40
  -2   3   0   16.89    0.40
  -2   3   0   17.58    0.43
  -2   3   0   17.37    0.54
  -2   3   0   16.79    0.48
  -2   3   0   16.85    0.40
  -2   3   0   16.84    0.43
   1  -3   0    0.28    0.06
   1  -3   0    0.33    0.07
   1  -3   0    0.49    0.10
   1  -3   0    0.36    0.07
   1  -3   0    0.35    0.09
  -1   3   0    0.53    0.11
  -1   3   0    0.37    0.09
  -1   3   0    0.54    0.11
  -1   3   0    0.31    0.08
  -1   3   0    0.49    0.12
   0  -3   0   23.36    0.55
   0  -3   0   23.56    0.51
   0  -3   0   22.64    0.47
   0  -3   0   23.48    0.51
   0  -3   0   23.38    0.70
   0   3   0   23.90    0.51
   0   3   0   23.05    0.47
   0   3   0   24.03    0.70
   0   3   0   23.91    0.59
   0   3   0   23.41    0.51
   0   3   0   23.27    0.56
  -1  -3   0   15.06    0.32
  -1  -3   0   14.52    0.34
  -1  -3   0   14.89    0.39
  -1  -3   0   14.75    0.34
  -1  -3   0   14.86    0.47
   1   3   0   14.89    0.33
   1   3   0   14.77    0.32
   1   3   0   14.80    0.32
   1   3   0   15.05    0.37
   1   3   0   14.80    0.33
  -2  -3   0   85.45    1.88
  -2  -3   0   84.75    1.94
  -2  -3   0   82.99    1.57
  -2  -3   0   82.71    1.71
   2   3   0   83.76    1.69
   2   3   0   83.63    1.57
   2   3   0   82.48    1.69
   2   3   0   82.45    1.56
   2   3   0   85.49    1.86
  -3  -3   0   14.30    0.47
  -3  -3   0   13.95    0.42
  -3  -3   0   14.70    0.34
  -3  -3   0   15.01    0.36
  -3  -3   0   15.13    0.40
   3   3   0   14.48    0.39
   3   3   0   14.68    0.32
   3   3   0   14.54    0.31
  -4  -3   0    1.11    0.09
  -4  -3   0    1.01    0.14
  -4  -3   0    1.28    0.13
  -4  -3   0    1.17    0.15
   4   3   0    1.15    0.10
   4   3   0    0.92    0.10
  -5  -3   0   -0.20    0.12
  -5  -3   0   -0.09    0.11
   5   3   0   -0.03    0.10
  -6  -3   0    2.88    0.26
   7  -4   0   -0.33    0.12
   6  -4   0    2.08    0.19
  -6   4   0    2.33    0.28
   5  -4   0    1.19    0.14
   5  -4   0    1.07    0.12
   5  -4   0    1.13    0.13
   5  -4   0    1.16    0.14
  -5   4   0    1.06    0.14
  -5   4   0    1.20    0.18
   4  -4   0  118.25    2.22
   4  -4   0  118.97    2.72
   4  -4   0  114.13    2.62
   4  -4   0  118.76    2.62
   4  -4   0  110.82    2.40
  -4   4   0  117.98    3.31
  -4   4   0  118.38    2.42
  -4   4   0  116.91    2.42
   3  -4   0   12.73    0.46
   3  -4   0   13.41    0.38
   3  -4   0   12.87    0.38
   3  -4   0   13.23    0.38
   3  -4   0   13.23    0.33
   3  -4   0   13.31    0.35
   3  -4   0   13.92    0.35
  -3   4   0   13.11    0.37
  -3   4   0   13.25    0.36
  -3   4   0   13.42    0.36
  -3   4   0   13.31    0.48
   2  -4   0  943.45   21.22
   2  -4   0  975.23   19.64
   2  -4   0  967.16   18.05
   2  -4   0  966.60   19.59
   2  -4   0  973.21   26.90
   2  -4   0  980.43   21.30
  -2   4   0  962.43   19.62
  -2   4   0  999.15   19.59
  -2   4   0 1000.00   21.22
  -2   4   0  971.17   26.90
  -2   4   0  982.80   23.04
  -2   4   0  969.83   21.25
   1  -4   0  943.42   17.11
   1  -4   0  919.24   18.60
   1  -4   0  906.51   18.55
   1  -4   0  910.12   20.11
   1  -4   0  915.46   25.52
  -1   4   0  921.03   20.15
  -1   4   0  952.22   20.16
  -1   4   0  942.07   21.81
  -1   4   0  914.85   18.61
  -1   4   0  913.32   18.57
   0  -4   0   19.35    0.45
   0  -4   0   19.05    0.48
   0  -4   0   18.80    0.42
   0  -4   0   19.07    0.45
   0  -4   0   19.16    0.60
   0   4   0   18.70    0.48
   0   4   0   19.04    0.44
   0   4   0   19.02    0.44
   0   4   0   19.26    0.51
   0   4   0   18.95    0.48
   0   4   0   19.63    0.60
  -1  -4   0   -0.06    0.08
  -1  -4   0    0.06    0.06
  -1  -4   0   -0.01    0.05
  -1  -4   0   -0.07    0.06
  -1  -4   0    0.10    0.08
   1   4   0    0.07    0.06
   1   4   0    0.01    0.06
   1   4   0    0.01    0.04
   1   4   0    0.02    0.05
   1   4   0    0.10    0.06
  -2  -4   0   85.63    1.93
  -2  -4   0   86.28    1.76
  -2  -4   0   84.61    1.62
   2   4   0   86.57    1.60
   2   4   0   86.02    1.90
   2   4   0   86.07    1.73
   2   4   0   80.51    1.72
   2   4   0   86.07    1.61
  -3  -4   0    6.53    0.28
  -3  -4   0    6.77    0.23
  -3  -4   0    7.02    0.25
  -3  -4   0    6.74    0.21
   3   4   0    6.87    0.19
   3   4   0    6.69    0.19
   3   4   0    6.89    0.24
  -4  -4   0   28.31    0.74
  -4  -4   0   27.72    0.88
  -4  -4   0   27.61    0.61
  -4  -4   0   28.45    0.76
   4   4   0   28.59    0.56
   4   4   0   28.42    0.71
  -5  -4   0    0.21    0.13
  -5  -4   0    0.09    0.14
   5   4   0    0.25    0.11
  -6  -4   0   -0.01    0.16
   6  -5   0    6.39    0.28
   5  -5   0    0.60    0.11
   5  -5   0    0.60    0.12
  -5   5   0    0.65    0.13
  -5   5   0    0.64    0.17
   4  -5   0   27.72    0.73
   4  -5   0   28.54    0.74
   4  -5   0   27.80    0.67
   4  -5   0   26.73    0.66
   4  -5   0   28.13    0.63
  -4   5   0   28.78    0.92
  -4   5   0   28.26    0.68
   3  -5   0   14.30    0.51
   3  -5   0   14.09    0.43
   3  -5   0   13.85    0.37
   3  -5   0   14.15    0.43
   3  -5   0   14.11    0.39
   3  -5   0   14.03    0.38
  -3   5   0   14.83    0.53
  -3   5   0   13.73    0.47
  -3   5   0   14.67    0.42
  -3   5   0   14.19    0.39
  -3   5   0   14.49    0.39
   2  -5   0    0.10    0.05
   2  -5   0    0.26    0.08
   2  -5   0    0.27    0.08
   2  -5   0    0.19    0.10
   2  -5   0    0.20    0.08
   2  -5   0    0.21    0.08
  -2   5   0    0.16    0.10
  -2   5   0    0.07    0.08
  -2   5   0    0.23    0.09
  -2   5   0    0.20    0.09
  -2   5   0    0.23    0.11
   1  -5   0   22.35    0.71
   1  -5   0   21.92    0.53
   1  -5   0   21.94    0.57
   1  -5   0   22.05    0.53
   1  -5   0   21.98    0.49
  -1   5   0   22.14    0.61
  -1   5   0   22.75    0.57
  -1   5   0   22.23    0.52
  -1   5   0   21.80    0.52
  -1   5   0   22.48    0.57
  -1   5   0   22.53    0.71
   0  -5   0   14.17    0.37
   0  -5   0   13.98    0.37
   0  -5   0   14.26    0.49
   0  -5   0   14.18    0.35
   0   5   0   14.18    0.36
   0   5   0   13.82    0.41
   0   5   0   14.71    0.36
   0   5   0   14.85    0.49
   0   5   0   14.62    0.41
   0   5   0   14.57    0.40
  -1  -5   0   37.13    0.76
  -1  -5   0   37.16    1.11
  -1  -5   0   37.83    0.82
  -1  -5   0   37.71    0.82
  -1  -5   0   36.88    0.91
   1   5   0   36.16    0.91
   1   5   0   36.67    0.80
   1   5   0   37.24    0.80
   1   5   0   37.62    0.75
   1   5   0   37.95    0.89
  -2  -5   0   43.02    1.26
  -2  -5   0   43.15    0.86
  -2  -5   0   42.52    1.04
  -2  -5   0   42.20    0.93
  -2  -5   0   41.75    1.05
   2   5   0   42.09    0.84
   2   5   0   43.54    0.84
   2   5   0   43.55    1.00
   2   5   0   38.79    0.88
   2   5   0   43.23    0.89
  -3  -5   0    9.06    0.32
  -3  -5   0    9.02    0.34
  -3  -5   0    8.58    0.27
   3   5   0    8.88    0.31
   3   5   0    8.92    0.24
  -4  -5   0    0.54    0.14
  -4  -5   0    0.41    0.15
   4   5   0    0.53    0.12
   4   5   0    0.70    0.07
  -5  -5   0    2.22    0.25
  -5  -5   0    2.40    0.26
   6  -6   0   -0.07    0.13
   5  -6   0   25.71    0.61
  -5   6   0   25.26    0.67
   4  -6   0   14.97    0.42
   4  -6   0   14.76    0.40
   4  -6   0   14.12    0.41
  -4   6   0   14.01    0.42
   3  -6   0  124.37    2.65
   3  -6   0  129.57    2.65
   3  -6   0  130.35    3.62
   3  -6   0  128.51    2.45
  -3   6   0  129.17    3.63
  -3   6   0  123.41    2.65
  -3   6   0  130.91    2.66
   2  -6   0  253.50    4.64
   2  -6   0  250.77    5.04
   2  -6   0  254.32    6.90
   2  -6   0  245.55    5.03
  -2   6   0  223.78    6.89
  -2   6   0  251.86    5.46
  -2   6   0  239.28    5.03
  -2   6   0  260.60    5.91
  -2   6   0  259.75    5.04
   1  -6   0    3.26    0.22
   1  -6   0    3.11    0.25
   1  -6   0    2.95    0.19
   1  -6   0    2.85    0.18
  -1   6   0    2.87    0.17
  -1   6   0    3.39    0.19
  -1   6   0    2.33    0.21
  -1   6   0    3.16    0.26
  -1   6   0    3.36    0.22
  -1   6   0    2.88    0.22
   0  -6   0    4.46    0.21
   0  -6   0    4.40    0.27
   0  -6   0    4.60    0.21
   0  -6   0    4.59    0.20
   0   6   0    4.46    0.24
   0   6   0    4.14    0.20
   0   6   0    4.56    0.19
   0   6   0    4.91    0.21
   0   6   0    4.64    0.24
  -1  -6   0   69.65    1.48
  -1  -6   0   68.97    1.62
  -1  -6   0   70.22    1.37
  -1  -6   0   70.06    2.02
   1   6   0   69.91    1.35
   1   6   0   69.33    1.45
   1   6   0   71.19    1.45
   1   6   0   67.10    1.67
   1   6   0   69.88    1.60
  -2  -6   0    0.04    0.09
  -2  -6   0    0.09    0.13
  -2  -6   0    0.03    0.09
  -2  -6   0   -0.11    0.12
   2   6   0    0.11    0.10
   2   6   0    0.01    0.08
   2   6   0   -0.01    0.07
  -3  -6   0   20.13    0.48
  -3  -6   0   19.22    0.59
   3   6   0   19.15    0.55
   3   6   0   19.55    0.44
  -4  -6   0    0.00    0.14
  -4  -6   0   -0.14    0.14
   5  -7   0    4.36    0.26
   4  -7   0    4.92    0.26
  -4   7   0    4.85    0.26
   3  -7   0    0.52    0.13
   3  -7   0    0.45    0.12
   3  -7   0    0.14    0.11
  -3   7   0    0.21    0.12
   2  -7   0    8.34    0.31
   2  -7   0    8.50    0.30
  -2   7   0    8.14    0.30
  -2   7   0    8.49    0.31
   1  -7   0   34.46    0.75
   1  -7   0   34.41    0.81
  -1   7   0   34.40    0.93
  -1   7   0   34.64    0.87
  -1   7   0   33.23    0.79
  -1   7   0   35.46    0.80
   0  -7   0    1.53    0.18
   0  -7   0    1.26    0.13
   0   7   0    1.36    0.13
   0   7   0    1.25    0.15
   0   7   0    1.06    0.14
   0   7   0    1.19    0.15
  -1  -7   0   33.69    0.90
  -1  -7   0   34.10    0.75
   1   7   0   34.57    0.77
   1   7   0   34.71    0.88
   1   7   0   35.06    0.74
  -2  -7   0   13.95    0.47
  -2  -7   0   13.79    0.39
   2   7   0   13.72    0.36
   2   7   0   13.36    0.34
  -3  -7   0    2.27    0.25
   3   7   0    2.36    0.17
   5  -8   0    4.76    0.28
   4  -8   0   13.24    0.42
   3  -8   0   50.93    1.09
   2  -8   0    6.42    0.29
   2  -8   0    5.92    0.29
   1  -8   0    6.90    0.29
   1  -8   0    6.38    0.30
   0  -8   0   36.23    0.81
   0  -8   0   36.81    0.87
  -1  -8   0    1.00    0.15
  -1  -8   0    1.00    0.18
   1   8   0    0.94    0.13
  -2  -8   0    5.32    0.32
  -2  -8   0    5.99    0.29
   2   8   0    5.50    0.24
   3  -9   0    1.30    0.18
   2  -9   0   22.38    0.59
   1  -9   0    2.79    0.24
   0  -9   0   10.55    0.44
   0  -9   0   10.91    0.38
   0   9   0   11.17    0.36
  -1  -9   0    9.43    0.36
   1   9   0    9.55    0.33
   2   9  -1    0.34    0.13
  -2  -9   1    0.47    0.16
   1   9  -1    0.92    0.15
  -1  -9   1    1.05    0.17
  -1  -9   1    0.94    0.19
   0   9  -1   -0.09    0.13
   0  -9   1    0.17    0.14
   0  -9   1    0.15    0.15
   1  -9   1   -0.14    0.13
   2  -9   1    5.93    0.30
   3  -9   1    0.46    0.16
   4  -9   1    6.16    0.31
   3   8  -1    2.83    0.20
   2   8  -1   39.32    0.84
  -2  -8   1   40.35    0.87
  -2  -8   1   38.46    1.04
   1   8  -1    8.75    0.30
  -1  -8   1    8.01    0.36
  -1  -8   1    8.76    0.32
   0  -8   1   -0.04    0.12
   0  -8   1    0.02    0.13
   1  -8   1    4.58    0.26
   1  -8   1    4.56    0.25
   2  -8   1    2.95    0.24
   2  -8   1    3.48    0.23
   3  -8   1    1.59    0.18
   4  -8   1    6.95    0.31
   5  -8   1    0.39    0.15
  -4  -7   1    2.52    0.30
   3   7  -1    1.18    0.12
  -3  -7   1    1.04    0.19
  -3  -7   1    1.12    0.18
  -3  -7   1    1.23    0.15
   2   7  -1    0.56    0.12
   2   7  -1    0.61    0.10
  -2  -7   1    0.78    0.13
  -2  -7   1    0.82    0.16
   1   7  -1    3.29    0.19
   1   7  -1    3.10    0.20
  -1  -7   1    3.36    0.21
  -1  -7   1    3.32    0.24
   0   7  -1    1.21    0.12
   0   7  -1    1.41    0.16
   0   7  -1    1.26    0.13
   0   7  -1    1.14    0.14
   0  -7   1    1.10    0.13
  -1   7  -1   21.95    0.57
  -1   7  -1   22.99    0.67
  -1   7  -1   23.87    0.58
   1  -7   1   23.25    0.55
   1  -7   1   23.44    0.59
   1  -7   1   23.27    0.79
  -2   7  -1   16.41    0.45
  -2   7  -1   14.99    0.43
   2  -7   1   16.01    0.60
   2  -7   1   15.25    0.42
   2  -7   1   15.68    0.44
   2  -7   1   15.36    0.44
  -3   7  -1    7.39    0.29
   3  -7   1    8.02    0.31
   3  -7   1    7.75    0.29
   3  -7   1    7.33    0.29
  -4   7  -1   15.59    0.47
   4  -7   1   16.95    0.45
   5  -7   1    9.62    0.34
   4   6  -1   -0.01    0.08
  -4  -6   1   -0.13    0.14
  -4  -6   1   -0.10    0.14
   3   6  -1   70.13    1.62
   3   6  -1   70.25    1.35
  -3  -6   1   68.10    1.65
  -3  -6   1   71.17    1.38
  -3  -6   1   67.33    2.02
   2   6  -1   27.02    0.61
   2   6  -1   26.67    0.69
   2   6  -1   27.07    0.58
  -2  -6   1   25.77    0.72
  -2  -6   1   26.26    0.72
  -2  -6   1   27.17    0.88
  -2  -6   1   27.53    0.60
   1   6  -1    0.86    0.10
   1   6  -1    0.78    0.12
   1   6  -1    0.68    0.10
  -1  -6   1    0.73    0.10
  -1  -6   1    0.65    0.14
  -1  -6   1    0.72    0.10
   0   6  -1   36.04    0.87
   0   6  -1   35.77    0.91
   0   6  -1   36.26    0.79
   0   6  -1   34.66    0.79
   0   6  -1   35.45    0.87
   0  -6   1   35.56    1.09
   0  -6   1   34.66    0.81
   0  -6   1   35.66    0.75
   0  -6   1   35.96    0.81
  -1   6  -1   27.16    0.66
  -1   6  -1   30.02    0.67
  -1   6  -1   29.65    0.91
  -1   6  -1   28.90    0.78
  -1   6  -1   28.90    0.73
  -1   6  -1   28.79    0.73
   1  -6   1   28.16    0.67
   1  -6   1   28.30    0.72
   1  -6   1   27.92    0.67
   1  -6   1   29.06    0.63
   1  -6   1   28.45    0.91
  -2   6  -1    5.05    0.31
  -2   6  -1    4.84    0.22
  -2   6  -1    5.21    0.23
   2  -6   1    5.23    0.23
   2  -6   1    5.01    0.31
   2  -6   1    4.97    0.22
   2  -6   1    4.76    0.23
  -3   6  -1   27.07    0.65
  -3   6  -1   27.12    0.88
  -3   6  -1   25.51    0.64
   3  -6   1   24.59    0.63
   3  -6   1   26.24    0.70
   3  -6   1   26.30    0.60
   3  -6   1   26.71    0.64
  -4   6  -1    4.23    0.30
  -4   6  -1    4.02    0.22
   4  -6   1    3.92    0.20
   4  -6   1    4.24    0.22
  -5   6  -1    5.73    0.30
   5  -6   1    5.39    0.26
   6  -6   1    2.91    0.24
  -5  -5   1   12.93    0.47
  -5  -5   1   11.60    0.50
   4   5  -1    2.40    0.14
   4   5  -1    2.41    0.21
  -4  -5   1    2.52    0.19
  -4  -5   1    2.10    0.24
  -4  -5   1    2.44    0.23
   3   5  -1    0.54    0.12
   3   5  -1    0.57    0.09
  -3  -5   1    0.67    0.11
  -3  -5   1    0.64    0.13
  -3  -5   1    0.47    0.13
  -3  -5   1    0.49    0.10
   2   5  -1   26.86    0.67
   2   5  -1   26.88    0.56
   2   5  -1   26.56    0.59
   2   5  -1   26.49    0.59
  -2  -5   1   26.20    0.69
  -2  -5   1   26.58    0.58
  -2  -5   1   26.53    0.84
  -2  -5   1   26.74    0.62
  -2  -5   1   25.96    0.69
   1   5  -1   23.41    0.60
   1   5  -1   23.51    0.54
   1   5  -1   24.02    0.52
   1   5  -1   23.88    0.54
   1   5  -1   24.51    0.60
  -1  -5   1   23.93    0.76
  -1  -5   1   23.94    0.56
  -1  -5   1   23.62    0.52
  -1  -5   1   23.40    0.62
   0   5  -1   43.02    1.00
   0   5  -1   42.16    1.00
   0   5  -1   42.33    0.91
   0   5  -1   42.88    1.24
   0   5  -1   42.59    1.05
   0   5  -1   41.28    0.91
   0  -5   1   42.07    1.25
   0  -5   1   42.85    0.92
   0  -5   1   42.05    0.92
   0  -5   1   42.67    0.85
   0  -5   1   41.85    0.99
  -1   5  -1  102.56    2.08
  -1   5  -1  104.90    2.44
  -1   5  -1  103.78    2.26
  -1   5  -1   99.03    2.08
  -1   5  -1  100.28    2.25
   1  -5   1  101.29    2.85
   1  -5   1   97.36    2.08
   1  -5   1   98.43    2.25
   1  -5   1  101.52    2.08
   1  -5   1   99.50    1.92
  -2   5  -1    2.05    0.16
  -2   5  -1    1.73    0.19
  -2   5  -1    1.98    0.15
  -2   5  -1    2.27    0.17
  -2   5  -1    2.18    0.14
  -2   5  -1    2.20    0.20
   2  -5   1    2.04    0.17
   2  -5   1    1.89    0.14
   2  -5   1    2.32    0.17
   2  -5   1    2.26    0.20
   2  -5   1    2.02    0.14
   2  -5   1    2.15    0.16
  -3   5  -1   30.22    0.74
  -3   5  -1   29.77    0.83
  -3   5  -1   30.35    0.94
  -3   5  -1   30.34    0.70
  -3   5  -1   28.71    0.69
   3  -5   1   28.34    0.68
   3  -5   1   29.77    0.64
   3  -5   1   30.05    0.69
   3  -5   1   29.55    0.92
   3  -5   1   29.89    0.75
   3  -5   1   29.90    0.75
  -4   5  -1   23.11    0.77
  -4   5  -1   22.95    0.58
   4  -5   1   23.11    0.62
   4  -5   1   22.77    0.53
   4  -5   1   20.78    0.54
   4  -5   1   23.04    0.61
   4  -5   1   22.84    0.56
  -5   5  -1   11.06    0.48
  -5   5  -1   11.43    0.37
   5  -5   1   10.94    0.39
   5  -5   1   10.08    0.32
   5  -5   1   10.35    0.32
   6  -5   1    2.48    0.21
   5   4  -1    9.49    0.34
  -5  -4   1    9.48    0.38
  -5  -4   1    9.05    0.40
   4   4  -1   59.85    1.11
   4   4  -1   57.29    1.34
  -4  -4   1   54.36    1.68
  -4  -4   1   59.18    1.41
  -4  -4   1   57.71    1.38
  -4  -4   1   57.64    1.15
   3   4  -1   49.43    0.95
   3   4  -1   48.99    1.01
   3   4  -1   48.44    0.95
   3   4  -1   48.85    1.14
  -3  -4   1   48.65    1.05
  -3  -4   1   49.33    1.17
  -3  -4   1   48.57    0.97
  -3  -4   1   47.91    1.42
  -3  -4   1   49.71    1.19
   2   4  -1    1.55    0.10
   2   4  -1    1.52    0.12
   2   4  -1    1.55    0.14
   2   4  -1    1.52    0.11
   2   4  -1    1.37    0.13
  -2  -4   1    1.30    0.16
  -2  -4   1    1.51    0.12
  -2  -4   1    1.59    0.13
  -2  -4   1    1.33    0.13
   1   4  -1  148.68    2.99
   1   4  -1  149.82    3.26
   1   4  -1  148.14    2.76
   1   4  -1  147.97    3.48
   1   4  -1  147.29    2.99
  -1  -4   1  148.11    4.12
  -1  -4   1  148.92    3.27
  -1  -4   1  148.12    3.00
  -1  -4   1  149.03    2.77
   0   4  -1  178.40    4.87
   0   4  -1  177.58    3.85
   0   4  -1  178.91    3.55
   0   4  -1  176.50    4.15
   0   4  -1  173.90    3.55
   0  -4   1  173.15    3.27
   0  -4   1  173.28    3.55
   0  -4   1  177.38    3.55
   0  -4   1  178.67    4.87
   0  -4   1  173.69    3.85
  -1   4  -1    4.52    0.19
  -1   4  -1    4.77    0.18
  -1   4  -1    4.67    0.24
  -1   4  -1    4.71    0.17
  -1   4  -1    4.55    0.20
   1  -4   1    4.91    0.24
   1  -4   1    4.25    0.17
   1  -4   1    4.73    0.17
   1  -4   1    4.70    0.18
  -2   4  -1   41.73    0.97
  -2   4  -1   41.72    0.90
  -2   4  -1   41.44    0.90
  -2   4  -1   41.81    1.22
  -2   4  -1   42.12    0.97
   2  -4   1   40.90    1.21
   2  -4   1   41.81    0.97
   2  -4   1   40.56    0.83
   2  -4   1   40.38    0.89
   2  -4   1   42.22    0.90
   2  -4   1   41.46    0.97
  -3   4  -1   12.33    0.33
  -3   4  -1   12.35    0.45
  -3   4  -1   12.08    0.33
  -3   4  -1   12.16    0.35
   3  -4   1   11.95    0.32
   3  -4   1   12.40    0.36
   3  -4   1   12.42    0.33
   3  -4   1   12.54    0.31
   3  -4   1   11.59    0.42
   3  -4   1   12.12    0.36
   3  -4   1   12.04    0.35
  -4   4  -1    2.48    0.18
  -4   4  -1    2.76    0.18
  -4   4  -1    2.43    0.23
   4  -4   1    2.69    0.16
   4  -4   1    2.57    0.17
   4  -4   1    2.47    0.20
   4  -4   1    2.39    0.20
   4  -4   1    2.42    0.15
  -5   4  -1    1.05    0.13
  -5   4  -1    0.90    0.17
   5  -4   1    0.84    0.10
   5  -4   1    0.95    0.11
   5  -4   1    0.96    0.12
   5  -4   1    0.96    0.14
  -6   4  -1    1.18    0.21
   6  -4   1    1.19    0.17
   6  -4   1    1.19    0.15
   7  -4   1    1.78    0.15
  -6  -3   1   19.41    0.71
  -6  -3   1   20.69    0.62
   5   3  -1    3.12    0.14
   5   3  -1    3.24    0.21
  -5  -3   1    3.05    0.23
  -5  -3   1    2.98    0.19
  -5  -3   1    2.89    0.23
   4   3  -1    2.33    0.17
   4   3  -1    2.38    0.13
  -4  -3   1    2.34    0.19
  -4  -3   1    2.57    0.21
  -4  -3   1    2.24    0.16
  -4  -3   1    2.42    0.17
   3   3  -1   77.35    1.74
   3   3  -1   77.97    1.46
   3   3  -1   77.26    1.57
   3   3  -1   79.40    1.57
  -3  -3   1   77.22    2.19
  -3  -3   1   77.50    1.82
  -3  -3   1   77.66    1.60
  -3  -3   1   77.77    1.77
  -3  -3   1   75.25    1.48
   2   3  -1  119.39    2.62
   2   3  -1  118.94    2.40
   2   3  -1  119.55    2.40
   2   3  -1  116.65    2.21
   2   3  -1  118.56    2.22
  -2  -3   1  121.35    2.75
  -2  -3   1  119.03    2.41
  -2  -3   1  117.56    2.22
  -2  -3   1  120.39    2.64
   1   3  -1   26.09    0.56
   1   3  -1   26.28    0.53
   1   3  -1   25.45    0.52
   1   3  -1   26.72    0.62
   1   3  -1   26.84    0.56
  -1  -3   1   26.11    0.63
  -1  -3   1   26.14    0.78
  -1  -3   1   25.89    0.53
  -1  -3   1   26.13    0.61
  -1  -3   1   25.73    0.64
  -1  -3   1   26.43    0.57
   0   3  -1  295.43    5.94
   0   3  -1  293.37    6.36
   0   3  -1  291.89    8.12
   0   3  -1  293.56    5.38
   0   3  -1  294.83    5.85
   0  -3   1  284.62    5.42
   0  -3   1  295.09    5.87
   0  -3   1  295.16    6.36
   0  -3   1  291.85    8.16
   0  -3   1  291.81    5.95
  -1   3  -1    2.27    0.15
  -1   3  -1    2.20    0.11
  -1   3  -1    2.15    0.11
  -1   3  -1    2.12    0.13
   1  -3   1    2.24    0.11
   1  -3   1    1.96    0.13
   1  -3   1    2.31    0.11
   1  -3   1    2.27    0.11
   1  -3   1    2.15    0.14
   1  -3   1    2.10    0.12
  -2   3  -1   32.49    0.94
  -2   3  -1   32.37    0.69
  -2   3  -1   32.16    0.74
  -2   3  -1   31.75    0.69
   2  -3   1   31.07    0.69
   2  -3   1   32.60    0.64
   2  -3   1   31.56    0.75
   2  -3   1   31.20    0.93
   2  -3   1   31.68    0.75
   2  -3   1   32.65    0.69
  -3   3  -1   23.66    0.53
  -3   3  -1   22.99    0.53
  -3   3  -1   22.93    0.71
   3  -3   1   23.12    0.57
   3  -3   1   21.87    0.51
   3  -3   1   22.05    0.68
   3  -3   1   22.43    0.48
   3  -3   1   22.28    0.57
   3  -3   1   23.79    0.58
   3  -3   1   23.08    0.56
  -4   3  -1   27.66    0.64
  -4   3  -1   27.46    0.86
  -4   3  -1   28.22    0.77
  -4   3  -1   28.04    0.64
   4  -3   1   27.99    0.58
   4  -3   1   27.89    0.69
   4  -3   1   26.45    0.61
   4  -3   1   27.48    0.68
   4  -3   1   28.95    0.68
   4  -3   1   27.09    0.69
  -5   3  -1    0.27    0.11
  -5   3  -1    0.31    0.14
   5  -3   1    0.37    0.08
   5  -3   1    0.27    0.10
   5  -3   1    0.27    0.09
   5  -3   1    0.31    0.11
  -6   3  -1   11.94    0.51
   6  -3   1   12.35    0.34
   6  -3   1   12.24    0.43
  -7   3  -1    1.40    0.22
   7  -3   1    1.37    0.18
  -6  -2   1   23.40    0.80
  -6  -2   1   24.38    0.68
   5   2  -1   15.33    0.44
   5   2  -1   15.69    0.35
  -5  -2   1   15.05    0.48
  -5  -2   1   15.09    0.39
  -5  -2   1   14.61    0.54
  -5  -2   1   15.88    0.46
   4   2  -1   46.75    1.09
   4   2  -1   47.16    0.91
  -4  -2   1   47.69    0.93
  -4  -2   1   48.84    1.15
  -4  -2   1   45.25    1.37
  -4  -2   1   47.86    1.12
  -4  -2   1   46.31    1.01
   3   2  -1    0.40    0.05
   3   2  -1    0.31    0.06
   3   2  -1    0.26    0.05
   3   2  -1    0.26    0.07
   3   2  -1    0.36    0.05
  -3  -2   1    0.34    0.06
  -3  -2   1    0.34    0.07
  -3  -2   1    0.28    0.09
  -3  -2   1    0.31    0.07
  -3  -2   1    0.29    0.08
   2   2  -1  266.75    4.88
   2   2  -1  266.97    5.30
   2   2  -1  264.25    5.77
   2   2  -1  269.80    5.31
   2   2  -1  268.71    5.77
   2   2  -1  264.70    4.91
  -2  -2   1  262.36    4.90
  -2  -2   1  265.89    5.32
  -2  -2   1  253.74    7.29
  -2  -2   1  272.10    6.05
  -2  -2   1  269.03    5.77
   1   2  -1  665.52   14.28
   1   2  -1  661.21   13.16
   1   2  -1  665.70   13.17
   1   2  -1  645.04   12.13
   1   2  -1  642.99   12.09
  -1  -2   1  643.74   12.13
  -1  -2   1  657.98   13.20
  -1  -2   1  663.34   14.26
  -1  -2   1  658.24   14.33
  -1  -2   1  666.74   14.99
  -1  -2   1  649.35   12.12
   0   2  -1    1.35    0.09
   0   2  -1    1.21    0.09
   0   2  -1    1.14    0.09
   0   2  -1    1.42    0.08
   0  -2   1    1.08    0.08
   0  -2   1    1.31    0.08
   0  -2   1    1.38    0.12
   0  -2   1    1.29    0.09
   0  -2   1    1.28    0.09
  -1   2  -1   18.92    0.38
  -1   2  -1   19.08    0.42
  -1   2  -1   19.77    0.42
  -1   2  -1   19.13    0.57
  -1   2  -1   18.40    0.45
  -1   2  -1   19.19    0.45
   1  -2   1   19.32    0.38
   1  -2   1   18.84    0.45
   1  -2   1   19.20    0.42
   1  -2   1   18.25    0.56
   1  -2   1   18.84    0.45
   1  -2   1   19.09    0.41
  -2   2  -1    0.43    0.06
  -2   2  -1    0.38    0.05
  -2   2  -1    0.37    0.07
  -2   2  -1    0.36    0.05
   2  -2   1    0.29    0.05
   2  -2   1    0.32    0.05
   2  -2   1    0.32    0.05
   2  -2   1    0.36    0.05
   2  -2   1    0.31    0.06
   2  -2   1    0.42    0.05
   2  -2   1    0.31    0.05
   2  -2   1    0.35    0.06
  -3   2  -1    0.19    0.07
  -3   2  -1    0.06    0.06
  -3   2  -1    0.19    0.09
   3  -2   1    0.12    0.05
   3  -2   1    0.05    0.07
   3  -2   1    0.21    0.07
   3  -2   1    0.13    0.06
   3  -2   1    0.06    0.05
   3  -2   1    0.12    0.06
   3  -2   1   -0.04    0.06
  -4   2  -1    6.85    0.29
  -4   2  -1    6.56    0.24
  -4   2  -1    7.16    0.23
  -4   2  -1    7.13    0.22
   4  -2   1    6.85    0.20
   4  -2   1    6.61    0.19
   4  -2   1    6.81    0.24
   4  -2   1    6.84    0.20
   4  -2   1    6.94    0.24
   4  -2   1    6.74    0.25
  -5   2  -1   14.68    0.41
  -5   2  -1   15.27    0.50
  -5   2  -1   13.71    0.52
  -5   2  -1   14.90    0.44
   5  -2   1   14.92    0.35
   5  -2   1   14.25    0.43
   5  -2   1   14.16    0.44
  -6   2  -1    3.68    0.28
  -6   2  -1    4.06    0.25
   6  -2   1    4.13    0.25
   6  -2   1    4.01    0.25
   6  -2   1    3.90    0.19
  -7   2  -1   28.16    0.98
   7  -2   1   30.33    0.80
  -7  -1   1   18.65    0.61
   6   1  -1    1.53    0.14
   6   1  -1    1.88    0.20
  -6  -1   1    2.17    0.24
  -6  -1   1    1.73    0.23
   5   1  -1    9.05    0.23
   5   1  -1    8.72    0.30
  -5  -1   1    8.66    0.32
  -5  -1   1    7.21    0.30
  -5  -1   1    8.55    0.30
  -5  -1   1    8.16    0.35
  -5  -1   1    8.25    0.26
   4   1  -1   87.06    1.62
   4   1  -1   86.12    1.62
   4   1  -1   85.31    1.92
  -4  -1   1   84.89    1.63
  -4  -1   1   82.98    2.42
  -4  -1   1   88.21    2.02
  -4  -1   1   87.79    1.95
  -4  -1   1   86.04    2.06
  -4  -1   1   84.76    1.77
   3   1  -1  220.97    4.13
   3   1  -1  225.84    4.88
   3   1  -1  221.66    4.88
   3   1  -1  228.62    4.48
   3   1  -1  224.15    4.13
  -3  -1   1  223.89    5.26
  -3  -1   1  225.61    4.89
  -3  -1   1  223.84    4.50
  -3  -1   1  233.26    5.12
  -3  -1   1  219.43    4.13
  -3  -1   1  218.96    6.16
   2   1  -1    0.45    0.06
   2   1  -1    0.51    0.07
   2   1  -1    0.84    0.08
   2   1  -1    0.55    0.07
   2   1  -1    0.57    0.05
  -2  -1   1    0.54    0.05
  -2  -1   1    0.51    0.05
  -2  -1   1    0.49    0.07
  -2  -1   1    0.50    0.06
  -2  -1   1    0.51    0.07
  -2  -1   1    0.55    0.06
  -2  -1   1    0.75    0.07
   1   1  -1  281.48    6.26
   1   1  -1  274.72    5.28
   1   1  -1  290.67    6.53
   1   1  -1  292.17    5.77
   1   1  -1  281.49    6.24
   1   1  -1  283.82    5.31
  -1  -1   1  291.92    6.55
  -1  -1   1  287.65    6.27
  -1  -1   1  289.07    6.70
  -1  -1   1  279.63    7.90
  -1  -1   1  280.41    5.31
  -1  -1   1  294.78    5.77
  -1  -1   1  287.39    5.30
  -1  -1   1  291.26    6.24
   0   1  -1    6.85    0.23
   0   1  -1    7.22    0.17
   0   1  -1    7.34    0.20
   0   1  -1    7.29    0.19
   0   1  -1    7.28    0.16
   0  -1   1    6.91    0.16
   0  -1   1    7.68    0.20
   0  -1   1    7.27    0.19
   0  -1   1    8.20    0.17
   0  -1   1    7.29    0.24
  -1   1  -1   16.74    0.35
  -1   1  -1   16.04    0.47
  -1   1  -1   16.24    0.32
  -1   1  -1   16.49    0.37
  -1   1  -1   16.55    0.37
  -1   1  -1   16.58    0.35
   1  -1   1   16.15    0.37
   1  -1   1   16.62    0.32
   1  -1   1   16.18    0.39
   1  -1   1   15.46    0.46
   1  -1   1   16.40    0.34
   1  -1   1   16.55    0.34
   1  -1   1   16.15    0.37
   1  -1   1   16.12    0.37
  -2   1  -1    0.85    0.09
  -2   1  -1    1.01    0.08
  -2   1  -1    0.91    0.08
  -2   1  -1    0.68    0.07
  -2   1  -1    0.91    0.07
  -2   1  -1    1.04    0.07
  -2   1  -1    0.98    0.07
   2  -1   1    0.94    0.08
   2  -1   1    0.77    0.09
   2  -1   1    0.94    0.06
   2  -1   1    1.21    0.08
  -3   1  -1   28.67    0.61
  -3   1  -1   27.85    0.83
  -3   1  -1   28.80    0.70
  -3   1  -1   29.79    0.67
   3  -1   1   28.54    0.66
   3  -1   1   28.82    0.67
   3  -1   1   28.83    0.56
   3  -1   1   27.89    0.59
   3  -1   1   28.61    0.56
   3  -1   1   27.99    0.66
  -4   1  -1    9.03    0.30
  -4   1  -1    9.59    0.35
  -4   1  -1   10.03    0.27
  -4   1  -1    9.67    0.30
   4  -1   1    9.76    0.28
   4  -1   1    9.74    0.29
   4  -1   1   10.29    0.24
   4  -1   1    8.81    0.31
   4  -1   1    9.74    0.23
  -5   1  -1    6.31    0.28
  -5   1  -1    4.69    0.28
  -5   1  -1    5.10    0.23
  -5   1  -1    6.19    0.25
  -5   1  -1    5.83    0.24
   5  -1   1    4.22    0.19
   5  -1   1    5.05    0.24
   5  -1   1    4.63    0.25
  -6   1  -1    1.53    0.22
  -6   1  -1    1.17    0.16
   6  -1   1    1.62    0.20
   6  -1   1    1.26    0.13
   6  -1   1    1.72    0.20
  -7   0   1   20.27    0.61
  -7   0   1   18.59    0.72
   6   0  -1    0.19    0.09
   6   0  -1    0.13    0.11
  -6   0   1    0.14    0.14
  -6   0   1   -0.02    0.14
   5   0  -1   20.11    0.54
   5   0  -1   20.59    0.45
  -5   0   1   20.38    0.58
  -5   0   1   20.12    0.57
  -5   0   1   21.27    0.57
  -5   0   1   19.72    0.67
   4   0  -1   -0.08    0.06
   4   0  -1   -0.02    0.05
   4   0  -1    0.04    0.06
   4   0  -1    0.07    0.07
  -4   0   1    0.12    0.09
  -4   0   1   -0.02    0.07
  -4   0   1    0.07    0.07
  -4   0   1    0.16    0.10
  -4   0   1   -0.06    0.08
   3   0  -1  148.26    3.26
   3   0  -1  152.22    3.39
   3   0  -1  141.59    4.09
   3   0  -1  150.87    2.99
   3   0  -1  146.13    2.76
   3   0  -1  153.24    3.27
   3   0  -1  147.29    3.26
   3   0  -1  146.42    2.76
  -3   0   1  148.12    3.27
  -3   0   1  148.89    2.77
  -3   0   1  150.01    3.00
  -3   0   1  155.68    3.52
  -3   0   1  146.56    4.12
  -3   0   1  151.28    3.42
   2   0  -1  798.69   14.95
   2   0  -1  802.61   17.66
   2   0  -1  783.58   22.24
   2   0  -1  828.48   16.24
   2   0  -1  793.28   17.65
   2   0  -1  802.45   17.66
   2   0  -1  814.48   14.95
   2   0  -1  834.38   18.48
  -2   0   1  808.47   22.32
  -2   0   1  821.77   17.69
  -2   0   1  830.38   17.63
  -2   0   1  787.67   17.58
  -2   0   1  805.12   14.93
  -2   0   1  817.04   19.07
  -2   0   1  817.78   16.26
  -2   0   1  849.87   18.55
  -2   0   1  800.04   14.97
   1   0  -1    2.42    0.11
   1   0  -1    2.57    0.10
   1   0  -1    2.41    0.09
   1   0  -1    2.47    0.08
   1   0  -1    2.41    0.08
   1   0  -1    2.54    0.09
  -1   0   1    2.27    0.09
  -1   0   1    2.27    0.08
  -1   0   1    2.27    0.10
  -1   0   1    2.40    0.09
  -1   0   1    2.46    0.09
  -1   0   1    2.42    0.09
  -1   0   1    2.25    0.08
  -1   0   1    2.40    0.11
  -1   0   1    2.34    0.09
   0   0  -1    0.02    0.01
  -1   0  -1  176.44    3.75
  -1   0  -1  165.12    3.16
   1   0   1  173.93    3.73
  -2   0  -1   -0.38    0.05
  -2   0  -1   -0.33    0.03
  -2   0  -1   -0.34    0.04
  -2   0  -1   -0.34    0.03
   2   0   1   -0.35    0.03
   2   0   1   -0.37    0.05
   2   0   1   -0.12    0.06
   2   0   1   -0.38    0.03
   2   0   1   -0.37    0.04
  -3   0  -1   84.02    1.89
  -3   0  -1   80.30    2.27
  -3   0  -1   80.66    1.53
  -3   0  -1   81.90    1.67
  -3   0  -1   83.99    1.82
   3   0   1   79.11    1.81
   3   0   1   80.72    1.52
   3   0   1   82.91    1.81
   3   0   1   83.86    1.82
   3   0   1   83.56    1.52
  -4   0  -1   82.38    1.68
  -4   0  -1   82.60    1.91
  -4   0  -1   78.76    2.29
  -4   0  -1   81.68    1.84
   4   0   1   80.99    1.82
   4   0   1   82.47    1.84
   4   0   1   83.38    1.53
   4   0   1   83.24    1.82
  -5   0  -1    1.22    0.15
  -5   0  -1    1.92    0.19
  -5   0  -1    1.50    0.15
  -5   0  -1    1.30    0.17
   5   0   1    1.26    0.12
   5   0   1    1.22    0.12
  -6   0  -1   71.67    1.65
  -6   0  -1   67.87    2.04
   6   0   1   71.80    1.63
  -7   1   1    0.24    0.16
  -7   1   1    0.13    0.18
   6  -1  -1   12.70    0.33
  -6   1   1   12.27    0.50
  -6   1   1   12.51    0.43
   5  -1  -1   35.83    0.78
   5  -1  -1   36.42    0.89
   5  -1  -1   36.88    0.75
   5  -1  -1   37.16    0.89
  -5   1   1   37.21    0.97
  -5   1   1   35.09    1.11
  -5   1   1   36.07    0.94
  -5   1   1   37.45    0.84
  -5   1   1   37.48    0.91
   4  -1  -1  188.12    4.16
   4  -1  -1  190.86    3.52
   4  -1  -1  192.09    4.17
   4  -1  -1  188.33    3.81
   4  -1  -1  194.72    4.32
  -4   1   1  189.31    5.26
  -4   1   1  186.23    4.36
  -4   1   1  188.32    3.83
  -4   1   1  190.73    4.16
  -4   1   1  189.18    4.50
   3  -1  -1    5.64    0.17
   3  -1  -1    6.10    0.20
   3  -1  -1    5.45    0.22
   3  -1  -1    6.01    0.17
   3  -1  -1    5.90    0.18
   3  -1  -1    5.43    0.17
   3  -1  -1    5.25    0.20
   3  -1  -1    5.54    0.22
  -3   1   1    5.87    0.20
  -3   1   1    5.40    0.24
  -3   1   1    5.52    0.21
  -3   1   1    5.88    0.22
  -3   1   1    5.46    0.18
   2  -1  -1   50.57    1.45
   2  -1  -1   50.83    0.98
   2  -1  -1   51.18    0.98
   2  -1  -1   50.50    1.16
   2  -1  -1   54.57    1.21
   2  -1  -1   51.80    1.07
   2  -1  -1   51.88    1.16
   2  -1  -1   51.34    1.16
  -2   1   1   51.93    1.22
  -2   1   1   51.60    1.16
  -2   1   1   52.79    1.07
  -2   1   1   51.85    1.46
  -2   1   1   50.20    1.15
  -2   1   1   52.77    1.07
  -2   1   1   53.21    1.26
  -2   1   1   52.98    1.16
   1  -1  -1    7.39    0.18
   1  -1  -1    7.35    0.20
   1  -1  -1    7.34    0.17
   1  -1  -1    7.28    0.20
   1  -1  -1    7.15    0.24
   1  -1  -1    7.38    0.22
   1  -1  -1    7.38    0.18
   1  -1  -1    7.39    0.20
  -1   1   1    7.34    0.18
  -1   1   1    7.23    0.25
  -1   1   1    7.53    0.22
  -1   1   1    7.51    0.18
  -1   1   1    7.09    0.17
  -1   1   1    7.19    0.20
   0  -1  -1    2.88    0.09
   0  -1  -1    2.92    0.11
   0  -1  -1    2.92    0.08
   0  -1  -1    2.83    0.08
   0  -1  -1    2.84    0.09
   0   1   1    2.65    0.09
   0   1   1    2.78    0.09
   0   1   1    2.94    0.08
   0   1   1    2.72    0.10
   0   1   1    2.40    0.08
   0   1   1    2.90    0.08
   0   1   1    2.88    0.11
  -1  -1  -1   58.71    1.28
  -1  -1  -1   58.68    1.37
  -1  -1  -1   57.80    1.07
  -1  -1  -1   57.13    1.07
  -2  -1  -1    1.86    0.12
  -2  -1  -1    2.11    0.09
  -2  -1  -1    2.02    0.08
  -2  -1  -1    2.02    0.08
   2   1   1    2.07    0.13
   2   1   1    1.96    0.09
  -3  -1  -1   18.00    0.43
  -3  -1  -1   16.30    0.51
  -3  -1  -1   16.83    0.36
  -3  -1  -1   17.61    0.44
  -3  -1  -1   17.61    0.39
   3   1   1   17.36    0.45
   3   1   1   17.33    0.42
  -4  -1  -1    0.40    0.10
  -4  -1  -1    0.56    0.11
  -4  -1  -1    0.40    0.08
  -4  -1  -1    0.52    0.07
  -4  -1  -1    0.61    0.09
  -4  -1  -1    0.46    0.09
   4   1   1    0.52    0.08
  -5  -1  -1    0.46    0.08
  -5  -1  -1    0.29    0.11
  -5  -1  -1    0.02    0.09
  -5  -1  -1    0.52    0.10
  -5  -1  -1    0.59    0.12
   5   1   1    0.29    0.09
  -6  -1  -1    0.33    0.15
  -6  -1  -1    0.84    0.16
   6   1   1    0.41    0.12
   7  -2  -1    4.29    0.22
   6  -2  -1    2.17    0.18
   6  -2  -1    2.24    0.14
   6  -2  -1    2.62    0.23
  -6   2   1    2.13    0.25
  -6   2   1    2.18    0.23
   5  -2  -1    0.02    0.10
   5  -2  -1   -0.08    0.09
   5  -2  -1   -0.01    0.09
   5  -2  -1    0.02    0.08
   5  -2  -1   -0.03    0.06
  -5   2   1    0.01    0.10
  -5   2   1    0.03    0.13
  -5   2   1   -0.02    0.12
  -5   2   1   -0.19    0.11
   4  -2  -1   39.76    0.95
   4  -2  -1   39.41    0.94
   4  -2  -1   40.53    0.96
   4  -2  -1   39.90    0.80
   4  -2  -1   38.96    0.85
  -4   2   1   39.47    1.18
  -4   2   1   39.45    0.95
  -4   2   1   39.84    0.88
  -4   2   1   40.58    1.04
  -4   2   1   39.66    0.87
   3  -2  -1  350.09    7.72
   3  -2  -1  350.59    7.62
   3  -2  -1  356.42    8.03
   3  -2  -1  346.72    7.01
   3  -2  -1  342.97    9.66
   3  -2  -1  349.14    6.45
   3  -2  -1  352.26    7.61
  -3   2   1  350.55    9.73
  -3   2   1  356.64    7.02
  -3   2   1  350.95    7.02
  -3   2   1  355.44    7.61
  -3   2   1  347.02    8.24
   2  -2  -1   14.44    0.34
   2  -2  -1   13.54    0.36
   2  -2  -1   13.88    0.45
   2  -2  -1   14.28    0.36
   2  -2  -1   14.19    0.37
   2  -2  -1   14.36    0.32
   2  -2  -1   13.77    0.33
  -2   2   1   14.90    0.41
  -2   2   1   14.30    0.34
  -2   2   1   14.36    0.34
  -2   2   1   14.44    0.36
  -2   2   1   14.13    0.46
  -2   2   1   14.33    0.36
   1  -2  -1    0.09    0.06
   1  -2  -1    0.05    0.05
   1  -2  -1   -0.04    0.03
   1  -2  -1    0.07    0.06
   1  -2  -1    0.02    0.07
   1  -2  -1    0.03    0.05
  -1   2   1    0.18    0.05
  -1   2   1    0.05    0.05
  -1   2   1    0.06    0.06
  -1   2   1    0.05    0.06
  -1   2   1    0.27    0.08
  -1   2   1    0.11    0.05
   0  -2  -1  510.71    9.71
   0  -2  -1  519.42   10.55
   0  -2  -1  534.31   11.43
   0  -2  -1  532.93   14.51
   0  -2  -1  538.94   10.59
   0  -2  -1  522.11   12.37
   0   2   1  512.59    9.69
   0   2   1  538.87   14.48
   0   2   1  535.10   10.56
   0   2   1  514.09   11.46
   0   2   1  526.80   10.55
   0   2   1  525.81   12.39
   0   2   1  526.12   11.46
  -1  -2  -1   57.49    1.16
  -1  -2  -1   55.97    1.34
  -1  -2  -1   57.54    1.16
  -1  -2  -1   57.07    1.07
   1   2   1   56.76    1.06
   1   2   1   55.98    1.06
   1   2   1   56.61    1.34
   1   2   1   58.47    1.26
   1   2   1   55.77    1.14
  -2  -2  -1  168.51    3.35
  -2  -2  -1  168.53    3.66
  -2  -2  -1  164.51    3.08
   2   2   1  164.62    3.07
   2   2   1  170.71    3.63
  -3  -2  -1  221.46    4.87
  -3  -2  -1  213.25    4.28
  -3  -2  -1  205.06    3.94
  -3  -2  -1  215.64    4.68
   3   2   1  214.33    4.65
  -4  -2  -1    1.72    0.12
  -4  -2  -1    1.82    0.15
  -4  -2  -1    1.92    0.13
  -4  -2  -1    1.95    0.13
  -4  -2  -1    1.99    0.13
  -4  -2  -1    1.38    0.18
   4   2   1    1.94    0.14
  -5  -2  -1   79.32    2.36
  -5  -2  -1   84.40    1.93
  -5  -2  -1   88.01    1.98
   5   2   1   82.67    1.89
  -6  -2  -1   29.46    0.77
  -6  -2  -1   27.15    0.90
   7  -3  -1    8.34    0.30
   6  -3  -1    4.87    0.29
   6  -3  -1    4.77    0.22
   6  -3  -1    4.81    0.20
  -6   3   1    4.90    0.33
   5  -3  -1   90.93    2.06
   5  -3  -1   90.89    2.11
   5  -3  -1   90.35    1.74
   5  -3  -1   88.07    1.87
   5  -3  -1   92.59    2.06
  -5   3   1   88.28    1.91
  -5   3   1   90.38    2.60
   4  -3  -1   11.44    0.32
   4  -3  -1   12.08    0.37
   4  -3  -1   12.30    0.36
   4  -3  -1   11.82    0.37
   4  -3  -1   11.77    0.31
  -4   3   1   12.05    0.34
  -4   3   1   12.25    0.34
  -4   3   1   11.89    0.41
  -4   3   1   11.63    0.45
   3  -3  -1    3.14    0.18
   3  -3  -1    3.11    0.19
   3  -3  -1    3.31    0.17
   3  -3  -1    2.70    0.15
   3  -3  -1    3.06    0.15
   3  -3  -1    3.05    0.18
   3  -3  -1    2.98    0.16
  -3   3   1    3.07    0.17
  -3   3   1    3.21    0.16
  -3   3   1    3.08    0.21
  -3   3   1    3.12    0.20
  -3   3   1    3.18    0.15
   2  -3  -1   43.63    1.01
   2  -3  -1   44.73    0.94
   2  -3  -1   43.27    0.93
   2  -3  -1   44.19    0.86
   2  -3  -1   43.60    1.01
   2  -3  -1   43.41    1.27
  -2   3   1   44.23    1.10
  -2   3   1   43.97    0.93
  -2   3   1   42.84    1.01
  -2   3   1   45.37    1.28
  -2   3   1   44.04    1.01
  -2   3   1   44.35    0.94
   1  -3  -1    8.25    0.25
   1  -3  -1    8.42    0.22
   1  -3  -1    8.28    0.23
   1  -3  -1    8.45    0.24
   1  -3  -1    8.57    0.31
   1  -3  -1    8.47    0.23
  -1   3   1    8.32    0.22
  -1   3   1    8.23    0.27
  -1   3   1    8.41    0.25
  -1   3   1    8.55    0.25
  -1   3   1    8.43    0.23
   0  -3  -1  112.58    2.46
   0  -3  -1  112.81    3.11
   0  -3  -1  112.32    2.27
   0  -3  -1  114.33    2.27
   0  -3  -1  111.83    2.09
   0   3   1  111.31    2.65
   0   3   1  108.78    2.08
   0   3   1  111.12    2.46
   0   3   1  112.42    2.46
   0   3   1  113.16    2.26
   0   3   1  112.38    2.26
   0   3   1  113.77    3.10
  -1  -3  -1   15.95    0.34
  -1  -3  -1   16.25    0.37
  -1  -3  -1   15.93    0.41
  -1  -3  -1   16.68    0.37
  -1  -3  -1   16.41    0.50
   1   3   1   16.22    0.34
   1   3   1   16.26    0.34
   1   3   1   16.52    0.36
   1   3   1   15.41    0.41
   1   3   1   16.72    0.40
  -2  -3  -1    4.65    0.15
  -2  -3  -1    4.43    0.14
  -2  -3  -1    4.60    0.19
   2   3   1    4.52    0.17
   2   3   1    4.39    0.13
   2   3   1    4.53    0.13
  -3  -3  -1    0.32    0.07
  -3  -3  -1   -0.26    0.09
  -3  -3  -1    0.20    0.06
  -3  -3  -1    0.20    0.07
   3   3   1    0.03    0.03
   3   3   1    0.10    0.07
  -4  -3  -1    0.08    0.11
  -4  -3  -1    0.24    0.07
  -4  -3  -1    0.29    0.07
  -4  -3  -1    0.28    0.10
   4   3   1    0.12    0.08
  -5  -3  -1    2.62    0.22
  -5  -3  -1    3.04    0.25
   5   3   1    2.76    0.20
  -6  -3  -1    0.20    0.15
   6   3   1    0.37    0.12
   7  -4  -1   -0.05    0.12
   6  -4  -1    0.07    0.12
   5  -4  -1    9.13    0.29
   5  -4  -1    9.29    0.36
   5  -4  -1    9.08    0.29
   5  -4  -1    9.60    0.32
  -5   4   1    9.10    0.33
  -5   4   1    9.75    0.43
   4  -4  -1   94.57    2.21
   4  -4  -1   93.78    2.13
   4  -4  -1   93.99    2.13
   4  -4  -1   91.34    1.95
   4  -4  -1   93.33    1.81
  -4   4   1   94.99    1.97
  -4   4   1   92.88    1.96
  -4   4   1   95.54    2.69
   3  -4  -1   11.91    0.33
   3  -4  -1   11.82    0.36
   3  -4  -1   11.71    0.36
   3  -4  -1   11.98    0.33
   3  -4  -1   11.81    0.43
   3  -4  -1   11.87    0.31
  -3   4   1   12.17    0.34
  -3   4   1   12.21    0.40
  -3   4   1   11.95    0.36
  -3   4   1   12.12    0.45
  -3   4   1   12.11    0.34
   2  -4  -1    0.61    0.11
   2  -4  -1    0.69    0.10
   2  -4  -1    0.54    0.13
  -2   4   1    0.35    0.08
  -2   4   1    0.56    0.10
  -2   4   1    0.66    0.10
   1  -4  -1  281.87    5.66
   1  -4  -1  279.90    6.14
   1  -4  -1  288.01    5.70
   1  -4  -1  275.56    5.21
   1  -4  -1  282.98    7.84
  -1   4   1  275.57    5.66
  -1   4   1  287.39    5.66
  -1   4   1  286.82    6.64
  -1   4   1  283.60    7.80
  -1   4   1  276.80    6.14
  -1   4   1  286.54    6.15
   0  -4  -1  163.44    4.54
   0  -4  -1  158.35    3.05
   0  -4  -1  161.78    3.31
   0  -4  -1  165.98    3.31
   0   4   1  165.84    3.88
   0   4   1  165.43    3.31
   0   4   1  164.87    3.60
   0   4   1  163.51    3.60
   0   4   1  169.05    4.53
   0   4   1  163.18    3.31
  -1  -4  -1   81.21    1.54
  -1  -4  -1   81.51    1.67
  -1  -4  -1   82.21    2.29
  -1  -4  -1   82.29    1.67
   1   4   1   80.21    1.53
   1   4   1   82.38    1.82
   1   4   1   79.66    1.93
   1   4   1   80.48    1.53
   1   4   1   81.92    1.65
   1   4   1   82.44    1.66
  -2  -4  -1  229.64    4.27
  -2  -4  -1  231.14    4.63
  -2  -4  -1  231.72    5.06
   2   4   1  231.26    4.25
   2   4   1  233.72    5.03
   2   4   1  227.64    4.25
  -3  -4  -1   19.47    0.46
  -3  -4  -1   18.33    0.54
  -3  -4  -1   19.06    0.43
  -3  -4  -1   19.53    0.51
   3   4   1   19.05    0.50
   3   4   1   20.07    0.39
  -4  -4  -1   45.09    0.92
  -4  -4  -1   47.00    1.14
  -4  -4  -1   44.88    1.35
  -4  -4  -1   47.19    1.14
   4   4   1   46.61    1.09
  -5  -4  -1   39.18    0.99
  -5  -4  -1   36.78    1.15
   5   4   1   37.53    0.92
  -6  -4  -1   -0.07    0.16
   6  -5  -1   24.15    0.59
   5  -5  -1    9.00    0.31
  -5   5   1    9.01    0.33
   4  -5  -1   -0.02    0.11
   4  -5  -1   -0.04    0.10
   4  -5  -1    0.12    0.09
   4  -5  -1    0.08    0.10
  -4   5   1    0.01    0.10
  -4   5   1   -0.02    0.14
   3  -5  -1   43.33    1.06
   3  -5  -1   44.43    1.32
   3  -5  -1   44.17    0.98
   3  -5  -1   43.86    0.98
   3  -5  -1   44.72    0.91
   3  -5  -1   44.86    1.06
  -3   5   1   44.39    1.16
  -3   5   1   44.87    1.33
  -3   5   1   42.83    0.98
  -3   5   1   44.35    0.98
  -3   5   1   43.15    1.05
   2  -5  -1   26.35    0.57
   2  -5  -1   25.78    0.66
   2  -5  -1   26.06    0.61
   2  -5  -1   26.32    0.82
   2  -5  -1   26.58    0.61
  -2   5   1   24.55    0.82
  -2   5   1   27.12    0.67
  -2   5   1   25.88    0.66
  -2   5   1   25.56    0.72
  -2   5   1   25.70    0.61
  -2   5   1   25.83    0.61
   1  -5  -1   55.80    1.29
   1  -5  -1   56.59    1.63
   1  -5  -1   56.01    1.20
   1  -5  -1   56.40    1.11
   1  -5  -1   55.81    1.20
  -1   5   1   54.23    1.19
  -1   5   1   57.09    1.30
  -1   5   1   55.57    1.30
  -1   5   1   57.26    1.40
  -1   5   1   57.09    1.63
  -1   5   1   56.91    1.19
   0  -5  -1   37.02    1.10
   0  -5  -1   37.07    0.81
   0  -5  -1   36.75    0.75
   0  -5  -1   36.46    0.81
   0   5   1   35.18    0.80
   0   5   1   37.40    0.80
   0   5   1   37.18    0.88
   0   5   1   37.48    0.88
   0   5   1   36.62    0.93
  -1  -5  -1   -0.04    0.07
  -1  -5  -1   -0.13    0.07
  -1  -5  -1   -0.11    0.09
  -1  -5  -1   -0.01    0.07
   1   5   1   -0.09    0.06
   1   5   1   -0.07    0.06
   1   5   1   -0.14    0.08
   1   5   1   -0.10    0.06
   1   5   1    0.07    0.06
  -2  -5  -1    1.15    0.14
  -2  -5  -1    1.50    0.20
  -2  -5  -1    1.54    0.14
  -2  -5  -1    1.56    0.15
   2   5   1    1.53    0.17
   2   5   1    1.56    0.13
  -3  -5  -1    0.82    0.11
  -3  -5  -1    0.80    0.10
  -3  -5  -1    0.51    0.14
  -3  -5  -1    0.65    0.14
   3   5   1    0.82    0.08
   3   5   1    0.67    0.11
  -4  -5  -1    3.57    0.27
  -4  -5  -1    3.92    0.26
   4   5   1    3.87    0.23
  -5  -5  -1    0.45    0.16
   5   5   1    0.47    0.13
   6  -6  -1    2.75    0.23
   5  -6  -1   19.73    0.51
  -5   6   1   19.53    0.56
   4  -6  -1    2.99    0.21
   4  -6  -1    2.83    0.21
   4  -6  -1    2.99    0.22
  -4   6   1    2.78    0.22
   3  -6  -1    0.22    0.11
   3  -6  -1    0.22    0.12
   3  -6  -1    0.18    0.14
   3  -6  -1    0.13    0.12
  -3   6   1    0.28    0.16
  -3   6   1    0.45    0.12
  -3   6   1    0.24    0.12
   2  -6  -1  100.03    1.96
   2  -6  -1  101.43    2.90
   2  -6  -1  100.15    2.12
   2  -6  -1   99.72    2.12
  -2   6   1  104.22    2.12
  -2   6   1  103.43    2.49
  -2   6   1   97.77    2.11
  -2   6   1  101.73    2.30
  -2   6   1  104.79    2.90
   1  -6  -1  144.84    2.99
   1  -6  -1  142.57    2.99
   1  -6  -1  144.47    4.09
   1  -6  -1  141.94    2.75
  -1   6   1  149.38    2.98
  -1   6   1  147.49    3.50
  -1   6   1  149.30    4.08
  -1   6   1  151.68    3.25
  -1   6   1  139.82    2.98
  -1   6   1  144.94    3.24
   0  -6  -1    9.03    0.39
   0  -6  -1   10.14    0.30
   0  -6  -1    9.08    0.28
   0   6   1    8.87    0.32
   0   6   1    8.79    0.31
   0   6   1    9.58    0.33
   0   6   1    9.44    0.28
   0   6   1    8.69    0.27
  -1  -6  -1  120.10    2.30
  -1  -6  -1  120.60    2.50
  -1  -6  -1  122.69    3.43
   1   6   1  122.25    2.47
   1   6   1  123.74    2.47
   1   6   1  122.70    2.29
   1   6   1  117.95    2.88
   1   6   1  120.13    2.71
  -2  -6  -1   26.55    0.59
  -2  -6  -1   26.81    0.86
  -2  -6  -1   25.79    0.72
   2   6   1   26.42    0.69
   2   6   1   27.07    0.56
  -3  -6  -1    9.55    0.30
  -3  -6  -1    9.23    0.38
   3   6   1    9.51    0.35
   3   6   1    9.40    0.25
  -4  -6  -1   23.42    0.69
  -4  -6  -1   22.66    0.78
   5  -7  -1    0.57    0.15
   4  -7  -1   25.33    0.62
   3  -7  -1   31.56    0.77
   3  -7  -1   32.18    0.73
  -3   7   1   31.12    0.77
   2  -7  -1   10.73    0.35
   2  -7  -1   10.97    0.34
  -2   7   1   11.15    0.35
  -2   7   1   10.00    0.34
   1  -7  -1   25.62    0.60
   1  -7  -1   25.33    0.64
  -1   7   1   24.98    0.62
  -1   7   1   26.61    0.70
  -1   7   1   26.69    0.63
  -1   7   1   25.67    0.73
   0  -7  -1    0.76    0.12
   0  -7  -1    0.76    0.12
   0   7   1    0.75    0.14
   0   7   1    0.70    0.11
   0   7   1    0.89    0.11
  -1  -7  -1    4.62    0.24
  -1  -7  -1    4.41    0.23
  -1  -7  -1    4.23    0.26
   1   7   1    3.92    0.21
   1   7   1    4.37    0.19
   1   7   1    4.35    0.27
  -2  -7  -1    4.42    0.28
  -2  -7  -1    4.63    0.23
   2   7   1    4.36    0.20
  -3  -7  -1    1.10    0.18
   3   7   1    1.24    0.14
   4  -8  -1    0.39    0.15
   3  -8  -1   32.06    0.76
   2  -8  -1   76.83    1.67
   2  -8  -1   76.23    1.55
   1  -8  -1    0.48    0.13
   1  -8  -1    0.61    0.14
   0  -8  -1   33.01    0.75
   0  -8  -1   33.01    0.81
  -1  -8  -1   13.77    0.50
  -1  -8  -1   14.52    0.42
   1   8   1   14.62    0.39
  -2  -8  -1    0.15    0.16
   2   8   1    0.10    0.15
   2   8   1    0.16    0.10
   3  -9  -1    0.10    0.15
   2  -9  -1    8.35    0.35
   1  -9  -1    0.17    0.14
   0  -9  -1    3.26    0.26
  -1  -9  -1    7.99    0.34
   1   9   1    7.98    0.30
   2   9  -2   10.33    0.35
  -2  -9   2   11.21    0.40
   1   9  -2   -0.04    0.13
  -1  -9   2    0.08    0.15
  -1  -9   2   -0.04    0.13
   0   9  -2    0.13    0.14
   0  -9   2    0.07    0.15
   0  -9   2    0.03    0.14
   1  -9   2    0.62    0.15
   2  -9   2    6.11    0.30
   3  -9   2    3.24    0.25
   4  -9   2    1.26    0.18
   3   8  -2    1.31    0.14
  -3  -8   2    1.18    0.17
   2   8  -2    2.21    0.20
  -2  -8   2    1.92    0.18
  -2  -8   2    1.81    0.21
   1   8  -2    3.55    0.22
  -1  -8   2    3.79    0.27
  -1  -8   2    3.79    0.24
   0  -8   2    0.29    0.13
   0  -8   2    0.18    0.13
   1  -8   2    1.85    0.17
   2  -8   2   14.32    0.41
   3  -8   2    0.14    0.13
   4  -8   2   11.68    0.38
   5  -8   2    0.07    0.14
   4   7  -2   14.73    0.38
   3   7  -2   17.09    0.41
   3   7  -2   17.25    0.43
  -3  -7   2   16.08    0.55
  -3  -7   2   17.54    0.47
  -3  -7   2   16.10    0.64
   2   7  -2    0.43    0.12
   2   7  -2    0.64    0.11
  -2  -7   2    0.51    0.15
  -2  -7   2    0.38    0.12
   1   7  -2    7.30    0.26
   1   7  -2    7.39    0.27
  -1  -7   2    7.17    0.31
  -1  -7   2    7.23    0.27
   0   7  -2    0.54    0.11
   0   7  -2    0.37    0.10
   0   7  -2    0.30    0.11
   0   7  -2    0.13    0.12
   0  -7   2    0.35    0.13
   0  -7   2    0.30    0.11
   0  -7   2    0.35    0.11
  -1   7  -2   24.39    0.59
  -1   7  -2   23.29    0.59
  -1   7  -2   23.26    0.68
   1  -7   2   23.49    0.56
   1  -7   2   23.14    0.66
   1  -7   2   24.03    0.80
  -2   7  -2   12.50    0.38
  -2   7  -2   11.43    0.36
   2  -7   2   11.80    0.37
   2  -7   2   12.14    0.50
   2  -7   2   11.94    0.40
   2  -7   2   12.24    0.36
   2  -7   2   12.00    0.37
  -3   7  -2    1.13    0.14
   3  -7   2    1.26    0.14
   3  -7   2    1.30    0.14
   3  -7   2    1.28    0.17
   3  -7   2    1.30    0.14
  -4   7  -2    0.35    0.13
   4  -7   2    0.18    0.12
   5  -7   2    0.76    0.15
  -5  -6   2    9.86    0.49
   4   6  -2    5.77    0.22
  -4  -6   2    5.19    0.33
  -4  -6   2    5.82    0.26
  -4  -6   2    5.82    0.32
   3   6  -2    0.02    0.10
   3   6  -2    0.04    0.08
  -3  -6   2   -0.07    0.11
  -3  -6   2    0.12    0.16
  -3  -6   2    0.24    0.14
   2   6  -2   -0.23    0.08
   2   6  -2   -0.13    0.11
   2   6  -2   -0.17    0.09
   2   6  -2   -0.05    0.08
  -2  -6   2    0.05    0.12
  -2  -6   2   -0.02    0.10
  -2  -6   2    0.04    0.13
  -2  -6   2   -0.07    0.10
   1   6  -2    0.00    0.08
   1   6  -2    0.06    0.09
   1   6  -2    0.14    0.09
   1   6  -2    0.06    0.08
  -1  -6   2    0.15    0.12
  -1  -6   2    0.17    0.09
  -1  -6   2    0.10    0.09
  -1  -6   2    0.06    0.11
   0   6  -2    5.77    0.25
   0   6  -2    5.98    0.22
   0   6  -2    6.10    0.26
   0   6  -2    5.39    0.27
   0   6  -2    6.63    0.24
   0  -6   2    6.38    0.25
   0  -6   2    6.44    0.31
   0  -6   2    6.31    0.24
   0  -6   2    6.40    0.23
   0  -6   2    6.50    0.25
  -1   6  -2   54.25    1.19
  -1   6  -2   56.42    1.20
  -1   6  -2   56.12    1.39
  -1   6  -2   54.33    1.29
  -1   6  -2   57.52    1.30
   1  -6   2   54.41    1.29
   1  -6   2   54.35    1.20
   1  -6   2   53.82    1.35
   1  -6   2   55.75    1.20
   1  -6   2   56.06    1.63
   1  -6   2   55.58    1.11
  -2   6  -2    9.93    0.30
  -2   6  -2    8.08    0.36
  -2   6  -2    9.36    0.33
  -2   6  -2    9.76    0.41
  -2   6  -2    9.16    0.30
   2  -6   2    9.19    0.30
   2  -6   2    9.68    0.30
   2  -6   2    9.37    0.33
   2  -6   2    9.67    0.40
   2  -6   2    9.61    0.29
  -3   6  -2   31.45    0.98
  -3   6  -2   29.75    0.72
   3  -6   2   31.11    0.78
   3  -6   2   28.94    0.71
   3  -6   2   29.33    0.79
   3  -6   2   30.73    0.72
   3  -6   2   30.14    0.67
  -4   6  -2    1.96    0.24
  -4   6  -2    1.90    0.18
   4  -6   2    1.94    0.17
   4  -6   2    1.96    0.18
  -5   6  -2    4.83    0.28
   5  -6   2    4.53    0.24
   6  -6   2   13.12    0.39
   5   5  -2    2.47    0.17
  -5  -5   2    2.20    0.27
  -5  -5   2    2.53    0.27
   4   5  -2    8.67    0.26
   4   5  -2    8.49    0.33
  -4  -5   2    8.00    0.36
  -4  -5   2    8.71    0.29
  -4  -5   2    8.28    0.39
   3   5  -2    1.78    0.14
   3   5  -2    1.62    0.15
   3   5  -2    1.84    0.13
  -3  -5   2    2.50    0.22
  -3  -5   2    1.96    0.14
  -3  -5   2    1.70    0.22
  -3  -5   2    1.98    0.18
   2   5  -2   39.67    0.94
   2   5  -2   39.04    0.85
   2   5  -2   39.54    0.80
   2   5  -2   39.37    0.85
  -2  -5   2   38.89    0.98
  -2  -5   2   39.54    1.19
  -2  -5   2   38.66    0.96
  -2  -5   2   39.84    0.81
  -2  -5   2   38.55    0.87
   1   5  -2   15.11    0.39
   1   5  -2   15.91    0.37
   1   5  -2   15.05    0.43
   1   5  -2   15.46    0.39
   1   5  -2   15.86    0.41
  -1  -5   2   15.59    0.40
  -1  -5   2   15.34    0.54
  -1  -5   2   15.65    0.44
  -1  -5   2   16.00    0.45
  -1  -5   2   14.95    0.38
   0   5  -2   59.73    1.34
   0   5  -2   58.44    1.24
   0   5  -2   59.69    1.69
   0   5  -2   56.83    1.23
   0  -5   2   59.20    1.24
   0  -5   2   58.83    1.15
   0  -5   2   57.22    1.41
   0  -5   2   58.15    1.34
   0  -5   2   58.84    1.69
  -1   5  -2   36.85    0.79
  -1   5  -2   36.26    1.08
  -1   5  -2   35.13    0.85
  -1   5  -2   35.39    0.79
  -1   5  -2   36.79    0.86
   1  -5   2   35.46    1.07
   1  -5   2   34.99    0.79
   1  -5   2   34.98    0.73
   1  -5   2   36.28    0.79
  -2   5  -2    0.45    0.09
  -2   5  -2    0.45    0.12
  -2   5  -2    0.37    0.09
  -2   5  -2    0.43    0.08
   2  -5   2    0.34    0.09
   2  -5   2    0.44    0.08
   2  -5   2    0.46    0.11
   2  -5   2    0.40    0.08
   2  -5   2    0.26    0.08
  -3   5  -2    1.46    0.19
  -3   5  -2    1.46    0.15
  -3   5  -2    1.16    0.14
   3  -5   2    1.66    0.15
   3  -5   2    1.33    0.13
   3  -5   2    1.16    0.11
   3  -5   2    1.29    0.13
   3  -5   2    1.22    0.13
   3  -5   2    1.28    0.12
  -4   5  -2    3.10    0.27
  -4   5  -2    2.89    0.20
   4  -5   2    2.61    0.18
   4  -5   2    2.72    0.17
   4  -5   2    2.60    0.21
   4  -5   2    2.44    0.16
   4  -5   2    2.58    0.17
   4  -5   2    2.67    0.21
  -5   5  -2    0.15    0.12
  -5   5  -2    0.18    0.15
   5  -5   2    0.10    0.12
   5  -5   2    0.11    0.11
   6  -5   2    0.79    0.14
   5   4  -2    8.37    0.24
  -5  -4   2    8.71    0.29
  -5  -4   2    7.60    0.37
  -5  -4   2    8.07    0.36
   4   4  -2    3.90    0.18
   4   4  -2    3.73    0.23
  -4  -4   2    3.48    0.26
  -4  -4   2    3.84    0.23
  -4  -4   2    3.72    0.21
  -4  -4   2    3.90    0.26
   3   4  -2    9.44    0.25
   3   4  -2    8.81    0.30
   3   4  -2    9.02    0.24
  -3  -4   2    8.79    0.32
  -3  -4   2    8.82    0.28
  -3  -4   2    8.65    0.36
  -3  -4   2    8.78    0.26
  -3  -4   2    8.96    0.30
   2   4  -2    2.05    0.13
   2   4  -2    1.94    0.15
   2   4  -2    2.10    0.13
   2   4  -2    2.04    0.12
  -2  -4   2    1.78    0.16
  -2  -4   2    1.98    0.14
  -2  -4   2    1.96    0.14
  -2  -4   2    2.03    0.17
  -2  -4   2    2.02    0.14
   1   4  -2    6.84    0.21
   1   4  -2    6.53    0.20
   1   4  -2    6.64    0.23
   1   4  -2    6.57    0.20
  -1  -4   2    6.58    0.22
  -1  -4   2    6.57    0.20
  -1  -4   2    6.82    0.28
  -1  -4   2    6.88    0.21
  -1  -4   2    6.98    0.23
  -1  -4   2    6.46    0.24
   0   4  -2  117.70    2.39
   0   4  -2  119.19    2.60
   0   4  -2  116.73    2.39
   0   4  -2  116.82    3.28
   0  -4   2  121.42    2.40
   0  -4   2  118.43    3.28
   0  -4   2  114.31    2.72
   0  -4   2  117.40    2.21
   0  -4   2  117.72    2.60
  -1   4  -2   83.59    1.87
  -1   4  -2   83.55    1.72
  -1   4  -2   84.52    1.73
  -1   4  -2   83.70    2.36
   1  -4   2   83.87    2.35
   1  -4   2   84.18    1.59
   1  -4   2   83.08    1.72
   1  -4   2   83.54    1.87
   1  -4   2   83.52    1.72
  -2   4  -2   36.28    1.06
  -2   4  -2   36.64    0.78
  -2   4  -2   35.61    0.83
  -2   4  -2   35.37    0.78
   2  -4   2   35.08    0.84
   2  -4   2   35.71    0.72
   2  -4   2   35.35    0.77
   2  -4   2   34.92    1.04
   2  -4   2   33.92    0.77
   2  -4   2   35.33    0.84
  -3   4  -2    7.36    0.31
  -3   4  -2    7.36    0.24
  -3   4  -2    7.76    0.24
   3  -4   2    6.98    0.28
   3  -4   2    7.59    0.23
   3  -4   2    7.19    0.25
   3  -4   2    7.61    0.26
   3  -4   2    7.13    0.22
   3  -4   2    7.58    0.24
   3  -4   2    7.01    0.22
   3  -4   2    7.09    0.23
  -4   4  -2   28.09    0.89
  -4   4  -2   28.72    0.66
   4  -4   2   27.57    0.71
   4  -4   2   28.80    0.70
   4  -4   2   28.23    0.69
   4  -4   2   26.72    0.63
   4  -4   2   28.07    0.60
   4  -4   2   28.33    0.71
   4  -4   2   27.49    0.69
  -5   4  -2   23.89    0.82
  -5   4  -2   25.01    0.61
   5  -4   2   24.09    0.66
   5  -4   2   25.54    0.55
   5  -4   2   25.30    0.66
  -6   4  -2   85.93    2.60
   6  -4   2   92.34    1.73
   6  -4   2   90.43    2.08
  -6  -3   2    0.51    0.17
  -6  -3   2    0.63    0.18
   5   3  -2    0.12    0.10
   5   3  -2    0.10    0.08
  -5  -3   2    0.14    0.13
  -5  -3   2    0.13    0.10
  -5  -3   2    0.20    0.13
   4   3  -2    0.51    0.09
   4   3  -2    0.40    0.10
   4   3  -2    0.43    0.07
   4   3  -2    0.65    0.07
  -4  -3   2    0.37    0.10
  -4  -3   2    0.56    0.13
  -4  -3   2    0.53    0.13
  -4  -3   2    0.67    0.10
   3   3  -2   76.91    1.55
   3   3  -2   74.75    1.70
   3   3  -2   75.50    1.44
   3   3  -2   76.09    1.54
   3   3  -2   74.91    1.43
  -3  -3   2   73.21    2.14
  -3  -3   2   77.01    1.78
  -3  -3   2   75.47    1.72
  -3  -3   2   75.40    1.57
  -3  -3   2   75.44    1.45
   2   3  -2   63.89    1.44
   2   3  -2   63.34    1.22
   2   3  -2   63.54    1.22
   2   3  -2   63.46    1.31
   2   3  -2   63.49    1.45
   2   3  -2   64.30    1.32
  -2  -3   2   65.11    1.46
  -2  -3   2   64.06    1.51
  -2  -3   2   64.23    1.33
  -2  -3   2   62.51    1.81
  -2  -3   2   64.31    1.22
   1   3  -2  105.76    2.13
   1   3  -2  106.90    2.13
   1   3  -2  104.52    1.96
   1   3  -2  103.86    1.96
   1   3  -2  104.59    2.32
  -1  -3   2  106.92    2.43
  -1  -3   2  105.65    2.13
  -1  -3   2  105.59    2.31
  -1  -3   2  105.99    2.32
  -1  -3   2  102.63    1.97
  -1  -3   2  104.09    2.93
   0   3  -2  101.97    2.06
   0   3  -2  103.36    2.06
   0   3  -2  101.40    2.24
   0  -3   2  101.50    2.83
   0  -3   2  103.32    2.07
   0  -3   2  100.13    2.24
   0  -3   2  101.41    1.90
   0  -3   2  101.06    2.35
  -1   3  -2   43.58    0.98
  -1   3  -2   43.27    0.91
  -1   3  -2   43.09    0.98
  -1   3  -2   42.57    0.90
  -1   3  -2   44.22    1.24
   1  -3   2   42.34    0.83
   1  -3   2   43.90    0.90
   1  -3   2   43.00    1.23
   1  -3   2   42.68    1.02
   1  -3   2   43.57    0.98
   1  -3   2   42.35    0.90
  -2   3  -2    1.18    0.11
  -2   3  -2    1.35    0.14
  -2   3  -2    1.25    0.10
  -2   3  -2    1.08    0.10
   2  -3   2    1.41    0.09
   2  -3   2    1.47    0.11
   2  -3   2    1.17    0.12
   2  -3   2    1.27    0.09
   2  -3   2    1.20    0.10
   2  -3   2    1.28    0.12
   2  -3   2    1.32    0.12
  -3   3  -2   44.50    0.93
  -3   3  -2   43.23    1.26
  -3   3  -2   45.18    0.93
   3  -3   2   43.41    0.99
   3  -3   2   42.91    1.00
   3  -3   2   44.09    0.85
   3  -3   2   42.00    0.91
   3  -3   2   44.63    1.03
   3  -3   2   42.53    1.02
   3  -3   2   41.10    1.23
   3  -3   2   43.97    1.00
  -4   3  -2    8.91    0.27
  -4   3  -2    8.82    0.27
  -4   3  -2    8.77    0.36
   4  -3   2    8.90    0.24
   4  -3   2    9.14    0.30
   4  -3   2    8.64    0.29
   4  -3   2    9.32    0.29
   4  -3   2    9.33    0.25
  -5   3  -2    2.65    0.23
  -5   3  -2    2.75    0.19
   5  -3   2    2.97    0.21
   5  -3   2    2.62    0.21
   5  -3   2    2.82    0.17
  -6   3  -2    9.42    0.44
   6  -3   2   10.65    0.29
   6  -3   2   10.24    0.38
  -7   3  -2    7.19    0.41
   7  -3   2    7.78    0.35
   6   2  -2    5.44    0.20
  -6  -2   2    5.17    0.29
  -6  -2   2    4.75    0.31
   5   2  -2    4.15    0.23
   5   2  -2    4.38    0.18
  -5  -2   2    4.10    0.26
  -5  -2   2    4.12    0.22
  -5  -2   2    4.33    0.27
   4   2  -2   30.13    0.62
   4   2  -2   30.51    0.62
   4   2  -2   30.92    0.65
   4   2  -2   30.22    0.74
  -4  -2   2   28.96    0.92
  -4  -2   2   30.58    0.78
  -4  -2   2   30.60    0.77
  -4  -2   2   29.54    0.69
  -4  -2   2   30.41    0.64
   3   2  -2   22.31    0.47
   3   2  -2   22.96    0.50
   3   2  -2   22.73    0.56
   3   2  -2   22.61    0.47
  -3  -2   2   22.32    0.70
  -3  -2   2   21.99    0.48
  -3  -2   2   23.25    0.52
  -3  -2   2   23.27    0.59
  -3  -2   2   22.81    0.58
   2   2  -2    1.05    0.10
   2   2  -2    0.98    0.09
   2   2  -2    1.01    0.10
   2   2  -2    1.07    0.08
   2   2  -2    0.78    0.08
   2   2  -2    0.83    0.08
  -2  -2   2    0.74    0.08
  -2  -2   2    1.00    0.09
  -2  -2   2    0.92    0.09
  -2  -2   2    0.86    0.09
  -2  -2   2    0.93    0.09
  -2  -2   2    0.82    0.11
   1   2  -2  114.15    2.54
   1   2  -2  116.12    2.54
   1   2  -2  117.55    2.34
   1   2  -2  116.50    2.72
   1   2  -2  116.73    2.15
   1   2  -2  112.90    2.15
   1   2  -2  116.39    2.66
  -1  -2   2  116.28    2.66
  -1  -2   2  116.09    2.15
  -1  -2   2  114.80    2.15
  -1  -2   2  117.92    2.54
  -1  -2   2  117.88    2.54
  -1  -2   2  117.15    2.34
  -1  -2   2  113.91    3.20
   0   2  -2  285.63    6.48
   0   2  -2  271.37    5.22
   0   2  -2  287.66    6.19
   0   2  -2  286.45    5.73
   0   2  -2  284.68    7.85
   0  -2   2  274.87    5.24
   0  -2   2  286.32    6.49
   0  -2   2  281.81    6.18
   0  -2   2  281.16    7.84
   0  -2   2  285.61    5.72
  -1   2  -2    3.49    0.13
  -1   2  -2    3.33    0.11
  -1   2  -2    3.33    0.12
  -1   2  -2    3.23    0.12
  -1   2  -2    3.25    0.15
  -1   2  -2    3.43    0.11
   1  -2   2    3.25    0.11
   1  -2   2    3.24    0.13
   1  -2   2    3.42    0.15
   1  -2   2    3.58    0.11
   1  -2   2    3.51    0.13
   1  -2   2    3.34    0.12
  -2   2  -2   16.22    0.36
  -2   2  -2   16.73    0.36
  -2   2  -2   15.86    0.49
  -2   2  -2   16.17    0.38
   2  -2   2   15.21    0.47
   2  -2   2   15.84    0.35
   2  -2   2   15.69    0.39
   2  -2   2   16.44    0.36
   2  -2   2   15.76    0.38
   2  -2   2   16.64    0.39
   2  -2   2   15.97    0.39
   2  -2   2   16.08    0.33
   2  -2   2   16.32    0.39
  -3   2  -2  105.08    3.00
  -3   2  -2  108.61    2.19
  -3   2  -2  109.66    2.19
   3  -2   2  108.03    2.01
   3  -2   2  105.62    2.37
   3  -2   2  110.12    2.38
   3  -2   2  108.25    2.36
  -4   2  -2   18.10    0.43
  -4   2  -2   17.17    0.57
  -4   2  -2   17.73    0.46
  -4   2  -2   17.72    0.43
   4  -2   2   17.22    0.46
   4  -2   2   18.02    0.38
   4  -2   2   17.91    0.46
   4  -2   2   18.82    0.39
   4  -2   2   18.17    0.46
  -5   2  -2  257.72    5.13
  -5   2  -2  241.63    7.02
  -5   2  -2  255.84    5.55
   5  -2   2  262.28    4.69
   5  -2   2  248.62    5.56
   5  -2   2  259.84    5.57
  -6   2  -2   11.25    0.47
   6  -2   2   11.79    0.29
   6  -2   2   12.44    0.39
   6  -2   2   11.61    0.39
   7  -2   2   16.24    0.52
  -7  -1   2    2.34    0.29
  -7  -1   2    2.41    0.30
   6   1  -2    9.06    0.26
  -6  -1   2    8.09    0.40
  -6  -1   2    9.45    0.37
   5   1  -2    2.56    0.20
   5   1  -2    3.02    0.16
  -5  -1   2    2.42    0.22
  -5  -1   2    2.31    0.19
  -5  -1   2    2.53    0.19
  -5  -1   2    2.47    0.22
   4   1  -2   64.65    1.24
   4   1  -2   64.63    1.47
   4   1  -2   64.95    1.33
   4   1  -2   65.31    1.24
  -4  -1   2   62.17    1.85
  -4  -1   2   63.93    1.36
  -4  -1   2   65.23    1.55
  -4  -1   2   66.13    1.57
  -4  -1   2   65.00    1.49
  -4  -1   2   64.83    1.26
   3   1  -2   96.30    2.10
   3   1  -2   93.04    1.77
   3   1  -2   95.25    1.91
   3   1  -2   95.74    2.16
   3   1  -2   93.94    2.09
   3   1  -2   92.43    1.77
  -3  -1   2   92.37    1.77
  -3  -1   2   94.69    2.24
  -3  -1   2   94.85    2.10
  -3  -1   2   95.30    2.19
  -3  -1   2   93.43    1.93
  -3  -1   2   92.10    2.63
   2   1  -2   90.19    2.58
   2   1  -2   92.60    1.74
   2   1  -2   93.20    2.14
   2   1  -2   94.47    1.89
   2   1  -2   93.78    2.06
   2   1  -2   91.44    1.74
   2   1  -2   92.89    2.05
  -2  -1   2   91.52    2.59
  -2  -1   2   95.02    2.06
  -2  -1   2   94.22    2.05
  -2  -1   2   91.64    1.74
  -2  -1   2   94.14    1.89
  -2  -1   2   94.52    2.20
  -2  -1   2   97.18    2.16
   1   1  -2  192.63    3.59
   1   1  -2  194.97    3.61
   1   1  -2  192.12    4.22
   1   1  -2  198.76    4.56
   1   1  -2  188.38    5.34
   1   1  -2  195.21    4.24
   1   1  -2  200.48    3.92
  -1  -1   2  193.99    4.22
  -1  -1   2  187.26    5.37
  -1  -1   2  197.60    4.45
  -1  -1   2  193.34    4.25
  -1  -1   2  191.30    3.60
  -1  -1   2  188.34    3.61
  -1  -1   2  197.89    4.57
  -1  -1   2  199.55    3.92
   0   1  -2  228.77    5.18
   0   1  -2  224.18    4.18
   0   1  -2  220.80    4.18
   0   1  -2  225.34    6.24
   0   1  -2  227.23    4.93
   0   1  -2  230.40    4.55
   0   1  -2  222.80    4.91
   0   1  -2  227.96    6.23
   0  -1   2  229.95    4.55
   0  -1   2  219.44    4.18
   0  -1   2  228.99    5.17
   0  -1   2  221.74    6.23
   0  -1   2  221.01    4.91
   0  -1   2  225.68    4.93
   0  -1   2  228.67    6.23
  -1   1  -2   93.47    1.87
  -1   1  -2   94.20    2.02
  -1   1  -2   94.99    1.72
  -1   1  -2   89.43    2.02
  -1   1  -2   94.78    2.13
  -1   1  -2   99.88    2.57
  -1   1  -2   89.90    2.56
   1  -1   2   92.54    1.72
   1  -1   2   90.79    2.03
   1  -1   2   94.34    2.03
  -2   1  -2  129.64    2.41
  -2   1  -2  135.85    2.62
  -2   1  -2  135.59    2.98
  -2   1  -2  135.38    2.62
  -2   1  -2  125.60    3.59
  -2   1  -2  132.10    2.84
   2  -1   2  133.21    2.85
   2  -1   2  125.80    2.84
   2  -1   2  128.49    2.41
   2  -1   2  130.44    2.84
   2  -1   2  129.28    2.41
  -3   1  -2   96.85    2.10
  -3   1  -2   93.84    2.65
  -3   1  -2   97.04    1.94
  -3   1  -2   96.85    2.20
   3  -1   2   94.33    1.77
   3  -1   2   97.71    2.10
   3  -1   2   95.62    1.77
   3  -1   2   92.42    2.10
   3  -1   2   96.42    2.10
  -4   1  -2    2.20    0.16
  -4   1  -2    2.04    0.13
  -4   1  -2    1.93    0.13
   4  -1   2    2.27    0.14
   4  -1   2    2.17    0.10
   4  -1   2    2.03    0.14
  -5   1  -2   16.66    0.46
  -5   1  -2   15.57    0.55
  -5   1  -2   16.90    0.43
  -5   1  -2   16.39    0.47
   5  -1   2   16.10    0.46
   5  -1   2   17.05    0.46
  -6   1  -2   11.56    0.47
  -6   1  -2   12.05    0.41
   6  -1   2   12.64    0.39
   6  -1   2   12.33    0.39
   7   0  -2    1.73    0.17
  -7   0   2    1.20    0.22
  -7   0   2    1.28    0.21
   6   0  -2    1.26    0.12
  -6   0   2    1.04    0.17
  -6   0   2    0.79    0.17
   5   0  -2   23.55    0.53
   5   0  -2   24.39    0.63
   5   0  -2   23.38    0.52
  -5   0   2   23.89    0.64
  -5   0   2   22.92    0.65
  -5   0   2   24.90    0.67
  -5   0   2   23.37    0.78
   4   0  -2   46.39    0.92
   4   0  -2   46.80    1.09
   4   0  -2   46.80    1.09
   4   0  -2   46.17    0.98
  -4   0   2   46.15    1.00
  -4   0   2   45.86    1.36
  -4   0   2   47.46    1.10
  -4   0   2   46.79    1.16
  -4   0   2   46.10    1.14
   3   0  -2    3.61    0.14
   3   0  -2    3.31    0.18
   3   0  -2    3.52    0.15
   3   0  -2    3.53    0.13
   3   0  -2    3.31    0.13
   3   0  -2    3.57    0.14
   3   0  -2    3.23    0.17
  -3   0   2    3.47    0.16
  -3   0   2    3.46    0.17
  -3   0   2    3.45    0.18
  -3   0   2    3.32    0.15
  -3   0   2    3.60    0.14
  -3   0   2    3.46    0.14
   2   0  -2   21.84    0.44
   2   0  -2   21.56    0.44
   2   0  -2   21.77    0.52
   2   0  -2   22.75    0.54
   2   0  -2   22.81    0.56
   2   0  -2   21.27    0.64
   2   0  -2   21.71    0.53
   2   0  -2   22.23    0.48
  -2   0   2   21.76    0.53
  -2   0   2   21.46    0.45
  -2   0   2   22.51    0.55
  -2   0   2   21.80    0.48
  -2   0   2   21.32    0.52
  -2   0   2   21.49    0.65
  -2   0   2   22.28    0.52
  -2   0   2   22.42    0.56
   1   0  -2  240.56    5.69
   1   0  -2  237.47    5.28
   1   0  -2  232.25    4.47
   1   0  -2  245.45    4.87
   1   0  -2  235.23    4.47
   1   0  -2  245.36    6.69
   1   0  -2  236.31    5.27
   1   0  -2  250.76    5.53
  -1   0   2  245.25    4.86
  -1   0   2  248.26    6.69
  -1   0   2  237.01    4.49
  -1   0   2  237.36    5.68
  -1   0   2  240.52    5.28
  -1   0   2  246.15    5.55
  -1   0   2  231.78    4.45
   0   0  -2   57.24    1.12
   0   0  -2   55.23    1.33
   0   0  -2   53.65    1.03
   0   0  -2   58.93    1.54
   0   0  -2   55.92    1.03
   0   0  -2   55.24    1.22
   0   0   2   53.91    1.03
   0   0   2   55.72    1.12
   0   0   2   53.50    1.54
   0   0   2   58.29    1.12
   0   0   2   55.84    1.33
   0   0   2   54.78    1.22
   0   0   2   60.93    1.54
  -1   0  -2   11.96    0.28
  -2   0  -2  230.59    4.95
  -2   0  -2  226.41    4.16
  -2   0  -2  223.66    4.16
   2   0   2  229.49    4.92
  -3   0  -2   -0.01    0.04
  -3   0  -2    0.05    0.04
  -3   0  -2    0.05    0.05
   3   0   2    0.00    0.04
   3   0   2    0.01    0.06
   3   0   2    0.03    0.04
  -4   0  -2  417.45    8.27
  -4   0  -2  397.74   11.34
  -4   0  -2  416.83    8.98
  -4   0  -2  426.30    9.41
   4   0   2  404.86    8.98
   4   0   2  427.78    8.99
   4   0   2  412.39    8.98
  -5   0  -2   69.12    2.07
  -5   0  -2   75.88    1.68
  -5   0  -2   73.68    1.73
   5   0   2   74.43    1.65
   5   0   2   72.96    1.65
  -6   0  -2   20.56    0.71
  -6   0  -2   22.08    0.61
   6   0   2   21.99    0.58
   7  -1  -2   13.26    0.36
  -7   1   2   12.88    0.48
   6  -1  -2    9.49    0.27
   6  -1  -2   10.19    0.30
  -6   1   2    9.98    0.39
  -6   1   2    9.89    0.45
   5  -1  -2   26.35    0.64
   5  -1  -2   26.79    0.57
   5  -1  -2   26.98    0.69
   5  -1  -2   26.25    0.60
  -5   1   2   26.71    0.74
  -5   1   2   26.97    0.70
  -5   1   2   25.82    0.85
  -5   1   2   25.47    0.72
  -5   1   2   26.74    0.64
   4  -1  -2   62.03    1.18
   4  -1  -2   60.93    1.39
   4  -1  -2   60.83    1.40
   4  -1  -2   60.17    1.27
   4  -1  -2   61.55    1.43
  -4   1   2   59.29    1.75
  -4   1   2   60.29    1.29
  -4   1   2   60.48    1.51
  -4   1   2   60.76    1.47
  -4   1   2   61.66    1.41
   3  -1  -2   37.68    1.12
   3  -1  -2   39.52    0.91
   3  -1  -2   39.97    0.94
   3  -1  -2   37.41    0.77
   3  -1  -2   39.17    0.83
   3  -1  -2   38.13    0.90
   3  -1  -2   38.96    0.91
  -3   1   2   39.80    0.95
  -3   1   2   39.08    0.90
  -3   1   2   38.88    0.84
  -3   1   2   39.84    0.92
  -3   1   2   38.68    1.14
  -3   1   2   39.43    0.98
   2  -1  -2  130.85    2.85
   2  -1  -2  128.19    2.42
   2  -1  -2  131.13    2.63
   2  -1  -2  130.19    3.60
   2  -1  -2  132.55    3.09
   2  -1  -2  128.76    2.85
   2  -1  -2  130.28    2.85
   2  -1  -2  127.86    2.42
  -2   1   2  132.08    3.09
  -2   1   2  127.20    2.85
  -2   1   2  133.29    2.85
  -2   1   2  130.05    3.60
  -2   1   2  131.30    2.85
  -2   1   2  133.07    2.63
  -2   1   2  127.64    2.63
   1  -1  -2  225.71    4.53
   1  -1  -2  221.08    4.91
   1  -1  -2  223.21    5.32
   1  -1  -2  230.84    4.52
   1  -1  -2  225.22    6.22
   1  -1  -2  218.82    4.17
   1  -1  -2  220.09    4.88
  -1   1   2  228.05    5.30
  -1   1   2  226.49    4.88
  -1   1   2  219.58    4.90
  -1   1   2  217.00    4.13
  -1   1   2  223.79    4.52
  -1   1   2  223.14    4.51
   0  -1  -2  347.77    6.78
   0  -1  -2  338.72    7.99
   0  -1  -2  325.58    7.33
   0  -1  -2  325.56    6.22
   0  -1  -2  335.81    6.77
   0  -1  -2  348.22    9.29
   0   1   2  344.11    7.35
   0   1   2  352.07    6.76
   0   1   2  327.67    7.34
   0   1   2  330.97    7.99
   0   1   2  331.77    6.76
   0   1   2  332.30    6.22
   0   1   2  351.41    9.26
  -1  -1  -2   87.94    2.08
  -2  -1  -2  243.17    4.57
  -2  -1  -2  249.83    4.57
  -2  -1  -2  257.03    5.42
  -3  -1  -2    0.88    0.07
  -3  -1  -2    0.84    0.08
  -3  -1  -2    0.95    0.11
   3   1   2    0.84    0.08
   3   1   2    0.78    0.08
  -4  -1  -2   16.69    0.45
  -4  -1  -2   15.05    0.49
  -4  -1  -2   15.79    0.35
  -4  -1  -2   16.63    0.42
  -4  -1  -2   16.52    0.38
   4   1   2   16.08    0.41
  -5  -1  -2    9.09    0.29
  -5  -1  -2    8.98    0.32
  -5  -1  -2    8.42    0.33
  -5  -1  -2    8.99    0.31
   5   1   2    8.77    0.28
  -6  -1  -2    6.02    0.29
  -6  -1  -2    5.42    0.30
   6   1   2    5.88    0.26
   7  -2  -2   -0.03    0.12
   6  -2  -2    6.12    0.22
   6  -2  -2    6.50    0.25
  -6   2   2    6.11    0.36
  -6   2   2    6.12    0.31
   5  -2  -2   33.31    0.83
   5  -2  -2   32.17    0.74
   5  -2  -2   33.32    0.84
   5  -2  -2   33.34    0.82
   5  -2  -2   33.71    0.70
  -5   2   2   32.27    0.78
  -5   2   2   33.24    0.84
  -5   2   2   31.92    1.04
  -5   2   2   34.07    0.91
   4  -2  -2   12.97    0.34
   4  -2  -2   12.93    0.33
   4  -2  -2   13.56    0.38
   4  -2  -2   12.99    0.38
   4  -2  -2   13.47    0.39
  -4   2   2   13.27    0.48
  -4   2   2   13.38    0.36
  -4   2   2   13.04    0.40
  -4   2   2   13.14    0.35
  -4   2   2   13.12    0.43
   3  -2  -2    0.59    0.08
   3  -2  -2    0.68    0.08
   3  -2  -2    0.60    0.10
   3  -2  -2    0.52    0.08
   3  -2  -2    0.64    0.08
   3  -2  -2    0.48    0.09
  -3   2   2    0.62    0.08
  -3   2   2    0.57    0.08
  -3   2   2    0.61    0.10
  -3   2   2    0.61    0.11
  -3   2   2    0.68    0.09
   2  -2  -2   31.20    0.76
   2  -2  -2   30.98    0.67
   2  -2  -2   30.35    0.73
   2  -2  -2   31.19    0.80
   2  -2  -2   30.72    0.73
   2  -2  -2   30.62    0.62
   2  -2  -2   31.62    0.74
   2  -2  -2   31.01    0.91
   2  -2  -2   31.28    0.68
  -2   2   2   32.07    0.92
  -2   2   2   31.32    0.68
  -2   2   2   31.47    0.67
  -2   2   2   31.10    0.73
  -2   2   2   30.22    0.72
  -2   2   2   32.42    0.80
   1  -2  -2   88.16    1.80
   1  -2  -2   89.65    1.80
   1  -2  -2   87.79    2.11
   1  -2  -2   89.20    2.46
   1  -2  -2   88.84    1.95
   1  -2  -2   87.87    1.66
   1  -2  -2   87.01    1.95
  -1   2   2   87.97    1.95
  -1   2   2   88.93    2.12
  -1   2   2   87.97    1.65
  -1   2   2   87.52    2.46
  -1   2   2   91.72    1.80
  -1   2   2   89.99    1.80
  -1   2   2   88.23    1.95
   0  -2  -2    0.19    0.05
   0  -2  -2    0.23    0.04
   0  -2  -2    0.23    0.05
   0  -2  -2    0.21    0.04
   0  -2  -2    0.21    0.04
   0  -2  -2    0.26    0.04
   0   2   2    0.19    0.04
   0   2   2    0.20    0.04
   0   2   2    0.26    0.04
   0   2   2    0.17    0.04
   0   2   2    0.26    0.05
   0   2   2    0.34    0.05
  -1  -2  -2  160.42    3.21
  -1  -2  -2  160.80    2.96
  -1  -2  -2  165.65    3.22
  -1  -2  -2  160.91    3.78
   1   2   2  164.81    3.49
   1   2   2  160.20    3.79
   1   2   2  156.81    2.95
   1   2   2  158.40    2.95
  -2  -2  -2   27.65    0.54
  -2  -2  -2   27.81    0.58
  -2  -2  -2   28.00    0.58
  -2  -2  -2   27.69    0.68
  -2  -2  -2   27.59    0.67
   2   2   2   29.00    0.63
  -3  -2  -2  329.56    6.20
  -3  -2  -2  336.56    6.74
  -3  -2  -2  341.29    7.34
   3   2   2  344.97    7.32
  -4  -2  -2  165.47    3.32
  -4  -2  -2  166.18    3.64
  -4  -2  -2  160.90    4.54
  -4  -2  -2  167.21    3.77
  -4  -2  -2  160.13    3.05
   4   2   2  169.04    3.61
  -5  -2  -2    9.10    0.30
  -5  -2  -2    8.82    0.33
  -5  -2  -2    8.56    0.34
   5   2   2    8.71    0.29
  -6  -2  -2    0.27    0.14
  -6  -2  -2    0.00    0.12
   6   2   2    0.07    0.11
   7  -3  -2   10.72    0.34
   6  -3  -2    4.82    0.23
  -6   3   2    5.14    0.35
  -6   3   2    5.08    0.26
   5  -3  -2   21.39    0.53
   5  -3  -2   22.16    0.59
   5  -3  -2   21.82    0.61
   5  -3  -2   22.13    0.51
  -5   3   2   22.75    0.76
  -5   3   2   21.65    0.56
   4  -3  -2   16.63    0.47
   4  -3  -2   15.89    0.41
   4  -3  -2   16.69    0.47
   4  -3  -2   16.70    0.47
   4  -3  -2   16.35    0.40
  -4   3   2   16.09    0.58
  -4   3   2   16.27    0.51
  -4   3   2   16.20    0.43
  -4   3   2   15.93    0.43
   3  -3  -2   49.26    1.12
   3  -3  -2   48.50    1.12
   3  -3  -2   41.64    1.16
   3  -3  -2   48.34    0.96
   3  -3  -2   47.58    1.40
   3  -3  -2   47.73    1.03
  -3   3   2   49.27    1.22
  -3   3   2   48.18    1.11
  -3   3   2   49.55    1.04
  -3   3   2   48.97    1.04
  -3   3   2   49.72    1.41
   2  -3  -2   74.66    2.09
   2  -3  -2   71.81    1.53
   2  -3  -2   73.82    1.65
   2  -3  -2   74.64    1.53
   2  -3  -2   73.05    1.41
  -2   3   2   74.07    1.80
  -2   3   2   75.51    1.66
  -2   3   2   74.47    1.53
  -2   3   2   75.19    1.53
  -2   3   2   76.57    2.09
  -2   3   2   68.96    1.65
   1  -3  -2  237.24    6.48
   1  -3  -2  230.60    5.07
   1  -3  -2  233.02    4.30
   1  -3  -2  235.06    4.70
   1  -3  -2  235.56    5.07
   1  -3  -2  230.51    5.48
   1  -3  -2  228.51    4.67
  -1   3   2  231.61    5.48
  -1   3   2  232.30    4.67
  -1   3   2  233.21    4.67
  -1   3   2  239.37    6.43
  -1   3   2  230.02    5.07
  -1   3   2  232.45    5.07
   0  -3  -2    3.95    0.15
   0  -3  -2    3.83    0.18
   0  -3  -2    4.27    0.14
   0  -3  -2    4.24    0.14
   0  -3  -2    3.98    0.14
   0  -3  -2    4.12    0.16
   0   3   2    4.10    0.16
   0   3   2    4.34    0.18
   0   3   2    3.95    0.13
   0   3   2    4.08    0.16
   0   3   2    3.70    0.13
   0   3   2    3.92    0.13
   0   3   2    3.79    0.15
  -1  -3  -2  182.71    3.70
  -1  -3  -2  181.20    4.33
  -1  -3  -2  192.35    3.70
  -1  -3  -2  181.63    3.40
  -1  -3  -2  189.06    5.07
   1   3   2  185.50    4.33
   1   3   2  180.63    3.68
   1   3   2  180.80    3.39
   1   3   2  184.04    3.39
   1   3   2  187.43    4.02
  -2  -3  -2   11.58    0.28
  -2  -3  -2   11.58    0.34
  -2  -3  -2   10.99    0.30
  -2  -3  -2   11.36    0.26
  -2  -3  -2   12.31    0.28
   2   3   2   11.81    0.31
  -3  -3  -2    8.79    0.24
  -3  -3  -2    8.44    0.22
  -3  -3  -2    8.39    0.31
   3   3   2    8.34    0.26
  -4  -3  -2    1.94    0.13
  -4  -3  -2    2.19    0.14
  -4  -3  -2    1.83    0.19
   4   3   2    2.21    0.15
  -5  -3  -2    2.97    0.22
  -5  -3  -2    3.17    0.20
  -5  -3  -2    3.58    0.26
   5   3   2    3.42    0.21
  -6  -3  -2    5.31    0.30
   6   3   2    5.23    0.26
   7  -4  -2    0.30    0.14
   6  -4  -2    9.80    0.33
  -6   4   2    9.90    0.37
   5  -4  -2   11.93    0.36
   5  -4  -2   11.96    0.35
  -5   4   2   12.52    0.39
  -5   4   2   12.22    0.51
   4  -4  -2    8.43    0.32
   4  -4  -2    9.10    0.29
   4  -4  -2    8.25    0.33
   4  -4  -2    8.37    0.29
  -4   4   2    9.06    0.41
  -4   4   2    8.69    0.30
  -4   4   2    8.68    0.30
   3  -4  -2    0.08    0.08
   3  -4  -2    0.09    0.07
   3  -4  -2    0.27    0.09
   3  -4  -2    0.04    0.08
   3  -4  -2   -0.06    0.09
   3  -4  -2    0.05    0.08
  -3   4   2    0.05    0.08
  -3   4   2   -0.07    0.09
  -3   4   2    0.25    0.09
  -3   4   2    0.03    0.07
  -3   4   2    0.05    0.11
   2  -4  -2   28.16    0.65
   2  -4  -2   28.48    0.60
   2  -4  -2   27.86    0.70
   2  -4  -2   28.94    0.70
   2  -4  -2   28.85    0.65
   2  -4  -2   28.68    0.87
  -2   4   2   26.38    0.86
  -2   4   2   28.73    0.65
  -2   4   2   28.47    0.64
  -2   4   2   28.14    0.70
  -2   4   2   29.63    0.77
  -2   4   2   28.88    0.70
   1  -4  -2   10.54    0.28
   1  -4  -2   10.32    0.29
   1  -4  -2   10.47    0.31
   1  -4  -2   10.83    0.29
   1  -4  -2   10.55    0.39
  -1   4   2   10.66    0.28
  -1   4   2   10.54    0.32
  -1   4   2   10.58    0.28
  -1   4   2   11.01    0.39
  -1   4   2   10.64    0.31
  -1   4   2   11.70    0.34
   0  -4  -2   41.08    1.04
   0  -4  -2   42.03    0.89
   0  -4  -2   42.24    0.90
   0  -4  -2   41.91    0.83
   0  -4  -2   42.59    1.22
   0   4   2   40.01    0.82
   0   4   2   41.63    0.97
   0   4   2   42.01    0.97
   0   4   2   40.54    1.04
   0   4   2   42.65    0.88
   0   4   2   42.59    0.88
   0   4   2   43.34    1.20
  -1  -4  -2   35.44    0.88
  -1  -4  -2   35.87    0.77
  -1  -4  -2   35.66    0.71
  -1  -4  -2   36.51    1.05
  -1  -4  -2   35.79    0.77
   1   4   2   35.99    0.74
   1   4   2   34.48    0.70
   1   4   2   35.36    0.88
   1   4   2   36.25    0.84
   1   4   2   35.97    0.70
   1   4   2   36.25    0.74
  -2  -4  -2  118.93    3.27
  -2  -4  -2  118.28    2.39
  -2  -4  -2  117.41    2.20
  -2  -4  -2  116.30    2.62
  -2  -4  -2  118.45    2.39
   2   4   2  116.65    2.17
   2   4   2  113.87    2.17
   2   4   2  118.92    2.59
  -3  -4  -2  159.27    3.00
  -3  -4  -2  160.95    3.26
  -3  -4  -2  161.74    3.58
   3   4   2  162.12    3.53
  -4  -4  -2    0.01    0.13
  -4  -4  -2   -0.09    0.08
   4   4   2   -0.05    0.10
  -5  -4  -2    0.06    0.14
  -5  -4  -2    0.01    0.12
   5   4   2    0.19    0.11
   6  -5  -2    5.27    0.27
   5  -5  -2    9.19    0.31
  -5   5   2    9.00    0.34
   4  -5  -2   21.13    0.54
   4  -5  -2   21.20    0.52
  -4   5   2   21.78    0.75
  -4   5   2   21.10    0.55
   3  -5  -2   22.06    0.54
   3  -5  -2   21.45    0.54
   3  -5  -2   22.44    0.51
   3  -5  -2   19.49    0.57
   3  -5  -2   21.81    0.72
  -3   5   2   22.20    0.73
  -3   5   2   22.34    0.54
  -3   5   2   20.54    0.57
  -3   5   2   20.87    0.54
   2  -5  -2   90.36    2.06
   2  -5  -2   91.92    1.90
   2  -5  -2   89.79    2.59
   2  -5  -2   89.07    1.75
   2  -5  -2   91.38    1.90
  -2   5   2   92.98    2.06
  -2   5   2   92.50    1.90
  -2   5   2   91.22    2.06
  -2   5   2   88.87    1.90
  -2   5   2   93.15    2.24
  -2   5   2   91.88    2.59
   1  -5  -2    1.48    0.19
   1  -5  -2    1.79    0.15
   1  -5  -2    1.82    0.15
   1  -5  -2    1.45    0.14
  -1   5   2    1.70    0.13
  -1   5   2    1.76    0.14
  -1   5   2    1.59    0.17
  -1   5   2    1.87    0.20
  -1   5   2    1.68    0.17
  -1   5   2    2.09    0.16
   0  -5  -2   46.55    1.01
   0  -5  -2   45.94    0.94
   0  -5  -2   47.32    1.02
   0  -5  -2   48.09    1.38
   0   5   2   46.63    1.17
   0   5   2   47.89    1.00
   0   5   2   46.18    1.00
   0   5   2   46.39    1.10
   0   5   2   48.53    1.10
  -1  -5  -2   12.95    0.44
  -1  -5  -2   11.89    0.33
  -1  -5  -2   12.49    0.33
  -1  -5  -2   12.29    0.31
   1   5   2   12.07    0.36
   1   5   2   12.01    0.30
   1   5   2   12.25    0.30
   1   5   2   11.50    0.35
   1   5   2   12.19    0.30
  -2  -5  -2    1.85    0.16
  -2  -5  -2    1.55    0.20
  -2  -5  -2    1.91    0.15
  -2  -5  -2    2.03    0.21
   2   5   2    1.79    0.18
   2   5   2    1.92    0.13
  -3  -5  -2   -0.08    0.11
  -3  -5  -2   -0.16    0.11
  -3  -5  -2   -0.11    0.07
   3   5   2   -0.11    0.10
  -4  -5  -2    0.02    0.14
   4   5   2   -0.03    0.11
  -5  -5  -2    5.97    0.33
   5   5   2    5.76    0.28
   6  -6  -2    4.89    0.27
   5  -6  -2    9.09    0.34
   4  -6  -2    5.02    0.25
   4  -6  -2    4.91    0.25
   4  -6  -2    5.51    0.26
  -4   6   2    5.08    0.26
   3  -6  -2    3.75    0.22
   3  -6  -2    3.45    0.22
   3  -6  -2    4.01    0.23
   3  -6  -2    3.88    0.30
  -3   6   2    3.66    0.21
  -3   6   2    4.16    0.22
   2  -6  -2   10.27    0.34
   2  -6  -2   10.38    0.34
   2  -6  -2   10.32    0.45
   2  -6  -2   10.60    0.33
  -2   6   2   11.20    0.33
  -2   6   2   10.58    0.37
  -2   6   2    9.81    0.33
  -2   6   2   10.95    0.45
  -2   6   2   11.02    0.40
   1  -6  -2    8.98    0.40
   1  -6  -2    8.83    0.30
   1  -6  -2    8.54    0.28
  -1   6   2    8.26    0.28
  -1   6   2    8.65    0.28
  -1   6   2    8.75    0.33
  -1   6   2    8.89    0.33
  -1   6   2    8.94    0.33
  -1   6   2    9.53    0.40
   0  -6  -2   13.61    0.38
   0  -6  -2   13.43    0.36
   0  -6  -2   13.22    0.50
   0   6   2   13.16    0.41
   0   6   2   13.00    0.35
   0   6   2   12.95    0.41
   0   6   2   13.50    0.41
   0   6   2   13.26    0.35
  -1  -6  -2   15.75    0.40
  -1  -6  -2   16.07    0.43
  -1  -6  -2   16.07    0.58
   1   6   2   15.77    0.38
   1   6   2   15.61    0.45
   1   6   2   15.80    0.47
   1   6   2   16.04    0.38
   1   6   2   16.39    0.47
  -2  -6  -2   68.81    2.00
  -2  -6  -2   68.92    1.47
  -2  -6  -2   66.61    1.63
  -2  -6  -2   68.87    1.35
   2   6   2   70.27    1.32
   2   6   2   69.28    1.59
  -3  -6  -2    2.69    0.25
   3   6   2    2.58    0.22
  -4  -6  -2    1.36    0.19
   4   6   2    1.66    0.21
   5  -7  -2   10.40    0.37
   4  -7  -2    3.19    0.23
   3  -7  -2   25.60    0.66
   3  -7  -2   25.12    0.62
  -3   7   2   25.83    0.65
   2  -7  -2    3.25    0.21
   2  -7  -2    3.43    0.22
  -2   7   2    3.62    0.21
  -2   7   2    3.39    0.20
   1  -7  -2    3.48    0.22
   1  -7  -2    3.23    0.22
  -1   7   2    3.13    0.23
  -1   7   2    3.37    0.25
  -1   7   2    3.02    0.19
   0  -7  -2    2.64    0.20
   0  -7  -2    2.85    0.21
   0   7   2    2.73    0.23
   0   7   2    2.69    0.20
   0   7   2    2.78    0.17
  -1  -7  -2    0.24    0.12
  -1  -7  -2    0.24    0.11
   1   7   2    0.09    0.12
   1   7   2    0.16    0.10
   1   7   2    0.10    0.08
  -2  -7  -2    0.01    0.14
  -2  -7  -2    0.28    0.11
   2   7   2    0.25    0.09
  -3  -7  -2    1.51    0.20
   4  -8  -2    0.00    0.14
   3  -8  -2    3.62    0.26
   2  -8  -2    0.84    0.16
   2  -8  -2    0.73    0.16
   1  -8  -2    1.28    0.16
   1  -8  -2    1.07    0.16
   0  -8  -2    0.84    0.15
   0  -8  -2    0.79    0.15
  -1  -8  -2   13.76    0.41
  -1  -8  -2   13.05    0.49
   1   8   2   13.77    0.37
   1   8   2   13.70    0.48
  -2  -8  -2    2.45    0.28
   2   8   2    2.57    0.18
   2   8   2    2.46    0.28
   3  -9  -2    1.17    0.18
   2  -9  -2    0.12    0.15
   1  -9  -2    0.00    0.14
   0  -9  -2    0.09    0.14
   1   9   2    0.05    0.12
   1 -10   3    1.34    0.19
   2   9  -3   16.74    0.47
  -2  -9   3   16.68    0.50
   1   9  -3    1.01    0.15
  -1  -9   3    1.03    0.19
  -1  -9   3    1.12    0.17
   0   9  -3   17.42    0.48
   0  -9   3   17.62    0.57
   0  -9   3   17.23    0.49
   1  -9   3   10.38    0.41
   1  -9   3   10.72    0.38
   2  -9   3    0.56    0.15
   3  -9   3    5.70    0.29
   4  -9   3   -0.19    0.14
   3   8  -3    1.06    0.15
  -3  -8   3    1.15    0.17
   2   8  -3    0.29    0.13
  -2  -8   3    0.28    0.14
  -2  -8   3    0.43    0.16
   1   8  -3    2.70    0.22
  -1  -8   3    3.00    0.24
  -1  -8   3    3.18    0.25
   0   8  -3   10.39    0.34
   0  -8   3   10.29    0.39
   0  -8   3   10.56    0.35
  -1   8  -3    1.51    0.15
   1  -8   3    1.24    0.15
   2  -8   3   21.72    0.55
   3  -8   3    0.20    0.13
   4  -8   3    1.72    0.17
   5  -8   3    1.48    0.18
   4   7  -3    0.46    0.12
   3   7  -3   57.28    1.15
  -3  -7   3   55.86    1.72
  -3  -7   3   58.50    1.18
  -3  -7   3   54.72    1.40
   2   7  -3   25.07    0.60
   2   7  -3   24.91    0.58
  -2  -7   3   25.59    0.60
  -2  -7   3   24.58    0.84
  -2  -7   3   24.08    0.70
   1   7  -3   48.74    1.00
   1   7  -3   47.30    1.06
  -1  -7   3   47.66    1.18
  -1  -7   3   49.14    1.00
   0   7  -3   63.72    1.52
   0   7  -3   62.30    1.32
   0   7  -3   57.73    1.32
   0  -7   3   59.71    1.50
   0  -7   3   62.70    1.24
   0  -7   3   59.68    1.44
  -1   7  -3    0.57    0.12
  -1   7  -3    0.78    0.12
   1  -7   3    0.60    0.12
   1  -7   3    0.89    0.12
   1  -7   3    0.66    0.15
   1  -7   3    0.69    0.12
  -2   7  -3   13.23    0.40
  -2   7  -3   13.84    0.40
   2  -7   3   13.45    0.43
   2  -7   3   13.65    0.38
   2  -7   3   13.52    0.53
   2  -7   3   13.53    0.40
  -3   7  -3   -0.03    0.11
   3  -7   3   -0.04    0.11
   3  -7   3    0.01    0.10
  -4   7  -3    2.81    0.22
   4  -7   3    2.71    0.22
  -5   7  -3    1.40    0.18
   5  -7   3    1.38    0.17
   5   6  -3    1.15    0.13
   4   6  -3    0.62    0.11
  -4  -6   3    0.55    0.17
  -4  -6   3    0.63    0.13
  -4  -6   3    0.57    0.16
   3   6  -3    2.96    0.17
   3   6  -3    3.06    0.20
  -3  -6   3    3.05    0.28
  -3  -6   3    2.85    0.25
  -3  -6   3    3.05    0.22
   2   6  -3    6.30    0.23
   2   6  -3    6.53    0.24
   2   6  -3    6.42    0.28
   2   6  -3    6.57    0.24
  -2  -6   3    6.67    0.27
  -2  -6   3    6.18    0.33
  -2  -6   3    6.80    0.30
  -2  -6   3    6.39    0.35
  -2  -6   3    6.11    0.25
   1   6  -3   39.15    0.95
   1   6  -3   40.61    0.97
   1   6  -3   38.65    0.81
   1   6  -3   37.95    0.87
   1   6  -3   39.93    0.87
  -1  -6   3   38.88    1.20
  -1  -6   3   38.39    0.82
  -1  -6   3   39.74    0.88
  -1  -6   3   39.10    1.00
  -1  -6   3   38.51    0.96
   0   6  -3    1.50    0.18
   0   6  -3    1.37    0.14
   0   6  -3    1.39    0.13
   0   6  -3    1.41    0.16
   0  -6   3    1.48    0.15
   0  -6   3    1.78    0.16
   0  -6   3    1.65    0.15
   0  -6   3    1.62    0.21
   0  -6   3    1.54    0.16
   0  -6   3    1.45    0.18
  -1   6  -3   57.94    1.22
  -1   6  -3   56.68    1.31
  -1   6  -3   58.15    1.66
  -1   6  -3   54.91    1.21
   1  -6   3   54.55    1.37
   1  -6   3   55.70    1.13
   1  -6   3   56.28    1.65
   1  -6   3   56.33    1.22
  -2   6  -3    8.40    0.28
  -2   6  -3    8.38    0.38
  -2   6  -3    8.03    0.28
   2  -6   3    8.21    0.37
   2  -6   3    7.80    0.26
   2  -6   3    8.31    0.29
   2  -6   3    8.18    0.31
   2  -6   3    8.18    0.28
  -3   6  -3    3.70    0.29
  -3   6  -3    3.66    0.20
   3  -6   3    3.70    0.20
   3  -6   3    3.66    0.20
   3  -6   3    3.84    0.21
   3  -6   3    3.77    0.24
  -4   6  -3    6.43    0.27
  -4   6  -3    6.41    0.35
   4  -6   3    6.46    0.25
   4  -6   3    6.43    0.30
  -5   6  -3    8.73    0.34
   5  -6   3    9.16    0.31
   6  -6   3   -0.03    0.13
   5   5  -3    0.04    0.10
  -5  -5   3    0.15    0.17
  -5  -5   3    0.32    0.16
   4   5  -3   95.92    1.83
   4   5  -3   97.71    1.95
  -4  -5   3   92.14    2.73
  -4  -5   3   95.44    1.85
  -4  -5   3   95.21    2.21
   3   5  -3  128.11    2.63
   3   5  -3  129.10    2.63
   3   5  -3  130.11    2.44
   3   5  -3  126.08    2.88
  -3  -5   3  133.64    3.04
  -3  -5   3  130.95    2.91
  -3  -5   3  129.91    2.45
  -3  -5   3  123.30    3.63
   2   5  -3   50.79    1.18
   2   5  -3   50.04    1.00
   2   5  -3   50.61    1.07
   2   5  -3   49.34    1.07
  -2  -5   3   49.89    1.23
  -2  -5   3   48.33    1.47
  -2  -5   3   52.03    1.49
  -2  -5   3   51.62    1.01
  -2  -5   3   48.80    1.19
  -2  -5   3   50.30    1.09
   1   5  -3  198.35    4.36
   1   5  -3  200.85    4.01
   1   5  -3  198.44    3.70
   1   5  -3  193.66    4.01
  -1  -5   3  200.61    3.70
  -1  -5   3  201.43    5.51
  -1  -5   3  193.22    4.36
  -1  -5   3  201.02    4.35
  -1  -5   3  195.62    4.57
  -1  -5   3  202.51    4.02
   0   5  -3    0.50    0.08
   0   5  -3    0.28    0.08
   0   5  -3    0.34    0.08
   0  -5   3    0.38    0.09
   0  -5   3    0.24    0.07
   0  -5   3    0.32    0.10
   0  -5   3    0.24    0.08
   0  -5   3    0.55    0.09
   0  -5   3    0.26    0.08
  -1   5  -3   27.96    0.85
  -1   5  -3   28.30    0.63
  -1   5  -3   23.71    0.66
  -1   5  -3   27.70    0.67
  -1   5  -3   26.92    0.62
   1  -5   3   26.77    0.83
   1  -5   3   27.02    0.62
   1  -5   3   27.20    0.58
   1  -5   3   27.10    0.69
   1  -5   3   27.41    0.67
  -2   5  -3    3.71    0.19
  -2   5  -3    3.49    0.24
  -2   5  -3    3.50    0.19
  -2   5  -3    3.88    0.18
   2  -5   3    3.66    0.23
   2  -5   3    3.65    0.17
   2  -5   3    3.45    0.20
   2  -5   3    3.62    0.17
   2  -5   3    3.47    0.17
  -3   5  -3   10.22    0.42
  -3   5  -3   10.41    0.31
  -3   5  -3   10.49    0.32
   3  -5   3   10.27    0.29
   3  -5   3   10.41    0.34
   3  -5   3   10.21    0.32
   3  -5   3    9.98    0.33
   3  -5   3   10.86    0.31
  -4   5  -3   11.15    0.35
  -4   5  -3   10.49    0.46
   4  -5   3   10.61    0.37
   4  -5   3   10.84    0.33
   4  -5   3   10.97    0.34
   4  -5   3   10.81    0.37
   4  -5   3   10.74    0.32
  -5   5  -3    9.01    0.44
  -5   5  -3   10.12    0.35
   5  -5   3    9.70    0.30
   5  -5   3    9.30    0.36
  -6   5  -3   12.78    0.56
   6  -5   3   13.04    0.46
   6  -5   3   13.57    0.37
  -6  -4   3   10.03    0.44
  -6  -4   3    9.28    0.47
   5   4  -3    1.52    0.16
  -5  -4   3    1.60    0.23
  -5  -4   3    1.40    0.14
  -5  -4   3    1.38    0.18
   4   4  -3    4.17    0.18
   4   4  -3    4.39    0.25
   4   4  -3    4.46    0.20
  -4  -4   3    4.13    0.29
  -4  -4   3    4.75    0.28
  -4  -4   3    4.38    0.23
   3   4  -3    6.44    0.21
   3   4  -3    6.37    0.21
   3   4  -3    6.34    0.21
   3   4  -3    6.43    0.25
  -3  -4   3    6.46    0.22
  -3  -4   3    6.34    0.30
  -3  -4   3    6.47    0.25
  -3  -4   3    6.44    0.23
  -3  -4   3    6.39    0.28
   2   4  -3   62.54    1.30
   2   4  -3   63.31    1.42
   2   4  -3   63.26    1.21
   2   4  -3   61.73    1.30
  -2  -4   3   61.43    1.21
  -2  -4   3   61.52    1.79
  -2  -4   3   62.92    1.32
  -2  -4   3   62.78    1.49
  -2  -4   3   62.09    1.44
   1   4  -3   59.80    1.26
   1   4  -3   60.65    1.26
   1   4  -3   60.84    1.16
   1   4  -3   60.42    1.37
  -1  -4   3   59.04    1.72
  -1  -4   3   59.84    1.72
  -1  -4   3   59.59    1.16
  -1  -4   3   60.65    1.37
  -1  -4   3   60.08    1.43
  -1  -4   3   60.99    1.36
  -1  -4   3   59.84    1.26
   0   4  -3   58.01    1.21
   0   4  -3   57.30    1.21
   0   4  -3   58.33    1.66
   0   4  -3   58.80    1.31
   0  -4   3   58.56    1.65
   0  -4   3   57.58    1.37
   0  -4   3   59.16    1.21
   0  -4   3   57.55    1.12
   0  -4   3   54.00    1.30
   0  -4   3   58.26    1.31
  -1   4  -3   46.56    1.35
  -1   4  -3   46.32    1.07
  -1   4  -3   46.82    0.99
  -1   4  -3   46.00    1.06
  -1   4  -3   48.33    0.99
   1  -4   3   45.83    1.34
   1  -4   3   45.43    1.11
   1  -4   3   46.14    0.98
   1  -4   3   46.54    1.07
   1  -4   3   46.18    0.91
  -2   4  -3    6.86    0.22
  -2   4  -3    6.54    0.23
  -2   4  -3    6.90    0.22
  -2   4  -3    6.78    0.29
   2  -4   3    6.78    0.21
   2  -4   3    6.61    0.23
   2  -4   3    6.83    0.22
   2  -4   3    6.69    0.27
   2  -4   3    7.01    0.24
   2  -4   3    6.97    0.21
  -3   4  -3   26.71    0.83
  -3   4  -3   27.14    0.61
  -3   4  -3   26.80    0.61
   3  -4   3   27.05    0.64
   3  -4   3   26.52    0.56
   3  -4   3   27.27    0.60
   3  -4   3   25.76    0.66
   3  -4   3   25.95    0.66
   3  -4   3   26.95    0.66
  -4   4  -3   41.69    1.28
  -4   4  -3   42.80    0.95
   4  -4   3   42.36    0.99
   4  -4   3   43.85    1.00
   4  -4   3   42.55    1.02
   4  -4   3   42.86    0.86
   4  -4   3   42.46    1.02
  -5   4  -3    0.54    0.15
  -5   4  -3    0.58    0.12
   5  -4   3    0.59    0.10
   5  -4   3    0.61    0.11
   5  -4   3    0.47    0.12
  -6   4  -3    2.86    0.30
   6  -4   3    3.73    0.20
   6  -4   3    3.39    0.27
   7  -4   3    0.67    0.17
   6   3  -3    3.65    0.19
  -6  -3   3    3.02    0.29
  -6  -3   3    2.93    0.29
   5   3  -3   74.87    1.41
  -5  -3   3   73.28    1.44
  -5  -3   3   69.26    2.11
  -5  -3   3   72.99    1.72
   4   3  -3  257.43    5.71
   4   3  -3  265.03    4.83
   4   3  -3  263.22    5.23
  -4  -3   3  261.85    5.73
  -4  -3   3  251.99    7.21
  -4  -3   3  267.11    6.00
  -4  -3   3  260.14    4.85
   3   3  -3    5.36    0.18
   3   3  -3    5.95    0.22
   3   3  -3    5.53    0.19
  -3  -3   3    5.23    0.20
  -3  -3   3    5.27    0.19
  -3  -3   3    5.31    0.25
  -3  -3   3    5.38    0.23
  -3  -3   3    5.28    0.21
   2   3  -3  332.36    7.16
   2   3  -3  332.28    6.60
   2   3  -3  327.75    6.07
   2   3  -3  327.92    7.16
  -2  -3   3  327.20    7.16
  -2  -3   3  317.27    9.05
  -2  -3   3  334.68    7.51
  -2  -3   3  335.03    7.16
  -2  -3   3  331.09    6.60
  -2  -3   3  331.51    6.07
   1   3  -3    0.91    0.09
   1   3  -3    1.00    0.10
   1   3  -3    0.96    0.12
   1   3  -3    1.02    0.10
  -1  -3   3    1.09    0.10
  -1  -3   3    0.89    0.12
  -1  -3   3    0.90    0.10
  -1  -3   3    0.77    0.08
  -1  -3   3    0.84    0.07
  -1  -3   3    1.01    0.10
  -1  -3   3    0.94    0.13
   0   3  -3   72.07    1.47
   0   3  -3   72.94    2.02
   0   3  -3   72.18    1.48
   0   3  -3   71.41    1.60
   0  -3   3   71.75    1.36
   0  -3   3   72.84    1.68
   0  -3   3   71.47    1.59
   0  -3   3   72.90    1.48
   0  -3   3   70.99    1.60
   0  -3   3   71.38    2.02
   0  -3   3   70.84    2.02
  -1   3  -3   48.65    1.10
  -1   3  -3   49.98    1.02
  -1   3  -3   48.45    1.09
  -1   3  -3   48.05    1.39
  -1   3  -3   48.62    1.01
   1  -3   3   47.58    1.38
   1  -3   3   47.45    0.93
   1  -3   3   48.13    1.38
   1  -3   3   48.78    1.01
   1  -3   3   48.58    1.15
   1  -3   3   48.88    1.10
  -2   3  -3   57.65    1.16
  -2   3  -3   55.63    1.58
  -2   3  -3   56.27    1.16
   2  -3   3   55.99    1.25
   2  -3   3   56.84    1.15
   2  -3   3   54.96    1.30
   2  -3   3   54.77    1.25
   2  -3   3   55.06    1.06
   2  -3   3   52.82    1.56
   2  -3   3   55.98    1.56
  -3   3  -3   35.31    0.77
  -3   3  -3   34.52    1.04
  -3   3  -3   36.52    0.77
   3  -3   3   35.22    0.83
   3  -3   3   34.40    0.80
   3  -3   3   34.86    0.70
   3  -3   3   35.29    0.83
   3  -3   3   36.33    0.83
  -4   3  -3   40.56    1.23
  -4   3  -3   42.33    0.91
  -4   3  -3   42.18    0.91
   4  -3   3   41.12    0.98
   4  -3   3   42.64    0.96
   4  -3   3   41.94    0.82
   4  -3   3   41.80    0.98
  -5   3  -3   16.30    0.43
  -5   3  -3   15.12    0.55
   5  -3   3   15.95    0.46
   5  -3   3   16.03    0.37
   5  -3   3   15.34    0.45
  -6   3  -3   33.79    1.12
   6  -3   3   37.40    0.72
   6  -3   3   36.30    0.90
   6  -3   3   35.59    0.90
   7  -3   3    2.39    0.25
   6   2  -3   12.02    0.32
  -6  -2   3   11.53    0.44
  -6  -2   3   11.72    0.36
  -6  -2   3   10.92    0.48
   5   2  -3    0.75    0.13
   5   2  -3    0.74    0.09
   5   2  -3    0.98    0.11
  -5  -2   3    0.89    0.16
  -5  -2   3    0.72    0.12
  -5  -2   3    0.78    0.16
   4   2  -3    2.62    0.13
   4   2  -3    2.79    0.18
   4   2  -3    2.87    0.15
  -4  -2   3    2.69    0.20
  -4  -2   3    2.64    0.17
  -4  -2   3    2.86    0.15
  -4  -2   3    2.63    0.20
  -4  -2   3    2.81    0.17
  -4  -2   3    2.69    0.17
   3   2  -3   29.29    0.65
   3   2  -3   30.12    0.72
   3   2  -3   29.81    0.61
   3   2  -3   30.72    0.73
  -3  -2   3   30.38    0.76
  -3  -2   3   29.84    0.62
  -3  -2   3   30.05    0.67
  -3  -2   3   30.22    0.74
  -3  -2   3   29.16    0.90
  -3  -2   3   30.20    0.74
   2   2  -3  188.77    4.15
   2   2  -3  187.27    3.52
   2   2  -3  191.47    4.46
   2   2  -3  191.63    4.35
   2   2  -3  190.79    4.16
   2   2  -3  192.37    3.82
  -2  -2   3  193.05    4.36
  -2  -2   3  193.53    4.46
  -2  -2   3  186.47    3.52
  -2  -2   3  188.77    5.25
  -2  -2   3  191.46    3.83
  -2  -2   3  187.49    4.16
  -2  -2   3  190.90    4.15
   1   2  -3    0.11    0.05
   1   2  -3    0.07    0.07
   1   2  -3    0.08    0.05
   1   2  -3    0.14    0.05
   1   2  -3    0.09    0.05
   1   2  -3    0.10    0.04
   1   2  -3    0.23    0.05
   1   2  -3    0.10    0.06
  -1  -2   3    0.02    0.06
  -1  -2   3    0.07    0.05
  -1  -2   3    0.08    0.07
  -1  -2   3    0.09    0.05
  -1  -2   3    0.28    0.05
   0   2  -3  128.48    2.78
   0   2  -3  124.22    2.36
   0   2  -3  129.62    2.57
   0   2  -3  128.31    2.77
   0   2  -3  126.87    3.52
   0   2  -3  129.54    3.52
   0   2  -3  129.78    2.92
   0  -2   3  124.17    2.36
   0  -2   3  125.62    3.52
   0  -2   3  126.62    2.57
   0  -2   3  127.65    2.79
   0  -2   3  128.85    2.77
   0  -2   3  127.12    2.92
  -1   2  -3    6.88    0.19
  -1   2  -3    7.05    0.24
  -1   2  -3    6.99    0.19
  -1   2  -3    6.79    0.17
  -1   2  -3    6.99    0.20
  -1   2  -3    7.13    0.18
   1  -2   3    6.37    0.18
   1  -2   3    6.99    0.19
   1  -2   3    6.82    0.23
   1  -2   3    7.07    0.19
   1  -2   3    7.03    0.17
   1  -2   3    7.18    0.23
   1  -2   3    6.97    0.19
  -2   2  -3   60.63    1.74
  -2   2  -3   63.22    1.28
  -2   2  -3   65.33    1.28
   2  -2   3   62.26    1.17
   2  -2   3   62.71    1.39
   2  -2   3   61.70    1.36
   2  -2   3   61.84    1.38
  -3   2  -3  170.07    3.35
  -3   2  -3  168.33    3.35
  -3   2  -3  161.44    4.58
   3  -2   3  165.60    3.63
   3  -2   3  170.43    3.63
   3  -2   3  165.41    3.07
   3  -2   3  164.07    3.61
  -4   2  -3   -0.01    0.06
  -4   2  -3    0.06    0.09
  -4   2  -3   -0.04    0.07
   4  -2   3    0.01    0.04
   4  -2   3    0.04    0.07
   4  -2   3   -0.03    0.06
   4  -2   3   -0.06    0.05
   4  -2   3    0.00    0.07
  -5   2  -3   11.42    0.33
  -5   2  -3   10.93    0.43
  -5   2  -3   11.49    0.36
   5  -2   3   12.08    0.27
   5  -2   3   11.78    0.36
   5  -2   3   10.89    0.35
  -6   2  -3    1.03    0.16
   6  -2   3    1.23    0.13
   6  -2   3    1.14    0.14
   7  -2   3    1.41    0.17
  -7  -1   3    6.82    0.39
   6   1  -3   23.70    0.52
  -6  -1   3   21.68    0.78
  -6  -1   3   22.91    0.66
   5   1  -3  238.33    5.24
   5   1  -3  244.05    4.42
   5   1  -3  235.08    4.78
  -5  -1   3  229.71    5.49
  -5  -1   3  244.60    5.63
  -5  -1   3  231.15    6.60
  -5  -1   3  242.59    4.44
  -5  -1   3  239.51    5.25
   4   1  -3   15.55    0.38
   4   1  -3   15.40    0.43
   4   1  -3   16.17    0.41
   4   1  -3   15.91    0.37
  -4  -1   3   15.94    0.46
  -4  -1   3   15.49    0.45
  -4  -1   3   14.96    0.53
  -4  -1   3   15.73    0.38
  -4  -1   3   16.11    0.44
  -4  -1   3   15.02    0.40
   3   1  -3  199.86    4.33
   3   1  -3  198.76    4.32
   3   1  -3  194.95    3.66
   3   1  -3  192.53    5.44
   3   1  -3  200.51    4.52
   3   1  -3  199.20    3.97
   3   1  -3  198.51    4.65
  -3  -1   3  201.60    4.65
  -3  -1   3  195.52    4.33
  -3  -1   3  199.79    4.53
  -3  -1   3  198.18    3.98
  -3  -1   3  196.35    5.46
  -3  -1   3  194.46    3.67
   2   1  -3    6.80    0.26
   2   1  -3    7.05    0.22
   2   1  -3    6.86    0.21
   2   1  -3    7.20    0.21
   2   1  -3    7.59    0.23
   2   1  -3    6.85    0.19
   2   1  -3    6.88    0.19
   2   1  -3    6.91    0.19
  -2  -1   3    6.99    0.20
  -2  -1   3    6.83    0.26
  -2  -1   3    6.84    0.19
  -2  -1   3    7.00    0.21
  -2  -1   3    7.28    0.22
  -2  -1   3    7.00    0.21
  -2  -1   3    7.12    0.23
   1   1  -3  126.01    3.46
   1   1  -3  126.25    2.88
   1   1  -3  124.88    2.74
   1   1  -3  125.69    2.95
   1   1  -3  120.78    2.32
   1   1  -3  123.23    2.32
   1   1  -3  128.10    2.53
   1   1  -3  124.35    2.74
  -1  -1   3  128.76    2.96
  -1  -1   3  128.45    2.88
  -1  -1   3  127.46    2.74
  -1  -1   3  121.32    2.32
  -1  -1   3  126.78    2.53
  -1  -1   3  127.37    3.46
  -1  -1   3  123.70    2.32
   0   1  -3  158.47    3.00
   0   1  -3  165.14    4.49
   0   1  -3  162.21    3.54
   0   1  -3  157.01    4.47
   0   1  -3  166.33    3.26
   0   1  -3  164.25    3.71
   0   1  -3  166.70    3.54
   0   1  -3  161.02    3.00
   0  -1   3  163.58    3.69
   0  -1   3  163.12    3.53
   0  -1   3  163.34    3.26
   0  -1   3  169.50    4.48
   0  -1   3  156.80    4.47
   0  -1   3  162.44    3.56
   0  -1   3  153.55    3.00
  -1   1  -3  282.76    7.20
  -1   1  -3  263.20    4.82
  -1   1  -3  248.24    7.18
  -1   1  -3  260.27    5.24
  -1   1  -3  262.62    5.97
   1  -1   3  257.41    5.70
   1  -1   3  264.02    5.69
   1  -1   3  259.13    4.82
  -2   1  -3   80.18    1.62
  -2   1  -3   79.33    1.75
  -2   1  -3   83.97    1.62
  -2   1  -3   82.46    1.50
   2  -1   3   80.33    1.75
   2  -1   3   82.07    1.76
   2  -1   3   76.80    1.76
  -3   1  -3  100.48    2.00
  -3   1  -3  101.85    2.27
  -3   1  -3   94.07    2.73
  -3   1  -3  102.47    2.00
  -3   1  -3   98.87    2.17
   3  -1   3   98.94    2.17
   3  -1   3  101.88    2.17
   3  -1   3   95.43    2.17
  -4   1  -3   19.36    0.61
  -4   1  -3   20.98    0.46
  -4   1  -3   20.62    0.51
  -4   1  -3   20.44    0.46
  -4   1  -3   20.15    0.51
   4  -1   3   20.18    0.50
   4  -1   3   19.28    0.49
   4  -1   3   20.83    0.50
  -5   1  -3   50.59    1.25
  -5   1  -3   48.64    1.49
  -5   1  -3   52.56    1.11
  -5   1  -3   52.61    1.20
   5  -1   3   51.59    1.19
   5  -1   3   52.28    1.19
   5  -1   3   53.09    1.19
  -6   1  -3    0.58    0.14
  -6   1  -3    0.43    0.13
   6  -1   3    0.77    0.12
   6  -1   3    0.79    0.12
   7   0  -3   17.21    0.43
  -7   0   3   16.81    0.57
   6   0  -3    0.31    0.11
   6   0  -3    0.26    0.09
  -6   0   3    0.54    0.16
  -6   0   3    0.20    0.16
   5   0  -3    0.11    0.07
   5   0  -3    0.26    0.09
   5   0  -3    0.11    0.09
   5   0  -3    0.09    0.10
  -5   0   3    0.10    0.11
  -5   0   3    0.27    0.11
  -5   0   3   -0.17    0.13
  -5   0   3    0.12    0.13
   4   0  -3    0.95    0.10
   4   0  -3    1.02    0.10
   4   0  -3    0.96    0.11
   4   0  -3    0.98    0.12
  -4   0   3    0.99    0.12
  -4   0   3    0.95    0.11
  -4   0   3    0.76    0.10
  -4   0   3    0.89    0.14
  -4   0   3    0.85    0.11
   3   0  -3  129.39    2.46
   3   0  -3  127.66    3.65
   3   0  -3  133.22    3.13
   3   0  -3  132.98    2.67
   3   0  -3  133.54    3.03
   3   0  -3  131.06    2.90
   3   0  -3  132.09    2.91
  -3   0   3  130.55    2.46
  -3   0   3  132.52    2.68
  -3   0   3  132.92    3.05
  -3   0   3  129.26    3.13
  -3   0   3  133.17    2.91
  -3   0   3  133.42    3.67
  -3   0   3  132.14    2.89
   2   0  -3   88.12    1.81
   2   0  -3   90.85    1.67
   2   0  -3   88.54    1.97
   2   0  -3   91.26    1.97
   2   0  -3   89.83    2.12
   2   0  -3   87.94    2.48
   2   0  -3   87.17    1.67
  -2   0   3   84.87    1.96
  -2   0   3   89.24    1.97
  -2   0   3   90.34    2.12
  -2   0   3   87.34    1.67
  -2   0   3   89.65    2.48
  -2   0   3   89.98    1.82
  -2   0   3   89.67    1.96
  -2   0   3   90.08    2.07
   1   0  -3   50.09    1.42
   1   0  -3   50.38    0.96
   1   0  -3   50.59    1.13
   1   0  -3   50.52    1.13
   1   0  -3   50.67    1.22
   1   0  -3   52.01    1.19
   1   0  -3   51.32    1.04
   1   0  -3   49.60    0.96
  -1   0   3   51.41    1.18
  -1   0   3   49.44    1.13
  -1   0   3   51.20    1.22
  -1   0   3   51.57    1.04
  -1   0   3   49.14    0.96
  -1   0   3   49.66    0.96
  -1   0   3   50.15    1.13
   0   0  -3   -0.01    0.03
   0   0  -3    0.02    0.04
   0   0  -3    0.05    0.03
   0   0  -3    0.02    0.04
   0   0  -3    0.02    0.03
   0   0  -3    0.10    0.03
   0   0   3    0.03    0.03
   0   0   3   -0.06    0.03
   0   0   3    0.07    0.03
   0   0   3    0.04    0.03
   0   0   3    0.02    0.03
   0   0   3    0.08    0.05
   0   0   3   -0.01    0.04
  -2   0  -3  391.37    8.49
  -3   0  -3    7.79    0.23
   3   0   3    7.91    0.23
  -4   0  -3   16.76    0.52
  -4   0  -3   17.04    0.46
  -4   0  -3   18.25    0.44
  -4   0  -3   17.58    0.40
   4   0   3   16.98    0.43
   4   0   3   17.90    0.43
   4   0   3   17.30    0.47
  -5   0  -3    4.03    0.18
  -5   0  -3    4.43    0.21
  -5   0  -3    3.60    0.20
   5   0   3    3.81    0.18
   5   0   3    3.73    0.18
  -6   0  -3    2.27    0.23
  -6   0  -3    3.02    0.23
   6   0   3    2.67    0.21
   7   0   3    0.58    0.14
   7  -1  -3    1.44    0.14
  -7   1   3    1.33    0.21
   6  -1  -3  108.24    2.02
   6  -1  -3  102.58    2.16
  -6   1   3  105.27    2.41
  -6   1   3  103.20    3.02
   5  -1  -3   44.81    1.06
   5  -1  -3   42.87    0.95
   5  -1  -3   44.08    0.90
   5  -1  -3   43.76    1.06
  -5   1   3   43.28    1.33
  -5   1   3   42.27    1.11
  -5   1   3   44.34    1.08
  -5   1   3   45.38    1.15
  -5   1   3   44.01    0.99
   4  -1  -3   33.64    0.76
   4  -1  -3   34.85    0.84
   4  -1  -3   35.07    0.72
   4  -1  -3   35.44    0.86
  -4   1   3   35.01    0.89
  -4   1   3   34.53    1.06
  -4   1   3   34.82    0.91
  -4   1   3   34.49    0.78
  -4   1   3   34.03    0.85
  -4   1   3   35.27    0.79
   3  -1  -3    1.25    0.15
   3  -1  -3    1.69    0.14
   3  -1  -3    1.35    0.14
   3  -1  -3    1.34    0.11
   3  -1  -3    1.33    0.12
   3  -1  -3    1.38    0.12
   3  -1  -3    1.12    0.13
   3  -1  -3    1.29    0.12
  -3   1   3    1.56    0.14
  -3   1   3    1.35    0.12
  -3   1   3    1.22    0.15
  -3   1   3    1.43    0.13
  -3   1   3    1.38    0.16
  -3   1   3    1.39    0.12
  -3   1   3    1.67    0.13
   2  -1  -3   76.16    1.71
   2  -1  -3   77.31    2.16
   2  -1  -3   79.18    1.58
   2  -1  -3   77.18    1.72
   2  -1  -3   75.87    1.86
   2  -1  -3   75.47    1.46
   2  -1  -3   80.23    1.80
  -2   1   3   78.35    1.72
  -2   1   3   78.12    2.17
  -2   1   3   76.90    1.58
  -2   1   3   72.91    1.71
  -2   1   3   75.94    1.72
  -2   1   3   78.40    1.59
  -2   1   3   78.96    1.86
   1  -1  -3  123.45    2.76
   1  -1  -3  126.76    3.49
   1  -1  -3  125.93    2.99
   1  -1  -3  128.49    2.55
   1  -1  -3  126.22    2.76
   1  -1  -3  122.63    2.34
   1  -1  -3  128.33    2.55
  -1   1   3  125.75    2.76
  -1   1   3  124.47    2.34
  -1   1   3  126.67    2.55
  -1   1   3  127.82    3.49
  -1   1   3  129.50    2.54
  -1   1   3  124.41    2.99
  -1   1   3  128.52    2.76
   0  -1  -3  440.23    8.69
   0  -1  -3  420.69    9.40
   0  -1  -3  448.25   11.92
   0  -1  -3  441.63    8.69
   0  -1  -3  444.53   10.28
   0  -1  -3  424.83    7.99
   0   1   3  416.82    9.42
   0   1   3  447.12    8.67
   0   1   3  429.28   10.26
   0   1   3  426.50    7.99
  -1  -1  -3   69.65    1.66
  -2  -1  -3  163.56    3.56
  -3  -1  -3   35.27    0.79
  -3  -1  -3   31.82    0.64
  -4  -1  -3   65.08    1.32
  -4  -1  -3   66.15    1.47
  -4  -1  -3   61.79    1.21
   4   1   3   65.47    1.43
   4   1   3   62.70    1.43
  -5  -1  -3    0.50    0.10
  -5  -1  -3    0.47    0.12
  -5  -1  -3    0.43    0.08
   5   1   3    0.39    0.09
  -6  -1  -3    0.28    0.14
  -6  -1  -3    0.20    0.14
   6   1   3    0.15    0.11
   7  -2  -3    3.05    0.22
   6  -2  -3    0.13    0.11
  -6   2   3    0.31    0.13
  -6   2   3    0.07    0.17
   5  -2  -3    3.30    0.19
   5  -2  -3    3.37    0.18
   5  -2  -3    3.50    0.25
   5  -2  -3    3.44    0.21
  -5   2   3    3.44    0.21
  -5   2   3    3.41    0.28
  -5   2   3    3.37    0.25
   4  -2  -3   26.48    0.66
   4  -2  -3   24.89    0.64
   4  -2  -3   25.02    0.58
   4  -2  -3   23.95    0.78
   4  -2  -3   25.20    0.65
   4  -2  -3   25.63    0.55
  -4   2   3   25.69    0.81
  -4   2   3   24.92    0.71
  -4   2   3   25.24    0.60
  -4   2   3   25.11    0.60
   3  -2  -3  114.58    2.49
   3  -2  -3  108.68    2.28
   3  -2  -3  113.91    2.11
   3  -2  -3  111.03    2.48
   3  -2  -3  110.63    3.12
  -3   2   3  113.20    2.29
  -3   2   3  109.07    2.69
  -3   2   3  111.36    3.13
  -3   2   3  113.74    2.48
  -3   2   3  110.87    2.29
   2  -2  -3    1.61    0.12
   2  -2  -3    1.68    0.14
   2  -2  -3    1.62    0.11
   2  -2  -3    1.62    0.14
   2  -2  -3    1.29    0.12
   2  -2  -3    1.45    0.13
   2  -2  -3    1.61    0.11
  -2   2   3    1.62    0.13
  -2   2   3    1.63    0.11
  -2   2   3    1.67    0.11
  -2   2   3    1.64    0.12
  -2   2   3    1.55    0.13
  -2   2   3    1.72    0.15
   1  -2  -3    1.01    0.11
   1  -2  -3    0.93    0.08
   1  -2  -3    0.94    0.09
   1  -2  -3    1.02    0.09
   1  -2  -3    0.91    0.10
   1  -2  -3    1.22    0.11
   1  -2  -3    0.92    0.09
  -1   2   3    1.04    0.08
  -1   2   3    1.23    0.10
  -1   2   3    0.95    0.10
  -1   2   3    0.88    0.09
  -1   2   3    0.86    0.09
  -1   2   3    0.97    0.12
  -1   2   3    0.99    0.11
   0  -2  -3   21.64    0.56
   0  -2  -3   22.01    0.47
   0  -2  -3   22.54    0.64
   0  -2  -3   21.84    0.47
   0  -2  -3   21.08    0.44
   0   2   3   22.25    0.46
   0   2   3   22.82    0.51
   0   2   3   21.89    0.51
   0   2   3   22.40    0.46
   0   2   3   21.99    0.56
   0   2   3   21.48    0.43
  -1  -2  -3  328.21    6.48
  -1  -2  -3  322.04    6.47
  -1  -2  -3  324.48    7.62
  -1  -2  -3  318.20    5.95
   1   2   3  326.23    7.65
   1   2   3  330.62    7.03
  -2  -2  -3   38.26    0.87
  -2  -2  -3   36.78    0.71
  -2  -2  -3   36.98    0.91
  -3  -2  -3   10.80    0.31
  -3  -2  -3   10.43    0.24
  -3  -2  -3   11.44    0.33
  -4  -2  -3   11.28    0.36
  -4  -2  -3   10.76    0.27
  -4  -2  -3   11.60    0.31
  -4  -2  -3   11.08    0.28
   4   2   3   11.41    0.31
  -5  -2  -3    9.48    0.34
  -5  -2  -3    8.95    0.29
  -5  -2  -3    8.26    0.33
   5   2   3    8.67    0.29
  -6  -2  -3    4.72    0.27
   6   2   3    4.79    0.23
   7  -3  -3   22.89    0.56
   6  -3  -3   29.30    0.65
  -6   3   3   27.97    0.73
   5  -3  -3    0.34    0.11
   5  -3  -3    0.34    0.12
   5  -3  -3    0.30    0.10
  -5   3   3    0.21    0.11
  -5   3   3    0.30    0.15
   4  -3  -3    0.58    0.10
   4  -3  -3    0.60    0.13
   4  -3  -3    0.52    0.10
   4  -3  -3    0.43    0.11
   4  -3  -3    0.45    0.10
   4  -3  -3    0.50    0.10
  -4   3   3    0.55    0.14
  -4   3   3    0.65    0.11
  -4   3   3    0.71    0.13
  -4   3   3    0.74    0.11
   3  -3  -3   34.79    0.86
   3  -3  -3   33.78    0.71
   3  -3  -3   33.47    0.76
   3  -3  -3   33.55    0.82
   3  -3  -3   33.74    0.82
   3  -3  -3   33.59    1.02
  -3   3   3   34.16    0.76
  -3   3   3   34.45    1.03
  -3   3   3   34.08    0.76
  -3   3   3   33.25    0.82
  -3   3   3   34.68    0.90
   2  -3  -3   35.35    0.83
   2  -3  -3   35.00    0.83
   2  -3  -3   35.42    1.04
   2  -3  -3   34.15    0.71
   2  -3  -3   35.24    0.76
   2  -3  -3   34.28    0.90
   2  -3  -3   33.94    0.82
   2  -3  -3   35.69    0.77
  -2   3   3   35.80    0.91
  -2   3   3   34.51    0.83
  -2   3   3   34.83    0.76
  -2   3   3   34.71    0.82
  -2   3   3   34.67    0.76
   1  -3  -3  226.61    4.30
   1  -3  -3  238.65    6.44
   1  -3  -3  231.58    4.68
   1  -3  -3  233.46    5.50
   1  -3  -3  235.85    5.08
   1  -3  -3  231.27    4.68
  -1   3   3  233.93    5.08
  -1   3   3  239.31    4.68
  -1   3   3  229.40    4.67
  -1   3   3  233.68    5.08
  -1   3   3  236.38    6.41
  -1   3   3  228.06    5.49
   0  -3  -3   11.00    0.26
   0  -3  -3   11.49    0.37
   0  -3  -3   11.22    0.33
   0  -3  -3   11.18    0.28
   0  -3  -3   11.20    0.28
   0   3   3   11.42    0.27
   0   3   3   11.82    0.35
   0   3   3   11.20    0.33
   0   3   3   11.17    0.25
   0   3   3   11.40    0.30
   0   3   3   11.05    0.30
   0   3   3   11.06    0.26
  -1  -3  -3  127.83    2.36
  -1  -3  -3  124.77    2.56
  -1  -3  -3  129.49    2.56
  -1  -3  -3  123.60    3.01
  -1  -3  -3  131.62    3.51
   1   3   3  128.59    2.78
   1   3   3  128.16    3.01
   1   3   3  128.55    2.35
   1   3   3  123.29    2.35
  -2  -3  -3   38.19    0.91
  -2  -3  -3   37.58    0.80
  -2  -3  -3   36.54    0.93
  -2  -3  -3   38.01    0.74
  -2  -3  -3   39.26    0.80
   2   3   3   39.22    0.87
  -3  -3  -3   77.19    1.49
  -3  -3  -3   78.99    1.61
  -3  -3  -3   79.51    1.80
   3   3   3   80.51    1.75
  -4  -3  -3    3.58    0.23
  -4  -3  -3    3.64    0.16
   4   3   3    3.58    0.17
  -5  -3  -3    4.62    0.22
  -5  -3  -3    4.69    0.28
  -5  -3  -3    4.45    0.25
   5   3   3    4.57    0.22
  -6  -3  -3    9.55    0.38
   6  -4  -3    4.91    0.25
  -6   4   3    5.14    0.28
   5  -4  -3    0.12    0.10
   5  -4  -3    0.28    0.11
  -5   4   3    0.32    0.12
   4  -4  -3   50.22    1.19
   4  -4  -3   48.61    1.01
   4  -4  -3   49.65    1.23
   4  -4  -3   48.53    1.09
  -4   4   3   50.13    1.10
  -4   4   3   48.46    1.10
  -4   4   3   50.83    1.50
   3  -4  -3   18.99    0.52
   3  -4  -3   18.93    0.52
   3  -4  -3   18.97    0.45
   3  -4  -3   19.05    0.48
   3  -4  -3   19.21    0.64
   3  -4  -3   19.14    0.48
  -3   4   3   19.35    0.48
  -3   4   3   19.10    0.57
  -3   4   3   19.57    0.53
  -3   4   3   19.86    0.65
  -3   4   3   19.42    0.48
   2  -4  -3    0.01    0.07
   2  -4  -3    0.05    0.07
   2  -4  -3    0.06    0.07
   2  -4  -3    0.08    0.09
   2  -4  -3   -0.02    0.07
  -2   4   3    0.02    0.08
  -2   4   3   -0.05    0.07
  -2   4   3    0.00    0.07
  -2   4   3    0.01    0.07
  -2   4   3   -0.05    0.09
  -2   4   3    0.00    0.07
   1  -4  -3    2.75    0.16
   1  -4  -3    2.98    0.15
   1  -4  -3    2.57    0.14
   1  -4  -3    2.74    0.16
   1  -4  -3    2.74    0.19
   1  -4  -3    2.72    0.14
  -1   4   3    2.68    0.13
  -1   4   3    2.92    0.16
  -1   4   3    2.67    0.13
  -1   4   3    2.84    0.18
  -1   4   3    3.06    0.17
  -1   4   3    2.74    0.16
   0  -4  -3  103.37    2.15
   0  -4  -3  104.29    1.98
   0  -4  -3  106.74    2.15
   0  -4  -3  105.53    2.95
   0  -4  -3  106.24    2.53
   0   4   3  107.70    2.14
   0   4   3  104.95    2.33
   0   4   3  103.39    2.52
   0   4   3  107.52    2.34
   0   4   3  103.49    1.97
   0   4   3  106.30    2.14
  -1  -4  -3   41.56    1.17
  -1  -4  -3   41.53    0.86
  -1  -4  -3   39.87    0.80
  -1  -4  -3   39.36    1.00
  -1  -4  -3   40.13    0.86
   1   4   3   40.62    0.93
   1   4   3   39.86    0.78
   1   4   3   40.16    1.00
  -2  -4  -3    1.09    0.13
  -2  -4  -3    1.25    0.11
  -2  -4  -3    1.46    0.18
  -2  -4  -3    1.17    0.09
  -2  -4  -3    1.21    0.12
   2   4   3    1.11    0.11
  -3  -4  -3   18.85    0.54
  -3  -4  -3   18.70    0.42
  -3  -4  -3   19.26    0.45
   3   4   3   19.54    0.49
  -4  -4  -3   23.84    0.62
  -4  -4  -3   24.02    0.66
   4   4   3   22.75    0.59
  -5  -4  -3    5.19    0.30
   5   4   3    5.35    0.24
   6  -5  -3    2.19    0.22
   5  -5  -3    3.14    0.22
  -5   5   3    3.06    0.23
   4  -5  -3   13.83    0.41
   4  -5  -3   13.98    0.39
  -4   5   3   13.30    0.41
   3  -5  -3    3.71    0.21
   3  -5  -3    4.05    0.21
   3  -5  -3    3.94    0.20
   3  -5  -3    3.87    0.28
  -3   5   3    3.60    0.20
  -3   5   3    3.73    0.28
  -3   5   3    3.88    0.20
   2  -5  -3   75.40    1.47
   2  -5  -3   72.61    1.58
   2  -5  -3   73.12    1.71
   2  -5  -3   74.53    1.59
   2  -5  -3   75.21    2.16
  -2   5   3   76.45    1.72
  -2   5   3   77.37    1.87
  -2   5   3   75.84    2.15
  -2   5   3   72.15    1.58
  -2   5   3   75.08    1.71
  -2   5   3   76.11    1.58
   1  -5  -3   -0.12    0.09
   1  -5  -3   -0.08    0.08
   1  -5  -3   -0.12    0.07
   1  -5  -3   -0.09    0.07
  -1   5   3    0.01    0.07
  -1   5   3   -0.07    0.07
  -1   5   3   -0.01    0.08
  -1   5   3   -0.01    0.08
  -1   5   3   -0.11    0.08
   0  -5  -3   47.64    0.96
   0  -5  -3   47.91    1.03
   0  -5  -3   48.18    1.41
   0  -5  -3   47.90    1.04
   0   5   3   46.70    1.11
   0   5   3   47.48    1.01
   0   5   3   47.15    1.20
   0   5   3   49.06    1.12
   0   5   3   49.08    1.01
  -1  -5  -3   23.69    0.74
  -1  -5  -3   23.91    0.55
  -1  -5  -3   23.52    0.55
  -1  -5  -3   23.06    0.51
   1   5   3   23.48    0.50
   1   5   3   23.61    0.49
   1   5   3   23.65    0.62
   1   5   3   23.33    0.59
   1   5   3   22.89    0.49
   1   5   3   23.54    0.60
  -2  -5  -3   77.44    1.64
  -2  -5  -3   78.24    2.24
  -2  -5  -3   79.04    1.51
  -2  -5  -3   78.39    1.82
   2   5   3   79.53    1.47
   2   5   3   79.73    1.78
  -3  -5  -3    2.29    0.21
  -3  -5  -3    2.15    0.22
   3   5   3    2.34    0.19
  -4  -5  -3   12.21    0.44
   4   5   3   11.67    0.38
  -5  -5  -3    3.96    0.30
   5   5   3    3.84    0.24
   6  -6  -3    1.52    0.18
   5  -6  -3    8.95    0.33
   4  -6  -3   13.68    0.40
  -4   6   3   13.29    0.42
   3  -6  -3    0.72    0.13
   3  -6  -3    0.77    0.12
  -3   6   3    0.75    0.12
  -3   6   3    0.69    0.12
   2  -6  -3   -0.06    0.12
   2  -6  -3   -0.20    0.09
   2  -6  -3   -0.15    0.09
  -2   6   3   -0.07    0.09
  -2   6   3   -0.01    0.09
  -2   6   3   -0.12    0.10
   1  -6  -3   18.69    0.65
   1  -6  -3   18.55    0.49
   1  -6  -3   18.79    0.46
  -1   6   3   18.65    0.52
  -1   6   3   19.30    0.54
  -1   6   3   19.12    0.63
  -1   6   3   19.13    0.56
  -1   6   3   18.87    0.47
  -1   6   3   17.61    0.47
   0  -6  -3   17.57    0.47
   0  -6  -3   17.91    0.44
   0  -6  -3   17.89    0.62
   0   6   3   17.48    0.43
   0   6   3   17.93    0.52
   0   6   3   18.42    0.43
   0   6   3   17.63    0.50
   0   6   3   17.65    0.51
  -1  -6  -3    0.03    0.13
  -1  -6  -3   -0.10    0.10
  -1  -6  -3   -0.15    0.09
   1   6   3   -0.14    0.11
   1   6   3    0.13    0.11
   1   6   3    0.19    0.09
   1   6   3    0.05    0.08
   1   6   3   -0.06    0.06
  -2  -6  -3   18.83    0.45
  -2  -6  -3   18.79    0.65
  -2  -6  -3   18.16    0.56
   2   6   3   18.06    0.52
   2   6   3   19.09    0.40
  -3  -6  -3   33.49    0.89
   3   6   3   33.09    0.84
  -4  -6  -3    1.03    0.19
   4   6   3    1.11    0.15
   5  -7  -3    4.03    0.27
   4  -7  -3   -0.01    0.13
   3  -7  -3   12.15    0.41
   3  -7  -3   12.27    0.39
   2  -7  -3    0.04    0.11
   2  -7  -3    0.17    0.12
   1  -7  -3   11.17    0.37
   1  -7  -3   11.48    0.35
  -1   7   3   10.94    0.34
  -1   7   3   11.57    0.40
   0  -7  -3   10.57    0.34
   0  -7  -3   10.69    0.35
   0   7   3   10.45    0.31
   0   7   3   10.53    0.38
   0   7   3   10.52    0.38
  -1  -7  -3   58.51    1.19
   1   7   3   57.65    1.39
   1   7   3   58.93    1.15
  -2  -7  -3   -0.01    0.15
   2   7   3   -0.08    0.08
   2   7   3   -0.30    0.12
  -3  -7  -3   10.31    0.44
   4  -8  -3    0.27    0.15
   3  -8  -3   -0.30    0.13
   2  -8  -3    1.60    0.17
   1  -8  -3    3.87    0.26
   1  -8  -3    4.01    0.25
   0  -8  -3    0.06    0.13
  -1  -8  -3   10.60    0.36
   1   8   3    9.96    0.41
   1   8   3   10.61    0.31
   2   8   3   25.85    0.73
   2  -9  -3    2.28    0.25
   1  -9  -3    2.80    0.26
   0  -9  -3   28.84    0.71
   1 -10   4    2.64    0.26
   1 -10   4    2.15    0.27
   2   9  -4    5.71    0.28
  -2  -9   4    5.42    0.31
   1   9  -4    7.48    0.31
  -1  -9   4    6.95    0.37
  -1  -9   4    7.80    0.34
   0   9  -4   -0.04    0.14
   0  -9   4    0.03    0.14
   0  -9   4   -0.14    0.14
   1  -9   4   14.17    0.43
   1  -9   4   13.52    0.47
   2  -9   4    2.88    0.24
   3  -9   4    1.66    0.18
   4  -9   4   -0.06    0.14
   3   8  -4    4.85    0.25
  -3  -8   4    4.74    0.29
   2   8  -4    7.34    0.28
  -2  -8   4    6.98    0.35
  -2  -8   4    7.79    0.32
   1   8  -4   31.77    0.72
  -1  -8   4   30.78    0.85
  -1  -8   4   31.95    0.73
   0   8  -4   13.18    0.39
   0  -8   4   13.28    0.45
   0  -8   4   13.55    0.40
   1  -8   4   -0.16    0.11
   1  -8   4   -0.14    0.12
  -2   8  -4    5.38    0.27
   2  -8   4    5.41    0.26
   2  -8   4    5.21    0.28
   3  -8   4    4.81    0.26
   4  -8   4    1.04    0.16
   5  -8   4    0.12    0.14
   4   7  -4    1.38    0.15
  -4  -7   4    1.43    0.18
   3   7  -4   13.30    0.37
  -3  -7   4   13.24    0.40
  -3  -7   4   12.06    0.47
   2   7  -4   18.85    0.48
  -2  -7   4   19.49    0.71
  -2  -7   4   20.50    0.51
  -2  -7   4   19.33    0.59
   1   7  -4    0.56    0.11
   1   7  -4    0.73    0.12
   1   7  -4    0.52    0.12
  -1  -7   4    0.51    0.14
  -1  -7   4    0.68    0.12
  -1  -7   4    0.57    0.16
   0   7  -4   13.02    0.40
   0   7  -4   14.37    0.41
   0   7  -4   14.11    0.38
   0  -7   4   14.21    0.54
   0  -7   4   14.00    0.39
   0  -7   4   14.14    0.45
   0  -7   4   13.93    0.55
   0  -7   4   14.03    0.44
  -1   7  -4    4.73    0.24
  -1   7  -4    4.35    0.22
   1  -7   4    4.84    0.24
   1  -7   4    4.81    0.30
   1  -7   4    4.50    0.24
   1  -7   4    4.80    0.23
   1  -7   4    4.75    0.23
  -2   7  -4    0.63    0.13
   2  -7   4    0.79    0.12
   2  -7   4    0.72    0.12
   2  -7   4    0.77    0.12
  -3   7  -4    4.08    0.23
   3  -7   4    4.02    0.22
  -4   7  -4    0.15    0.13
   4  -7   4   -0.10    0.12
   5  -7   4   33.32    0.75
   5   6  -4    7.63    0.29
   4   6  -4   13.69    0.37
  -4  -6   4   13.76    0.40
  -4  -6   4   13.02    0.48
  -4  -6   4   13.36    0.55
   3   6  -4    1.30    0.13
   3   6  -4    1.03    0.12
  -3  -6   4    1.40    0.14
  -3  -6   4    0.81    0.16
  -3  -6   4    1.02    0.18
   2   6  -4   30.03    0.71
   2   6  -4   31.44    0.72
   2   6  -4   30.99    0.67
  -2  -6   4   31.09    0.68
  -2  -6   4   31.70    0.99
  -2  -6   4   31.06    0.83
  -2  -6   4   31.16    0.81
   1   6  -4   32.69    0.70
   1   6  -4   31.49    0.74
   1   6  -4   32.64    0.75
   1   6  -4   32.47    0.81
  -1  -6   4   31.87    1.01
  -1  -6   4   32.61    0.76
  -1  -6   4   32.59    1.02
  -1  -6   4   32.40    0.85
  -1  -6   4   32.24    0.82
  -1  -6   4   33.06    0.70
   0   6  -4    2.20    0.18
   0   6  -4    2.20    0.16
   0   6  -4    2.02    0.19
   0   6  -4    2.05    0.15
   0  -6   4    2.54    0.17
   0  -6   4    2.43    0.18
   0  -6   4    2.06    0.22
   0  -6   4    2.36    0.17
   0  -6   4    2.22    0.17
   0  -6   4    2.09    0.19
   0  -6   4    2.21    0.22
  -1   6  -4    0.51    0.10
  -1   6  -4    0.61    0.14
  -1   6  -4    0.42    0.10
  -1   6  -4    0.54    0.10
   1  -6   4    0.52    0.10
   1  -6   4    0.62    0.13
   1  -6   4    0.53    0.10
   1  -6   4    0.61    0.10
   1  -6   4    0.36    0.10
  -2   6  -4    4.30    0.29
  -2   6  -4    3.87    0.20
  -2   6  -4    3.86    0.21
   2  -6   4    4.16    0.23
   2  -6   4    3.80    0.27
   2  -6   4    4.00    0.20
   2  -6   4    3.91    0.20
   2  -6   4    3.69    0.20
  -3   6  -4    6.35    0.35
  -3   6  -4    6.12    0.25
   3  -6   4    5.99    0.32
   3  -6   4    6.25    0.25
   3  -6   4    6.10    0.24
   3  -6   4    6.39    0.28
   3  -6   4    6.61    0.26
  -4   6  -4    1.25    0.14
  -4   6  -4    1.42    0.23
   4  -6   4    1.24    0.15
   4  -6   4    0.98    0.12
   4  -6   4    1.28    0.15
  -5   6  -4    0.06    0.17
   5  -6   4   -0.10    0.12
   6  -6   4   -0.14    0.12
   5   5  -4   10.87    0.32
  -5  -5   4   10.62    0.37
  -5  -5   4    9.70    0.48
  -5  -5   4   10.92    0.44
   4   5  -4   13.70    0.36
   4   5  -4   13.16    0.35
  -4  -5   4   13.29    0.38
  -4  -5   4   12.35    0.46
  -4  -5   4   12.92    0.53
   3   5  -4   29.78    0.77
   3   5  -4   29.36    0.68
   3   5  -4   30.56    0.65
   3   5  -4   30.74    0.69
  -3  -5   4   30.32    0.80
  -3  -5   4   30.65    0.81
  -3  -5   4   30.18    0.67
  -3  -5   4   29.41    0.96
   2   5  -4    0.91    0.11
   2   5  -4    0.89    0.10
   2   5  -4    0.88    0.10
   2   5  -4    0.98    0.10
  -2  -5   4    0.62    0.12
  -2  -5   4    0.90    0.11
  -2  -5   4    1.08    0.14
  -2  -5   4    0.79    0.14
  -2  -5   4    0.90    0.10
  -2  -5   4    1.23    0.18
   1   5  -4    3.18    0.17
   1   5  -4    3.10    0.17
   1   5  -4    3.00    0.20
   1   5  -4    2.87    0.17
  -1  -5   4    3.22    0.18
  -1  -5   4    2.84    0.20
  -1  -5   4    3.08    0.24
  -1  -5   4    3.10    0.19
  -1  -5   4    2.86    0.17
  -1  -5   4    2.84    0.18
  -1  -5   4    2.89    0.22
   0   5  -4    0.26    0.08
   0   5  -4    0.32    0.08
   0   5  -4    0.29    0.08
   0  -5   4    0.21    0.07
   0  -5   4    0.38    0.08
   0  -5   4    0.22    0.10
   0  -5   4    0.37    0.08
   0  -5   4    0.31    0.09
   0  -5   4    0.22    0.08
  -1   5  -4    0.90    0.10
  -1   5  -4    0.82    0.14
  -1   5  -4    0.89    0.10
  -1   5  -4    0.75    0.10
   1  -5   4    0.77    0.12
   1  -5   4    0.89    0.12
   1  -5   4    0.70    0.09
   1  -5   4    0.82    0.10
   1  -5   4    0.90    0.10
  -2   5  -4   45.69    0.99
  -2   5  -4   45.20    1.05
  -2   5  -4   43.96    0.98
  -2   5  -4   45.59    1.34
   2  -5   4   44.74    1.06
   2  -5   4   44.51    1.32
   2  -5   4   45.11    0.91
   2  -5   4   45.07    1.32
   2  -5   4   44.44    1.10
   2  -5   4   45.95    0.98
  -3   5  -4   18.46    0.47
  -3   5  -4   17.42    0.62
  -3   5  -4   17.68    0.46
   3  -5   4   19.07    0.45
   3  -5   4   17.53    0.43
   3  -5   4   18.05    0.59
   3  -5   4   17.84    0.50
   3  -5   4   17.85    0.48
   3  -5   4   18.13    0.50
  -4   5  -4   80.68    2.34
  -4   5  -4   78.79    1.71
   4  -5   4   81.04    1.86
   4  -5   4   82.59    1.86
   4  -5   4   81.10    1.57
   4  -5   4   82.26    1.89
  -5   5  -4   59.68    1.83
   5  -5   4   62.09    1.46
   5  -5   4   63.68    1.23
  -6   5  -4    0.53    0.19
   6  -5   4    0.58    0.15
   6  -5   4    0.50    0.12
   6   4  -4    3.54    0.22
   5   4  -4   14.91    0.38
   5   4  -4   14.60    0.36
  -5  -4   4   14.53    0.41
  -5  -4   4   13.52    0.56
  -5  -4   4   13.85    0.49
   4   4  -4    0.05    0.10
   4   4  -4    0.14    0.09
  -4  -4   4    0.09    0.11
  -4  -4   4    0.00    0.14
  -4  -4   4   -0.01    0.13
   3   4  -4    6.20    0.22
   3   4  -4    6.13    0.25
   3   4  -4    6.38    0.22
   3   4  -4    6.26    0.22
  -3  -4   4    6.49    0.28
  -3  -4   4    6.58    0.23
  -3  -4   4    6.23    0.30
  -3  -4   4    6.53    0.24
  -3  -4   4    6.52    0.26
   2   4  -4   30.44    0.73
   2   4  -4   29.83    0.68
   2   4  -4   30.15    0.74
   2   4  -4   30.79    0.63
   2   4  -4   29.97    0.67
  -2  -4   4   29.58    0.75
  -2  -4   4   29.87    0.64
  -2  -4   4   29.83    0.68
  -2  -4   4   30.58    0.77
  -2  -4   4   29.60    0.92
   1   4  -4   14.23    0.39
   1   4  -4   13.99    0.36
   1   4  -4   14.34    0.36
   1   4  -4   14.18    0.34
  -1  -4   4   14.32    0.41
  -1  -4   4   14.28    0.48
  -1  -4   4   13.93    0.34
  -1  -4   4   14.20    0.39
  -1  -4   4   14.33    0.49
  -1  -4   4   14.13    0.39
  -1  -4   4   14.29    0.36
   0   4  -4    5.75    0.20
   0   4  -4    5.91    0.21
   0   4  -4    5.85    0.27
   0   4  -4    5.77    0.19
   0  -4   4    5.61    0.25
   0  -4   4    5.77    0.21
   0  -4   4    5.91    0.26
   0  -4   4    5.89    0.19
   0  -4   4    5.92    0.21
   0  -4   4    5.84    0.21
   0  -4   4    5.84    0.20
  -1   4  -4    0.20    0.07
  -1   4  -4    0.21    0.07
  -1   4  -4    0.27    0.07
  -1   4  -4    0.19    0.09
   1  -4   4    0.09    0.08
   1  -4   4    0.19    0.06
   1  -4   4    0.12    0.07
   1  -4   4    0.25    0.07
   1  -4   4    0.19    0.08
   1  -4   4    0.15    0.06
  -2   4  -4   14.89    0.50
  -2   4  -4   14.85    0.37
  -2   4  -4   14.57    0.37
   2  -4   4   14.48    0.39
   2  -4   4   15.14    0.40
   2  -4   4   14.43    0.34
   2  -4   4   14.86    0.48
   2  -4   4   14.68    0.40
   2  -4   4   14.12    0.47
   2  -4   4   14.89    0.36
  -3   4  -4    9.41    0.27
  -3   4  -4    9.89    0.28
  -3   4  -4    9.51    0.37
   3  -4   4    9.52    0.26
   3  -4   4    9.61    0.27
   3  -4   4    9.54    0.33
   3  -4   4    9.67    0.27
   3  -4   4    9.51    0.26
   3  -4   4    8.94    0.26
   3  -4   4    8.89    0.30
   3  -4   4    9.87    0.30
  -4   4  -4    2.77    0.18
  -4   4  -4    2.54    0.22
   4  -4   4    2.45    0.20
   4  -4   4    2.35    0.16
   4  -4   4    2.81    0.16
   4  -4   4    2.60    0.19
  -5   4  -4    1.19    0.17
   5  -4   4    1.31    0.15
   5  -4   4    1.25    0.14
   5  -4   4    1.35    0.11
  -6   4  -4    3.00    0.29
   6  -4   4    3.44    0.25
   6  -4   4    3.53    0.18
   6   3  -4   22.75    0.51
  -6  -3   4   21.67    0.67
  -6  -3   4   21.39    0.55
  -6  -3   4   20.17    0.77
   5   3  -4    4.10    0.18
   5   3  -4    4.32    0.20
  -5  -3   4    4.16    0.23
  -5  -3   4    4.12    0.29
  -5  -3   4    3.82    0.27
   4   3  -4   24.80    0.65
   4   3  -4   25.48    0.55
   4   3  -4   25.25    0.57
  -4  -3   4   24.13    0.80
  -4  -3   4   24.60    0.68
  -4  -3   4   24.74    0.56
  -4  -3   4   23.78    0.67
   3   3  -4    0.24    0.07
   3   3  -4    0.24    0.05
   3   3  -4    0.33    0.07
   3   3  -4    0.42    0.08
   3   3  -4    0.29    0.07
  -3  -3   4    0.30    0.08
  -3  -3   4    0.37    0.11
  -3  -3   4    0.35    0.08
  -3  -3   4    0.53    0.09
  -3  -3   4    0.32    0.10
   2   3  -4    0.11    0.06
   2   3  -4    0.19    0.07
   2   3  -4    0.03    0.06
   2   3  -4    0.06    0.05
   2   3  -4    0.09    0.06
  -2  -3   4    0.05    0.07
  -2  -3   4    0.05    0.09
  -2  -3   4    0.05    0.06
  -2  -3   4    0.07    0.07
  -2  -3   4    0.19    0.07
  -2  -3   4   -0.10    0.08
   1   3  -4   78.99    1.63
   1   3  -4   78.89    1.85
   1   3  -4   78.73    1.76
   1   3  -4   79.56    1.50
   1   3  -4   79.29    1.76
  -1  -3   4   77.27    2.22
  -1  -3   4   79.08    1.85
  -1  -3   4   79.66    1.76
  -1  -3   4   79.62    2.23
  -1  -3   4   77.94    1.76
  -1  -3   4   79.30    1.63
  -1  -3   4   79.67    1.50
   0   3  -4   12.97    0.43
   0   3  -4   12.37    0.35
   0   3  -4   12.78    0.31
   0   3  -4   12.59    0.33
   0  -3   4   12.39    0.42
   0  -3   4   12.37    0.29
   0  -3   4   12.87    0.35
   0  -3   4   12.52    0.33
   0  -3   4   12.56    0.31
   0  -3   4   12.73    0.34
  -1   3  -4  168.47    4.72
  -1   3  -4  173.41    3.92
  -1   3  -4  171.16    3.73
  -1   3  -4  175.49    3.44
  -1   3  -4  172.87    3.44
   1  -3   4  170.48    3.73
   1  -3   4  172.42    3.44
   1  -3   4  171.17    3.91
   1  -3   4  166.81    3.16
   1  -3   4  172.90    4.71
   1  -3   4  166.45    4.71
   1  -3   4  171.13    3.71
  -2   3  -4  152.15    4.27
  -2   3  -4  155.13    3.11
  -2   3  -4  157.34    3.12
   2  -3   4  159.54    3.10
   2  -3   4  155.69    3.38
   2  -3   4  155.77    3.38
   2  -3   4  160.62    4.24
   2  -3   4  147.01    3.52
   2  -3   4  151.56    2.86
   2  -3   4  148.78    4.24
  -3   3  -4  124.57    3.54
  -3   3  -4  132.06    2.59
  -3   3  -4  127.36    2.59
   3  -3   4  128.17    2.37
   3  -3   4  129.19    2.81
   3  -3   4  125.01    2.77
   3  -3   4  126.32    2.81
  -4   3  -4  176.18    5.06
  -4   3  -4  184.61    3.70
  -4   3  -4  185.21    3.70
   4  -3   4  178.78    4.01
   4  -3   4  185.62    3.38
   4  -3   4  185.98    4.02
   4  -3   4  185.03    3.38
   4  -3   4  181.86    3.97
  -5   3  -4    1.33    0.13
  -5   3  -4    1.12    0.16
   5  -3   4    1.36    0.18
   5  -3   4    1.22    0.13
   5  -3   4    1.17    0.09
  -6   3  -4    0.76    0.17
   6  -3   4    0.83    0.14
   6  -3   4    0.84    0.13
   7  -3   4   10.07    0.39
   6   2  -4    6.01    0.23
  -6  -2   4    6.00    0.27
  -6  -2   4    5.35    0.33
  -6  -2   4    5.44    0.35
   5   2  -4   -0.10    0.10
   5   2  -4   -0.03    0.09
  -5  -2   4   -0.12    0.11
  -5  -2   4    0.05    0.14
  -5  -2   4   -0.01    0.15
   4   2  -4    1.00    0.11
   4   2  -4    0.90    0.10
   4   2  -4    1.08    0.11
   4   2  -4    0.86    0.10
  -4  -2   4    0.87    0.13
  -4  -2   4    0.85    0.10
  -4  -2   4    1.12    0.12
  -4  -2   4    0.95    0.14
  -4  -2   4    1.05    0.14
   3   2  -4    1.39    0.12
   3   2  -4    1.51    0.12
   3   2  -4    1.10    0.12
   3   2  -4    1.57    0.14
   3   2  -4    1.41    0.13
   3   2  -4    1.33    0.15
  -3  -2   4    1.10    0.13
  -3  -2   4    1.49    0.16
  -3  -2   4    1.18    0.11
  -3  -2   4    1.44    0.13
  -3  -2   4    1.33    0.14
  -3  -2   4    1.26    0.17
   2   2  -4   20.36    0.51
   2   2  -4   20.55    0.44
   2   2  -4   21.48    0.48
   2   2  -4   21.05    0.53
   2   2  -4   20.87    0.53
   2   2  -4   20.51    0.53
   2   2  -4   20.14    0.64
  -2  -2   4   21.50    0.54
  -2  -2   4   20.86    0.53
  -2  -2   4   20.97    0.48
  -2  -2   4   20.18    0.44
  -2  -2   4   20.99    0.51
  -2  -2   4   21.30    0.53
  -2  -2   4   20.90    0.65
   1   2  -4   31.19    0.76
   1   2  -4   31.08    0.72
   1   2  -4   30.76    0.75
   1   2  -4   30.86    0.72
   1   2  -4   31.02    0.62
   1   2  -4   30.72    0.90
   1   2  -4   31.07    0.66
  -1  -2   4   29.98    0.61
  -1  -2   4   30.61    0.72
  -1  -2   4   30.47    0.90
  -1  -2   4   31.42    0.75
  -1  -2   4   31.21    0.66
   0   2  -4   28.63    0.67
   0   2  -4   29.72    0.71
   0   2  -4   29.28    0.85
   0   2  -4   29.61    0.62
   0   2  -4   28.60    0.57
   0   2  -4   28.87    0.66
   0   2  -4   30.30    0.85
   0  -2   4   29.21    0.70
   0  -2   4   28.78    0.67
   0  -2   4   29.23    0.84
   0  -2   4   29.50    0.62
   0  -2   4   28.93    0.66
   0  -2   4   28.70    0.84
   0  -2   4   29.12    0.57
  -1   2  -4    5.58    0.16
  -1   2  -4    5.45    0.16
  -1   2  -4    5.19    0.21
  -1   2  -4    5.93    0.21
  -1   2  -4    5.56    0.17
   1  -2   4    5.54    0.15
   1  -2   4    5.42    0.17
   1  -2   4    5.32    0.16
   1  -2   4    5.53    0.19
   1  -2   4    5.54    0.15
   1  -2   4    5.29    0.14
   1  -2   4    5.06    0.19
  -2   2  -4   26.60    0.64
  -2   2  -4   25.23    0.77
  -2   2  -4   28.46    0.57
  -2   2  -4   26.78    0.57
   2  -2   4   26.22    0.52
   2  -2   4   27.65    0.62
   2  -2   4   26.56    0.62
  -3   2  -4    2.73    0.13
  -3   2  -4    2.35    0.15
  -3   2  -4    2.67    0.12
   3  -2   4    2.55    0.14
   3  -2   4    2.44    0.14
   3  -2   4    2.75    0.10
  -4   2  -4   13.97    0.34
  -4   2  -4   12.83    0.44
  -4   2  -4   13.54    0.34
   4  -2   4   13.89    0.37
   4  -2   4   12.99    0.36
   4  -2   4   13.61    0.35
  -5   2  -4    0.17    0.11
   5  -2   4    0.06    0.09
   5  -2   4    0.27    0.10
  -6   2  -4    7.83    0.37
   6  -2   4    8.49    0.31
   6  -2   4    8.36    0.31
   7  -2   4    0.19    0.14
   7   1  -4   20.30    0.50
   6   1  -4   -0.07    0.09
   6   1  -4   -0.06    0.10
  -6  -1   4    0.09    0.14
  -6  -1   4   -0.06    0.15
   5   1  -4    9.58    0.29
   5   1  -4    9.82    0.29
   5   1  -4    9.39    0.28
  -5  -1   4    8.93    0.42
  -5  -1   4    8.85    0.37
  -5  -1   4    9.58    0.32
  -5  -1   4    9.16    0.34
   4   1  -4    6.71    0.22
   4   1  -4    6.51    0.25
   4   1  -4    6.88    0.23
   4   1  -4    6.83    0.22
  -4  -1   4    6.77    0.24
  -4  -1   4    6.65    0.26
  -4  -1   4    6.83    0.27
  -4  -1   4    6.55    0.30
  -4  -1   4    6.83    0.25
  -4  -1   4    6.67    0.23
   3   1  -4    2.06    0.17
   3   1  -4    1.98    0.15
   3   1  -4    2.15    0.14
   3   1  -4    2.16    0.13
   3   1  -4    2.09    0.13
   3   1  -4    1.85    0.14
  -3  -1   4    2.08    0.14
  -3  -1   4    2.04    0.14
  -3  -1   4    1.76    0.17
  -3  -1   4    2.14    0.18
  -3  -1   4    1.93    0.14
  -3  -1   4    2.20    0.14
  -3  -1   4    2.15    0.15
   2   1  -4  265.37    4.93
   2   1  -4  271.15    5.36
   2   1  -4  263.90    7.34
   2   1  -4  266.72    5.81
   2   1  -4  264.70    5.81
   2   1  -4  266.29    6.27
  -2  -1   4  270.12    6.10
  -2  -1   4  263.97    4.93
  -2  -1   4  271.73    6.27
  -2  -1   4  269.11    5.81
  -2  -1   4  266.80    5.81
  -2  -1   4  271.16    5.36
  -2  -1   4  266.36    7.36
   1   1  -4  133.36    3.18
   1   1  -4  137.63    3.09
   1   1  -4  131.73    2.94
   1   1  -4  137.30    2.95
   1   1  -4  131.93    2.50
   1   1  -4  137.44    3.72
   1   1  -4  135.56    2.72
   1   1  -4  131.34    2.50
  -1  -1   4  136.56    3.09
  -1  -1   4  134.89    3.72
  -1  -1   4  137.38    2.95
  -1  -1   4  130.45    2.50
  -1  -1   4  136.28    2.72
  -1  -1   4  135.31    3.18
  -1  -1   4  135.50    2.50
  -1  -1   4  136.12    2.94
   0   1  -4  326.34    6.07
   0   1  -4  328.66    6.60
   0   1  -4  319.41    7.13
   0   1  -4  328.97    7.12
   0   1  -4  346.01    9.07
   0   1  -4  320.72    6.05
   0   1  -4  325.63    7.50
   0  -1   4  325.52    7.17
   0  -1   4  326.28    6.07
   0  -1   4  314.84    9.00
   0  -1   4  318.14    6.03
   0  -1   4  346.77    9.02
   0  -1   4  333.89    7.13
   0  -1   4  332.79    6.58
   0  -1   4  326.98    7.47
  -1   1  -4  482.34   13.58
  -1   1  -4  500.78    9.11
  -1   1  -4  493.26   11.27
  -1   1  -4  516.74    9.91
   1  -1   4  499.00    9.11
   1  -1   4  483.90   10.77
  -2   1  -4  124.58    2.29
  -3   1  -4  371.36    7.13
  -3   1  -4  355.82    7.73
  -3   1  -4  356.79    7.13
   3  -1   4  360.17    7.73
   3  -1   4  341.36    7.75
   3  -1   4  365.29    7.76
  -4   1  -4    2.77    0.13
  -4   1  -4    2.55    0.15
  -4   1  -4    2.74    0.13
  -4   1  -4    2.75    0.13
  -4   1  -4    2.91    0.15
   4  -1   4    2.19    0.14
   4  -1   4    2.66    0.15
   4  -1   4    2.79    0.14
  -5   1  -4    0.06    0.08
  -5   1  -4    0.09    0.09
  -5   1  -4    0.02    0.10
   5  -1   4   -0.05    0.08
   5  -1   4    0.01    0.08
  -6   1  -4   32.71    1.05
   6  -1   4   36.26    0.85
   6  -1   4   35.26    0.85
   7  -1   4    4.31    0.26
   7  -1   4    3.99    0.26
   7   0  -4    0.59    0.13
  -7   0   4    0.18    0.18
   6   0  -4    1.51    0.15
  -6   0   4    2.25    0.25
  -6   0   4    1.53    0.23
   5   0  -4    2.48    0.16
   5   0  -4    2.26    0.16
   5   0  -4    2.33    0.18
  -5   0   4    2.99    0.21
  -5   0   4    2.13    0.24
  -5   0   4    1.72    0.20
   4   0  -4   16.15    0.45
   4   0  -4   15.67    0.40
   4   0  -4   16.32    0.45
   4   0  -4   15.90    0.39
  -4   0   4   16.12    0.48
  -4   0   4   16.36    0.48
  -4   0   4   16.33    0.42
  -4   0   4   16.60    0.47
  -4   0   4   16.13    0.56
   3   0  -4    3.54    0.17
   3   0  -4    3.43    0.15
   3   0  -4    3.60    0.16
   3   0  -4    3.46    0.16
   3   0  -4    3.46    0.20
   3   0  -4    3.50    0.18
  -3   0   4    3.48    0.17
  -3   0   4    3.47    0.18
  -3   0   4    3.66    0.18
  -3   0   4    3.59    0.21
  -3   0   4    3.30    0.19
  -3   0   4    3.54    0.16
  -3   0   4    3.45    0.16
   2   0  -4   38.99    0.99
   2   0  -4   40.26    0.92
   2   0  -4   41.32    0.96
   2   0  -4   39.13    0.78
   2   0  -4   40.82    0.85
   2   0  -4   40.12    0.91
   2   0  -4   38.92    1.15
  -2   0   4   40.71    0.92
  -2   0   4   39.98    0.99
  -2   0   4   41.29    0.96
  -2   0   4   38.09    0.91
  -2   0   4   40.95    0.85
  -2   0   4   40.31    1.15
  -2   0   4   40.49    0.78
  -2   0   4   35.17    0.91
   1   0  -4   51.30    1.26
   1   0  -4   51.77    0.99
   1   0  -4   51.74    1.22
   1   0  -4   53.70    1.07
   1   0  -4   53.28    1.47
   1   0  -4   51.99    1.16
   1   0  -4   52.78    1.17
   1   0  -4   51.78    0.99
  -1   0   4   52.87    1.07
  -1   0   4   50.13    0.99
  -1   0   4   52.92    1.47
  -1   0   4   50.78    0.99
  -1   0   4   50.72    1.16
  -1   0   4   51.83    1.22
  -1   0   4   50.95    1.26
  -1   0   4   52.30    1.17
   0   0  -4    9.80    0.30
   0   0  -4    9.78    0.21
   0   0  -4    9.67    0.28
   0   0  -4    9.24    0.21
   0   0  -4    9.86    0.25
   0   0  -4    9.11    0.23
   0   0  -4    9.90    0.22
   0   0   4    9.60    0.28
   0   0   4    9.37    0.24
   0   0   4    9.87    0.22
   0   0   4    9.44    0.21
   0   0   4    8.80    0.28
   0   0   4    8.98    0.21
  -1   0  -4   21.66    0.40
  -1   0  -4   21.35    0.41
  -2   0  -4    0.23    0.05
  -3   0  -4   20.72    0.49
  -4   0  -4   18.67    0.48
   4   0   4   18.69    0.45
  -5   0  -4    4.74    0.21
  -5   0  -4    4.42    0.18
  -5   0  -4    4.01    0.21
   5   0   4    4.31    0.18
   5   0   4    4.21    0.19
  -6   0  -4    0.08    0.12
   6   0   4    0.06    0.10
   6   0   4    0.14    0.10
   7  -1  -4    0.42    0.13
  -7   1   4    0.25    0.18
   6  -1  -4    2.14    0.20
  -6   1   4    1.94    0.29
  -6   1   4    2.13    0.26
  -6   1   4    1.85    0.21
   5  -1  -4   14.01    0.41
   5  -1  -4   13.98    0.38
   5  -1  -4   14.34    0.37
  -5   1   4   13.51    0.41
  -5   1   4   13.61    0.54
  -5   1   4   13.46    0.45
  -5   1   4   14.88    0.47
   4  -1  -4   12.10    0.36
   4  -1  -4   11.62    0.32
   4  -1  -4   11.76    0.43
   4  -1  -4   11.59    0.37
   4  -1  -4   11.47    0.32
  -4   1   4   11.93    0.38
  -4   1   4   11.95    0.34
  -4   1   4   12.06    0.35
  -4   1   4   11.95    0.38
  -4   1   4   12.09    0.40
  -4   1   4   11.71    0.45
   3  -1  -4  172.35    4.31
   3  -1  -4  180.92    3.39
   3  -1  -4  180.62    5.03
   3  -1  -4  180.37    3.99
   3  -1  -4  179.09    3.67
  -3   1   4  184.56    5.05
  -3   1   4  185.12    4.32
  -3   1   4  184.84    3.69
  -3   1   4  184.69    3.99
  -3   1   4  184.70    4.00
  -3   1   4  184.15    3.68
   2  -1  -4  280.03    6.19
   2  -1  -4  285.21    5.71
   2  -1  -4  280.28    5.27
   2  -1  -4  286.98    6.50
   2  -1  -4  282.78    6.20
   2  -1  -4  286.11    7.88
   2  -1  -4  280.16    6.70
  -2   1   4  289.74    7.89
  -2   1   4  286.45    6.20
  -2   1   4  291.59    6.71
  -2   1   4  288.74    5.71
  -2   1   4  287.59    6.20
  -2   1   4  281.13    5.71
  -2   1   4  285.80    6.20
   1  -1  -4  143.90    3.10
   1  -1  -4  142.20    2.85
   1  -1  -4  143.83    3.91
   1  -1  -4  140.82    2.63
   1  -1  -4  141.79    3.09
   1  -1  -4  138.11    3.36
  -1   1   4  142.24    3.36
  -1   1   4  140.07    2.85
  -1   1   4  141.60    3.10
  -1   1   4  141.06    2.62
  -1   1   4  139.35    3.10
  -1   1   4  141.93    2.85
  -1   1   4  145.47    3.91
   0  -1  -4  573.37   11.32
   0  -1  -4  583.38   11.33
   0  -1  -4  541.70   10.41
   0  -1  -4  552.21   13.40
   0  -1  -4  588.72   15.55
   0   1   4  550.64   10.40
   0   1   4  554.68   12.29
   0   1   4  589.70   11.29
   0   1   4  556.72   13.35
  -1  -1  -4   46.78    0.87
  -1  -1  -4   47.31    1.15
  -2  -1  -4  363.30    7.86
  -3  -1  -4    3.22    0.16
  -4  -1  -4    1.55    0.10
  -4  -1  -4    1.60    0.16
  -5  -1  -4   60.23    1.40
   5   1   4   60.47    1.36
   7  -2  -4    6.46    0.29
   6  -2  -4   -0.01    0.12
  -6   2   4   -0.04    0.13
   5  -2  -4   27.55    0.65
   5  -2  -4   28.32    0.73
   5  -2  -4   27.69    0.62
  -5   2   4   28.02    0.91
  -5   2   4   26.98    0.68
   4  -2  -4    2.66    0.16
   4  -2  -4    2.87    0.18
   4  -2  -4    2.48    0.21
   4  -2  -4    2.91    0.20
   4  -2  -4    2.63    0.18
  -4   2   4    2.89    0.19
  -4   2   4    3.17    0.18
  -4   2   4    2.59    0.22
  -4   2   4    2.89    0.23
  -4   2   4    2.86    0.18
   3  -2  -4   17.31    0.52
   3  -2  -4   17.73    0.48
   3  -2  -4   17.61    0.44
   3  -2  -4   18.31    0.50
   3  -2  -4   17.83    0.47
   3  -2  -4   17.73    0.41
   3  -2  -4   17.68    0.58
  -3   2   4   17.60    0.47
  -3   2   4   18.13    0.44
  -3   2   4   18.09    0.59
  -3   2   4   17.96    0.47
  -3   2   4   17.57    0.44
  -3   2   4   18.48    0.52
   2  -2  -4   20.79    0.52
   2  -2  -4   21.30    0.54
   2  -2  -4   20.65    0.52
   2  -2  -4   21.29    0.65
   2  -2  -4   21.18    0.48
   2  -2  -4   20.79    0.55
   2  -2  -4   19.94    0.57
   2  -2  -4   20.47    0.45
  -2   2   4   20.84    0.57
  -2   2   4   21.08    0.48
  -2   2   4   21.14    0.52
  -2   2   4   20.77    0.48
  -2   2   4   21.52    0.53
   1  -2  -4   16.18    0.46
   1  -2  -4   16.33    0.52
   1  -2  -4   16.26    0.36
   1  -2  -4   16.54    0.39
   1  -2  -4   16.85    0.39
  -1   2   4   17.69    0.52
  -1   2   4   16.51    0.38
  -1   2   4   16.64    0.42
  -1   2   4   16.69    0.38
  -1   2   4   16.83    0.36
  -1   2   4   16.44    0.46
  -1   2   4   16.48    0.42
   0  -2  -4    0.04    0.04
   0  -2  -4    0.03    0.06
   0  -2  -4    0.05    0.06
   0  -2  -4    0.09    0.04
   0  -2  -4   -0.01    0.04
   0   2   4    0.03    0.04
   0   2   4    0.05    0.04
   0   2   4    0.04    0.04
   0   2   4    0.08    0.06
   0   2   4    0.08    0.04
  -1  -2  -4    6.93    0.17
  -1  -2  -4    7.53    0.18
  -1  -2  -4    7.46    0.24
  -1  -2  -4    7.10    0.18
   1   2   4    7.50    0.24
   1   2   4    7.27    0.20
  -2  -2  -4    5.17    0.19
  -2  -2  -4    5.33    0.13
  -2  -2  -4    5.44    0.20
  -3  -2  -4   58.01    1.41
  -3  -2  -4   60.09    1.33
  -3  -2  -4   56.37    1.09
  -4  -2  -4    0.29    0.11
  -4  -2  -4    0.57    0.08
  -5  -2  -4    0.63    0.09
  -5  -2  -4    0.64    0.10
  -5  -2  -4    0.85    0.14
   5   2   4    0.66    0.10
   6   2   4    1.79    0.18
   6  -3  -4   13.40    0.39
  -6   3   4   12.58    0.42
   5  -3  -4   18.80    0.47
   5  -3  -4   18.41    0.48
  -5   3   4   19.29    0.68
  -5   3   4   17.71    0.50
   4  -3  -4   48.49    1.07
   4  -3  -4   48.54    0.99
   4  -3  -4   47.88    1.16
   4  -3  -4   49.66    1.21
   4  -3  -4   47.74    1.44
  -4   3   4   49.23    1.08
  -4   3   4   47.55    1.08
  -4   3   4   50.51    1.47
   3  -3  -4  192.44    4.45
   3  -3  -4  194.95    5.35
   3  -3  -4  192.76    4.24
   3  -3  -4  191.00    4.60
   3  -3  -4  192.61    4.24
   3  -3  -4  196.39    3.60
   3  -3  -4  190.20    3.91
  -3   3   4  192.16    4.24
  -3   3   4  189.28    3.91
  -3   3   4  190.09    3.91
  -3   3   4  198.57    5.36
   2  -3  -4    6.67    0.21
   2  -3  -4    6.66    0.22
   2  -3  -4    6.29    0.26
   2  -3  -4    6.65    0.29
   2  -3  -4    6.46    0.21
   2  -3  -4    6.55    0.24
  -2   3   4    6.30    0.21
  -2   3   4    6.58    0.28
  -2   3   4    6.62    0.26
  -2   3   4    6.69    0.24
  -2   3   4    6.70    0.23
  -2   3   4    6.45    0.21
   1  -3  -4  209.41    4.23
   1  -3  -4  210.14    4.23
   1  -3  -4  203.91    3.89
   1  -3  -4  212.26    4.58
   1  -3  -4  209.19    4.97
   1  -3  -4  211.60    5.79
  -1   3   4  211.37    4.97
  -1   3   4  211.78    5.78
  -1   3   4  214.96    4.59
  -1   3   4  206.05    4.22
  -1   3   4  211.47    4.22
  -1   3   4  209.01    4.59
   0  -3  -4    6.23    0.19
   0  -3  -4    6.34    0.23
   0  -3  -4    6.12    0.18
   0  -3  -4    6.38    0.19
   0  -3  -4    6.61    0.25
   0   3   4    6.52    0.17
   0   3   4    6.41    0.23
   0   3   4    6.31    0.21
   0   3   4    6.14    0.17
   0   3   4    5.94    0.20
  -1  -3  -4  155.84    4.20
  -1  -3  -4  150.36    3.61
  -1  -3  -4  148.74    3.07
  -1  -3  -4  156.75    3.07
  -1  -3  -4  150.96    2.82
   1   3   4  155.69    3.33
   1   3   4  149.89    3.61
  -2  -3  -4    0.00    0.05
  -2  -3  -4    0.00    0.04
  -2  -3  -4    0.11    0.06
  -2  -3  -4   -0.10    0.05
   2   3   4   -0.02    0.06
  -3  -3  -4    5.91    0.21
  -3  -3  -4    5.97    0.18
  -3  -3  -4    5.99    0.18
  -3  -3  -4    5.92    0.26
  -3  -3  -4    5.85    0.17
   3   3   4    6.13    0.20
  -4  -3  -4   56.09    1.31
   4   3   4   54.29    1.25
  -5  -3  -4   41.68    1.27
  -5  -3  -4   44.35    1.06
  -5  -3  -4   45.19    1.09
   6   3   4    0.18    0.11
   6  -4  -4   12.29    0.38
   5  -4  -4    7.75    0.29
  -5   4   4    7.67    0.31
   4  -4  -4    2.27    0.19
   4  -4  -4    2.38    0.24
   4  -4  -4    2.28    0.18
  -4   4   4    2.53    0.19
  -4   4   4    2.61    0.27
  -4   4   4    2.43    0.19
   3  -4  -4    3.91    0.19
   3  -4  -4    3.70    0.25
   3  -4  -4    3.72    0.19
   3  -4  -4    3.85    0.18
   3  -4  -4    3.75    0.22
  -3   4   4    4.07    0.26
  -3   4   4    3.87    0.19
  -3   4   4    3.68    0.22
  -3   4   4    3.70    0.21
  -3   4   4    3.82    0.23
  -3   4   4    3.90    0.19
   2  -4  -4    3.11    0.16
   2  -4  -4    3.26    0.22
   2  -4  -4    3.11    0.17
   2  -4  -4    3.02    0.19
   2  -4  -4    3.00    0.16
   2  -4  -4    3.25    0.20
  -2   4   4    3.25    0.21
  -2   4   4    3.15    0.16
  -2   4   4    3.22    0.21
  -2   4   4    3.17    0.19
  -2   4   4    2.98    0.18
  -2   4   4    3.19    0.16
   1  -4  -4    5.24    0.18
   1  -4  -4    4.99    0.19
   1  -4  -4    5.19    0.19
   1  -4  -4    5.25    0.25
   1  -4  -4    5.04    0.23
  -1   4   4    5.12    0.21
  -1   4   4    5.22    0.23
  -1   4   4    4.78    0.17
  -1   4   4    5.16    0.24
  -1   4   4    5.17    0.21
  -1   4   4    5.14    0.18
   0  -4  -4   20.85    0.47
   0  -4  -4   19.73    0.47
   0  -4  -4   20.26    0.63
   0  -4  -4   19.31    0.55
   0  -4  -4   19.77    0.44
   0   4   4   20.11    0.51
   0   4   4   19.81    0.51
   0   4   4   19.22    0.55
   0   4   4   20.12    0.45
   0   4   4   19.95    0.44
   0   4   4   19.87    0.43
  -1  -4  -4    0.84    0.08
  -1  -4  -4    1.02    0.14
  -1  -4  -4    1.32    0.12
  -1  -4  -4    0.99    0.12
  -1  -4  -4    0.91    0.08
   1   4   4    1.01    0.10
   1   4   4    0.90    0.09
   1   4   4    1.11    0.13
   1   4   4    0.92    0.09
  -2  -4  -4   54.28    1.52
  -2  -4  -4   53.45    1.03
  -2  -4  -4   52.85    1.11
  -2  -4  -4   50.81    1.30
  -2  -4  -4   54.64    1.12
   2   4   4   53.29    1.21
  -3  -4  -4   15.85    0.48
  -3  -4  -4   15.97    0.39
   3   4   4   16.32    0.42
  -4  -4  -4    0.44    0.13
   4   4   4    0.33    0.11
  -5  -4  -4    1.43    0.19
   5   4   4    2.24    0.18
   6  -5  -4   14.99    0.44
   5  -5  -4    3.71    0.23
   4  -5  -4   67.96    1.35
   4  -5  -4   66.46    1.45
  -4   5   4   64.94    1.45
   3  -5  -4    2.09    0.19
   3  -5  -4    2.64    0.25
   3  -5  -4    2.43    0.18
   3  -5  -4    2.46    0.19
  -3   5   4    2.36    0.17
  -3   5   4    2.25    0.17
  -3   5   4    2.28    0.24
   2  -5  -4   38.58    0.88
   2  -5  -4   39.13    0.82
   2  -5  -4   38.64    0.88
   2  -5  -4   38.69    1.19
  -2   5   4   40.56    0.96
  -2   5   4   39.43    1.18
  -2   5   4   39.45    0.96
  -2   5   4   37.27    0.87
  -2   5   4   39.92    0.87
  -2   5   4   39.05    1.04
   1  -5  -4    2.13    0.16
   1  -5  -4    2.11    0.16
   1  -5  -4    1.93    0.15
   1  -5  -4    1.90    0.17
   1  -5  -4    2.08    0.20
  -1   5   4    2.28    0.18
  -1   5   4    2.20    0.19
  -1   5   4    2.24    0.20
  -1   5   4    2.13    0.18
  -1   5   4    2.06    0.14
  -1   5   4    1.91    0.13
   0  -5  -4   45.34    0.99
   0  -5  -4   44.72    0.91
   0  -5  -4   44.69    1.15
   0  -5  -4   46.16    1.35
   0  -5  -4   44.97    0.99
   0   5   4   45.28    0.96
   0   5   4   46.27    0.96
   0   5   4   45.17    1.07
   0   5   4   46.49    1.08
   0   5   4   45.36    1.15
  -1  -5  -4    1.71    0.19
  -1  -5  -4    1.85    0.15
  -1  -5  -4    1.53    0.15
  -1  -5  -4    1.81    0.15
   1   5   4    1.49    0.17
   1   5   4    2.19    0.16
   1   5   4    1.61    0.17
  -2  -5  -4    7.18    0.25
  -2  -5  -4    7.43    0.33
  -2  -5  -4    7.40    0.26
  -2  -5  -4    7.95    0.32
  -2  -5  -4    7.59    0.24
   2   5   4    7.62    0.28
  -3  -5  -4   29.17    0.91
  -3  -5  -4   29.02    0.79
   3   5   4   30.37    0.74
  -4  -5  -4   39.00    1.01
   4   5   4   38.44    0.94
  -5  -5  -4    0.59    0.18
   5   5   4    0.48    0.13
   5  -6  -4   -0.09    0.13
   4  -6  -4   -0.10    0.12
   3  -6  -4    0.17    0.11
   3  -6  -4   -0.01    0.10
  -3   6   4    0.04    0.10
  -3   6   4    0.16    0.10
   2  -6  -4    2.62    0.19
   2  -6  -4    2.78    0.20
  -2   6   4    2.70    0.18
  -2   6   4    2.62    0.17
  -2   6   4    2.64    0.21
   1  -6  -4   21.51    0.73
   1  -6  -4   21.80    0.52
   1  -6  -4   21.12    0.55
  -1   6   4   21.13    0.63
  -1   6   4   21.67    0.59
  -1   6   4   22.20    0.70
  -1   6   4   20.50    0.52
  -1   6   4   22.13    0.53
   0  -6  -4    9.60    0.31
   0  -6  -4    9.88    0.30
   0  -6  -4    9.45    0.41
   0   6   4    9.30    0.27
   0   6   4    9.53    0.35
   0   6   4    9.91    0.35
   0   6   4    9.67    0.34
  -1  -6  -4   19.05    0.50
  -1  -6  -4   19.51    0.66
  -1  -6  -4   18.96    0.46
   1   6   4   19.14    0.54
   1   6   4   19.42    0.55
   1   6   4   19.30    0.54
   1   6   4   19.10    0.43
  -2  -6  -4   25.67    0.72
   2   6   4   26.13    0.68
   2   6   4   25.25    0.67
  -3  -6  -4    0.12    0.15
   3   6   4   -0.02    0.13
  -4  -6  -4    0.49    0.18
   4   6   4    0.69    0.15
   5  -7  -4   12.07    0.41
   4  -7  -4    3.73    0.26
   3  -7  -4    2.60    0.23
   2  -7  -4    2.35    0.21
   2  -7  -4    2.29    0.22
   1  -7  -4   15.93    0.46
   1  -7  -4   15.97    0.43
  -1   7   4   15.39    0.42
  -1   7   4   16.25    0.50
   0  -7  -4    2.25    0.21
   0  -7  -4    2.04    0.20
   0   7   4    2.22    0.23
   0   7   4    2.16    0.16
  -1  -7  -4    5.47    0.26
   1   7   4    5.05    0.29
   1   7   4    5.17    0.21
  -2  -7  -4   12.20    0.46
   2   7   4   11.88    0.42
  -3  -7  -4   17.66    0.59
   3   7   4   17.45    0.53
   4  -8  -4    1.18    0.18
   3  -8  -4   -0.04    0.14
   2  -8  -4   10.43    0.37
   1  -8  -4   11.27    0.38
   0  -8  -4    2.05    0.18
   1   8   4   15.74    0.40
   1   8   4   15.58    0.52
   2   8   4    0.28    0.17
   1  -9  -4    0.31    0.15
   2   9  -5    0.00    0.14
  -2  -9   5   -0.13    0.15
   1   9  -5   14.50    0.44
  -1  -9   5   14.61    0.45
  -1  -9   5   13.46    0.50
   0   9  -5    0.26    0.15
   0  -9   5    0.15    0.15
   0  -9   5    0.21    0.15
   1  -9   5    5.02    0.29
   1  -9   5    5.19    0.30
   2  -9   5    2.71    0.24
   2  -9   5    2.80    0.24
   3  -9   5    0.92    0.17
   4  -9   5    8.32    0.34
   3   8  -5    1.85    0.17
  -3  -8   5    2.33    0.25
   2   8  -5    0.75    0.14
  -2  -8   5    0.72    0.17
  -2  -8   5    0.87    0.16
   1   8  -5    0.04    0.12
  -1  -8   5   -0.15    0.13
  -1  -8   5    0.04    0.14
   0   8  -5    1.56    0.16
   0  -8   5    1.70    0.22
   0  -8   5    1.39    0.16
   1  -8   5   -0.30    0.11
   1  -8   5   -0.04    0.12
  -2   8  -5    2.89    0.23
   2  -8   5    3.00    0.24
   2  -8   5    2.89    0.23
  -3   8  -5    5.62    0.29
   3  -8   5    5.64    0.27
   4  -8   5    0.91    0.15
   5  -8   5    3.40    0.25
   4   7  -5    7.98    0.31
  -4  -7   5    8.82    0.35
   3   7  -5    3.26    0.21
  -3  -7   5    2.61    0.27
  -3  -7   5    3.41    0.23
   2   7  -5   18.51    0.48
  -2  -7   5   19.08    0.59
  -2  -7   5   20.10    0.51
   1   7  -5    3.10    0.20
   1   7  -5    3.09    0.20
   1   7  -5    3.27    0.21
  -1  -7   5    3.13    0.21
  -1  -7   5    2.98    0.23
   0   7  -5    9.96    0.33
   0   7  -5    9.75    0.33
   0   7  -5   10.38    0.35
   0  -7   5   10.20    0.37
   0  -7   5   10.14    0.33
   0  -7   5   10.42    0.36
   0  -7   5    9.81    0.45
  -1   7  -5   18.08    0.49
  -1   7  -5   17.07    0.47
   1  -7   5   17.79    0.53
   1  -7   5   17.63    0.48
   1  -7   5   17.39    0.63
   1  -7   5   17.85    0.50
   1  -7   5   17.62    0.45
  -2   7  -5   19.80    0.55
  -2   7  -5   21.79    0.76
   2  -7   5   21.19    0.52
   2  -7   5   20.95    0.60
   2  -7   5   21.55    0.55
  -3   7  -5   31.79    0.78
   3  -7   5   33.45    0.73
  -4   7  -5   30.72    0.77
   4  -7   5   32.16    0.71
   5  -7   5    0.14    0.13
   5   6  -5   24.07    0.58
  -5  -6   5   23.79    0.63
   4   6  -5    4.46    0.23
  -4  -6   5    4.19    0.25
  -4  -6   5    3.79    0.29
   3   6  -5    4.94    0.23
   3   6  -5    5.04    0.22
  -3  -6   5    4.56    0.28
  -3  -6   5    5.27    0.25
  -3  -6   5    4.89    0.32
   2   6  -5    0.06    0.09
   2   6  -5   -0.01    0.09
   2   6  -5   -0.03    0.09
  -2  -6   5   -0.07    0.10
  -2  -6   5    0.02    0.13
  -2  -6   5    0.00    0.11
   1   6  -5   31.18    0.71
   1   6  -5   30.04    0.66
   1   6  -5   29.26    0.70
  -1  -6   5   29.96    0.78
  -1  -6   5   30.19    0.80
  -1  -6   5   30.58    0.72
  -1  -6   5   30.20    0.67
  -1  -6   5   30.55    0.97
  -1  -6   5   30.22    0.96
   0   6  -5    3.94    0.20
   0   6  -5    4.12    0.20
   0   6  -5    4.40    0.22
   0   6  -5    4.07    0.23
   0  -6   5    4.19    0.21
   0  -6   5    3.90    0.23
   0  -6   5    4.27    0.27
   0  -6   5    4.31    0.28
   0  -6   5    4.53    0.22
   0  -6   5    4.18    0.21
   0  -6   5    4.20    0.22
  -1   6  -5   20.70    0.52
  -1   6  -5   21.58    0.53
  -1   6  -5   21.49    0.72
  -1   6  -5   20.95    0.57
   1  -6   5   21.06    0.52
   1  -6   5   21.14    0.70
   1  -6   5   20.47    0.58
   1  -6   5   20.48    0.57
   1  -6   5   19.71    0.68
   1  -6   5   21.81    0.50
   1  -6   5   21.01    0.55
  -2   6  -5   28.44    0.92
  -2   6  -5   27.38    0.67
  -2   6  -5   28.71    0.68
   2  -6   5   27.72    0.73
   2  -6   5   28.58    0.73
   2  -6   5   27.70    0.88
   2  -6   5   28.40    0.62
   2  -6   5   28.58    0.67
  -3   6  -5    7.80    0.39
  -3   6  -5    7.11    0.27
   3  -6   5    7.72    0.27
   3  -6   5    7.85    0.32
   3  -6   5    7.61    0.27
   3  -6   5    8.06    0.35
  -4   6  -5    0.43    0.12
  -4   6  -5    0.47    0.16
   4  -6   5    0.50    0.08
   4  -6   5    0.38    0.11
   4  -6   5    0.69    0.14
  -5   6  -5   20.09    0.75
   5  -6   5   21.25    0.62
   5  -6   5   20.97    0.50
   6  -6   5   10.24    0.32
   5   5  -5   10.67    0.34
  -5  -5   5   11.13    0.38
  -5  -5   5   10.42    0.44
   4   5  -5   11.83    0.34
   4   5  -5   11.93    0.34
  -4  -5   5   11.59    0.49
  -4  -5   5   11.58    0.43
  -4  -5   5   12.35    0.37
   3   5  -5    7.55    0.26
   3   5  -5    8.19    0.27
   3   5  -5    8.01    0.28
  -3  -5   5    7.73    0.28
  -3  -5   5    7.57    0.32
  -3  -5   5    7.66    0.37
   2   5  -5    6.97    0.22
   2   5  -5    7.15    0.24
   2   5  -5    7.14    0.26
   2   5  -5    7.13    0.24
   2   5  -5    7.00    0.28
  -2  -5   5    6.96    0.36
  -2  -5   5    7.20    0.25
  -2  -5   5    7.28    0.28
  -2  -5   5    7.12    0.29
  -2  -5   5    7.24    0.26
  -2  -5   5    7.17    0.33
   1   5  -5   18.05    0.49
   1   5  -5   17.83    0.45
   1   5  -5   18.55    0.46
   1   5  -5   18.30    0.43
  -1  -5   5   17.93    0.43
  -1  -5   5   17.61    0.61
  -1  -5   5   18.52    0.52
  -1  -5   5   17.82    0.46
  -1  -5   5   18.12    0.62
  -1  -5   5   18.28    0.49
  -1  -5   5   18.88    0.50
   0   5  -5   43.82    0.94
   0   5  -5   44.07    1.02
   0   5  -5   43.57    0.88
   0   5  -5   41.85    0.94
   0  -5   5   43.68    0.94
   0  -5   5   43.66    1.28
   0  -5   5   43.00    1.06
   0  -5   5   42.99    1.28
   0  -5   5   43.84    0.87
   0  -5   5   42.98    1.01
   0  -5   5   40.77    1.01
  -1   5  -5  159.91    3.21
  -1   5  -5  155.92    3.21
  -1   5  -5  160.65    4.40
  -1   5  -5  159.43    3.48
   1  -5   5  151.20    3.63
   1  -5   5  159.85    3.48
   1  -5   5  157.57    3.20
   1  -5   5  155.82    2.95
   1  -5   5  158.24    4.38
   1  -5   5  157.75    3.45
   1  -5   5  157.72    4.38
  -2   5  -5   54.03    1.55
  -2   5  -5   52.28    1.13
  -2   5  -5   52.62    1.13
   2  -5   5   53.41    1.12
   2  -5   5   52.29    1.04
   2  -5   5   51.25    1.26
   2  -5   5   53.44    1.52
   2  -5   5   52.58    1.23
   2  -5   5   51.54    1.51
  -3   5  -5  137.11    3.96
  -3   5  -5  138.17    2.89
   3  -5   5  142.39    3.14
   3  -5   5  140.87    2.65
   3  -5   5  146.79    3.92
   3  -5   5  143.56    2.87
   3  -5   5  143.15    3.14
   3  -5   5  137.48    3.25
  -4   5  -5    0.89    0.12
  -4   5  -5    1.04    0.16
   4  -5   5    0.92    0.13
   4  -5   5    0.78    0.12
   4  -5   5    1.02    0.11
  -5   5  -5    3.94    0.31
   5  -5   5    4.08    0.27
   5  -5   5    4.51    0.21
  -6   5  -5    0.26    0.17
   6  -5   5    0.18    0.10
   6  -5   5    0.23    0.15
   6   4  -5   26.40    0.61
   5   4  -5    4.74    0.22
  -5  -4   5    4.33    0.24
  -5  -4   5    4.22    0.28
  -5  -4   5    4.22    0.31
   4   4  -5   13.84    0.37
   4   4  -5   13.24    0.37
  -4  -4   5   13.60    0.53
  -4  -4   5   13.80    0.39
  -4  -4   5   13.19    0.46
   3   4  -5    2.27    0.15
   3   4  -5    2.70    0.19
   3   4  -5    2.23    0.16
  -3  -4   5    2.72    0.18
  -3  -4   5    2.53    0.18
  -3  -4   5    2.56    0.20
  -3  -4   5    2.28    0.21
   2   4  -5  109.82    2.06
   2   4  -5  108.18    2.22
   2   4  -5  107.40    2.56
   2   4  -5  107.26    2.41
   2   4  -5  108.26    2.52
  -2  -4   5  107.93    2.54
  -2  -4   5  107.62    2.06
  -2  -4   5  109.09    2.23
  -2  -4   5  105.92    3.04
  -2  -4   5  109.48    2.41
  -2  -4   5  107.47    2.42
   1   4  -5   63.71    1.50
   1   4  -5   63.11    1.22
   1   4  -5   62.17    1.43
   1   4  -5   62.87    1.32
  -1  -4   5   63.65    1.32
  -1  -4   5   62.95    1.43
  -1  -4   5   62.78    1.43
  -1  -4   5   62.06    1.22
  -1  -4   5   62.48    1.80
  -1  -4   5   63.71    1.50
  -1  -4   5   60.94    1.80
   0   4  -5   51.07    1.22
   0   4  -5   49.41    0.99
   0   4  -5   50.59    1.16
   0   4  -5   50.37    1.47
   0   4  -5   50.34    1.07
   0  -4   5   50.89    1.15
   0  -4   5   50.90    0.99
   0  -4   5   50.18    1.22
   0  -4   5   50.14    1.46
   0  -4   5   50.68    1.16
   0  -4   5   51.67    1.08
  -1   4  -5   81.88    1.82
  -1   4  -5   81.27    1.68
  -1   4  -5   81.05    1.68
  -1   4  -5   83.11    2.31
   1  -4   5   80.60    2.29
   1  -4   5   81.10    1.80
   1  -4   5   81.88    1.68
   1  -4   5   81.46    1.55
   1  -4   5   79.44    2.28
   1  -4   5   82.24    1.83
   1  -4   5   81.08    1.90
  -2   4  -5   25.09    0.56
  -2   4  -5   24.52    0.76
  -2   4  -5   24.36    0.56
   2  -4   5   25.28    0.73
   2  -4   5   25.12    0.55
   2  -4   5   23.83    0.51
   2  -4   5   23.26    0.72
   2  -4   5   24.41    0.61
   2  -4   5   23.81    0.60
  -3   4  -5   11.57    0.32
  -3   4  -5   11.18    0.42
  -3   4  -5   11.38    0.32
   3  -4   5   11.56    0.29
   3  -4   5   11.04    0.28
   3  -4   5   12.06    0.29
   3  -4   5   11.18    0.34
   3  -4   5   11.61    0.34
  -4   4  -5   14.74    0.40
  -4   4  -5   13.76    0.52
   4  -4   5   15.21    0.43
   4  -4   5   14.36    0.42
   4  -4   5   14.74    0.35
  -5   4  -5   38.73    1.22
   5  -4   5   40.78    0.80
   5  -4   5   39.41    0.98
   5  -4   5   41.02    0.98
  -6   4  -5    2.23    0.26
   6  -4   5    2.09    0.23
   6   3  -5    7.22    0.27
  -6  -3   5    6.91    0.31
  -6  -3   5    6.50    0.37
   5   3  -5   17.37    0.43
   5   3  -5   17.35    0.43
  -5  -3   5   16.99    0.54
  -5  -3   5   15.92    0.62
  -5  -3   5   17.16    0.45
   4   3  -5    0.27    0.10
   4   3  -5    0.26    0.09
   4   3  -5    0.23    0.09
   4   3  -5    0.24    0.10
  -4  -3   5    0.26    0.10
  -4  -3   5    0.26    0.10
  -4  -3   5    0.25    0.14
  -4  -3   5   -0.05    0.13
   3   3  -5    2.98    0.15
   3   3  -5    3.30    0.17
   3   3  -5    3.05    0.14
   3   3  -5    3.20    0.16
   3   3  -5    3.17    0.18
  -3  -3   5    3.17    0.22
  -3  -3   5    3.18    0.18
  -3  -3   5    3.32    0.18
  -3  -3   5    3.08    0.19
  -3  -3   5    3.12    0.17
   2   3  -5   21.40    0.55
   2   3  -5   21.40    0.47
   2   3  -5   20.97    0.54
   2   3  -5   20.91    0.54
   2   3  -5   20.74    0.49
  -2  -3   5   20.24    0.46
  -2  -3   5   20.46    0.67
  -2  -3   5   20.95    0.55
  -2  -3   5   21.10    0.53
  -2  -3   5   21.11    0.50
  -2  -3   5   20.83    0.56
   1   3  -5   35.39    0.87
   1   3  -5   33.78    0.82
   1   3  -5   34.26    1.03
   1   3  -5   35.32    0.70
   1   3  -5   35.29    0.86
   1   3  -5   35.12    0.82
   1   3  -5   35.46    0.76
  -1  -3   5   35.19    0.70
  -1  -3   5   34.80    1.04
  -1  -3   5   34.60    1.03
  -1  -3   5   35.44    0.76
  -1  -3   5   34.79    0.82
  -1  -3   5   35.06    0.86
   0   3  -5  560.90   11.96
   0   3  -5  556.43   15.19
   0   3  -5  549.59   11.95
   0   3  -5  538.02   10.19
   0   3  -5  563.80   11.07
   0   3  -5  549.95   15.18
   0   3  -5  554.56   12.59
   0  -3   5  537.33   15.13
   0  -3   5  545.31   11.99
   0  -3   5  543.27   12.54
   0  -3   5  554.35   11.96
   0  -3   5  560.67   11.05
   0  -3   5  554.03   15.16
   0  -3   5  535.38   10.19
  -1   3  -5   13.67    0.37
  -1   3  -5   13.77    0.45
  -1   3  -5   13.91    0.35
  -1   3  -5   15.04    0.34
   1  -3   5   13.06    0.36
   1  -3   5   13.44    0.31
   1  -3   5   13.18    0.43
   1  -3   5   13.31    0.43
   1  -3   5   13.58    0.33
   1  -3   5   13.75    0.32
   1  -3   5   13.41    0.36
  -2   3  -5  374.15    7.32
  -2   3  -5  371.45    7.31
  -2   3  -5  371.82    8.34
  -2   3  -5  351.50   10.05
   2  -3   5  370.67    7.95
   2  -3   5  372.38    7.30
   2  -3   5  362.33    7.94
   2  -3   5  356.28    6.72
  -3   3  -5   10.26    0.37
  -3   3  -5   11.32    0.29
  -3   3  -5   11.31    0.29
   3  -3   5   10.78    0.25
   3  -3   5   10.57    0.31
   3  -3   5   10.87    0.31
  -4   3  -5    3.40    0.22
  -4   3  -5    3.70    0.18
  -4   3  -5    4.11    0.18
   4  -3   5    3.94    0.14
   4  -3   5    3.76    0.14
   4  -3   5    3.78    0.20
   4  -3   5    3.71    0.20
  -5   3  -5    9.85    0.40
   5  -3   5   10.66    0.34
   5  -3   5    9.93    0.34
  -6   3  -5    3.30    0.26
   6  -3   5    3.41    0.23
   6  -3   5    3.64    0.24
   6   2  -5    3.55    0.22
  -6  -2   5    3.18    0.27
  -6  -2   5    3.02    0.24
   5   2  -5   21.71    0.51
   5   2  -5   20.81    0.52
   5   2  -5   22.02    0.56
  -5  -2   5   20.67    0.74
  -5  -2   5   22.16    0.53
  -5  -2   5   21.98    0.63
   4   2  -5   12.07    0.32
   4   2  -5   12.11    0.36
   4   2  -5   12.01    0.37
   4   2  -5   12.36    0.33
  -4  -2   5   13.00    0.34
  -4  -2   5   11.97    0.40
  -4  -2   5   12.06    0.36
  -4  -2   5   11.74    0.39
  -4  -2   5   11.88    0.46
   3   2  -5  115.51    3.38
   3   2  -5  121.12    2.48
   3   2  -5  120.03    2.81
   3   2  -5  124.29    2.88
   3   2  -5  123.44    2.70
   3   2  -5  121.69    2.29
  -3  -2   5  123.31    2.89
  -3  -2   5  123.06    2.83
  -3  -2   5  118.53    3.40
  -3  -2   5  119.57    2.71
  -3  -2   5  125.51    2.69
  -3  -2   5  120.91    2.49
  -3  -2   5  120.97    2.30
   2   2  -5  225.98    4.52
   2   2  -5  229.94    5.28
   2   2  -5  224.67    4.91
   2   2  -5  223.58    4.91
   2   2  -5  219.64    6.19
   2   2  -5  222.68    4.16
  -2  -2   5  221.77    6.20
  -2  -2   5  224.44    4.91
  -2  -2   5  231.14    5.15
  -2  -2   5  229.09    4.53
  -2  -2   5  227.16    5.29
  -2  -2   5  218.47    4.16
  -2  -2   5  224.75    4.91
   1   2  -5   35.49    1.04
   1   2  -5   35.39    0.89
   1   2  -5   36.29    0.83
   1   2  -5   35.71    0.87
   1   2  -5   35.95    0.71
   1   2  -5   35.22    0.82
   1   2  -5   35.85    0.77
  -1  -2   5   35.70    0.77
  -1  -2   5   35.67    0.83
  -1  -2   5   36.69    0.83
  -1  -2   5   36.27    0.87
  -1  -2   5   35.67    1.04
  -1  -2   5   34.78    0.71
   0   2  -5  161.37    3.65
   0   2  -5  163.37    4.40
   0   2  -5  158.16    2.95
   0   2  -5  158.56    3.46
   0   2  -5  161.21    3.21
   0   2  -5  155.91    3.47
   0  -2   5  159.63    3.46
   0  -2   5  164.49    4.39
   0  -2   5  160.22    3.48
   0  -2   5  159.36    3.64
   0  -2   5  152.66    4.39
   0  -2   5  159.64    3.20
   0  -2   5  158.43    2.95
  -1   2  -5   25.31    0.75
  -1   2  -5   26.28    0.63
  -1   2  -5   27.17    0.76
  -1   2  -5   26.43    0.56
   1  -2   5   25.57    0.51
   1  -2   5   25.71    0.60
   1  -2   5   23.97    0.72
   1  -2   5   26.64    0.55
   1  -2   5   25.09    0.60
  -2   2  -5  117.78    3.02
  -2   2  -5  108.97    2.50
  -2   2  -5  103.32    3.01
  -2   2  -5  107.69    2.20
   2  -2   5  106.68    2.39
   2  -2   5  108.49    2.02
   2  -2   5  111.92    2.39
  -3   2  -5    4.58    0.15
  -3   2  -5    4.61    0.16
  -3   2  -5    4.81    0.16
  -3   2  -5    4.34    0.19
   3  -2   5    4.73    0.17
   3  -2   5    4.31    0.17
  -4   2  -5   73.76    1.51
  -4   2  -5   75.25    1.51
  -4   2  -5   68.85    2.05
   4  -2   5   71.52    1.63
   4  -2   5   75.98    1.64
  -5   2  -5   20.17    0.66
   5  -2   5   20.63    0.54
   5  -2   5   21.86    0.54
  -6   2  -5    0.60    0.14
   6  -2   5    0.53    0.11
   6  -2   5    0.55    0.12
   6   1  -5   10.43    0.32
  -6  -1   5   10.91    0.42
   5   1  -5    7.69    0.27
   5   1  -5    7.32    0.25
   5   1  -5    7.73    0.27
  -5  -1   5    8.08    0.29
  -5  -1   5    7.41    0.38
  -5  -1   5    7.05    0.34
  -5  -1   5    7.91    0.31
   4   1  -5    0.13    0.08
   4   1  -5    0.21    0.08
   4   1  -5    0.23    0.08
   4   1  -5    0.13    0.08
   4   1  -5    0.07    0.08
  -4  -1   5    0.20    0.10
  -4  -1   5    0.10    0.09
  -4  -1   5    0.15    0.12
  -4  -1   5    0.20    0.08
  -4  -1   5    0.11    0.09
  -4  -1   5    0.13    0.09
   3   1  -5   12.74    0.45
   3   1  -5   13.29    0.33
   3   1  -5   12.76    0.34
   3   1  -5   13.06    0.37
   3   1  -5   13.51    0.39
   3   1  -5   13.08    0.38
  -3  -1   5   13.16    0.37
  -3  -1   5   12.94    0.33
  -3  -1   5   13.41    0.39
  -3  -1   5   13.42    0.39
  -3  -1   5   13.17    0.47
  -3  -1   5   12.82    0.35
  -3  -1   5   13.43    0.39
   2   1  -5    6.57    0.24
   2   1  -5    7.20    0.22
   2   1  -5    6.54    0.22
   2   1  -5    6.46    0.19
   2   1  -5    6.59    0.27
   2   1  -5    6.94    0.23
   2   1  -5    6.97    0.20
  -2  -1   5    6.69    0.20
  -2  -1   5    6.86    0.23
  -2  -1   5    6.75    0.27
  -2  -1   5    6.75    0.23
  -2  -1   5    5.47    0.21
  -2  -1   5    6.70    0.20
  -2  -1   5    6.49    0.23
   1   1  -5  664.05   15.14
   1   1  -5  681.09   18.26
   1   1  -5  646.64   12.25
   1   1  -5  636.95   14.38
   1   1  -5  660.25   13.30
   1   1  -5  636.44   15.60
   1   1  -5  671.77   14.39
  -1  -1   5  661.19   12.23
  -1  -1   5  656.29   15.10
  -1  -1   5  670.72   14.41
  -1  -1   5  657.69   14.42
  -1  -1   5  679.39   18.23
  -1  -1   5  676.38   13.28
  -1  -1   5  663.55   15.61
   0   1  -5   48.83    1.14
   0   1  -5   49.37    1.00
   0   1  -5   50.62    1.37
   0   1  -5   48.64    1.19
   0   1  -5   50.52    1.08
   0   1  -5   46.43    0.93
   0  -1   5   50.64    1.36
   0  -1   5   46.20    1.36
   0  -1   5   48.19    0.92
   0  -1   5   49.21    1.00
   0  -1   5   48.77    1.08
   0  -1   5   48.12    1.13
   0  -1   5   48.35    1.09
   0  -1   5   48.75    0.92
  -1   1  -5  457.26   13.41
  -1   1  -5  479.55   11.11
  -1   1  -5  523.67   13.42
  -1   1  -5  506.83    9.78
  -1   1  -5  493.23    8.98
   1  -1   5  476.78   10.63
   1  -1   5  489.95    8.98
  -3   1  -5    2.64    0.10
  -4   1  -5   48.79    1.10
  -4   1  -5   48.55    1.02
  -4   1  -5   50.83    1.02
   4  -1   5   51.15    1.11
   4  -1   5   46.23    1.10
  -5   1  -5   27.48    0.86
  -5   1  -5   28.74    0.72
   5  -1   5   31.06    0.70
   5  -1   5   28.83    0.69
  -6   1  -5   11.29    0.44
   6  -1   5   13.33    0.38
   6  -1   5   12.24    0.37
   7   0  -5    3.47    0.24
   6   0  -5   19.05    0.48
  -6   0   5   19.60    0.61
   5   0  -5   19.40    0.49
   5   0  -5   20.17    0.55
   5   0  -5   20.48    0.48
  -5   0   5   19.06    0.58
  -5   0   5   19.35    0.69
  -5   0   5   20.43    0.59
   4   0  -5   51.34    1.25
   4   0  -5   51.40    1.21
   4   0  -5   50.96    1.30
   4   0  -5   51.10    1.03
   4   0  -5   50.17    1.10
  -4   0   5   51.73    1.23
  -4   0   5   51.79    1.52
  -4   0   5   52.78    1.30
  -4   0   5   50.95    1.27
  -4   0   5   51.15    1.12
   3   0  -5  226.18    4.61
   3   0  -5  231.43    6.32
   3   0  -5  229.80    5.01
   3   0  -5  224.86    5.41
   3   0  -5  226.46    4.25
  -3   0   5  230.24    6.33
  -3   0   5  234.47    5.01
  -3   0   5  229.08    4.25
  -3   0   5  227.22    4.62
  -3   0   5  231.57    5.26
  -3   0   5  228.74    5.01
  -3   0   5  228.83    5.41
   2   0  -5    0.11    0.06
   2   0  -5    0.17    0.06
   2   0  -5    0.24    0.07
   2   0  -5    0.17    0.07
   2   0  -5    0.29    0.07
   2   0  -5    0.23    0.07
   2   0  -5    0.19    0.08
  -2   0   5    0.23    0.07
  -2   0   5    0.18    0.08
  -2   0   5    0.27    0.07
  -2   0   5    0.20    0.06
  -2   0   5    0.28    0.08
  -2   0   5    0.20    0.06
  -2   0   5    0.30    0.06
   1   0  -5  126.49    2.93
   1   0  -5  129.08    2.80
   1   0  -5  125.66    3.03
   1   0  -5  130.28    3.53
   1   0  -5  123.09    2.37
   1   0  -5  129.33    2.58
   1   0  -5  124.61    2.79
  -1   0   5  129.04    2.37
  -1   0   5  128.63    3.03
  -1   0   5  128.18    2.57
  -1   0   5  129.60    2.80
  -1   0   5  129.66    2.80
  -1   0   5  124.01    2.37
  -1   0   5  129.24    3.53
   0   0  -5    1.93    0.09
   0   0  -5    1.89    0.11
   0   0  -5    1.95    0.12
   0   0  -5    1.89    0.10
   0   0  -5    1.87    0.09
   0   0  -5    1.81    0.09
   0   0   5    1.93    0.12
   0   0   5    1.72    0.09
   0   0   5    1.91    0.09
   0   0   5    2.00    0.08
  -1   0  -5  194.82    4.49
  -1   0  -5  188.93    3.49
  -1   0  -5  187.03    3.49
  -2   0  -5  178.13    3.86
  -3   0  -5   48.79    1.09
  -4   0  -5   61.07    1.37
  -5   0  -5    3.90    0.19
   5   0   5    2.90    0.16
   5   0   5    3.33    0.17
   6   0   5    6.69    0.26
   6   0   5    7.08    0.26
   7  -1  -5    2.35    0.22
  -7   1   5    2.26    0.29
   6  -1  -5    9.56    0.32
  -6   1   5    9.68    0.40
  -6   1   5    8.95    0.35
   5  -1  -5    3.14    0.18
   5  -1  -5    3.40    0.20
  -5   1   5    3.32    0.28
  -5   1   5    3.21    0.25
  -5   1   5    3.44    0.21
   4  -1  -5    6.82    0.24
   4  -1  -5    7.01    0.24
   4  -1  -5    6.62    0.29
   4  -1  -5    6.79    0.32
   4  -1  -5    6.80    0.26
   4  -1  -5    6.62    0.27
  -4   1   5    7.03    0.33
  -4   1   5    6.92    0.26
  -4   1   5    7.07    0.30
  -4   1   5    6.96    0.26
  -4   1   5    6.62    0.29
   3  -1  -5    0.18    0.08
   3  -1  -5    0.30    0.08
   3  -1  -5    0.16    0.07
   3  -1  -5    0.20    0.09
   3  -1  -5    0.16    0.07
   3  -1  -5    0.16    0.10
  -3   1   5    0.17    0.07
  -3   1   5    0.10    0.08
  -3   1   5    0.11    0.07
  -3   1   5    0.18    0.10
  -3   1   5   -0.16    0.09
  -3   1   5    0.26    0.09
  -3   1   5    0.09    0.08
   2  -1  -5  209.33    5.11
   2  -1  -5  219.48    4.01
   2  -1  -5  215.49    4.35
   2  -1  -5  212.38    4.72
   2  -1  -5  213.34    4.72
   2  -1  -5  217.09    5.97
   2  -1  -5  217.21    4.96
  -2   1   5  215.63    4.73
  -2   1   5  221.58    4.36
  -2   1   5  219.64    5.12
  -2   1   5  218.46    4.35
  -2   1   5  215.03    4.73
  -2   1   5  219.93    4.73
   1  -1  -5  145.96    3.17
   1  -1  -5  144.41    4.00
   1  -1  -5  139.54    2.68
   1  -1  -5  141.82    3.43
   1  -1  -5  147.23    2.92
   1  -1  -5  142.44    3.32
  -1   1   5  146.13    3.16
  -1   1   5  143.22    2.68
  -1   1   5  145.18    2.91
  -1   1   5  150.93    3.99
  -1   1   5  148.03    2.91
  -1   1   5  141.42    3.43
  -1   1   5  143.17    3.16
   0  -1  -5  164.68    4.35
   0  -1  -5  158.01    3.75
   0  -1  -5  160.60    3.18
   0  -1  -5  154.90    2.92
   0  -1  -5  160.82    3.17
   0   1   5  156.70    3.75
   0   1   5  155.67    3.45
   0   1   5  158.37    2.91
   0   1   5  166.59    3.16
   0   1   5  147.72    3.16
  -1  -1  -5   29.84    0.76
  -1  -1  -5   29.23    0.56
  -2  -1  -5    2.52    0.14
  -2  -1  -5    2.65    0.13
  -3  -1  -5   90.82    2.01
  -4  -1  -5   99.67    2.22
  -5  -1  -5    4.83    0.23
   7  -2  -5    7.69    0.31
   6  -2  -5   16.39    0.44
  -6   2   5   15.12    0.48
   5  -2  -5    7.91    0.28
   5  -2  -5    8.13    0.28
  -5   2   5    8.01    0.40
  -5   2   5    7.84    0.30
   4  -2  -5   95.91    1.86
   4  -2  -5   97.80    2.29
   4  -2  -5   95.29    2.74
   4  -2  -5   97.69    2.19
   4  -2  -5   94.15    2.01
  -4   2   5   98.44    2.76
  -4   2   5   94.33    2.02
  -4   2   5   98.70    2.38
  -4   2   5   96.22    2.02
   3  -2  -5    7.53    0.27
   3  -2  -5    7.63    0.28
   3  -2  -5    7.46    0.24
   3  -2  -5    7.57    0.24
   3  -2  -5    7.76    0.29
   3  -2  -5    7.56    0.33
  -3   2   5    7.65    0.25
  -3   2   5    8.08    0.31
  -3   2   5    7.32    0.25
  -3   2   5    7.58    0.33
  -3   2   5    7.14    0.27
   2  -2  -5   28.15    0.71
   2  -2  -5   27.80    0.58
   2  -2  -5   28.07    0.63
   2  -2  -5   26.92    0.74
   2  -2  -5   27.86    0.85
  -2   2   5   28.30    0.68
  -2   2   5   27.82    0.74
  -2   2   5   27.70    0.62
  -2   2   5   27.61    0.68
  -2   2   5   28.27    0.84
  -2   2   5   27.78    0.62
   1  -2  -5    3.42    0.14
   1  -2  -5    3.72    0.18
   1  -2  -5    3.52    0.14
   1  -2  -5    3.43    0.19
   1  -2  -5    3.55    0.15
  -1   2   5    3.66    0.14
  -1   2   5    3.56    0.15
  -1   2   5    3.46    0.14
  -1   2   5    3.72    0.19
  -1   2   5    3.49    0.14
  -1   2   5    3.78    0.18
  -1   2   5    3.44    0.16
   0  -2  -5   58.46    1.20
   0  -2  -5   59.63    1.64
   0  -2  -5   57.34    1.43
   0  -2  -5   57.16    1.11
   0  -2  -5   58.48    1.20
   0   2   5   58.00    1.10
   0   2   5   59.02    1.30
   0   2   5   57.71    1.43
   0   2   5   59.01    1.18
   0   2   5   58.66    1.18
   0   2   5   57.70    1.30
  -1  -2  -5  372.33    6.90
  -1  -2  -5  387.71    7.51
  -1  -2  -5  372.12    7.50
  -1  -2  -5  373.65    8.87
   1   2   5  390.01    8.16
   1   2   5  366.44    8.16
  -2  -2  -5    0.14    0.06
  -3  -2  -5   68.97    1.70
  -3  -2  -5   70.89    1.59
  -4  -2  -5    6.84    0.25
  -4  -2  -5    6.64    0.27
  -5  -2  -5   11.24    0.38
   6  -3  -5    3.59    0.23
   5  -3  -5    2.74    0.21
   5  -3  -5    2.61    0.19
  -5   3   5    2.57    0.20
   4  -3  -5   -0.01    0.04
   4  -3  -5    0.04    0.09
   4  -3  -5    0.13    0.12
   4  -3  -5    0.08    0.10
  -4   3   5    0.19    0.10
  -4   3   5    0.08    0.13
  -4   3   5    0.15    0.10
   3  -3  -5   29.83    0.78
   3  -3  -5   29.25    0.82
   3  -3  -5   30.32    0.65
   3  -3  -5   30.33    0.93
   3  -3  -5   29.23    0.69
  -3   3   5   29.15    0.69
  -3   3   5   29.69    0.82
  -3   3   5   30.52    0.93
  -3   3   5   29.92    0.74
  -3   3   5   29.67    0.69
  -3   3   5   29.67    0.75
   2  -3  -5   53.34    1.17
   2  -3  -5   56.06    1.17
   2  -3  -5   54.14    1.38
   2  -3  -5   55.23    1.08
   2  -3  -5   55.25    1.59
  -2   3   5   54.93    1.16
  -2   3   5   55.74    1.58
  -2   3   5   53.08    1.16
  -2   3   5   54.58    1.26
  -2   3   5   54.58    1.38
  -2   3   5   55.09    1.26
   1  -3  -5    3.47    0.19
   1  -3  -5    3.01    0.14
   1  -3  -5    3.07    0.18
   1  -3  -5    3.17    0.15
   1  -3  -5    3.17    0.15
  -1   3   5    3.28    0.14
  -1   3   5    3.20    0.18
  -1   3   5    3.33    0.17
  -1   3   5    3.10    0.14
  -1   3   5    3.14    0.19
  -1   3   5    3.15    0.17
   0  -3  -5    1.16    0.11
   0  -3  -5    1.17    0.11
   0  -3  -5    1.63    0.14
   0  -3  -5    1.26    0.10
   0  -3  -5    1.50    0.14
   0   3   5    1.29    0.10
   0   3   5    1.28    0.08
   0   3   5    1.28    0.08
   0   3   5    1.25    0.12
   0   3   5    1.35    0.14
   0   3   5    1.35    0.13
  -1  -3  -5    3.56    0.17
  -1  -3  -5    3.80    0.14
  -1  -3  -5    3.70    0.13
  -1  -3  -5    3.55    0.13
  -1  -3  -5    3.62    0.17
   1   3   5    3.26    0.15
   1   3   5    3.84    0.18
   1   3   5    3.60    0.16
  -2  -3  -5   66.48    1.66
  -2  -3  -5   65.67    1.39
  -2  -3  -5   68.00    1.28
  -2  -3  -5   70.25    1.39
   2   3   5   71.17    1.51
  -3  -3  -5  138.94    2.61
  -3  -3  -5  142.49    3.14
  -3  -3  -5  142.79    2.84
  -4  -3  -5    0.31    0.12
  -5  -3  -5   36.18    0.88
  -5  -3  -5   35.14    0.91
   6  -4  -5   -0.06    0.12
   5  -4  -5   19.70    0.50
  -5   4   5   19.72    0.55
   4  -4  -5    7.17    0.27
   4  -4  -5    7.29    0.36
   4  -4  -5    7.35    0.27
  -4   4   5    7.20    0.28
  -4   4   5    7.35    0.28
   3  -4  -5    0.96    0.15
   3  -4  -5    1.11    0.13
   3  -4  -5    1.01    0.15
   3  -4  -5    0.99    0.12
   3  -4  -5    1.02    0.12
  -3   4   5    0.94    0.11
  -3   4   5    0.96    0.11
  -3   4   5    1.19    0.19
  -3   4   5    0.99    0.12
   2  -4  -5    8.27    0.29
   2  -4  -5    8.70    0.37
   2  -4  -5    8.62    0.33
   2  -4  -5    8.38    0.27
   2  -4  -5    8.21    0.27
   2  -4  -5    8.59    0.28
  -2   4   5    8.09    0.26
  -2   4   5    8.15    0.29
  -2   4   5    8.45    0.30
  -2   4   5    8.64    0.35
  -2   4   5    8.52    0.26
  -2   4   5    8.71    0.33
   1  -4  -5    1.74    0.14
   1  -4  -5    1.84    0.18
   1  -4  -5    1.85    0.17
   1  -4  -5    1.99    0.14
   1  -4  -5    1.69    0.14
  -1   4   5    1.83    0.13
  -1   4   5    2.37    0.17
  -1   4   5    2.03    0.17
  -1   4   5    1.92    0.16
  -1   4   5    1.86    0.12
  -1   4   5    2.08    0.17
   0  -4  -5  221.14    4.53
   0  -4  -5  232.37    6.22
   0  -4  -5  225.42    4.17
   0  -4  -5  222.38    5.32
   0  -4  -5  227.34    4.53
   0   4   5  227.13    4.92
   0   4   5  229.39    4.50
   0   4   5  222.88    4.91
   0   4   5  226.21    5.32
   0   4   5  223.34    4.15
   0   4   5  218.16    4.50
  -1  -4  -5   34.02    0.99
  -1  -4  -5   34.15    0.73
  -1  -4  -5   32.58    0.86
  -1  -4  -5   33.11    0.73
  -1  -4  -5   33.45    0.67
   1   4   5   33.57    0.79
   1   4   5   32.02    0.64
   1   4   5   33.28    0.86
   1   4   5   33.08    0.78
  -2  -4  -5   28.34    0.76
  -2  -4  -5   29.36    0.65
  -2  -4  -5   29.61    0.60
  -2  -4  -5   29.99    0.65
  -2  -4  -5   30.54    0.88
   2   4   5   29.67    0.71
  -3  -4  -5    4.62    0.26
   3   4   5    5.05    0.21
  -4  -4  -5    7.51    0.32
   4   4   5    6.85    0.26
  -5  -4  -5   15.66    0.51
   6  -5  -5    0.37    0.14
   5  -5  -5   -0.16    0.12
   4  -5  -5    1.60    0.18
   4  -5  -5    1.45    0.15
  -4   5   5    1.08    0.14
   3  -5  -5    5.87    0.25
   3  -5  -5    5.94    0.25
  -3   5   5    5.68    0.24
  -3   5   5    6.14    0.25
   2  -5  -5    2.43    0.17
   2  -5  -5    2.56    0.25
   2  -5  -5    2.61    0.22
   2  -5  -5    2.54    0.19
  -2   5   5    2.51    0.23
  -2   5   5    2.50    0.21
  -2   5   5    2.40    0.16
  -2   5   5    2.45    0.17
   1  -5  -5    4.81    0.25
   1  -5  -5    5.00    0.21
   1  -5  -5    4.73    0.28
   1  -5  -5    4.85    0.21
  -1   5   5    4.85    0.23
  -1   5   5    5.37    0.24
  -1   5   5    5.17    0.26
  -1   5   5    4.64    0.19
  -1   5   5    5.08    0.26
  -1   5   5    4.93    0.19
   0  -5  -5    4.27    0.20
   0  -5  -5    4.20    0.23
   0  -5  -5    4.06    0.19
   0  -5  -5    4.14    0.26
   0   5   5    3.97    0.15
   0   5   5    4.24    0.15
   0   5   5    4.25    0.22
   0   5   5    4.13    0.24
   0   5   5    4.37    0.22
  -1  -5  -5   23.71    0.66
  -1  -5  -5   24.24    0.77
  -1  -5  -5   23.85    0.53
  -1  -5  -5   23.94    0.57
   1   5   5   24.80    0.66
   1   5   5   24.27    0.62
   1   5   5   23.66    0.61
   1   5   5   24.59    0.50
  -2  -5  -5   93.52    2.63
  -2  -5  -5   93.10    1.77
   2   5   5   91.53    2.09
   2   5   5   94.60    2.09
  -3  -5  -5    8.83    0.36
  -3  -5  -5    9.28    0.38
   3   5   5    9.23    0.31
  -4  -5  -5   12.65    0.46
   4   5   5   12.21    0.39
   5  -6  -5    1.69    0.18
   4  -6  -5    0.39    0.13
   3  -6  -5    6.69    0.29
   3  -6  -5    6.87    0.28
   2  -6  -5    1.12    0.14
   2  -6  -5    1.04    0.13
  -2   6   5    1.06    0.12
   1  -6  -5   64.69    1.30
   1  -6  -5   64.86    1.41
  -1   6   5   63.98    1.38
  -1   6   5   66.91    1.53
   0  -6  -5   41.77    1.12
   0  -6  -5   42.85    0.97
   0  -6  -5   43.58    0.90
   0   6   5   42.92    1.05
   0   6   5   43.77    1.05
   0   6   5   42.57    0.92
   0   6   5   44.97    1.13
  -1  -6  -5    2.63    0.20
  -1  -6  -5    2.99    0.20
   1   6   5    2.29    0.22
   1   6   5    2.49    0.21
   1   6   5    2.35    0.16
  -2  -6  -5    0.67    0.16
   2   6   5    0.74    0.13
   2   6   5    0.79    0.14
  -3  -6  -5    1.25    0.19
   3   6   5    1.01    0.15
  -4  -6  -5   13.74    0.52
   4   6   5   14.48    0.45
   4  -7  -5    0.08    0.13
   3  -7  -5    1.18    0.16
   2  -7  -5    7.96    0.31
   2  -7  -5    7.35    0.31
   1  -7  -5    3.55    0.23
   1  -7  -5    3.37    0.23
   0  -7  -5    4.52    0.25
   0   7   5    4.39    0.18
   0   7   5    4.76    0.28
   1   7   5   30.47    0.63
   1   7   5   30.01    0.80
  -2  -7  -5   10.75    0.44
   2   7   5   10.16    0.39
   3   7   5    0.74    0.16
   3  -8  -5    1.33    0.18
   2  -8  -5   11.52    0.39
   1  -8  -5   18.27    0.51
   0  -8  -5   -0.17    0.12
   1   8   5    0.06    0.15
   2   9  -6    3.24    0.25
  -2  -9   6    3.41    0.28
   1   9  -6    4.65    0.28
  -1  -9   6    4.42    0.31
  -1  -9   6    4.34    0.29
   0   9  -6    9.21    0.35
   0  -9   6    9.06    0.36
   0  -9   6    9.12    0.39
   1  -9   6    2.20    0.24
   1  -9   6    2.05    0.24
   2  -9   6    8.43    0.33
   2  -9   6    8.34    0.35
   3  -9   6    6.06    0.29
   3   8  -6    2.02    0.19
  -3  -8   6    2.31    0.21
   2   8  -6    1.27    0.16
  -2  -8   6    0.88    0.18
  -2  -8   6    1.09    0.17
   1   8  -6    0.88    0.15
  -1  -8   6    1.06    0.17
  -1  -8   6    0.82    0.16
   0   8  -6   10.48    0.36
   0  -8   6   10.33    0.37
   0  -8   6   10.42    0.39
   1  -8   6    0.15    0.12
   1  -8   6    0.17    0.13
   1  -8   6    0.08    0.13
  -2   8  -6   46.14    1.09
   2  -8   6   47.75    1.14
   2  -8   6   48.24    1.01
  -3   8  -6   39.53    0.96
   3  -8   6   41.11    0.88
   4  -8   6    1.16    0.16
   4   7  -6    5.44    0.27
  -4  -7   6    5.27    0.31
   3   7  -6    0.21    0.12
  -3  -7   6    0.28    0.13
  -3  -7   6    0.23    0.15
   2   7  -6    6.67    0.28
  -2  -7   6    6.91    0.30
  -2  -7   6    6.82    0.34
   1   7  -6   20.31    0.51
   1   7  -6   20.99    0.55
   1   7  -6   19.64    0.54
  -1  -7   6   21.00    0.59
  -1  -7   6   20.74    0.52
   0   7  -6   12.21    0.36
   0   7  -6   11.46    0.37
   0   7  -6   11.79    0.39
   0  -7   6   12.03    0.41
   0  -7   6   11.88    0.38
   0  -7   6   11.73    0.50
   0  -7   6   11.51    0.36
   0  -7   6   12.21    0.40
  -1   7  -6   26.95    0.68
   1  -7   6   27.81    0.76
   1  -7   6   27.89    0.64
   1  -7   6   28.22    0.68
   1  -7   6   28.70    0.72
  -2   7  -6   30.20    0.98
  -2   7  -6   28.26    0.71
   2  -7   6   29.04    0.73
   2  -7   6   29.25    0.70
   2  -7   6   28.43    0.65
  -3   7  -6   -0.03    0.12
   3  -7   6   -0.02    0.11
  -4   7  -6   12.60    0.41
   4  -7   6   12.84    0.38
   5  -7   6    9.42    0.32
   5   6  -6    0.31    0.13
  -5  -6   6    0.15    0.15
   4   6  -6    1.11    0.14
  -4  -6   6    1.18    0.18
  -4  -6   6    1.09    0.16
   3   6  -6    7.61    0.28
  -3  -6   6    7.88    0.30
  -3  -6   6    7.42    0.35
   2   6  -6    0.96    0.13
   2   6  -6    1.17    0.13
   2   6  -6    0.96    0.12
   2   6  -6    1.22    0.12
  -2  -6   6    1.10    0.18
  -2  -6   6    1.22    0.14
  -2  -6   6    1.12    0.16
   1   6  -6   48.28    1.00
   1   6  -6   50.64    1.09
   1   6  -6   47.33    1.08
  -1  -6   6   49.34    1.23
  -1  -6   6   48.45    1.48
  -1  -6   6   49.23    1.18
  -1  -6   6   47.62    1.47
  -1  -6   6   48.66    1.01
  -1  -6   6   49.67    1.09
   0   6  -6    9.48    0.31
   0   6  -6    9.85    0.31
   0   6  -6   10.16    0.32
   0  -6   6   10.28    0.36
   0  -6   6    9.91    0.31
   0  -6   6   10.03    0.32
   0  -6   6   10.01    0.43
   0  -6   6    9.85    0.42
   0  -6   6   10.41    0.34
  -1   6  -6   91.27    1.95
  -1   6  -6   94.47    1.95
  -1   6  -6   97.22    2.68
   1  -6   6   91.83    2.65
   1  -6   6   91.26    1.94
   1  -6   6   93.40    2.11
   1  -6   6   91.53    2.20
   1  -6   6   93.03    2.09
   1  -6   6   94.58    1.80
   1  -6   6   92.22    2.65
  -2   6  -6  102.84    2.89
  -2   6  -6   97.41    2.11
   2  -6   6  101.05    2.24
   2  -6   6  101.39    2.29
   2  -6   6  101.17    2.85
   2  -6   6   99.23    1.94
   2  -6   6  104.28    2.10
   2  -6   6  100.33    2.37
  -3   6  -6    3.88    0.21
  -3   6  -6    3.72    0.29
   3  -6   6    4.00    0.25
   3  -6   6    3.92    0.25
   3  -6   6    3.85    0.20
  -4   6  -6   -0.29    0.11
  -4   6  -6   -0.20    0.15
   4  -6   6   -0.11    0.10
   4  -6   6   -0.19    0.12
  -5   6  -6    3.96    0.34
   5  -6   6    4.36    0.23
   5  -6   6    4.33    0.31
   6  -6   6    1.83    0.19
   5   5  -6    2.06    0.22
  -5  -5   6    1.49    0.21
  -5  -5   6    1.43    0.18
   4   5  -6    1.23    0.13
  -4  -5   6    1.26    0.17
  -4  -5   6    1.26    0.14
   3   5  -6    5.00    0.23
   3   5  -6    6.20    0.25
   3   5  -6    5.47    0.24
  -3  -5   6    5.53    0.29
  -3  -5   6    5.28    0.33
  -3  -5   6    5.61    0.25
   2   5  -6   32.21    0.75
   2   5  -6   32.84    0.71
   2   5  -6   32.97    0.76
   2   5  -6   32.88    0.83
  -2  -5   6   33.06    0.86
  -2  -5   6   33.27    0.71
  -2  -5   6   34.02    1.05
  -2  -5   6   32.16    0.83
  -2  -5   6   33.22    1.03
  -2  -5   6   33.04    0.77
   1   5  -6   55.76    1.18
   1   5  -6   56.03    1.28
   1   5  -6   53.91    1.18
   1   5  -6   55.23    1.10
  -1  -5   6   54.77    1.10
  -1  -5   6   54.09    1.61
  -1  -5   6   54.98    1.35
  -1  -5   6   53.65    1.28
  -1  -5   6   53.93    1.61
  -1  -5   6   55.28    1.19
  -1  -5   6   54.91    1.28
   0   5  -6   46.81    1.00
   0   5  -6   45.09    0.92
   0   5  -6   44.40    1.00
   0  -5   6   46.22    1.13
   0  -5   6   45.99    1.00
   0  -5   6   46.84    1.08
   0  -5   6   44.41    1.06
   0  -5   6   46.19    0.93
   0  -5   6   45.21    1.35
  -1   5  -6   85.94    2.41
  -1   5  -6   87.30    1.77
  -1   5  -6   84.24    1.90
  -1   5  -6   84.44    1.77
   1  -5   6   83.99    1.88
   1  -5   6   83.44    1.76
   1  -5   6   82.88    1.99
   1  -5   6   82.36    2.39
   1  -5   6   85.85    2.39
   1  -5   6   85.53    1.91
   1  -5   6   83.49    1.62
  -2   5  -6    2.21    0.17
  -2   5  -6    2.08    0.15
  -2   5  -6    2.24    0.22
   2  -5   6    2.08    0.14
   2  -5   6    2.03    0.18
   2  -5   6    2.17    0.19
   2  -5   6    2.15    0.15
   2  -5   6    1.94    0.15
   2  -5   6    1.95    0.13
  -3   5  -6    6.95    0.34
  -3   5  -6    6.91    0.25
   3  -5   6    6.69    0.22
   3  -5   6    6.71    0.28
   3  -5   6    6.82    0.23
   3  -5   6    6.78    0.23
  -4   5  -6    6.38    0.25
  -4   5  -6    6.11    0.32
   4  -5   6    6.24    0.28
   4  -5   6    6.41    0.28
   4  -5   6    6.33    0.22
  -5   5  -6    3.25    0.29
   5  -5   6    3.65    0.20
   5  -5   6    3.23    0.26
  -6   5  -6    8.50    0.44
   6  -5   6    8.90    0.37
   6   4  -6    1.12    0.15
  -6  -4   6    0.98    0.18
   5   4  -6    0.20    0.11
  -5  -4   6    0.28    0.13
  -5  -4   6    0.22    0.15
   4   4  -6   22.52    0.56
   4   4  -6   23.32    0.54
  -4  -4   6   23.10    0.55
  -4  -4   6   22.14    0.78
  -4  -4   6   22.89    0.65
   3   4  -6    7.11    0.27
   3   4  -6    7.36    0.25
   3   4  -6    7.39    0.23
   3   4  -6    6.93    0.24
  -3  -4   6    7.26    0.35
  -3  -4   6    6.99    0.25
  -3  -4   6    7.18    0.30
  -3  -4   6    7.17    0.29
   2   4  -6  113.43    2.71
   2   4  -6  114.92    2.17
   2   4  -6  113.00    2.67
   2   4  -6  113.49    2.55
   2   4  -6  112.98    2.35
  -2  -4   6  114.81    2.36
  -2  -4   6  117.03    2.69
  -2  -4   6  113.01    2.56
  -2  -4   6  116.90    2.55
  -2  -4   6  113.91    3.23
  -2  -4   6  114.36    2.18
  -2  -4   6  113.55    3.22
   1   4  -6   44.31    0.89
   1   4  -6   44.57    1.10
   1   4  -6   43.49    1.03
   1   4  -6   43.64    0.95
   1   4  -6   44.17    1.08
  -1  -4   6   43.15    1.29
  -1  -4   6   44.24    0.89
  -1  -4   6   44.76    0.96
  -1  -4   6   43.97    1.30
  -1  -4   6   43.87    1.03
  -1  -4   6   43.64    1.08
   0   4  -6  156.85    3.66
   0   4  -6  156.97    2.97
   0   4  -6  161.63    3.22
   0  -4   6  160.57    3.47
   0  -4   6  158.73    4.40
   0  -4   6  155.78    3.65
   0  -4   6  157.66    2.96
   0  -4   6  161.41    3.49
   0  -4   6  156.55    4.41
   0  -4   6  161.11    3.22
  -1   4  -6  182.57    3.63
  -1   4  -6  181.87    4.98
  -1   4  -6  181.59    4.13
   1  -4   6  177.34    4.96
   1  -4   6  180.13    3.62
   1  -4   6  184.13    3.94
   1  -4   6  174.76    4.12
   1  -4   6  179.53    4.96
   1  -4   6  179.80    3.90
   1  -4   6  174.86    3.34
  -2   4  -6    1.59    0.14
  -2   4  -6    1.56    0.13
  -2   4  -6    1.79    0.18
   2  -4   6    1.75    0.10
   2  -4   6    1.47    0.13
   2  -4   6    1.67    0.14
   2  -4   6    1.57    0.10
   2  -4   6    1.74    0.12
   2  -4   6    1.57    0.15
  -3   4  -6    0.21    0.08
  -3   4  -6    0.26    0.11
  -3   4  -6    0.12    0.08
   3  -4   6    0.13    0.06
   3  -4   6    0.07    0.08
   3  -4   6    0.16    0.09
   3  -4   6    0.23    0.07
  -4   4  -6   24.51    0.59
  -4   4  -6   23.78    0.78
   4  -4   6   25.19    0.52
   4  -4   6   23.81    0.63
   4  -4   6   25.06    0.64
  -5   4  -6   13.64    0.53
   5  -4   6   14.58    0.44
   5  -4   6   14.89    0.33
   5  -4   6   13.32    0.43
  -6   4  -6    0.69    0.17
   6  -4   6    0.77    0.15
   6   3  -6    1.20    0.15
  -6  -3   6    0.70    0.20
  -6  -3   6    0.95    0.16
   5   3  -6    3.05    0.20
  -5  -3   6    3.01    0.26
  -5  -3   6    3.10    0.22
  -5  -3   6    2.98    0.28
   4   3  -6    1.53    0.15
   4   3  -6    1.33    0.14
   4   3  -6    1.68    0.17
   4   3  -6    1.42    0.15
  -4  -3   6    1.51    0.22
  -4  -3   6    1.23    0.13
  -4  -3   6    0.84    0.15
   3   3  -6   27.45    0.60
   3   3  -6   27.22    0.70
   3   3  -6   27.62    0.69
   3   3  -6   27.52    0.71
   3   3  -6   27.20    0.64
  -3  -3   6   27.73    0.73
  -3  -3   6   28.07    0.71
  -3  -3   6   26.71    0.60
  -3  -3   6   27.41    0.65
  -3  -3   6   27.56    0.87
   2   3  -6  127.99    2.61
   2   3  -6  128.98    2.41
   2   3  -6  128.17    2.83
   2   3  -6  109.90    2.96
   2   3  -6  130.84    3.04
   2   3  -6  127.25    3.57
  -2  -3   6  130.63    2.84
  -2  -3   6  127.55    2.41
  -2  -3   6  132.23    2.62
  -2  -3   6  129.49    3.58
  -2  -3   6  129.06    2.98
  -2  -3   6  131.03    2.83
   1   3  -6   23.01    0.58
   1   3  -6   23.34    0.61
   1   3  -6   23.38    0.61
   1   3  -6   23.46    0.54
   1   3  -6   23.13    0.50
   1   3  -6   23.55    0.57
   1   3  -6   23.13    0.72
  -1  -3   6   23.55    0.58
  -1  -3   6   23.26    0.58
  -1  -3   6   23.57    0.72
  -1  -3   6   23.83    0.54
  -1  -3   6   22.72    0.72
  -1  -3   6   23.48    0.50
  -1  -3   6   23.72    0.60
   0   3  -6  153.90    3.59
   0   3  -6  154.22    2.90
   0   3  -6  156.48    3.40
   0   3  -6  158.25    3.15
   0   3  -6  156.41    4.32
   0  -3   6  154.73    4.31
   0  -3   6  152.65    3.58
   0  -3   6  159.15    3.15
   0  -3   6  154.33    3.40
   0  -3   6  158.78    4.31
   0  -3   6  157.03    3.42
   0  -3   6  154.80    2.90
  -1   3  -6    5.66    0.25
  -1   3  -6    5.82    0.20
  -1   3  -6    5.78    0.25
  -1   3  -6    5.88    0.18
   1  -3   6    5.93    0.22
   1  -3   6    5.38    0.22
   1  -3   6    5.47    0.18
   1  -3   6    5.75    0.18
   1  -3   6    5.68    0.20
   1  -3   6    5.93    0.17
   1  -3   6    5.70    0.17
  -2   3  -6    0.05    0.06
  -2   3  -6    0.10    0.06
  -2   3  -6    0.17    0.08
   2  -3   6    0.13    0.04
   2  -3   6    0.17    0.07
   2  -3   6    0.09    0.05
  -3   3  -6    0.67    0.08
  -3   3  -6    0.47    0.09
  -3   3  -6    0.76    0.08
   3  -3   6    0.43    0.08
   3  -3   6    0.60    0.06
   3  -3   6    0.64    0.08
  -4   3  -6    0.63    0.10
  -4   3  -6    0.74    0.12
   4  -3   6    0.70    0.10
   4  -3   6    0.46    0.10
  -5   3  -6   32.49    1.03
   5  -3   6   33.73    0.83
   5  -3   6   36.08    0.84
  -6   3  -6   18.95    0.68
   6  -3   6   20.35    0.56
   6  -3   6   21.18    0.57
   6   2  -6    0.17    0.12
  -6  -2   6   -0.04    0.13
  -6  -2   6   -0.04    0.16
   5   2  -6   29.08    0.69
   5   2  -6   30.31    0.66
  -5  -2   6   29.05    0.80
  -5  -2   6   29.84    0.67
  -5  -2   6   28.36    0.96
   4   2  -6   26.44    0.58
   4   2  -6   26.14    0.69
   4   2  -6   25.90    0.61
   4   2  -6   27.21    0.70
  -4  -2   6   25.74    0.70
  -4  -2   6   25.65    0.72
  -4  -2   6   26.47    0.70
  -4  -2   6   25.41    0.84
  -4  -2   6   26.19    0.59
   3   2  -6  123.69    2.80
   3   2  -6  127.43    2.94
   3   2  -6  122.25    3.53
   3   2  -6  124.53    2.58
   3   2  -6  128.10    3.01
   3   2  -6  127.57    2.39
  -3  -2   6  127.70    2.80
  -3  -2   6  125.45    2.59
  -3  -2   6  123.86    2.95
  -3  -2   6  125.92    2.39
  -3  -2   6  128.10    2.82
  -3  -2   6  128.34    3.55
  -3  -2   6  126.90    3.01
   2   2  -6   90.28    2.13
   2   2  -6   91.82    2.18
   2   2  -6   88.46    2.55
   2   2  -6   90.83    2.02
   2   2  -6   90.28    1.87
   2   2  -6   90.93    1.73
  -2  -2   6   89.45    2.55
  -2  -2   6   89.94    2.03
  -2  -2   6   92.18    1.87
  -2  -2   6   90.83    1.73
  -2  -2   6   92.13    2.13
   1   2  -6  230.38    4.89
   1   2  -6  226.90    4.52
   1   2  -6  229.21    6.20
   1   2  -6  225.91    4.90
   1   2  -6  222.48    4.16
   1   2  -6  227.83    5.30
   1   2  -6  223.41    5.14
  -1  -2   6  217.93    4.16
  -1  -2   6  211.79    6.19
  -1  -2   6  224.95    4.90
  -1  -2   6  230.47    5.14
  -1  -2   6  227.87    4.89
  -1  -2   6  224.40    4.52
   0   2  -6  260.49    5.20
   0   2  -6  269.36    7.14
   0   2  -6  266.50    5.62
   0   2  -6  255.27    5.92
   0   2  -6  248.83    4.78
   0  -2   6  263.37    7.12
   0  -2   6  261.44    5.62
   0  -2   6  261.89    5.91
   0  -2   6  248.63    7.12
   0  -2   6  254.31    4.78
   0  -2   6  264.51    5.65
   0  -2   6  263.97    5.20
  -1   2  -6    5.50    0.22
  -1   2  -6    5.29    0.18
  -1   2  -6    5.77    0.22
  -1   2  -6    5.69    0.16
   1  -2   6    5.52    0.18
   1  -2   6    5.23    0.15
  -2   2  -6    0.24    0.07
  -2   2  -6    0.13    0.05
  -2   2  -6    0.17    0.06
  -2   2  -6    0.28    0.06
   2  -2   6    0.16    0.05
   2  -2   6    0.21    0.04
   2  -2   6    0.16    0.05
  -3   2  -6   66.09    1.54
  -3   2  -6   67.39    1.37
  -3   2  -6   63.36    1.86
  -3   2  -6   69.79    1.37
   3  -2   6   65.50    1.48
   3  -2   6   67.65    1.48
  -4   2  -6   58.49    1.17
  -4   2  -6   52.26    1.58
  -4   2  -6   57.59    1.17
   4  -2   6   53.82    1.26
   4  -2   6   58.19    1.27
  -5   2  -6    0.55    0.12
   5  -2   6    0.46    0.10
   5  -2   6    0.64    0.10
  -6   2  -6    2.64    0.23
   6  -2   6    2.90    0.19
   6  -2   6    2.88    0.20
   6   1  -6    0.58    0.13
  -6  -1   6    0.48    0.17
   5   1  -6    0.08    0.09
   5   1  -6    0.13    0.10
  -5  -1   6    0.07    0.11
  -5  -1   6    0.05    0.14
  -5  -1   6   -0.05    0.11
  -5  -1   6   -0.24    0.14
   4   1  -6   10.48    0.35
   4   1  -6   10.70    0.31
   4   1  -6   10.29    0.34
   4   1  -6   10.40    0.31
   4   1  -6   10.82    0.36
  -4  -1   6   10.49    0.36
  -4  -1   6   10.97    0.31
  -4  -1   6   10.93    0.37
  -4  -1   6   10.61    0.43
  -4  -1   6   10.43    0.36
  -4  -1   6   10.42    0.33
   3   1  -6  122.83    2.98
   3   1  -6  122.48    2.77
   3   1  -6  124.03    2.56
   3   1  -6  125.30    2.36
   3   1  -6  123.01    3.49
  -3  -1   6  124.62    2.91
  -3  -1   6  126.03    2.56
  -3  -1   6  124.72    2.36
  -3  -1   6  126.90    2.99
  -3  -1   6  126.42    2.77
  -3  -1   6  125.20    2.78
  -3  -1   6  125.97    3.50
   2   1  -6    0.25    0.07
   2   1  -6    0.37    0.08
   2   1  -6    0.28    0.06
   2   1  -6    0.27    0.08
   2   1  -6    0.35    0.07
   2   1  -6    0.33    0.09
   2   1  -6    0.27    0.06
  -2  -1   6    0.43    0.08
  -2  -1   6    0.37    0.07
  -2  -1   6    0.24    0.06
  -2  -1   6    0.40    0.08
  -2  -1   6    0.39    0.09
  -2  -1   6    0.42    0.08
  -2  -1   6    0.33    0.07
   1   1  -6  142.49    3.07
   1   1  -6  141.01    2.84
   1   1  -6  141.43    3.89
   1   1  -6  140.24    3.33
   1   1  -6  138.34    2.61
   1   1  -6  139.53    3.23
   1   1  -6  138.40    3.07
  -1  -1   6  140.03    3.22
  -1  -1   6  141.36    3.07
  -1  -1   6  141.34    3.34
  -1  -1   6  131.90    2.61
  -1  -1   6  142.79    2.84
  -1  -1   6  140.96    3.08
  -1  -1   6  144.31    3.88
   0   1  -6    1.90    0.14
   0   1  -6    1.81    0.10
   0   1  -6    1.82    0.10
   0   1  -6    1.84    0.13
   0   1  -6    1.78    0.11
   0   1  -6    1.86    0.11
   0  -1   6    1.80    0.11
   0  -1   6    1.90    0.11
   0  -1   6    1.87    0.11
   0  -1   6    1.83    0.10
   0  -1   6    1.85    0.11
   0  -1   6    1.93    0.10
   0  -1   6    1.80    0.10
  -1   1  -6    6.04    0.18
  -1   1  -6    6.36    0.16
  -1   1  -6    6.72    0.22
  -1   1  -6    6.07    0.16
  -1   1  -6    6.22    0.16
  -1   1  -6    6.15    0.21
   1  -1   6    5.99    0.18
   1  -1   6    6.08    0.15
  -4   1  -6   51.22    1.06
  -5   1  -6   63.78    1.89
   5  -1   6   66.37    1.51
   5  -1   6   72.41    1.52
   6  -1   6    1.33    0.17
   6  -1   6    1.30    0.16
   6   0  -6   16.78    0.45
  -6   0   6   17.27    0.56
   5   0  -6   33.18    0.79
   5   0  -6   35.06    0.76
  -5   0   6   36.61    0.95
  -5   0   6   35.11    1.11
  -5   0   6   34.45    0.91
   4   0  -6   55.80    1.22
   4   0  -6   56.34    1.43
   4   0  -6   56.21    1.33
   4   0  -6   56.92    1.39
   4   0  -6   56.14    1.14
  -4   0   6   56.74    1.35
  -4   0   6   57.57    1.40
  -4   0   6   57.78    1.68
  -4   0   6   57.63    1.44
  -4   0   6   56.75    1.24
   3   0  -6   95.73    2.35
   3   0  -6   96.41    2.01
   3   0  -6   96.26    2.18
   3   0  -6   95.54    2.28
   3   0  -6   97.47    2.75
   3   0  -6   97.19    1.86
  -3   0   6   95.14    2.18
  -3   0   6   99.30    2.02
  -3   0   6   97.57    2.19
  -3   0   6  100.04    2.29
  -3   0   6   98.00    2.18
  -3   0   6   96.99    2.75
  -3   0   6   98.46    2.36
   2   0  -6  173.75    3.83
   2   0  -6  175.29    4.83
   2   0  -6  174.98    3.53
   2   0  -6  175.18    4.02
   2   0  -6  175.99    3.25
   2   0  -6  170.43    4.14
   2   0  -6  171.83    3.82
  -2   0   6  176.75    3.83
  -2   0   6  174.42    3.83
  -2   0   6  175.21    4.14
  -2   0   6  174.18    4.01
  -2   0   6  175.51    3.53
   1   0  -6  224.91    4.22
   1   0  -6  233.38    4.59
   1   0  -6  227.19    5.39
   1   0  -6  221.85    5.22
   1   0  -6  230.98    4.97
   1   0  -6  231.54    6.29
  -1   0   6  222.78    5.39
  -1   0   6  234.71    4.59
  -1   0   6  234.69    6.28
  -1   0   6  231.83    4.98
  -1   0   6  227.14    4.97
  -1   0   6  233.71    4.58
  -1   0   6  219.09    4.22
   0   0  -6   57.84    1.17
   0   0  -6   58.65    1.60
   0   0  -6   57.31    1.27
   0   0  -6   56.60    1.40
   0   0  -6   55.88    1.08
   0   0  -6   56.01    1.33
   0   0   6   57.11    1.27
   0   0   6   58.46    1.16
   0   0   6   55.83    1.07
  -1   0  -6   12.13    0.25
  -1   0  -6   12.23    0.36
  -1   0  -6   12.42    0.26
   1   0   6   11.21    0.28
  -2   0  -6   89.11    1.95
  -3   0  -6  112.47    2.46
  -4   0  -6   10.75    0.30
   6   0   6    0.21    0.10
   6   0   6    0.35    0.10
   6  -1  -6    0.08    0.12
  -6   1   6   -0.12    0.15
  -6   1   6    0.04    0.13
   5  -1  -6    1.75    0.18
   5  -1  -6    2.08    0.16
  -5   1   6    1.82    0.25
  -5   1   6    1.78    0.23
  -5   1   6    1.89    0.19
   4  -1  -6   50.75    1.25
   4  -1  -6   50.21    1.29
   4  -1  -6   51.88    1.03
   4  -1  -6   49.13    1.49
   4  -1  -6   48.93    1.10
  -4   1   6   51.22    1.30
  -4   1   6   50.74    1.51
  -4   1   6   50.70    1.11
  -4   1   6   48.83    1.11
  -4   1   6   50.75    1.22
   3  -1  -6   18.76    0.43
   3  -1  -6   17.91    0.45
   3  -1  -6   18.14    0.51
   3  -1  -6   18.20    0.53
   3  -1  -6   18.33    0.49
   3  -1  -6   18.15    0.61
  -3   1   6   17.95    0.46
  -3   1   6   18.66    0.61
  -3   1   6   17.98    0.49
  -3   1   6   18.33    0.46
  -3   1   6   17.76    0.51
  -3   1   6   18.92    0.54
   2  -1  -6   32.58    0.82
   2  -1  -6   32.61    0.98
   2  -1  -6   31.33    0.67
   2  -1  -6   32.66    0.72
   2  -1  -6   31.97    0.85
  -2   1   6   32.73    0.78
  -2   1   6   32.69    0.72
  -2   1   6   32.07    0.71
  -2   1   6   32.20    0.85
  -2   1   6   32.83    0.78
  -2   1   6   32.83    0.97
   1  -1  -6   -0.03    0.05
   1  -1  -6   -0.08    0.07
   1  -1  -6    0.17    0.06
   1  -1  -6   -0.10    0.06
   1  -1  -6    0.07    0.07
   1  -1  -6   -0.03    0.06
  -1   1   6   -0.02    0.04
  -1   1   6    0.02    0.05
  -1   1   6    0.07    0.07
  -1   1   6   -0.03    0.05
  -1   1   6   -0.06    0.05
  -1   1   6   -0.11    0.06
   0  -1  -6    1.50    0.13
   0  -1  -6    1.53    0.12
   0  -1  -6    1.51    0.09
   0  -1  -6    1.50    0.10
   0  -1  -6    1.57    0.09
   0   1   6    1.44    0.07
   0   1   6    1.54    0.10
   0   1   6    1.44    0.09
   0   1   6    1.66    0.14
  -1  -1  -6  109.01    2.14
  -1  -1  -6  108.97    2.56
  -1  -1  -6  102.09    1.97
  -2  -1  -6   75.04    1.83
  -3  -1  -6   26.54    0.71
  -3  -1  -6   26.80    0.64
  -4  -1  -6  108.72    2.41
  -5  -1  -6    1.32    0.17
   6  -2  -6   20.45    0.52
   5  -2  -6   10.45    0.33
   5  -2  -6    9.58    0.32
  -5   2   6    9.80    0.34
   4  -2  -6   53.48    1.06
   4  -2  -6   52.27    1.54
   4  -2  -6   51.08    1.14
   4  -2  -6   50.48    1.34
  -4   2   6   51.17    1.15
  -4   2   6   52.20    1.14
  -4   2   6   52.53    1.55
   3  -2  -6   72.05    1.73
   3  -2  -6   73.51    1.41
   3  -2  -6   71.29    1.79
   3  -2  -6   72.09    1.52
   3  -2  -6   73.22    2.08
  -3   2   6   72.33    1.65
  -3   2   6   71.42    1.79
  -3   2   6   72.34    1.65
  -3   2   6   72.06    1.52
  -3   2   6   68.49    1.52
  -3   2   6   73.54    2.07
   2  -2  -6  131.35    3.00
   2  -2  -6  127.24    3.60
   2  -2  -6  123.18    3.09
   2  -2  -6  128.86    2.63
   2  -2  -6  128.38    2.42
  -2   2   6  128.04    2.85
  -2   2   6  127.75    2.85
  -2   2   6  130.65    2.62
  -2   2   6  132.00    3.59
  -2   2   6  126.43    2.62
  -2   2   6  131.71    3.10
   1  -2  -6   77.40    1.88
   1  -2  -6   75.66    1.59
   1  -2  -6   74.96    1.73
   1  -2  -6   77.98    1.59
   1  -2  -6   74.22    1.46
   1  -2  -6   77.26    2.17
  -1   2   6   76.35    1.58
  -1   2   6   77.58    1.57
  -1   2   6   80.11    2.15
  -1   2   6   75.84    1.87
  -1   2   6   78.36    1.72
  -1   2   6   75.39    1.72
   0  -2  -6   45.42    0.95
   0  -2  -6   44.93    0.95
   0  -2  -6   44.68    1.14
   0  -2  -6   46.67    1.29
   0  -2  -6   44.40    0.88
   0   2   6   45.04    0.86
   0   2   6   45.07    0.92
   0   2   6   46.29    1.03
   0   2   6   44.62    1.02
   0   2   6   45.90    1.14
  -1  -2  -6   45.70    1.16
  -1  -2  -6   44.97    0.88
  -1  -2  -6   48.55    0.95
  -1  -2  -6   46.35    0.95
   1   2   6   47.91    1.04
   1   2   6   44.27    1.03
  -2  -2  -6   85.08    1.60
  -2  -2  -6   88.12    2.10
  -3  -2  -6   25.04    0.62
  -3  -2  -6   23.74    0.66
  -4  -2  -6    7.35    0.28
  -4  -2  -6    7.44    0.28
  -5  -2  -6    4.38    0.25
   6  -3  -6   -0.02    0.12
   5  -3  -6   10.14    0.33
  -5   3   6    9.81    0.35
   4  -3  -6   15.59    0.41
   4  -3  -6   15.06    0.42
   4  -3  -6   15.23    0.51
   4  -3  -6   15.83    0.58
  -4   3   6   15.58    0.44
  -4   3   6   15.81    0.43
   3  -3  -6    0.20    0.09
   3  -3  -6    0.28    0.12
   3  -3  -6    0.35    0.10
   3  -3  -6    0.28    0.12
   3  -3  -6    0.30    0.10
  -3   3   6    0.29    0.09
  -3   3   6    0.21    0.11
  -3   3   6    0.31    0.10
  -3   3   6    0.32    0.12
  -3   3   6    0.30    0.10
  -3   3   6    0.30    0.09
   2  -3  -6    0.77    0.12
   2  -3  -6    0.67    0.12
   2  -3  -6    0.76    0.09
   2  -3  -6    0.70    0.09
   2  -3  -6    0.83    0.10
  -2   3   6    0.76    0.09
  -2   3   6    0.80    0.09
  -2   3   6    0.69    0.11
  -2   3   6    0.74    0.09
  -2   3   6    0.73    0.09
  -2   3   6    0.78    0.12
   1  -3  -6    0.60    0.08
   1  -3  -6    0.54    0.11
   1  -3  -6    0.66    0.08
   1  -3  -6    0.61    0.10
   1  -3  -6    0.56    0.08
  -1   3   6    0.55    0.09
  -1   3   6    0.66    0.07
  -1   3   6    0.65    0.08
  -1   3   6    0.55    0.07
  -1   3   6    0.55    0.08
  -1   3   6    0.56    0.11
   0  -3  -6   65.36    1.61
   0  -3  -6   65.99    1.85
   0  -3  -6   65.63    1.35
   0  -3  -6   63.37    1.25
   0  -3  -6   64.46    1.35
   0   3   6   66.71    1.47
   0   3   6   65.62    1.32
   0   3   6   65.07    1.23
   0   3   6   65.58    1.61
   0   3   6   64.38    1.46
  -1  -3  -6  112.33    2.73
  -1  -3  -6  116.11    2.30
  -1  -3  -6  114.12    2.12
  -1  -3  -6  117.51    3.15
  -1  -3  -6  111.23    2.30
   1   3   6  116.61    2.50
   1   3   6  110.97    2.73
   1   3   6  111.07    2.50
  -2  -3  -6    0.37    0.09
  -2  -3  -6    0.18    0.06
  -2  -3  -6    0.24    0.06
  -2  -3  -6    0.26    0.05
   2   3   6    0.30    0.07
  -3  -3  -6   68.87    1.74
  -3  -3  -6   73.87    1.64
  -4  -3  -6    4.53    0.24
   6  -4  -6    0.55    0.14
   5  -4  -6   15.65    0.45
   4  -4  -6   22.50    0.58
   4  -4  -6   23.02    0.55
  -4   4   6   22.76    0.58
  -4   4   6   21.61    0.58
   3  -4  -6   63.55    1.41
   3  -4  -6   63.66    1.67
   3  -4  -6   66.04    1.92
   3  -4  -6   65.56    1.31
   3  -4  -6   65.86    1.61
  -3   4   6   66.90    1.53
  -3   4   6   66.06    1.41
  -3   4   6   63.00    1.41
  -3   4   6   68.54    1.92
   2  -4  -6   32.94    0.77
   2  -4  -6   33.09    0.71
   2  -4  -6   34.25    1.04
   2  -4  -6   32.64    0.90
   2  -4  -6   33.18    0.76
  -2   4   6   31.14    0.75
  -2   4   6   33.45    0.83
  -2   4   6   33.89    0.75
  -2   4   6   33.81    0.91
  -2   4   6   33.07    0.82
  -2   4   6   34.14    1.01
   1  -4  -6   53.15    1.16
   1  -4  -6   53.25    1.37
   1  -4  -6   53.70    1.07
   1  -4  -6   53.62    1.57
   1  -4  -6   53.18    1.16
  -1   4   6   56.42    1.54
  -1   4   6   55.29    1.26
  -1   4   6   53.13    1.25
  -1   4   6   54.19    1.37
  -1   4   6   52.47    1.13
  -1   4   6   54.50    1.14
   0  -4  -6   10.06    0.29
   0  -4  -6    9.50    0.27
   0  -4  -6    9.57    0.28
   0  -4  -6   10.37    0.38
   0  -4  -6    9.81    0.34
   0   4   6   10.02    0.34
   0   4   6    9.64    0.24
   0   4   6    9.96    0.32
   0   4   6    9.58    0.25
   0   4   6    9.59    0.31
  -1  -4  -6   28.59    0.64
  -1  -4  -6   29.46    0.87
  -1  -4  -6   28.09    0.77
  -1  -4  -6   28.52    0.64
  -1  -4  -6   28.72    0.59
   1   4   6   29.06    0.70
   1   4   6   28.42    0.69
   1   4   6   28.67    0.77
  -2  -4  -6   16.20    0.38
  -2  -4  -6   15.10    0.35
  -2  -4  -6   15.19    0.46
  -2  -4  -6   15.32    0.38
  -2  -4  -6   15.76    0.50
   2   4   6   15.63    0.42
   2   4   6   15.11    0.41
  -3  -4  -6   21.50    0.61
   3   4   6   22.40    0.55
  -4  -4  -6   19.63    0.57
   4   4   6   18.28    0.49
   5   4   6    0.26    0.11
   6  -5  -6    0.68    0.16
   5  -5  -6    4.59    0.26
   4  -5  -6    2.74    0.21
   4  -5  -6    2.80    0.23
   3  -5  -6    3.26    0.21
   3  -5  -6    2.49    0.18
  -3   5   6    2.95    0.19
  -3   5   6    2.50    0.18
   2  -5  -6    1.71    0.21
   2  -5  -6    2.11    0.17
   2  -5  -6    1.88    0.18
  -2   5   6    2.34    0.23
  -2   5   6    1.90    0.16
  -2   5   6    1.85    0.15
  -2   5   6    1.97    0.19
   1  -5  -6   14.56    0.48
   1  -5  -6   14.21    0.40
   1  -5  -6   14.46    0.38
   1  -5  -6   14.44    0.53
  -1   5   6   14.37    0.43
  -1   5   6   14.63    0.37
  -1   5   6   13.76    0.37
  -1   5   6   14.47    0.44
  -1   5   6   14.76    0.48
   0  -5  -6   64.70    1.66
   0  -5  -6   64.57    1.41
   0  -5  -6   65.35    1.30
   0  -5  -6   67.33    1.92
   0   5   6   67.15    1.53
   0   5   6   68.41    1.36
   0   5   6   66.23    1.52
   0   5   6   66.86    1.66
  -1  -5  -6    6.65    0.23
  -1  -5  -6    6.59    0.24
  -1  -5  -6    6.94    0.32
  -1  -5  -6    6.65    0.28
   1   5   6    7.13    0.29
   1   5   6    6.97    0.19
   1   5   6    6.81    0.27
   1   5   6    6.85    0.27
  -2  -5  -6   18.96    0.62
  -2  -5  -6   17.86    0.53
   2   5   6   18.82    0.51
   2   5   6   19.33    0.51
  -3  -5  -6    2.08    0.24
  -3  -5  -6    2.29    0.21
   3   5   6    2.20    0.20
  -4  -5  -6    5.63    0.32
   4   5   6    4.90    0.26
   5  -6  -6    5.89    0.30
   4  -6  -6   29.30    0.70
   3  -6  -6    4.37    0.24
   3  -6  -6    3.86    0.24
   2  -6  -6   28.45    0.70
   2  -6  -6   29.00    0.66
  -2   6   6   26.98    0.67
   1  -6  -6    0.25    0.13
   1  -6  -6    0.14    0.11
   1  -6  -6    0.11    0.11
  -1   6   6    0.07    0.09
  -1   6   6    0.02    0.12
   0  -6  -6    2.61    0.22
   0  -6  -6    2.55    0.20
   0  -6  -6    2.73    0.20
   0   6   6    3.04    0.23
   0   6   6    2.98    0.24
   0   6   6    2.78    0.22
  -1  -6  -6    1.58    0.19
  -1  -6  -6    1.62    0.18
   1   6   6    1.71    0.20
   1   6   6    1.57    0.16
   1   6   6    1.46    0.13
   2   6   6   19.14    0.54
   2   6   6   18.24    0.53
  -3  -6  -6   28.38    0.80
   3   6   6   27.52    0.73
   3   6   6   28.76    0.74
   4  -7  -6    2.11    0.23
   3  -7  -6    1.56    0.17
   2  -7  -6    0.71    0.14
   2  -7  -6    0.59    0.14
   1  -7  -6   17.15    0.47
   0  -7  -6    9.43    0.32
   0   7   6    9.59    0.38
   1   7   6    0.67    0.15
  -2  -7  -6   -0.08    0.16
   2   7   6    0.02    0.13
   3  -8  -6    6.16    0.31
   2  -8  -6    0.12    0.14
   1  -8  -6   -0.09    0.13
   1   8   6    6.91    0.36
   1   9  -7   28.31    0.70
  -1  -9   7   28.56    0.82
  -1  -9   7   28.97    0.72
   0   9  -7    7.33    0.33
   0  -9   7    7.68    0.34
   0  -9   7    7.60    0.36
   1  -9   7    4.44    0.28
   1  -9   7    4.63    0.28
   2  -9   7    8.39    0.33
   3  -9   7    4.24    0.27
   3   8  -7    0.06    0.14
  -3  -8   7    0.11    0.16
   2   8  -7    0.28    0.14
  -2  -8   7    0.35    0.15
  -2  -8   7    0.12    0.17
   1   8  -7   14.47    0.43
  -1  -8   7   14.13    0.43
  -1  -8   7   14.38    0.49
   0   8  -7   88.11    1.76
   0  -8   7   89.74    1.76
   0  -8   7   87.14    2.04
   1  -8   7   35.26    0.79
   1  -8   7   34.09    0.88
  -2   8  -7   -0.06    0.13
   2  -8   7   -0.06    0.12
   2  -8   7   -0.15    0.11
  -3   8  -7    0.37    0.15
   3  -8   7    0.21    0.13
   4  -8   7    1.43    0.17
   4   7  -7    1.74    0.18
  -4  -7   7    1.85    0.21
   3   7  -7    0.16    0.12
  -3  -7   7    0.10    0.14
  -3  -7   7    0.19    0.14
   2   7  -7   54.46    1.15
  -2  -7   7   55.40    1.16
  -2  -7   7   55.83    1.36
   1   7  -7   46.11    0.98
   1   7  -7   43.81    1.04
   1   7  -7   46.65    1.05
  -1  -7   7   47.63    1.14
  -1  -7   7   46.53    0.98
   0   7  -7    1.36    0.15
   0   7  -7    1.61    0.18
   0  -7   7    1.71    0.26
   0  -7   7    1.53    0.20
   0  -7   7    1.54    0.19
   0  -7   7    1.73    0.20
   0  -7   7    1.35    0.15
  -1   7  -7   11.89    0.38
   1  -7   7   12.62    0.37
   1  -7   7   12.36    0.41
   1  -7   7   12.33    0.38
   1  -7   7   12.38    0.39
  -2   7  -7   10.80    0.36
   2  -7   7   11.07    0.35
   2  -7   7   10.81    0.34
  -3   7  -7   -0.11    0.12
   3  -7   7   -0.26    0.11
   4  -7   7    6.56    0.28
   5  -7   7    4.62    0.25
   4   6  -7    0.19    0.12
  -4  -6   7    0.20    0.14
  -4  -6   7    0.34    0.16
   3   6  -7   12.04    0.37
  -3  -6   7   12.33    0.39
  -3  -6   7   12.36    0.45
   2   6  -7    5.70    0.25
   2   6  -7    5.82    0.27
   2   6  -7    5.33    0.25
  -2  -6   7    6.09    0.29
  -2  -6   7    5.74    0.26
   1   6  -7  167.26    3.40
   1   6  -7  167.02    3.14
   1   6  -7  159.45    3.40
  -1  -6   7  166.36    4.65
  -1  -6   7  164.65    3.68
  -1  -6   7  165.76    4.66
  -1  -6   7  170.00    3.87
  -1  -6   7  166.06    3.41
  -1  -6   7  166.68    3.14
   0   6  -7   94.31    1.97
   0   6  -7   94.08    1.82
   0   6  -7   90.92    1.96
   0  -6   7   95.33    1.96
   0  -6   7   92.48    2.11
   0  -6   7   94.30    2.23
   0  -6   7   93.66    1.81
   0  -6   7   92.98    2.67
  -1   6  -7   -0.06    0.13
  -1   6  -7   -0.05    0.10
   1  -6   7   -0.04    0.09
   1  -6   7   -0.05    0.09
   1  -6   7   -0.12    0.12
   1  -6   7   -0.10    0.10
   1  -6   7   -0.01    0.09
   1  -6   7   -0.24    0.09
  -2   6  -7    3.94    0.21
  -2   6  -7    3.87    0.30
   2  -6   7    3.95    0.20
   2  -6   7    3.99    0.26
   2  -6   7    3.81    0.24
   2  -6   7    3.52    0.19
   2  -6   7    3.96    0.20
  -3   6  -7   31.13    0.75
  -3   6  -7   32.36    1.02
   3  -6   7   31.60    0.81
   3  -6   7   31.52    0.74
   3  -6   7   31.87    0.69
  -4   6  -7   -0.17    0.16
   4  -6   7   -0.16    0.11
   4  -6   7   -0.06    0.13
  -5   6  -7   23.23    0.86
   5  -6   7   25.35    0.56
   5  -6   7   25.29    0.70
   5   5  -7    6.42    0.29
  -5  -5   7    5.89    0.32
  -5  -5   7    6.07    0.36
   4   5  -7    6.39    0.27
  -4  -5   7    6.70    0.29
  -4  -5   7    6.38    0.33
   3   5  -7   49.18    1.01
   3   5  -7   46.64    1.07
  -3  -5   7   48.57    1.19
  -3  -5   7   48.68    1.01
  -3  -5   7   48.78    1.48
   2   5  -7  113.04    2.74
   2   5  -7  115.01    2.20
   2   5  -7  112.54    2.38
   2   5  -7  116.08    2.71
  -2  -5   7  115.83    3.27
  -2  -5   7  116.02    2.21
  -2  -5   7  114.52    3.26
  -2  -5   7  115.19    2.39
  -2  -5   7  115.73    2.72
  -2  -5   7  114.19    2.59
   1   5  -7    1.26    0.16
   1   5  -7    1.07    0.13
   1   5  -7    1.44    0.13
   1   5  -7    1.01    0.12
   1   5  -7    1.30    0.16
  -1  -5   7    1.13    0.17
  -1  -5   7    1.15    0.16
  -1  -5   7    1.34    0.17
  -1  -5   7    1.19    0.12
  -1  -5   7    1.68    0.18
  -1  -5   7    1.22    0.13
   0   5  -7    8.25    0.27
   0   5  -7    8.44    0.26
   0   5  -7    8.76    0.30
   0  -5   7    8.60    0.27
   0  -5   7    8.78    0.30
   0  -5   7    8.18    0.29
   0  -5   7    8.40    0.36
   0  -5   7    8.46    0.35
   0  -5   7    8.31    0.26
   0  -5   7    7.80    0.28
  -1   5  -7    6.91    0.34
  -1   5  -7    6.72    0.24
  -1   5  -7    7.03    0.26
   1  -5   7    6.73    0.24
   1  -5   7    6.67    0.30
   1  -5   7    6.81    0.27
   1  -5   7    6.76    0.30
   1  -5   7    7.02    0.24
   1  -5   7    6.52    0.24
   1  -5   7    6.95    0.23
  -2   5  -7    2.00    0.17
  -2   5  -7    2.05    0.22
  -2   5  -7    1.89    0.15
   2  -5   7    1.80    0.15
   2  -5   7    1.83    0.18
   2  -5   7    1.77    0.18
   2  -5   7    2.00    0.12
   2  -5   7    1.76    0.12
   2  -5   7    1.92    0.15
  -3   5  -7    9.36    0.30
  -3   5  -7    9.47    0.40
   3  -5   7    9.60    0.27
   3  -5   7    9.16    0.33
   3  -5   7    9.12    0.27
  -4   5  -7    5.36    0.24
  -4   5  -7    5.02    0.30
   4  -5   7    5.19    0.21
   4  -5   7    5.38    0.27
   4  -5   7    5.61    0.27
  -5   5  -7   46.08    1.48
   5  -5   7   51.12    0.96
   5  -5   7   49.20    1.18
   6  -5   7    0.01    0.14
   5   4  -7    0.09    0.12
  -5  -4   7    0.09    0.16
  -5  -4   7    0.08    0.13
   4   4  -7   35.53    0.77
   4   4  -7   33.60    0.80
  -4  -4   7   34.92    1.12
  -4  -4   7   35.76    0.78
  -4  -4   7   35.27    0.92
   3   4  -7    0.19    0.10
   3   4  -7    0.14    0.08
   3   4  -7    0.16    0.09
   3   4  -7    0.17    0.09
  -3  -4   7    0.41    0.11
  -3  -4   7    0.29    0.12
  -3  -4   7    0.21    0.10
  -3  -4   7    0.16    0.14
   2   4  -7  195.96    4.67
   2   4  -7  196.35    4.36
   2   4  -7  199.55    3.70
   2   4  -7  193.99    4.02
  -2  -4   7  201.16    5.51
  -2  -4   7  196.16    4.57
  -2  -4   7  199.18    5.51
  -2  -4   7  197.73    4.36
  -2  -4   7  197.87    4.36
  -2  -4   7  198.22    3.70
  -2  -4   7  200.04    4.02
   1   4  -7  149.68    3.33
   1   4  -7  148.72    3.58
   1   4  -7  152.86    2.84
   1   4  -7  147.55    3.07
   1   4  -7  150.45    3.50
  -1  -4   7  149.24    4.20
  -1  -4   7  152.06    2.83
  -1  -4   7  149.87    4.20
  -1  -4   7  150.73    3.49
  -1  -4   7  153.01    3.08
  -1  -4   7  154.21    3.33
  -1  -4   7  149.49    3.32
   0   4  -7    0.24    0.07
   0   4  -7    0.29    0.08
   0   4  -7    0.31    0.09
   0  -4   7    0.32    0.10
   0  -4   7    0.22    0.08
   0  -4   7    0.18    0.07
   0  -4   7    0.24    0.08
   0  -4   7    0.17    0.08
   0  -4   7    0.32    0.08
   0  -4   7    0.29    0.09
  -1   4  -7   12.68    0.45
  -1   4  -7   12.51    0.37
  -1   4  -7   12.63    0.33
   1  -4   7   12.20    0.32
   1  -4   7   11.85    0.34
   1  -4   7   12.58    0.42
   1  -4   7   12.42    0.32
   1  -4   7   12.22    0.36
   1  -4   7   12.29    0.42
   1  -4   7   12.36    0.31
  -2   4  -7  169.11    3.89
  -2   4  -7  170.15    3.42
  -2   4  -7  169.36    3.42
  -2   4  -7  163.22    4.68
   2  -4   7  167.85    3.71
   2  -4   7  171.99    3.40
   2  -4   7  169.75    3.14
  -3   4  -7   16.37    0.41
  -3   4  -7   15.43    0.54
   3  -4   7   15.93    0.44
   3  -4   7   15.99    0.36
   3  -4   7   15.84    0.36
  -4   4  -7   70.58    2.12
  -4   4  -7   76.09    1.56
   4  -4   7   76.46    1.69
   4  -4   7   71.63    1.69
   4  -4   7   75.13    1.40
  -5   4  -7   18.48    0.66
   5  -4   7   20.55    0.55
   5  -4   7   19.09    0.54
   6  -4   7    1.40    0.17
   6   3  -7    8.07    0.31
  -6  -3   7    7.74    0.34
   5   3  -7   15.28    0.42
  -5  -3   7   15.05    0.51
  -5  -3   7   14.90    0.43
   4   3  -7   17.41    0.48
   4   3  -7   15.96    0.44
   4   3  -7   16.64    0.43
  -4  -3   7   16.49    0.52
  -4  -3   7   16.56    0.44
  -4  -3   7   16.55    0.62
   3   3  -7  125.12    2.59
   3   3  -7  125.89    2.81
   3   3  -7  125.96    3.00
   3   3  -7  126.66    2.39
   3   3  -7  126.19    2.94
   3   3  -7  123.15    3.53
  -3  -3   7  124.76    2.82
  -3  -3   7  125.46    2.95
  -3  -3   7  126.86    2.60
  -3  -3   7  125.35    3.55
  -3  -3   7  127.62    2.40
   2   3  -7   13.25    0.36
   2   3  -7   13.07    0.39
   2   3  -7   12.78    0.48
   2   3  -7   13.66    0.40
   2   3  -7   13.31    0.35
   2   3  -7   13.17    0.40
  -2  -3   7   13.31    0.40
  -2  -3   7   13.87    0.37
  -2  -3   7   13.56    0.35
  -2  -3   7   12.89    0.39
  -2  -3   7   13.35    0.41
  -2  -3   7   12.88    0.48
   1   3  -7    1.14    0.12
   1   3  -7    1.00    0.10
   1   3  -7    1.06    0.12
   1   3  -7    1.15    0.16
   1   3  -7    0.99    0.09
   1   3  -7    1.29    0.12
  -1  -3   7    1.00    0.12
  -1  -3   7    0.93    0.12
  -1  -3   7    1.00    0.12
  -1  -3   7    1.11    0.14
  -1  -3   7    1.16    0.13
  -1  -3   7    1.24    0.12
  -1  -3   7    1.31    0.14
   0   3  -7    1.13    0.11
   0   3  -7    1.26    0.12
   0   3  -7    0.96    0.12
   0   3  -7    1.03    0.16
   0   3  -7    0.94    0.12
   0  -3   7    0.95    0.10
   0  -3   7    0.79    0.11
   0  -3   7    1.09    0.14
   0  -3   7    0.84    0.08
   0  -3   7    1.08    0.14
   0  -3   7    1.02    0.13
   0  -3   7    1.20    0.11
  -1   3  -7    1.99    0.16
  -1   3  -7    1.99    0.13
  -1   3  -7    2.03    0.12
  -1   3  -7    2.19    0.16
   1  -3   7    2.00    0.10
   1  -3   7    1.93    0.12
   1  -3   7    2.04    0.12
   1  -3   7    2.02    0.14
   1  -3   7    1.97    0.10
   1  -3   7    2.04    0.11
   1  -3   7    2.01    0.13
  -2   3  -7    9.47    0.35
  -2   3  -7    9.52    0.29
  -2   3  -7   10.17    0.36
  -2   3  -7    9.96    0.26
   2  -3   7    9.79    0.29
   2  -3   7    9.69    0.24
   2  -3   7    9.90    0.23
  -3   3  -7    1.99    0.16
  -3   3  -7    2.34    0.14
  -3   3  -7    2.15    0.13
  -3   3  -7    2.45    0.14
   3  -3   7    1.95    0.11
   3  -3   7    2.37    0.15
   3  -3   7    1.94    0.15
  -4   3  -7   99.76    2.96
  -4   3  -7  109.27    2.18
   4  -3   7  110.26    2.36
   4  -3   7  105.17    2.36
  -5   3  -7   13.99    0.51
   5  -3   7   14.78    0.41
   5  -3   7   14.28    0.41
   6  -3   7   22.09    0.59
   6  -3   7   21.26    0.59
   6   2  -7    2.15    0.21
  -6  -2   7    1.53    0.18
  -6  -2   7    1.70    0.22
   5   2  -7   34.30    0.75
  -5  -2   7   33.85    0.76
  -5  -2   7   34.04    0.91
   4   2  -7    7.36    0.28
   4   2  -7    6.88    0.25
   4   2  -7    7.28    0.28
   4   2  -7    7.57    0.26
  -4  -2   7    7.40    0.29
  -4  -2   7    6.77    0.35
  -4  -2   7    7.49    0.27
  -4  -2   7    7.02    0.31
  -4  -2   7    7.07    0.30
   3   2  -7  151.45    3.57
   3   2  -7  147.10    3.32
   3   2  -7  144.68    4.18
   3   2  -7  151.64    2.83
   3   2  -7  150.43    3.06
  -3  -2   7  146.73    4.19
  -3  -2   7  150.91    3.57
  -3  -2   7  150.55    3.33
  -3  -2   7  150.29    3.49
  -3  -2   7  152.13    3.07
  -3  -2   7  148.61    2.83
  -3  -2   7  151.72    3.32
   2   2  -7  135.29    2.53
   2   2  -7  133.52    3.20
   2   2  -7  130.84    2.74
   2   2  -7  131.56    2.96
   2   2  -7  131.69    3.74
   2   2  -7  134.52    3.12
  -2  -2   7  132.36    3.74
  -2  -2   7  135.50    2.53
  -2  -2   7  134.79    2.97
  -2  -2   7  137.29    3.12
  -2  -2   7  137.60    2.74
  -2  -2   7  133.80    2.97
   1   2  -7    5.16    0.18
   1   2  -7    5.98    0.26
   1   2  -7    5.64    0.21
   1   2  -7    5.79    0.19
   1   2  -7    5.83    0.21
   1   2  -7    5.60    0.22
  -1  -2   7    5.58    0.24
  -1  -2   7    5.37    0.20
  -1  -2   7    5.38    0.19
  -1  -2   7    5.05    0.25
  -1  -2   7    5.61    0.20
  -1  -2   7    5.61    0.21
  -1  -2   7    5.69    0.19
   0   2  -7   18.01    0.44
   0   2  -7   18.10    0.42
   0   2  -7   17.64    0.39
   0   2  -7   18.41    0.57
   0   2  -7   17.69    0.50
   0   2  -7   18.11    0.47
   0  -2   7   17.84    0.45
   0  -2   7   18.63    0.55
   0  -2   7   17.35    0.45
   0  -2   7   17.73    0.54
   0  -2   7   17.79    0.44
   0  -2   7   17.92    0.41
   0  -2   7   17.75    0.39
  -1   2  -7  427.94   12.05
  -1   2  -7  461.95   12.10
  -1   2  -7  450.54    8.78
  -1   2  -7  439.17    8.06
  -1   2  -7  438.10   10.00
   1  -2   7  438.55    8.07
   1  -2   7  428.40    9.56
   1  -2   7  435.35    8.76
  -2   2  -7  148.32    3.41
  -2   2  -7  159.11    4.11
  -2   2  -7  151.38    3.00
  -2   2  -7  139.55    4.10
   2  -2   7  150.38    2.74
   2  -2   7  146.21    3.25
  -3   2  -7   92.73    2.79
  -3   2  -7  111.60    2.80
  -3   2  -7   97.84    2.32
  -3   2  -7  100.22    2.04
   3  -2   7   97.64    2.22
   3  -2   7  105.41    2.22
  -4   2  -7   57.99    1.77
  -4   2  -7   65.01    1.31
  -4   2  -7   65.39    1.31
   4  -2   7   61.58    1.41
   4  -2   7   65.17    1.42
  -5   2  -7    4.54    0.23
   5  -2   7    4.64    0.20
   5  -2   7    4.96    0.20
   6  -2   7    0.66    0.12
   6  -2   7    0.94    0.13
   6   1  -7   13.32    0.40
  -6  -1   7   12.84    0.49
   5   1  -7    0.82    0.13
  -5  -1   7    0.78    0.14
  -5  -1   7    0.64    0.16
   4   1  -7   58.47    1.49
   4   1  -7   58.27    1.19
   4   1  -7   60.39    1.46
   4   1  -7   58.19    1.28
  -4  -1   7   59.89    1.42
  -4  -1   7   60.15    1.47
  -4  -1   7   59.66    1.20
  -4  -1   7   59.85    1.76
  -4  -1   7   60.17    1.50
   3   1  -7   16.97    0.59
   3   1  -7   17.43    0.48
   3   1  -7   17.05    0.44
   3   1  -7   17.40    0.50
   3   1  -7   17.55    0.51
   3   1  -7   17.70    0.43
  -3  -1   7   17.68    0.61
  -3  -1   7   16.86    0.43
  -3  -1   7   17.98    0.46
  -3  -1   7   17.23    0.50
  -3  -1   7   17.54    0.51
  -3  -1   7   17.63    0.52
  -3  -1   7   18.00    0.49
   2   1  -7    1.46    0.13
   2   1  -7    1.33    0.13
   2   1  -7    1.37    0.17
   2   1  -7    1.45    0.12
   2   1  -7    1.53    0.13
   2   1  -7    1.29    0.13
  -2  -1   7    1.55    0.14
  -2  -1   7    1.54    0.13
  -2  -1   7    1.37    0.14
  -2  -1   7    1.50    0.14
  -2  -1   7    1.65    0.13
  -2  -1   7    1.60    0.13
   1   1  -7   37.68    1.09
   1   1  -7   36.62    0.94
   1   1  -7   36.25    0.80
   1   1  -7   38.39    0.87
   1   1  -7   35.45    0.74
   1   1  -7   36.01    0.90
  -1  -1   7   37.11    0.86
  -1  -1   7   35.92    0.89
  -1  -1   7   36.98    0.74
  -1  -1   7   36.17    0.86
  -1  -1   7   37.69    1.07
  -1  -1   7   36.83    0.95
  -1  -1   7   36.81    0.79
   0   1  -7    1.44    0.14
   0   1  -7    1.59    0.11
   0   1  -7    1.33    0.10
   0   1  -7    1.41    0.10
   0   1  -7    1.32    0.11
   0   1  -7    1.54    0.13
   0  -1   7    1.63    0.11
   0  -1   7    1.31    0.11
   0  -1   7    1.34    0.10
   0  -1   7    1.36    0.10
   0  -1   7    1.36    0.09
   0  -1   7    1.45    0.11
   0  -1   7    1.42    0.10
  -1   1  -7    4.97    0.20
  -1   1  -7    5.31    0.16
  -1   1  -7    5.26    0.15
  -1   1  -7    5.20    0.16
  -1   1  -7    5.03    0.17
  -1   1  -7    5.50    0.21
   1  -1   7    5.00    0.17
  -2   1  -7    0.46    0.05
   5  -1   7    9.55    0.28
   6  -1   7   19.91    0.53
   6  -1   7   20.62    0.53
   6   0  -7   12.48    0.38
  -6   0   7   12.41    0.47
  -6   0   7   11.36    0.41
   5   0  -7   10.09    0.32
  -5   0   7    9.82    0.39
   4   0  -7   76.09    1.94
   4   0  -7   79.65    1.54
   4   0  -7   76.31    1.66
   4   0  -7   77.38    1.89
   4   0  -7   76.67    2.26
  -4   0   7   79.44    1.83
  -4   0   7   81.40    1.95
  -4   0   7   79.88    1.90
  -4   0   7   79.13    2.28
  -4   0   7   78.81    1.67
   3   0  -7   64.69    1.64
   3   0  -7   65.26    1.51
   3   0  -7   65.52    1.40
   3   0  -7   65.23    1.59
   3   0  -7   67.85    1.30
   3   0  -7   65.73    1.91
  -3   0   7   67.49    1.60
  -3   0   7   64.70    1.53
  -3   0   7   67.86    1.65
  -3   0   7   66.59    1.40
  -3   0   7   65.69    1.52
  -3   0   7   66.40    1.91
   2   0  -7   22.51    0.50
   2   0  -7   22.26    0.63
   2   0  -7   22.69    0.72
   2   0  -7   23.32    0.54
   2   0  -7   22.89    0.61
  -2   0   7   23.69    0.64
  -2   0   7   23.06    0.59
  -2   0   7   23.07    0.53
  -2   0   7   23.14    0.72
  -2   0   7   22.62    0.58
   1   0  -7    5.63    0.24
   1   0  -7    5.41    0.18
   1   0  -7    5.55    0.21
   1   0  -7    5.21    0.20
   1   0  -7    5.29    0.22
   1   0  -7    5.47    0.18
  -1   0   7    5.30    0.22
  -1   0   7    5.20    0.19
  -1   0   7    5.36    0.17
  -1   0   7    5.48    0.23
  -1   0   7    5.43    0.17
   0   0  -7  537.43   12.36
   0   0  -7  528.73   10.02
   0   0  -7  572.39   14.95
   0   0  -7  520.25   12.80
   0   0  -7  543.93   11.75
   0   0  -7  560.00   10.90
   0   0   7  559.49   10.85
   0   0   7  545.61   11.83
   0   0   7  528.49    9.96
  -1   0  -7  380.10    8.08
  -1   0  -7  370.91    8.80
  -1   0  -7  371.98    6.86
  -1   0  -7  384.38    7.46
   1   0   7  365.02    8.11
  -2   0  -7   49.36    1.24
  -3   0  -7  101.55    2.22
  -4   0  -7   10.60    0.29
   6  -1  -7    0.34    0.13
  -6   1   7    0.26    0.17
   5  -1  -7   10.97    0.34
  -5   1   7   10.73    0.37
  -5   1   7   10.88    0.42
   4  -1  -7    5.05    0.29
   4  -1  -7    5.73    0.25
   4  -1  -7    4.91    0.23
   4  -1  -7    5.38    0.33
  -4   1   7    5.17    0.34
  -4   1   7    5.40    0.25
  -4   1   7    5.33    0.30
  -4   1   7    5.47    0.26
  -4   1   7    5.38    0.29
   3  -1  -7    3.86    0.19
   3  -1  -7    4.29    0.22
   3  -1  -7    3.77    0.21
   3  -1  -7    3.63    0.25
   3  -1  -7    3.94    0.19
  -3   1   7    3.83    0.19
  -3   1   7    3.72    0.22
  -3   1   7    4.48    0.24
  -3   1   7    3.88    0.19
  -3   1   7    3.25    0.23
  -3   1   7    3.72    0.24
  -3   1   7    3.83    0.21
   2  -1  -7   69.06    1.45
   2  -1  -7   69.52    1.98
   2  -1  -7   68.39    1.34
   2  -1  -7   67.75    1.71
   2  -1  -7   68.55    1.65
  -2   1   7   67.20    1.44
  -2   1   7   68.56    1.57
  -2   1   7   68.66    1.56
  -2   1   7   70.95    1.71
  -2   1   7   69.57    1.44
  -2   1   7   69.45    1.96
   1  -1  -7   22.75    0.57
   1  -1  -7   22.29    0.63
   1  -1  -7   22.70    0.49
   1  -1  -7   22.88    0.71
   1  -1  -7   23.15    0.52
   1  -1  -7   22.80    0.59
  -1   1   7   23.21    0.51
  -1   1   7   23.27    0.68
  -1   1   7   22.60    0.63
  -1   1   7   22.82    0.56
  -1   1   7   22.43    0.51
   0  -1  -7    1.08    0.14
   0  -1  -7    1.37    0.11
   0  -1  -7    1.38    0.14
   0  -1  -7    1.23    0.11
   0  -1  -7    1.52    0.14
   0   1   7    1.16    0.11
   0   1   7    1.88    0.16
   0   1   7    1.33    0.10
  -1  -1  -7    6.26    0.17
  -1  -1  -7    6.69    0.25
  -1  -1  -7    6.10    0.16
  -1  -1  -7    6.35    0.17
   1   1   7    5.90    0.18
  -2  -1  -7   56.08    1.40
  -3  -1  -7  117.85    2.91
  -3  -1  -7  123.54    2.66
  -4  -1  -7    0.94    0.13
  -4  -1  -7    1.34    0.15
   6  -2  -7    4.05    0.25
   5  -2  -7   33.84    0.74
  -5   2   7   31.45    0.80
   4  -2  -7   27.06    0.62
   4  -2  -7   26.41    0.65
   4  -2  -7   26.74    0.78
   4  -2  -7   26.92    0.74
   4  -2  -7   26.94    0.88
  -4   2   7   27.11    0.66
  -4   2   7   27.54    0.89
  -4   2   7   25.86    0.66
   3  -2  -7   30.41    0.72
   3  -2  -7   31.07    0.68
   3  -2  -7   31.07    0.98
   3  -2  -7   32.02    0.82
   3  -2  -7   31.43    0.86
  -3   2   7   31.82    0.72
  -3   2   7   31.07    0.78
  -3   2   7   31.22    0.97
  -3   2   7   31.06    0.78
  -3   2   7   29.82    0.72
  -3   2   7   31.60    0.86
   2  -2  -7    0.70    0.09
   2  -2  -7    0.98    0.12
   2  -2  -7    0.70    0.12
   2  -2  -7    0.77    0.11
   2  -2  -7    0.91    0.09
  -2   2   7    0.75    0.12
  -2   2   7    0.58    0.09
  -2   2   7    0.77    0.09
  -2   2   7    0.81    0.10
  -2   2   7    0.68    0.09
  -2   2   7    0.69    0.11
   1  -2  -7  291.98    8.09
   1  -2  -7  294.89    5.90
   1  -2  -7  293.56    5.90
   1  -2  -7  289.32    5.43
   1  -2  -7  287.97    6.94
  -1   2   7  295.71    5.88
  -1   2   7  306.39    6.41
  -1   2   7  303.59    8.07
  -1   2   7  291.39    6.40
  -1   2   7  293.48    6.94
  -1   2   7  288.33    5.88
   0  -2  -7  332.29    6.74
   0  -2  -7  342.52    6.74
   0  -2  -7  331.74    6.20
   0  -2  -7  344.30    9.27
   0  -2  -7  338.82    7.94
   0   2   7  333.64    7.94
   0   2   7  346.05    7.32
   0   2   7  331.95    7.32
   0   2   7  333.87    6.18
  -1  -2  -7    2.02    0.11
  -1  -2  -7    1.84    0.13
  -1  -2  -7    1.73    0.10
  -1  -2  -7    2.02    0.10
  -1  -2  -7    2.24    0.16
   1   2   7    1.70    0.11
  -2  -2  -7   67.81    1.29
  -2  -2  -7   70.58    1.71
  -3  -2  -7   11.76    0.40
  -3  -2  -7   12.98    0.37
  -4  -2  -7    2.69    0.20
  -4  -2  -7    2.95    0.19
   6  -3  -7    0.65    0.15
   4  -3  -7    1.27    0.17
   4  -3  -7    1.11    0.13
   4  -3  -7    0.89    0.17
   4  -3  -7    0.92    0.13
  -4   3   7    1.17    0.14
  -4   3   7    0.94    0.14
   3  -3  -7   46.76    1.06
   3  -3  -7   48.16    1.44
   3  -3  -7   48.38    1.20
   3  -3  -7   46.78    1.25
   3  -3  -7   47.82    0.98
  -3   3   7   49.14    1.43
  -3   3   7   44.91    1.05
  -3   3   7   48.09    1.14
  -3   3   7   48.47    1.05
   2  -3  -7   35.92    0.98
   2  -3  -7   36.45    0.77
   2  -3  -7   36.57    1.11
   2  -3  -7   36.09    0.82
  -2   3   7   36.81    0.98
  -2   3   7   38.41    1.10
  -2   3   7   34.95    0.81
  -2   3   7   36.84    0.89
  -2   3   7   36.83    0.89
  -2   3   7   36.97    0.81
   1  -3  -7    1.32    0.17
   1  -3  -7    1.23    0.13
   1  -3  -7    1.08    0.10
   1  -3  -7    1.29    0.16
   1  -3  -7    0.92    0.10
  -1   3   7    1.16    0.14
  -1   3   7    1.29    0.11
  -1   3   7    1.32    0.16
  -1   3   7    1.24    0.11
  -1   3   7    1.16    0.14
  -1   3   7    1.14    0.13
   0  -3  -7    6.46    0.22
   0  -3  -7    7.14    0.28
   0  -3  -7    6.76    0.28
   0  -3  -7    6.32    0.20
   0  -3  -7    6.55    0.21
   0   3   7    6.79    0.24
   0   3   7    6.48    0.23
   0   3   7    6.77    0.28
   0   3   7    6.84    0.19
  -1  -3  -7    5.16    0.17
  -1  -3  -7    5.23    0.18
  -1  -3  -7    5.08    0.24
  -1  -3  -7    5.25    0.23
  -1  -3  -7    5.17    0.18
   1   3   7    4.90    0.19
   1   3   7    5.33    0.20
  -2  -3  -7   81.15    1.59
  -2  -3  -7   76.31    1.59
  -2  -3  -7   75.20    1.91
   2   3   7   81.06    1.73
   2   3   7   75.55    1.72
  -3  -3  -7   25.55    0.65
  -3  -3  -7   24.04    0.68
  -4  -3  -7    0.63    0.13
   6  -4  -7   13.23    0.42
   5  -4  -7   12.59    0.40
   4  -4  -7   18.26    0.48
   4  -4  -7   17.61    0.50
  -4   4   7   17.28    0.49
  -4   4   7   18.31    0.50
   3  -4  -7    6.00    0.28
   3  -4  -7    5.86    0.25
   3  -4  -7    5.27    0.29
   3  -4  -7    5.65    0.24
  -3   4   7    5.71    0.25
  -3   4   7    5.52    0.23
   2  -4  -7   94.57    1.82
   2  -4  -7   92.15    2.33
   2  -4  -7   91.26    1.97
   2  -4  -7   94.43    2.69
  -2   4   7   98.24    2.66
  -2   4   7   94.60    2.13
  -2   4   7   96.32    1.95
  -2   4   7   95.16    2.14
  -2   4   7   88.56    1.95
   1  -4  -7  153.76    3.13
   1  -4  -7  151.00    2.88
   1  -4  -7  152.04    3.69
   1  -4  -7  153.08    4.28
  -1   4   7  149.80    3.10
  -1   4   7  157.78    3.40
  -1   4   7  149.07    3.39
  -1   4   7  156.56    3.10
  -1   4   7  155.61    3.69
   0  -4  -7    2.93    0.17
   0  -4  -7    3.24    0.22
   0  -4  -7    3.02    0.17
   0  -4  -7    3.44    0.21
   0   4   7    3.02    0.20
   0   4   7    2.92    0.18
   0   4   7    3.40    0.22
  -1  -4  -7   17.72    0.44
  -1  -4  -7   18.50    0.59
  -1  -4  -7   17.44    0.40
  -1  -4  -7   17.99    0.54
   1   4   7   18.63    0.48
   1   4   7   17.43    0.47
   1   4   7   17.65    0.53
  -2  -4  -7   10.93    0.37
  -2  -4  -7   11.04    0.39
   2   4   7   10.62    0.32
   2   4   7   10.88    0.33
  -3  -4  -7   10.97    0.39
   3   4   7   10.84    0.32
  -4  -4  -7   32.82    0.86
   5  -5  -7    0.32    0.14
   4  -5  -7   17.61    0.48
   3  -5  -7   23.22    0.61
   3  -5  -7   23.38    0.72
   3  -5  -7   24.03    0.57
   2  -5  -7    1.65    0.17
   2  -5  -7    1.45    0.18
   2  -5  -7    1.77    0.18
  -2   5   7    1.81    0.16
  -2   5   7    1.78    0.20
   1  -5  -7    3.93    0.25
   1  -5  -7    3.50    0.20
   1  -5  -7    3.91    0.21
  -1   5   7    3.83    0.22
  -1   5   7    3.79    0.17
  -1   5   7    3.68    0.23
   0  -5  -7    1.48    0.16
   0  -5  -7    1.44    0.19
   0  -5  -7    1.70    0.17
   0  -5  -7    1.64    0.22
   0   5   7    1.47    0.20
   0   5   7    1.20    0.13
   0   5   7    1.47    0.19
  -1  -5  -7   17.90    0.43
  -1  -5  -7   17.78    0.55
  -1  -5  -7   18.74    0.62
   1   5   7   18.07    0.55
   1   5   7   17.91    0.49
   1   5   7   18.87    0.51
  -2  -5  -7   32.05    0.98
   2   5   7   32.36    0.79
   2   5   7   31.24    0.78
  -3  -5  -7    3.57    0.24
  -3  -5  -7    3.46    0.27
   3   5   7    3.22    0.21
   3   5   7    3.31    0.21
  -4  -5  -7    1.02    0.18
   4   5   7    0.69    0.14
   5  -6  -7    4.88    0.28
   4  -6  -7    4.51    0.28
   3  -6  -7   20.67    0.58
   3  -6  -7   21.82    0.55
   2  -6  -7   43.62    0.92
   2  -6  -7   42.12    1.17
   2  -6  -7   42.05    0.99
   1  -6  -7    3.69    0.22
   1  -6  -7    3.98    0.22
   1  -6  -7    3.61    0.26
  -1   6   7    3.94    0.25
  -1   6   7    3.69    0.18
   0  -6  -7    0.81    0.12
   0  -6  -7    0.51    0.15
   0   6   7    0.76    0.13
   1   6   7    7.80    0.32
   1   6   7    8.06    0.33
   2   6   7   12.28    0.40
   2   6   7   12.34    0.41
  -3  -6  -7    8.54    0.40
   3   6   7    8.30    0.34
   3   6   7    8.04    0.33
   4  -7  -7    8.92    0.36
   3  -7  -7    0.94    0.16
   2  -7  -7    1.35    0.16
   1  -7  -7    4.53    0.26
   0   7   7    0.39    0.14
   1   7   7   13.68    0.46
   2   7   7    8.59    0.36
   2  -8  -7    0.93    0.17
   1  -8  -7    0.05    0.14
   1   9  -8    0.10    0.16
  -1  -9   8   -0.09    0.16
  -1  -9   8    0.26    0.16
   0   9  -8    0.77    0.17
   0  -9   8    0.54    0.17
   0  -9   8    0.99    0.18
  -1   9  -8    2.29    0.24
   1  -9   8    1.82    0.23
   1  -9   8    1.99    0.19
   2  -9   8    0.16    0.15
   3  -9   8    0.81    0.16
   3   8  -8    2.47    0.24
  -3  -8   8    2.22    0.21
   2   8  -8   49.58    1.08
  -2  -8   8   51.36    1.09
  -2  -8   8   49.03    1.27
   1   8  -8   40.09    0.90
  -1  -8   8   40.02    1.04
  -1  -8   8   40.76    0.90
   0   8  -8    0.39    0.14
   0  -8   8    0.32    0.15
   0  -8   8    0.11    0.15
  -1   8  -8   11.38    0.38
   1  -8   8   11.33    0.37
   1  -8   8   11.40    0.39
  -2   8  -8    0.06    0.13
   2  -8   8   -0.16    0.12
  -3   8  -8    0.11    0.14
   3  -8   8    0.10    0.13
   4  -8   8    6.20    0.30
   4   7  -8   31.03    0.74
   3   7  -8    2.73    0.23
  -3  -7   8    2.50    0.27
  -3  -7   8    2.82    0.24
   2   7  -8    0.15    0.13
  -2  -7   8    0.08    0.14
  -2  -7   8    0.05    0.15
   1   7  -8   11.60    0.39
   1   7  -8   11.68    0.37
  -1  -7   8   11.50    0.42
  -1  -7   8   11.96    0.37
   0   7  -8    0.50    0.13
   0   7  -8    0.60    0.13
   0  -7   8    0.56    0.13
   0  -7   8    0.46    0.13
   0  -7   8    0.49    0.13
   0  -7   8    0.55    0.13
  -1   7  -8   14.00    0.40
  -1   7  -8   13.29    0.41
   1  -7   8   13.31    0.41
   1  -7   8   13.74    0.39
  -2   7  -8    1.07    0.15
   2  -7   8    1.33    0.17
   2  -7   8    1.21    0.14
  -3   7  -8    1.25    0.16
   3  -7   8    1.32    0.15
   4  -7   8   -0.13    0.12
   5  -7   8    6.84    0.28
   4   6  -8    0.24    0.13
  -4  -6   8    0.04    0.14
  -4  -6   8    0.17    0.16
   3   6  -8   51.27    1.08
  -3  -6   8   50.70    1.28
  -3  -6   8   51.94    1.09
   2   6  -8  100.33    2.07
   2   6  -8   92.75    2.06
   2   6  -8   96.40    1.91
  -2  -6   8   97.56    2.25
  -2  -6   8  101.29    1.92
   1   6  -8    4.89    0.24
   1   6  -8    4.66    0.23
   1   6  -8    4.55    0.23
   1   6  -8    4.70    0.25
  -1  -6   8    4.76    0.24
  -1  -6   8    4.86    0.26
  -1  -6   8    4.65    0.24
  -1  -6   8    4.70    0.32
  -1  -6   8    3.83    0.26
   0   6  -8    7.94    0.29
   0   6  -8    8.61    0.29
   0  -6   8    8.45    0.31
   0  -6   8    8.46    0.31
   0  -6   8    8.53    0.30
   0  -6   8    8.34    0.29
  -1   6  -8    2.33    0.18
  -1   6  -8    2.50    0.27
  -1   6  -8    2.45    0.19
   1  -6   8    2.82    0.22
   1  -6   8    2.54    0.23
   1  -6   8    2.61    0.18
   1  -6   8    2.61    0.19
   1  -6   8    2.43    0.17
   1  -6   8    2.57    0.18
  -2   6  -8    0.31    0.11
  -2   6  -8    0.23    0.15
   2  -6   8    0.24    0.10
   2  -6   8    0.43    0.13
   2  -6   8    0.39    0.09
   2  -6   8    0.42    0.13
  -3   6  -8   34.78    0.82
  -3   6  -8   35.24    1.12
   3  -6   8   34.81    0.74
   3  -6   8   34.70    0.89
  -4   6  -8   17.04    0.65
   4  -6   8   16.51    0.52
   4  -6   8   16.93    0.42
  -5   6  -8    6.27    0.39
   5  -6   8    5.95    0.32
   5  -6   8    6.06    0.24
   5   5  -8   38.49    0.86
  -5  -5   8   38.56    0.89
   4   5  -8   10.80    0.35
  -4  -5   8   10.77    0.42
  -4  -5   8   11.28    0.37
   3   5  -8    0.01    0.11
   3   5  -8    0.12    0.12
  -3  -5   8    0.31    0.15
  -3  -5   8    0.06    0.12
   2   5  -8   48.87    1.23
   2   5  -8   47.55    1.08
   2   5  -8   49.47    1.01
  -2  -5   8   49.63    1.24
  -2  -5   8   49.37    1.09
  -2  -5   8   50.21    1.48
  -2  -5   8   48.33    1.48
  -2  -5   8   48.90    1.01
  -2  -5   8   47.69    1.18
   1   5  -8   14.24    0.38
   1   5  -8   14.08    0.43
   1   5  -8   13.86    0.44
   1   5  -8   14.03    0.40
  -1  -5   8   13.88    0.53
  -1  -5   8   13.91    0.42
  -1  -5   8   14.37    0.40
  -1  -5   8   14.42    0.44
  -1  -5   8   14.51    0.38
  -1  -5   8   14.45    0.43
   0   5  -8   49.07    1.22
   0   5  -8   49.60    1.00
   0   5  -8   48.48    1.08
   0  -5   8   48.22    1.14
   0  -5   8   48.36    1.45
   0  -5   8   49.41    1.45
   0  -5   8   49.23    1.00
   0  -5   8   51.01    1.17
   0  -5   8   50.20    1.07
   0  -5   8   48.90    1.21
  -1   5  -8   30.90    0.72
  -1   5  -8   32.52    0.98
  -1   5  -8   31.38    0.81
  -1   5  -8   31.15    0.67
  -1   5  -8   30.27    0.71
   1  -5   8   30.25    0.66
   1  -5   8   31.09    0.78
   1  -5   8   30.96    0.70
   1  -5   8   30.64    0.73
   1  -5   8   31.61    0.94
   1  -5   8   29.51    0.78
  -2   5  -8   10.25    0.32
  -2   5  -8   10.09    0.42
   2  -5   8   10.50    0.37
   2  -5   8   10.28    0.29
   2  -5   8   10.26    0.34
   2  -5   8   10.02    0.27
   2  -5   8    9.90    0.29
  -3   5  -8    0.53    0.15
  -3   5  -8    0.58    0.11
   3  -5   8    0.47    0.12
   3  -5   8    0.51    0.10
  -4   5  -8   16.38    0.60
   4  -5   8   17.17    0.39
   4  -5   8   16.69    0.49
  -5   5  -8    5.66    0.34
   5  -5   8    5.64    0.29
   6  -5   8    2.14    0.24
   5   4  -8    3.63    0.24
  -5  -4   8    3.64    0.26
  -5  -4   8    3.30    0.29
   4   4  -8   20.64    0.52
  -4  -4   8   21.11    0.63
  -4  -4   8   21.05    0.54
   3   4  -8  103.17    2.50
   3   4  -8   98.58    2.17
   3   4  -8  105.70    2.02
  -3  -4   8  103.90    2.38
  -3  -4   8  107.06    2.03
  -3  -4   8  105.77    2.49
  -3  -4   8  105.14    2.98
   2   4  -8   31.27    0.68
   2   4  -8   29.86    0.72
   2   4  -8   30.27    0.81
   2   4  -8   30.72    0.81
  -2  -4   8   30.96    0.98
  -2  -4   8   30.53    0.81
  -2  -4   8   30.91    0.97
  -2  -4   8   31.14    0.72
  -2  -4   8   31.93    0.68
  -2  -4   8   29.94    0.78
   1   4  -8    0.50    0.09
   1   4  -8    0.35    0.10
   1   4  -8    0.36    0.09
   1   4  -8    0.42    0.12
   1   4  -8    0.33    0.09
  -1  -4   8    0.43    0.12
  -1  -4   8    0.47    0.10
  -1  -4   8    0.37    0.12
  -1  -4   8    0.44    0.10
  -1  -4   8    0.44    0.09
  -1  -4   8    0.30    0.10
  -1  -4   8    0.46    0.09
   0   4  -8   26.44    0.64
   0   4  -8   25.90    0.57
   0   4  -8   26.27    0.61
   0   4  -8   26.57    0.83
   0   4  -8   26.55    0.70
   0  -4   8   25.74    0.64
   0  -4   8   26.70    0.61
   0  -4   8   26.38    0.57
   0  -4   8   26.43    0.66
   0  -4   8   26.77    0.81
   0  -4   8   25.46    0.67
   0  -4   8   26.16    0.81
  -1   4  -8    8.31    0.35
  -1   4  -8    8.26    0.26
  -1   4  -8    8.24    0.29
  -1   4  -8    8.31    0.25
   1  -4   8    8.43    0.24
   1  -4   8    8.03    0.24
   1  -4   8    8.22    0.31
   1  -4   8    8.21    0.24
   1  -4   8    8.14    0.25
   1  -4   8    8.17    0.28
  -2   4  -8  102.59    2.40
  -2   4  -8  101.87    2.89
  -2   4  -8  104.18    2.12
   2  -4   8  100.89    2.29
   2  -4   8  103.91    1.94
  -3   4  -8   58.43    1.72
  -3   4  -8   61.51    1.27
   3  -4   8   60.15    1.14
   3  -4   8   58.20    1.37
  -4   4  -8    9.50    0.40
   4  -4   8   11.06    0.35
   4  -4   8    9.86    0.34
  -5   4  -8   12.86    0.50
   5  -4   8   13.33    0.42
   5  -4   8   13.71    0.42
   6  -4   8    0.11    0.14
   6   3  -8   22.93    0.58
  -6  -3   8   22.37    0.61
   5   3  -8   16.44    0.45
  -5  -3   8   16.53    0.46
  -5  -3   8   15.69    0.54
   4   3  -8    0.19    0.11
   4   3  -8    0.33    0.11
   4   3  -8    0.41    0.11
  -4  -3   8    0.45    0.13
  -4  -3   8    0.25    0.14
   3   3  -8   85.52    2.07
   3   3  -8   85.14    1.66
   3   3  -8   84.21    1.80
   3   3  -8   83.63    2.44
  -3  -3   8   86.75    2.46
  -3  -3   8   84.88    1.96
  -3  -3   8   84.68    1.67
  -3  -3   8   85.06    1.80
  -3  -3   8   86.14    2.05
   2   3  -8  130.19    3.05
   2   3  -8  131.93    3.67
   2   3  -8  127.29    2.68
   2   3  -8  132.57    2.90
   2   3  -8  130.89    3.13
   2   3  -8  129.58    2.48
  -2  -3   8  128.50    2.47
  -2  -3   8  133.78    3.05
  -2  -3   8  133.92    2.68
  -2  -3   8  134.28    3.67
  -2  -3   8  132.38    2.91
  -2  -3   8  121.08    2.90
   1   3  -8   46.41    1.17
   1   3  -8   45.92    1.00
   1   3  -8   45.69    1.07
   1   3  -8   45.83    0.92
   1   3  -8   46.98    1.14
   1   3  -8   46.41    1.36
  -1  -3   8   45.12    1.35
  -1  -3   8   45.44    1.07
  -1  -3   8   45.53    1.12
  -1  -3   8   46.45    1.08
  -1  -3   8   45.37    0.92
  -1  -3   8   46.70    1.35
  -1  -3   8   46.29    0.99
   0   3  -8  147.73    3.57
   0   3  -8  148.39    3.03
   0   3  -8  144.90    2.79
   0   3  -8  153.86    3.27
   0   3  -8  151.38    4.16
   0   3  -8  150.48    3.46
   0  -3   8  150.83    3.29
   0  -3   8  146.78    4.13
   0  -3   8  150.74    3.27
   0  -3   8  147.69    3.43
   0  -3   8  149.65    3.02
   0  -3   8  151.48    4.13
   0  -3   8  147.33    2.79
  -1   3  -8   36.16    1.07
  -1   3  -8   36.96    0.79
  -1   3  -8   37.66    1.08
  -1   3  -8   36.82    0.90
  -1   3  -8   36.25    0.73
   1  -3   8   36.43    0.85
   1  -3   8   35.90    0.72
   1  -3   8   36.52    0.77
   1  -3   8   34.01    0.85
   1  -3   8   35.84    0.81
  -2   3  -8   10.15    0.37
  -2   3  -8    9.71    0.27
  -2   3  -8    9.57    0.29
  -2   3  -8    9.05    0.35
   2  -3   8    9.74    0.24
   2  -3   8    9.49    0.29
  -3   3  -8   15.18    0.37
  -3   3  -8   14.60    0.40
  -3   3  -8   14.53    0.36
  -3   3  -8   13.48    0.47
   3  -3   8   14.01    0.39
  -4   3  -8   18.75    0.62
   4  -3   8   20.38    0.51
   4  -3   8   19.31    0.51
  -5   3  -8    0.57    0.13
   5  -3   8    0.56    0.12
   5  -3   8    0.65    0.11
   6  -3   8    3.44    0.23
   6  -3   8    3.33    0.24
   6   2  -8    3.82    0.25
   5   2  -8    1.96    0.20
  -5  -2   8    1.62    0.17
  -5  -2   8    1.98    0.24
   4   2  -8   43.01    0.90
   4   2  -8   41.13    0.96
   4   2  -8   43.39    1.10
  -4  -2   8   41.08    1.06
  -4  -2   8   42.30    0.91
  -4  -2   8   43.60    1.11
  -4  -2   8   43.14    1.32
   3   2  -8   46.17    1.39
   3   2  -8   45.84    1.03
   3   2  -8   47.21    1.18
   3   2  -8   46.28    1.16
   3   2  -8   46.33    0.96
  -3  -2   8   48.12    1.19
  -3  -2   8   46.33    1.03
  -3  -2   8   46.66    1.40
  -3  -2   8   45.97    1.17
  -3  -2   8   45.91    0.96
  -3  -2   8   45.49    1.12
   2   2  -8    9.26    0.38
   2   2  -8    9.23    0.27
   2   2  -8    9.18    0.28
   2   2  -8    9.19    0.31
   2   2  -8    8.94    0.31
  -2  -2   8    8.61    0.31
  -2  -2   8    9.04    0.27
  -2  -2   8    9.35    0.31
  -2  -2   8    9.31    0.31
  -2  -2   8    9.27    0.28
   1   2  -8   75.35    2.11
   1   2  -8   72.87    1.42
   1   2  -8   74.33    1.66
   1   2  -8   72.68    1.81
   1   2  -8   72.45    1.76
   1   2  -8   75.22    1.55
  -1  -2   8   74.78    1.54
  -1  -2   8   76.51    2.10
  -1  -2   8   74.54    1.67
  -1  -2   8   71.98    1.42
  -1  -2   8   71.79    2.09
  -1  -2   8   73.62    1.74
  -1  -2   8   75.44    1.66
   0   2  -8   55.79    1.57
   0   2  -8   55.24    1.31
   0   2  -8   53.78    1.06
   0   2  -8   56.01    1.15
   0   2  -8   55.25    1.37
   0   2  -8   55.69    1.23
   0  -2   8   52.81    1.54
   0  -2   8   54.30    1.23
   0  -2   8   53.59    1.06
   0  -2   8   54.27    1.24
   0  -2   8   52.11    1.28
   0  -2   8   57.57    1.54
   0  -2   8   54.17    1.14
  -1   2  -8  147.95    2.93
  -1   2  -8  144.68    2.70
  -1   2  -8  151.68    4.02
  -1   2  -8  139.24    4.02
  -1   2  -8  144.68    3.15
  -1   2  -8  141.23    3.34
   1  -2   8  146.37    2.69
   1  -2   8  147.26    2.90
   1  -2   8  144.08    3.18
  -2   2  -8  144.41    2.88
  -2   2  -8  137.31    3.27
  -2   2  -8  155.57    3.95
  -2   2  -8  136.49    3.94
   2  -2   8  140.82    3.12
  -3   2  -8   17.64    0.51
  -3   2  -8   14.91    0.50
  -3   2  -8   16.54    0.42
  -3   2  -8   16.63    0.38
   3  -2   8   15.57    0.41
   3  -2   8   16.86    0.42
  -4   2  -8   14.05    0.37
  -4   2  -8   13.02    0.44
   4  -2   8   14.45    0.37
   4  -2   8   13.26    0.36
  -5   2  -8    4.43    0.23
   5  -2   8    5.31    0.21
   5  -2   8    4.84    0.21
   6  -2   8    0.01    0.11
   6  -2   8   -0.01    0.10
   6   1  -8   10.80    0.36
  -6  -1   8    9.70    0.44
   5   1  -8    0.98    0.15
   5   1  -8    1.20    0.14
  -5  -1   8    0.93    0.18
   4   1  -8   65.05    1.45
   4   1  -8   68.06    1.69
   4   1  -8   66.52    1.35
  -4  -1   8   69.58    1.70
  -4  -1   8   66.77    1.98
  -4  -1   8   67.10    1.59
  -4  -1   8   67.87    1.35
  -4  -1   8   68.45    1.66
   3   1  -8  278.41    6.47
   3   1  -8  283.51    6.17
   3   1  -8  281.20    5.24
   3   1  -8  277.52    6.67
   3   1  -8  275.99    5.69
   3   1  -8  278.43    7.79
  -3  -1   8  286.93    6.48
  -3  -1   8  283.87    7.80
  -3  -1   8  276.60    6.17
  -3  -1   8  282.03    5.69
  -3  -1   8  288.51    5.24
  -3  -1   8  291.10    6.67
   2   1  -8    0.43    0.08
   2   1  -8    0.68    0.10
   2   1  -8    0.41    0.09
   2   1  -8    0.52    0.12
   2   1  -8    0.58    0.09
  -2  -1   8    0.59    0.10
  -2  -1   8    0.48    0.11
  -2  -1   8    0.42    0.09
  -2  -1   8    0.55    0.08
  -2  -1   8    0.32    0.10
  -2  -1   8    0.50    0.09
  -2  -1   8    0.62    0.09
   1   1  -8  248.01    5.30
   1   1  -8  237.50    5.75
   1   1  -8  247.39    6.71
   1   1  -8  242.12    4.89
   1   1  -8  236.48    4.50
   1   1  -8  241.82    5.57
  -1  -1   8  250.57    6.70
  -1  -1   8  242.16    4.50
  -1  -1   8  236.84    5.55
  -1  -1   8  244.96    5.30
  -1  -1   8  246.59    4.88
  -1  -1   8  245.81    5.31
   0   1  -8   79.48    1.53
   0   1  -8   84.93    2.27
   0   1  -8   80.02    1.97
   0   1  -8   83.04    1.79
   0   1  -8   81.94    1.66
   0   1  -8   79.76    1.89
   0  -1   8   80.03    1.52
   0  -1   8   82.26    1.64
   0  -1   8   80.12    1.80
   0  -1   8   81.39    1.64
   0  -1   8   73.99    2.22
  -1   1  -8   28.17    0.64
  -1   1  -8   27.78    0.60
  -1   1  -8   27.12    0.81
  -1   1  -8   27.69    0.56
  -1   1  -8   26.66    0.68
  -1   1  -8   27.96    0.75
  -1   1  -8   29.40    0.82
   1  -1   8   26.87    0.65
  -2   1  -8    0.59    0.05
  -2   1  -8    0.60    0.06
   2  -1   8    0.64    0.08
   6  -1   8    0.19    0.09
   6  -1   8    0.18    0.09
   6   0  -8    0.34    0.13
  -6   0   8    0.01    0.17
   5   0  -8    3.14    0.22
   5   0  -8    3.28    0.25
  -5   0   8    3.00    0.26
  -5   0   8    2.90    0.22
   4   0  -8   20.55    0.73
   4   0  -8   20.93    0.52
   4   0  -8   20.08    0.54
   4   0  -8   22.33    0.64
  -4   0   8   20.94    0.74
  -4   0   8   20.57    0.56
  -4   0   8   21.29    0.62
  -4   0   8   22.55    0.62
  -4   0   8   22.46    0.65
   3   0  -8   28.79    0.92
   3   0  -8   29.71    0.78
   3   0  -8   29.68    0.65
   3   0  -8   29.68    0.80
   3   0  -8   28.98    0.69
  -3   0   8   30.38    0.81
  -3   0   8   29.25    0.75
  -3   0   8   28.22    0.91
  -3   0   8   27.64    0.76
  -3   0   8   30.03    0.74
  -3   0   8   29.49    0.69
   2   0  -8   93.57    2.22
   2   0  -8   95.30    1.95
   2   0  -8   92.78    1.80
   2   0  -8   94.13    2.66
   2   0  -8   92.51    2.29
  -2   0   8   93.52    2.11
  -2   0   8   96.16    2.65
  -2   0   8   94.12    2.12
  -2   0   8   92.53    1.94
  -2   0   8   92.33    1.94
  -2   0   8   95.42    2.29
   1   0  -8  104.41    1.99
   1   0  -8  103.42    2.45
   1   0  -8  103.39    2.55
   1   0  -8  106.11    2.95
   1   0  -8  105.55    2.34
   1   0  -8  105.83    2.16
  -1   0   8  107.32    2.15
  -1   0   8  106.72    2.15
  -1   0   8  102.94    2.55
  -1   0   8  108.86    2.93
  -1   0   8  103.91    2.34
   0   0  -8   69.41    1.34
   0   0  -8   68.67    1.66
   0   0  -8   71.66    1.46
   0   0  -8   70.01    1.75
   0   0  -8   73.79    2.00
   0   0  -8   72.28    1.58
   0   0   8   69.67    1.58
   0   0   8   72.08    1.43
   0   0   8   68.37    1.33
   0   0   8   71.47    1.43
  -1   0  -8  191.91    4.10
  -1   0  -8  182.99    3.48
  -1   0  -8  197.40    5.18
  -1   0  -8  189.34    3.78
  -1   0  -8  186.92    4.49
   1   0   8  183.14    4.10
  -2   0  -8   19.68    0.40
  -2   0  -8   20.23    0.58
  -3   0  -8   14.73    0.37
   6  -1  -8    1.31    0.16
  -6   1   8    1.57    0.22
   5  -1  -8   26.11    0.63
   5  -1  -8   28.13    0.79
  -5   1   8   26.63    0.75
  -5   1   8   24.98    0.68
   4  -1  -8  253.81    7.08
   4  -1  -8  258.76    6.07
   4  -1  -8  262.55    4.77
   4  -1  -8  249.15    5.17
  -4   1   8  256.55    5.17
  -4   1   8  257.27    5.62
  -4   1   8  245.94    5.18
   3  -1  -8   30.54    0.68
   3  -1  -8   31.36    0.73
   3  -1  -8   31.67    0.86
   3  -1  -8   31.37    0.99
   3  -1  -8   31.86    0.83
  -3   1   8   31.54    0.80
  -3   1   8   31.74    0.98
  -3   1   8   30.11    0.73
  -3   1   8   31.50    0.86
  -3   1   8   32.00    0.73
  -3   1   8   31.94    0.79
   2  -1  -8  123.36    2.88
   2  -1  -8  119.24    2.97
   2  -1  -8  124.43    2.33
   2  -1  -8  122.40    2.53
   2  -1  -8  124.71    3.46
  -2   1   8  125.18    2.52
  -2   1   8  121.76    2.74
  -2   1   8  121.64    2.52
  -2   1   8  119.80    2.97
  -2   1   8  122.35    2.73
  -2   1   8  127.48    3.44
   1  -1  -8   78.35    1.98
   1  -1  -8   81.18    1.67
   1  -1  -8   79.62    1.54
   1  -1  -8   79.22    1.90
   1  -1  -8   81.88    2.28
  -1   1   8   80.88    1.65
  -1   1   8   79.67    1.65
  -1   1   8   81.33    1.81
  -1   1   8   79.21    1.98
  -1   1   8   83.23    2.25
   0  -1  -8   30.69    0.67
   0  -1  -8   31.53    0.74
   0  -1  -8   30.73    0.82
   0  -1  -8   29.67    0.62
   0  -1  -8   31.87    0.91
   0   1   8   30.67    0.83
   0   1   8   30.80    0.72
   0   1   8   30.55    0.61
  -1  -1  -8   10.76    0.26
  -1  -1  -8   11.62    0.35
  -1  -1  -8   11.58    0.27
  -1  -1  -8   10.98    0.37
  -1  -1  -8   11.06    0.27
   1   1   8   10.78    0.28
  -2  -1  -8    5.83    0.26
  -3  -1  -8    3.35    0.21
  -3  -1  -8    3.53    0.18
  -4  -1  -8    4.33    0.20
  -4  -1  -8    4.19    0.24
   6  -2  -8    0.94    0.16
   5  -2  -8    1.71    0.17
   4  -2  -8   24.85    0.64
   4  -2  -8   26.99    0.77
   4  -2  -8   25.89    0.61
  -4   2   8   26.06    0.65
  -4   2   8   24.42    0.64
   3  -2  -8   64.38    1.28
   3  -2  -8   64.24    1.57
   3  -2  -8   63.88    1.38
   3  -2  -8   64.66    1.88
   3  -2  -8   61.82    1.63
  -3   2   8   63.88    1.37
  -3   2   8   62.42    1.38
  -3   2   8   65.22    1.87
  -3   2   8   65.65    1.50
   2  -2  -8   79.61    2.26
   2  -2  -8   78.21    1.66
   2  -2  -8   76.46    1.53
   2  -2  -8   79.64    1.89
   2  -2  -8   76.31    1.96
  -2   2   8   80.32    1.80
  -2   2   8   80.58    1.96
  -2   2   8   79.63    1.79
  -2   2   8   74.70    1.64
  -2   2   8   79.46    1.64
  -2   2   8   80.73    2.24
   1  -2  -8    5.36    0.26
   1  -2  -8    5.50    0.27
   1  -2  -8    5.85    0.21
   1  -2  -8    5.50    0.20
  -1   2   8    5.62    0.26
  -1   2   8    5.68    0.23
  -1   2   8    5.39    0.18
  -1   2   8    5.46    0.22
  -1   2   8    5.87    0.24
  -1   2   8    5.34    0.18
   0  -2  -8   94.44    2.31
   0  -2  -8   96.97    2.64
   0  -2  -8   91.82    1.78
   0  -2  -8   94.80    1.93
   0  -2  -8   95.71    1.93
   0   2   8   93.31    1.76
   0   2   8   91.44    2.09
   0   2   8   96.11    2.10
   0   2   8   93.74    2.30
  -1  -2  -8   14.64    0.46
  -1  -2  -8   14.48    0.35
  -1  -2  -8   15.07    0.35
  -1  -2  -8   15.44    0.46
  -1  -2  -8   14.11    0.32
   1   2   8   14.16    0.37
  -2  -2  -8   17.86    0.37
  -2  -2  -8   18.63    0.55
  -3  -2  -8   53.47    1.22
  -3  -2  -8   51.63    1.34
  -4  -2  -8   16.11    0.46
  -4  -2  -8   15.76    0.50
   6  -3  -8    5.76    0.30
   5  -3  -8  126.57    2.46
   4  -3  -8   59.47    1.20
   4  -3  -8   57.51    1.29
   4  -3  -8   57.59    1.53
  -4   3   8   60.42    1.29
  -4   3   8   55.98    1.29
   3  -3  -8   19.89    0.49
   3  -3  -8   19.82    0.52
   3  -3  -8   19.59    0.62
   3  -3  -8   19.83    0.59
  -3   3   8   20.57    0.51
  -3   3   8   18.63    0.50
  -3   3   8   20.52    0.56
   2  -3  -8   30.59    0.67
   2  -3  -8   30.98    0.97
   2  -3  -8   31.57    0.73
   2  -3  -8   30.03    0.81
   2  -3  -8   30.16    0.86
  -2   3   8   31.50    0.79
  -2   3   8   32.13    0.95
  -2   3   8   31.53    0.78
  -2   3   8   31.79    0.71
  -2   3   8   29.35    0.70
   1  -3  -8   14.25    0.36
   1  -3  -8   13.76    0.38
   1  -3  -8   14.42    0.47
   1  -3  -8   14.49    0.38
   1  -3  -8   14.57    0.51
  -1   3   8   14.33    0.42
  -1   3   8   14.43    0.41
  -1   3   8   14.50    0.48
  -1   3   8   13.76    0.35
  -1   3   8   14.43    0.36
   0  -3  -8   26.43    0.80
   0  -3  -8   25.76    0.55
   0  -3  -8   25.87    0.60
   0  -3  -8   26.59    0.73
   0  -3  -8   25.62    0.60
   0   3   8   25.80    0.53
   0   3   8   26.50    0.73
   0   3   8   26.21    0.64
   0   3   8   26.11    0.65
  -1  -3  -8    1.95    0.13
  -1  -3  -8    2.03    0.14
  -1  -3  -8    1.86    0.19
  -1  -3  -8    2.10    0.13
   1   3   8    1.92    0.15
   1   3   8    1.98    0.14
  -2  -3  -8    1.35    0.12
  -2  -3  -8    1.92    0.18
  -2  -3  -8    1.63    0.13
   2   3   8    1.37    0.13
   2   3   8    1.32    0.14
  -3  -3  -8    2.57    0.20
  -3  -3  -8    2.97    0.21
  -4  -3  -8    0.57    0.13
   5  -4  -8   11.33    0.39
   4  -4  -8   27.72    0.71
   4  -4  -8   28.77    0.67
   3  -4  -8   29.11    0.71
   3  -4  -8   29.56    0.85
   3  -4  -8   30.19    0.67
  -3   4   8   27.26    0.69
   2  -4  -8    0.57    0.15
   2  -4  -8    0.82    0.12
   2  -4  -8    0.76    0.12
  -2   4   8    0.63    0.12
  -2   4   8    0.90    0.11
  -2   4   8    0.61    0.10
  -2   4   8    0.89    0.12
   1  -4  -8   15.27    0.42
   1  -4  -8   15.41    0.56
   1  -4  -8   14.68    0.50
   1  -4  -8   15.83    0.40
  -1   4   8   15.62    0.46
  -1   4   8   15.16    0.38
  -1   4   8   15.58    0.38
  -1   4   8   15.15    0.44
   0  -4  -8    9.29    0.29
   0  -4  -8    9.12    0.36
   0  -4  -8    9.54    0.28
   0  -4  -8    9.68    0.39
   0   4   8    9.46    0.31
   0   4   8    9.98    0.33
   0   4   8    9.67    0.37
  -1  -4  -8   19.47    0.59
  -1  -4  -8   19.66    0.64
  -1  -4  -8   19.63    0.44
   1   4   8   20.49    0.53
   1   4   8   19.12    0.51
  -2  -4  -8   39.59    1.14
  -2  -4  -8   38.45    1.02
   2   4   8   37.02    0.91
   2   4   8   39.81    0.92
  -3  -4  -8   30.84    0.80
   3   4   8   28.56    0.72
   3   4   8   31.48    0.73
  -4  -4  -8    6.02    0.32
   5  -5  -8   37.76    0.87
   4  -5  -8    0.05    0.13
   3  -5  -8    4.33    0.24
   3  -5  -8    3.88    0.23
   2  -5  -8    1.95    0.25
   2  -5  -8    2.26    0.19
   2  -5  -8    2.24    0.21
  -2   5   8    2.69    0.23
  -2   5   8    2.12    0.17
   1  -5  -8   16.80    0.56
   1  -5  -8   18.16    0.45
   1  -5  -8   16.66    0.46
  -1   5   8   17.77    0.51
  -1   5   8   16.86    0.42
   0  -5  -8   11.12    0.42
   0  -5  -8   11.55    0.33
   0   5   8   11.69    0.38
   0   5   8   11.56    0.37
  -1  -5  -8   -0.01    0.12
  -1  -5  -8   -0.02    0.12
   1   5   8   -0.12    0.11
   1   5   8   -0.09    0.10
  -2  -5  -8    1.58    0.21
   2   5   8    1.04    0.13
   2   5   8    1.37    0.14
  -3  -5  -8    2.90    0.26
   3   5   8    3.01    0.21
   3   5   8    3.01    0.20
   4  -6  -8    6.02    0.30
   3  -6  -8    1.39    0.16
   2  -6  -8    0.09    0.12
   2  -6  -8    0.25    0.13
   1  -6  -8    7.32    0.36
   1  -6  -8    7.27    0.28
  -1   6   8    7.33    0.33
  -1   6   8    7.36    0.24
   0  -6  -8   15.66    0.42
   0  -6  -8   14.98    0.53
   0   6   8   15.15    0.47
   1   6   8   11.79    0.40
   1   6   8   12.36    0.42
   2   6   8   24.00    0.66
   2   6   8   26.13    0.68
   3  -7  -8    0.08    0.14
   2  -7  -8    4.98    0.28
   1  -7  -8    8.89    0.34
   0   7   8    0.61    0.16
   1   7   8    0.73    0.16
   1   9  -9    0.92    0.17
  -1  -9   9    0.81    0.18
  -1  -9   9    0.62    0.18
   0   9  -9    1.97    0.21
   0  -9   9    2.24    0.25
   0  -9   9    2.42    0.26
  -1   9  -9    0.27    0.16
   1  -9   9    0.02    0.15
   2  -9   9   -0.10    0.14
   2   8  -9    0.25    0.15
  -2  -8   9    0.28    0.16
  -2  -8   9   -0.27    0.16
   1   8  -9    9.99    0.37
  -1  -8   9   10.32    0.41
  -1  -8   9   10.64    0.38
   0   8  -9    6.33    0.29
   0  -8   9    5.94    0.29
   0  -8   9    5.82    0.31
  -1   8  -9    5.73    0.28
   1  -8   9    6.00    0.29
   1  -8   9    5.65    0.28
   2  -8   9   15.28    0.44
   3  -8   9    1.24    0.16
   4  -8   9   48.67    1.03
   3   7  -9    0.70    0.15
  -3  -7   9    0.54    0.15
  -3  -7   9    0.26    0.17
   2   7  -9    2.71    0.23
  -2  -7   9    2.51    0.24
  -2  -7   9    2.11    0.26
   1   7  -9    0.01    0.12
  -1  -7   9   -0.07    0.13
   0   7  -9    4.23    0.24
   0   7  -9    3.83    0.23
   0  -7   9    3.77    0.24
   0  -7   9    3.84    0.24
  -1   7  -9    2.55    0.21
  -1   7  -9    2.71    0.21
   1  -7   9    2.47    0.21
   1  -7   9    2.22    0.20
  -2   7  -9   27.93    0.71
   2  -7   9   29.02    0.65
   3  -7   9   24.78    0.58
   4  -7   9    1.88    0.20
   4   6  -9   13.30    0.41
  -4  -6   9   13.66    0.44
  -4  -6   9   13.50    0.50
   3   6  -9    0.88    0.15
  -3  -6   9    0.98    0.16
  -3  -6   9    0.53    0.17
   2   6  -9    4.31    0.24
  -2  -6   9    4.63    0.25
  -2  -6   9    3.82    0.28
   1   6  -9    0.68    0.12
   1   6  -9    0.61    0.12
   1   6  -9    0.81    0.13
  -1  -6   9    0.52    0.12
  -1  -6   9    0.56    0.12
  -1  -6   9    0.42    0.13
  -1  -6   9    0.74    0.13
   0   6  -9   13.95    0.41
   0   6  -9   14.71    0.40
   0  -6   9   14.24    0.42
   0  -6   9   14.81    0.42
   0  -6   9   14.37    0.39
   0  -6   9   14.33    0.45
  -1   6  -9   84.97    2.39
  -1   6  -9   79.35    1.74
  -1   6  -9   82.60    1.61
   1  -6   9   81.29    1.84
   1  -6   9   80.95    1.60
   1  -6   9   82.54    1.89
   1  -6   9   80.62    1.72
  -2   6  -9    3.78    0.22
  -2   6  -9    4.26    0.32
   2  -6   9    4.04    0.21
   2  -6   9    3.48    0.25
  -3   6  -9  101.79    2.16
  -3   6  -9  102.10    2.95
   3  -6   9  102.99    2.34
   3  -6   9  103.49    1.97
  -4   6  -9   56.51    1.71
   4  -6   9   55.55    1.36
   4  -6   9   57.83    1.13
  -5   6  -9    1.24    0.22
   5  -6   9    1.15    0.18
   5   5  -9    0.17    0.14
  -5  -5   9    0.07    0.16
   4   5  -9    2.23    0.21
  -4  -5   9    2.33    0.26
  -4  -5   9    2.07    0.23
   3   5  -9   -0.15    0.12
  -3  -5   9    0.01    0.14
  -3  -5   9    0.03    0.13
   2   5  -9    7.80    0.30
   2   5  -9    8.06    0.29
   2   5  -9    7.56    0.28
  -2  -5   9    8.12    0.30
  -2  -5   9    8.04    0.40
  -2  -5   9    7.39    0.32
  -2  -5   9    8.01    0.32
  -2  -5   9    8.09    0.28
   1   5  -9   24.03    0.61
   1   5  -9   24.50    0.69
   1   5  -9   25.11    0.57
   1   5  -9   24.68    0.69
  -1  -5   9   25.13    0.81
  -1  -5   9   25.03    0.57
  -1  -5   9   24.68    0.61
  -1  -5   9   24.83    0.68
  -1  -5   9   24.51    0.64
  -1  -5   9   23.80    0.81
   0   5  -9   15.58    0.40
   0   5  -9   15.51    0.48
   0   5  -9   15.09    0.42
   0  -5   9   15.68    0.55
   0  -5   9   15.14    0.43
   0  -5   9   15.67    0.41
   0  -5   9   15.95    0.46
   0  -5   9   15.08    0.45
   0  -5   9   15.44    0.40
  -1   5  -9   32.23    0.75
  -1   5  -9   32.33    0.85
  -1   5  -9   32.49    0.70
  -1   5  -9   33.86    1.04
   1  -5   9   31.81    0.82
   1  -5   9   32.98    0.74
   1  -5   9   32.18    0.77
   1  -5   9   31.99    0.69
   1  -5   9   32.98    0.82
   1  -5   9   34.00    0.99
  -2   5  -9   59.35    1.44
  -2   5  -9   59.57    1.73
  -2   5  -9   57.43    1.26
   2  -5   9   58.67    1.23
   2  -5   9   58.55    1.37
   2  -5   9   57.10    1.15
  -3   5  -9    0.47    0.16
  -3   5  -9    0.51    0.12
   3  -5   9    0.57    0.10
   3  -5   9    0.54    0.13
  -4   5  -9    0.28    0.15
   4  -5   9    0.27    0.13
   4  -5   9    0.41    0.08
  -5   5  -9    0.63    0.17
   5  -5   9    0.71    0.15
   5   4  -9   13.52    0.41
  -5  -4   9   12.47    0.50
  -5  -4   9   13.76    0.43
   4   4  -9    5.03    0.26
  -4  -4   9    5.11    0.31
  -4  -4   9    5.44    0.27
   3   4  -9    0.36    0.12
   3   4  -9    0.42    0.11
   3   4  -9    0.46    0.11
  -3  -4   9    0.35    0.12
  -3  -4   9    0.22    0.14
  -3  -4   9    0.30    0.12
   2   4  -9    5.59    0.23
   2   4  -9    5.70    0.32
   2   4  -9    5.47    0.23
   2   4  -9    5.18    0.24
   2   4  -9    5.48    0.26
  -2  -4   9    5.12    0.26
  -2  -4   9    5.78    0.26
  -2  -4   9    5.33    0.33
  -2  -4   9    5.73    0.24
  -2  -4   9    5.73    0.25
  -2  -4   9    5.55    0.30
   1   4  -9    5.43    0.22
   1   4  -9    5.65    0.23
   1   4  -9    5.93    0.25
   1   4  -9    6.09    0.31
   1   4  -9    5.63    0.25
  -1  -4   9    5.30    0.22
  -1  -4   9    5.44    0.24
  -1  -4   9    5.35    0.28
  -1  -4   9    5.35    0.22
  -1  -4   9    5.28    0.29
  -1  -4   9    5.23    0.24
  -1  -4   9    5.92    0.25
   0   4  -9  203.05    4.78
   0   4  -9  206.59    3.86
   0   4  -9  206.03    4.20
   0   4  -9  210.46    4.52
   0   4  -9  203.72    5.75
   0  -4   9  205.42    4.75
   0  -4   9  207.96    4.55
   0  -4   9  203.86    3.86
   0  -4   9  213.53    5.72
   0  -4   9  204.71    4.52
   0  -4   9  212.08    4.19
  -1   4  -9   58.31    1.69
  -1   4  -9   58.54    1.69
  -1   4  -9   58.56    1.14
  -1   4  -9   58.29    1.41
  -1   4  -9   57.22    1.23
   1  -4   9   56.89    1.29
   1  -4   9   53.44    1.35
   1  -4   9   60.66    1.64
   1  -4   9   58.31    1.34
   1  -4   9   57.87    1.21
   1  -4   9   57.03    1.13
  -2   4  -9  127.02    3.64
  -2   4  -9  131.88    2.66
  -2   4  -9  129.26    3.03
   2  -4   9  128.62    2.88
   2  -4   9  131.09    2.43
   2  -4   9  131.25    2.62
  -3   4  -9  130.38    3.72
  -3   4  -9  131.75    3.09
  -3   4  -9  134.88    2.72
   3  -4   9  137.60    2.47
   3  -4   9  129.63    2.95
  -4   4  -9    0.64    0.14
   4  -4   9    0.61    0.12
  -5   4  -9    1.61    0.21
   5  -4   9    1.65    0.20
   5  -4   9    1.44    0.15
   6  -4   9   14.46    0.46
   5   3  -9   11.16    0.36
  -5  -3   9   10.32    0.43
  -5  -3   9   11.16    0.38
   4   3  -9   11.74    0.36
   4   3  -9   11.49    0.40
  -4  -3   9   11.37    0.37
  -4  -3   9   11.67    0.43
   3   3  -9   13.56    0.42
   3   3  -9   13.14    0.52
   3   3  -9   13.27    0.37
   3   3  -9   13.00    0.38
  -3  -3   9   12.91    0.43
  -3  -3   9   13.80    0.40
  -3  -3   9   12.83    0.51
  -3  -3   9   13.51    0.38
  -3  -3   9   13.48    0.44
   2   3  -9   64.80    1.59
   2   3  -9   65.80    1.63
   2   3  -9   64.38    1.90
   2   3  -9   63.53    1.40
   2   3  -9   65.32    1.30
  -2  -3   9   65.81    1.52
  -2  -3   9   64.99    1.90
  -2  -3   9   67.04    1.40
  -2  -3   9   66.32    1.30
  -2  -3   9   66.20    1.59
  -2  -3   9   65.19    1.52
   1   3  -9   36.49    0.92
   1   3  -9   36.40    0.95
   1   3  -9   36.72    1.10
   1   3  -9   37.09    0.76
   1   3  -9   35.61    0.81
  -1  -3   9   36.95    0.88
  -1  -3   9   36.74    0.81
  -1  -3   9   35.32    0.75
  -1  -3   9   36.99    1.09
  -1  -3   9   36.16    0.87
  -1  -3   9   35.93    0.91
  -1  -3   9   34.30    1.08
   0   3  -9   12.28    0.41
   0   3  -9   12.12    0.45
   0   3  -9   12.15    0.34
   0   3  -9   12.62    0.35
   0   3  -9   11.98    0.32
   0   3  -9   12.57    0.38
   0  -3   9   12.30    0.42
   0  -3   9   11.72    0.34
   0  -3   9   12.02    0.32
   0  -3   9   12.56    0.37
   0  -3   9   12.59    0.32
   0  -3   9   12.36    0.34
  -1   3  -9   58.22    1.43
  -1   3  -9   59.61    1.72
  -1   3  -9   59.35    1.16
  -1   3  -9   61.06    1.26
  -1   3  -9   61.88    1.72
   1  -3   9   59.19    1.15
   1  -3   9   59.67    1.36
   1  -3   9   58.81    1.32
  -2   3  -9    0.08    0.08
  -2   3  -9    0.06    0.09
  -2   3  -9    0.05    0.11
  -2   3  -9    0.00    0.12
   2  -3   9    0.11    0.07
   2  -3   9    0.09    0.09
  -3   3  -9    1.72    0.17
  -3   3  -9    1.58    0.14
  -3   3  -9    1.92    0.20
  -3   3  -9    1.74    0.14
   3  -3   9    1.82    0.16
  -4   3  -9   14.32    0.41
  -4   3  -9   13.37    0.48
   4  -3   9   14.89    0.40
   4  -3   9   13.93    0.40
  -5   3  -9    1.80    0.19
   5  -3   9    2.47    0.18
   5  -3   9    1.63    0.18
   6  -3   9    2.12    0.21
   6  -3   9    2.03    0.21
   6   2  -9    4.91    0.27
   5   2  -9    7.48    0.31
  -5  -2   9    7.86    0.31
  -5  -2   9    7.44    0.36
   4   2  -9    0.59    0.12
   4   2  -9    0.37    0.12
   4   2  -9    0.36    0.11
  -4  -2   9    0.39    0.15
  -4  -2   9    0.42    0.12
  -4  -2   9    0.54    0.13
   3   2  -9   19.28    0.50
   3   2  -9   19.17    0.57
   3   2  -9   19.33    0.57
   3   2  -9   18.85    0.67
   3   2  -9   19.18    0.48
  -3  -2   9   19.13    0.55
  -3  -2   9   19.08    0.58
  -3  -2   9   19.54    0.48
  -3  -2   9   19.90    0.57
  -3  -2   9   19.50    0.67
  -3  -2   9   19.57    0.51
   2   2  -9    5.90    0.25
   2   2  -9    5.82    0.22
   2   2  -9    6.16    0.31
   2   2  -9    5.85    0.25
   2   2  -9    5.79    0.23
  -2  -2   9    5.68    0.22
  -2  -2   9    6.14    0.23
  -2  -2   9    5.39    0.25
  -2  -2   9    5.86    0.24
  -2  -2   9    6.27    0.26
  -2  -2   9    6.16    0.29
   1   2  -9  224.20    5.37
   1   2  -9  228.38    4.57
   1   2  -9  230.90    6.27
   1   2  -9  225.38    5.21
   1   2  -9  225.69    4.21
   1   2  -9  233.55    4.95
  -1  -2   9  225.53    4.56
  -1  -2   9  229.95    6.25
  -1  -2   9  224.88    5.18
  -1  -2   9  223.33    4.20
  -1  -2   9  216.63    6.24
  -1  -2   9  227.09    4.96
  -1  -2   9  228.40    4.94
   0   2  -9  189.15    5.13
   0   2  -9  190.09    4.03
   0   2  -9  181.18    3.44
   0   2  -9  181.78    4.26
   0   2  -9  180.50    4.41
   0   2  -9  183.60    3.74
   0  -2   9  184.97    4.06
   0  -2   9  184.51    4.03
   0  -2   9  183.43    3.43
   0  -2   9  189.47    5.08
   0  -2   9  185.64    3.72
  -1   2  -9   89.57    1.72
  -1   2  -9   88.50    2.12
  -1   2  -9   91.98    2.23
  -1   2  -9   91.31    1.99
  -1   2  -9   93.20    1.86
  -1   2  -9   88.58    2.55
  -1   2  -9   94.51    2.55
   1  -2   9   89.45    2.02
   1  -2   9   90.26    1.70
  -2   2  -9  187.84    3.64
  -2   2  -9  175.42    4.13
  -2   2  -9  181.42    3.35
  -2   2  -9  169.33    4.97
  -2   2  -9  193.14    4.99
   2  -2   9  176.68    3.94
  -3   2  -9    0.26    0.07
  -3   2  -9    0.29    0.07
  -3   2  -9    0.38    0.10
  -3   2  -9    0.28    0.08
   3  -2   9    0.29    0.07
  -4   2  -9    3.77    0.16
  -4   2  -9    3.50    0.18
   4  -2   9    3.42    0.17
   4  -2   9    3.82    0.17
   5  -2   9   35.15    0.81
   5  -2   9   32.46    0.80
   6  -2   9   15.81    0.45
   6  -2   9   16.83    0.46
   6   1  -9   11.28    0.38
   5   1  -9   37.93    1.00
   5   1  -9   36.37    0.81
  -5  -1   9   35.06    0.97
   4   1  -9    2.39    0.19
   4   1  -9    2.76    0.21
   4   1  -9    2.25    0.20
  -4  -1   9    2.28    0.23
  -4  -1   9    2.59    0.22
   3   1  -9   73.73    2.19
   3   1  -9   75.22    1.50
   3   1  -9   73.92    1.61
   3   1  -9   74.55    1.84
   3   1  -9   76.50    1.89
  -3  -1   9   75.53    1.76
  -3  -1   9   76.82    1.62
  -3  -1   9   77.36    1.50
  -3  -1   9   76.85    1.89
  -3  -1   9   78.89    1.84
   2   1  -9   40.77    1.22
   2   1  -9   40.03    1.05
   2   1  -9   39.82    0.89
   2   1  -9   39.73    1.02
   2   1  -9   40.13    0.83
  -2  -1   9   39.67    0.96
  -2  -1   9   39.30    1.05
  -2  -1   9   41.20    0.89
  -2  -1   9   41.53    1.20
  -2  -1   9   40.26    0.97
  -2  -1   9   39.98    0.83
  -2  -1   9   39.97    1.00
   1   1  -9    0.52    0.12
   1   1  -9    0.43    0.10
   1   1  -9    0.72    0.09
   1   1  -9    0.71    0.09
   1   1  -9    0.39    0.11
   1   1  -9    0.67    0.10
  -1  -1   9    0.51    0.10
  -1  -1   9    0.76    0.09
  -1  -1   9    0.42    0.10
  -1  -1   9    0.55    0.08
  -1  -1   9    0.56    0.09
  -1  -1   9    0.59    0.10
   0   1  -9   12.85    0.43
   0   1  -9   12.29    0.31
   0   1  -9   11.93    0.36
   0   1  -9   11.66    0.34
   0   1  -9   11.87    0.30
   0   1  -9   12.27    0.40
   0  -1   9   12.20    0.34
   0  -1   9   12.44    0.29
  -1   1  -9    3.07    0.19
  -1   1  -9    2.90    0.14
  -1   1  -9    3.35    0.18
  -1   1  -9    3.42    0.14
  -1   1  -9    2.69    0.14
  -1   1  -9    2.87    0.14
   1  -1   9    2.83    0.15
  -2   1  -9    6.68    0.19
  -2   1  -9    6.51    0.23
  -2   1  -9    7.12    0.19
  -2   1  -9    6.64    0.30
   2  -1   9    6.55    0.20
   6   0  -9    3.67    0.25
   5   0  -9    0.98    0.16
   5   0  -9    0.60    0.14
  -5   0   9    0.62    0.18
   4   0  -9   12.80    0.53
   4   0  -9   12.39    0.39
   4   0  -9   13.80    0.46
   4   0  -9   12.87    0.38
  -4   0   9   12.24    0.40
  -4   0   9   13.19    0.44
   3   0  -9   35.42    1.11
   3   0  -9   35.89    0.96
   3   0  -9   35.87    0.77
   3   0  -9   35.27    0.93
   3   0  -9   35.03    0.82
  -3   0   9   36.21    0.82
  -3   0   9   35.78    0.96
  -3   0   9   34.72    0.82
  -3   0   9   36.54    1.10
  -3   0   9   35.63    0.88
  -3   0   9   35.14    0.90
   2   0  -9   73.87    1.57
   2   0  -9   74.31    1.78
   2   0  -9   74.64    2.13
   2   0  -9   73.17    1.44
   2   0  -9   72.32    1.84
  -2   0   9   73.93    1.55
  -2   0   9   72.02    1.56
  -2   0   9   74.39    1.69
  -2   0   9   75.29    1.85
  -2   0   9   75.83    2.12
  -2   0   9   74.82    1.70
   1   0  -9  211.45    3.98
   1   0  -9  210.96    5.09
   1   0  -9  217.73    5.92
   1   0  -9  216.45    4.32
   1   0  -9  208.65    4.92
  -1   0   9  213.06    4.31
  -1   0   9  222.19    5.89
  -1   0   9  212.43    4.69
  -1   0   9  213.19    5.09
  -1   0   9  214.34    4.30
   0   0  -9   23.64    0.53
   0   0  -9   22.90    0.50
   0   0  -9   24.01    0.67
   0   0  -9   24.56    0.73
   0   0  -9   23.43    0.58
   0   0  -9   22.72    0.60
   0   0   9   22.47    0.48
   0   0   9   24.18    0.50
   0   0   9   22.99    0.57
  -1   0  -9  137.98    2.97
  -1   0  -9  137.68    2.74
  -1   0  -9  134.32    2.52
  -1   0  -9  126.81    3.11
  -1   0  -9  145.88    3.75
  -1   0  -9  132.60    3.27
   1   0   9  134.49    2.97
  -2   0  -9    0.83    0.12
  -2   0  -9    0.67    0.06
  -2   0  -9    0.57    0.08
  -3   0  -9    6.16    0.29
  -3   0  -9    6.96    0.20
  -4   0  -9   48.70    1.28
   6  -1  -9   36.74    0.84
   5  -1  -9    0.78    0.15
   4  -1  -9   37.55    1.02
   4  -1  -9   36.12    0.86
   4  -1  -9   37.76    0.81
  -4   1   9   34.99    0.86
  -4   1   9   37.55    0.87
   3  -1  -9   21.82    0.76
   3  -1  -9   22.84    0.53
   3  -1  -9   22.02    0.64
   3  -1  -9   21.96    0.56
   3  -1  -9   22.30    0.66
  -3   1   9   23.16    0.61
  -3   1   9   22.65    0.75
  -3   1   9   22.98    0.56
  -3   1   9   21.78    0.56
   2  -1  -9    0.04    0.09
   2  -1  -9    0.04    0.09
   2  -1  -9    0.10    0.09
   2  -1  -9   -0.03    0.12
   2  -1  -9    0.08    0.11
  -2   1   9    0.06    0.09
  -2   1   9    0.01    0.08
  -2   1   9   -0.01    0.10
  -2   1   9   -0.02    0.08
  -2   1   9    0.25    0.11
  -2   1   9    0.06    0.09
   1  -1  -9    2.44    0.15
   1  -1  -9    2.62    0.20
   1  -1  -9    2.48    0.16
   1  -1  -9    2.52    0.20
   1  -1  -9    2.51    0.17
  -1   1   9    2.58    0.21
  -1   1   9    2.47    0.16
  -1   1   9    2.46    0.14
  -1   1   9    2.58    0.17
  -1   1   9    2.55    0.13
   0  -1  -9   27.54    0.77
   0  -1  -9   27.33    0.68
   0  -1  -9   28.08    0.62
   0  -1  -9   26.65    0.57
   0  -1  -9   28.30    0.84
   0   1   9   27.32    0.55
   0   1   9   27.44    0.66
  -1  -1  -9    3.21    0.14
  -1  -1  -9    3.24    0.14
  -1  -1  -9    3.45    0.17
  -1  -1  -9    3.18    0.21
   1   1   9    3.21    0.15
  -2  -1  -9  125.67    3.05
  -3  -1  -9   11.69    0.41
  -3  -1  -9   12.16    0.34
  -4  -1  -9   17.64    0.56
   6  -2  -9    0.63    0.16
   5  -2  -9    1.79    0.18
   4  -2  -9   31.03    0.70
   4  -2  -9   30.73    0.75
   4  -2  -9   32.06    0.89
  -4   2   9   28.29    0.74
  -4   2   9   31.11    0.75
   3  -2  -9    0.94    0.16
   3  -2  -9    1.18    0.13
   3  -2  -9    1.17    0.14
   3  -2  -9    1.05    0.13
  -3   2   9    1.02    0.12
  -3   2   9    1.15    0.13
  -3   2   9    1.07    0.13
   2  -2  -9   86.57    2.19
   2  -2  -9   88.66    1.71
   2  -2  -9   86.50    1.85
   2  -2  -9   86.84    2.10
   2  -2  -9   88.62    2.52
  -2   2   9   89.77    2.49
  -2   2   9   88.78    2.01
  -2   2   9   82.80    1.82
  -2   2   9   90.71    1.83
  -2   2   9   89.13    2.00
   1  -2  -9    0.55    0.13
   1  -2  -9    0.77    0.10
   1  -2  -9    0.86    0.13
   1  -2  -9    0.67    0.10
  -1   2   9    0.71    0.08
  -1   2   9    0.67    0.08
  -1   2   9    0.76    0.11
  -1   2   9    0.56    0.10
  -1   2   9    0.74    0.13
   0  -2  -9   50.00    1.08
   0  -2  -9   51.47    1.08
   0  -2  -9   51.19    1.00
   0  -2  -9   50.76    1.31
   0  -2  -9   52.10    1.47
   0   2   9   51.26    1.18
   0   2   9   49.75    0.97
   0   2   9   49.95    1.17
   0   2   9   50.67    1.31
  -1  -2  -9    4.38    0.16
  -1  -2  -9    4.79    0.22
  -1  -2  -9    4.60    0.17
  -1  -2  -9    4.34    0.25
  -1  -2  -9    4.55    0.17
   1   2   9    4.27    0.18
  -2  -2  -9    8.59    0.34
  -3  -2  -9   40.95    0.95
  -3  -2  -9   37.94    1.05
   5  -3  -9    7.45    0.32
   4  -3  -9    4.91    0.26
   4  -3  -9    4.95    0.26
   3  -3  -9    0.12    0.11
   3  -3  -9   -0.07    0.11
   3  -3  -9   -0.02    0.13
   3  -3  -9   -0.11    0.10
  -3   3   9   -0.04    0.10
  -3   3   9   -0.09    0.09
   2  -3  -9   10.77    0.41
   2  -3  -9   10.92    0.34
   2  -3  -9   11.18    0.33
   2  -3  -9   10.66    0.38
   2  -3  -9   10.71    0.45
  -2   3   9   11.23    0.41
  -2   3   9   10.13    0.31
  -2   3   9   11.38    0.37
  -2   3   9   11.15    0.32
   1  -3  -9   59.65    1.73
   1  -3  -9   59.30    1.27
   1  -3  -9   58.25    1.52
   1  -3  -9   59.37    1.17
  -1   3   9   57.87    1.23
  -1   3   9   58.48    1.37
  -1   3   9   59.85    1.38
   0  -3  -9    0.95    0.10
   0  -3  -9    1.19    0.14
   0  -3  -9    1.09    0.18
   0  -3  -9    0.96    0.15
   0   3   9    1.15    0.15
   0   3   9    1.41    0.17
   0   3   9    0.79    0.14
  -1  -3  -9  104.79    2.88
  -1  -3  -9   99.21    2.10
  -1  -3  -9  101.93    1.94
  -1  -3  -9  102.90    2.52
   1   3   9  106.42    2.29
   1   3   9  101.10    2.28
  -2  -3  -9   37.91    1.03
   2   3   9   36.65    0.89
   2   3   9   41.43    0.91
  -3  -3  -9    7.92    0.31
  -3  -3  -9    6.85    0.31
   5  -4  -9    9.37    0.37
   4  -4  -9    6.22    0.29
   3  -4  -9    9.47    0.34
   3  -4  -9    9.88    0.33
   2  -4  -9    0.06    0.11
   2  -4  -9   -0.09    0.13
   2  -4  -9    0.11    0.10
  -2   4   9   -0.01    0.09
  -2   4   9    0.01    0.11
   1  -4  -9   13.87    0.37
   1  -4  -9   13.64    0.40
   1  -4  -9   12.83    0.48
  -1   4   9   13.23    0.34
  -1   4   9   13.93    0.43
  -1   4   9   13.58    0.42
   0  -4  -9    6.97    0.33
   0  -4  -9    6.74    0.32
   0  -4  -9    6.68    0.25
   0  -4  -9    6.86    0.24
   0   4   9    7.09    0.29
   0   4   9    6.72    0.27
  -1  -4  -9    9.23    0.38
  -1  -4  -9    9.74    0.39
   1   4   9    9.78    0.33
   1   4   9    9.24    0.31
  -2  -4  -9   19.66    0.61
  -2  -4  -9   20.88    0.65
   2   4   9   19.29    0.52
   2   4   9   20.67    0.53
  -3  -4  -9   40.16    1.00
   3   4   9   40.79    0.93
   3   4   9   37.26    0.91
   5  -5  -9    0.11    0.15
   4  -5  -9    0.56    0.15
   3  -5  -9    6.08    0.28
   3  -5  -9    6.03    0.28
   2  -5  -9   45.98    1.08
   2  -5  -9   49.35    1.02
   1  -5  -9   10.69    0.44
   1  -5  -9   11.09    0.35
  -1   5   9   11.27    0.30
  -1   5   9   10.94    0.38
   0  -5  -9   37.73    0.81
   0  -5  -9   36.65    1.04
   0   5   9   39.42    0.95
   0   5   9   37.61    0.94
  -1  -5  -9   39.23    1.08
   1   5   9   40.74    0.98
   1   5   9   39.32    0.96
   2   5   9    0.17    0.12
   2   5   9    0.16    0.11
  -3  -5  -9    0.69    0.17
   3   5   9    0.61    0.11
   3   5   9    0.59    0.13
   4  -6  -9    0.35    0.15
   3  -6  -9    0.43    0.14
   2  -6  -9    4.82    0.27
   1  -6  -9    3.22    0.23
  -1   6   9    3.40    0.26
   0  -6  -9    5.85    0.33
   0   6   9    6.52    0.30
   1   6   9    6.20    0.30
   2   6   9   15.99    0.49
   2   6   9   14.66    0.47
   2  -7  -9   12.94    0.43
   0   7   9   18.32    0.57
   0   9 -10    2.05    0.21
   0  -9  10    1.99    0.21
  -1   9 -10   27.62    0.69
   1  -9  10   27.44    0.68
  -2   9 -10    0.27    0.16
   2  -9  10    0.04    0.15
   2   8 -10    0.01    0.15
  -2  -8  10    0.09    0.15
  -2  -8  10   -0.05    0.16
   1   8 -10   -0.04    0.15
  -1  -8  10    0.09    0.15
  -1  -8  10   -0.03    0.15
   0   8 -10    9.85    0.36
   0  -8  10   10.01    0.38
   0  -8  10    9.57    0.36
  -1   8 -10    0.72    0.16
   1  -8  10    0.81    0.15
  -2   8 -10   24.40    0.62
   2  -8  10   23.89    0.59
   3  -8  10   21.98    0.55
   3   7 -10   -0.20    0.13
  -3  -7  10   -0.02    0.16
  -3  -7  10   -0.12    0.14
   2   7 -10   15.87    0.46
  -2  -7  10   16.70    0.48
  -2  -7  10   15.48    0.53
   1   7 -10   -0.13    0.13
  -1  -7  10   -0.08    0.13
  -1  -7  10    0.28    0.14
   0   7 -10   83.15    1.87
   0   7 -10   86.94    1.73
   0  -7  10   88.69    1.99
   0  -7  10   88.88    1.73
  -1   7 -10    7.06    0.30
  -1   7 -10    7.32    0.30
   1  -7  10    7.18    0.28
   1  -7  10    7.69    0.29
  -2   7 -10   14.35    0.44
  -2   7 -10   14.68    0.42
   2  -7  10   14.91    0.41
   3  -7  10    6.87    0.28
   4  -7  10   18.31    0.46
   4   6 -10    4.54    0.28
  -4  -6  10    3.83    0.29
   3   6 -10    0.46    0.14
  -3  -6  10    0.19    0.16
  -3  -6  10    0.49    0.15
   2   6 -10    1.01    0.15
  -2  -6  10    1.10    0.16
  -2  -6  10    1.21    0.17
   1   6 -10   18.54    0.52
   1   6 -10   19.11    0.49
   1   6 -10   19.14    0.58
  -1  -6  10   18.99    0.55
  -1  -6  10   19.32    0.49
  -1  -6  10   18.90    0.57
  -1  -6  10   19.47    0.52
   0   6 -10    9.89    0.33
   0   6 -10    9.73    0.33
   0  -6  10   10.30    0.32
   0  -6  10    9.87    0.34
   0  -6  10    9.92    0.33
  -1   6 -10   21.83    0.64
  -1   6 -10   21.99    0.53
  -1   6 -10   21.04    0.56
   1  -6  10   21.34    0.56
   1  -6  10   22.39    0.62
   1  -6  10   22.12    0.52
  -2   6 -10   54.18    1.20
  -2   6 -10   54.27    1.64
   2  -6  10   54.63    1.30
   2  -6  10   53.94    1.10
  -3   6 -10   10.91    0.50
   3  -6  10   11.42    0.32
   3  -6  10   10.90    0.40
  -4   6 -10    0.87    0.20
   4  -6  10    0.55    0.16
   4  -6  10    0.89    0.11
   5  -6  10    0.35    0.16
   4   5 -10    0.48    0.14
  -4  -5  10    0.57    0.17
  -4  -5  10    0.67    0.15
   3   5 -10   39.66    0.88
  -3  -5  10   39.81    0.88
  -3  -5  10   40.11    1.03
   2   5 -10    5.87    0.27
   2   5 -10    5.65    0.26
   2   5 -10    5.51    0.25
  -2  -5  10    5.51    0.28
  -2  -5  10    5.58    0.27
  -2  -5  10    5.83    0.29
  -2  -5  10    6.03    0.26
   1   5 -10  139.33    3.30
   1   5 -10  141.60    2.68
   1   5 -10  139.22    3.38
   1   5 -10  135.85    2.90
  -1  -5  10  139.43    2.89
  -1  -5  10  142.51    2.67
  -1  -5  10  143.28    3.28
  -1  -5  10  140.10    3.12
   0   5 -10   38.67    0.89
   0   5 -10   38.97    1.02
   0   5 -10   39.61    0.84
   0  -5  10   39.63    1.18
   0  -5  10   38.71    0.82
   0  -5  10   38.60    0.93
   0  -5  10   39.16    0.99
   0  -5  10   39.69    0.88
   0  -5  10   40.16    0.97
  -1   5 -10   34.95    1.09
  -1   5 -10   34.32    0.80
  -1   5 -10   34.90    0.74
  -1   5 -10   34.59    0.90
   1  -5  10   34.41    0.86
   1  -5  10   35.08    1.03
   1  -5  10   34.02    0.73
   1  -5  10   34.04    0.77
   1  -5  10   34.26    0.81
  -2   5 -10   13.88    0.37
  -2   5 -10   13.26    0.43
  -2   5 -10   13.86    0.39
  -2   5 -10   13.81    0.53
   2  -5  10   13.62    0.43
   2  -5  10   13.77    0.36
  -3   5 -10   74.26    2.19
   3  -5  10   78.19    1.45
   3  -5  10   74.47    1.74
  -4   5 -10    0.34    0.15
   4  -5  10    0.32    0.13
   5  -5  10    5.41    0.29
   5   4 -10    1.52    0.18
  -5  -4  10    1.51    0.19
   4   4 -10    0.14    0.13
  -4  -4  10    0.23    0.15
  -4  -4  10    0.32    0.14
   3   4 -10    2.92    0.21
   3   4 -10    3.00    0.21
   3   4 -10    2.71    0.22
  -3  -4  10    2.73    0.23
  -3  -4  10    2.79    0.25
   2   4 -10   23.84    0.68
   2   4 -10   23.12    0.60
   2   4 -10   24.44    0.57
   2   4 -10   23.85    0.68
   2   4 -10   24.23    0.81
  -2  -4  10   24.24    0.65
  -2  -4  10   24.20    0.57
  -2  -4  10   24.72    0.68
  -2  -4  10   24.55    0.61
   1   4 -10   24.50    0.81
   1   4 -10   23.90    0.67
   1   4 -10   23.89    0.69
   1   4 -10   24.08    0.56
   1   4 -10   23.53    0.59
  -1  -4  10   24.42    0.65
  -1  -4  10   24.28    0.63
  -1  -4  10   23.70    0.78
  -1  -4  10   24.55    0.66
  -1  -4  10   24.32    0.56
  -1  -4  10   24.53    0.59
   0   4 -10    2.47    0.24
   0   4 -10    2.23    0.16
   0   4 -10    2.39    0.17
   0   4 -10    1.72    0.18
   0   4 -10    2.19    0.18
   0   4 -10    2.68    0.20
   0  -4  10    2.32    0.15
   0  -4  10    2.48    0.19
   0  -4  10    2.36    0.16
   0  -4  10    2.32    0.17
   0  -4  10    2.41    0.21
   0  -4  10    1.98    0.17
  -1   4 -10   60.15    1.77
  -1   4 -10   61.26    1.21
  -1   4 -10   61.46    1.30
  -1   4 -10   62.74    1.78
  -1   4 -10   60.38    1.48
   1  -4  10   59.71    1.27
   1  -4  10   60.35    1.35
   1  -4  10   60.97    1.41
   1  -4  10   60.24    1.19
  -2   4 -10   36.66    0.94
  -2   4 -10   39.28    1.14
  -2   4 -10   35.68    1.12
  -2   4 -10   37.37    0.77
  -2   4 -10   36.26    0.83
   2  -4  10   36.93    0.90
   2  -4  10   36.79    0.74
  -3   4 -10   10.97    0.44
  -3   4 -10   11.29    0.36
   3  -4  10   12.39    0.28
   3  -4  10   11.22    0.36
  -4   4 -10    6.30    0.32
   4  -4  10    6.36    0.27
   5  -4  10   -0.07    0.12
   5   3 -10    1.11    0.16
  -5  -3  10    1.36    0.17
  -5  -3  10    0.99    0.19
   4   3 -10   52.42    1.33
   4   3 -10   51.31    1.09
  -4  -3  10   50.31    1.28
  -4  -3  10   52.02    1.09
   3   3 -10   31.11    0.84
   3   3 -10   31.68    0.70
   3   3 -10   30.22    0.74
   3   3 -10   31.13    1.00
  -3  -3  10   30.92    0.69
  -3  -3  10   31.11    0.75
  -3  -3  10   31.20    0.84
  -3  -3  10   29.76    0.80
   2   3 -10  106.75    2.06
   2   3 -10  102.48    2.22
   2   3 -10  104.92    2.53
   2   3 -10  105.38    3.03
   2   3 -10  107.42    2.60
  -2  -3  10  107.37    2.41
  -2  -3  10  107.18    2.52
  -2  -3  10  105.79    3.03
  -2  -3  10  107.89    2.05
  -2  -3  10  106.71    2.40
  -2  -3  10  109.36    2.22
  -2  -3  10  106.80    3.03
   1   3 -10   79.16    1.66
   1   3 -10   78.41    1.89
   1   3 -10   77.76    1.95
   1   3 -10   77.61    1.53
   1   3 -10   80.24    2.27
  -1  -3  10   79.77    1.65
  -1  -3  10   79.63    1.53
  -1  -3  10   76.01    1.86
  -1  -3  10   79.35    2.24
  -1  -3  10   77.42    1.78
  -1  -3  10   80.01    1.80
   0   3 -10   50.77    1.01
   0   3 -10   49.79    1.24
   0   3 -10   49.17    1.29
   0   3 -10   50.64    1.15
   0   3 -10   50.71    1.09
   0   3 -10   50.91    1.48
   0  -3  10   50.82    1.00
   0  -3  10   52.07    1.44
   0  -3  10   50.46    1.15
   0  -3  10   50.47    1.07
   0  -3  10   50.51    1.18
   0  -3  10   46.75    1.19
  -1   3 -10   17.95    0.41
  -1   3 -10   18.20    0.60
  -1   3 -10   16.33    0.58
  -1   3 -10   16.84    0.42
  -1   3 -10   17.73    0.44
  -1   3 -10   17.16    0.49
   1  -3  10   17.46    0.47
   1  -3  10   17.61    0.39
   1  -3  10   16.84    0.39
  -2   3 -10  246.97    4.51
  -2   3 -10  232.98    6.71
  -2   3 -10  255.58    6.72
  -2   3 -10  246.12    4.89
  -2   3 -10  239.91    5.57
   2  -3  10  237.28    5.31
   2  -3  10  243.31    4.47
  -3   3 -10    0.41    0.12
  -3   3 -10    0.40    0.11
  -3   3 -10    0.36    0.09
   3  -3  10    0.40    0.09
  -4   3 -10   34.12    1.02
   4  -3  10   34.15    0.82
   5  -3  10   -0.17    0.11
   5  -3  10    0.05    0.10
   5   2 -10   -0.23    0.12
  -5  -2  10    0.07    0.13
  -5  -2  10   -0.12    0.15
   4   2 -10    1.79    0.21
   4   2 -10    1.37    0.15
  -4  -2  10    1.26    0.16
  -4  -2  10    1.24    0.18
   3   2 -10   17.74    0.46
   3   2 -10   18.11    0.54
   3   2 -10   17.33    0.64
   3   2 -10   16.56    0.47
  -3  -2  10   17.57    0.45
  -3  -2  10   18.08    0.49
  -3  -2  10   17.99    0.54
  -3  -2  10   17.61    0.53
   2   2 -10   20.39    0.61
   2   2 -10   21.15    0.50
   2   2 -10   21.56    0.72
   2   2 -10   20.94    0.53
   2   2 -10   20.90    0.60
  -2  -2  10   20.42    0.57
  -2  -2  10   20.52    0.70
  -2  -2  10   21.18    0.50
  -2  -2  10   21.61    0.58
  -2  -2  10   21.72    0.53
  -2  -2  10   20.96    0.59
   1   2 -10    6.08    0.30
   1   2 -10    5.94    0.25
   1   2 -10    5.97    0.22
   1   2 -10    5.95    0.22
   1   2 -10    5.52    0.26
  -1  -2  10    5.49    0.22
  -1  -2  10    5.99    0.27
  -1  -2  10    5.85    0.24
  -1  -2  10    5.97    0.21
  -1  -2  10    5.92    0.25
  -1  -2  10    5.82    0.21
   0   2 -10   14.26    0.46
   0   2 -10   14.23    0.37
   0   2 -10   14.73    0.51
   0   2 -10   14.45    0.39
   0   2 -10   14.35    0.35
   0   2 -10   14.19    0.42
   0  -2  10   13.96    0.40
   0  -2  10   14.10    0.39
   0  -2  10   14.53    0.34
   0  -2  10   14.68    0.35
  -1   2 -10   50.22    1.26
  -1   2 -10   54.63    1.51
  -1   2 -10   50.74    1.34
  -1   2 -10   51.82    1.16
  -1   2 -10   51.49    1.02
  -1   2 -10   53.00    1.11
   1  -2  10   52.43    1.00
   1  -2  10   52.55    1.20
  -2   2 -10   44.29    1.11
  -2   2 -10   46.96    0.91
  -2   2 -10   44.24    1.34
  -2   2 -10   48.32    0.99
  -2   2 -10   49.14    1.35
   2  -2  10   45.77    1.07
  -3   2 -10   31.22    0.95
  -3   2 -10   35.59    0.97
  -3   2 -10   32.40    0.80
   3  -2  10   31.37    0.77
  -4   2 -10    1.86    0.15
   4  -2  10    1.75    0.15
   5  -2  10   22.66    0.55
   5  -2  10   20.69    0.55
   6   1 -10    0.16    0.15
   5   1 -10   37.83    1.02
   5   1 -10   36.59    0.83
  -5  -1  10   35.84    0.99
   4   1 -10   45.70    1.19
   4   1 -10   44.39    0.96
  -4  -1  10   44.07    1.13
   3   1 -10   32.14    0.87
   3   1 -10   32.59    0.72
   3   1 -10   33.37    0.90
   3   1 -10   31.37    0.76
   3   1 -10   32.00    1.03
  -3  -1  10   32.89    0.84
  -3  -1  10   32.60    0.86
  -3  -1  10   32.81    0.77
   2   1 -10   64.70    1.85
   2   1 -10   61.99    1.35
   2   1 -10   62.58    1.60
   2   1 -10   61.35    1.54
   2   1 -10   62.80    1.25
  -2  -1  10   63.83    1.47
  -2  -1  10   62.75    1.25
  -2  -1  10   64.72    1.35
  -2  -1  10   63.25    1.82
  -2  -1  10   63.20    1.47
  -2  -1  10   61.78    1.60
   1   1 -10   45.37    1.19
   1   1 -10   45.35    1.00
   1   1 -10   45.62    0.93
   1   1 -10   46.55    1.36
   1   1 -10   44.94    1.14
  -1  -1  10   46.89    1.33
  -1  -1  10   45.97    1.08
  -1  -1  10   47.35    1.08
  -1  -1  10   44.87    0.99
  -1  -1  10   45.84    0.98
   0   1 -10    8.93    0.34
   0   1 -10    8.62    0.25
   0   1 -10    8.79    0.26
   0   1 -10    9.13    0.35
   0   1 -10    8.40    0.29
   0   1 -10    8.93    0.28
   0  -1  10    8.91    0.23
   0  -1  10    8.69    0.28
  -1   1 -10  445.33   10.73
  -1   1 -10  460.48    9.84
  -1   1 -10  459.75    8.37
  -1   1 -10  466.29    9.10
  -1   1 -10  422.34   10.35
  -1   1 -10  489.04   12.49
   1  -1  10  448.28    9.88
  -2   1 -10   19.30    0.52
  -2   1 -10   22.06    0.63
  -2   1 -10   21.76    0.47
  -2   1 -10   20.89    0.62
  -2   1 -10   19.37    0.62
  -2   1 -10   20.96    0.44
   2  -1  10   19.95    0.50
  -3   1 -10   75.16    1.90
   6   0 -10    0.00    0.15
   5   0 -10   -0.11    0.13
  -5   0  10   -0.24    0.16
   4   0 -10    5.51    0.29
   4   0 -10    4.94    0.25
   4   0 -10    4.98    0.25
  -4   0  10    4.92    0.30
  -4   0  10    4.41    0.25
   3   0 -10    6.77    0.36
   3   0 -10    6.66    0.31
   3   0 -10    6.65    0.26
   3   0 -10    6.59    0.29
   3   0 -10    6.91    0.26
  -3   0  10    6.13    0.26
  -3   0  10    6.68    0.31
  -3   0  10    6.71    0.26
   2   0 -10   12.87    0.44
   2   0 -10   12.20    0.35
   2   0 -10   12.43    0.41
   2   0 -10   12.75    0.37
   2   0 -10   12.59    0.49
  -2   0  10   12.96    0.47
  -2   0  10   12.31    0.35
  -2   0  10   12.99    0.40
  -2   0  10   12.48    0.44
  -2   0  10   12.68    0.35
   1   0 -10    5.80    0.22
   1   0 -10    6.10    0.28
   1   0 -10    5.70    0.24
   1   0 -10    5.68    0.22
   1   0 -10    5.97    0.30
  -1   0  10    5.97    0.24
  -1   0  10    5.80    0.20
  -1   0  10    5.79    0.20
  -1   0  10    6.14    0.25
  -1   0  10    5.56    0.29
   0   0 -10   19.29    0.46
   0   0 -10   18.66    0.43
   0   0 -10   19.72    0.62
   0   0 -10   19.39    0.59
   0   0 -10   19.68    0.50
   0   0 -10   18.15    0.51
   0   0  10   18.35    0.41
   0   0  10   18.95    0.49
  -1   0 -10   84.12    1.82
  -1   0 -10   88.15    2.30
  -1   0 -10   79.17    2.03
  -1   0 -10   79.79    1.55
  -1   0 -10   75.96    1.90
  -1   0 -10   83.90    1.68
   1   0  10   81.21    1.82
  -2   0 -10   71.71    1.36
  -2   0 -10   75.85    1.48
  -2   0 -10   71.94    1.82
   2   0  10   69.99    1.60
  -3   0 -10   17.12    0.55
  -4   0 -10   16.24    0.54
   6  -1 -10   13.38    0.43
   5  -1 -10   27.91    0.68
   4  -1 -10    1.51    0.16
   4  -1 -10    1.77    0.19
   4  -1 -10    1.72    0.23
  -4   1  10    1.38    0.16
   3  -1 -10   16.91    0.44
   3  -1 -10   16.83    0.53
   3  -1 -10   17.62    0.56
   3  -1 -10   16.93    0.47
  -3   1  10   17.37    0.46
  -3   1  10   16.30    0.45
   2  -1 -10   30.79    0.68
   2  -1 -10   31.03    0.87
   2  -1 -10   30.92    0.73
   2  -1 -10   31.35    0.98
   2  -1 -10   30.90    0.83
  -2   1  10   30.97    0.79
  -2   1  10   31.11    0.71
  -2   1  10   31.30    0.95
  -2   1  10   30.16    0.71
  -2   1  10   31.23    0.78
   1  -1 -10    0.79    0.10
   1  -1 -10    0.72    0.11
   1  -1 -10    0.77    0.10
   1  -1 -10    0.64    0.13
   1  -1 -10    0.83    0.13
  -1   1  10    0.60    0.08
  -1   1  10    0.64    0.10
  -1   1  10    0.62    0.08
   0  -1 -10  443.40   10.42
   0  -1 -10  416.60   10.06
   0  -1 -10  459.21   12.14
   0  -1 -10  442.04    8.13
   0  -1 -10  444.15    8.84
   0   1  10  449.59    9.60
   0   1  10  441.60    8.11
  -1  -1 -10   93.54    1.92
  -1  -1 -10   97.49    2.63
  -1  -1 -10   91.10    1.77
  -1  -1 -10   95.12    2.10
  -1  -1 -10   94.95    2.32
   1   1  10   91.43    2.08
  -2  -1 -10   61.65    1.60
  -2  -1 -10   63.97    1.29
  -3  -1 -10    4.80    0.26
  -3  -1 -10    4.94    0.20
  -4  -1 -10    4.56    0.28
   5  -2 -10   -0.26    0.13
   4  -2 -10    0.27    0.13
   4  -2 -10    0.11    0.12
   3  -2 -10    3.74    0.26
   3  -2 -10    3.78    0.22
   3  -2 -10    3.79    0.22
   3  -2 -10    3.69    0.24
  -3   2  10    3.68    0.20
   2  -2 -10   27.98    0.67
   2  -2 -10   27.09    0.62
   2  -2 -10   27.29    0.89
   2  -2 -10   27.04    0.75
   2  -2 -10   27.37    0.80
  -2   2  10   28.26    0.72
  -2   2  10   26.08    0.63
  -2   2  10   27.67    0.85
  -2   2  10   27.94    0.64
   1  -2 -10    0.24    0.12
   1  -2 -10    0.15    0.10
   1  -2 -10    0.10    0.10
   1  -2 -10    0.25    0.10
   1  -2 -10    0.02    0.13
  -1   2  10    0.08    0.10
  -1   2  10    0.06    0.06
  -1   2  10    0.13    0.10
  -1   2  10    0.03    0.08
   0  -2 -10   61.27    1.74
   0  -2 -10   59.65    1.18
   0  -2 -10   60.92    1.28
   0  -2 -10   60.00    1.55
   0   2  10   59.33    1.38
   0   2  10   60.44    1.39
  -1  -2 -10   80.76    2.21
  -1  -2 -10   76.50    1.49
  -1  -2 -10   79.37    1.62
  -1  -2 -10   78.27    1.96
   1   2  10   76.51    1.75
  -2  -2 -10   30.50    0.85
   2   2  10   30.03    0.70
  -3  -2 -10    2.44    0.19
  -3  -2 -10    2.66    0.25
   5  -3 -10    0.22    0.15
   4  -3 -10    0.78    0.15
   3  -3 -10   19.98    0.51
   3  -3 -10   19.98    0.54
   2  -3 -10    0.42    0.11
   2  -3 -10    0.32    0.12
   2  -3 -10    0.44    0.14
   2  -3 -10    0.84    0.13
  -2   3  10    0.32    0.09
  -2   3  10    0.59    0.12
   1  -3 -10  231.92    6.35
   1  -3 -10  223.72    4.64
   1  -3 -10  226.56    5.47
   1  -3 -10  227.18    4.27
  -1   3  10  225.59    4.58
  -1   3  10  231.44    5.03
  -1   3  10  233.50    5.04
   0  -3 -10  128.27    3.51
   0  -3 -10  122.01    2.57
   0  -3 -10  122.04    3.05
   0  -3 -10  123.42    2.36
   0   3  10  121.99    2.77
   0   3  10  130.97    2.79
  -1  -3 -10   16.23    0.54
  -1  -3 -10   16.90    0.56
   1   3  10   15.62    0.44
   1   3  10   17.18    0.46
  -2  -3 -10    2.73    0.19
  -2  -3 -10    2.86    0.22
   2   3  10    2.50    0.16
   2   3  10    2.67    0.18
  -3  -3 -10    5.61    0.28
   5  -4 -10    0.58    0.16
   4  -4 -10   -0.16    0.13
   3  -4 -10   16.82    0.50
   3  -4 -10   17.12    0.47
   2  -4 -10   11.16    0.36
   2  -4 -10   10.98    0.37
   2  -4 -10   11.46    0.41
  -2   4  10   10.42    0.33
  -2   4  10   11.47    0.41
   1  -4 -10   17.85    0.60
   1  -4 -10   18.98    0.47
  -1   4  10   18.84    0.53
  -1   4  10   18.14    0.43
   0  -4 -10   49.26    1.32
   0  -4 -10   49.52    1.01
   0   4  10   51.27    1.19
   0   4  10   48.61    1.17
  -1  -4 -10   22.54    0.69
  -1  -4 -10   22.90    0.74
   1   4  10   23.19    0.60
   1   4  10   21.88    0.59
  -2  -4 -10    0.23    0.14
  -2  -4 -10    0.15    0.12
   2   4  10    0.23    0.11
   2   4  10    0.21    0.10
  -3  -4 -10   12.54    0.44
   3   4  10   12.60    0.37
   3   4  10   11.48    0.35
   4  -5 -10   10.72    0.39
   3  -5 -10    1.56    0.17
   2  -5 -10   70.17    1.43
   1  -5 -10   75.93    1.51
  -1   5  10   74.91    1.76
   0  -5 -10    0.17    0.15
   0   5  10    0.40    0.13
  -1  -5 -10    0.12    0.14
   1   5  10   -0.12    0.12
   1   5  10   -0.02    0.12
   2   5  10    6.18    0.27
   2   5  10    6.88    0.30
   3  -6 -10    9.94    0.38
   2  -6 -10    1.75    0.18
   0   6  10    7.77    0.34
   1   6  10    0.91    0.16
   1   8 -11   15.03    0.47
  -1  -8  11   15.03    0.51
  -1  -8  11   14.85    0.47
   0   8 -11   14.17    0.45
   0  -8  11   14.80    0.44
  -1   8 -11   -0.12    0.14
   1  -8  11    0.00    0.13
  -2   8 -11    4.09    0.27
   2  -8  11    4.09    0.25
   3  -8  11    1.45    0.17
   3   7 -11   -0.17    0.14
  -3  -7  11    0.01    0.16
   2   7 -11   22.94    0.61
  -2  -7  11   22.60    0.69
  -2  -7  11   24.11    0.61
   1   7 -11    3.66    0.25
  -1  -7  11    3.79    0.26
  -1  -7  11    3.36    0.26
   0   7 -11    2.24    0.22
   0  -7  11    1.64    0.21
   0  -7  11    1.66    0.17
  -1   7 -11    1.41    0.17
  -1   7 -11    1.18    0.16
   1  -7  11    1.52    0.16
  -2   7 -11    3.01    0.23
   2  -7  11    2.59    0.22
   3  -7  11   -0.28    0.11
   4  -7  11    0.58    0.13
   3   6 -11    1.03    0.16
  -3  -6  11    0.76    0.18
  -3  -6  11    1.05    0.17
   2   6 -11   19.30    0.52
  -2  -6  11   18.20    0.57
  -2  -6  11   19.27    0.51
   1   6 -11   26.89    0.70
   1   6 -11   29.02    0.67
   1   6 -11   28.65    0.81
  -1  -6  11   29.01    0.66
  -1  -6  11   28.16    0.75
   0   6 -11    1.85    0.19
   0   6 -11    2.05    0.22
   0   6 -11    1.94    0.20
   0  -6  11    1.70    0.18
   0  -6  11    1.88    0.20
  -1   6 -11    3.44    0.22
  -1   6 -11    3.11    0.23
  -1   6 -11    3.42    0.22
   1  -6  11    3.86    0.22
  -2   6 -11    2.88    0.22
  -2   6 -11    3.15    0.32
  -2   6 -11    3.06    0.22
   2  -6  11    3.23    0.26
   2  -6  11    2.81    0.21
  -3   6 -11    0.11    0.17
   3  -6  11   -0.10    0.10
   3  -6  11    0.07    0.14
  -4   6 -11    0.21    0.18
   4  -6  11    0.14    0.15
   4   5 -11    0.42    0.15
  -4  -5  11    0.51    0.17
  -4  -5  11    0.45    0.16
   3   5 -11   38.03    0.86
  -3  -5  11   38.34    0.87
  -3  -5  11   38.71    1.00
   2   5 -11   11.51    0.36
   2   5 -11   11.13    0.37
   2   5 -11   11.60    0.41
  -2  -5  11   11.74    0.42
  -2  -5  11   11.64    0.41
  -2  -5  11   11.11    0.38
  -2  -5  11   11.30    0.36
   1   5 -11    5.55    0.28
   1   5 -11    5.88    0.26
   1   5 -11    5.43    0.25
  -1  -5  11    5.77    0.25
  -1  -5  11    5.45    0.27
  -1  -5  11    5.68    0.26
   0   5 -11    9.10    0.35
   0   5 -11    9.08    0.37
   0   5 -11    9.66    0.31
   0   5 -11    9.47    0.32
   0  -5  11    9.35    0.32
   0  -5  11    9.58    0.36
   0  -5  11    9.68    0.30
  -1   5 -11   22.04    0.53
  -1   5 -11   21.85    0.63
  -1   5 -11   21.88    0.56
   1  -5  11   22.42    0.61
   1  -5  11   21.45    0.51
   1  -5  11   21.93    0.54
  -2   5 -11    2.87    0.20
  -2   5 -11    2.32    0.27
  -2   5 -11    2.78    0.21
  -2   5 -11    2.38    0.19
   2  -5  11    2.26    0.22
   2  -5  11    2.35    0.18
  -3   5 -11    3.78    0.28
  -3   5 -11    3.65    0.23
   3  -5  11    3.98    0.18
   3  -5  11    3.68    0.24
  -4   5 -11    5.17    0.33
   4  -5  11    4.91    0.27
   5  -5  11   21.85    0.62
   4   4 -11    8.88    0.34
  -4  -4  11    9.51    0.40
  -4  -4  11    9.03    0.35
   3   4 -11   12.46    0.43
   3   4 -11   12.63    0.39
  -3  -4  11   12.37    0.45
  -3  -4  11   12.48    0.39
   2   4 -11   24.35    0.70
   2   4 -11   24.95    0.58
   2   4 -11   23.11    0.61
  -2  -4  11   24.65    0.62
  -2  -4  11   24.60    0.66
  -2  -4  11   23.75    0.57
  -2  -4  11   24.77    0.69
   1   4 -11    7.76    0.28
   1   4 -11    7.26    0.27
   1   4 -11    7.42    0.32
   1   4 -11    7.38    0.31
  -1  -4  11    7.19    0.29
  -1  -4  11    7.24    0.28
  -1  -4  11    7.45    0.27
  -1  -4  11    7.52    0.27
  -1  -4  11    7.98    0.32
   0   4 -11    0.14    0.11
   0   4 -11    0.03    0.13
   0   4 -11    0.13    0.10
   0   4 -11    0.09    0.11
   0   4 -11   -0.01    0.08
   0   4 -11    0.14    0.10
   0  -4  11    0.09    0.09
   0  -4  11    0.25    0.09
   0  -4  11    0.04    0.10
   0  -4  11    0.13    0.11
   0  -4  11    0.15    0.09
  -1   4 -11    1.86    0.18
  -1   4 -11    1.76    0.23
  -1   4 -11    1.91    0.17
  -1   4 -11    2.10    0.18
   1  -4  11    1.54    0.13
   1  -4  11    1.86    0.16
   1  -4  11    1.96    0.20
  -2   4 -11    0.23    0.13
  -2   4 -11    0.42    0.10
  -2   4 -11    0.50    0.10
  -2   4 -11    0.46    0.14
  -2   4 -11    0.36    0.11
   2  -4  11    0.41    0.08
   2  -4  11    0.54    0.11
  -3   4 -11    0.03    0.10
  -3   4 -11   -0.13    0.12
   3  -4  11    0.04    0.11
  -4   4 -11   14.48    0.53
   4  -4  11   14.48    0.44
   5  -4  11   16.93    0.50
   5   3 -11    2.87    0.25
  -5  -3  11    2.89    0.26
   4   3 -11   27.68    0.67
  -4  -3  11   28.44    0.68
  -4  -3  11   28.87    0.80
   3   3 -11   18.46    0.51
   3   3 -11   18.97    0.58
   3   3 -11   18.84    0.49
  -3  -3  11   19.15    0.52
  -3  -3  11   18.81    0.56
  -3  -3  11   19.58    0.58
  -3  -3  11   18.97    0.49
   2   3 -11    8.09    0.34
   2   3 -11    7.94    0.33
   2   3 -11    8.07    0.29
   2   3 -11    8.33    0.29
  -2  -3  11    8.43    0.32
  -2  -3  11    8.13    0.32
  -2  -3  11    8.40    0.29
  -2  -3  11    8.22    0.28
   1   3 -11   21.02    0.73
   1   3 -11   21.12    0.63
   1   3 -11   21.54    0.61
   1   3 -11   21.22    0.51
   1   3 -11   21.09    0.54
  -1  -3  11   20.72    0.57
  -1  -3  11   21.60    0.57
  -1  -3  11   21.80    0.69
  -1  -3  11   21.23    0.50
  -1  -3  11   21.40    0.53
  -1  -3  11   21.55    0.58
   0   3 -11   93.90    2.67
   0   3 -11   93.19    1.81
   0   3 -11   93.21    2.32
   0   3 -11   93.80    2.23
   0   3 -11   92.83    1.95
   0   3 -11   94.45    2.09
   0  -3  11   92.20    2.12
   0  -3  11   95.53    2.61
   0  -3  11   93.19    1.79
   0  -3  11   94.96    1.93
   0  -3  11   93.16    2.09
  -1   3 -11    5.45    0.19
  -1   3 -11    5.78    0.22
  -1   3 -11    5.84    0.30
  -1   3 -11    5.75    0.22
  -1   3 -11    5.13    0.28
  -1   3 -11    5.55    0.24
   1  -3  11    5.48    0.20
   1  -3  11    5.80    0.24
   1  -3  11    5.75    0.17
  -2   3 -11   41.09    0.88
  -2   3 -11   41.92    1.20
  -2   3 -11   38.74    0.99
  -2   3 -11   39.71    0.81
  -2   3 -11   38.07    1.18
   2  -3  11   40.26    0.77
   2  -3  11   39.16    0.95
  -3   3 -11    2.47    0.20
  -3   3 -11    2.71    0.17
  -3   3 -11    3.03    0.23
   3  -3  11    2.54    0.18
  -4   3 -11   41.04    1.21
   4  -3  11   40.71    0.97
   5  -3  11   10.64    0.35
  -5  -2  11   17.50    0.59
   4   2 -11    3.81    0.26
   4   2 -11    3.50    0.23
  -4  -2  11    3.22    0.28
  -4  -2  11    3.34    0.25
   3   2 -11    6.81    0.28
   3   2 -11    7.24    0.32
   3   2 -11    7.45    0.29
  -3  -2  11    7.58    0.32
  -3  -2  11    7.38    0.27
  -3  -2  11    7.52    0.29
  -3  -2  11    6.79    0.31
   2   2 -11    4.43    0.25
   2   2 -11    4.38    0.30
   2   2 -11    4.32    0.24
   2   2 -11    4.03    0.21
   2   2 -11    4.45    0.22
  -2  -2  11    4.41    0.21
  -2  -2  11    4.42    0.23
  -2  -2  11    4.16    0.25
  -2  -2  11    4.32    0.24
  -2  -2  11    4.27    0.21
   1   2 -11    5.62    0.23
   1   2 -11    5.70    0.26
   1   2 -11    5.65    0.29
   1   2 -11    5.61    0.31
   1   2 -11    5.34    0.23
  -1  -2  11    5.73    0.22
  -1  -2  11    5.30    0.26
  -1  -2  11    5.76    0.28
  -1  -2  11    5.96    0.25
  -1  -2  11    5.89    0.22
   0   2 -11    0.03    0.09
   0   2 -11   -0.09    0.08
   0   2 -11    0.09    0.08
   0   2 -11    0.22    0.09
   0   2 -11    0.08    0.11
   0   2 -11    0.05    0.12
   0  -2  11    0.02    0.07
   0  -2  11    0.02    0.09
   0  -2  11    0.09    0.06
  -1   2 -11    1.05    0.10
  -1   2 -11    0.92    0.11
  -1   2 -11    0.93    0.14
  -1   2 -11    0.96    0.14
  -1   2 -11    1.06    0.12
  -1   2 -11    0.89    0.10
   1  -2  11    0.75    0.10
  -2   2 -11    0.92    0.15
  -2   2 -11    0.96    0.15
  -2   2 -11    1.18    0.17
  -2   2 -11    1.15    0.13
  -2   2 -11    0.96    0.09
  -2   2 -11    1.02    0.12
   2  -2  11    0.94    0.10
  -3   2 -11    9.72    0.36
  -3   2 -11    9.79    0.30
  -3   2 -11   11.15    0.39
   3  -2  11    9.46    0.30
  -4   2 -11   53.20    1.42
   4  -2  11   44.74    1.12
   5  -2  11    0.07    0.10
   5   1 -11    7.69    0.32
  -5  -1  11    7.67    0.39
   4   1 -11   14.03    0.49
   4   1 -11   13.85    0.41
  -4  -1  11   12.35    0.46
   3   1 -11    6.57    0.27
   3   1 -11    6.06    0.26
   3   1 -11    6.15    0.31
  -3  -1  11    6.57    0.30
  -3  -1  11    6.73    0.28
   2   1 -11   23.48    0.56
   2   1 -11   23.01    0.59
   2   1 -11   23.55    0.70
   2   1 -11   24.30    0.80
   2   1 -11   22.81    0.67
  -2  -1  11   24.94    0.64
  -2  -1  11   24.35    0.64
  -2  -1  11   22.74    0.58
  -2  -1  11   24.52    0.77
  -2  -1  11   24.10    0.58
   1   1 -11  190.72    3.56
   1   1 -11  184.09    4.56
   1   1 -11  195.81    5.30
   1   1 -11  183.72    4.40
   1   1 -11  190.12    3.87
  -1  -1  11  190.90    4.20
  -1  -1  11  199.55    5.25
  -1  -1  11  192.44    3.84
  -1  -1  11  185.07    3.85
   0   1 -11    0.21    0.08
   0   1 -11    0.04    0.11
   0   1 -11    0.31    0.09
   0   1 -11    0.05    0.10
   0   1 -11    0.07    0.08
   0  -1  11    0.06    0.06
   0  -1  11    0.11    0.08
   0  -1  11    0.09    0.05
  -1   1 -11   95.63    1.93
  -1   1 -11   90.63    2.32
  -1   1 -11  101.24    2.65
  -1   1 -11   93.15    1.78
  -1   1 -11   88.87    2.19
   1  -1  11   93.15    2.09
  -2   1 -11    0.08    0.06
  -2   1 -11    0.19    0.10
  -2   1 -11    0.06    0.11
  -2   1 -11    0.26    0.07
  -2   1 -11    0.06    0.08
   2  -1  11    0.01    0.07
  -3   1 -11   52.89    1.40
   5   0 -11    0.18    0.15
  -5   0  11    0.19    0.17
   4   0 -11    0.18    0.14
   4   0 -11    0.38    0.13
  -4   0  11   -0.06    0.15
   3   0 -11    0.51    0.15
   3   0 -11    0.11    0.11
   3   0 -11    0.13    0.11
  -3   0  11    0.26    0.11
  -3   0  11    0.29    0.11
   2   0 -11   12.19    0.35
   2   0 -11   12.15    0.44
   2   0 -11   12.00    0.41
   2   0 -11   11.95    0.36
   2   0 -11   12.04    0.49
  -2   0  11   11.23    0.34
  -2   0  11   11.83    0.39
  -2   0  11   11.90    0.35
  -2   0  11   12.32    0.45
   1   0 -11    3.24    0.21
   1   0 -11    3.83    0.26
   1   0 -11    3.43    0.19
   1   0 -11    3.68    0.24
   1   0 -11    3.52    0.19
  -1   0  11    3.46    0.20
  -1   0  11    3.56    0.17
  -1   0  11    3.61    0.17
   0   0 -11    3.06    0.23
   0   0 -11    2.76    0.17
   0   0 -11    2.79    0.23
   0   0 -11    3.17    0.18
   0   0 -11    2.64    0.17
   0   0  11    2.68    0.18
  -1   0 -11    3.07    0.18
  -1   0 -11    2.87    0.15
  -1   0 -11    3.07    0.16
  -1   0 -11    3.10    0.15
  -1   0 -11    3.07    0.21
  -1   0 -11    3.05    0.22
   1   0  11    2.80    0.16
  -2   0 -11   -0.03    0.09
  -2   0 -11    0.02    0.11
  -2   0 -11    0.09    0.06
   2   0  11   -0.03    0.06
  -3   0 -11   52.96    1.40
   5  -1 -11    2.95    0.25
   4  -1 -11    3.93    0.25
   3  -1 -11   13.21    0.38
   3  -1 -11   12.85    0.40
   3  -1 -11   12.98    0.47
  -3   1  11   12.51    0.38
   2  -1 -11  189.81    4.42
   2  -1 -11  186.41    4.57
   2  -1 -11  188.07    3.88
   2  -1 -11  192.52    3.57
  -2   1  11  197.89    5.26
  -2   1  11  193.20    4.20
  -2   1  11  180.51    3.85
   1  -1 -11   11.81    0.33
   1  -1 -11   11.85    0.43
   1  -1 -11   12.43    0.36
   1  -1 -11   12.44    0.48
   1  -1 -11   12.19    0.40
  -1   1  11   11.92    0.31
  -1   1  11   12.30    0.38
   0  -1 -11   78.66    2.01
   0  -1 -11   83.16    2.28
   0  -1 -11   81.31    1.67
   0  -1 -11   76.53    1.89
   0  -1 -11   79.25    1.54
   0   1  11   79.91    1.81
  -1  -1 -11    1.19    0.18
  -1  -1 -11    1.31    0.14
  -1  -1 -11    1.21    0.14
  -1  -1 -11    1.52    0.19
   1   1  11    1.27    0.14
  -2  -1 -11   41.59    1.13
   2   1  11   41.84    0.95
  -3  -1 -11    7.55    0.35
   5  -2 -11   -0.10    0.14
   4  -2 -11    3.96    0.25
   3  -2 -11    5.40    0.26
   3  -2 -11    5.35    0.26
   2  -2 -11    8.78    0.31
   2  -2 -11    8.99    0.30
   2  -2 -11    8.54    0.35
   2  -2 -11    8.59    0.38
  -2   2  11    8.90    0.34
  -2   2  11    8.39    0.27
   1  -2 -11    5.84    0.29
   1  -2 -11    5.12    0.24
   1  -2 -11    5.56    0.26
   1  -2 -11    4.65    0.23
   1  -2 -11    4.87    0.32
  -1   2  11    4.79    0.28
  -1   2  11    4.87    0.25
  -1   2  11    4.45    0.18
   0  -2 -11    0.69    0.14
   0  -2 -11    0.13    0.13
   0  -2 -11    0.27    0.11
   0  -2 -11    0.31    0.10
   0   2  11    0.25    0.10
   0   2  11    0.34    0.11
  -1  -2 -11   10.59    0.40
  -1  -2 -11   10.02    0.39
   1   2  11   10.21    0.33
   1   2  11    9.80    0.31
  -2  -2 -11   19.20    0.61
   2   2  11   18.60    0.47
  -3  -2 -11   24.49    0.73
   5  -3 -11    2.85    0.25
   4  -3 -11    3.92    0.25
   3  -3 -11   99.28    2.15
   3  -3 -11  102.61    1.99
   2  -3 -11   29.51    0.82
   2  -3 -11   29.68    0.67
   2  -3 -11   28.66    0.72
  -2   3  11   30.27    0.78
  -2   3  11   27.60    0.67
   1  -3 -11   23.74    0.68
   1  -3 -11   23.57    0.61
   1  -3 -11   24.42    0.75
   1  -3 -11   24.22    0.57
  -1   3  11   25.10    0.66
  -1   3  11   24.31    0.66
   0  -3 -11    0.37    0.15
   0  -3 -11    0.91    0.16
   0  -3 -11    0.68    0.11
   0   3  11    0.50    0.12
   0   3  11    0.60    0.13
  -1  -3 -11   27.38    0.84
  -1  -3 -11   25.92    0.79
   1   3  11   28.22    0.69
   1   3  11   25.48    0.66
  -2  -3 -11    2.03    0.23
  -2  -3 -11    2.09    0.20
   2   3  11    2.30    0.18
   2   3  11    2.10    0.15
   4  -4 -11    0.61    0.16
   3  -4 -11    6.93    0.30
   3  -4 -11    6.19    0.31
   2  -4 -11    4.97    0.26
   2  -4 -11    5.97    0.31
   1  -4 -11    0.83    0.14
  -1   4  11    0.78    0.15
   0  -4 -11   17.72    0.61
   0   4  11   19.03    0.54
   0   4  11   17.71    0.51
  -1  -4 -11    0.14    0.15
   1   4  11    0.22    0.11
   1   4  11    0.28    0.11
   2   4  11   17.56    0.49
   2   4  11   18.90    0.51
   3   4  11    0.42    0.12
   3   4  11    0.52    0.10
   3  -5 -11   21.72    0.58
   2  -5 -11    1.43    0.17
  -1   5  11    0.15    0.14
   0   5  11   15.01    0.47
   1   5  11    0.29    0.14
   1   5  11    0.44    0.13
   2   5  11   10.57    0.36
   2   5  11   11.13    0.39
   2  -6 -11    5.84    0.31
   0   6  11    4.42    0.28
   1   8 -12    1.70    0.20
  -1  -8  12    1.88    0.20
   0   8 -12    2.85    0.26
   0  -8  12    2.80    0.25
  -1   8 -12    1.32    0.18
   1  -8  12    1.48    0.18
  -2   8 -12    3.04    0.27
   2  -8  12    3.46    0.25
   2   7 -12   44.97    1.00
  -2  -7  12   44.76    1.15
  -2  -7  12   44.31    1.00
   1   7 -12   17.39    0.50
  -1  -7  12   17.62    0.55
  -1  -7  12   18.23    0.50
   0   7 -12    9.98    0.36
   0  -7  12    9.69    0.34
  -1   7 -12   23.75    0.59
  -1   7 -12   22.29    0.62
   1  -7  12   23.95    0.58
  -2   7 -12    0.38    0.15
   2  -7  12    0.41    0.14
  -3   7 -12    0.46    0.15
   3  -7  12    0.67    0.14
   3   6 -12    5.91    0.30
  -3  -6  12    6.18    0.31
  -3  -6  12    5.70    0.34
   2   6 -12    0.25    0.16
  -2  -6  12    0.24    0.16
  -2  -6  12   -0.04    0.15
   1   6 -12    0.04    0.13
   1   6 -12   -0.10    0.12
  -1  -6  12    0.06    0.13
  -1  -6  12    0.03    0.13
   0   6 -12    0.04    0.13
   0   6 -12    0.02    0.13
   0   6 -12   -0.04    0.13
   0  -6  12    0.31    0.12
   0  -6  12   -0.08    0.12
  -1   6 -12   13.57    0.42
  -1   6 -12   14.10    0.41
   1  -6  12   14.18    0.39
  -2   6 -12   15.30    0.52
  -2   6 -12   16.09    0.45
  -2   6 -12   15.93    0.64
   2  -6  12   15.88    0.51
   2  -6  12   15.32    0.41
  -3   6 -12    0.57    0.19
   3  -6  12    0.51    0.11
   3  -6  12    0.61    0.16
  -4   6 -12    1.27    0.22
   4  -6  12    0.94    0.18
   4   5 -12    5.09    0.28
  -4  -5  12    4.69    0.29
   3   5 -12   38.82    0.89
  -3  -5  12   38.64    1.02
  -3  -5  12   39.64    0.89
   2   5 -12   27.10    0.78
   2   5 -12   27.26    0.65
  -2  -5  12   26.51    0.65
  -2  -5  12   27.18    0.74
   1   5 -12    4.13    0.24
   1   5 -12    4.29    0.26
   1   5 -12    4.29    0.24
  -1  -5  12    4.05    0.25
  -1  -5  12    4.20    0.23
   0   5 -12   17.30    0.57
   0   5 -12   16.89    0.54
   0   5 -12   17.77    0.46
   0   5 -12   16.56    0.48
   0  -5  12   17.53    0.45
   0  -5  12   17.50    0.48
  -1   5 -12    2.34    0.21
  -1   5 -12    2.34    0.20
  -1   5 -12    2.44    0.20
   1  -5  12    2.43    0.23
   1  -5  12    2.43    0.19
  -2   5 -12    3.29    0.22
  -2   5 -12    2.95    0.29
  -2   5 -12    3.34    0.21
   2  -5  12    2.94    0.24
   2  -5  12    2.72    0.19
  -3   5 -12   34.87    1.13
   3  -5  12   37.46    0.73
   3  -5  12   35.02    0.90
  -4   5 -12   12.20    0.52
   4  -5  12   12.45    0.42
   4   4 -12    0.89    0.16
  -4  -4  12    0.99    0.18
  -4  -4  12    1.20    0.17
   3   4 -12    0.22    0.14
   3   4 -12    0.04    0.13
  -3  -4  12   -0.17    0.15
  -3  -4  12    0.13    0.14
   2   4 -12    6.23    0.27
   2   4 -12    5.77    0.27
   2   4 -12    6.16    0.30
  -2  -4  12    6.23    0.27
  -2  -4  12    6.25    0.29
   1   4 -12    8.46    0.36
   1   4 -12    8.64    0.30
   1   4 -12    8.99    0.31
   1   4 -12    8.59    0.35
  -1  -4  12    8.40    0.32
  -1  -4  12    8.61    0.30
   0   4 -12   19.65    0.59
   0   4 -12   19.57    0.51
   0   4 -12   18.98    0.61
   0   4 -12   20.15    0.49
   0  -4  12   19.30    0.52
   0  -4  12   20.60    0.48
   0  -4  12   20.08    0.56
  -1   4 -12   60.86    1.30
  -1   4 -12   60.92    1.21
  -1   4 -12   57.88    1.47
  -1   4 -12   58.61    1.56
   1  -4  12   61.33    1.18
   1  -4  12   60.24    1.41
  -2   4 -12    7.83    0.31
  -2   4 -12    7.47    0.37
  -2   4 -12    7.96    0.27
   2  -4  12    7.84    0.31
   2  -4  12    7.88    0.24
  -3   4 -12    0.85    0.16
   3  -4  12    0.64    0.13
   4  -4  12    5.74    0.27
   5  -4  12    9.87    0.37
   4   3 -12   13.70    0.44
  -4  -3  12   14.18    0.44
  -4  -3  12   14.01    0.50
   3   3 -12   18.84    0.50
   3   3 -12   19.21    0.60
  -3  -3  12   18.50    0.57
  -3  -3  12   19.03    0.50
   2   3 -12    2.14    0.22
   2   3 -12    1.78    0.20
   2   3 -12    1.61    0.18
  -2  -3  12    1.39    0.14
  -2  -3  12    1.92    0.20
   1   3 -12    5.98    0.25
   1   3 -12    6.25    0.30
   1   3 -12    5.96    0.24
   1   3 -12    6.40    0.29
  -1  -3  12    6.19    0.26
  -1  -3  12    6.27    0.28
  -1  -3  12    6.61    0.24
   0   3 -12    8.10    0.27
   0   3 -12    7.65    0.35
   0   3 -12    7.66    0.28
   0   3 -12    7.85    0.31
   0  -3  12    8.19    0.26
   0  -3  12    7.81    0.31
   0  -3  12    7.52    0.27
  -1   3 -12   10.35    0.43
  -1   3 -12   10.20    0.30
  -1   3 -12    9.94    0.35
  -1   3 -12   10.31    0.31
  -1   3 -12    9.84    0.40
   1  -3  12   10.07    0.27
   1  -3  12   10.08    0.34
  -2   3 -12   40.57    1.07
  -2   3 -12   43.76    0.88
  -2   3 -12   45.49    1.29
  -2   3 -12   42.56    1.28
  -2   3 -12   42.39    1.17
   2  -3  12   42.43    1.02
  -3   3 -12   41.94    1.17
  -3   3 -12   36.93    1.15
   3  -3  12   36.22    0.92
   4  -3  12   11.33    0.36
   5  -3  12    0.24    0.12
   5   2 -12    0.69    0.16
   4   2 -12    2.07    0.24
   4   2 -12    2.35    0.24
  -4  -2  12    2.29    0.27
   3   2 -12   17.54    0.47
   3   2 -12   16.66    0.56
  -3  -2  12   17.51    0.54
  -3  -2  12   17.77    0.46
   2   2 -12   37.17    0.90
   2   2 -12   40.19    1.07
   2   2 -12   39.42    0.84
   2   2 -12   38.55    1.03
  -2  -2  12   39.06    0.83
  -2  -2  12   39.54    0.97
   1   2 -12    8.21    0.32
   1   2 -12    8.38    0.28
   1   2 -12    8.48    0.36
   1   2 -12    8.17    0.29
  -1  -2  12    8.43    0.34
  -1  -2  12    8.38    0.32
  -1  -2  12    8.40    0.30
  -1  -2  12    8.16    0.26
   0   2 -12   93.68    2.31
   0   2 -12   98.21    1.87
   0   2 -12   98.61    2.17
   0   2 -12  100.69    2.78
   0   2 -12   95.98    2.42
   0   2 -12   97.12    2.03
   0  -2  12   99.31    1.85
   0  -2  12   94.67    1.99
   0  -2  12   97.58    2.20
  -1   2 -12   25.22    0.56
  -1   2 -12   25.90    0.60
  -1   2 -12   26.84    0.82
  -1   2 -12   24.38    0.68
  -1   2 -12   24.95    0.75
   1  -2  12   25.60    0.65
  -2   2 -12    0.16    0.09
  -2   2 -12    0.08    0.12
  -2   2 -12    0.22    0.13
  -2   2 -12    0.14    0.11
   2  -2  12    0.10    0.09
  -3   2 -12    1.51    0.20
  -3   2 -12    1.48    0.17
   3  -2  12    1.59    0.16
   4  -2  12    6.87    0.25
   5   1 -12    0.66    0.16
   4   1 -12    5.55    0.28
  -4  -1  12    5.44    0.31
   3   1 -12    1.77    0.23
   3   1 -12    2.06    0.19
   3   1 -12    2.04    0.21
  -3  -1  12    1.56    0.19
   2   1 -12    1.41    0.17
   2   1 -12    1.37    0.18
   2   1 -12    1.52    0.20
   2   1 -12    1.40    0.14
  -2  -1  12    1.42    0.15
  -2  -1  12    1.27    0.15
   1   1 -12   11.43    0.35
   1   1 -12   11.64    0.34
   1   1 -12   12.00    0.48
   1   1 -12   10.89    0.39
   1   1 -12   11.44    0.43
  -1  -1  12   11.18    0.32
  -1  -1  12   11.71    0.38
   0   1 -12   15.41    0.55
   0   1 -12   14.29    0.50
   0   1 -12   14.92    0.38
   0   1 -12   15.26    0.41
   0   1 -12   14.74    0.45
   0  -1  12   15.61    0.44
  -1   1 -12   21.49    0.60
  -1   1 -12   23.73    0.73
  -1   1 -12   22.65    0.69
  -1   1 -12   22.67    0.50
  -1   1 -12   23.08    0.54
   1  -1  12   22.56    0.58
  -2   1 -12   51.92    1.40
  -2   1 -12   44.90    1.15
  -2   1 -12   47.20    1.28
   2  -1  12   47.73    1.11
  -3   1 -12    8.09    0.30
   4   0 -12   11.17    0.37
   3   0 -12   57.45    1.19
   3   0 -12   57.65    1.52
   2   0 -12   -0.32    0.11
   2   0 -12    0.18    0.13
   2   0 -12   -0.09    0.11
   2   0 -12   -0.21    0.11
  -2   0  12   -0.15    0.09
   1   0 -12   69.85    1.83
   1   0 -12   69.54    1.74
   1   0 -12   74.39    1.42
   1   0 -12   72.01    1.54
  -1   0  12   74.44    1.66
  -1   0  12   71.07    1.49
   0   0 -12   34.03    0.76
   0   0 -12   32.08    0.86
   0   0 -12   32.73    0.94
   0   0 -12   35.35    1.04
   0   0 -12   33.48    0.71
   0   0  12   33.68    0.82
  -1   0 -12    1.77    0.20
  -1   0 -12    1.76    0.14
  -1   0 -12    2.16    0.22
  -1   0 -12    1.70    0.15
   1   0  12    1.85    0.15
  -2   0 -12    0.22    0.11
  -2   0 -12    0.14    0.14
   2   0  12    0.23    0.08
  -3   0 -12    0.72    0.16
   5  -1 -12    0.19    0.15
   4  -1 -12    2.14    0.22
   3  -1 -12    0.47    0.13
   3  -1 -12    0.58    0.13
   2  -1 -12    5.67    0.26
   2  -1 -12    5.84    0.31
   2  -1 -12    5.79    0.29
   2  -1 -12    5.75    0.25
  -2   1  12    5.82    0.29
  -2   1  12    5.50    0.22
   1  -1 -12   10.02    0.36
   1  -1 -12   10.16    0.31
   1  -1 -12   10.16    0.33
   1  -1 -12   10.04    0.40
  -1   1  12    9.97    0.27
  -1   1  12   10.18    0.35
   0  -1 -12    3.61    0.26
   0  -1 -12    3.34    0.20
   0  -1 -12    3.48    0.26
   0  -1 -12    3.60    0.19
   0   1  12    3.39    0.20
  -1  -1 -12   22.52    0.61
  -1  -1 -12   22.54    0.71
  -1  -1 -12   25.42    0.75
   1   1  12   22.73    0.59
  -2  -1 -12    4.96    0.31
  -2  -1 -12    4.94    0.25
   2   1  12    4.52    0.19
   5  -2 -12    1.00    0.17
   4  -2 -12   37.55    0.86
   3  -2 -12    1.02    0.16
   3  -2 -12    1.01    0.16
   2  -2 -12   25.61    0.73
   2  -2 -12   25.72    0.61
   2  -2 -12   25.32    0.65
  -2   2  12   26.52    0.70
  -2   2  12   24.14    0.60
   1  -2 -12   19.71    0.48
   1  -2 -12   18.87    0.62
   1  -2 -12   18.74    0.57
  -1   2  12   19.47    0.55
   0  -2 -12    3.31    0.20
   0  -2 -12    2.89    0.20
   0  -2 -12    3.63    0.26
   0   2  12    3.17    0.21
   0   2  12    3.24    0.23
  -1  -2 -12    2.36    0.22
  -1  -2 -12    2.00    0.22
   1   2  12    1.98    0.19
   1   2  12    1.93    0.17
  -2  -2 -12    0.83    0.17
  -2  -2 -12    0.85    0.13
   2   2  12    0.73    0.11
   2   2  12    0.72    0.10
   4  -3 -12    0.58    0.15
   3  -3 -12    0.53    0.14
   3  -3 -12    0.58    0.14
   2  -3 -12    1.58    0.16
   2  -3 -12    2.04    0.23
   1  -3 -12    0.04    0.12
   1  -3 -12   -0.17    0.11
  -1   3  12   -0.09    0.11
   0   3  12    2.10    0.23
   0   3  12    2.14    0.20
   1   3  12    3.35    0.20
   1   3  12    3.63    0.23
  -2  -3 -12    0.24    0.13
   2   3  12    0.36    0.11
   2   3  12    0.32    0.10
   3  -4 -12    4.27    0.26
   2  -4 -12    4.69    0.26
   1  -4 -12    2.39    0.22
  -1   4  12    2.52    0.24
   0   4  12    2.90    0.23
   1   4  12    2.36    0.20
   1   4  12    2.31    0.23
   2   4  12    0.26    0.11
   2   4  12    0.21    0.13
   2  -5 -12    0.05    0.13
   0   5  12    3.01    0.25
   1   5  12    0.46    0.13
   2   7 -13    0.36    0.17
   1   7 -13    0.22    0.16
  -1  -7  13    0.09    0.15
   0   7 -13    3.38    0.26
   0  -7  13    3.21    0.24
  -1   7 -13    3.53    0.26
   1  -7  13    3.25    0.25
  -2   7 -13   40.63    0.91
   2  -7  13   40.83    0.88
   3  -7  13    0.26    0.13
   3   6 -13    1.64    0.19
  -3  -6  13    1.53    0.19
  -3  -6  13    1.59    0.21
   2   6 -13   13.55    0.44
  -2  -6  13   13.35    0.48
  -2  -6  13   13.27    0.43
   1   6 -13   10.26    0.37
  -1  -6  13   10.40    0.38
  -1  -6  13   10.28    0.35
   0   6 -13   29.97    0.77
   0   6 -13   31.98    0.73
   0  -6  13   31.47    0.71
  -1   6 -13    3.57    0.24
   1  -6  13    3.39    0.23
  -2   6 -13   37.03    0.84
   2  -6  13   38.61    0.81
  -3   6 -13    9.52    0.49
   3  -6  13    9.37    0.39
   3  -6  13    9.52    0.30
   3   5 -13    0.81    0.17
  -3  -5  13    0.98    0.18
  -3  -5  13    1.19    0.19
   2   5 -13    5.67    0.28
   2   5 -13    5.47    0.30
  -2  -5  13    5.59    0.31
  -2  -5  13    5.80    0.28
   1   5 -13   11.60    0.37
   1   5 -13   11.25    0.44
   1   5 -13   11.36    0.39
  -1  -5  13   11.63    0.37
  -1  -5  13   11.88    0.40
   0   5 -13    2.01    0.21
   0   5 -13    2.25    0.20
   0  -5  13    2.20    0.20
  -1   5 -13  102.33    1.99
  -1   5 -13   98.32    2.45
   1  -5  13  102.71    1.96
   1  -5  13  103.73    2.34
  -2   5 -13   18.16    0.58
  -2   5 -13   19.20    0.49
  -2   5 -13   19.20    0.70
   2  -5  13   18.51    0.56
   2  -5  13   19.04    0.45
  -3   5 -13   30.34    1.00
   3  -5  13   30.16    0.80
   4  -5  13    5.18    0.29
  -4  -4  13    5.25    0.30
   3   4 -13   32.42    0.77
  -3  -4  13   32.07    0.88
  -3  -4  13   32.52    0.76
   2   4 -13    9.64    0.40
   2   4 -13   10.07    0.34
   2   4 -13    9.24    0.34
  -2  -4  13   10.19    0.33
  -2  -4  13    9.29    0.36
   1   4 -13   93.50    2.35
   1   4 -13   94.47    1.85
   1   4 -13   91.67    2.00
  -1  -4  13   93.33    1.83
  -1  -4  13   95.57    2.13
   0   4 -13    0.30    0.12
   0   4 -13    0.17    0.11
   0   4 -13    0.10    0.12
   0   4 -13    0.05    0.13
   0  -4  13    0.17    0.10
   0  -4  13    0.06    0.10
   0  -4  13    0.29    0.12
  -1   4 -13   55.92    1.14
  -1   4 -13   54.74    1.39
   1  -4  13   56.00    1.33
   1  -4  13   56.22    1.11
  -2   4 -13   12.48    0.49
   2  -4  13   11.89    0.40
   2  -4  13   12.31    0.30
  -3   4 -13    0.85    0.17
   3  -4  13    1.06    0.15
   4  -4  13    9.49    0.35
   4   3 -13    0.36    0.16
  -4  -3  13    0.37    0.18
  -4  -3  13    0.25    0.16
   3   3 -13   18.73    0.60
   3   3 -13   18.07    0.50
  -3  -3  13   17.94    0.57
  -3  -3  13   18.15    0.49
   2   3 -13   26.17    0.80
   2   3 -13   27.27    0.65
  -2  -3  13   27.56    0.64
  -2  -3  13   28.24    0.74
   1   3 -13    0.36    0.12
   1   3 -13    0.38    0.14
   1   3 -13    0.24    0.12
   1   3 -13    0.39    0.13
  -1  -3  13    0.40    0.11
  -1  -3  13    0.28    0.13
  -1  -3  13    0.34    0.13
   0   3 -13  112.34    2.88
   0   3 -13  121.29    2.25
   0   3 -13  116.09    2.44
   0   3 -13  116.06    2.78
   0  -3  13  119.05    2.22
   0  -3  13  116.77    2.64
  -1   3 -13   76.61    1.99
  -1   3 -13   75.85    1.88
  -1   3 -13   78.88    1.53
   1  -3  13   80.45    1.49
   1  -3  13   77.27    1.79
   2  -3  13   21.27    0.58
  -3   3 -13    9.24    0.39
   3  -3  13    9.18    0.32
   4  -3  13    7.61    0.30
   4   2 -13   45.16    1.00
  -4  -2  13   45.05    1.17
   3   2 -13    1.09    0.16
  -3  -2  13    0.75    0.17
   2   2 -13  111.45    2.42
   2   2 -13  116.32    2.85
   2   2 -13  116.53    2.24
  -2  -2  13  116.29    2.61
   1   2 -13    8.15    0.29
   1   2 -13    7.62    0.36
   1   2 -13    8.02    0.33
   1   2 -13    8.28    0.29
  -1  -2  13    7.78    0.26
  -1  -2  13    8.24    0.33
   0   2 -13   49.06    1.07
   0   2 -13   45.69    1.21
   0   2 -13   48.01    1.29
   0   2 -13   48.99    0.99
   0  -2  13   48.56    1.16
  -1   2 -13    5.36    0.25
  -1   2 -13    5.32    0.23
  -1   2 -13    5.46    0.31
  -1   2 -13    5.89    0.32
   1  -2  13    5.55    0.25
  -2   2 -13    0.10    0.13
   2  -2  13    0.10    0.10
  -3   2 -13   32.71    1.04
  -3   2 -13   37.97    1.07
   3  -2  13   33.62    0.84
  -4  -1  13   16.70    0.57
   3   1 -13   36.21    0.82
  -3  -1  13   35.94    0.95
   2   1 -13    8.41    0.38
   2   1 -13    8.93    0.31
   2   1 -13    8.31    0.31
   2   1 -13    7.76    0.34
   1   1 -13   58.54    1.15
   1   1 -13   53.61    1.40
   1   1 -13   57.19    1.24
   1   1 -13   54.51    1.48
  -1  -1  13   55.19    1.20
  -1  -1  13   58.83    1.35
   0   1 -13  107.69    2.68
   0   1 -13  116.24    2.18
   0   1 -13  116.57    2.36
   0   1 -13  113.40    2.82
   0  -1  13  114.91    2.56
  -1   1 -13    2.53    0.23
  -1   1 -13    2.20    0.17
  -1   1 -13    2.69    0.24
   1  -1  13    2.49    0.18
  -2   1 -13    7.76    0.34
   2  -1  13    7.54    0.27
  -3   1 -13   20.34    0.63
  -3   1 -13   17.60    0.60
   4   0 -13    0.69    0.15
   3   0 -13   66.35    1.36
   2   0 -13   17.33    0.46
   2   0 -13   16.54    0.47
   2   0 -13   16.64    0.54
   1   0 -13   21.87    0.65
   1   0 -13   23.16    0.54
   1   0 -13   22.82    0.58
   1   0 -13   22.06    0.71
  -1   0  13   22.94    0.62
  -1   0  13   22.44    0.52
   0   0 -13    0.28    0.10
   0   0 -13    0.16    0.11
   0   0 -13    0.35    0.14
   0   0  13    0.36    0.11
  -1   0 -13    6.56    0.32
  -1   0 -13    6.62    0.35
   1   0  13    6.24    0.25
  -2   0 -13   49.29    1.44
   4  -1 -13   24.64    0.63
   3  -1 -13   14.72    0.44
   2  -1 -13    7.50    0.33
   2  -1 -13    7.64    0.29
   2  -1 -13    6.73    0.29
   1  -1 -13   65.51    1.66
   1  -1 -13   67.98    1.35
  -1   1  13   69.29    1.58
   0  -1 -13    1.88    0.18
   0  -1 -13    2.28    0.19
   0   1  13    1.92    0.19
  -1  -1 -13    1.81    0.22
   1   1  13    1.50    0.16
  -2  -1 -13   28.86    0.86
   2   1  13   26.23    0.67
   4  -2 -13   17.65    0.51
   3  -2 -13   10.09    0.36
   2  -2 -13    5.74    0.27
   1  -2 -13    0.62    0.14
   1  -2 -13    0.70    0.13
  -1   2  13    0.53    0.13
   0   2  13   21.38    0.60
   0   2  13   20.44    0.57
   1   2  13   22.94    0.60
   1   2  13   21.40    0.58
  -2  -2 -13   88.44    2.42
   2   2  13   81.59    1.91
   3  -3 -13    0.03    0.14
   2  -3 -13   15.90    0.46
   1  -3 -13    5.34    0.25
  -1   3  13    5.34    0.29
   0   3  13   -0.04    0.11
   1   3  13   22.08    0.61
   1   3  13   23.72    0.63
   2   3  13   10.01    0.32
   3  -4 -13    1.19    0.17
   2  -4 -13    0.73    0.14
  -1   4  13   21.45    0.63
   0   4  13    2.76    0.23
   1   4  13   56.11    1.33
   0   7 -14   19.22    0.54
   0  -7  14   19.32    0.53
  -1   7 -14    2.91    0.26
   1  -7  14    3.48    0.25
   2   6 -14    6.51    0.32
  -2  -6  14    6.61    0.32
  -2  -6  14    6.52    0.35
   1   6 -14   11.09    0.38
  -1  -6  14   10.71    0.37
   0   6 -14   53.71    1.16
   0  -6  14   55.34    1.14
  -1   6 -14   15.96    0.46
   1  -6  14   16.37    0.44
   2  -6  14    0.62    0.13
   3   5 -14    3.73    0.28
  -3  -5  14    4.18    0.31
  -3  -5  14    4.30    0.28
   2   5 -14   18.74    0.52
  -2  -5  14   18.05    0.57
  -2  -5  14   18.61    0.51
   1   5 -14   41.27    0.91
  -1  -5  14   40.48    0.89
  -1  -5  14   40.69    1.02
   0   5 -14    0.41    0.14
   0  -5  14    0.44    0.13
  -1   5 -14   30.48    0.89
  -1   5 -14   32.60    0.73
   1  -5  14   32.95    0.70
   2  -5  14   15.95    0.52
   2  -5  14   16.39    0.40
   3  -5  14    0.06    0.15
   3   4 -14   24.12    0.62
  -3  -4  14   23.79    0.71
  -3  -4  14   23.70    0.62
   2   4 -14    6.65    0.31
  -2  -4  14    6.23    0.28
  -2  -4  14    6.37    0.32
   1   4 -14   64.91    1.35
  -1  -4  14   65.95    1.54
  -1  -4  14   66.31    1.33
   0   4 -14   14.31    0.50
   0   4 -14   15.29    0.43
   0  -4  14   15.43    0.41
   0  -4  14   15.27    0.49
  -1   4 -14   -0.18    0.13
  -1   4 -14   -0.01    0.12
   1  -4  14   -0.17    0.14
   1  -4  14   -0.08    0.10
   2  -4  14    8.80    0.35
   3  -4  14    3.92    0.26
  -4  -3  14    4.92    0.29
   3   3 -14   10.66    0.37
  -3  -3  14   10.38    0.36
  -3  -3  14    9.97    0.42
   2   3 -14   34.05    0.78
  -2  -3  14   34.31    0.89
  -2  -3  14   33.79    0.77
   1   3 -14   12.04    0.39
   1   3 -14   12.70    0.38
  -1  -3  14   12.54    0.37
  -1  -3  14   12.42    0.41
   0   3 -14    9.75    0.39
   0   3 -14   10.81    0.33
   0  -3  14   10.45    0.38
   0  -3  14    9.92    0.28
   0  -3  14    9.12    0.31
  -1   3 -14   13.31    0.38
  -1   3 -14   12.49    0.44
   1  -3  14   12.92    0.42
   2  -3  14    1.02    0.14
   3  -3  14   -0.15    0.11
   4  -3  14    1.73    0.21
  -4  -2  14   28.10    0.82
   3   2 -14    0.57    0.15
  -3  -2  14    0.30    0.17
   2   2 -14   50.68    1.08
   1   2 -14    4.87    0.27
   1   2 -14    5.10    0.25
   1   2 -14    5.13    0.25
  -1  -2  14    4.84    0.21
  -1  -2  14    5.02    0.28
   0   2 -14    0.86    0.14
   0   2 -14    0.83    0.13
   0  -2  14    0.87    0.14
   1  -2  14   36.55    0.91
   2  -2  14   40.60    0.98
   3   1 -14    9.00    0.35
   2   1 -14   17.07    0.47
   1   1 -14    0.16    0.12
   1   1 -14    0.15    0.12
  -1  -1  14    0.21    0.13
  -1  -1  14    0.32    0.09
   0   1 -14    2.07    0.20
   0   1 -14    1.66    0.18
   0  -1  14    1.87    0.20
   1  -1  14    0.17    0.12
   2  -1  14    1.01    0.12
   3  -1  14    4.46    0.22
   4   0 -14   -0.14    0.14
   3   0 -14   26.27    0.65
   2   0 -14    0.18    0.12
   2   0 -14    0.12    0.13
   1   0 -14    7.65    0.34
   1   0 -14    8.21    0.30
  -1   0  14    8.15    0.33
  -1   0  14    7.50    0.24
   0   0  14   44.31    1.08
   1   0  14  102.61    2.31
   2   0  14    4.48    0.22
   4  -1 -14    0.05    0.15
   3  -1 -14    4.86    0.28
   2  -1 -14    6.56    0.29
   1  -1 -14    2.24    0.21
   1  -1 -14    2.49    0.22
  -1   1  14    2.27    0.23
   0   1  14    1.00    0.14
   1   1  14    0.48    0.12
   2   1  14    4.97    0.23
   3  -2 -14    0.31    0.15
   2  -2 -14   16.09    0.46
  -1   2  14   19.42    0.57
   0   2  14  108.56    2.46
   1   2  14    0.40    0.13
   1   2  14    0.34    0.13
   2   2  14   35.77    0.87
   2  -3 -14    6.93    0.30
  -1   3  14    4.89    0.30
   0   3  14    0.17    0.13
   1   3  14    0.81    0.16
   1   3  14    1.04    0.15
   1   6 -15    6.69    0.32
  -1  -6  15    6.38    0.30
   0   6 -15   15.76    0.48
   0  -6  15   15.98    0.46
  -1   6 -15    0.13    0.15
   1  -6  15    0.21    0.13
   2   5 -15    8.36    0.35
  -2  -5  15    7.81    0.37
  -2  -5  15    8.18    0.33
   1   5 -15    1.71    0.19
  -1  -5  15    1.73    0.17
   0   5 -15   -0.14    0.14
   0  -5  15    0.02    0.12
  -1   5 -15   12.32    0.40
   1  -5  15   12.14    0.36
   2  -5  15   10.93    0.42
   3   4 -15   17.94    0.53
   2   4 -15   10.37    0.38
  -2  -4  15   10.57    0.36
  -2  -4  15   10.17    0.40
   1   4 -15    7.41    0.32
  -1  -4  15    7.23    0.29
   0   4 -15    0.99    0.15
   0  -4  15    0.96    0.14
   1  -4  15   45.47    1.13
   1  -4  15   45.25    0.92
   2  -4  15    4.20    0.27
   3  -4  15   72.84    1.70
   3   3 -15    2.53    0.24
  -3  -3  15    1.67    0.21
   2   3 -15    0.20    0.14
  -2  -3  15    0.11    0.15
   1   3 -15    2.55    0.23
   0   3 -15   17.83    0.47
   0   3 -15   17.17    0.57
   0  -3  15   17.55    0.54
   1  -3  15   40.49    1.02
   2  -3  15    5.55    0.28
   3  -3  15    0.37    0.14
   3   2 -15    5.97    0.31
   2   2 -15    1.16    0.16
   2   2 -15    0.81    0.15
   1   2 -15    6.79    0.29
   0   2 -15   79.45    1.58
   0  -2  15   78.39    1.84
   1  -2  15    0.03    0.12
   2  -2  15  101.43    2.30
   3   1 -15    1.01    0.17
   2   1 -15   10.24    0.36
   1   1 -15    9.36    0.34
   1   1 -15    8.01    0.36
  -1  -1  15    8.60    0.37
   0  -1  15   58.95    1.41
   1  -1  15   15.38    0.47
   2  -1  15    2.93    0.23
   3  -1  15    1.60    0.17
   3   0 -15    0.08    0.15
   2   0 -15   10.85    0.37
   1   0 -15   75.38    1.96
   1   0 -15   81.65    1.60
  -1   0  15   82.90    1.88
   0   0  15    5.83    0.29
   1   0  15   73.24    1.69
   2   0  15   36.38    0.89
   2  -1 -15    0.33    0.14
  -1   1  15   40.28    1.03
   0   1  15   17.98    0.54
   1   1  15    8.09    0.32
   2   1  15    0.85    0.13
   2  -2 -15   53.10    1.14
  -1   2  15   13.44    0.47
   0   2  15   21.09    0.61
   1   2  15   22.91    0.63
   1   5 -16   16.36    0.50
  -1  -5  16   17.04    0.48
   0   5 -16    7.91    0.34
   0  -5  16    8.48    0.32
   1  -5  16   13.89    0.38
   2   4 -16    0.13    0.15
   1   4 -16   12.38    0.43
  -1  -4  16   12.89    0.40
   0   4 -16   11.16    0.38
   0  -4  16   10.92    0.34
   2  -4  16    4.02    0.28
   2   3 -16   33.68    0.80
   1   3 -16   31.33    0.74
   1  -3  16   29.02    0.78
   2  -3  16    4.29    0.27
   2   2 -16   17.24    0.51
   1   2 -16    5.16    0.27
   0  -2  16   52.50    1.29
   1  -2  16    0.08    0.13
   2  -2  16   33.48    0.86
   2   1 -16   59.24    1.26
   1   1 -16    7.55    0.32
   0  -1  16   28.59    0.78
   1  -1  16   -0.03    0.13
   2  -1  16    2.64    0.22
   2   0 -16    0.08    0.15
   0   0  16    1.34    0.17
   1   0  16   22.52    0.63
   0   1  16    1.06    0.16
   0   0   0    0.00    0.00
;
_shelx_hkl_checksum              7835
_shelx_res_file
;
TITL cg559
CELL  0.71073    5.5186    7.5194   12.8406   102.027    91.293    98.430
ZERR        2    0.0002    0.0003    0.0005     0.002     0.002     0.002
LATT   1
SFAC  C  H Cl  N  S
UNIT 20 10 4 6 2
OMIT -20 60.0
ACTA
BOND $H
CONF
HTAB
TEMP -73.0
SIZE 0.386 0.378 0.301
L.S. 20
FMAP 2
PLAN 20
WGHT    0.028900    0.269600
FVAR       0.42742
S1    5    0.385394    0.238162    0.214570    11.00000    0.03261    0.03413 =
         0.01719    0.00772    0.00128    0.00065
C2    1    0.694600    0.323294    0.208473    11.00000    0.03424    0.03593 =
         0.02529    0.01230    0.01046    0.00516
AFIX  43
H2    2    0.760092    0.343385    0.143372    11.00000   -1.20000
AFIX   0
N3    4    0.831545    0.358117    0.295033    11.00000    0.02855    0.04051 =
         0.02842    0.01580    0.00977    0.00184
N4    4    0.686875    0.313653    0.374294    11.00000    0.02203    0.02711 =
         0.02282    0.00843    0.00430    0.00020
C5    1    0.729931    0.317046    0.480287    11.00000    0.02255    0.02820 =
         0.02226    0.00760   -0.00137   -0.00100
AFIX  43
H5    2    0.880782    0.355029    0.521536    11.00000   -1.20000
AFIX   0
C6    1    0.503994    0.252665    0.513280    11.00000    0.02161    0.01913 =
         0.01758    0.00323   -0.00008    0.00160
N7    4    0.324351    0.208526    0.430290    11.00000    0.02275    0.02711 =
         0.01771    0.00557    0.00097    0.00085
C7A   1    0.443614    0.247769    0.348821    11.00000    0.02314    0.02357 =
         0.01871    0.00468    0.00102    0.00214
C61   1    0.444349    0.227018    0.620410    11.00000    0.02391    0.01925 =
         0.01809    0.00365    0.00204    0.00436
C62   1    0.614109    0.297286    0.706612    11.00000    0.02204    0.02475 =
         0.02109    0.00310   -0.00010    0.00244
AFIX  43
H62   2    0.768829    0.363357    0.696153    11.00000   -1.20000
AFIX   0
C63   1    0.557447    0.270875    0.807694    11.00000    0.02634    0.02734 =
         0.01737    0.00228   -0.00366    0.00646
CL63  3    0.770205    0.366355    0.913020    11.00000    0.03458    0.06082 =
         0.02111    0.00398   -0.00828   -0.00011
C64   1    0.333489    0.172516    0.824160    11.00000    0.03098    0.02550 =
         0.01634    0.00623    0.00297    0.00745
CL64  3    0.265265    0.127308    0.947881    11.00000    0.04533    0.04519 =
         0.02001    0.01367    0.00597    0.00896
C65   1    0.162687    0.105042    0.739172    11.00000    0.02671    0.02676 =
         0.02365    0.00670    0.00310   -0.00148
AFIX  43
H65   2    0.007823    0.039686    0.750085    11.00000   -1.20000
AFIX   0
C66   1    0.216962    0.132567    0.638107    11.00000    0.02518    0.02413 =
         0.01831    0.00345   -0.00100   -0.00029
AFIX  43
H66   2    0.098198    0.086677    0.580425    11.00000   -1.20000
AFIX   0
HKLF 4
REM  cg559
REM R1 =  0.0271 for    2254 Fo > 4sig(Fo)  and  0.0305 for all    2453 data
REM    145 parameters refined using      0 restraints
END
WGHT      0.0289      0.2696
REM Instructions for potential hydrogen bonds
EQIV $1 -x, -y, -z+1
HTAB C65 S1_$1
REM Highest difference peak  0.361,  deepest hole -0.327,  1-sigma level  0.048
Q1    1   0.6154  0.2924  0.5035  11.00000  0.05    0.36
Q2    1   0.7414  0.2604  0.9046  11.00000  0.05    0.34
Q3    1   0.4865  0.2360  0.5671  11.00000  0.05    0.34
Q4    1   0.2205  0.1221  0.6928  11.00000  0.05    0.32
Q5    1   0.3435  0.1664  0.6252  11.00000  0.05    0.30
Q6    1   0.5647  0.2856  0.3601  11.00000  0.05    0.29
Q7    1   0.5924  0.2771  0.7567  11.00000  0.05    0.29
Q8    1   0.2685  0.1278  0.7795  11.00000  0.05    0.27
Q9    1   0.4609  0.1999  0.8179  11.00000  0.05    0.27
Q10   1   0.5329  0.2420  0.6606  11.00000  0.05    0.26
Q11   1   0.5457  0.2990  0.2139  11.00000  0.05    0.25
Q12   1   0.3920  0.2376  0.2872  11.00000  0.05    0.22
Q13   1   0.3687  0.2335  0.3966  11.00000  0.05    0.22
Q14   1   0.7646  0.3452  0.3397  11.00000  0.05    0.21
Q15   1   0.4161  0.2248  0.4763  11.00000  0.05    0.21
Q16   1   0.2243  0.1273  0.4225  11.00000  0.05    0.20
Q17   1   0.7215  0.3091  0.4223  11.00000  0.05    0.18
Q18   1   0.6520  0.4067  0.9243  11.00000  0.05    0.17
Q19   1   0.3204  0.1579  0.8740  11.00000  0.05    0.16
Q20   1   0.3202  0.3328  0.2065  11.00000  0.05    0.16
;
_shelx_res_checksum              9417
_shelxl_version_number           2.014
loop_
_space_group_symop_operation_xyz
'x, y, z'
'-x, -y, -z'
loop_
_atom_site_type_symbol
_atom_site_label
_atom_site_fract_x
_atom_site_fract_y
_atom_site_fract_z
_atom_site_U_iso_or_equiv
_atom_site_adp_type
_atom_site_calc_flag
_atom_site_occupancy
S S1 0.38539(7) 0.23816(5) 0.21457(3) 0.02811(10) Uani d 1
C C2 0.6946(3) 0.3233(2) 0.20847(12) 0.0309(3) Uani d 1
H H2 0.7601 0.3434 0.1434 0.037 Uiso calc 1
N N3 0.8315(2) 0.35812(19) 0.29503(11) 0.0315(3) Uani d 1
N N4 0.6869(2) 0.31365(16) 0.37429(10) 0.0239(2) Uani d 1
C C5 0.7299(3) 0.31705(19) 0.48029(11) 0.0246(3) Uani d 1
H H5 0.8808 0.3550 0.5215 0.029 Uiso calc 1
C C6 0.5040(2) 0.25266(17) 0.51328(10) 0.0197(2) Uani d 1
N N7 0.3244(2) 0.20853(16) 0.43029(9) 0.0227(2) Uani d 1
C C7A 0.4436(2) 0.24777(18) 0.34882(11) 0.0219(3) Uani d 1
C C61 0.4443(2) 0.22702(17) 0.62041(10) 0.0203(3) Uani d 1
C C62 0.6141(3) 0.29729(18) 0.70661(11) 0.0230(3) Uani d 1
H H62 0.7688 0.3634 0.6962 0.028 Uiso calc 1
C C63 0.5574(3) 0.27087(19) 0.80769(11) 0.0239(3) Uani d 1
Cl Cl63 0.77020(8) 0.36636(6) 0.91302(3) 0.04046(12) Uani d 1
C C64 0.3335(3) 0.17252(19) 0.82416(11) 0.0237(3) Uani d 1
Cl Cl64 0.26526(8) 0.12731(6) 0.94788(3) 0.03559(11) Uani d 1
C C65 0.1627(3) 0.10504(19) 0.73917(11) 0.0261(3) Uani d 1
H H65 0.0078 0.0397 0.7501 0.031 Uiso calc 1
C C66 0.2170(3) 0.13257(18) 0.63811(11) 0.0232(3) Uani d 1
H H66 0.0982 0.0867 0.5804 0.028 Uiso calc 1
loop_
_atom_site_aniso_label
_atom_site_aniso_U_11
_atom_site_aniso_U_22
_atom_site_aniso_U_33
_atom_site_aniso_U_12
_atom_site_aniso_U_13
_atom_site_aniso_U_23
S1 0.0326(2) 0.03413(19) 0.01719(17) 0.00065(14) 0.00128(14) 0.00772(13)
C2 0.0342(8) 0.0359(8) 0.0253(7) 0.0052(6) 0.0105(6) 0.0123(6)
N3 0.0285(6) 0.0405(7) 0.0284(7) 0.0018(5) 0.0098(5) 0.0158(5)
N4 0.0220(6) 0.0271(6) 0.0228(6) 0.0002(4) 0.0043(5) 0.0084(4)
C5 0.0225(6) 0.0282(7) 0.0223(7) -0.0010(5) -0.0014(5) 0.0076(5)
C6 0.0216(6) 0.0191(6) 0.0176(6) 0.0016(5) -0.0001(5) 0.0032(4)
N7 0.0228(6) 0.0271(6) 0.0177(5) 0.0009(4) 0.0010(4) 0.0056(4)
C7A 0.0231(6) 0.0236(6) 0.0187(6) 0.0021(5) 0.0010(5) 0.0047(5)
C61 0.0239(6) 0.0193(6) 0.0181(6) 0.0044(5) 0.0020(5) 0.0037(4)
C62 0.0220(6) 0.0247(6) 0.0211(6) 0.0024(5) -0.0001(5) 0.0031(5)
C63 0.0263(7) 0.0273(7) 0.0174(6) 0.0065(5) -0.0037(5) 0.0023(5)
Cl63 0.0346(2) 0.0608(3) 0.02111(19) -0.00011(18) -0.00828(15) 0.00398(16)
C64 0.0310(7) 0.0255(6) 0.0163(6) 0.0075(5) 0.0030(5) 0.0062(5)
Cl64 0.0453(2) 0.0452(2) 0.02001(18) 0.00896(17) 0.00597(15) 0.01367(15)
C65 0.0267(7) 0.0268(7) 0.0236(7) -0.0015(5) 0.0031(6) 0.0067(5)
C66 0.0252(7) 0.0241(6) 0.0183(6) -0.0003(5) -0.0010(5) 0.0035(5)
loop_
_atom_type_symbol
_atom_type_description
_atom_type_scat_dispersion_real
_atom_type_scat_dispersion_imag
_atom_type_scat_source
C C 0.0033 0.0016 'International Tables Vol C Tables 4.2.6.8 and 6.1.1.4'
H H 0.0000 0.0000 'International Tables Vol C Tables 4.2.6.8 and 6.1.1.4'
Cl Cl 0.1484 0.1585 'International Tables Vol C Tables 4.2.6.8 and 6.1.1.4'
N N 0.0061 0.0033 'International Tables Vol C Tables 4.2.6.8 and 6.1.1.4'
S S 0.1246 0.1234 'International Tables Vol C Tables 4.2.6.8 and 6.1.1.4'
loop_
_geom_angle_atom_site_label_1
_geom_angle_atom_site_label_2
_geom_angle_atom_site_label_3
_geom_angle
C7A S1 C2 87.78(7)
N3 C2 S1 117.87(11)
N3 C2 H2 121.1
S1 C2 H2 121.1
C2 N3 N4 107.53(12)
C7A N4 C5 107.67(11)
C7A N4 N3 118.21(12)
C5 N4 N3 134.12(12)
N4 C5 C6 104.11(12)
N4 C5 H5 127.9
C6 C5 H5 127.9
C5 C6 N7 111.90(12)
C5 C6 C61 127.32(13)
N7 C6 C61 120.78(12)
C7A N7 C6 103.47(11)
N7 C7A N4 112.85(12)
N7 C7A S1 138.53(11)
N4 C7A S1 108.61(10)
C62 C61 C66 118.83(12)
C62 C61 C6 120.44(12)
C66 C61 C6 120.73(12)
C63 C62 C61 120.16(13)
C63 C62 H62 119.9
C61 C62 H62 119.9
C64 C63 C62 120.69(13)
C64 C63 Cl63 120.76(11)
C62 C63 Cl63 118.55(11)
C65 C64 C63 119.37(12)
C65 C64 Cl64 119.10(11)
C63 C64 Cl64 121.51(11)
C64 C65 C66 120.26(13)
C64 C65 H65 119.9
C66 C65 H65 119.9
C65 C66 C61 120.66(13)
C65 C66 H66 119.7
C61 C66 H66 119.7
loop_
_geom_bond_atom_site_label_1
_geom_bond_atom_site_label_2
_geom_bond_distance
S1 C7A 1.7310(14)
S1 C2 1.7419(16)
C2 N3 1.288(2)
C2 H2 0.9500
N3 N4 1.3730(16)
N4 C7A 1.3683(18)
N4 C5 1.3706(18)
C5 C6 1.3787(18)
C5 H5 0.9500
C6 N7 1.3918(17)
C6 C61 1.4664(18)
N7 C7A 1.3105(17)
C61 C62 1.3951(19)
C61 C66 1.3963(19)
C62 C63 1.3891(19)
C62 H62 0.9500
C63 C64 1.389(2)
C63 Cl63 1.7319(14)
C64 C65 1.385(2)
C64 Cl64 1.7308(13)
C65 C66 1.3885(18)
C65 H65 0.9500
C66 H66 0.9500
loop_
_geom_torsion_atom_site_label_1
_geom_torsion_atom_site_label_2
_geom_torsion_atom_site_label_3
_geom_torsion_atom_site_label_4
_geom_torsion
C7A S1 C2 N3 -0.49(13)
S1 C2 N3 N4 0.68(17)
C2 N3 N4 C7A -0.59(18)
C2 N3 N4 C5 178.33(15)
C7A N4 C5 C6 -0.43(15)
N3 N4 C5 C6 -179.44(14)
N4 C5 C6 N7 0.50(15)
N4 C5 C6 C61 179.70(12)
C5 C6 N7 C7A -0.36(15)
C61 C6 N7 C7A -179.62(12)
C6 N7 C7A N4 0.07(15)
C6 N7 C7A S1 178.89(13)
C5 N4 C7A N7 0.24(16)
N3 N4 C7A N7 179.43(12)
C5 N4 C7A S1 -178.94(9)
N3 N4 C7A S1 0.25(15)
C2 S1 C7A N7 -178.75(17)
C2 S1 C7A N4 0.11(10)
C5 C6 C61 C62 10.8(2)
N7 C6 C61 C62 -170.07(12)
C5 C6 C61 C66 -169.40(13)
N7 C6 C61 C66 9.73(19)
C66 C61 C62 C63 0.9(2)
C6 C61 C62 C63 -179.33(12)
C61 C62 C63 C64 0.9(2)
C61 C62 C63 Cl63 -178.12(10)
C62 C63 C64 C65 -1.9(2)
Cl63 C63 C64 C65 177.06(11)
C62 C63 C64 Cl64 176.50(11)
Cl63 C63 C64 Cl64 -4.52(17)
C63 C64 C65 C66 1.2(2)
Cl64 C64 C65 C66 -177.23(11)
C64 C65 C66 C61 0.5(2)
C62 C61 C66 C65 -1.6(2)
C6 C61 C66 C65 178.64(12)
