#------------------------------------------------------------------------------
#$Date: 2019-12-26 22:30:58 +0200 (Thu, 26 Dec 2019) $
#$Revision: 246194 $
#$URL: file:///home/coder/svn-repositories/cod/cif/2/31/19/2311973.cif $
#------------------------------------------------------------------------------
#
# This file is available in the Crystallography Open Database (COD),
# http://www.crystallography.net/. The original data for this entry
# were provided by IUCr Journals, http://journals.iucr.org/.
#
# The file may be used within the scientific community so long as
# proper attribution is given to the journal article from which the
# data were obtained.
#
data_2311973
loop_
_publ_author_name
'Su\'arez, Sebasti\'an'
'Manzano, Veronica E.'
'Fantoni, Adolfo C.'
'Halac, Emilia'
'Baggio, Ricardo'
'Cukiernik, Fabio D.'
_publ_section_title
;
 A combined crystallographic, thermal, Raman and computational study on
 polymorphism and phase transition in
 1-(4-hexyloxy-3-hydroxyphenyl)ethanone.
;
_journal_coeditor_code           FN3250
_journal_issue                   'Pt 12'
_journal_name_full
'Acta crystallographica. Section C, Structural chemistry'
_journal_page_first              1137
_journal_page_last               1143
_journal_paper_doi               10.1107/S2053229617016795
_journal_volume                  73
_journal_year                    2017
_chemical_formula_iupac          'C14 H20 O3'
_chemical_formula_moiety         'C14 H20 O3'
_chemical_formula_sum            'C14 H20 O3'
_chemical_formula_weight         236.30
_chemical_name_systematic
;
1-(4-Hexyloxy-3-hydroxyphenyl)ethanone
;
_space_group_crystal_system      triclinic
_space_group_IT_number           2
_space_group_name_Hall           '-P 1'
_space_group_name_H-M_alt        'P -1'
_atom_sites_solution_hydrogens   mixed
_audit_creation_method           SHELXL-2014/6
_cell_angle_alpha                77.857(3)
_cell_angle_beta                 76.632(3)
_cell_angle_gamma                62.158(4)
_cell_formula_units_Z            2
_cell_length_a                   7.9565(3)
_cell_length_b                   8.5027(3)
_cell_length_c                   11.0842(3)
_cell_measurement_reflns_used    1556
_cell_measurement_temperature    100(2)
_cell_measurement_theta_max      27.2000
_cell_measurement_theta_min      3.6270
_cell_volume                     640.51(4)
_computing_cell_refinement
;
CrysAlis PRO (Oxford Diffraction, 2009)
;
_computing_data_collection
;
CrysAlis PRO (Oxford Diffraction, 2009)
;
_computing_data_reduction
;
CrysAlis PRO (Oxford Diffraction, 2009)
;
_computing_molecular_graphics
;
SHELXTL (Sheldrick, 2008)
;
_computing_publication_material
;
SHELXL97 (Sheldrick, 2008) and PLATON (Spek, 2009)
;
_computing_structure_refinement
;
SHELXL2014 (Sheldrick, 2015)
;
_computing_structure_solution
;
SHELXS97 (Sheldrick, 2008)
;
_diffrn_ambient_temperature      100(2)
_diffrn_measured_fraction_theta_full 0.997
_diffrn_measured_fraction_theta_max 0.929
_diffrn_measurement_device       'four-circle diffractometer'
_diffrn_measurement_device_type  'Oxford Diffraction Xcalibur Eos CCD Gemini'
_diffrn_measurement_method       'thick slices'
_diffrn_radiation_type           MoK\a
_diffrn_radiation_wavelength     0.71073
_diffrn_reflns_av_R_equivalents  0.0457
_diffrn_reflns_limit_h_max       10
_diffrn_reflns_limit_h_min       -10
_diffrn_reflns_limit_k_max       11
_diffrn_reflns_limit_k_min       -11
_diffrn_reflns_limit_l_max       15
_diffrn_reflns_limit_l_min       -14
_diffrn_reflns_number            28336
_diffrn_reflns_theta_full        25.250
_diffrn_reflns_theta_max         29.201
_diffrn_reflns_theta_min         3.239
_exptl_absorpt_coefficient_mu    0.085
_exptl_absorpt_correction_type   multi-scan
_exptl_absorpt_process_details
;
CrysAlisPro (Oxford Diffraction, 2009)
;
_exptl_crystal_colour            colourless
_exptl_crystal_density_diffrn    1.225
_exptl_crystal_description       block
_exptl_crystal_F_000             256
_exptl_crystal_size_max          0.25
_exptl_crystal_size_mid          0.18
_exptl_crystal_size_min          0.12
_refine_diff_density_max         0.323
_refine_diff_density_min         -0.230
_refine_ls_extinction_method     none
_refine_ls_goodness_of_fit_ref   1.019
_refine_ls_hydrogen_treatment    mixed
_refine_ls_matrix_type           full
_refine_ls_number_parameters     160
_refine_ls_number_reflns         3221
_refine_ls_number_restraints     1
_refine_ls_restrained_S_all      1.019
_refine_ls_R_factor_all          0.0518
_refine_ls_R_factor_gt           0.0400
_refine_ls_shift/su_max          0.001
_refine_ls_shift/su_mean         0.000
_refine_ls_structure_factor_coef Fsqd
_refine_ls_weighting_details
'w=1/[\s^2^(Fo^2^)+(0.0631P)^2^+0.1165P] where P=(Fo^2^+2Fc^2^)/3'
_refine_ls_weighting_scheme      calc
_refine_ls_wR_factor_gt          0.1023
_refine_ls_wR_factor_ref         0.1108
_reflns_number_gt                2612
_reflns_number_total             3221
_reflns_threshold_expression     'I > 2\s(I)'
_cod_data_source_file            fn3250sup1.cif
_cod_data_source_block           I
_cod_database_code               2311973
_shelx_space_group_comment
;
The symmetry employed for this shelxl refinement is uniquely defined
by the following loop, which should always be used as a source of
symmetry information in preference to the above space-group names.
They are only intended as comments.
;
_shelx_hkl_file
;
   0   0   2 26863.0 336.945  21
   0   0   2 63456.2 423.865  18
   0   0  -2 66481.6 535.108  16
   0   0  -2-7.77018 43.5967  18
   0   0   2 27070.3 339.865  16
   0   0   2 43390.2 438.256  20
   0   0   2 27467.1 342.874  17
   0   0  -2 64421.9 443.869   7
   0   0   2 32937.5 376.929  19
   0   0  -2 64446.2 525.180  21
   0   0   2 64703.3 468.303  11
   0   0  -2 63670.8 507.321   5
   0   0  -2 65654.9 537.276  19
   0   0  -2 65802.4 533.762  17
   0   0  -2-14.0285 44.8657  11
   0   0  -2 65335.5 548.829  20
   0   0   2 270.435 70.1355   5
   0   0   2 37.4738 51.4654   7
   0   0  -3 29846.5 720.840  16
   0   0  -3 27075.0 675.814   7
   0   0   3 28139.1 711.690  17
   0   0   3 28312.3 670.314  18
   0   0   3 28468.2 687.803  11
   0   0  -3 28839.3 688.593  11
   0   0  -3 28973.4 724.538  20
   0   0  -3 29275.4 719.026  17
   0   0  -3 29215.2 677.935  18
   0   0   3 26946.7 699.390   5
   0   0  -3 29814.9 725.572  19
   0   0  -3 29422.1 710.423   5
   0   0   3 29413.3 687.537   7
   0   0  -3 29416.1 720.056  21
   0   0   3 28154.1 717.185  20
   0   0   3 27903.0 709.778  21
   0   0   3 28624.4 714.645  19
   0   0  -4 10581.6 367.106  16
   0   0   4 9817.40 349.040   5
   0   0  -4 10262.6 300.484  15
   0   0  -4 9934.57 324.113   7
   0   0   4 10243.3 363.080  19
   0   0   4 10315.8 319.828  18
   0   0  -4 10357.7 338.022  11
   0   0  -4 10985.2 375.123  19
   0   0   4 9768.69 337.035   7
   0   0   4 10140.4 335.558  11
   0   0  -4 10541.0 368.347  17
   0   0  -4 10364.0 370.981  20
   0   0   4 10317.4 367.896  20
   0   0   4 10438.4 363.462  21
   0   0   4 10214.6 360.667  17
   0   0  -4 10759.4 370.226  21
   0   0  -4 10144.3 284.289   2
   0   0  -4 10855.0 362.614   5
   0   0  -5 10591.9 320.031  15
   0   0   5 9525.68 332.484  18
   0   0   5 9607.87 373.867   5
   0   0   5 9711.84 383.813  21
   0   0  -5 10066.0 390.818  16
   0   0  -5 9973.86 345.160   7
   0   0   5 9764.25 385.304  17
   0   0  -5 9719.99 293.016   2
   0   0   5 9998.18 390.185  19
   0   0  -5 10795.0 391.332   5
   0   0  -5 10347.0 395.604  21
   0   0   5 10166.3 397.806  20
   0   0   5 10357.2 365.690  11
   0   0  -5 10573.5 398.530  17
   0   0  -5 10516.8 363.269  11
   0   0  -6 79223.3 1721.28   2
   0   0   6 79089.9 1833.81  11
   0   0   6 81701.1 1897.88  17
   0   0   6 79854.6 1905.79  20
   0   0  -6 80456.5 1807.90   7
   0   0  -6 78615.5 1750.47  15
   0   0   6 78691.3 1892.87  19
   0   0  -6 80531.8 1833.10  11
   0   0   6 80881.6 1875.70   5
   0   0   6 76882.3 1788.59  18
   0   0   6 80232.0 1893.49  21
   0   0   7 20984.0 666.536  11
   0   0  -7 21006.0 663.967   9
   0   0   7 21555.1 721.396  17
   0   0   7 20322.9 710.168  19
   0   0  -7 21963.3 646.101   7
   0   0  -7 21178.3 558.782   2
   0   0   7 21434.8 729.628  20
   0   0   7 21365.8 630.353  18
   0   0   7 22011.2 708.666   5
   0   0  -7 20773.1 585.926  15
   0   0   7 21013.7 712.897  21
   0   0   8 393.855 105.575  19
   0   0   8 299.886 80.0143  11
   0   0  -8 407.775 67.0212  15
   0   0   8 375.734 73.4982  18
   0   0   8 338.532 100.256  21
   0   0   8 322.991 106.957  20
   0   0   8 519.876 102.391   5
   0   0   8 534.190 117.168  17
   0   0  -8 317.329 78.7840   9
   0   0  -8 504.167 63.3088   2
   0   0  -8 479.034 86.4169   7
   0   0  -9 1999.59 179.004   7
   0   0   9 2225.57 235.958  20
   0   0   9 1889.51 205.561   5
   0   0   9 2053.84 221.147  19
   0   0   9 1799.01 161.857  18
   0   0   9 2181.51 226.952  17
   0   0  -9 2327.09 139.036   2
   0   0  -9 2278.58 203.206   9
   0   0   9 2147.36 223.958  21
   0   0  -9 2045.01 149.841  15
   0   0  10 265.489 112.321  20
   0   0 -10 238.986 84.9477   9
   0   0  10 201.935 99.8176  17
   0   0  10 346.213 108.263  21
   0   0 -10 261.719 57.2249  15
   0   0  10 108.760 94.6215  19
   0   0 -10 132.300 69.6015   7
   0   0  10 157.711 86.5285   5
   0   0  10 336.040 84.2020  18
   0   0  11 1008.75 173.983   5
   0   0  11 1306.91 210.223  20
   0   0 -11 1209.15 157.930   7
   0   0  11 1225.03 191.842  17
   0   0  11 915.194 178.913  19
   0   0  11 1476.10 213.378  21
   0   0  11 1006.67 135.867  18
   0   0 -11 1330.06 179.922   9
   0   0 -12 669.087 141.565   9
   0   0 -12 686.871 156.403  14
   0   0  12 1204.24 207.597  19
   0   0  12 983.621 200.462  21
   0   0  12 824.995 172.599   5
   0   0  12 907.651 180.721  17
   0   0  13 5109.22 439.904  17
   0   0  13 4839.72 428.715  21
   0   0  13 5304.69 459.917  20
   0   0 -13 4346.06 356.866   9
   0   0  13 5259.14 428.126   5
   0   0  13 5747.89 463.713  19
   0   0 -13 4770.85 402.989  14
   0   0 -14 244.769 109.879   9
   0   0  14 478.095 151.069   8
   0   0 -14 365.568 133.218  14
   0   0  14 344.248 127.653   6
   0   1 -14 1431.10 225.539  14
   0  -1  13 134.507 115.574   5
   0  -1  13 2.36160 105.293  19
   0  -1  13-45.7542 98.1493  17
   0  -1  13-60.5069 102.138  21
   0   1 -13-53.1850 85.4869  10
   0   1 -13-23.5201 68.5319  14
   0  -1  13-61.1866 116.748  20
   0  -1  12 6708.87 497.721  20
   0   1 -12 6116.71 439.455  14
   0  -1  12 7680.41 514.675   5
   0   1 -12 7148.46 425.821   9
   0  -1  12 7546.77 512.858  21
   0  -1  12 8026.10 533.716  17
   0  -1  12 7553.12 524.170  19
   0   1 -11-16.3147 56.7541   7
   0  -1  11-42.1390 93.1099   5
   0  -1  11-9.83331 74.8752  19
   0   1 -11-47.6681 66.4140   9
   0  -1  11-36.5625 109.794  20
   0  -1  11-50.4262 88.2170  21
   0  -1  11-49.0242 64.7578  17
   0   1 -11 50.2300 80.6381  14
   0  -1  10 312.634 108.066  20
   0  -1  10 431.535 120.175  21
   0  -1  10 375.277 125.085  19
   0   1 -10 591.555 130.933  14
   0   1 -10 571.772 110.724   7
   0   1 -10 283.608 76.1970   9
   0  -1  10 245.020 55.5557  18
   0  -1  10 255.294 111.932  17
   0  -1  10 419.047 122.150   5
   0  -1   9 53.9293 34.4325  18
   0   1  -9-40.8930 76.6089  14
   0   1  -9 45.8563 40.4550  15
   0  -1   9 2.81628 64.4623   5
   0   1  -9 23.7472 61.0553   7
   0  -1   9-29.9375 57.3568  11
   0  -1   9 100.494 81.2684  20
   0  -1   9 1.43926 61.6715  17
   0  -1   9 65.2652 80.5045  21
   0  -1   9-25.4139 70.0411  19
   0   1  -9-57.6396 56.6702   9
   0   1  -8 2993.69 120.336   2
   0  -1   8 3312.77 264.051  17
   0  -1   8 3089.80 261.219  20
   0   1  -8 2875.47 208.828   7
   0  -1   8 3114.67 176.602  18
   0  -1   8 2858.64 247.184   5
   0  -1   8 3256.46 261.047  21
   0   1  -8 3214.58 242.981  14
   0   1  -8 2866.27 211.771   9
   0   1  -8 2688.00 166.406  15
   0  -1   8 3202.67 263.358  19
   0  -1   8 2974.16 212.968  11
   0  -1   7 715.689 122.683  20
   0   1  -7 534.875 105.233  14
   0   1  -7 741.985 100.094   7
   0  -1   7 531.508 88.0679  11
   0  -1   7 603.557 110.035  17
   0   1  -7 557.560 47.5312   2
   0  -1   7 773.273 79.4369  18
   0  -1   7 771.338 125.731  19
   0   1  -7 691.505 80.3877  15
   0  -1   7 663.276 120.323  21
   0   1  -7 585.218 85.8804   9
   0  -1   7 644.934 113.284   5
   0   1  -6 23207.2 657.272   9
   0   1  -6 23078.1 611.250  15
   0   1  -6 22331.3 531.421   2
   0  -1   6 23204.3 734.958   5
   0  -1   6 23036.6 735.313  19
   0  -1   6 23291.3 689.464   7
   0  -1   6 22542.3 736.385  20
   0  -1   6 23680.2 736.814  17
   0  -1   6 22744.4 727.051  21
   0   1  -6 23557.5 671.788   7
   0  -1   6 22466.7 654.500  11
   0   1  -6 24267.2 664.950  11
   0   1  -6 22852.2 700.545  14
   0  -1   6 23294.1 591.944  18
   0  -1   5-5.53366 40.3076  11
   0   1  -5-5.83922 60.4501  14
   0   1  -5 20.4504 37.4355   9
   0  -1   5 79.2112 55.5709  19
   0  -1   5-24.8316 44.9783   7
   0   1  -5 53.6878 35.9204  11
   0   1  -5-8.94955 45.4650  13
   0  -1   5 1.49253 52.2389  21
   0  -1   5 19.8207 55.9873   5
   0  -1   5 54.8087 64.4691  20
   0   1  -5 40.4509 16.5508   1
   0  -1   5 60.5818 52.6656  17
   0   1  -5 45.7035 30.7841  15
   0   1  -5 49.2240 43.0561   7
   0  -1   5-17.3690 29.5553  18
   0   1  -4 1310.74 120.243  16
   0  -1   4 1338.37 74.0706  18
   0  -1   4 1263.93 95.3338  11
   0  -1   4 1287.70 122.278  21
   0   1  -4 1336.05 121.345  17
   0  -1   4 1529.08 112.712   7
   0  -1   4 1477.78 130.688   5
   0  -1   4 1364.33 125.385  17
   0   1  -4 1369.27 121.178  21
   0   1  -4 1260.90 102.670   7
   0   1  -4 1268.87 68.4769   1
   0   1  -4 1384.90 122.368  19
   0   1  -4 1401.56 117.167  14
   0   1  -4 1339.19 115.182  13
   0  -1   4 1120.10 117.559  20
   0  -1   4 1544.00 96.3971  15
   0   1  -4 1394.22 127.845  20
   0   1  -4 1239.38 95.1702   9
   0  -1   4 1250.72 120.131  19
   0   1  -4 1366.51 98.6614  11
   0   1  -4 1194.46 94.0365   3
   0   1  -4 1332.27 89.2615  15
   0   1  -4 1535.10 129.726   5
   0  -1   3 11963.9 372.257  21
   0   1  -3 10954.1 351.014  14
   0   1  -3 11324.5 355.606  13
   0   1  -3 12293.6 380.373  17
   0   1  -3 11358.1 371.551  21
   0  -1   3 11424.0 277.030  18
   0   1  -3 12109.4 382.905   5
   0   1  -3 11303.7 318.203  15
   0   1  -3 11457.1 299.947   1
   0   1  -3 11390.5 323.409   9
   0  -1   3 11287.1 366.734  17
   0   1  -3 11460.3 347.257   7
   0  -1   3 11248.5 373.231   5
   0  -1   3 11135.8 370.573  20
   0   1  -3 11848.6 378.091  19
   0  -1   3 11952.7 324.180  15
   0   1  -3 12178.8 384.302  20
   0  -1   3 11573.4 370.141  19
   0  -1   3 12176.6 302.901   1
   0  -1   3 11294.1 321.767  11
   0  -1   3 12067.3 352.085   7
   0   1  -3 11706.3 332.137   3
   0   1  -3 11734.5 325.277  11
   0   1  -2 249.333 44.0738  19
   0  -1   2 197.565 45.7483   5
   0  -1   2 215.640 37.2350   3
   0  -1   2 267.688 36.2786  15
   0  -1   2 199.842 41.1591  14
   0   1  -2 222.671 32.6920   1
   0  -1   2 242.300 40.3048   7
   0   1  -2 212.804 43.7928  21
   0  -1   2 151.430 38.5109  19
   0   1  -2 291.984 46.8170  14
   0  -1   2 203.683 31.4214  11
   0   1  -2 197.445 35.5363  13
   0   1  -2 227.803 42.0030  17
   0  -1   2 97.7011 27.3393   1
   0   1  -2 171.969 32.5181  15
   0  -1   2 203.748 31.6070   9
   0   1  -2 215.601 40.4379   7
   0  -1   2 234.053 44.2782  17
   0  -1   2 303.168 50.5451  13
   0  -1   2 115.465 41.1957  20
   0   1  -2 62.2722 20.7968   9
   0   1  -2 216.179 43.4888  20
   0  -1   2 240.430 44.4177  21
   0   1  -2 206.602 45.2648   5
   0   1  -2 142.616 30.0765   3
   0   1  -2 15.8868 15.3098  11
   0   1  -1 111.885 30.2042  17
   0   1  -1 2067.10 84.5285   1
   0   1  -1 1900.72 80.2724  15
   0  -1   1 2008.43 77.6954   3
   0  -1   1 1968.39 64.5981   9
   0   1  -1 1832.86 86.8634   7
   0  -1   1 2046.42 64.9859  11
   0  -1   1 2061.60 84.8128  19
   0   1  -1 185.313 33.7344  21
   0   1  -1 76.4977 26.8276  19
   0   1  -1 2122.82 86.7745  13
   0  -1   1 575.487 49.5374  14
   0  -1   1 631.338 49.5217  13
   0  -1   1 2010.06 83.6635  21
   0  -1   1 1849.50 81.4614  20
   0   1  -1 560.034 49.9729   5
   0  -1   1 1944.50 85.8376   5
   0   1  -1 2047.14 86.0424  14
   0  -1   1 181.458 33.5268  15
   0  -1   1 1255.87 70.7278   7
   0   1  -1 26.3206 24.5853  20
   0  -1  -2 12.4856 30.9310   2
   0  -1  -2 84.9052 32.8270  18
   0   1   2-16.4263 23.3595  19
   0   1   2-15.1791 21.8939  21
   0  -1  -2-5.97685 24.0154   1
   0  -1  -2 1.89721 25.5616  21
   0   1   2-10.4583 26.2190   2
   0  -1  -2 12.4334 24.7037  19
   0   1   2 38.3951 33.7434   8
   0  -1  -2 41.0441 20.8943   5
   0   1   2 1.21097 18.6787   1
   0  -1  -2 26.8799 23.2856   6
   0   1   2 22.9894 19.6752  16
   0  -1  -2-8.01570 29.0351  11
   0   1   2-27.7618 21.1999  17
   0  -1  -2 13.4928 23.1085  16
   0   1   2 15.9300 31.5989  18
   0   1   2 1.82222 12.4315   5
   0   1   2 3.98806 14.8325   6
   0  -1  -2 2.34721 22.9235  17
   0   1   3 63882.1 1426.18   8
   0   1   3 63112.8 1414.28  20
   0   1   3 63635.5 1408.56  17
   0  -1  -3 65589.7 1435.53  18
   0   1   3 62559.9 1372.30   5
   0   1   3 63635.7 1313.39  12
   0  -1  -3 64399.0 1418.40  19
   0   1   3 61895.4 1404.50  16
   0   1   3 65673.1 1426.78  18
   0   1   3 64181.1 1346.07   1
   0   1   3 60080.1 1405.14  19
   0  -1  -3 65539.2 1426.87  11
   0  -1  -3 63937.9 1346.96   1
   0  -1  -3 65329.3 1416.44  17
   0  -1  -3 64324.1 1412.53  16
   0   1   3 62078.4 1375.87   6
   0   1   3 63124.9 1408.03  21
   0  -1  -3 61235.1 1372.23   5
   0  -1  -3 63295.5 1397.00   2
   0  -1  -3 63670.3 1412.85  21
   0   1   4 29146.6 630.635  12
   0  -1  -4 29114.6 747.836  11
   0  -1  -4 29389.1 750.836  16
   0   1   4 25850.2 734.301  18
   0   1   4 27913.2 709.122   5
   0  -1  -4 29618.2 757.155  19
   0  -1  -4 29238.6 751.206  17
   0  -1  -4 28903.1 749.788  21
   0  -1  -4 27293.3 704.134   2
   0   1   4 27763.6 739.641  17
   0   1   4 27888.6 640.663   1
   0  -1  -4 29388.1 715.172   5
   0   1   4 27745.1 748.329  20
   0   1   4 27893.8 740.134  21
   0   1   4 28435.5 743.189  16
   0   1   4 28162.7 746.772  19
   0  -1  -4 30205.5 755.534  18
   0   1   5 342.639 37.2868   1
   0   1   5 380.348 78.9093  18
   0  -1  -5 475.135 89.6847  19
   0   1   5 354.731 85.7933  17
   0   1   5 457.550 82.5260   5
   0   1   5 447.475 92.3802  20
   0   1   5 411.042 90.4252  21
   0  -1  -5 412.316 81.3186  16
   0  -1  -5 384.960 73.6881   5
   0  -1  -5 399.025 80.0630  21
   0  -1  -5 336.976 76.4601  17
   0  -1  -5 378.086 96.0815  18
   0   1   5 358.478 90.2880  19
   0  -1  -5 361.588 65.4834   2
   0  -1  -5 310.708 65.5015  11
   0   1   5 305.250 39.1440  12
   0   1   5 446.857 94.8023  16
   0  -1  -5 443.179 87.7771   7
   0   1   6 1091.54 129.968  17
   0   1   6 1143.66 119.615   5
   0   1   6 1138.80 131.698  16
   0  -1  -6 1046.37 116.849   7
   0   1   6 1440.38 147.927  20
   0   1   6 1344.15 144.073  19
   0  -1  -6 1112.92 103.851   2
   0   1   6 1238.79 78.5539  12
   0  -1  -6 1053.35 113.411   5
   0   1   6 1128.14 54.3213   1
   0   1   6 1424.13 143.744  21
   0   1   6 1048.54 115.016  18
   0   1   7 272.185 74.6006   5
   0   1   7 247.492 73.4776  18
   0   1   7 336.560 90.7233  17
   0  -1  -7 361.801 66.5534   2
   0   1   7 333.689 88.0999  20
   0   1   7 228.915 41.6376  12
   0  -1  -7 274.952 64.7589   7
   0   1   7 175.591 53.1808  21
   0   1   7 265.974 79.0656  19
   0   1   8 2019.25 202.540  17
   0   1   8 2203.52 187.328  18
   0   1   8 1844.89 193.029  19
   0   1   8 1871.59 195.367  20
   0   1   8 1884.06 193.762  21
   0  -1  -8 2060.43 172.032   7
   0   1   8 1897.80 185.856   5
   0  -1  -8 2307.12 161.378   2
   0   1   8 2039.94 119.847  12
   0  -1  -9 4872.32 249.880   2
   0   1   9 4621.79 307.482   5
   0   1   9 4603.49 333.581  20
   0   1   9 5325.13 351.196  19
   0   1   9 4745.29 330.900  17
   0  -1  -9 4775.47 280.556   7
   0   1   9 4914.18 303.754  18
   0   1   9 4713.42 328.289  21
   0  -1  -9 4337.72 242.915  15
   0   1  10 573.043 111.806  18
   0   1  10 480.009 124.198   5
   0   1  10 496.918 121.137  19
   0   1  10 651.135 139.472  17
   0  -1 -10 543.605 112.665   9
   0   1  10 703.299 146.734  21
   0  -1 -10 576.633 89.3506   2
   0  -1 -10 524.952 93.7884  15
   0  -1 -10 565.386 110.533   7
   0   1  10 622.955 139.239  20
   0   1  11 560.631 141.362  19
   0   1  11 264.330 89.7373   5
   0   1  11 289.226 99.2034  17
   0   1  11 483.147 108.582  18
   0   1  11 338.721 122.689  20
   0  -1 -11 433.264 109.857   9
   0  -1 -11 331.688 86.1920   7
   0   1  11 334.142 114.058   8
   0   1  11 766.127 165.284  21
   0   1  11 391.432 117.123   6
   0  -1 -12-19.2276 51.2586   7
   0   1  12 56.9468 105.947  20
   0   1  12-52.5836 104.551  17
   0   1  12 37.3969 48.3417  18
   0   1  12-1.50509 71.4971   5
   0   1  12 66.9854 84.3531   6
   0   1  12 138.010 104.252  19
   0   1  12 22.4749 82.3899   8
   0  -1 -12 117.558 84.3403   9
   0   1  12 98.9498 83.1771  21
   0   1  13 120.887 107.008  17
   0   1  13 74.1075 78.8286   8
   0   1  13-17.1139 85.4811  20
   0   1  13 21.2403 81.2623  21
   0   1  13 411.951 124.469  19
   0  -1 -13 285.660 105.208   9
   0   1  13 316.913 112.375   6
   0  -1 -14 1628.67 235.125   9
   0   1  14 1770.80 271.243   8
   0   1  14 1454.72 246.894   4
   0   1  14 1504.69 227.420   6
   0   2 -13 884.333 182.343  14
   0   2 -13 1006.43 207.860  10
   0  -2  12-94.9218 97.9511  21
   0  -2  12-46.6700 81.5945  20
   0  -2  12-26.0607 102.555  17
   0  -2  12-53.7685 136.345  19
   0   2 -12-4.74339 77.6974  10
   0   2 -12-33.9296 87.1526  14
   0  -2  12 238.399 110.470   5
   0   2 -11 226.714 107.745  10
   0   2 -11 265.321 93.5052   7
   0  -2  11 231.867 110.207  21
   0  -2  11 278.516 131.072   5
   0  -2  11 426.397 137.298  20
   0   2 -11 478.164 129.844  14
   0  -2  11 346.531 124.027  19
   0  -2  11 164.716 79.0696  17
   0   2 -11 260.955 85.0712   9
   0  -2  10-56.6308 95.1197  20
   0   2 -10 87.1777 65.8562   7
   0   2 -10 82.7875 55.1483   9
   0  -2  10 88.2168 89.5753  19
   0  -2  10 68.9521 75.2270  21
   0  -2  10 43.5529 48.8736  11
   0  -2  10-27.6364 71.3500  17
   0  -2  10-49.2810 88.8424   5
   0   2 -10 160.191 82.9487  14
   0  -2   9-8.66531 63.7328  21
   0   2  -9 29.1756 35.1405  15
   0  -2   9-33.2322 72.7911  17
   0   2  -9 13.4505 65.6581  14
   0  -2   9-73.4715 71.9147  20
   0  -2   9 21.4347 44.1400  11
   0  -2   9 21.0868 78.2124   5
   0   2  -9-29.8756 51.5761   9
   0   2  -9 24.1267 47.6220   7
   0  -2   9 117.800 67.2943  19
   0  -2   8 3138.30 266.372  17
   0  -2   8 2748.99 127.574  18
   0   2  -8 2908.52 180.508  15
   0  -2   8 2478.20 241.923   5
   0  -2   8 2849.94 254.221  21
   0   2  -8 2861.70 202.968   9
   0  -2   8 2826.57 254.727  20
   0   2  -8 2878.96 218.661   7
   0  -2   8 2743.57 249.045  19
   0  -2   8 2638.09 195.198  11
   0   2  -8 2394.70 217.106  14
   0   2  -7 492.347 82.0434   9
   0  -2   7 481.713 105.317  19
   0  -2   7 453.058 44.6574  18
   0  -2   7 524.119 83.3978  11
   0  -2   7 330.410 93.0682  21
   0   2  -7 601.314 109.168  14
   0   2  -7 532.410 90.3590   7
   0  -2   7 500.719 110.627   5
   0  -2   7 592.931 111.871  17
   0  -2   7 287.929 95.9419  20
   0   2  -7 405.106 82.1152   3
   0   2  -7 512.637 71.5906  15
   0   2  -7 450.973 50.4710   1
   0  -2   6 929.712 131.030  19
   0  -2   6 1007.84 131.271  21
   0   2  -6 1032.25 103.818   9
   0   2  -6 1141.04 126.709   7
   0   2  -6 990.166 98.1297  15
   0  -2   6 1092.29 140.639  20
   0   2  -6 936.670 101.557   3
   0  -2   6 960.504 99.0567  15
   0   2  -6 893.874 116.724  14
   0  -2   6 1011.20 136.739   5
   0   2  -6 938.326 99.1266  11
   0  -2   6 1017.76 56.3435  18
   0   2  -6 996.899 54.1163   2
   0  -2   6 979.858 129.053  17
   0  -2   6 1060.68 103.454  11
   0   2  -6 1188.59 87.4571   1
   0   2  -5 7419.77 285.769   3
   0  -2   5 6587.71 324.198  21
   0   2  -5 7346.00 255.792   1
   0   2  -5 6494.60 267.203  15
   0  -2   5 6702.19 271.490  15
   0  -2   5 7012.79 342.415   5
   0  -2   5 7802.98 322.096   7
   0  -2   5 7126.81 336.018  19
   0  -2   5 7447.71 341.213  17
   0   2  -5 7477.47 322.818  14
   0   2  -5 7348.14 273.181   9
   0   2  -5 6924.98 307.513   7
   0  -2   5 6984.01 337.978  20
   0  -2   5 6746.81 265.684  11
   0   2  -5 7363.19 272.913  11
   0   2  -5 6833.52 202.998   2
   0   2  -5 7741.03 326.322  13
   0   2  -4 2602.44 109.811   2
   0   2  -4 2506.98 148.848   3
   0   2  -4 2499.66 175.408  17
   0  -2   4 2484.78 135.787   9
   0  -2   4 2515.06 184.903   5
   0   2  -4 2604.42 142.932   1
   0  -2   4 2856.33 154.635  15
   0  -2   4 2544.53 177.571  19
   0  -2   4 2243.66 166.325  13
   0  -2   4 2478.82 169.726  14
   0   2  -4 2541.55 135.879   9
   0   2  -4 2815.36 175.940  14
   0   2  -4 2605.54 170.025   7
   0   2  -4 2686.56 137.638  11
   0  -2   4 2404.83 171.842  17
   0   2  -4 2646.34 168.460  13
   0   2  -4 2541.69 181.829  20
   0  -2   4 2361.19 173.690  20
   0   2  -4 2598.67 178.324  19
   0   2  -4 2489.01 145.761  15
   0  -2   4 2590.36 177.646  21
   0   2  -4 2716.63 182.235  21
   0  -2   4 2602.21 166.276   7
   0  -2   4 2699.21 144.582   1
   0  -2   4 2414.26 132.873  11
   0   2  -3 790.206 91.4099   7
   0  -2   3 939.645 98.7896  21
   0  -2   3 1123.82 91.7305  15
   0   2  -3 772.737 77.1451   3
   0  -2   3 801.088 78.0944   1
   0   2  -3 923.331 98.9108   5
   0  -2   3 851.046 89.8643   7
   0  -2   3 884.688 70.5480  11
   0   2  -3 1031.86 100.680  14
   0  -2   3 1053.53 104.838  13
   0  -2   3 950.784 101.418  19
   0   2  -3 850.201 85.8053  13
   0   2  -3 896.910 64.8123   2
   0   2  -3 966.196 87.8132  15
   0  -2   3 855.625 100.742   5
   0  -2   3 864.680 70.2468   9
   0  -2   3 920.245 86.0152   3
   0   2  -3 920.593 99.0120  20
   0   2  -3 910.715 71.9031   9
   0   2  -3 918.114 94.0197  19
   0   2  -3 904.020 88.2032   1
   0   2  -3 1001.49 97.5894  21
   0  -2   3 1035.97 97.3968  14
   0  -2   3 1002.23 99.4021  17
   0   2  -3 872.918 95.5953  17
   0   2  -3 953.519 94.8229  10
   0  -2   3 854.069 96.1910  20
   0  -2   2 1078.26 94.6927   7
   0  -2   2 1063.79 96.7676   5
   0   2  -2 859.140 81.6971  14
   0  -2   2 939.816 83.4926  15
   0   2  -2 1069.12 92.8205   5
   0  -2   2 872.018 82.4485  21
   0   2  -2 1006.02 87.2899  17
   0  -2   2 895.049 46.6876  18
   0   2  -2 869.627 82.5608  21
   0   2  -2 835.861 66.7202   2
   0  -2   2 1002.56 86.9524   1
   0  -2   2 972.200 81.5590   3
   0  -2   2 950.651 65.5495   9
   0  -2   2 909.513 64.2983  11
   0  -2   2 1067.39 92.2490  13
   0   2  -2 839.326 85.3544   7
   0   2  -2 987.030 88.3344  20
   0   2  -2 834.420 83.4940   1
   0   2  -2 1015.35 89.2858  13
   0   2  -2 968.564 68.0580   9
   0   2  -2 1082.93 85.0692   3
   0   2  -2 1009.78 86.5909  15
   0  -2   2 917.334 85.0483  20
   0  -2   2 988.596 87.6653  14
   0   2  -2 838.459 80.7798  19
   0   2  -2 865.180 73.0354  10
   0   2  -2 945.534 45.4047  18
   0  -2   2 969.722 86.3078  19
   0   2  -1 3806.45 176.996  15
   0  -2   1 3719.81 157.607  19
   0   2  -1 4051.12 162.494  19
   0  -2   1 4345.27 187.066   1
   0  -2   1 4097.51 180.591  15
   0   2  -1 4182.39 167.513   5
   0   2  -1 3803.35 182.647   7
   0  -2   1 3814.47 172.495  13
   0  -2   1 4063.74 177.379  14
   0  -2   1 3905.54 181.956   7
   0  -2   1 4031.22 141.399  18
   0  -2   1 3637.82 157.030  20
   0   2  -1 4292.24 168.884   2
   0   2  -1 4108.22 166.398  16
   0   2  -1 4280.20 167.053  20
   0  -2   1 4031.43 147.997   9
   0   2  -1 4128.16 184.211   1
   0   2  -1 3840.79 174.803  14
   0   2  -1 3914.32 142.394  10
   0  -2   1 3965.85 160.403  21
   0   2  -1 3998.65 160.659  21
   0   2  -1 4273.90 174.287   3
   0   2  -1 3856.23 138.123  18
   0  -2   1 3947.51 145.057  10
   0  -2   1 4043.82 171.239   3
   0  -2   1 3912.63 163.469   5
   0  -2   1 4262.84 168.137   2
   0  -2   0 980.076 80.7078   8
   0  -2   0 1224.75 94.0774   7
   0  -2   0 1038.80 84.6538   2
   0  -2   0 1039.63 84.6165   3
   0   2   0 935.630 54.5340  10
   0   2   0 1025.34 68.3896  16
   0  -2   0 1098.43 71.6241  16
   0   2   0 1016.92 82.5074   2
   0   2   0 1056.62 66.8644  20
   0   2   0 1008.80 86.3089  14
   0  -2   0 1040.50 56.9845  10
   0  -2   0 1043.85 68.3160  20
   0   2   0 909.297 65.6021  17
   0  -2   0 1132.26 89.3418   1
   0  -2   0 910.652 73.9064  18
   0   2   0 1068.10 63.4020   5
   0   2   0 942.171 88.2480   1
   0  -2   0 1085.47 68.0247  19
   0   2   0 1095.61 83.6662   3
   0   2   0 991.290 66.3343  21
   0   2   0 982.745 65.5221  19
   0   2   0 1083.11 78.4501  18
   0  -2   0 992.898 83.6936  14
   0  -2   0 1052.49 88.8718  15
   0  -2   0 972.976 61.6570   5
   0  -2  -1 21707.2 591.865   3
   0  -2  -1 23110.9 542.376  16
   0  -2  -1 22571.2 546.408   6
   0   2   1 22317.8 587.134  18
   0  -2  -1 22907.8 530.056  10
   0  -2  -1 23480.8 595.861  18
   0   2   1 22609.2 541.370  21
   0   2   1 22382.7 587.708   8
   0   2   1 23507.8 604.434   2
   0   2   1 23315.1 538.823  19
   0   2   1 24220.5 605.078   1
   0  -2  -1 22941.0 599.824   2
   0  -2  -1 24363.6 607.254  14
   0  -2  -1 22272.5 532.912  20
   0   2   1 23319.1 537.819  20
   0   2   1 22345.1 527.709  10
   0   2   1 22579.4 538.530  16
   0   2   1 22245.8 539.116  17
   0  -2  -1 23106.3 591.168   8
   0  -2  -1 22976.6 543.288  17
   0  -2  -1 24706.9 609.188   1
   0   2   1 23519.4 601.549   3
   0   2   2 9294.18 274.272  16
   0   2   2 9002.57 311.817   8
   0  -2  -2 9584.02 317.893   8
   0  -2  -2 9127.26 277.700  21
   0  -2  -2 9352.98 278.268  17
   0  -2  -2 9226.13 277.492  10
   0   2   2 9186.82 275.102  21
   0  -2  -2 9341.27 327.941  18
   0  -2  -2 9246.25 261.431   6
   0   2   2 9187.42 276.137  17
   0  -2  -2 8654.40 314.223   3
   0   2   2 8951.38 305.201   1
   0   2   2 8705.09 274.869  19
   0   2   2 9727.62 324.824   2
   0  -2  -2 9092.92 274.092  16
   0  -2  -2 9685.87 310.738   1
   0  -2  -2 9079.65 317.040   2
   0   2   2 9094.56 319.968  18
   0   2   2 9613.37 272.886  20
   0   2   2 8886.20 219.955   4
   0   2   2 8667.86 257.835   6
   0   2   3 1405.41 125.445  18
   0   2   3 1340.41 98.0353  16
   0  -2  -3 1344.66 118.181   3
   0  -2  -3 1420.01 88.4754   6
   0   2   3 1363.94 85.9564   6
   0   2   3 1275.57 98.5352  17
   0  -2  -3 1287.12 117.247  18
   0  -2  -3 1276.43 96.4468  16
   0   2   3 1301.72 96.4530  21
   0  -2  -3 1501.73 106.308  19
   0  -2  -3 1300.89 114.637   8
   0  -2  -3 1542.92 107.525  21
   0  -2  -3 1356.63 100.293  17
   0  -2  -3 1293.66 68.4757   5
   0   2   3 1329.78 100.477  19
   0  -2  -3 1359.78 101.370   1
   0   2   3 1250.88 102.422   1
   0   2   3 1354.38 112.465   2
   0  -2  -3 1377.45 116.621   2
   0   2   3 1502.18 123.111   8
   0   2   4 116.143 48.5089  17
   0   2   4 150.587 41.8234   6
   0  -2  -4 57.0524 45.7298  17
   0  -2  -4 74.7107 47.9567  19
   0   2   4 96.4316 47.2874  19
   0  -2  -4 138.304 50.6191  21
   0   2   4 85.0989 61.4606   8
   0   2   4 52.1275 37.6807   1
   0   2   4 88.7452 45.1282  21
   0  -2  -4 90.8076 48.1491  16
   0  -2  -4 33.6924 48.5504  18
   0  -2  -4 78.3831 40.0153  11
   0   2   4 100.190 45.2649   2
   0  -2  -4 53.8833 34.5410   1
   0  -2  -4 58.5472 20.2857  12
   0   2   4 101.696 32.6834   5
   0  -2  -4 93.4094 35.2521   5
   0  -2  -4 39.8746 44.2030   2
   0   2   4 67.0617 50.7680  20
   0   2   4 61.3061 53.3702  18
   0   2   4 42.8020 41.3900  16
   0  -2  -5 6008.76 276.548  16
   0   2   5 5824.12 273.206  21
   0   2   5 5710.56 272.152  17
   0   2   5 5787.31 292.188   8
   0   2   5 5797.96 241.970   6
   0  -2  -5 5997.22 280.457  19
   0   2   5 5626.96 272.900  19
   0   2   5 5626.25 273.918  20
   0   2   5 5687.72 229.674   5
   0   2   5 5857.07 227.399   1
   0  -2  -5 5491.23 265.545   2
   0   2   5 6046.19 276.472  16
   0  -2  -5 6246.89 283.453  21
   0  -2  -5 6141.38 281.961  17
   0  -2  -5 5966.72 234.688   5
   0   2   5 4768.91 270.709  18
   0   2   6 1024.78 122.009  19
   0   2   6 1248.02 95.4996   1
   0   2   6 1193.62 136.162  20
   0   2   6 1176.74 109.044   5
   0   2   6 1287.30 141.949  18
   0   2   6 1411.07 123.040   6
   0  -2  -6 1373.26 117.374   5
   0   2   6 1423.42 142.694  17
   0   2   6 1296.38 136.164  21
   0  -2  -6 1301.83 125.290   2
   0   2   6 1359.96 137.687  16
   0   2   6 1336.44 145.804   8
   0   2   7 292.186 74.4738  18
   0   2   7 299.689 78.5901  21
   0   2   7 296.362 48.2998   1
   0   2   7 365.738 83.9520  17
   0   2   7 220.177 73.0586  16
   0   2   7 198.050 53.7140   6
   0   2   7 280.033 72.8697   5
   0   2   7 200.199 76.4579   8
   0   2   7 303.490 79.3280  19
   0   2   7 184.514 76.9952  20
   0  -2  -7 274.858 74.3229   2
   0   2   8 2273.19 217.528   8
   0   2   8 2512.27 229.487  20
   0   2   8 2620.24 226.232  19
   0   2   8 2721.95 203.446   5
   0   2   8 2503.46 121.460   1
   0   2   8 2467.24 221.784  17
   0   2   8 2455.87 192.895   6
   0   2   8 2544.28 221.429  18
   0  -2  -8 2433.70 187.405   2
   0  -2  -8 2401.67 198.617   7
   0   2   8 2745.72 232.588  16
   0   2   8 2774.84 229.854  21
   0  -2  -9 1480.82 153.755   2
   0   2   9 1821.05 178.176   6
   0   2   9 1726.35 191.522  18
   0  -2  -9 1462.59 162.117   7
   0   2   9 1486.26 162.147   5
   0   2   9 1591.89 193.276  21
   0   2   9 1772.03 206.738  20
   0   2   9 1804.67 203.542  19
   0   2   9 1578.56 186.692  17
   0   2   9 1299.63 177.809   8
   0   2  10 56.3438 84.8252  17
   0   2  10 110.458 64.4753  18
   0   2  10 89.6767 70.1242  21
   0   2  10 21.0949 53.6765   5
   0  -2 -10 27.8841 53.8651   2
   0   2  10-44.3313 94.0896   8
   0   2  10-20.2988 70.1269  19
   0   2  10 32.9341 62.6759  20
   0  -2 -10 1.11207 73.4987   7
   0   2  10 29.7581 65.2419   6
   0   2  11 906.771 145.334   6
   0   2  11 1064.39 185.937   8
   0  -2 -11 838.672 134.366   7
   0   2  11 1111.08 185.297  19
   0   2  11 673.273 143.869  18
   0   2  11 908.166 168.505  17
   0   2  11 671.977 150.453  21
   0   2  11 922.672 168.999  20
   0  -2 -11 807.972 121.991   2
   0   2  12 1135.83 180.342   6
   0  -2 -12 1514.18 215.024   9
   0   2  12 1136.97 202.446  17
   0   2  12 1563.66 236.660   8
   0  -2 -12 1487.88 200.623   3
   0   2  12 1008.60 191.176  20
   0   2  12 795.784 173.088  19
   0  -2 -12 984.681 146.720   7
   0   2  12 1160.75 206.079  21
   0   2  12 1285.78 208.797   4
   0   2  12 952.315 167.864  18
   0   2  13 832.857 182.588  19
   0   2  13 469.098 121.312  18
   0  -2 -13 307.659 119.774   9
   0  -2 -13 390.975 128.436   3
   0   2  13 639.862 174.590  20
   0   2  13 466.820 120.316   6
   0   2  13 612.858 157.594   8
   0   2  13 303.684 139.537  17
   0   2  13 566.493 157.401  21
   0   2  13 437.111 138.611   4
   0  -2 -14 87.0227 81.4608   9
   0   2  14-14.6691 107.132   4
   0  -3  12-46.7307 98.4923  19
   0  -3  12 126.311 124.852   5
   0  -3  12 82.2656 100.820  20
   0   3 -12-22.4067 107.490  10
   0  -3  12-16.3571 73.7115  21
   0   3 -12 103.463 96.2113  14
   0  -3  11 179.385 100.433  21
   0  -3  11-28.1118 79.7071  20
   0   3 -11 62.5972 71.3374  14
   0  -3  11 69.2049 86.1440  19
   0   3 -11 40.6361 86.8239  10
   0   3 -11 251.186 100.016   7
   0  -3  11 88.5362 83.3792   5
   0   3 -10 1867.58 223.145  14
   0   3 -10 1658.23 222.963  10
   0   3 -10 1813.11 206.065   7
   0  -3  10 1819.25 238.255  21
   0  -3  10 2121.86 260.102   5
   0  -3  10 2218.49 266.172  19
   0  -3  10 1888.64 251.339  20
   0  -3   9 1734.38 218.912  17
   0  -3   9 2037.74 178.118  11
   0   3  -9 2309.61 216.161   7
   0  -3   9 2466.55 264.716  20
   0   3  -9 1789.82 156.419  15
   0  -3   9 1975.72 239.709   5
   0   3  -9 2169.22 181.191   9
   0   3  -9 2174.98 224.474  14
   0  -3   9 2015.73 231.842  21
   0  -3   9 2140.03 248.762  19
   0   3  -9 2018.24 228.372  10
   0  -3   8 10352.0 525.315  17
   0   3  -8 10560.6 360.289   1
   0   3  -8 10635.0 416.759   9
   0   3  -8 11167.8 503.557  14
   0  -3   8 10717.4 537.655  20
   0   3  -8 10585.6 511.869  10
   0  -3   8 10498.3 528.865  19
   0  -3   8 10533.6 416.032  11
   0   3  -8 10126.3 473.304   7
   0  -3   8 10339.1 535.334   5
   0   3  -8 10886.5 420.786  15
   0  -3   8 10136.8 518.158  21
   0   3  -7 776.465 91.2658   1
   0  -3   7 522.182 107.193  19
   0   3  -7 591.421 115.117  14
   0  -3   7 795.399 97.8332  11
   0   3  -7 576.664 84.3831  11
   0   3  -7 828.617 101.668   9
   0  -3   7 929.407 153.689   5
   0  -3   7 741.467 135.953  20
   0   3  -7 683.024 111.466   7
   0   3  -7 664.504 123.916  10
   0   3  -7 795.338 100.398  15
   0  -3   7 840.492 146.210  17
   0  -3   7 846.977 131.823  21
   0  -3   6 3349.44 208.805  15
   0   3  -6 3871.64 248.652  14
   0  -3   6 3715.54 262.688  19
   0   3  -6 3689.99 203.261   1
   0   3  -6 3670.09 249.976   7
   0   3  -6 3793.84 254.105  10
   0  -3   6 3888.26 268.784  21
   0   3  -6 3513.84 139.592   2
   0   3  -6 3857.81 200.716   9
   0  -3   6 3901.42 202.497  11
   0  -3   6 3647.87 264.782  20
   0   3  -6 3849.33 221.174  15
   0   3  -6 3602.05 214.285   3
   0  -3   6 3651.79 273.911   5
   0  -3   5 1085.66 137.815  20
   0   3  -5 1190.53 137.874   7
   0   3  -5 1043.12 122.144  14
   0   3  -5 1049.21 95.4971   9
   0   3  -5 1193.05 115.170   3
   0  -3   5 1036.15 136.903  13
   0  -3   5 1039.10 95.3362  11
   0  -3   5 1126.65 139.739   5
   0  -3   5 1082.49 135.022  21
   0   3  -5 1191.54 118.230  15
   0   3  -5 1088.88 78.9665   2
   0  -3   5 1174.85 115.630  15
   0  -3   5 1229.79 144.413  19
   0   3  -5 1245.24 116.879   1
   0   3  -5 1142.72 128.742  10
   0  -3   5 917.936 91.8722   9
   0  -3   4 955.175 116.135  20
   0  -3   4 885.082 83.2865   9
   0   3  -4 994.243 87.5030   9
   0   3  -4 943.505 100.637   3
   0   3  -4 1043.51 82.9779   2
   0   3  -4 918.102 104.069   1
   0  -3   4 880.861 108.436  21
   0  -3   4 1070.53 127.752   5
   0  -3   4 910.878 112.066  13
   0  -3   4 962.063 83.3621  11
   0  -3   4 958.528 113.569  19
   0   3  -4 982.342 116.383  14
   0   3  -4 1081.00 110.488  10
   0  -3   4 846.881 99.1239  15
   0  -3   4 895.520 102.654   1
   0  -3   4 995.145 103.920   3
   0   3  -4 972.424 121.730   7
   0   3  -4 997.045 106.308  15
   0   3  -3 8458.92 332.594  15
   0  -3   3 7634.57 213.919  18
   0  -3   3 8523.68 274.312  11
   0  -3   3 8296.28 274.432   9
   0  -3   3 8135.83 330.705  19
   0  -3   3 8576.27 338.410   1
   0   3  -3 8056.17 344.684   7
   0   3  -3 8304.74 339.998  14
   0   3  -3 7833.28 309.639   3
   0   3  -3 8530.41 292.189   2
   0   3  -3 8719.54 341.717  17
   0  -3   3 8664.21 345.742  14
   0   3  -3 9136.08 344.274  21
   0  -3   3 8162.66 313.340   3
   0  -3   3 8485.54 337.549  20
   0  -3   3 8551.24 350.187   5
   0   3  -3 8629.17 337.743   1
   0   3  -3 8506.27 347.724   5
   0   3  -3 8729.74 342.019  19
   0   3  -3 8523.66 343.455  16
   0   3  -3 7713.06 299.308  10
   0   3  -3 8434.57 340.993  13
   0   3  -3 8135.82 277.835   9
   0   3  -3 8759.21 346.069  20
   0  -3   3 8400.53 338.273  13
   0  -3   3 8222.78 330.226  21
   0  -3   3 8768.71 338.890  15
   0   3  -2 61042.8 1376.36  20
   0  -3   2 56370.3 1356.12  19
   0   3  -2 56230.8 1386.50  15
   0  -3   2 60167.9 1416.12   7
   0   3  -2 60903.0 1371.49  17
   0   3  -2 57529.2 1411.07   7
   0  -3   2 58516.8 1272.57  18
   0  -3   2 59602.0 1366.11   3
   0   3  -2 58460.9 1395.87   1
   0  -3   2 62147.0 1403.25  14
   0  -3   2 56776.4 1354.85  21
   0  -3   2 57795.6 1385.11  13
   0  -3   2 56532.0 1369.08   5
   0   3  -2 61193.1 1385.66   5
   0  -3   2 56848.9 1358.08  20
   0   3  -2 59748.4 1349.01   2
   0   3  -2 60342.3 1369.68  19
   0   3  -2 58269.4 1370.10  16
   0  -3   2 58280.6 1304.08   9
   0   3  -2 57673.7 1266.80  18
   0   3  -2 60127.5 1372.95   3
   0   3  -2 56665.7 1384.60  14
   0  -3   2 63618.5 1415.61   1
   0  -3   2 60600.8 1399.80  15
   0   3  -2 59992.1 1367.97  21
   0   3  -2 56191.8 1314.59  10
   0  -3   1 13117.2 442.984   1
   0  -3   1 12726.0 380.652  19
   0   3  -1 11929.3 344.724  10
   0   3  -1 12951.0 414.478   3
   0   3  -1 12991.8 388.000  20
   0  -3   1 12378.0 365.503  18
   0   3  -1 12578.6 383.044  19
   0   3  -1 12554.0 420.585  14
   0   3  -1 12298.2 385.317  16
   0   3  -1 12262.2 379.821  21
   0  -3   1 13486.1 430.868  14
   0  -3   1 12361.9 382.675   5
   0  -3   1 12729.6 412.636   3
   0  -3   1 12797.3 406.544   2
   0  -3   1 13116.6 432.664  15
   0  -3   1 12106.4 347.134  10
   0   3  -1 11848.9 357.815  18
   0  -3   1 13634.5 445.522   7
   0  -3   1 13114.3 374.901   9
   0   3  -1 12572.8 435.183   7
   0  -3   1 12484.6 409.983   8
   0  -3   1 11645.8 374.104  20
   0   3  -1 12981.0 409.974   2
   0  -3   1 11845.1 410.669  13
   0  -3   1 12208.8 376.392  21
   0   3  -1 12578.9 432.834   1
   0   3  -1 13166.8 388.347   5
   0   3   0 7588.76 227.438  10
   0   3   0 7478.72 253.949  21
   0  -3   0 8332.23 321.304  15
   0   3   0 7894.85 259.701  20
   0   3   0 7186.38 271.614  18
   0  -3   0 7339.21 252.023  19
   0  -3   0 7562.95 301.963   2
   0  -3   0 8158.93 322.792   7
   0   3   0 8004.51 306.469   2
   0   3   0 7224.78 310.887   1
   0  -3   0 8156.42 311.525  14
   0  -3   0 7209.75 225.819  10
   0   3   0 7896.66 304.108   3
   0   3   0 7829.99 306.248  14
   0   3   0 7273.88 256.730  17
   0  -3   0 7140.93 296.499   3
   0  -3   0 7799.36 298.443   8
   0  -3   0 7785.42 317.558   1
   0  -3   0 7358.96 239.014   5
   0  -3   0 7258.92 251.050  20
   0   3   0 7798.00 244.012   5
   0  -3   0 7995.20 265.423  16
   0   3   0 7533.42 257.629  16
   0   3   0 7709.42 257.223  19
   0  -3   0 8302.60 288.227  18
   0  -3  -1 22686.2 582.224   6
   0  -3  -1 24497.6 653.112  14
   0  -3  -1 21470.8 550.581  20
   0   3   1 22192.3 561.994  17
   0   3   1 23071.2 562.006  19
   0  -3  -1 21824.3 640.260   2
   0   3   1 21876.8 502.251   5
   0  -3  -1 23212.6 567.655  16
   0  -3  -1 24099.3 637.126   8
   0   3   1 21978.7 558.626  16
   0  -3  -1 25068.4 666.775  15
   0  -3  -1 21512.5 501.305   5
   0   3   1 22272.3 646.013   1
   0   3   1 21153.4 621.558   8
   0   3   1 22012.6 536.239  10
   0  -3  -1 21758.0 634.952   3
   0  -3  -1 23404.4 653.064   1
   0  -3  -1 22412.1 537.315  10
   0   3   1 23387.9 562.174  20
   0  -3  -1 22847.5 567.290  17
   0  -3  -1 24246.1 635.362  18
   0   3   1 23467.2 645.775   3
   0  -3  -1 20822.4 481.996   4
   0   3   1 22917.5 648.158   2
   0  -3  -1 23275.5 652.184   7
   0   3   1 22168.8 620.201  18
   0   3   1 21304.8 561.216  21
   0   3   2 1691.60 137.392   8
   0   3   2 1528.22 102.146  16
   0   3   2 1649.69 101.361  20
   0   3   2 1490.96 132.812   3
   0  -3  -2 1661.84 144.576   2
   0  -3  -2 1637.43 101.514  10
   0   3   2 1499.52 102.439  17
   0  -3  -2 1560.07 139.221  14
   0  -3  -2 1475.22 134.977   3
   0  -3  -2 1572.11 101.405   6
   0   3   2 1498.79 102.380  21
   0  -3  -2 1766.38 142.030   1
   0   3   2 1581.37 137.324  18
   0  -3  -2 1723.57 136.675   8
   0  -3  -2 1573.97 104.973  17
   0   3   2 1607.73 136.850   2
   0  -3  -2 1531.74 102.082  16
   0   3   2 1823.52 147.468   1
   0  -3  -2 1793.95 142.286  18
   0   3   3 17172.2 491.831  16
   0   3   3 18794.2 495.912  20
   0   3   3 17209.4 561.277   8
   0  -3  -3 17079.6 496.525  10
   0  -3  -3 16525.9 557.539   3
   0  -3  -3 17789.0 547.750   1
   0   3   3 17036.4 472.102   6
   0  -3  -3 17126.6 563.432   2
   0   3   3 16609.0 491.543  17
   0  -3  -3 18303.1 586.128  18
   0   3   3 17336.6 571.927  18
   0  -3  -3 18220.0 506.152  21
   0   3   3 18240.4 575.527   2
   0  -3  -3 18032.3 502.370  17
   0   3   3 17365.8 499.759  19
   0   3   3 17802.1 402.944   4
   0  -3  -3 17506.4 471.273   6
   0  -3  -3 18068.2 499.940  16
   0  -3  -3 19195.1 574.018   8
   0   3   3 17186.9 496.198  21
   0   3   3 17373.1 546.571   1
   0  -3  -4 15543.6 439.731   6
   0  -3  -4 14944.1 523.557   2
   0   3   4 15406.6 403.577   4
   0  -3  -4 15785.7 479.962  16
   0   3   4 15753.4 479.379  19
   0   3   4 15142.0 472.493  21
   0  -3  -4 14475.2 369.769   5
   0   3   4 15608.8 474.336  16
   0  -3  -4 15067.4 530.117   3
   0  -3  -4 15883.9 485.680  21
   0   3   4 16335.4 545.120   8
   0   3   4 14889.0 470.266  17
   0  -3  -4 15647.9 482.708  17
   0  -3  -4 15606.7 500.900   1
   0   3   4 15257.1 496.944   1
   0   3   4 15262.7 436.308   6
   0   3   4 15472.1 547.730  18
   0   3   5 3976.39 255.566   8
   0  -3  -5 4257.96 158.238  12
   0   3   5 3491.36 210.096  17
   0   3   5 3898.41 218.682  16
   0  -3  -5 3904.18 218.295  16
   0   3   5 3633.95 176.819   4
   0   3   5 3916.95 255.685  18
   0   3   5 3599.76 211.164  21
   0  -3  -5 3699.48 243.652   3
   0  -3  -5 3267.48 224.037   2
   0  -3  -5 3788.72 211.800   1
   0   3   5 3531.15 180.843   6
   0  -3  -5 3597.10 153.892   5
   0   3   5 3434.04 209.077  19
   0   3   5 3875.45 213.238   1
   0  -3  -5 3870.79 220.507  21
   0  -3  -5 4231.66 228.512  17
   0   3   6 65.8981 55.5466   8
   0   3   6 129.651 64.5494  16
   0   3   6 21.1124 61.6747  18
   0   3   6 32.6958 33.3229   6
   0   3   6-27.1173 56.2457  17
   0   3   6 15.9688 43.4210  19
   0  -3  -6 12.8504 18.7941  12
   0   3   6 0.31902 47.4593  20
   0   3   6 3.38300 39.9976   4
   0  -3  -6 6.49893 56.6988   2
   0   3   6-36.7262 43.0864  21
   0   3   6 51.8195 37.7559   1
   0  -3  -6 17.4703 52.6712   3
   0  -3  -6-4.78249 24.6493   5
   0   3   7 9971.83 392.142   4
   0   3   7 10264.0 438.060  17
   0   3   7 9624.99 426.517  16
   0  -3  -7 9383.06 355.889   5
   0   3   7 9877.52 368.774   1
   0   3   7 10528.6 387.236   6
   0   3   7 9496.01 463.176   8
   0   3   7 9583.26 464.196  18
   0  -3  -7 9549.11 432.611   2
   0   3   7 10061.2 442.653  20
   0   3   7 9110.67 422.408  19
   0  -3  -7 10149.4 457.573   3
   0   3   7 10043.2 435.443  21
   0   3   8 374.358 97.8513  17
   0   3   8 222.733 55.7637   1
   0   3   8 181.502 81.4820  18
   0   3   8 234.832 81.6065  20
   0   3   8 126.831 91.9137   8
   0   3   8 156.901 57.7938   6
   0   3   8 263.066 79.2427   4
   0   3   8 169.112 74.2261  16
   0  -3  -8 230.396 91.8016   3
   0   3   8 287.203 89.2507  21
   0   3   8 217.904 91.0050  19
   0  -3  -8 128.539 75.1215   2
   0   3   9 36947.3 1121.93  16
   0   3   9 37319.4 913.271   1
   0   3   9 36701.0 1156.43  18
   0  -3  -9 36664.7 1075.21   2
   0  -3  -9 31154.3 1041.38   7
   0   3   9 36890.2 1120.11  17
   0   3   9 35089.8 1160.88   8
   0   3   9 34912.1 1123.10  20
   0   3   9 36048.3 1059.10   4
   0   3   9 37951.7 1032.69   6
   0   3   9 35464.9 1116.75  19
   0  -3  -9 36197.6 1118.65   3
   0   3   9 35855.5 1109.92  21
   0  -3 -10 4827.36 324.631   7
   0   3  10 5023.88 334.764   4
   0  -3 -10 4986.46 329.184   2
   0  -3 -10 5116.92 360.948   3
   0   3  10 5353.77 394.143   8
   0   3  10 5102.46 366.569  19
   0   3  10 5186.37 368.153  21
   0   3  10 4897.74 355.464  17
   0   3  10 5179.32 373.234  20
   0   3  10 4962.89 367.304  18
   0   3  10 4993.65 310.707   6
   0   3  11 14.9531 84.8823  20
   0   3  11-4.73499 64.9116   4
   0   3  11 35.6361 75.6570  21
   0   3  11 21.4947 60.2039   6
   0   3  11 218.294 108.488  18
   0  -3 -11-31.9943 84.3828   3
   0  -3 -11 62.3261 70.0236   7
   0  -3 -11-23.7681 52.0631   2
   0   3  11-71.5821 99.0664   8
   0   3  11 196.230 90.9751  17
   0   3  11 19.7928 82.1473  19
   0   3  12 1602.01 225.645  18
   0   3  12 1828.73 241.618  19
   0   3  12 1974.60 255.740  21
   0   3  12 1603.54 236.251  20
   0  -3 -12 1610.88 199.775   7
   0  -3 -12 1811.05 233.714   3
   0   3  12 1765.42 221.213   4
   0   3  12 1714.90 250.955   8
   0   3  12 1636.60 237.326  17
   0  -3 -13 4386.85 392.982   9
   0   3  13 3592.56 359.661  21
   0   3  13 3624.70 355.481  18
   0   3  13 4414.71 399.119  19
   0   3  13 4163.03 367.612   4
   0   3  13 3802.62 385.020   8
   0   3  13 4529.51 401.168  17
   0  -3 -13 4991.98 391.915   3
   0   3  13 4750.89 417.806  20
   0   3  14 505.162 141.678  18
   0   4 -12 241.057 109.208  10
   0  -4  11 6676.80 493.983  19
   0   4 -11 6186.04 424.094   7
   0  -4  11 6181.15 481.936  20
   0   4 -11 5333.09 405.086  14
   0   4 -11 6056.54 454.608  10
   0  -4  11 6607.18 508.676   5
   0  -4  11 6599.96 492.713  21
   0  -4  10 916.688 188.420  20
   0   4 -10 982.524 168.866  14
   0   4 -10 691.307 148.044  10
   0  -4  10 1038.25 201.326   5
   0  -4  10 842.000 165.974  21
   0  -4  10 773.047 161.105  19
   0   4 -10 766.911 148.792   7
   0   4  -9 67.4515 65.4266  10
   0  -4   9-65.9837 67.7566  21
   0   4  -9 44.8187 59.1045   7
   0  -4   9 63.8070 90.8661  19
   0  -4   9 23.9383 83.6088   5
   0  -4   9 6.23745 68.4056  20
   0   4  -9 8.43097 59.2876  14
   0   4  -8 4155.01 312.220   7
   0   4  -8 3849.83 298.448  14
   0   4  -8 3998.50 237.462   9
   0  -4   8 4486.93 351.592  20
   0  -4   8 4319.04 241.765  11
   0   4  -8 4123.70 310.500  10
   0  -4   8 4131.94 335.474  19
   0  -4   8 4419.58 353.968   5
   0   4  -8 4576.43 276.593  15
   0   4  -8 4522.31 253.567   1
   0  -4   8 4097.80 327.689  21
   0  -4   7 1358.80 182.683  21
   0   4  -7 1296.94 175.955   7
   0   4  -7 1176.82 118.850   9
   0   4  -7 1439.14 168.665  14
   0  -4   7 1391.71 127.985  11
   0   4  -7 1700.60 186.890  10
   0  -4   7 1493.03 196.958  20
   0  -4   7 1156.71 170.209  19
   0  -4   7 1325.63 187.999   5
   0   4  -7 1639.28 164.596  15
   0   4  -7 1606.34 154.001   1
   0  -4   6 14303.0 582.822  21
   0   4  -6 14873.5 468.978   9
   0   4  -6 12954.2 401.469   2
   0  -4   6 14869.9 614.944   5
   0   4  -6 14319.1 530.005  15
   0   4  -6 14096.1 547.222  10
   0  -4   6 12765.7 555.611  13
   0  -4   6 13949.8 577.682  19
   0   4  -6 14283.5 519.481   1
   0  -4   6 14353.8 592.654  20
   0  -4   6 14024.0 454.327  11
   0  -4   6 12902.0 445.126   9
   0   4  -6 14702.9 584.069   7
   0   4  -6 13381.8 553.560  14
   0   4  -5 6633.47 365.360  16
   0   4  -5 7943.49 301.275   9
   0   4  -5 7724.39 374.883  14
   0  -4   5 7506.01 375.137  19
   0   4  -5 6675.17 270.277   2
   0  -4   5 6956.23 327.698   3
   0  -4   5 7805.50 380.631  21
   0   4  -5 7428.40 346.101  10
   0   4  -5 7445.69 382.246   7
   0   4  -5 7322.43 349.126   1
   0  -4   5 7224.64 367.321  13
   0  -4   5 7344.29 374.657  20
   0  -4   5 7480.22 288.124  11
   0  -4   5 6900.70 380.002   5
   0  -4   5 6656.44 277.759   9
   0   4  -5 6804.15 342.024  15
   0  -4   4 1282.74 146.847   5
   0  -4   4 1207.86 102.477  11
   0  -4   4 1229.06 126.620   3
   0  -4   4 1119.46 135.511  13
   0   4  -4 1225.31 108.750   2
   0   4  -4 1270.70 145.833  16
   0   4  -4 1445.98 114.105   9
   0   4  -4 1171.20 149.553   7
   0   4  -4 1115.18 132.618   1
   0   4  -4 1171.15 122.440  10
   0  -4   4 1594.41 151.164  19
   0  -4   4 1300.13 138.529  21
   0   4  -4 1368.19 142.101  15
   0  -4   4 1418.80 149.237  20
   0   4  -4 1307.14 145.917  14
   0  -4   4 1208.78 103.252   9
   0   4  -3 2403.30 188.925   1
   0   4  -3 2251.81 175.464  16
   0  -4   3 2454.37 178.573  20
   0  -4   3 2057.82 166.025  19
   0   4  -3 2465.17 162.179   2
   0   4  -3 2207.04 191.137   7
   0  -4   3 2334.34 175.449  21
   0  -4   3 2244.41 136.100  11
   0   4  -3 2296.87 151.651  10
   0  -4   3 2123.65 133.655   9
   0  -4   3 2138.27 110.107  18
   0  -4   3 2172.01 176.725   5
   0   4  -3 2016.92 173.275  14
   0  -4   3 2302.81 171.711   3
   0  -4   3 2416.33 188.768  13
   0   4  -2 19473.0 575.695  19
   0   4  -2 18213.9 572.807  16
   0  -4   2 18379.8 561.483  19
   0   4  -2 18399.1 565.249  21
   0   4  -2 19564.8 582.740   5
   0  -4   2 18177.7 562.847  20
   0  -4   2 18478.0 573.797   5
   0   4  -2 18190.8 497.241  18
   0   4  -2 17989.3 615.528   1
   0   4  -2 18318.5 515.510  10
   0   4  -2 18772.8 569.400  17
   0   4  -2 19002.4 575.505  20
   0  -4   2 18755.5 587.397   3
   0  -4   2 18411.6 561.697  21
   0  -4   2 17977.6 597.561  13
   0   4  -2 18606.0 576.747   2
   0   4  -2 17627.3 620.382   7
   0   4  -2 18337.4 606.953  14
   0  -4   2 17708.5 501.243  18
   0  -4   2 18529.3 523.556   9
   0  -4   1 1244.09 107.452  20
   0  -4   1 1115.89 101.096  18
   0  -4   1 1061.58 125.448  13
   0   4  -1 1154.13 104.451   5
   0  -4   1 1055.51 83.9280  10
   0  -4   1 962.781 97.4223   5
   0   4  -1 1087.74 135.008   1
   0   4  -1 1014.98 122.934  14
   0  -4   1 1120.98 126.006   3
   0  -4   1 1006.23 97.6043   9
   0   4  -1 1173.19 101.959  18
   0   4  -1 891.302 105.548   2
   0   4  -1 1135.98 103.976  21
   0   4  -1 1192.02 106.066  20
   0   4  -1 976.334 96.4896  19
   0   4  -1 1095.28 83.7560  10
   0   4  -1 954.846 101.120  16
   0  -4   1 1189.34 125.083   2
   0  -4   1 1084.70 102.190  19
   0  -4   0 1147.85 90.7081   5
   0  -4   0 1311.49 86.3797  10
   0   4   0 1192.34 131.832  14
   0  -4   0 1419.14 123.812  18
   0   4   0 1221.60 101.492  19
   0   4   0 1209.90 84.3594  10
   0   4   0 1328.82 96.8555   5
   0   4   0 1110.83 112.109  18
   0   4   0 1120.12 136.299   1
   0   4   0 1336.13 107.197  20
   0   4   0 1247.97 106.691  16
   0  -4   0 1287.13 101.821  20
   0  -4   0 1310.01 136.167   2
   0   4   0 1225.88 105.971  17
   0  -4   0 1079.20 123.954   3
   0   4   0 1290.24 104.661  21
   0  -4   0 1231.73 104.514  16
   0  -4   0 1193.04 98.1975  19
   0   4   1 12483.3 391.487  17
   0   4   1 12518.1 332.209   5
   0   4   1 12441.2 459.329   8
   0  -4  -1 12963.5 334.628   5
   0  -4  -1 12486.1 393.782  16
   0  -4  -1 12257.4 305.841   4
   0  -4  -1 13095.2 482.651   2
   0   4   1 12252.2 386.707  16
   0   4   1 13120.6 391.034  20
   0  -4  -1 13465.1 463.938  18
   0   4   1 11893.2 439.336  18
   0   4   1 12423.6 386.321  19
   0  -4  -1 12939.9 420.577   6
   0  -4  -1 11984.6 376.400  20
   0   4   1 12356.9 481.554   1
   0  -4  -1 12648.9 357.005  10
   0   4   1 12722.4 358.129  10
   0  -4  -1 12330.9 466.268   3
   0   4   2 6823.23 256.306  19
   0  -4  -2 6532.50 324.940   3
   0  -4  -2 6988.26 270.118   6
   0  -4  -2 6518.86 258.525  17
   0  -4  -2 6934.54 244.540  10
   0   4   2 6397.79 256.535  17
   0   4   2 5800.54 313.719   1
   0   4   2 6440.99 253.775  16
   0   4   2 6476.17 317.011   8
   0   4   2 6323.52 313.306  18
   0   4   2 7054.38 258.261  20
   0  -4  -2 6560.16 257.073  16
   0  -4  -2 6933.98 337.339   2
   0   4   2 6340.28 256.175  21
   0  -4  -3 1521.91 160.522   3
   0  -4  -3 1549.04 113.866   6
   0   4   3 1777.85 162.560   8
   0  -4  -3 1590.86 122.547  17
   0   4   3 1494.83 119.360  19
   0  -4  -3 1746.87 122.682  10
   0   4   3 1548.54 158.452   1
   0   4   3 1629.75 122.615  17
   0   4   3 1689.29 125.799  21
   0   4   3 1743.63 168.603  18
   0   4   3 1763.90 122.167  20
   0  -4  -3 1661.42 167.498   2
   0  -4  -3 1639.31 122.012  16
   0   4   3 1537.81 119.619  16
   0   4   4 29977.7 903.951   8
   0   4   4 30194.5 802.170  16
   0   4   4 29753.5 808.376  19
   0   4   4 30610.5 772.731   6
   0  -4  -4 31810.9 819.128  17
   0  -4  -4 30815.5 812.926  10
   0   4   4 30380.6 883.361   1
   0  -4  -4 30513.6 815.038  21
   0   4   4 29797.2 911.911  18
   0   4   4 31824.0 802.584  20
   0   4   4 29713.5 802.788  17
   0   4   4 29766.6 804.444  21
   0  -4  -4 29689.9 766.507   6
   0   4   4 29740.9 652.944   4
   0  -4  -4 30062.0 805.686  16
   0  -4  -4 30718.7 916.241   2
   0  -4  -4 28354.6 894.452   3
   0  -4  -5 5246.90 154.547   5
   0   4   5 6116.50 341.326   8
   0   4   5 5483.88 275.255  19
   0  -4  -5 6013.15 284.988  16
   0   4   5 6033.77 309.020   1
   0  -4  -5 5819.81 331.790   3
   0   4   5 5501.42 269.697  16
   0   4   5 6074.92 249.249   6
   0  -4  -5 5219.96 234.957   6
   0   4   5 5522.93 273.078  21
   0   4   5 6034.84 201.083   4
   0   4   5 6296.56 355.825  18
   0  -4  -5 5638.63 326.839   2
   0   4   5 5840.27 277.325  17
   0  -4  -5 5236.40 272.141  21
   0   4   6 2594.17 194.146  21
   0  -4  -6 2629.19 122.957   5
   0   4   6 2546.74 238.362  18
   0  -4  -6 2658.14 140.920  12
   0  -4  -6 2931.14 236.802   2
   0   4   6 2457.91 189.013  17
   0   4   6 2575.83 163.116   6
   0   4   6 2823.19 209.797   1
   0   4   6 2766.86 237.734   8
   0   4   6 2264.71 183.649  16
   0   4   6 2622.22 198.560  20
   0   4   6 2810.66 153.580   4
   0   4   6 2632.21 197.287  19
   0  -4  -6 2835.61 237.126   3
   0  -4  -7 199.595 46.0486   5
   0  -4  -7 125.907 32.6968  12
   0   4   7 70.3246 55.5358   1
   0  -4  -7 42.7537 61.2220   2
   0   4   7 141.163 70.7524  17
   0   4   7 158.037 62.0851  19
   0   4   7 104.075 54.5281  21
   0   4   7 161.411 50.7276   6
   0   4   7 120.138 45.5606   4
   0   4   7 19.3333 50.3710  16
   0   4   7 242.331 93.1207  18
   0   4   7 206.412 93.4933   8
   0  -4  -7 171.885 80.3587   3
   0   4   7 137.825 65.5189  20
   0   4   8 11.5061 49.6209   1
   0  -4  -8 37.1142 69.7126   2
   0   4   8 110.596 69.3181  21
   0   4   8 8.03400 60.7796  16
   0   4   8 112.267 89.6632  18
   0   4   8-7.16778 36.8204   6
   0   4   8-13.3636 63.8250  20
   0  -4  -8 25.7160 73.5305   3
   0   4   8 112.112 74.4157  19
   0   4   8-0.68735 46.4172   4
   0   4   8 5.24790 69.2668  17
   0   4   8 6.65069 84.3072   8
   0   4   9 4006.47 260.326   4
   0   4   9 4173.73 340.919  18
   0   4   9 4227.96 306.524  21
   0   4   9 4103.99 303.364  16
   0   4   9 4745.23 331.554  20
   0   4   9 4328.56 313.463  19
   0   4   9 4008.25 249.906   6
   0  -4  -9 4204.94 316.658   2
   0   4   9 4325.52 253.596   1
   0   4   9 4225.36 307.577  17
   0   4   9 4064.39 342.865   8
   0  -4  -9 3865.85 314.667   3
   0   4  10 7188.73 473.353   8
   0  -4 -10 6911.70 418.347   2
   0   4  10 6030.98 432.870  18
   0   4  10 7205.08 439.754  20
   0   4  10 5931.35 397.736  17
   0   4  10 6307.06 362.550   4
   0   4  10 6392.28 407.655  21
   0   4  10 7287.77 362.068   6
   0  -4 -10 6854.97 440.678   3
   0   4  10 6674.70 417.473  16
   0   4  10 6680.78 420.631  19
   0  -4 -11 148.589 84.4492   3
   0   4  11-5.64020 56.9406  21
   0   4  11-30.7612 72.4518  18
   0   4  11-101.382 102.855   8
   0  -4 -11 42.7737 78.3608   7
   0  -4 -11 24.3170 55.4095   2
   0   4  11-76.9119 85.8419  19
   0   4  11 62.5338 74.5571  17
   0   4  11-12.6708 57.8956   4
   0   4  11-2.40741 83.1401  20
   0   4  12 259.710 116.803  21
   0   4  12 118.340 104.517  20
   0   4  12 53.4803 77.4401  18
   0  -4 -12 134.244 85.7733   2
   0  -4 -12-267.073 109.593   3
   0   4  12-141.828 96.5018   8
   0   4  12-40.3455 86.4248  17
   0   4  12 98.1177 75.3737  19
   0   4  13 44.9245 87.6992  18
   0   4  13 158.133 110.374  19
   0   4  13 83.7297 89.7127  20
   0   4  13 64.8523 90.5088  17
   0  -4 -13-17.0597 101.031   3
   0   4  13 149.722 99.6610  21
   0   4  14 418.748 136.908  18
   0  -4 -14-2.77242 93.1005   3
   0   5 -11 7852.13 527.175  10
   0  -5  10 134.852 95.8046  20
   0   5 -10 163.482 124.777  16
   0  -5  10-137.200 136.789   5
   0  -5  10 186.410 103.956  21
   0   5 -10 118.471 77.4306   7
   0   5 -10 209.461 95.7703  14
   0   5 -10 72.7999 57.7873  10
   0  -5  10 145.474 85.4706  19
   0   5  -9-5.82305 57.3835  10
   0   5  -9-18.5819 84.3515  14
   0   5  -9-156.313 86.8173   7
   0  -5   9 64.0817 66.0803  19
   0  -5   9 8.13225 76.3557  20
   0   5  -9-54.6108 72.6462  16
   0  -5   9 87.6494 68.6372  21
   0  -5   9 54.6888 81.6995   5
   0  -5   8 232.824 104.518  21
   0   5  -8 14.0411 80.1203   7
   0  -5   8 139.569 94.9181   5
   0  -5   8 441.543 129.057  20
   0   5  -8 155.146 86.6928  14
   0  -5   8 177.916 88.7278  19
   0   5  -8 35.2956 63.7787  10
   0   5  -8 137.652 88.8462  16
   0  -5   7 3375.98 291.964  19
   0  -5   7 2992.78 291.701   5
   0   5  -7 3168.14 258.774  10
   0   5  -7 3610.35 307.192  16
   0  -5   7 3260.24 283.970  21
   0   5  -7 3365.24 289.638   7
   0  -5   7 2771.77 267.214  20
   0   5  -7 3281.37 246.987   1
   0   5  -7 3433.64 284.866  14
   0  -5   6 89.2426 75.6520  20
   0  -5   6 51.2480 39.6349  11
   0  -5   6 6.71470 62.5132  13
   0   5  -6 7.98643 72.1274  16
   0   5  -6 58.6425 87.1810  14
   0   5  -6 25.6025 51.9933  10
   0  -5   6-91.9325 82.9204  21
   0  -5   6-25.0981 70.1417   3
   0   5  -6-82.1064 91.5627   7
   0   5  -6-52.8762 53.6885   1
   0  -5   6 67.9364 76.6109   5
   0  -5   6 7.69053 58.1055  19
   0   5  -5 16391.0 582.358  10
   0   5  -5 16251.1 668.215   7
   0   5  -5 15971.4 643.390  16
   0  -5   5 17198.1 642.628  21
   0  -5   5 17236.6 669.949   5
   0  -5   5 17168.2 518.835  11
   0   5  -5 16544.1 647.439  14
   0  -5   5 16532.7 645.579  13
   0   5  -5 15529.3 527.750   2
   0  -5   5 17266.0 649.531  20
   0   5  -5 16218.0 627.659   1
   0  -5   5 16893.8 600.608   3
   0  -5   5 17244.9 644.566  19
   0   5  -4 16831.7 633.956  14
   0  -5   4 16421.9 627.544  13
   0  -5   4 16811.6 630.376   5
   0  -5   4 15721.0 502.219   9
   0  -5   4 16901.2 610.768  21
   0   5  -4 15363.5 616.340   1
   0   5  -4 16583.0 661.114   7
   0  -5   4 17537.2 515.138  11
   0  -5   4 16919.1 614.125  19
   0   5  -4 16234.1 548.183  10
   0   5  -4 16028.9 611.696  16
   0  -5   4 16766.8 614.447  20
   0  -5   4 16371.6 589.495   3
   0   5  -3 436.793 106.469   1
   0  -5   3 309.991 74.8637  19
   0  -5   3 358.466 83.0304  21
   0   5  -3 294.512 60.5659  10
   0   5  -3 392.219 86.0555  16
   0  -5   3 339.920 87.8431   3
   0  -5   3 394.972 64.3402  11
   0   5  -3 248.293 88.1424   7
   0  -5   3 380.880 64.8210   9
   0  -5   3 300.839 84.4695   5
   0  -5   3 359.896 80.3292  20
   0   5  -3 382.762 90.1798  14
   0  -5   3 412.075 98.8316  13
   0   5  -3 379.607 52.5687  18
   0   5  -2-78.8829 83.0299   1
   0  -5   2 84.9578 58.0352   3
   0   5  -2 63.7007 50.0031  16
   0   5  -2 41.4309 60.2272  14
   0  -5   2 93.8749 47.3264  19
   0   5  -2 42.0360 34.0120  10
   0  -5   2 75.4864 56.4469   5
   0  -5   2 25.2003 33.4053  18
   0  -5   2 78.7682 42.8299  20
   0   5  -2 48.9770 28.9109  18
   0  -5   2 57.2103 35.0048   9
   0  -5   2-30.7130 48.6527  13
   0   5  -1 3433.88 244.677  14
   0  -5   1 3262.39 194.256  20
   0  -5   1 3139.35 190.610   5
   0   5  -1 3033.19 194.526  16
   0   5  -1 3189.06 191.261   5
   0  -5   1 3134.20 199.418  18
   0  -5   1 3240.05 164.340  10
   0   5  -1 3191.67 250.804   1
   0   5  -1 3088.03 192.589  21
   0   5  -1 3163.02 200.327  17
   0   5  -1 3411.00 199.697  18
   0   5  -1 3349.33 201.119  20
   0  -5   1 3236.46 241.565  13
   0  -5   1 3086.59 227.323   3
   0  -5   1 3413.21 235.961   2
   0  -5   1 3042.09 187.628  19
   0   5  -1 3177.05 161.422  10
   0   5  -1 3072.85 192.703  19
   0  -5   1 3021.58 188.999   9
   0   5   0 69.6628 63.3444  14
   0   5   0 21.9953 25.3946  10
   0   5   0 51.4663 31.7230   5
   0   5   0 26.5346 27.1803  21
   0  -5   0-1.22739 32.8021  20
   0   5   0 17.7231 46.0900  18
   0  -5   0 56.0522 33.9578   5
   0   5   0 42.1833 38.0546  16
   0  -5   0 65.0555 38.5836  19
   0  -5   0 15.1440 53.7163   3
   0  -5   0-3.32266 34.8063  16
   0   5   0 52.3391 57.3907   1
   0   5   0-15.1475 31.0974  20
   0  -5   0 31.7101 23.6460  10
   0   5   0 24.8955 38.1344  17
   0  -5   0 82.4102 56.9216   2
   0   5   0 0.37542 25.6972  19
   0   5   1 4742.00 230.593  17
   0  -5  -1 5035.11 299.019   3
   0   5   1 4802.12 224.316  19
   0  -5  -1 4796.93 220.992  20
   0   5   1 4331.42 293.986   1
   0   5   1 4833.93 229.186  16
   0  -5  -1 4553.50 151.912   4
   0   5   1 4766.72 224.835  21
   0   5   1 4618.57 228.343  21
   0  -5  -1 4430.45 189.719  10
   0   5   1 4688.44 272.180  18
   0  -5  -1 4622.15 178.518   5
   0   5   1 4713.95 225.155  20
   0   5   1 4985.69 198.308  10
   0  -5  -1 5063.96 303.523   2
   0  -5  -1 4528.89 228.086  16
   0   5   2 18015.3 640.461   8
   0   5   2 17954.5 527.895  19
   0  -5  -2 17273.9 494.365  10
   0   5   2 16670.7 649.605   1
   0  -5  -2 17637.4 535.774  16
   0   5   2 17975.8 539.228  21
   0  -5  -2 18040.4 660.276   2
   0  -5  -2 17321.0 551.792   6
   0   5   2 17276.3 526.935  16
   0  -5  -2 18024.7 650.603   3
   0   5   2 18010.0 528.633  20
   0  -5  -2 18088.0 523.670  20
   0   5   2 17446.5 625.682  18
   0   5   2 17450.9 530.984  17
   0   5   3 3.50532 60.1927   1
   0   5   3 15.2206 31.6515  19
   0   5   3 84.1648 79.2707  18
   0  -5  -3 11.4282 63.2019   2
   0   5   3-19.0295 35.6137  17
   0  -5  -3-11.7092 30.8733  17
   0   5   3 26.6274 55.3217   8
   0   5   3-6.66880 36.2162  21
   0   5   3-0.14442 28.6872  20
   0  -5  -3 74.2944 38.0319   6
   0  -5  -3 77.6150 69.1743   3
   0   5   3-37.5091 42.0286  16
   0  -5  -3 54.2910 30.7800  10
   0  -5  -3 31.0345 32.1712  16
   0  -5  -4 225.997 90.4858   3
   0  -5  -4 349.588 69.2446  17
   0  -5  -4 406.276 67.5690  10
   0   5   4 302.370 95.5941  18
   0   5   4 348.423 64.3761  20
   0   5   4 202.243 59.1187  16
   0  -5  -4 360.363 101.888   2
   0   5   4 274.826 85.6203   8
   0   5   4 443.143 79.9847  17
   0   5   4 443.480 104.112   1
   0  -5  -4 311.673 64.0127   6
   0  -5  -4 345.136 69.1017  16
   0   5   4 388.975 73.8156  19
   0   5   4 397.206 68.9770  19
   0   5   4 340.740 74.2315  21
   0  -5  -5 211.922 48.0746   6
   0  -5  -5 212.533 85.9429   2
   0   5   5 78.6627 47.5159  21
   0   5   5 109.961 93.3419  18
   0   5   5 201.955 59.6710  16
   0   5   5 178.210 82.0689   8
   0   5   5 78.0597 40.8750   6
   0   5   5 73.1623 45.4267  19
   0   5   5 202.071 58.6652  17
   0   5   5 152.174 75.0669   1
   0  -5  -5 83.6021 70.2889   3
   0   5   6 3834.22 308.092   8
   0  -5  -6 3983.54 305.535   2
   0   5   6 4047.90 248.791  16
   0   5   6 3801.00 244.437  17
   0  -5  -6 3879.42 204.304  12
   0   5   6 3690.52 242.331  21
   0   5   6 3892.38 312.256  18
   0   5   6 3803.26 248.395  19
   0   5   6 3676.92 272.802   1
   0  -5  -6 4053.82 308.004   3
   0   5   6 4291.66 150.828   4
   0  -5  -6 3344.37 201.419   6
   0   5   6 4128.07 219.302   6
   0  -5  -7 2024.64 132.575  12
   0   5   7 2028.98 199.160   1
   0  -5  -7 1844.61 214.510   2
   0   5   7 1823.72 178.090  21
   0   5   7 1956.28 152.820   6
   0   5   7 1577.66 203.454   8
   0  -5  -7 2211.65 234.237   3
   0   5   7 2098.62 125.533   4
   0   5   7 1835.57 180.882  19
   0   5   7 2067.92 189.694  17
   0   5   7 1927.94 227.080  18
   0   5   7 1639.83 173.347  20
   0   5   7 2029.38 185.235  16
   0   5   8 179.914 81.6875  18
   0   5   8 242.513 85.6724  19
   0   5   8 384.278 95.1715  20
   0  -5  -8 262.666 94.6157   2
   0   5   8 452.715 104.506  21
   0  -5  -8 232.428 103.524   3
   0   5   8 409.906 97.3053  16
   0   5   8 408.198 80.7348   6
   0   5   8 287.479 85.4457  17
   0   5   8 409.463 132.539   8
   0   5   8 346.379 100.042   1
   0  -5  -9 4546.78 366.833   3
   0   5   9 4404.26 374.908  18
   0   5   9 4874.82 388.881   8
   0   5   9 4027.42 306.965  16
   0   5   9 4584.03 322.320  17
   0   5   9 4364.63 324.542  20
   0   5   9 4668.46 326.773  21
   0  -5  -9 5091.85 374.581   2
   0   5   9 5056.47 314.896   1
   0   5   9 4245.80 316.038  19
   0   5  10-35.0526 100.142  18
   0  -5 -10 103.735 84.3728   3
   0   5  10-1.48951 56.3037  21
   0   5  10 3.97728 59.2674  19
   0   5  10-33.1324 52.2521  16
   0   5  10 32.9715 65.5285  20
   0   5  10-60.2605 124.776   8
   0  -5 -10-95.4173 91.3631   2
   0   5  10 11.5827 61.8529  17
   0  -5 -11 1309.85 212.630   3
   0   5  11 807.766 152.847  21
   0   5  11 962.411 164.891  19
   0   5  11 1021.52 182.532  20
   0  -5 -11 1051.17 185.662   2
   0   5  11 872.992 192.958   8
   0   5  11 939.970 168.271  17
   0   5  11 875.870 193.478  18
   0  -5 -12 56.3288 96.6947   3
   0   5  12 149.276 106.820   8
   0   5  12 158.589 95.5554  21
   0  -5 -12 129.793 78.3958   2
   0   5  12 157.859 89.5877  19
   0   5  12-10.8795 88.4078  18
   0   5  12 128.282 102.707  20
   0   5  12-13.8665 81.2729  17
   0   5  13 359.579 123.110  21
   0   5  13 389.038 129.563  20
   0   5  13 553.017 154.463  17
   0   5  13 622.313 156.761  19
   0  -5 -13 462.479 156.751   3
   0  -6  10 6382.59 494.058  19
   0   6 -10 7032.95 534.963  16
   0  -6  10 6339.18 496.431  20
   0   6 -10 6295.09 475.527   7
   0  -6  10 6034.25 479.330  21
   0   6  -9 156.653 102.818   7
   0  -6   9 555.991 154.039  20
   0   6  -9 330.270 111.653  10
   0   6  -9 542.848 180.230  16
   0  -6   9 412.368 122.258  19
   0  -6   9 501.092 159.118   5
   0  -6   9 378.975 135.993  21
   0   6  -9 371.942 118.020  14
   0  -6   8 457.834 146.005   5
   0  -6   8 585.456 139.031  21
   0  -6   8 808.255 168.023  19
   0   6  -8 847.818 146.432  10
   0   6  -8 575.093 131.416  14
   0  -6   8 1070.36 191.751  20
   0   6  -8 852.570 176.459  16
   0   6  -8 807.516 166.651   7
   0  -6   7 20.0957 74.7018   5
   0  -6   7-99.9949 90.3711  20
   0  -6   7 33.4569 75.9948  21
   0  -6   7-89.0785 87.8252  19
   0   6  -7 169.088 85.3839  14
   0   6  -7 2.60472 61.1513   1
   0   6  -7 23.6750 59.4093  16
   0  -6   7-2.04867 79.1426  13
   0   6  -7-47.8021 56.8513  10
   0   6  -7 38.6551 65.6313   7
   0  -6   6 135.521 82.8550  19
   0   6  -6 120.194 86.5298  16
   0  -6   6 175.498 93.2053  13
   0  -6   6 167.208 84.1784  20
   0   6  -6 62.9956 65.4728   1
   0   6  -6 212.836 101.784   7
   0  -6   6 240.367 93.9345  21
   0  -6   6 239.973 93.4315   5
   0   6  -6 122.214 72.0959  14
   0  -6   6 356.186 94.9899   3
   0   6  -6 139.110 60.7623  10
   0  -6   5 2404.24 225.224  21
   0  -6   5 2203.37 232.240  13
   0  -6   5 1923.76 216.030   5
   0   6  -5 1881.84 211.167   1
   0   6  -5 1815.92 212.070  14
   0   6  -5 2749.99 265.961   7
   0  -6   5 2024.69 199.561   3
   0  -6   5 2374.80 231.259  20
   0  -6   5 2256.86 220.951  19
   0   6  -5 1975.13 214.914  16
   0   6  -5 2370.76 195.223  10
   0   6  -4 5968.38 361.266  16
   0   6  -4 5812.95 297.159  10
   0  -6   4 6169.00 366.199   5
   0  -6   4 6462.15 363.560   3
   0  -6   4 5598.15 364.635  13
   0   6  -4 5889.05 376.181  14
   0  -6   4 6659.21 290.443  11
   0  -6   4 5950.29 349.253  19
   0  -6   4 5707.15 343.328  20
   0   6  -4 5978.97 384.858   1
   0  -6   3 7802.03 382.077  19
   0  -6   3 7454.38 375.851  20
   0   6  -3 7680.30 292.244  18
   0   6  -3 7186.83 425.230   1
   0   6  -3 7655.13 321.142  10
   0   6  -3 7193.83 378.789  16
   0  -6   3 7270.39 377.969   5
   0   6  -3 7419.59 419.365  14
   0  -6   3 7067.53 386.473   3
   0  -6   3 7857.07 327.194  11
   0  -6   3 6843.54 401.092  13
   0   6  -2 5394.99 351.068  14
   0  -6   2 5396.47 334.848   3
   0   6  -2 4791.53 290.297  17
   0  -6   2 5867.82 307.140  19
   0   6  -2 5683.78 251.162  10
   0   6  -2 5639.60 372.698   1
   0   6  -2 5549.94 269.251  18
   0  -6   2 5787.73 303.889  20
   0  -6   2 5768.99 305.637   5
   0  -6   2 5539.58 348.814  13
   0   6  -2 5797.51 314.773  16
   0   6  -1 3133.72 166.897  10
   0   6  -1 3131.14 213.270  16
   0  -6   1 2761.33 246.473  13
   0  -6   1 3129.70 200.225   5
   0  -6   1 3392.75 215.907  19
   0  -6   1 2916.31 247.726   3
   0   6  -1 3003.41 209.293  18
   0   6  -1 2959.26 271.838   1
   0   6  -1 2974.10 211.853  17
   0  -6   1 2926.61 202.776  20
   0   6  -1 3066.90 254.256  14
   0   6   0-22.6609 37.0979   5
   0   6   0-23.4666 44.0043  16
   0   6   0 15.2780 28.0853  10
   0   6   0-72.3288 70.8893   1
   0   6   0 37.1252 43.3456  17
   0  -6   0-18.5824 28.6347  10
   0  -6   0-47.4222 78.9918   3
   0  -6   0 77.6888 64.5259   2
   0  -6   0 6.19073 38.3136  20
   0   6   0 61.9194 46.8617  18
   0  -6   0 82.0425 37.2211   5
   0  -6  -1 9974.27 273.641   4
   0   6   1 10427.8 460.920  18
   0   6   1 11060.4 401.325  16
   0  -6  -1 10621.5 506.226   2
   0   6   1 10062.9 388.965  17
   0  -6  -1 9800.83 328.178  10
   0   6   1 10075.2 508.390   1
   0  -6  -1 9414.18 265.961   4
   0  -6  -1 10262.8 379.526  20
   0   6   1 10203.4 393.823  21
   0  -6  -1 10075.0 485.123   3
   0   6   2 3344.79 206.588  17
   0   6   2 3015.23 192.408  19
   0  -6  -2 3637.31 286.513   3
   0   6   2 3623.22 210.288  16
   0  -6  -2 3416.66 283.297   2
   0   6   2 3749.79 218.012  21
   0   6   2 3551.25 288.501   1
   0  -6  -2 3118.41 202.792  16
   0   6   2 3403.15 262.356  18
   0  -6  -2 3466.85 199.255  20
   0  -6  -2 3474.22 176.167  10
   0   6   2 3124.34 194.971  20
   0   6   2 3139.19 194.198  21
   0  -6  -3 10659.0 381.882  10
   0   6   3 11591.8 421.658  16
   0   6   3 11284.5 420.475  17
   0   6   3 11681.3 537.106   8
   0   6   3 11565.0 424.947  21
   0  -6  -3 11583.1 555.886   2
   0   6   3 11157.6 544.365   1
   0  -6  -3 11129.7 537.696   3
   0   6   3 11104.5 523.907  18
   0   6   4 5.45760 80.6456   1
   0   6   4 19.5484 50.9089  19
   0   6   4-0.38292 49.4088  21
   0   6   4 8.66762 70.2783   8
   0  -6  -4 33.5275 65.8044   3
   0  -6  -4-10.9708 33.3764  10
   0   6   4 68.8756 48.8117  17
   0   6   4 28.5215 89.6557  18
   0   6   4 46.7279 43.2138  16
   0  -6  -4 14.9789 72.6446   2
   0   6   5 5742.68 298.458  21
   0   6   5 6366.41 312.089  17
   0   6   5 5983.70 398.372  18
   0  -6  -5 5847.35 390.355   3
   0   6   5 5273.67 292.637  19
   0   6   5 5464.14 290.722  16
   0   6   5 6262.00 396.297   1
   0   6   5 5678.24 385.634   8
   0  -6  -5 6083.47 406.415   2
   0   6   6 151.333 56.7304  16
   0   6   6 167.551 63.9077  21
   0   6   6 17.4738 73.8513   1
   0  -6  -6 177.092 107.814   2
   0   6   6 146.648 62.8742  19
   0   6   6 72.6052 58.1779  17
   0   6   6 19.7899 65.4815  18
   0  -6  -6 102.250 81.4910   3
   0   6   6 245.646 110.110   8
   0   6   7 1013.92 144.969  20
   0  -6  -7 1006.35 185.084   3
   0   6   7 1364.76 210.859   8
   0  -6  -7 1052.42 180.833   2
   0   6   7 1260.02 149.487  21
   0   6   7 1034.98 138.767  16
   0   6   7 1444.27 213.309  18
   0   6   7 1107.87 169.450   1
   0   6   7 1232.62 151.135  19
   0   6   7 1219.27 148.925  17
   0  -6  -8-13.1294 64.5617   3
   0   6   8-23.2618 66.4669   1
   0   6   8-51.9611 62.6650  17
   0  -6  -8-51.4472 97.2615   2
   0   6   8-10.5128 52.7362  21
   0   6   8 30.2014 59.2914  20
   0   6   8 73.1696 57.2708  16
   0   6   8 119.821 100.925   8
   0   6   8-5.85173 75.9332  18
   0   6   8 23.5319 57.9261  19
   0  -6  -9 161.780 103.032   2
   0   6   9 193.864 86.1811  20
   0   6   9 181.208 81.3694  21
   0   6   9 20.8532 76.2779  19
   0   6   9 326.004 97.8640   1
   0   6   9 174.600 76.7673  16
   0  -6  -9 41.1135 74.4209   3
   0   6   9 17.9160 90.3671   8
   0   6   9 228.937 92.1530  17
   0   6   9 377.945 130.803  18
   0   6  10 459.902 128.030  19
   0   6  10 585.499 158.158   8
   0   6  10 239.510 96.5975  16
   0   6  10 331.296 98.5572  20
   0   6  10 384.341 103.420  21
   0   6  10 310.420 96.6482  17
   0  -6 -10 505.698 146.621   3
   0  -6 -10 284.857 118.441   2
   0   6  10 411.415 152.573  18
   0   6  11 2166.89 292.506   8
   0   6  11 1938.54 228.867  21
   0   6  11 1708.26 224.487  17
   0  -6 -11 2081.50 278.942   3
   0  -6 -11 1996.90 272.885   2
   0   6  11 1445.29 210.277  19
   0   6  11 2018.50 288.120  18
   0   6  11 1481.58 211.790  20
   0  -6 -12 625.213 170.022   2
   0  -6 -12 808.765 190.744   3
   0  -7   9 556.328 159.972  20
   0  -7   9 602.973 161.661  19
   0   7  -9 429.653 143.956  16
   0  -7   9 875.697 193.550  21
   0   7  -8 4356.46 378.783  14
   0  -7   8 5579.04 430.980  21
   0  -7   8 4992.39 411.921  20
   0  -7   8 5490.36 450.174   5
   0  -7   8 5030.38 412.818  19
   0   7  -8 4806.27 414.762  16
   0  -7   7 408.051 123.405  20
   0   7  -7 554.387 135.388   1
   0   7  -7 606.981 146.539  14
   0  -7   7 350.746 119.538  21
   0   7  -7 593.366 151.772  16
   0  -7   7 234.164 106.725  13
   0  -7   7 332.284 116.778   5
   0  -7   7 501.254 140.364  19
   0  -7   6 3961.10 333.888  20
   0   7  -6 3124.56 303.448  16
   0   7  -6 4403.89 360.411  14
   0  -7   6 3640.90 338.231  13
   0   7  -6 4336.91 354.224   1
   0  -7   6 4449.70 346.881  19
   0  -7   6 4517.30 367.694   5
   0  -7   5 356.306 100.797  20
   0   7  -5 293.366 91.8405  16
   0  -7   5 467.010 125.902   5
   0  -7   5 559.209 137.050  13
   0   7  -5 619.670 150.207  14
   0  -7   5 453.548 114.644   3
   0  -7   5 344.996 106.412  19
   0   7  -5 241.568 99.0372   1
   0  -7   4 649.893 122.971   5
   0  -7   4 908.329 142.479  19
   0   7  -4 371.545 115.108   1
   0  -7   4 603.932 140.998  13
   0  -7   4 646.319 123.464  20
   0   7  -4 524.833 121.004  16
   0  -7   4 890.183 156.786   3
   0   7  -4 836.300 163.541  14
   0   7  -3 465.212 121.067  14
   0  -7   3 795.478 107.223  11
   0   7  -3 550.964 108.267  17
   0  -7   3 773.213 130.623  19
   0  -7   3 779.690 132.921   5
   0  -7   3 656.639 140.112   3
   0  -7   3 649.754 110.763  20
   0   7  -3 484.544 106.093  16
   0   7  -3 760.415 161.543   1
   0  -7   3 762.874 147.148  13
   0   7  -2 4156.40 346.392   1
   0   7  -2 4387.57 254.475  18
   0  -7   2 4361.50 324.602   3
   0  -7   2 4251.37 274.083   5
   0   7  -2 4417.71 290.670  17
   0   7  -2 4582.03 346.315  14
   0   7  -2 4300.87 284.144  16
   0  -7   2 4266.90 273.752  20
   0  -7   2 4802.07 291.691  19
   0  -7   2 4165.16 328.163  13
   0  -7   1 2162.47 182.520  19
   0  -7   1 1884.08 171.307  20
   0   7  -1 1659.37 167.690  17
   0   7  -1 1854.57 233.478   1
   0  -7   1 2017.96 168.705   5
   0   7  -1 1808.54 171.660  16
   0  -7   1 1761.10 211.136   3
   0   7  -1 1517.28 161.370  18
   0  -7   1 1525.96 204.183  13
   0  -7   0 356.973 77.0357  20
   0   7   0 392.748 82.8803  17
   0  -7   0 385.975 69.3813   5
   0   7   0 280.648 76.8501  16
   0   7   0 306.919 87.9058  18
   0  -7   0 254.707 103.759  13
   0   7   0 314.800 109.401   1
   0  -7   0 503.443 125.891   3
   0  -7  -1 23975.5 713.478  20
   0  -7  -1 22734.2 873.817   2
   0   7   1 22791.5 813.603  18
   0   7   1 23707.0 730.508  17
   0   7   1 23880.4 729.288  16
   0  -7  -1 24167.2 887.080   3
   0   7   1 23300.3 731.004  21
   0   7   1 23990.7 924.866   1
   0   7   2 13799.1 496.532  16
   0   7   2 13758.4 663.812   1
   0   7   2 14192.2 506.160  21
   0  -7  -2 13989.7 653.235   2
   0   7   2 13203.7 599.034  18
   0  -7  -2 13303.0 630.272   3
   0   7   2 13202.2 491.871  17
   0   7   3 8662.96 375.232  21
   0   7   3 8933.97 379.371  17
   0   7   3 9238.76 382.101  16
   0   7   3 8413.21 505.194   1
   0  -7  -3 8376.87 496.651   3
   0   7   3 9036.12 500.238   8
   0  -7  -3 9548.29 528.806   2
   0   7   3 8421.43 480.392  18
   0  -7  -4 1558.90 216.644   2
   0   7   4 1384.22 145.424  17
   0  -7  -4 1472.54 205.451   3
   0   7   4 1644.37 155.978  19
   0   7   4 1535.22 211.165  18
   0   7   4 1658.92 154.135  16
   0   7   4 1399.44 204.140   8
   0   7   4 1706.73 157.314  21
   0   7   4 1721.35 232.284   1
   0   7   5 6471.06 332.463  19
   0  -7  -5 6171.07 440.700   2
   0   7   5 5729.79 418.609   1
   0   7   5 6256.92 434.931   8
   0   7   5 6167.48 319.973  16
   0   7   5 6797.53 336.748  21
   0  -7  -5 6912.77 459.213   3
   0   7   5 6126.93 434.023  18
   0   7   5 6451.58 328.353  17
   0   7   6 2782.48 279.121   1
   0   7   6 2254.64 271.377  18
   0   7   6 2315.06 198.931  19
   0   7   6 2832.47 294.087   8
   0   7   6 2014.91 183.590  21
   0  -7  -6 2699.78 298.773   2
   0  -7  -6 2760.39 297.712   3
   0   7   6 2476.29 198.138  16
   0   7   6 2445.52 202.786  17
   0   7   7 9964.17 596.069   8
   0   7   7 9310.37 579.366  18
   0   7   7 9698.72 557.083   1
   0  -7  -7 10625.6 616.996   2
   0  -7  -7 10466.2 609.134   3
   0   7   8 3535.54 360.930  18
   0  -7  -8 3121.65 337.160   3
   0   7   8 3625.99 330.707   1
   0  -7  -8 3294.06 342.014   2
   0   7   8 3569.47 354.156   8
   0   7   9 1622.41 260.268  18
   0  -7  -9 1498.39 249.254   3
   0   7   9 1062.30 214.571   8
   0  -7  -9 1828.98 259.728   2
   0   7   9 1204.23 193.828   1
   0   7  10 505.782 163.001  18
   0  -7 -10 230.980 129.677   2
   0  -7 -10 369.343 143.842   3
   0  -7 -11 4.24161 103.275   2
   0  -8   7 913.994 180.677   5
   0   8  -7 966.883 189.751  14
   0  -8   7 719.815 170.276  13
   0   8  -6 349.113 123.803   1
   0  -8   6 128.011 64.9483   5
   0  -8   6 190.009 103.963  13
   0   8  -6 358.344 127.679  14
   0   8  -5 52.8377 77.0462   1
   0  -8   5 82.6185 85.5717  13
   0  -8   5 117.111 95.3647   5
   0   8  -5 200.712 103.160  14
   0   8  -4 104.328 92.6080   1
   0  -8   4 145.423 82.2277   5
   0  -8   4 11.1740 96.8860  13
   0  -8   4-111.179 66.9828   3
   0   8  -4 306.120 132.525  14
   0  -8   3-78.9712 86.4533   3
   0   8  -3 30.4838 80.8663  14
   0  -8   3 73.9236 90.2741  13
   0   8  -3 8.73884 99.8081   1
   0   8  -2 6788.59 484.430   1
   0  -8   2 6307.69 427.372   3
   0  -8   2 6041.14 438.596  13
   0   8  -1 116.213 99.7207   1
   0  -8   1 201.569 104.574   3
   0  -8   1 299.882 106.445  13
   0  -8   0 243.117 110.846  13
   0   8   0 37.6937 41.1996  18
   0  -8   0 47.8802 75.6481   3
   0   8   0 227.466 99.6983   1
   0   8   1 1709.76 204.449  18
   0  -8  -1 1456.50 220.009   3
   0   8   1 1714.18 250.634   1
   0  -8  -1 1614.63 219.388  13
   0   8   2 92.7913 69.4426  18
   0   8   2 48.3437 111.719   1
   0  -8  -2 68.5209 93.6375   2
   0  -8  -2 70.4004 85.6238   3
   0  -8  -3-63.3563 84.2634   3
   0  -8  -3-59.8021 82.2231   2
   0   8   3 133.531 71.1383  18
   0   8   3 26.9250 87.4731   1
   0   8   4 3947.41 353.218  18
   0  -8  -4 3571.88 346.957   3
   0   8   4 4290.34 384.909   1
   0  -8  -4 4212.74 379.673   2
   0  -8  -5 2327.07 278.816   3
   0   8   5 2061.70 269.808   8
   0   8   5 1692.83 254.751   1
   0  -8  -5 2591.70 311.722   2
   0   8   5 1834.24 253.789  18
   0  -8  -6 2411.24 300.174   3
   0   8   6 2679.99 316.495  18
   0  -8  -6 2586.89 312.925   2
   0   8   6 2452.34 293.761   1
   0   8   6 2889.92 321.714   8
   0  -8  -7 430.085 136.990   3
   0   8   7 424.330 151.675  18
   0  -8  -7 475.288 143.200   2
   0   8   7 266.680 124.732   1
   0   8   7 586.801 166.971   8
   0   8   8 294.578 150.334   8
   0   8   8 53.5618 96.7617   1
   0  -8  -8 222.436 101.998   2
   0  -8  -8 296.587 149.118   3
   0   8   8 120.349 107.416  18
   0   8   9 57.9061 88.4496   1
   0   9  -5 239.540 107.764   1
   0  -9   5 223.612 116.327  13
   0   9  -5 256.684 123.753  14
   0   9  -4 95.7108 85.6576   1
   0   9  -4 201.213 103.776  14
   0   9  -3 1496.01 252.883   1
   0  -9   3 1340.20 226.858  13
   0  -9   3 1600.94 230.992   3
   0  -9   2 359.595 118.999   3
   0   9  -2 369.296 155.981   1
   0  -9   2 733.621 172.883  13
   0  -9   1 42.8916 98.0216   3
   0  -9   1-4.49686 88.5692  13
   0   9  -1-28.5164 132.574   1
   0  -9   0 64.6249 90.6498   3
   0   9   0 285.408 138.214   1
   0  -9   0 78.5626 73.2764  13
   0  -9  -1 848.218 181.716   3
   0   9   1 611.800 137.399  18
   0   9   1 768.844 189.443   1
   0  -9  -1 677.357 172.794  13
   0  -9  -2 424.207 129.555   3
   0   9   2 561.503 141.378  18
   0   9   2 230.590 135.472   1
   0   9   3 633.513 178.050   1
   0   9   3 431.873 130.487  18
   0  -9  -3 896.540 195.977   3
   0   9   4 1723.08 258.122  18
   0  -9  -4 2340.25 308.853   3
   0   9   4 1964.58 292.562   1
   0  -9  -5 522.818 164.700   2
   0  -9  -5 509.619 160.948   3
   0   9   5 447.524 138.383   1
   0   9   5 291.798 133.089  18
   0   9   6 120.596 131.965   1
   0   9   6 60.5928 96.8414   8
   0   9   6-82.6137 92.2030  18
   0   9   7 167.767 138.172   1
   0 -10   1 2385.61 302.133   3
   0  10   3 789.674 179.353  18
   0  10   4 850.517 191.553  18
  -1   9   5 58.6444 115.208  18
  -1   9   4 63.0553 77.2923  18
  -1   9   3 951.254 193.410  18
  -1   9   2 148.719 93.0391  18
   1  -9  -2 169.161 97.8801   3
   1  -9  -1 137.461 91.2254  13
   1  -9  -1 137.643 128.489   3
   1  -9   0 152.955 100.758  13
   1  -9   0-3.50380 105.091   3
   1  -9   1 419.124 158.607   3
   1  -9   1 156.906 91.3119  13
   1  -9   2 82.6758 82.4963   3
   1  -9   2 102.352 102.880  13
   1  -9   3 212.460 111.955  13
   1  -9   3-236.590 128.098   3
   1  -9   4-119.499 93.5096   3
   1  -9   4 126.609 105.056  13
  -1   8   8 743.604 181.853   1
  -1   8   7-65.7153 126.182   1
  -1   8   7 298.557 136.601   8
  -1   8   7 79.3355 98.0570  18
  -1   8   6 93.2229 117.466   1
   1  -8  -6-1.51344 108.559   3
  -1   8   6 29.9612 86.5360   8
  -1   8   6-114.379 128.637  18
  -1   8   5-24.4919 91.2930   1
  -1   8   5 56.3469 83.3383   8
  -1   8   5 68.2208 69.3829  18
   1  -8  -5-19.4986 103.219   3
  -1   8   4 79.8740 77.8792  18
  -1   8   4 261.211 114.032   8
   1  -8  -4 119.695 91.0249   3
  -1   8   4 80.1606 88.0174   1
   1  -8  -3 5356.39 442.140   3
  -1   8   3 5246.56 451.475   1
  -1   8   3 4127.71 369.304  18
  -1   8   2 1167.95 190.434  18
   1  -8  -2 720.554 159.119   3
  -1   8   2 1169.66 203.211   1
  -1   8   1 523.993 151.075   1
  -1   8   1 463.421 117.213  18
   1  -8  -1 241.250 91.4863   3
   1  -8   0 212.762 108.545  13
  -1   8   0 116.006 74.1178  18
  -1   8   0 308.891 125.710   1
   1  -8   1 2844.71 309.415   3
  -1   8  -1 2955.07 335.870   1
   1  -8   1 2945.31 307.650  13
  -1   8  -2 152.374 102.393   1
   1  -8   2 38.1226 73.8201  13
   1  -8   2 232.448 121.949   3
   1  -8   3 1320.08 201.344  13
  -1   8  -3 1459.86 245.996   1
   1  -8   3 1589.24 230.871   3
   1  -8   4-64.7439 119.480   3
   1  -8   4 220.435 113.528  13
  -1   8  -4 177.643 122.298   1
   1  -8   5-67.1034 101.136  13
  -1   8  -5 124.378 100.862   1
   1  -8   5 250.421 94.8990   3
  -1   8  -6 673.235 163.678   1
  -1   7   9 613.217 190.817   8
   1  -7  -9 249.061 142.789   3
  -1   7   9 495.204 154.806   1
   1  -7  -8 2526.71 317.876   3
  -1   7   8 2787.13 338.348  18
  -1   7   8 3265.04 353.440   8
  -1   7   8 2671.66 294.199   1
   1  -7  -7 1548.95 242.435   2
  -1   7   7 1519.05 231.079   1
  -1   7   7 1463.78 231.174   8
   1  -7  -7 2264.76 291.856   3
  -1   7   7 1901.82 274.071  18
  -1   7   6 1546.60 236.479  18
   1  -7  -6 942.416 194.797   3
  -1   7   6 1330.00 171.160  16
  -1   7   6 1372.23 176.891  19
  -1   7   6 1296.21 214.128   1
  -1   7   6 1101.42 161.934  21
  -1   7   6 1196.70 162.210  17
  -1   7   6 1520.49 230.751   8
   1  -7  -5 5739.91 438.250   3
  -1   7   5 4676.68 403.049  18
  -1   7   5 6053.77 444.332   1
  -1   7   5 5471.52 338.096  17
  -1   7   5 4904.42 327.949  19
  -1   7   5 5030.96 397.866   8
  -1   7   5 5128.88 327.513  21
  -1   7   5 5817.73 343.268  16
  -1   7   4 358.010 135.553   1
  -1   7   4 361.194 125.038   8
  -1   7   4 250.550 107.094  18
  -1   7   4 270.842 79.0865  21
   1  -7  -4 226.248 108.833   3
  -1   7   4 221.504 78.5023  16
  -1   7   4 274.846 85.4766  17
  -1   7   4 440.291 96.7140  19
  -1   7   3 15340.2 599.332  17
   1  -7  -3 16011.3 749.965   3
  -1   7   3 15262.0 601.256  21
  -1   7   3 15394.1 595.663  16
  -1   7   3 14811.0 692.717  18
  -1   7   3 15300.7 697.162   8
  -1   7   3 15707.0 749.077   1
  -1   7   2 27794.8 1062.30   1
  -1   7   2 26930.8 868.632  16
  -1   7   2 27520.9 975.868  18
   1  -7  -2 29566.5 1056.53   3
  -1   7   2 27296.5 876.099  17
  -1   7   2 26632.1 873.833  21
  -1   7   1 541.290 146.504   1
  -1   7   1 607.917 115.292  21
   1  -7  -1 583.967 107.491  20
  -1   7   1 591.404 111.139  16
  -1   7   1 406.286 108.720  18
  -1   7   1 486.812 101.632  17
   1  -7  -1 425.775 122.236   3
  -1   7   0-24.9369 83.6667   1
  -1   7   0-31.2734 54.1363  18
  -1   7   0 92.4669 60.9485  17
   1  -7   0 32.6281 46.1548  20
  -1   7   0-29.2936 61.0821  21
   1  -7   0-166.281 124.776   3
  -1   7   0 14.0472 49.8687  16
   1  -7   1 81.3474 67.0077  13
   1  -7   1 190.198 69.4877  20
  -1   7  -1 23.4265 57.8207  16
  -1   7  -1 120.861 81.4138  17
  -1   7  -1 32.4962 99.9329   1
  -1   7  -1-46.5704 58.1134  18
   1  -7   1 93.9431 84.1037   3
  -1   7  -2 2709.58 243.708  16
  -1   7  -2 2794.37 251.831  17
   1  -7   2 2601.58 273.398   3
   1  -7   2 2448.51 258.118  13
   1  -7   2 2893.54 246.180  20
  -1   7  -2 3270.34 323.341   1
   1  -7   2 2942.94 246.768  19
  -1   7  -3 4112.24 318.225  16
   1  -7   3 4712.01 329.722  19
   1  -7   3 4961.54 333.325  20
  -1   7  -3 4356.20 331.282  17
   1  -7   3 4725.49 363.188   3
  -1   7  -3 4727.81 391.169   1
   1  -7   3 4923.90 306.278  11
   1  -7   3 4908.73 362.140  13
  -1   7  -4 1837.61 228.046  14
   1  -7   4 2049.54 223.999  19
  -1   7  -4 2065.24 231.019  16
   1  -7   4 2210.81 250.536   3
  -1   7  -4 2010.71 259.757   1
  -1   7  -4 1723.57 219.020  17
   1  -7   4 2070.43 241.652  13
   1  -7   4 1764.19 207.038  20
   1  -7   5 172.770 78.9483  13
   1  -7   5 295.004 103.143  20
  -1   7  -5 213.166 95.0555  17
   1  -7   5 190.768 92.6683   3
   1  -7   5 281.905 109.200  19
  -1   7  -5 254.316 100.907  14
  -1   7  -5 263.425 96.8600  16
  -1   7  -5 395.757 134.614   1
   1  -7   6 1652.71 223.318  19
   1  -7   6 1593.52 216.485  13
  -1   7  -6 1877.61 233.439  14
   1  -7   6 1671.36 214.850   4
   1  -7   6 1600.19 217.424   3
  -1   7  -6 1503.18 218.248   1
  -1   7  -6 1382.10 205.543  16
   1  -7   6 1480.89 213.309  20
  -1   7  -7 591.323 160.364  16
  -1   7  -7 296.596 105.407   1
  -1   7  -7 408.941 116.340  14
   1  -7   7 665.789 146.368   4
   1  -7   7 396.446 118.533  19
   1  -7   7 443.350 128.938  20
   1  -7   8 1227.36 214.854  19
   1  -7   8 1403.61 230.710  20
   1  -7   8 1205.55 220.605   4
  -1   7  -8 1291.27 225.548  16
   1  -7   9 946.699 196.606   4
  -1   6  11 1975.87 255.132  16
  -1   6  11 2278.01 271.376  17
  -1   6  11 2208.27 267.878  21
   1  -6 -11 2461.49 312.239   3
   1  -6 -10 2521.27 306.831   3
  -1   6  10 2129.09 249.923  17
  -1   6  10 1880.60 236.360  16
  -1   6  10 1953.42 239.842  21
   1  -6 -10 1739.71 263.832   2
  -1   6  10 2078.15 284.775  18
  -1   6  10 1957.46 281.406   8
  -1   6  10 1733.30 234.543  19
  -1   6  10 1802.92 241.726  20
   1  -6  -9 1841.05 257.425   3
  -1   6   9 1547.90 205.583  17
  -1   6   9 1894.25 275.897   8
  -1   6   9 1470.63 205.116  20
  -1   6   9 1636.90 254.871  18
  -1   6   9 1787.14 217.158   1
  -1   6   9 1756.80 222.085  19
   1  -6  -9 1641.25 254.979   2
  -1   6   9 1493.41 205.065  21
  -1   6   9 1783.34 216.224  16
  -1   6   8 809.105 144.064  16
  -1   6   8 617.542 127.728  19
  -1   6   8 561.204 118.311  17
  -1   6   8 834.462 145.863  21
  -1   6   8 709.015 171.749   8
  -1   6   8 840.856 194.126  18
   1  -6  -8 767.710 181.095   2
  -1   6   8 812.626 152.053  20
   1  -6  -8 988.661 187.999   3
  -1   6   8 709.772 146.071   1
  -1   6   7 934.009 188.374  18
   1  -6  -7 874.666 166.797   3
  -1   6   7 871.278 144.592  19
  -1   6   7 768.947 164.168   1
  -1   6   7 1000.58 197.463   8
  -1   6   7 715.635 128.728  21
   1  -6  -7 545.773 143.993   2
  -1   6   7 956.268 148.087  17
  -1   6   7 796.159 130.685  16
  -1   6   6 4201.50 367.615  18
  -1   6   6 4159.85 352.801   8
  -1   6   6 4025.10 290.902  17
   1  -6  -6 4691.45 376.148   3
  -1   6   6 4316.43 294.660  16
   1  -6  -6 4680.22 379.156   2
  -1   6   6 3877.30 290.593  19
  -1   6   6 3690.49 281.315  21
  -1   6   6 4191.05 338.892   1
  -1   6   5 816.733 157.698  18
  -1   6   5 630.082 143.109   1
  -1   6   5 779.372 128.797  17
  -1   6   5 722.399 123.277  16
   1  -6  -5 693.260 157.852   2
   1  -6  -5 1004.33 179.911   3
  -1   6   5 558.875 100.780  21
  -1   6   5 751.626 127.200  19
  -1   6   5 1057.62 173.345   8
  -1   6   4 4293.24 277.262  16
   1  -6  -4 4220.89 346.468   2
  -1   6   4 4366.49 284.475  21
  -1   6   4 4428.04 334.949   8
  -1   6   4 4232.62 279.562  17
   1  -6  -4 4323.79 349.515   3
  -1   6   4 4624.98 351.722  18
  -1   6   4 4575.61 352.833   1
  -1   6   4 4476.48 286.922  19
  -1   6   3 255.986 89.9364   8
   1  -6  -3 278.491 102.005   3
  -1   6   3 372.204 86.1508  17
  -1   6   3 343.897 110.005  18
  -1   6   3 366.776 93.7441  21
  -1   6   3 383.616 93.9178  16
  -1   6   3 400.960 122.235   1
   1  -6  -2 93.5399 92.3474   3
  -1   6   2 141.319 59.6590  21
  -1   6   2 46.8727 49.7923  16
   1  -6  -2 89.9226 53.5681  20
  -1   6   2 79.2110 61.5789  17
  -1   6   2 137.728 93.9037  18
  -1   6   2 105.315 68.2183   8
  -1   6   2 179.009 101.048   1
  -1   6   1 653.141 96.0105  10
  -1   6   1 717.431 111.658  21
   1  -6  -1 667.469 138.166   3
  -1   6   1 505.291 114.370  18
   1  -6  -1 664.237 106.706  20
  -1   6   1 470.408 89.3249  16
  -1   6   1 569.225 105.483  17
  -1   6   1 675.580 139.852   1
  -1   6   0 116.672 58.1402  16
  -1   6   0 368.033 122.093   1
  -1   6   0 147.951 63.0946  17
  -1   6   0 150.360 51.4444  10
   1  -6   0 313.654 112.040   3
   1  -6   0 200.603 36.7216   4
   1  -6   0 158.613 59.5259  20
  -1   6   0 81.4964 61.1378  18
  -1   6  -1 655.508 115.319  16
  -1   6  -1 657.460 142.659   1
  -1   6  -1 721.677 95.6273  10
  -1   6  -1 674.423 104.797  18
  -1   6  -1 615.468 109.722  17
   1  -6   1 604.339 137.352   3
   1  -6   1 664.510 108.484  20
   1  -6   1 621.263 107.448  19
   1  -6   1 548.124 117.985  13
   1  -6   1 637.735 79.1535   4
   1  -6   2 488.914 98.9728  20
  -1   6  -2 370.258 94.5183  17
   1  -6   2 463.129 114.153  13
  -1   6  -2 368.932 75.0436  18
  -1   6  -2 572.337 92.7327  10
   1  -6   2 435.985 97.3159  19
   1  -6   2 368.071 76.7225   4
   1  -6   2 436.620 110.596   3
  -1   6  -2 546.588 130.217   1
  -1   6  -2 343.989 89.7384  16
   1  -6   3 4963.75 335.165  13
  -1   6  -3 4875.44 276.329  10
  -1   6  -3 4552.32 353.727   1
   1  -6   3 5221.24 323.425  20
   1  -6   3 4907.99 314.128  19
   1  -6   3 4294.43 323.021   3
  -1   6  -3 5031.66 327.544  16
  -1   6  -3 4870.93 328.706  17
  -1   6  -3 4564.70 328.404  14
   1  -6   3 4891.46 289.837   4
  -1   6  -4 798.476 159.537   1
   1  -6   4 1262.64 169.699  13
  -1   6  -4 966.648 155.757  16
   1  -6   4 798.922 111.579  11
  -1   6  -4 790.928 119.571  10
   1  -6   4 879.703 156.684   3
   1  -6   4 941.366 152.897  20
   1  -6   4 959.270 144.092   5
   1  -6   4 1052.39 144.495   4
  -1   6  -4 815.039 144.031  14
   1  -6   4 848.555 147.026  19
  -1   6  -5 20.3395 77.4630   1
   1  -6   5 15.5321 64.1357   5
   1  -6   5 107.679 60.3410  20
  -1   6  -5 11.4483 50.5759  10
   1  -6   5 0.17478 70.7375  13
  -1   6  -5 28.1739 62.7396  14
   1  -6   5-85.7516 95.0159   3
   1  -6   5-51.1263 74.4307   4
   1  -6   5 16.8449 68.2951  19
   1  -6   5 13.6382 53.0055  11
  -1   6  -5 81.4386 74.0802  16
   1  -6   6 1379.62 194.339  19
   1  -6   6 1202.27 181.879  20
   1  -6   6 1216.03 181.668   4
  -1   6  -6 985.506 174.421  16
   1  -6   6 969.601 163.700   3
  -1   6  -6 1148.70 152.659  10
  -1   6  -6 953.761 159.412  14
   1  -6   6 1110.82 176.779   5
   1  -6   6 1062.20 167.629  13
  -1   6  -6 1289.10 184.391   1
   1  -6   7 568.881 137.896  20
   1  -6   7 468.782 133.579   4
  -1   6  -7 539.646 139.919  16
   1  -6   7 483.439 139.183   5
   1  -6   7 277.134 112.300  13
  -1   6  -7 629.931 139.084   1
  -1   6  -7 543.424 122.760  14
   1  -6   7 366.211 113.746  19
   1  -6   7 613.435 135.442  21
  -1   6  -7 484.963 112.900  10
   1  -6   8 382.681 115.804  21
   1  -6   8 112.853 87.7622  19
  -1   6  -8 198.595 98.8863  14
   1  -6   8 196.811 114.679   4
  -1   6  -8 382.576 103.132  10
   1  -6   8 264.127 97.0803  20
   1  -6   8 410.351 146.517   5
  -1   6  -8 162.303 81.1177  16
   1  -6   9 1764.73 256.095  20
   1  -6   9 1401.27 233.215  19
   1  -6   9 1728.24 256.029   4
  -1   6  -9 1450.43 237.325  16
   1  -6   9 1684.08 245.485  21
  -1   5  12 19.9918 80.7699  20
   1  -5 -12 104.225 96.1341   7
  -1   5  12 75.6072 90.8349  16
  -1   5  12-123.010 113.563  17
  -1   5  12-25.3420 79.8142  21
  -1   5  12-47.5244 90.1646  19
   1  -5 -12 42.6266 90.8271   3
  -1   5  11 1476.12 253.918   8
  -1   5  11 1611.05 233.536  17
  -1   5  11 1733.91 234.847  16
  -1   5  11 1599.72 234.271  20
  -1   5  11 1225.23 236.662  18
   1  -5 -11 1686.52 253.166   3
  -1   5  11 1446.25 217.399  21
  -1   5  11 1646.98 237.392  19
   1  -5 -11 1744.73 247.615   2
   1  -5 -10-90.9101 102.264   3
  -1   5  10-27.8667 78.9681  19
  -1   5  10 73.4271 100.443   8
  -1   5  10-19.9160 65.7661  16
  -1   5  10 1.91826 66.4441  21
   1  -5 -10-46.0459 94.8280   2
  -1   5  10 158.792 107.835  18
  -1   5  10-23.4337 63.2732  20
  -1   5  10 28.7830 72.8572  17
   1  -5  -9 5706.81 418.126   2
  -1   5   9 5011.03 375.420  20
  -1   5   9 5569.18 437.835   8
  -1   5   9 5176.04 430.116  18
  -1   5   9 5496.53 380.361  16
   1  -5  -9 6321.01 442.896   3
  -1   5   9 5303.54 379.765  19
  -1   5   9 6028.47 370.238   1
  -1   5   9 5151.38 372.262  21
  -1   5   9 5184.88 373.401  17
  -1   5   8 351.965 109.686  19
  -1   5   8 307.009 106.632  16
  -1   5   8 187.857 80.3425  21
  -1   5   8 275.370 94.9638  17
  -1   5   8 46.9266 83.2985   8
   1  -5  -8 191.695 99.9969   2
   1  -5  -8 300.425 119.131   3
  -1   5   8 246.696 117.389  18
  -1   5   8 252.273 94.0516  20
  -1   5   8 289.878 87.6707   1
   1  -5  -7 2173.50 247.035   2
  -1   5   7 2613.36 279.854  18
  -1   5   7 2185.51 216.406  21
  -1   5   7 2023.12 208.661  16
  -1   5   7 2338.48 256.056   8
  -1   5   7 2302.09 220.831  19
  -1   5   7 2591.35 234.689  17
  -1   5   7 2060.71 215.872   1
   1  -5  -7 2403.42 253.808   3
  -1   5   6 160.204 72.5911  17
  -1   5   6 204.197 76.1490  16
  -1   5   6 255.830 76.1660  21
  -1   5   6 255.935 108.051  18
   1  -5  -6 431.598 122.137   3
  -1   5   6 287.301 79.9353  19
  -1   5   6 255.389 99.0408   1
  -1   5   6 318.429 112.508   8
   1  -5  -6 258.535 99.1716   2
  -1   5   5 385.766 113.457  18
  -1   5   5 461.159 98.2233  21
  -1   5   5 290.454 92.2168   1
  -1   5   5 324.856 103.774   8
  -1   5   5 383.344 90.2119  19
   1  -5  -5 309.417 101.901   3
  -1   5   5 368.096 90.7491  16
   1  -5  -5 352.705 113.114   2
  -1   5   5 427.479 94.7443  17
  -1   5   4 1312.47 175.192  18
   1  -5  -4 1847.57 211.119   2
   1  -5  -4 1664.60 198.183   3
  -1   5   4 1605.51 158.726  17
  -1   5   4 1557.06 188.803   1
   1  -5  -4 1434.38 107.385   6
  -1   5   4 1609.25 163.302  21
  -1   5   4 1430.61 152.017  16
  -1   5   4 1635.57 191.046   8
  -1   5   4 1582.31 162.453  19
  -1   5   3 10153.5 496.302   1
   1  -5  -3 10618.5 513.184   2
  -1   5   3 10288.0 492.213  18
  -1   5   3 10142.6 420.829  16
   1  -5  -3 10384.5 503.986   3
  -1   5   3 10188.9 425.555  21
   1  -5  -3 9797.32 347.260   6
  -1   5   3 10486.7 483.110   8
  -1   5   3 9981.95 422.300  17
   1  -5  -2 35.7650 40.8177  20
  -1   5   2 99.8810 64.1977  18
   1  -5  -2 92.1697 87.3494   3
  -1   5   2 42.4600 42.5985  10
  -1   5   2 93.1383 53.3717  17
   1  -5  -2 39.8146 77.5418   2
  -1   5   2 82.7144 65.6959   8
  -1   5   2 31.5221 42.9182  21
  -1   5   2 48.6649 69.6597   1
  -1   5   2 47.2617 51.1375  16
   1  -5  -2 36.5201 33.0612  10
   1  -5  -2 48.3889 31.4971   6
  -1   5   1 1061.91 139.998  18
   1  -5  -1 1151.98 112.417  10
  -1   5   1 1148.49 145.884   8
  -1   5   1 1002.78 123.936  17
  -1   5   1 1270.59 117.318  10
   1  -5  -1 1164.72 162.926   3
  -1   5   1 1274.21 138.218  21
  -1   5   1 1241.58 77.5360   5
  -1   5   1 1210.04 131.902  16
   1  -5  -1 1339.77 134.537  20
  -1   5   1 979.934 154.293   1
   1  -5  -1 1097.57 114.937   6
  -1   5   0 343.767 56.3206   5
  -1   5   0 335.991 77.9896  16
   1  -5   0 296.301 88.9488   3
   1  -5   0 262.420 66.8608  20
  -1   5   0 467.153 90.4866  18
  -1   5   0 273.641 74.8404  17
  -1   5   0 321.726 60.5526  10
   1  -5   0 320.360 42.8635   4
  -1   5   0 253.472 89.0312   1
   1  -5   0 282.151 61.3408  10
  -1   5  -1 1305.03 130.201  18
   1  -5   1 1299.87 165.430   3
  -1   5  -1 1238.66 117.374  10
   1  -5   1 1334.89 121.965  10
  -1   5  -1 889.540 99.5418   5
  -1   5  -1 1070.57 131.704  17
  -1   5  -1 1103.18 131.286  16
   1  -5   1 1092.97 101.150   4
   1  -5   1 1385.21 141.642  19
  -1   5  -1 1009.03 152.385   1
   1  -5   1 1097.02 130.306  20
   1  -5   2 4087.13 228.837   4
   1  -5   2 3743.41 262.433  13
  -1   5  -2 4219.03 270.795  16
   1  -5   2 4607.91 274.925  20
   1  -5   2 4233.16 265.629  19
  -1   5  -2 4138.31 221.740  18
  -1   5  -2 3982.51 298.208   1
  -1   5  -2 4612.06 289.927  14
  -1   5  -2 3972.45 224.449  10
  -1   5  -2 3855.88 262.370  17
   1  -5   2 4049.76 288.489   3
   1  -5   3 919.831 140.245   3
   1  -5   3 906.062 135.959  13
  -1   5  -3 844.497 130.605  16
   1  -5   3 869.494 123.166  20
  -1   5  -3 949.148 136.799  14
  -1   5  -3 1027.04 91.3926  18
  -1   5  -3 792.156 140.077   1
   1  -5   3 901.495 124.277   5
  -1   5  -3 1021.79 117.781  10
   1  -5   3 626.304 106.271  19
   1  -5   4 2317.21 207.201   5
  -1   5  -4 2353.93 112.836  18
   1  -5   4 2219.63 216.001   3
  -1   5  -4 2407.48 223.165  16
   1  -5   4 2356.74 216.126  20
   1  -5   4 2463.04 187.014  11
  -1   5  -4 2152.94 205.231  14
   1  -5   4 2568.17 222.146  19
  -1   5  -4 2646.96 201.492  10
  -1   5  -4 2472.67 233.067   1
   1  -5   4 2148.18 202.867  13
   1  -5   5 305.578 94.8723   5
  -1   5  -5 406.985 102.436  14
   1  -5   5 319.324 99.3602  20
   1  -5   5 438.481 105.026  21
   1  -5   5 305.687 90.7935   3
   1  -5   5 560.787 96.4443  11
  -1   5  -5 367.723 95.6834  16
   1  -5   5 397.157 107.144  19
  -1   5  -5 317.518 95.8408   1
   1  -5   5 191.986 75.6858  13
  -1   5  -5 303.174 77.9321  10
   1  -5   6 3797.23 239.264  11
   1  -5   6 3926.36 305.843  19
  -1   5  -6 3461.50 278.630   1
  -1   5  -6 3386.42 296.924  16
   1  -5   6 3499.26 278.515  13
   1  -5   6 3837.70 303.074  21
   1  -5   6 3929.01 308.840   5
   1  -5   6 3461.58 292.755  20
  -1   5  -6 3347.02 266.056  14
   1  -5   6 3466.76 276.009   3
  -1   5  -6 3346.64 258.983  10
  -1   5  -7 619.273 128.360   1
   1  -5   7 483.228 126.541  20
  -1   5  -7 543.448 122.181  14
  -1   5  -7 471.021 119.908  16
   1  -5   7 513.006 112.066  13
  -1   5  -7 493.571 109.210  10
   1  -5   7 511.889 127.090  21
   1  -5   7 623.614 144.279   5
   1  -5   7 651.414 139.987  19
   1  -5   7 587.365 99.5606  11
  -1   5  -7 334.141 79.3787   9
   1  -5   8 382.714 122.658   5
  -1   5  -8 272.402 104.403  16
  -1   5  -8 284.913 93.8547  10
   1  -5   8 363.798 118.685  20
  -1   5  -8 250.214 104.102   7
  -1   5  -8 361.795 99.0124  14
   1  -5   8 385.124 124.218  19
   1  -5   8 196.244 89.4775  21
   1  -5   9 57.7014 68.4569   5
  -1   5  -9-96.7262 92.8438  10
  -1   5  -9 25.2845 64.2640   7
   1  -5   9-74.8193 105.175  21
   1  -5   9 48.7627 82.8392  20
   1  -5   9 103.447 102.447  19
  -1   5  -9-29.5601 67.3928  14
  -1   5  -9-34.5126 98.1110  16
   1  -5  10 280.701 119.466  19
   1  -5  10 369.063 129.607   5
   1  -5  10 607.388 156.617  20
   1  -5  10 498.816 152.999   4
   1  -5  10 427.273 135.487  21
  -1   5 -10 59.7602 68.1200   7
  -1   5 -10 210.965 103.282  10
  -1   5 -10 371.711 106.558  16
  -1   5 -11 52.8746 63.6608  10
  -1   4  13 53.5076 93.3125  19
  -1   4  13 284.499 108.717  17
  -1   4  13 34.5481 132.761  20
   1  -4 -13 58.0161 77.0137   3
  -1   4  13 122.991 82.6915  21
  -1   4  12 441.924 134.819  20
   1  -4 -12 270.370 125.360   7
   1  -4 -12 178.728 103.745   3
  -1   4  12 418.528 149.104   8
  -1   4  12 360.525 124.660  21
  -1   4  12 581.302 148.120  17
  -1   4  12 524.753 163.932  18
  -1   4  12 393.638 117.679  19
   1  -4 -11 1223.57 201.470   7
  -1   4  11 869.997 185.643  18
   1  -4 -11 711.928 154.799   2
  -1   4  11 1121.80 193.763  16
  -1   4  11 799.563 172.205  20
  -1   4  11 870.351 172.965  17
  -1   4  11 662.777 147.548  19
   1  -4 -11 1149.61 197.680   3
  -1   4  11 834.928 182.181   8
  -1   4  11 654.296 152.528  21
  -1   4  10 6798.71 443.734  21
  -1   4  10 6824.95 449.010  19
  -1   4  10 7418.28 505.829   8
  -1   4  10 6790.83 444.915  16
  -1   4  10 6602.69 473.068  18
  -1   4  10 6490.80 434.437  17
  -1   4  10 7096.54 463.584  20
   1  -4 -10 6956.84 456.781   3
   1  -4 -10 7236.33 451.458   2
  -1   4   9 4160.27 327.520  19
  -1   4   9 3998.41 264.562   1
  -1   4   9 4290.66 325.948  21
  -1   4   9 3754.46 316.028  20
  -1   4   9 3793.11 339.834   8
   1  -4  -9 4071.30 333.639   3
  -1   4   9 3742.21 246.892   4
  -1   4   9 3832.92 347.236  18
   1  -4  -9 3619.14 304.334   2
  -1   4   9 3946.86 312.832  17
  -1   4   9 3364.15 293.794  16
  -1   4   8 9100.17 470.153  21
  -1   4   8 8921.33 475.827  20
  -1   4   8 9221.22 520.382   8
   1  -4  -8 8919.18 489.805   3
  -1   4   8 9296.53 530.643  18
  -1   4   8 9297.97 376.700   4
   1  -4  -8 9456.46 497.546   2
  -1   4   8 9138.05 425.681   1
  -1   4   8 9271.14 479.692  19
  -1   4   8 8844.14 462.457  16
  -1   4   8 8467.05 458.948  17
  -1   4   7 633.587 114.627   1
   1  -4  -7 724.053 131.183   3
   1  -4  -7 865.523 153.496   2
  -1   4   7 599.653 133.348  18
  -1   4   7 882.621 82.4973   6
  -1   4   7 740.378 128.488  21
  -1   4   7 696.559 85.8574   4
  -1   4   7 671.337 144.964   8
  -1   4   7 792.447 126.364  17
  -1   4   7 785.825 138.438  19
  -1   4   7 757.760 125.413  16
  -1   4   6 1884.95 112.238   6
  -1   4   6 1648.95 177.361  19
  -1   4   6 1815.36 202.816   8
   1  -4  -6 1569.94 190.708   2
   1  -4  -6 1680.18 193.934   3
  -1   4   6 1568.38 190.996  18
  -1   4   6 1639.89 172.253  16
  -1   4   6 1680.08 175.416  21
  -1   4   6 1907.52 117.591   4
  -1   4   6 1722.22 176.623   1
  -1   4   6 1984.48 190.521  17
   1  -4  -6 1780.91 103.754  12
  -1   4   5 9992.49 430.161  16
  -1   4   5 10978.4 498.038   8
   1  -4  -5 10421.0 487.094   3
  -1   4   5 10603.2 279.615   4
  -1   4   5 10925.8 449.328  21
  -1   4   5 10316.3 446.753  19
  -1   4   5 10193.4 276.343   4
   1  -4  -5 10352.5 487.716   2
  -1   4   5 10761.9 469.239   1
  -1   4   5 10076.4 432.613  17
  -1   4   5 10726.8 509.461  18
   1  -4  -4 9237.23 291.345   6
  -1   4   4 9815.36 403.544  16
   1  -4  -4 9893.38 462.863   2
  -1   4   4 8839.93 391.374  21
  -1   4   4 10229.6 458.516   8
  -1   4   4 9884.31 470.881  18
  -1   4   4 9974.00 408.487  17
  -1   4   4 9736.40 410.292  19
  -1   4   4 9271.15 431.463   1
   1  -4  -4 9829.23 456.977   3
  -1   4   3 4248.38 244.566  21
   1  -4  -3 4327.51 284.237   3
  -1   4   3 3703.79 265.436   1
   1  -4  -3 4725.41 300.914   2
  -1   4   3 4881.90 285.914   8
  -1   4   3 4349.17 245.189  17
   1  -4  -3 4593.94 242.105  10
  -1   4   3 4147.31 239.404  16
   1  -4  -3 4483.63 184.064   6
  -1   4   3 4009.18 277.642  18
  -1   4   2 948.440 111.628  21
  -1   4   2 793.135 126.712   1
   1  -4  -2 926.145 107.562  17
  -1   4   2 824.907 92.5175  10
   1  -4  -2 745.683 98.1595  20
  -1   4   2 705.215 98.1559  16
  -1   4   2 895.921 108.661  17
   1  -4  -2 837.515 92.3514  10
  -1   4   2 872.108 123.358  18
   1  -4  -2 740.982 127.304   2
  -1   4   2 605.934 102.805   8
   1  -4  -2 812.279 78.4566   6
   1  -4  -2 767.124 118.139   3
   1  -4  -2 833.149 104.182  16
  -1   4   1 1283.83 122.105  20
   1  -4  -1 1144.79 120.865  16
  -1   4   1 1391.46 142.971  18
  -1   4   1 1376.19 130.197  17
  -1   4   1 1252.38 111.978  10
  -1   4   1 1306.91 75.1398   5
  -1   4   1 1476.24 130.151  19
   1  -4  -1 1260.67 108.235   6
  -1   4   1 1384.66 160.194   1
   1  -4  -1 1213.09 148.886   3
   1  -4  -1 1427.70 117.827  10
  -1   4   1 1406.66 133.121  21
  -1   4   1 1422.48 131.355  16
   1  -4  -1 1484.88 128.828  20
  -1   4   1 1342.91 139.871   8
   1  -4   0 21398.5 714.670   3
  -1   4   0 22928.2 675.599  18
  -1   4   0 22637.5 579.014   5
  -1   4   0 22455.5 620.224  10
   1  -4   0 22552.9 622.612  10
   1  -4   0 21941.8 542.960   4
  -1   4   0 20690.0 724.783   1
  -1   4   0 21832.4 662.792  17
  -1   4   0 21476.4 656.193  16
   1  -4   0 22451.8 651.859  20
   1  -4   1 17917.7 576.807  20
  -1   4  -1 18144.7 539.291  10
  -1   4  -1 19138.3 544.697   5
   1  -4   1 18794.8 549.482  10
  -1   4  -1 17716.2 641.594   1
  -1   4  -1 18254.5 588.729  16
  -1   4  -1 18599.2 560.261  18
   1  -4   1 18746.2 585.076  19
  -1   4  -1 17464.8 586.405  17
   1  -4   1 17483.7 622.720   3
   1  -4   1 18121.7 512.927   4
  -1   4  -2 2500.47 193.206  17
   1  -4   2 2562.97 189.542  19
   1  -4   2 2594.62 195.024  13
  -1   4  -2 2754.56 159.861  18
  -1   4  -2 2826.31 186.218   5
   1  -4   2 2807.90 212.748   3
  -1   4  -2 2643.20 170.642  10
  -1   4  -2 2714.15 218.091   1
   1  -4   2 2881.26 184.870   5
   1  -4   2 2841.98 177.907  10
  -1   4  -2 2888.93 206.684  16
  -1   4  -2 3217.63 213.284  14
   1  -4   2 3055.43 201.781  20
   1  -4   3 1918.82 150.938  11
   1  -4   3 1840.32 165.518  19
  -1   4  -3 2036.59 191.860   1
   1  -4   3 2044.10 173.598   5
  -1   4  -3 2216.50 119.262  18
   1  -4   3 2135.07 176.105  13
   1  -4   3 2223.83 190.275   3
  -1   4  -3 1893.50 166.913  14
  -1   4  -3 1769.39 174.072  16
  -1   4  -3 1814.89 150.327  10
   1  -4   3 2249.08 187.392  20
   1  -4   4 553.609 104.766  21
   1  -4   4 555.194 98.3369  19
  -1   4  -4 700.665 97.7799   9
   1  -4   4 474.869 79.6594  11
  -1   4  -4 655.015 43.3096  18
   1  -4   4 642.032 103.065  13
  -1   4  -4 593.845 112.764  16
  -1   4  -4 584.381 102.826  14
   1  -4   4 560.742 109.803   3
  -1   4  -4 503.260 88.2033  10
  -1   4  -4 560.896 106.399   1
   1  -4   4 603.278 104.405  20
   1  -4   4 526.580 105.389   5
  -1   4  -5 11744.3 495.429   1
  -1   4  -5 12023.3 521.575   7
   1  -4   5 12058.9 526.110   5
   1  -4   5 12030.3 500.932   3
  -1   4  -5 12570.5 465.511   9
   1  -4   5 13125.4 541.132  19
  -1   4  -5 13120.8 504.504  14
   1  -4   5 12863.2 533.394  21
  -1   4  -5 12368.7 541.003  16
   1  -4   5 12274.9 449.590  11
  -1   4  -5 12079.2 487.527  10
   1  -4   5 11752.5 484.999  13
   1  -4   5 12374.6 528.068  20
  -1   4  -6 24485.0 799.922   1
  -1   4  -6 24801.2 880.672  16
   1  -4   6 25099.1 818.972   3
  -1   4  -6 23757.9 808.634  10
  -1   4  -6 26655.3 774.476   9
  -1   4  -6 23525.5 717.658   2
   1  -4   6 26273.9 877.097  21
  -1   4  -6 26074.3 855.344   7
   1  -4   6 26762.3 893.371   5
   1  -4   6 25304.4 868.270  19
   1  -4   6 26679.4 888.089  20
  -1   4  -6 25217.0 811.073  14
   1  -4   6 25021.1 750.103  11
   1  -4   6 24905.3 809.207  13
  -1   4  -7 68355.1 1755.72   7
  -1   4  -7 68022.5 1827.27  16
   1  -4   7 66839.2 1815.63   5
   1  -4   7 66381.8 1794.38  19
   1  -4   7 65214.6 1618.57  11
  -1   4  -7 64277.7 1724.65  10
   1  -4   7 64326.2 1781.51  21
  -1   4  -7 64904.0 1661.90   1
   1  -4   7 68371.9 1812.19  20
  -1   4  -7 67726.8 1639.85   9
  -1   4  -7 64992.7 1696.12  14
   1  -4   8 470.847 123.917  20
  -1   4  -8 380.223 115.075  16
   1  -4   8 439.420 92.0322  11
   1  -4   8 116.312 81.7195   5
  -1   4  -8 423.492 104.756  14
   1  -4   8 139.387 80.4465  19
  -1   4  -8 352.558 85.0322   9
  -1   4  -8 293.538 100.766   7
  -1   4  -8 497.567 122.213  10
  -1   4  -8 355.026 84.6819   1
   1  -4   8 479.226 123.988  21
   1  -4   9 538.827 135.312  21
  -1   4  -9 326.130 104.259  16
   1  -4   9 729.865 156.672  20
  -1   4  -9 489.542 113.150  14
  -1   4  -9 507.581 112.296   7
  -1   4  -9 394.246 110.754  10
   1  -4   9 477.106 147.475   5
   1  -4   9 439.007 131.146  19
  -1   4 -10 1887.67 261.117  16
  -1   4 -10 1719.19 209.534  14
   1  -4  10 2166.52 266.185  19
   1  -4  10 2090.26 270.288  20
  -1   4 -10 1798.93 222.713   7
   1  -4  10 1724.64 253.984   5
   1  -4  10 1749.27 247.722  21
  -1   4 -10 2088.98 251.639  10
  -1   4 -11 1292.50 216.102  10
   1  -4  11 1461.89 242.735  19
   1  -4  11 1623.94 256.539   5
   1  -4  11 1497.26 236.196  21
  -1   4 -11 1638.85 263.504  16
   1  -4  11 1430.46 239.349  20
  -1   4 -12 4357.37 411.385  10
  -1   3  14 3274.77 360.042  18
  -1   3  13 1908.46 269.208  18
  -1   3  13 1939.67 273.448  17
  -1   3  13 2059.62 290.378  20
  -1   3  13 1698.09 266.123  21
  -1   3  13 2166.60 297.007  19
  -1   3  12 3507.38 351.384  19
   1  -3 -12 2603.13 283.036   3
   1  -3 -12 2144.80 256.507   7
  -1   3  12 2473.90 292.587  17
  -1   3  12 2643.07 312.219  20
  -1   3  12 2252.32 280.979  21
  -1   3  12 2735.48 278.009   4
  -1   3  12 2938.21 336.930   8
  -1   3  12 2527.99 294.211  18
  -1   3  11 1036.63 191.091  20
  -1   3  11 992.627 186.478  16
  -1   3  11 829.744 173.030  17
  -1   3  11 785.621 164.706  18
  -1   3  11 982.300 184.478  19
   1  -3 -11 877.882 149.453   2
  -1   3  11 1066.89 200.613   8
   1  -3 -11 879.372 164.951   7
   1  -3 -11 985.315 173.079   3
  -1   3  11 810.916 164.630  21
   1  -3 -10 3229.22 288.068   3
  -1   3  10 3539.03 316.858  21
   1  -3 -10 3145.39 292.844   7
   1  -3 -10 3513.04 281.078   2
  -1   3  10 3295.72 243.935   5
  -1   3  10 3416.99 306.534  16
  -1   3  10 3295.42 305.922  19
  -1   3  10 3254.70 312.983  18
  -1   3  10 3379.20 307.298  17
  -1   3  10 3677.60 338.740   8
  -1   3  10 3410.59 313.716  20
   1  -3  -9 143.350 78.4700   2
  -1   3   9 270.103 93.3483  21
  -1   3   9 414.053 125.589  20
  -1   3   9 450.971 124.437  19
  -1   3   9 412.521 82.7295   6
   1  -3  -9 250.287 88.4443   3
  -1   3   9 257.307 104.157  16
  -1   3   9 417.532 126.759  18
  -1   3   9 583.872 149.940   8
  -1   3   9 390.990 101.210  17
  -1   3   9 305.853 75.1868   5
  -1   3   9 270.987 67.8329   1
  -1   3   8 31738.6 1031.72  16
  -1   3   8 33870.6 876.709   6
  -1   3   8 33749.1 900.294   5
  -1   3   8 33209.4 1091.86   8
   1  -3  -8 32752.1 1037.46   3
  -1   3   8 33042.1 912.422   1
  -1   3   8 32901.2 1060.65  20
  -1   3   8 32504.9 1041.69  17
   1  -3  -8 34207.4 1031.58   2
  -1   3   8 33622.4 1060.49  19
  -1   3   8 32062.4 1038.12  21
  -1   3   8 31642.1 1082.01  18
  -1   3   7 2522.14 242.777   8
  -1   3   7 2605.19 225.060  16
   1  -3  -7 2405.84 218.018   3
  -1   3   7 2599.07 224.502  17
  -1   3   7 2731.12 156.439   6
  -1   3   7 2401.97 220.919  19
  -1   3   7 2426.42 219.150  21
  -1   3   7 2399.97 224.525  20
  -1   3   7 2339.76 239.305  18
  -1   3   7 2406.07 182.192   1
   1  -3  -7 2516.38 220.596   2
  -1   3   7 2549.92 160.574   5
   1  -3  -7 2256.82 149.918   5
   1  -3  -6 40.4390 54.4674   3
   1  -3  -6 65.6204 58.0348   2
  -1   3   6 134.369 54.0977   1
  -1   3   6 46.2638 28.0736   5
  -1   3   6 85.5366 61.6292  19
  -1   3   6 61.6041 50.0639  16
  -1   3   6 258.624 81.8786  17
  -1   3   6-8.76282 58.2094   8
  -1   3   6 87.6511 61.0167  21
  -1   3   6 79.6892 30.4810   6
  -1   3   6 86.2264 69.0575  18
   1  -3  -6 57.6496 28.4027   5
  -1   3   5 1895.05 103.821   6
  -1   3   5 2153.83 194.186   8
  -1   3   5 1794.84 171.159  19
   1  -3  -5 1817.70 176.115   2
  -1   3   5 2100.40 178.976  21
  -1   3   5 2077.79 173.565  17
  -1   3   5 1849.18 100.326   5
  -1   3   5 1830.72 192.570  18
  -1   3   5 1885.75 163.895   1
  -1   3   5 1967.57 167.525  16
   1  -3  -5 2340.99 198.902   3
  -1   3   4 1935.79 161.684  21
   1  -3  -4 1586.93 160.598   2
  -1   3   4 1977.91 179.089   8
  -1   3   4 2002.00 165.725  19
  -1   3   4 2075.57 80.7612   5
   1  -3  -4 1950.64 176.001   3
  -1   3   4 2108.47 173.617   1
  -1   3   4 2037.28 187.077  18
  -1   3   4 1959.64 162.838  17
  -1   3   4 2174.94 100.956   6
  -1   3   4 1838.80 157.986  16
   1  -3  -3 447.414 76.2040  21
  -1   3   3 339.916 85.8998  18
  -1   3   3 327.703 68.4770  17
   1  -3  -3 432.368 89.2188   3
  -1   3   3 302.143 74.7951   8
  -1   3   3 214.256 58.2395  21
   1  -3  -3 375.023 41.3269   6
  -1   3   3 404.692 70.5759  20
   1  -3  -3 408.831 67.7711  16
   1  -3  -3 475.596 77.7244  10
  -1   3   3 361.820 74.5746  16
   1  -3  -3 470.182 79.2529  17
  -1   3   3 240.834 73.0895   1
   1  -3  -3 445.563 92.8437   2
  -1   3   2 318.519 60.4741  20
   1  -3  -2 267.932 77.4006   3
  -1   3   2 177.214 48.3761  10
  -1   3   2 328.532 87.3192   1
   1  -3  -2 149.302 57.0347   8
   1  -3  -2 255.242 70.3901   2
   1  -3  -2 258.027 57.5637  10
  -1   3   2 229.909 60.1121  21
  -1   3   2 101.464 57.7021  18
  -1   3   2 269.803 61.7303  16
  -1   3   2 231.812 52.7758  19
   1  -3  -2 348.581 66.4459  17
   1  -3  -2 247.663 55.5657  16
  -1   3   2 145.835 60.5118   8
   1  -3  -2 259.283 37.8329   6
  -1   3   2 203.993 56.5987  17
  -1   3   1 174.618 58.2698  17
   1  -3  -1 251.034 50.6099  10
   1  -3  -1 256.580 60.5251  17
  -1   3   1 222.546 62.1505  16
   1  -3  -1 236.498 67.9205  14
  -1   3   1 261.734 57.6972  19
  -1   3   1 191.845 64.6135  18
   1  -3  -1 179.192 71.7044   3
  -1   3   1 247.040 58.5843  10
   1  -3  -1 250.929 54.6386  16
   1  -3  -1 215.170 58.3780  20
   1  -3  -1 143.824 49.2015   8
  -1   3   1 321.332 87.3440   1
  -1   3   1 204.828 59.2837   8
   1  -3  -1 107.929 75.0309   2
   1  -3  -1 200.139 41.7686   6
  -1   3   1 240.395 53.1719  20
  -1   3   1 192.455 28.5523   5
  -1   3   1 254.583 57.5721  21
   1  -3   0 22779.3 555.221   4
  -1   3   0 23618.7 658.512  18
  -1   3   0 22425.3 648.360   8
  -1   3   0 22288.9 646.611  16
  -1   3   0 22866.8 646.758  20
  -1   3   0 24661.4 656.843  19
   1  -3   0 22861.5 638.943  20
   1  -3   0 23800.5 655.241   8
  -1   3   0 24874.3 710.958   2
   1  -3   0 23787.9 661.885  16
  -1   3   0 23798.6 624.844  10
   1  -3   0 25082.5 690.562  14
  -1   3   0 23918.8 584.190   5
   1  -3   0 23244.5 643.280  19
   1  -3   0 22825.3 694.511   3
   1  -3   0 24437.1 681.117   9
  -1   3   0 23356.9 714.069   1
  -1   3   0 23259.0 656.747  17
   1  -3   0 23457.7 622.769  10
   1  -3   1 3431.62 191.556   9
   1  -3   1 3209.27 157.423   4
   1  -3   1 3101.74 188.773  14
  -1   3  -1 3362.02 192.114  20
  -1   3  -1 3134.77 190.278  16
  -1   3  -1 3242.54 216.827   1
  -1   3  -1 3144.76 170.969  10
   1  -3   1 3493.81 185.789   8
   1  -3   1 3377.94 189.537  19
  -1   3  -1 3559.47 194.554  19
   1  -3   1 3149.34 169.897  10
  -1   3  -1 3644.30 180.592  18
  -1   3  -1 3278.02 195.156  17
  -1   3  -1 3477.02 202.301  14
  -1   3  -1 3503.78 210.061   2
   1  -3   1 3673.68 204.667  16
  -1   3  -1 3431.37 171.800   5
  -1   3  -1 3605.49 194.916  21
   1  -3   1 3107.53 207.812   3
   1  -3   1 3270.21 185.351  20
   1  -3   2 11521.5 403.053  14
  -1   3  -2 11458.3 415.909   2
  -1   3  -2 11229.4 412.057  20
  -1   3  -2 11068.2 434.899   1
   1  -3   2 11095.1 382.919   8
   1  -3   2 11605.3 388.844  10
   1  -3   2 11670.5 392.701   9
  -1   3  -2 10954.2 411.906  16
   1  -3   2 10897.4 390.766  13
  -1   3  -2 11651.4 413.757  19
  -1   3  -2 10969.3 397.545  14
  -1   3  -2 10958.7 377.778  10
  -1   3  -2 10643.7 334.766  18
   1  -3   2 11439.7 393.560   5
   1  -3   2 10972.2 421.339   3
   1  -3   2 10648.6 398.868  20
   1  -3   2 12364.9 429.657  15
   1  -3   2 11340.4 407.975  19
  -1   3  -2 11782.6 398.663   5
  -1   3  -2 11519.7 410.640  21
   1  -3   3 9380.78 379.571  20
   1  -3   3 9146.87 358.599  14
  -1   3  -3 9759.57 354.206   9
   1  -3   3 9350.43 360.032  10
   1  -3   3 9257.34 354.944  13
  -1   3  -3 8965.20 259.287  18
   1  -3   3 9547.57 347.527   9
  -1   3  -3 9511.70 389.792   1
  -1   3  -3 9723.40 365.634   2
  -1   3  -3 8957.81 354.568  14
   1  -3   3 9696.14 383.582  19
   1  -3   3 9397.44 340.330  11
   1  -3   3 9658.85 370.828  15
   1  -3   3 8676.76 370.272   3
   1  -3   3 8723.72 363.563   5
  -1   3  -3 8969.27 383.270  16
  -1   3  -3 9241.91 352.033  10
   1  -3   3 9354.37 377.459  21
  -1   3  -4 3356.58 216.723   1
   1  -3   4 3484.67 208.636  13
   1  -3   4 3476.65 230.148  20
   1  -3   4 3775.35 216.460  14
  -1   3  -4 3526.37 199.018   9
  -1   3  -4 3334.73 209.280  10
  -1   3  -4 3189.98 201.588  14
   1  -3   4 3602.52 232.976  21
   1  -3   4 3312.03 192.107   9
   1  -3   4 3538.78 229.473   5
   1  -3   4 3468.23 221.836   3
   1  -3   4 3445.73 204.047  15
   1  -3   4 3404.01 226.539  19
  -1   3  -4 3636.13 241.851  16
  -1   3  -4 3701.33 205.373   2
  -1   3  -4 3611.11 231.952   7
   1  -3   4 3425.48 191.985  11
  -1   3  -5 62.4897 47.2008   1
   1  -3   5 80.1400 58.0093   3
  -1   3  -5 19.1377 38.6860   9
   1  -3   5 37.6481 36.9622  15
   1  -3   5-15.0798 50.3639   5
  -1   3  -5 54.8483 30.5034   2
   1  -3   5 26.9234 39.1476  11
   1  -3   5 3.84074 50.3457  19
  -1   3  -5 29.0603 46.5822   7
  -1   3  -5-6.31033 46.4012  10
   1  -3   5 44.2961 50.0250  13
  -1   3  -5 23.6862 46.0878  14
   1  -3   5 17.5219 49.6835  21
  -1   3  -5 47.5717 60.8557  16
   1  -3   5 102.092 61.0811  20
   1  -3   6 235.959 56.6888  15
   1  -3   6 240.852 66.2536  11
  -1   3  -6 316.266 68.3933   9
   1  -3   6 167.006 79.8826  20
  -1   3  -6 299.936 72.7783   1
  -1   3  -6 135.555 56.3397   7
   1  -3   6 168.745 85.0689  21
   1  -3   6 376.303 96.0829   5
  -1   3  -6 289.804 84.5427  10
  -1   3  -6 251.192 95.8378  16
  -1   3  -6 319.489 61.4707   2
  -1   3  -6 342.418 79.3047  14
   1  -3   6 253.570 90.2077  19
   1  -3   7 6403.95 392.037   5
  -1   3  -7 5814.79 300.811   9
   1  -3   7 6027.65 380.508  20
   1  -3   7 6115.74 310.134  11
  -1   3  -7 5717.83 287.313   1
   1  -3   7 6163.21 377.466  21
  -1   3  -7 5335.28 365.373  16
  -1   3  -7 5560.49 247.894   2
  -1   3  -7 6077.29 332.791   7
   1  -3   7 5166.84 269.909  15
  -1   3  -7 6117.08 328.891  14
  -1   3  -7 5778.72 349.237  10
   1  -3   7 6583.04 396.009  19
  -1   3  -8 397.158 89.0070  14
  -1   3  -8 238.437 85.9333  10
   1  -3   8 411.397 124.604  20
  -1   3  -8 196.139 68.2984   7
   1  -3   8 361.866 79.7278  11
   1  -3   8 286.312 96.7419  19
   1  -3   8 389.252 120.022  21
  -1   3  -8 430.970 118.668  16
   1  -3   8 504.634 132.200   5
  -1   3  -8 462.168 80.6271   1
  -1   3  -8 407.652 84.8746   9
  -1   3  -9 63.0882 51.3305   7
  -1   3  -9 123.804 88.3311  10
   1  -3   9-50.9718 93.6860  19
   1  -3   9-83.7478 86.9143   5
   1  -3   9 2.75152 73.3480  20
   1  -3   9 18.2987 41.3797  11
   1  -3   9 57.6873 83.4204  21
  -1   3  -9 8.28443 46.1228   9
  -1   3  -9 62.6274 64.6953  14
   1  -3  10 133.551 94.5614  20
   1  -3  10 186.944 100.532   5
   1  -3  10-18.0177 92.9533  19
  -1   3 -10 119.624 67.7142   9
   1  -3  10 203.125 78.4213  11
  -1   3 -10 109.229 75.8230  14
  -1   3 -10 143.866 71.3419  10
  -1   3 -10 134.614 76.6015   7
   1  -3  10 52.1354 64.8271  21
   1  -3  11 37.4825 120.056  19
   1  -3  11 314.272 135.711   5
   1  -3  11 348.542 134.421  20
   1  -3  11 196.739 109.290  21
  -1   3 -11 252.839 91.1551  14
  -1   3 -11 183.383 102.322  10
   1  -3  12-37.4134 91.9932  20
   1  -3  12 90.0548 81.1782  21
   1  -3  12-316.856 132.547   5
   1  -3  12 35.6648 86.5289  19
  -1   3 -12 27.1375 89.7153  10
   1  -3  12-160.614 142.062   4
  -1   2  14 335.258 141.122   4
  -1   2  13-407.842 140.013  21
  -1   2  13-16.8112 96.8248  20
  -1   2  13 96.3876 101.486  18
  -1   2  13-58.7796 121.309  19
  -1   2  13 298.510 118.889   8
  -1   2  13-185.883 110.488  17
  -1   2  12 66.7561 94.1016  21
   1  -2 -12-32.8999 79.0405   3
  -1   2  12 104.693 103.589  19
  -1   2  12-36.0114 96.0614  17
  -1   2  12-21.0986 105.724  20
  -1   2  12 103.716 100.611   8
  -1   2  12 4.14662 64.1765  18
  -1   2  12 2.32468 59.1240   5
   1  -2 -12 36.9664 73.1909   7
  -1   2  11 2309.41 229.789   5
  -1   2  11 2656.48 282.094  17
  -1   2  11 2625.43 231.598   6
   1  -2 -11 3222.68 277.564   3
  -1   2  11 2479.32 282.287  20
  -1   2  11 3023.26 311.109   8
   1  -2 -11 2806.03 265.805   7
  -1   2  11 3125.66 308.381  21
  -1   2  11 2789.70 296.640  19
  -1   2  11 2055.62 244.870  18
  -1   2  10 718.389 157.536  19
  -1   2  10 857.589 164.600  20
  -1   2  10 867.179 139.487   5
   1  -2 -10 1011.14 163.195   7
   1  -2 -10 914.782 148.190   3
  -1   2  10 859.101 159.623  18
  -1   2  10 959.739 181.441   8
  -1   2  10 670.004 147.640  16
   1  -2 -10 853.137 131.189   2
  -1   2  10 957.291 169.910  17
  -1   2  10 1138.87 141.752   6
  -1   2  10 984.816 166.172  21
  -1   2   9 11765.7 570.429  17
   1  -2  -9 12347.8 504.478   2
  -1   2   9 12739.6 588.964  16
  -1   2   9 12620.6 510.782   5
  -1   2   9 12855.0 591.057  21
  -1   2   9 13072.4 600.160  19
   1  -2  -9 12676.6 557.829   7
  -1   2   9 11394.9 573.794  20
  -1   2   9 11959.5 590.540   8
   1  -2  -9 12086.2 534.225   3
  -1   2   9 11737.9 568.156  18
  -1   2   9 12726.9 488.236   6
  -1   2   8 1279.02 172.565   8
  -1   2   8 1449.49 113.982   1
  -1   2   8 1229.99 173.761  21
  -1   2   8 1646.79 195.623  19
  -1   2   8 1494.66 191.720  20
   1  -2  -8 1503.05 168.814   3
   1  -2  -8 1621.66 192.068   7
  -1   2   8 1693.15 188.661  18
  -1   2   8 1614.44 145.967   6
   1  -2  -8 1361.55 151.312   2
  -1   2   8 1473.66 182.174  16
  -1   2   8 1802.65 159.672   5
  -1   2   8 1438.85 180.542  17
  -1   2   7 3111.71 181.402   6
  -1   2   7 2942.13 234.081  21
  -1   2   7 2717.91 233.553  20
  -1   2   7 2957.84 192.151   5
  -1   2   7 2799.11 229.103  17
  -1   2   7 2731.79 227.945  16
  -1   2   7 2807.21 167.537   1
  -1   2   7 2839.67 245.470   8
   1  -2  -7 2840.79 212.151   2
   1  -2  -7 2435.09 203.821   3
  -1   2   7 2914.75 245.458  18
  -1   2   7 2674.01 230.962  19
   1  -2  -6-26.5964 45.1813   3
   1  -2  -6 17.0822 29.7126   5
  -1   2   6 12.2213 61.7887  21
  -1   2   6 8.96662 60.3398  18
  -1   2   6 24.8973 59.3945  16
  -1   2   6 61.1737 58.2712  20
  -1   2   6 6.63368 31.3083   6
  -1   2   6 11.5876 61.4569  19
   1  -2  -6-13.8127 50.0184   2
  -1   2   6 61.8393 66.4976  17
  -1   2   6 26.2593 32.7018   1
  -1   2   6 37.3212 58.9847   8
  -1   2   6 19.5162 32.4468   5
   1  -2  -5 8726.20 370.664   3
  -1   2   5 8519.65 369.065  17
  -1   2   5 8295.57 366.361  21
  -1   2   5 8400.05 323.515   1
   1  -2  -5 8332.50 293.217   5
  -1   2   5 7976.55 379.427   8
  -1   2   5 8367.64 365.632  16
  -1   2   5 8656.49 375.856  19
  -1   2   5 8403.64 392.752  18
  -1   2   5 9098.97 279.977   6
   1  -2  -5 8465.78 364.076   2
  -1   2   5 8800.90 300.445   5
  -1   2   4 2.71458 29.1896   5
  -1   2   4 145.926 69.3303   8
  -1   2   4-45.4205 64.1025  18
   1  -2  -4-19.9844 46.4653  10
  -1   2   4 7.85094 20.4121   6
   1  -2  -4-3.55998 47.6658  21
  -1   2   4-6.12148 49.2092   1
   1  -2  -4 23.2486 58.0897   2
  -1   2   4 19.9871 46.7455   2
  -1   2   4 11.6494 58.0298  19
   1  -2  -4 25.9098 49.5395   3
  -1   2   4 68.7937 51.9769  16
  -1   2   4-33.5873 56.1971  21
   1  -2  -4-17.7611 50.6088  16
  -1   2   4-10.4629 56.7638  17
   1  -2  -4 14.7790 24.4058   5
   1  -2  -4 55.2016 48.1482  17
  -1   2   3 26323.5 720.632  16
  -1   2   3 26721.7 745.842   3
  -1   2   3 25750.8 722.766  21
  -1   2   3 28641.2 726.110  20
   1  -2  -3 25799.7 737.927   3
   1  -2  -3 27865.3 737.166  17
   1  -2  -3 27569.3 731.969  16
  -1   2   3 25875.6 761.516  18
  -1   2   3 25866.3 722.238  17
   1  -2  -3 27725.4 739.444  21
  -1   2   3 26452.7 719.096   1
  -1   2   3 27073.4 749.848   2
  -1   2   3 25906.4 587.182   6
   1  -2  -3 26103.7 743.143   2
  -1   2   3 25263.9 733.847   8
  -1   2   3 25554.7 724.958  19
  -1   2   3 26921.1 603.389   5
   1  -2  -3 28446.9 734.638  10
   1  -2  -2 14922.4 492.060   3
  -1   2   2 15909.0 477.906  21
  -1   2   2 15824.0 466.709  10
  -1   2   2 15841.1 366.129   4
  -1   2   2 15611.3 493.573   1
  -1   2   2 17855.3 522.213   2
   1  -2  -2 16949.6 488.806  17
   1  -2  -2 15477.8 366.686   6
  -1   2   2 16564.1 506.454   3
  -1   2   2 16019.8 476.828  17
   1  -2  -2 15957.6 509.268   2
   1  -2  -2 16790.4 491.956   8
  -1   2   2 16737.2 473.951  20
  -1   2   2 16139.9 508.265  18
  -1   2   2 16102.1 474.673  16
   1  -2  -2 16703.8 475.138  10
   1  -2  -2 17077.5 486.026  16
  -1   2   2 15766.5 483.400   8
  -1   2   2 15187.9 357.852   5
   1  -2  -2 16674.9 488.202  21
  -1   2   1 22432.1 636.643   3
   1  -2  -1 23021.0 607.818  16
   1  -2  -1 22216.2 591.566  20
  -1   2   1 24079.3 604.126  20
   1  -2  -1 23206.7 605.766   8
  -1   2   1 22401.8 637.980   1
  -1   2   1 22690.7 603.490   8
   1  -2  -1 22845.2 590.467  10
   1  -2  -1 23532.3 613.653  17
  -1   2   1 21791.3 598.218  16
  -1   2   1 21622.4 602.602  21
  -1   2   1 21590.3 584.634  10
  -1   2   1 21760.4 624.953  18
   1  -2  -1 22762.8 640.679   3
  -1   2   1 24214.1 607.516  19
  -1   2   1 25407.5 657.688   2
  -1   2   1 21639.3 601.005  17
  -1   2   0 7671.79 277.072  18
   1  -2   0 7429.86 299.029   3
  -1   2   0 7590.98 264.349   8
   1  -2   0 7769.85 264.611   8
  -1   2   0 8270.00 279.275  20
   1  -2   0 8075.98 290.983   9
  -1   2   0 7339.42 274.796  17
  -1   2   0 7809.12 304.365   1
  -1   2   0 7427.41 259.519  10
   1  -2   0 7625.96 280.606  17
  -1   2   0 8117.11 306.673   2
  -1   2   0 7871.38 302.475   3
   1  -2   0 8190.72 287.493  14
  -1   2   0 8431.42 281.196  19
   1  -2   0 7451.66 268.644  20
  -1   2   0 7093.42 269.869  16
   1  -2   0 7658.69 261.831  10
   1  -2   0 7458.66 269.956  19
  -1   2   0 7805.70 232.239   5
   1  -2   0 7522.94 215.366   4
   1  -2   0 7957.56 282.735  16
  -1   2  -1 387.200 53.9731  18
  -1   2  -1 352.775 52.1112   5
   1  -2   1 389.778 58.5068  14
   1  -2   1 395.110 63.1925  19
  -1   2  -1 368.847 62.2580  20
  -1   2  -1 425.136 61.6867  21
  -1   2  -1 397.715 63.1987  17
   1  -2   1 397.358 63.4610  16
   1  -2   1 318.247 57.5785  20
  -1   2  -1 439.162 59.3282  14
  -1   2  -1 348.267 60.1052  16
   1  -2   1 367.106 68.8015   7
  -1   2  -1 342.652 65.5154   3
   1  -2   1 429.617 53.4738   8
   1  -2   1 364.231 52.9099  10
  -1   2  -1 433.379 77.6597   1
   1  -2   1 447.354 60.9877   9
  -1   2  -1 297.364 54.0583  19
  -1   2  -1 340.903 51.1889  10
  -1   2  -1 311.216 59.0836   2
   1  -2   1 376.526 72.5622   3
   1  -2   1 348.852 47.7562   4
   1  -2   2 17916.4 524.552  19
   1  -2   2 18078.2 505.273   9
  -1   2  -2 18322.0 533.454  20
   1  -2   2 17631.9 511.928   5
  -1   2  -2 16914.0 498.507  10
   1  -2   2 17547.4 521.445  21
   1  -2   2 16660.5 526.925   3
   1  -2   2 18431.7 499.721  14
  -1   2  -2 18480.1 538.917   3
   1  -2   2 18359.0 512.408  10
  -1   2  -2 18720.1 532.353  21
   1  -2   2 18268.8 517.255  15
  -1   2  -2 18116.6 506.761   9
  -1   2  -2 18148.3 444.063  18
   1  -2   2 18105.2 493.955  13
  -1   2  -2 18524.4 521.678   5
  -1   2  -2 17725.9 531.737  16
   1  -2   2 18961.2 534.074   7
  -1   2  -2 17875.3 528.018  19
  -1   2  -2 16366.2 487.791  14
   1  -2   2 17542.5 523.803  20
  -1   2  -2 17922.1 534.914   1
  -1   2  -3 441.934 75.1976  20
   1  -2   3 478.868 84.0188   3
   1  -2   3 553.858 72.0545   9
  -1   2  -3 481.551 75.9114   9
  -1   2  -3 545.831 83.6383  19
  -1   2  -3 501.587 68.0547  14
  -1   2  -3 508.738 83.2835   1
   1  -2   3 566.744 71.8734  11
   1  -2   3 543.137 68.0767  15
  -1   2  -3 553.289 83.6398   3
  -1   2  -3 584.855 84.9314   5
   1  -2   3 510.131 82.4762  19
  -1   2  -3 512.497 77.5226  21
   1  -2   3 509.863 73.8552   7
   1  -2   3 543.322 73.2556  13
   1  -2   3 565.343 78.9614  10
   1  -2   3 450.019 79.6392   5
  -1   2  -3 513.725 80.8318  10
   1  -2   3 447.991 78.4466  20
  -1   2  -3 429.206 73.4683   7
  -1   2  -3 504.266 77.8528  17
   1  -2   3 365.783 75.9368  21
  -1   2  -3 526.742 34.8864  18
  -1   2  -3 728.854 102.936  16
   1  -2   3 607.254 75.7481  14
  -1   2  -4 51561.7 1327.08  16
   1  -2   4 53882.9 1325.13   5
   1  -2   4 52793.6 1246.04  11
   1  -2   4 54822.7 1258.19  14
   1  -2   4 51727.8 1289.61   3
  -1   2  -4 52342.3 1292.71  10
   1  -2   4 52225.6 1248.96  13
   1  -2   4 54901.1 1277.55   7
  -1   2  -4 50896.6 1243.01  13
  -1   2  -4 57084.7 1307.65   3
   1  -2   4 52413.2 1319.07  19
  -1   2  -4 50686.1 1255.83   1
   1  -2   4 52215.6 1319.51  20
   1  -2   4 55494.8 1262.52   9
  -1   2  -4 53329.1 1250.49  14
  -1   2  -4 54009.6 1254.71   9
   1  -2   4 53506.0 1228.75  15
   1  -2   4 51895.1 1312.63  21
  -1   2  -4 52183.9 1271.38   7
  -1   2  -5 245.386 65.3166   7
   1  -2   5 158.525 50.3581  19
  -1   2  -5 191.911 54.3388  14
  -1   2  -5 132.879 42.9376  11
   1  -2   5 220.931 51.1396   9
  -1   2  -5 288.712 58.7853   1
  -1   2  -5 175.375 53.4788   9
   1  -2   5 156.162 51.1293  11
  -1   2  -5 284.323 66.4989   3
  -1   2  -5 191.861 60.5483  10
  -1   2  -5 177.375 49.0351  13
   1  -2   5 190.536 70.3889  21
   1  -2   5 206.746 55.5746   7
   1  -2   5 205.349 44.0372  15
   1  -2   5 215.081 73.9543   5
   1  -2   5 133.578 60.1571  20
  -1   2  -6 3950.73 222.615   9
  -1   2  -6 3490.25 244.896  10
  -1   2  -6 3887.29 226.889   7
   1  -2   6 4108.52 267.405  21
   1  -2   6 3934.59 264.772  19
  -1   2  -6 3918.08 222.947  14
   1  -2   6 3385.26 251.047  20
   1  -2   6 3654.61 213.947  11
   1  -2   6 3601.00 258.666   5
   1  -2   6 3891.02 188.037  15
  -1   2  -6 3669.42 191.519   1
  -1   2  -7 4551.67 259.600   7
   1  -2   7 4331.15 303.791   5
   1  -2   7 4330.27 302.888  19
  -1   2  -7 4023.09 282.228  10
   1  -2   7 3934.26 289.461  20
  -1   2  -7 4678.51 263.612  14
   1  -2   7 4146.08 200.916  15
   1  -2   7 4228.88 295.610  21
  -1   2  -7 4870.23 262.716   9
  -1   2  -7 4484.45 207.369   1
   1  -2   7 4439.79 251.863  11
   1  -2   8-14.2073 93.5147   5
  -1   2  -8 25.3037 48.6400   9
  -1   2  -8-1.68869 44.2021   7
   1  -2   8 34.5219 60.0753  20
  -1   2  -8 4.55282 49.8572  14
  -1   2  -8 55.0440 68.8744  10
   1  -2   8 52.5208 83.5153  21
   1  -2   8 32.8034 46.2423  11
  -1   2  -8 34.9304 27.6683   1
   1  -2   8 52.2338 75.2969  19
  -1   2  -9 387.055 109.619  10
   1  -2   9 246.758 103.099   5
  -1   2  -9 389.272 86.9710   7
   1  -2   9 379.634 86.4743  11
   1  -2   9 504.095 124.338  20
   1  -2   9 295.358 103.015  21
   1  -2   9 353.550 109.203  19
  -1   2  -9 542.767 105.253  14
  -1   2  -9 437.823 100.762   9
  -1   2 -10 1272.44 154.762   7
   1  -2  10 1210.29 188.593  20
  -1   2 -10 792.062 136.586  14
   1  -2  10 1144.87 190.318  21
  -1   2 -10 1186.59 156.629   9
  -1   2 -10 1053.65 175.101  10
   1  -2  10 1180.94 191.280   5
   1  -2  10 1005.95 145.871  11
   1  -2  10 937.274 169.811  19
   1  -2  11 1456.43 220.091  19
   1  -2  11 1103.83 160.402  11
  -1   2 -11 1170.27 168.796  14
  -1   2 -11 1909.95 244.988  10
   1  -2  11 1325.18 209.260  21
  -1   2 -11 1430.46 172.267   9
   1  -2  11 1255.97 210.857   5
   1  -2  11 1319.63 216.861  20
   1  -2  12-120.249 110.014  20
  -1   2 -12 123.447 92.1886  10
  -1   2 -12 52.4208 68.3467  14
   1  -2  12-31.5752 85.6071  21
   1  -2  12-60.5122 114.016   5
   1  -2  12-5.77758 91.5739  19
  -1   2 -13 696.122 172.341  10
   1  -1 -14 4.88285 86.3559   9
  -1   1  14 44.5300 83.7555   5
   1  -1 -13 2098.05 264.714   9
  -1   1  13 3086.60 350.323  20
  -1   1  13 2821.89 329.436  21
  -1   1  13 3513.13 368.542  17
  -1   1  13 3155.21 353.839  19
  -1   1  13 2945.13 340.863   8
  -1   1  13 2606.37 290.146   5
   1  -1 -12-64.0064 80.0588   7
  -1   1  12 220.742 127.796  21
   1  -1 -12-82.0810 86.3305   9
  -1   1  12 5.16456 88.1867  20
  -1   1  12-65.2020 81.6073   5
  -1   1  12 7.90348 104.325  19
  -1   1  12 4.64981 70.0327  18
  -1   1  12-23.7747 87.9451  17
  -1   1  12 81.5307 76.7567   6
  -1   1  12 151.422 87.1281   8
  -1   1  11 159.719 79.6567   6
   1  -1 -11 119.380 70.3868  15
  -1   1  11 135.091 97.9190  21
   1  -1 -11 125.120 75.4440   7
   1  -1 -11 97.9185 59.7035   3
  -1   1  11 59.8361 97.8113  20
  -1   1  11 49.3697 81.5140  17
  -1   1  11 171.085 117.795  19
  -1   1  11 191.769 82.2411   5
  -1   1  10 1330.06 176.700   5
  -1   1  10 1204.86 188.757  21
   1  -1 -10 1188.24 162.871   7
  -1   1  10 1580.82 212.337  19
  -1   1  10 1633.63 208.846  17
  -1   1  10 1417.41 210.924  20
  -1   1  10 1314.72 176.169  18
   1  -1 -10 1371.11 163.712  15
   1  -1 -10 1392.58 168.220   3
   1  -1  -9 5469.00 321.228   3
  -1   1   9 5710.10 381.455  21
  -1   1   9 6384.71 403.476  16
  -1   1   9 6015.38 349.707   5
  -1   1   9 5397.06 346.906  18
  -1   1   9 5829.95 385.682  17
   1  -1  -9 6538.31 304.004   2
   1  -1  -9 6346.67 364.399   7
  -1   1   9 5547.87 384.367  20
  -1   1   9 5786.39 388.282  19
  -1   1   8 17245.0 662.978  17
  -1   1   8 15012.3 629.704  21
   1  -1  -8 15454.5 568.846   3
  -1   1   8 15824.3 642.723  16
  -1   1   8 15753.4 584.877   5
   1  -1  -8 16601.7 536.642   2
  -1   1   8 16516.0 624.465  18
  -1   1   8 15670.1 651.009  20
  -1   1   8 17154.9 666.922  19
   1  -1  -8 15656.9 601.805   7
  -1   1   8 15419.9 379.852   1
  -1   1   7 2010.63 199.309  21
  -1   1   7 1953.53 167.388   5
  -1   1   7 1887.53 194.135  19
   1  -1  -7 1932.72 166.026   3
  -1   1   7 1624.40 179.566  16
  -1   1   7 2063.81 201.731  20
  -1   1   7 2010.35 103.865   1
   1  -1  -7 1923.79 179.740   7
  -1   1   7 1855.70 179.677  18
   1  -1  -7 2104.79 156.681   2
  -1   1   7 1460.98 169.450  17
  -1   1   6 6.12464 64.3853  20
   1  -1  -6 24.2253 46.9663   3
  -1   1   6 108.957 34.8856   1
  -1   1   6 39.3897 34.6728   2
  -1   1   6 70.7057 53.0666  21
   1  -1  -6 82.2940 37.7681   2
  -1   1   6 85.1627 63.8153  17
  -1   1   6 24.4157 46.0054   5
  -1   1   6 15.6688 54.5010  16
  -1   1   6 87.8288 58.5091  19
   1  -1  -6 48.4935 58.1513   7
   1  -1  -6 38.3763 51.9555   5
  -1   1   6 74.1306 55.8490  18
  -1   1   5 4217.83 250.353  18
  -1   1   5 4753.34 264.469  19
  -1   1   5 4802.96 225.100   5
  -1   1   5 4307.79 248.860  16
   1  -1  -5 4570.09 224.145   2
  -1   1   5 4472.83 253.876  17
  -1   1   5 4529.64 255.331  21
   1  -1  -5 4602.59 220.302   5
  -1   1   5 4404.94 259.478  20
  -1   1   5 4347.25 217.667   2
   1  -1  -5 4556.66 229.501   3
  -1   1   5 4798.41 188.573   1
  -1   1   4 3998.41 220.123  21
  -1   1   4 3902.48 222.260  18
  -1   1   4 3694.62 214.950  19
   1  -1  -4 4365.93 231.956  21
   1  -1  -4 4138.35 229.211  19
   1  -1  -4 3728.60 192.266   2
  -1   1   4 3792.82 177.881   5
   1  -1  -4 3584.22 212.496  17
   1  -1  -4 4026.46 182.332   5
  -1   1   4 3839.73 216.445  16
  -1   1   4 3930.24 173.132   1
   1  -1  -4 3882.62 199.161   3
   1  -1  -4 4169.14 223.953  16
  -1   1   4 3944.43 195.372   2
  -1   1   4 3918.90 218.078  17
   1  -1  -3 6280.06 257.608  17
  -1   1   3 5333.01 241.204  17
  -1   1   3 5284.15 240.684  21
  -1   1   3 5458.90 253.479  18
   1  -1  -3 5482.89 198.792   5
  -1   1   3 5866.46 247.639  16
  -1   1   3 5864.71 236.433   2
   1  -1  -3 6244.99 256.972  10
   1  -1  -3 5947.94 249.082  16
   1  -1  -3 5497.01 230.823   3
  -1   1   3 5674.73 251.816  19
   1  -1  -3 5649.17 248.555  21
   1  -1  -3 5902.59 237.527   2
  -1   1   3 5360.96 196.301   5
   1  -1  -2 187623. 3737.80   2
   1  -1  -2 178145. 3725.22   3
   1  -1  -2 191777. 3740.44  10
  -1   1   2 190790. 3743.65   2
  -1   1   2 177524. 3755.71  18
  -1   1   2 182725. 3648.57   5
  -1   1   2 177018. 3728.34   8
  -1   1   2 176242. 3733.25  21
  -1   1   2 178057. 3738.16  19
   1  -1  -2 189852. 3746.76  21
   1  -1  -2 189876. 3741.24  16
  -1   1   2 177082. 3727.48  16
  -1   1   2 185518. 3732.92   3
  -1   1   2 178197. 3732.69  17
   1  -1  -2 189657. 3744.47  17
   1  -1  -1 108481. 2275.32  16
  -1   1   1 104243. 2262.26  10
   1  -1  -1 107889. 2278.63  21
   1  -1  -1 104828. 2258.72  20
  -1   1   1 104088. 2266.41  16
  -1   1   1 107814. 2195.15   4
  -1   1   1 103915. 2269.05  17
   1  -1  -1 110185. 2268.37  10
  -1   1   1 110227. 2284.07   3
  -1   1   1 110445. 2266.72  20
  -1   1   1 105979. 2255.48   8
   1  -1  -1 108566. 2278.07  17
  -1   1   1 105177. 2272.02  21
   1  -1  -1 106621. 2277.77   3
  -1   1   1 114534. 2298.17   2
   1  -1   0 10466.0 276.369  10
  -1   1   0 9800.82 278.803  16
   1  -1   0 10027.7 275.069  20
  -1   1   0 10467.2 280.809  19
  -1   1   0 10073.3 283.077  17
  -1   1   0 9868.37 269.827  10
   1  -1   0 10201.6 232.236   4
  -1   1   0 10606.0 299.103   3
   1  -1   0 10801.1 291.578  17
  -1   1   0 10306.2 279.444  20
   1  -1   0 10469.3 296.108   3
   1  -1   0 9861.39 252.123   8
   1  -1   0 10627.5 288.793  16
   1  -1   0 9642.53 272.400  19
  -1   1   0 9456.55 231.892   4
   1  -1   0 10346.7 291.019   9
   1  -1   1 5778.04 212.444  19
  -1   1  -1 6429.09 219.366  19
  -1   1  -1 5927.11 204.499   5
  -1   1  -1 5821.42 209.784   9
   1  -1   1 6005.42 213.219   9
   1  -1   1 6179.89 191.605  14
   1  -1   1 6192.60 223.918  16
  -1   1  -1 5779.54 188.263  14
  -1   1  -1 5930.43 206.933  10
   1  -1   1 6248.02 212.226  10
   1  -1   1 5907.23 175.007   8
  -1   1  -1 6299.12 227.622   3
  -1   1  -1 6090.15 216.896  20
  -1   1  -1 6349.68 218.997  21
  -1   1  -1 6040.51 221.719  16
   1  -1   1 5870.33 214.525  20
   1  -1   1 6064.63 225.068   3
   1  -1   1 5856.16 197.563   4
  -1   1  -2 8595.07 287.208  20
  -1   1  -2 7522.74 279.963  16
   1  -1   2 8188.40 266.338   9
   1  -1   2 8161.74 280.913   3
  -1   1  -2 8293.93 281.345  21
   1  -1   2 8523.85 278.708  10
   1  -1   2 7529.84 275.254  20
  -1   1  -2 7916.06 262.745   9
   1  -1   2 8431.12 239.733  14
   1  -1   2 8003.54 259.472   7
   1  -1   2 7900.85 277.888  19
   1  -1   2 7667.42 275.148  21
   1  -1   2 7948.34 261.233  11
  -1   1  -2 7792.12 269.245  10
  -1   1  -2 7783.76 234.677  14
  -1   1  -2 8241.62 280.115   5
   1  -1   2 7571.53 268.470   4
  -1   1  -2 7894.06 278.406  19
  -1   1  -2 8494.50 284.811   3
   1  -1   2 8221.23 235.522  13
   1  -1   2 8082.97 274.946   5
   1  -1   3 10295.8 310.903  14
  -1   1  -3 10053.9 364.429  16
  -1   1  -3 11263.0 374.060  20
   1  -1   3 10961.3 296.926  15
  -1   1  -3 10740.6 337.733  11
   1  -1   3 10562.8 362.831   5
  -1   1  -3 10688.8 308.707  13
   1  -1   3 10964.0 312.431  13
  -1   1  -3 10451.7 308.596  14
   1  -1   3 10443.1 337.026   9
  -1   1  -3 11096.1 370.949   5
  -1   1  -3 10242.2 322.193   7
   1  -1   3 10321.7 354.254   3
  -1   1  -3 11256.8 370.586  17
  -1   1  -3 11027.4 366.852  21
   1  -1   3 10380.9 360.555  19
   1  -1   3 10644.1 335.302  11
  -1   1  -3 10723.6 354.714   3
  -1   1  -3 10234.3 351.581  10
  -1   1  -3 10853.4 366.160  19
   1  -1   3 10663.2 364.847  20
   1  -1   3 11333.3 327.827   7
  -1   1  -3 10686.7 336.913   9
   1  -1   3 10639.0 361.930  21
  -1   1  -4 42253.7 1015.74   7
  -1   1  -4 45146.8 1103.96  19
  -1   1  -4 45023.4 1100.03  21
   1  -1   4 42541.1 1088.36  21
   1  -1   4 43868.5 1100.12   5
   1  -1   4 43590.3 969.042  15
  -1   1  -4 45818.5 1106.80  17
  -1   1  -4 44854.6 1070.95   3
  -1   1  -4 46746.4 1117.33   5
  -1   1  -4 41177.5 916.079  18
   1  -1   4 43548.0 1043.15  11
   1  -1   4 41964.1 1088.29  19
  -1   1  -4 42280.1 1039.98   9
  -1   1  -4 44763.5 1005.27   1
  -1   1  -4 42449.2 1077.97  10
  -1   1  -4 45760.2 1051.73  11
  -1   1  -4 46971.7 1116.72  20
   1  -1   4 44512.0 1051.61   9
   1  -1   4 42230.2 1092.98  20
   1  -1   4 46969.9 1028.04   7
  -1   1  -4 43867.4 1016.63  14
  -1   1  -4 44424.1 1018.94  13
  -1   1  -5 76391.1 1688.86  14
  -1   1  -5 74527.3 1709.07   9
   1  -1   5 74500.2 1705.86  11
  -1   1  -5 76368.7 1735.92   3
  -1   1  -5 72585.5 1760.67  10
   1  -1   5 75471.5 1780.58   5
   1  -1   5 76879.4 1678.75   7
  -1   1  -5 78052.5 1717.03  11
   1  -1   5 75324.6 1779.98  20
  -1   1  -5 74445.3 1599.56  15
  -1   1  -5 76588.5 1630.43   1
  -1   1  -5 73108.9 1669.77   7
  -1   1  -5 70605.9 1566.18  18
  -1   1  -5 76935.6 1689.00  13
   1  -1   5 77101.0 1718.96   9
   1  -1   5 75783.6 1772.31  21
   1  -1   5 74669.1 1771.94  19
   1  -1   5 77246.4 1604.15  15
   1  -1   6 6460.18 197.807  18
   1  -1   6 6357.13 271.666   7
   1  -1   6 6406.42 326.409  21
  -1   1  -6 6108.53 274.937  13
  -1   1  -6 6343.52 289.983   9
   1  -1   6 6614.90 293.689  11
   1  -1   6 6597.39 338.132  20
  -1   1  -6 6275.49 210.127  15
  -1   1  -6 5994.10 318.002  10
  -1   1  -6 6044.99 262.633   7
   1  -1   6 6071.49 212.224  15
   1  -1   6 6608.21 336.322   5
  -1   1  -6 5953.94 273.668  14
   1  -1   6 6560.75 332.367  19
  -1   1  -6 6339.88 216.845   1
   1  -1   6 6323.40 325.535  17
   1  -1   7 1824.48 150.139   7
  -1   1  -7 1961.14 99.7573   1
   1  -1   7 2016.43 193.529  19
   1  -1   7 1848.02 187.426  21
   1  -1   7 1982.64 165.605  11
   1  -1   7 2127.16 205.552   5
  -1   1  -7 2191.92 199.928  10
  -1   1  -7 1978.50 162.765   9
   1  -1   7 1849.65 189.000  20
  -1   1  -7 2113.23 110.115  15
  -1   1  -7 2123.26 169.422  14
  -1   1  -7 1951.35 150.110   7
   1  -1   7 2103.61 198.560  17
   1  -1   7 2115.30 109.242  18
   1  -1   8 3286.40 151.687  18
  -1   1  -8 3136.27 201.715   7
  -1   1  -8 3162.13 143.239  15
   1  -1   8 3283.73 264.999  21
   1  -1   8 3072.17 255.751  17
  -1   1  -8 3306.69 260.450  10
   1  -1   8 2947.78 216.610  11
   1  -1   8 3414.29 274.385  20
   1  -1   8 3506.06 272.848   5
  -1   1  -8 2981.47 220.265   9
   1  -1   8 3312.16 263.903  19
  -1   1  -8 3055.61 217.523  14
  -1   1  -8 2788.04 99.6052   1
   1  -1   9 616.571 131.386  19
  -1   1  -9 497.875 95.3858   9
  -1   1  -9 510.549 100.896  14
   1  -1   9 472.433 116.201  21
   1  -1   9 531.513 126.541   5
  -1   1  -9 433.635 118.088  10
   1  -1   9 339.963 103.979  17
   1  -1   9 574.371 66.9032  18
  -1   1  -9 407.101 78.8090   7
   1  -1   9 673.155 137.637  20
   1  -1   9 565.620 105.954  11
  -1   1  -9 454.457 53.2549  15
   1  -1  10 278.733 106.688  20
   1  -1  10 330.580 92.4141  11
  -1   1 -10 276.991 72.8205   7
  -1   1 -10 550.016 137.422  10
   1  -1  10 310.056 103.582  17
  -1   1 -10 199.064 81.7962   9
   1  -1  10 244.041 101.129   5
  -1   1 -10 311.960 84.7603  14
   1  -1  10 550.082 132.730  19
   1  -1  10 458.024 116.505  21
  -1   1 -11 1090.62 164.625  14
   1  -1  11 847.845 168.568  21
  -1   1 -11 1159.67 143.207   7
   1  -1  11 813.345 165.020  20
  -1   1 -11 1082.23 160.740   9
   1  -1  11 850.457 172.754  17
   1  -1  11 998.028 153.962  11
   1  -1  11 665.840 147.131   5
  -1   1 -11 753.479 163.446  10
   1  -1  11 950.591 177.835  19
   1  -1  12 359.137 126.662  21
   1  -1  12 377.648 123.260  20
   1  -1  12 102.696 100.047   4
  -1   1 -12 230.617 92.3078   9
   1  -1  12 216.292 84.0461  11
   1  -1  12 199.729 97.7176  19
  -1   1 -12 248.664 116.676  10
   1  -1  12 249.630 105.839  17
  -1   1 -12 253.311 105.291  14
   1  -1  13 2631.58 317.673  21
   1  -1  13 1770.16 282.591   4
  -1   1 -13 2823.20 321.162  10
   1  -1  13 2330.22 304.694  19
   1  -1  13 3013.83 349.700  20
  -1   1 -13 2062.17 244.896   9
  -1   0  14-45.1123 71.4625   5
  -1   0  13 254.379 113.775   5
   1   0 -13 330.586 137.808  14
  -1   0  13 252.076 106.857  20
  -1   0  13 371.301 138.218  17
  -1   0  13 348.014 122.757  21
  -1   0  13 346.837 126.974  19
   1   0 -13 164.890 86.9435   9
  -1   0  12 455.598 145.631  17
  -1   0  12 467.126 140.009  21
  -1   0  12 363.273 135.241  19
   1   0 -12 328.489 101.201   7
   1   0 -12 394.288 112.458   9
  -1   0  12 358.369 141.951  20
  -1   0  12 484.007 141.943   5
  -1   0  11 571.235 164.213  20
   1   0 -11 623.886 109.592   3
  -1   0  11 635.576 123.303  18
   1   0 -11 578.163 130.194   9
  -1   0  11 653.859 162.448  19
   1   0 -11 494.406 123.147   7
  -1   0  11 420.650 112.738   5
  -1   0  11 772.280 166.311  21
  -1   0  11 831.518 176.537  17
  -1   0  10 9527.75 524.168  21
  -1   0  10 8661.76 477.113   5
  -1   0  10 8528.79 429.587  18
  -1   0  10 8726.41 511.010  19
  -1   0  10 9027.09 515.252  17
  -1   0  10 8978.78 527.073  20
   1   0 -10 8740.57 449.585   9
   1   0 -10 7957.14 433.224   7
   1   0 -10 8100.00 390.189  15
  -1   0   9 2886.45 228.785  18
   1   0  -9 3279.27 252.655   7
  -1   0   9 2738.46 248.482   5
   1   0  -9 2821.25 211.766  15
  -1   0   9 3369.84 285.862  21
  -1   0   9 3584.76 300.728  19
  -1   0   9 3620.02 305.997  20
  -1   0   9 3373.07 288.755  17
  -1   0   8 1072.39 154.047  21
  -1   0   8 1398.07 176.583  17
   1   0  -8 1198.49 134.344  15
  -1   0   8 1138.23 149.974   5
  -1   0   8 1092.76 163.681  19
   1   0  -8 1147.43 145.903   7
  -1   0   8 1188.51 140.198  18
  -1   0   8 990.741 157.830  20
   1   0  -7 10702.4 445.688   7
  -1   0   7 11526.7 499.843  19
  -1   0   7 10507.3 431.879  18
  -1   0   7 10587.2 480.566  21
   1   0  -7 10386.3 345.344   2
   1   0  -7 10403.9 412.871  15
  -1   0   7 10727.5 492.174  20
  -1   0   7 11061.1 487.944  17
  -1   0   7 11070.0 459.574   5
  -1   0   7 11158.5 487.045  16
  -1   0   6 10071.0 442.207  20
   1   0  -6 10260.9 321.815   2
   1   0  -6 10255.8 384.910  15
  -1   0   6 9967.85 392.122  18
  -1   0   6 10025.7 429.568  21
  -1   0   6 10555.8 444.995  19
  -1   0   6 10398.9 436.641  17
  -1   0   6 10080.5 429.633  16
   1   0  -6 10602.7 413.397   7
  -1   0   6 10024.1 406.131   5
  -1   0   6 9085.24 239.690   1
   1   0  -5 23689.1 697.638   7
  -1   0   5 22637.5 713.678  21
  -1   0   5 24556.8 728.112  17
  -1   0   5 24266.4 733.633  20
  -1   0   5 22127.5 670.771  18
   1   0  -5 24514.6 695.352   5
   1   0  -5 24173.9 672.475  11
  -1   0   5 23304.4 684.947   5
  -1   0   5 23467.3 723.045  19
   1   0  -5 24858.4 605.868   2
  -1   0   5 24469.5 725.407  16
  -1   0   4 26550.6 725.921   5
  -1   0   4 26500.4 763.281  19
   1   0  -4 29498.4 781.092  19
   1   0  -4 28428.1 725.810  11
   1   0  -4 29194.2 775.746  21
  -1   0   4 26910.9 759.793  21
   1   0  -4 27059.8 665.744   2
  -1   0   4 27454.5 763.260  17
  -1   0   4 27468.1 763.673  16
  -1   0   4 27742.9 773.980  20
   1   0  -4 29122.1 772.278  16
   1   0  -4 29145.6 775.673  17
   1   0  -4 28299.3 735.423   5
  -1   0   4 27766.6 666.647   2
   1   0  -4 27007.2 748.684   7
  -1   0   4 26231.4 732.220  18
   1   0  -3 10158.8 319.580   5
  -1   0   3 9621.41 314.668   5
  -1   0   3 9504.67 339.443  19
   1   0  -3 9405.65 287.021   3
  -1   0   3 9627.19 338.326  17
   1   0  -3 9870.87 344.538  21
   1   0  -3 10144.6 346.340  17
  -1   0   3 9716.19 337.226  21
  -1   0   3 9626.94 336.691  16
   1   0  -3 10692.0 348.993  16
   1   0  -3 9331.37 334.256   7
  -1   0   3 9922.03 284.797   2
   1   0  -3 10221.8 352.027  19
   1   0  -2 509.445 59.4631  16
   1   0  -2 551.973 67.1327  19
   1   0  -2 511.753 63.8303  21
  -1   0   2 415.108 59.6947  19
   1   0  -2 448.795 51.3063   5
   1   0  -2 366.915 67.0395   7
  -1   0   2 410.126 60.1601  21
   1   0  -2 452.021 61.1917  17
  -1   0   2 577.998 65.1437  16
   1   0  -2 522.728 48.3272   3
  -1   0   2 482.291 57.0274   5
  -1   0   2 487.910 49.9412   2
  -1   0   2 550.092 67.1625  17
  -1   0   1 44591.4 430.592  10
  -1   0   1 72841.0 461.157   3
   1   0  -1 75397.0 381.606  12
   1   0  -1 72633.8 565.216  21
   1   0  -1 72308.9 555.360  10
   1   0  -1 71863.3 562.852  17
  -1   0   1 57541.9 492.617  17
  -1   0   1 52602.6 465.814  16
  -1   0   1 59283.0 501.808  21
   1   0  -1 1421.46 75.5298   3
   1   0  -1 71841.9 555.987  16
  -1   0  -1 61677.7 1323.82  19
  -1   0  -1 62307.6 1324.00  21
  -1   0  -2 9359.68 257.490  16
   1   0   2 9548.93 252.969  21
   1   0   2 9034.60 249.521  20
  -1   0  -2 10009.8 265.011   3
   1   0   2 9421.04 247.578  11
   1   0   2 9493.76 258.319  10
  -1   0  -2 8945.84 244.029  11
  -1   0  -2 9208.13 254.537  10
  -1   0  -2 9847.55 257.178  19
   1   0   2 9391.26 251.389   9
  -1   0  -2 9996.34 263.419   5
  -1   0  -2 9135.47 192.899   7
   1   0   2 9130.73 248.849  19
  -1   0  -2 9417.46 252.823  21
  -1   0  -2 9314.96 255.657  20
  -1   0  -2 9017.44 244.907   9
   1   0   2 9070.80 257.638   4
   1   0   3 7945.57 284.292  20
  -1   0  -3 8383.24 287.553  19
   1   0   3 8018.56 285.629   5
  -1   0  -3 8269.09 274.447  11
  -1   0  -3 8583.50 288.650  17
  -1   0  -3 8620.79 288.102  21
   1   0   3 8381.72 275.315  11
   1   0   3 8476.86 280.486   9
   1   0   3 7645.93 228.106  18
   1   0   3 8151.68 283.722  19
  -1   0  -3 8593.55 292.938  20
   1   0   3 7993.82 291.041   4
  -1   0  -3 7831.40 272.210   9
   1   0   3 8021.79 281.617  21
  -1   0  -3 8673.31 294.021   5
   1   0   3 8664.63 224.925   7
  -1   0  -3 8124.33 286.591  10
  -1   0  -3 7847.51 219.618   7
  -1   0  -3 8402.34 235.754  18
  -1   0  -4 2470.22 158.984  10
   1   0   4 2720.98 156.056  11
  -1   0  -4 2646.55 162.685  21
   1   0   4 2436.61 159.033  19
  -1   0  -4 2809.07 159.194   9
  -1   0  -4 2708.58 167.403  20
   1   0   4 2816.10 168.431   5
   1   0   4 2796.78 122.929  18
  -1   0  -4 2803.20 123.979  18
   1   0   4 2509.76 159.150  17
  -1   0  -4 3076.51 175.025  19
   1   0   4 2736.94 163.402  21
   1   0   4 2820.50 122.332   7
   1   0   4 2651.13 155.801   9
  -1   0  -4 2677.97 117.526   7
  -1   0  -4 3003.81 171.950  17
   1   0   4 2730.71 168.222  20
  -1   0  -4 2888.46 159.062  11
  -1   0  -4 3133.70 177.382   5
  -1   0  -5 55077.5 1307.43  21
   1   0   5 55833.7 1196.75   7
   1   0   5 53271.3 1301.89  20
  -1   0  -5 54801.4 1316.71  20
   1   0   5 53408.1 1296.43  19
  -1   0  -5 55403.2 1269.62  11
  -1   0  -5 55072.7 1309.89  17
   1   0   5 52307.0 1184.11  18
   1   0   5 52876.7 1296.94   5
  -1   0  -5 56073.7 1313.26   5
  -1   0  -5 55969.2 1314.56  19
  -1   0  -5 55505.1 1193.07  18
  -1   0  -5 47993.8 1102.35  15
  -1   0  -5 52698.5 1178.30   7
  -1   0  -5 52447.9 1263.41   9
   1   0   5 52184.4 1259.64  11
   1   0   5 53588.5 1293.97  21
   1   0   5 53017.0 1294.33  17
   1   0   6 5967.07 304.978   5
   1   0   6 6033.94 303.888  21
   1   0   6 5909.90 233.882  18
  -1   0  -6 6715.77 247.968  18
  -1   0  -6 5952.04 175.804  15
   1   0   6 5905.18 304.260  19
  -1   0  -6 5857.76 282.347   9
   1   0   6 5863.89 302.791  17
   1   0   6 5755.96 303.072  20
  -1   0  -6 5411.74 159.015   1
   1   0   6 6247.46 248.954   7
   1   0   6 5801.74 279.296  11
  -1   0  -6 6178.92 236.247   7
   1   0   7 1921.88 155.771   7
  -1   0  -7 2458.97 153.745   7
   1   0   7 2465.74 207.433  17
   1   0   7 2334.57 205.978  20
  -1   0  -7 2364.15 104.827  15
   1   0   7 2657.90 157.526  18
  -1   0  -7 2583.17 192.667   9
   1   0   7 2470.53 206.933  21
   1   0   7 2665.08 216.106  19
   1   0   7 2502.66 189.945  11
   1   0   7 2362.40 202.793   5
  -1   0  -7 2616.21 157.329  18
   1   0   8 9090.87 439.281   5
  -1   0  -8 9753.36 418.990   9
   1   0   8 8520.63 398.036  11
   1   0   8 9085.57 440.959  21
   1   0   8 8215.71 424.624  17
   1   0   8 8670.93 435.787  19
   1   0   8 8753.19 338.494  18
  -1   0  -8 8730.53 341.977   7
   1   0   8 9170.40 449.466  20
  -1   0  -8 8894.85 263.296  15
   1   0   9 5461.09 354.473   5
   1   0   9 5098.73 316.307  11
  -1   0  -9 5487.18 273.594   7
  -1   0  -9 5275.76 240.265   2
   1   0   9 5446.11 354.619  21
   1   0   9 5209.41 350.698  19
   1   0   9 5699.84 272.058  18
  -1   0  -9 4797.07 307.524   9
   1   0   9 5146.00 349.283  17
   1   0   9 5173.47 351.424  20
  -1   0  -9 5327.64 189.732  15
  -1   0 -10 3461.89 277.459   9
   1   0  10 4296.84 346.687  20
   1   0  10 4635.08 346.824  21
   1   0  10 3920.35 322.494   5
   1   0  10 4171.44 331.936  17
   1   0  10 3836.57 234.312  18
  -1   0 -10 4196.06 248.388   7
  -1   0 -10 4202.78 296.845  14
   1   0  10 4075.03 300.795  11
   1   0  10 4238.70 336.530  19
  -1   0 -10 4276.85 214.659   2
   1   0  11 3840.77 340.800  19
   1   0  11 4185.19 345.479   5
   1   0  11 4216.84 350.783  21
  -1   0 -11 4211.44 353.502  10
   1   0  11 3906.09 347.034  20
   1   0  11 4017.30 344.748  17
   1   0  11 3151.10 281.441  11
  -1   0 -11 3513.11 288.617   9
  -1   0 -11 3556.99 290.779  14
  -1   0 -11 3659.49 248.900   7
   1   0  12 713.298 164.846  21
   1   0  12 98.5390 117.483   4
   1   0  12 450.932 116.982  11
  -1   0 -12 355.038 107.175  10
   1   0  12 582.821 158.731  19
  -1   0 -12 319.469 108.724   9
   1   0  12 466.553 149.893  17
  -1   0 -12 18.4570 89.8450  14
   1   0  12 229.175 111.224  20
  -1   0 -13 94.9946 80.3509  10
   1   0  13 386.542 139.868  17
   1   0  13 279.924 120.591  19
   1   0  13 507.539 160.333  20
   1   0  13 316.538 136.860   4
   1   0  13 402.600 160.020   6
  -1   0 -13 459.579 127.685   9
   1   0  13 808.274 191.294  21
  -1   0 -13 247.056 92.3502  14
   1   0  14 246.479 120.254   8
  -1   0 -14-3.56358 69.1514   9
   1   0  14 191.674 119.274   6
   1   1 -13 3816.51 374.569  14
  -1  -1  13 4096.81 388.621   5
   1   1 -12-49.7394 72.1075   9
  -1  -1  12-83.9025 97.8552  19
  -1  -1  12-80.2774 100.993   5
  -1  -1  12-237.868 116.157  17
  -1  -1  12 210.962 114.433  20
   1   1 -12 94.0042 101.892  14
  -1  -1  12-18.3139 77.4043  21
   1   1 -12 40.4488 52.6903   7
   1   1 -11 274.566 89.6554   9
  -1  -1  11 489.473 145.134  17
   1   1 -11 323.665 118.442  14
  -1  -1  11 294.643 127.775  20
   1   1 -11 297.326 94.2546   7
  -1  -1  11 375.450 131.053  21
  -1  -1  11 428.752 147.732   5
  -1  -1  11 284.418 116.750  19
  -1  -1  10 817.629 175.541  17
  -1  -1  10 645.028 144.056  19
  -1  -1  10 895.450 124.420  18
   1   1 -10 696.661 129.762   7
  -1  -1  10 668.677 148.401  21
  -1  -1  10 853.199 159.718   5
  -1  -1  10 832.865 167.490  20
   1   1 -10 958.887 140.442   9
   1   1 -10 542.308 136.493  14
   1   1 -10 959.514 123.561  15
   1   1  -9 95.6206 53.8888  15
   1   1  -9 142.684 63.1382   9
  -1  -1   9 230.202 70.7968  18
   1   1  -9 107.118 78.9511  14
  -1  -1   9 137.967 78.6654   5
  -1  -1   9 247.185 112.639  17
  -1  -1   9 178.379 92.4345  21
  -1  -1   9 109.879 77.4306  20
  -1  -1   9-32.3816 76.6691  19
   1   1  -9 15.4122 61.3846   7
   1   1  -8 2731.29 220.742   7
   1   1  -8 2711.58 203.450   9
  -1  -1   8 2707.25 192.879  18
  -1  -1   8 2839.86 256.614  20
  -1  -1   8 2970.96 252.703   5
  -1  -1   8 2800.66 252.448  17
   1   1  -8 3045.30 204.769  15
  -1  -1   8 2795.15 251.560  19
  -1  -1   8 3297.83 268.486  21
  -1  -1   7 62.5335 45.8299  18
   1   1  -7 68.5040 62.8188   7
  -1  -1   7 187.497 95.6336  19
  -1  -1   7-17.4980 61.7841  17
   1   1  -7 47.2406 42.6738  15
  -1  -1   7 5.81205 67.0527  21
  -1  -1   7-11.7241 61.5457   5
  -1  -1   7 93.8570 70.1569  20
   1   1  -6 11900.7 418.075  11
   1   1  -6 12349.6 462.804   7
  -1  -1   6 12001.0 414.070  18
   1   1  -6 11873.9 423.725  15
  -1  -1   6 12345.4 497.921  19
  -1  -1   6 13101.4 506.694  17
  -1  -1   6 12787.7 512.300  20
  -1  -1   6 12328.3 487.724   5
  -1  -1   6 12683.6 498.941  21
  -1  -1   5 22082.9 676.935   5
   1   1  -5 21866.4 655.780   7
  -1  -1   5 22099.0 687.768  19
   1   1  -5 22213.1 603.905  11
  -1  -1   5 21288.7 603.275  18
  -1  -1   5 22845.5 692.459  17
  -1  -1   5 21025.4 503.525   1
  -1  -1   5 22332.9 684.837  21
  -1  -1   5 22075.6 684.405  16
  -1  -1   5 22072.6 693.756  20
  -1  -1   5 23684.8 681.011   7
   1   1  -5 22822.3 627.826  15
   1   1  -4 99991.1 2251.55  15
  -1  -1   4 106121. 2309.56   7
  -1  -1   4 102943. 2314.15  19
   1   1  -4 105576. 2329.35  19
   1   1  -4 106453. 2322.54  21
  -1  -1   4 102362. 2319.71  20
   1   1  -4 104449. 2314.62  16
   1   1  -4 106659. 2322.25  17
   1   1  -4 108323. 2316.98   5
   1   1  -4 105220. 2217.76  11
   1   1  -4 101903. 2283.37   7
  -1  -1   4 102229. 2307.70  16
  -1  -1   4 101106. 2308.30  21
  -1  -1   4 100326. 2150.34   1
  -1  -1   4 100324. 2300.31   5
  -1  -1   4 101720. 2307.47  17
  -1  -1   3 6452.06 266.788  20
   1   1  -3 6434.72 261.863  21
   1   1  -3 6365.43 243.534  15
   1   1  -3 6360.80 210.632  11
  -1  -1   3 6646.27 264.493   7
  -1  -1   3 6510.92 265.129  19
  -1  -1   3 6131.23 257.048  17
   1   1  -3 6454.69 262.869  17
  -1  -1   3 6553.06 262.526  16
  -1  -1   3 6491.47 261.495   5
   1   1  -3 6337.42 257.257   7
  -1  -1   3 6337.87 261.015  21
  -1  -1   3 6550.11 198.968   1
   1   1  -3 6817.40 267.490  16
   1   1  -3 7042.98 272.924  19
   1   1  -3 6485.67 264.273   5
  -1  -1   2 11770.5 352.612  21
   1   1  -2 11669.5 348.171  15
   1   1  -2 11510.3 357.586   7
  -1  -1   2 11783.6 357.413  20
  -1  -1   2 11313.2 349.365  17
   1   1  -2 12671.5 371.340  13
   1   1  -2 12483.9 359.995  21
  -1  -1   2 12566.4 367.876   7
  -1  -1   2 11309.2 348.993  16
  -1  -1   2 11858.4 315.593   1
   1   1  -2 12374.4 361.978  19
  -1  -1   2 11682.1 354.446  19
  -1  -1   2 10988.8 349.679   5
   1   1  -2 12107.8 360.095   5
   1   1  -2 11628.5 361.451  14
   1   1  -2 11725.8 298.310  11
   1   1  -2 12272.7 357.270  16
  -1  -1   2 12409.6 359.247  15
   1   1  -2 12222.4 356.864  17
   1   1  -1 2646.43 130.652  14
  -1  -1   1 3892.91 151.424  14
   1   1  -1 2340.16 125.031  13
  -1  -1   1 3699.22 134.165  16
   1   1  -1 2763.19 121.962  17
   1   1  -1 3133.76 126.467  16
   1   1  -1 3814.82 146.161  15
   1   1  -1 3552.83 145.221   7
  -1  -1   1 3448.72 131.652  17
   1   1  -1 3595.43 143.635   5
  -1  -1   1 3534.69 135.054  19
  -1  -1   1 3786.21 148.783  15
   1   1  -1 2716.58 121.661  21
   1   1  -1 2506.21 119.698  19
  -1  -1   1 3984.43 151.554  13
  -1  -1   1 3611.56 134.435  21
  -1  -1   1 3688.15 147.719   7
  -1  -1   1 3073.88 134.452   5
   1   1   2 286703. 1001.54   8
  -1  -1  -2 308091. 1166.46  11
   1   1   2 121354. 720.639   4
  -1  -1  -2 293125. 976.203  19
   1   1   2 292628. 1144.43  11
  -1  -1  -2 293865. 1140.20  18
  -1  -1  -2 292391. 991.192  20
   1   1   2 17931.1 280.843  12
  -1  -1  -2 292082. 1065.73  12
  -1  -1  -2 294202. 976.604  17
   1   1   2 285657. 1105.06  18
  -1  -1  -2 286861. 1124.36   9
  -1  -1  -2 291780. 966.639  21
  -1  -1  -2 293343. 1129.76   4
  -1  -1  -2 280066. 785.195  15
  -1  -1  -2 254492. 950.890   8
  -1  -1  -2 289751. 1057.67  10
   1   1   2 256524. 1082.20   6
  -1  -1  -2 292167. 1177.06   6
   1   1   3 22345.5 582.379  11
  -1  -1  -3 23079.5 530.673   1
  -1  -1  -3 22184.4 566.210  21
   1   1   3 21654.9 562.245  19
  -1  -1  -3 21551.3 580.432   9
  -1  -1  -3 23866.7 576.603  18
   1   1   3 23532.8 558.293  12
   1   1   3 22052.9 559.869   8
  -1  -1  -3 22532.6 567.822  19
   1   1   3 22083.1 566.475  20
  -1  -1  -3 22769.9 571.505   5
   1   1   3 21900.4 565.720  18
   1   1   3 21197.7 575.162   4
  -1  -1  -3 22291.3 499.517  15
   1   1   3 22455.9 563.125  21
  -1  -1  -3 22997.4 569.978  17
   1   1   3 22250.0 582.379   6
   1   1   3 21992.2 562.043  17
  -1  -1  -3 23205.5 575.063  20
  -1  -1  -3 22521.0 583.782  11
  -1  -1  -4 15217.2 386.698   7
   1   1   4 14465.5 454.961  20
  -1  -1  -4 15690.3 464.988  19
   1   1   4 14893.9 441.784  18
   1   1   4 14516.1 449.597  17
  -1  -1  -4 15847.0 464.376  17
  -1  -1  -4 16103.7 466.152  16
   1   1   4 16355.5 431.767  12
   1   1   4 15517.6 449.165   8
   1   1   4 14718.1 464.695  11
  -1  -1  -4 15929.9 470.867  20
  -1  -1  -4 16286.1 466.722  21
   1   1   4 15180.2 456.925  19
  -1  -1  -4 16398.2 474.308  11
   1   1   4 14735.3 465.750   4
  -1  -1  -4 16028.7 450.973  18
  -1  -1  -4 16042.1 463.323   5
   1   1   4 15288.5 467.341   6
  -1  -1  -4 15768.5 383.980   1
   1   1   4 14825.8 450.941  21
  -1  -1  -4 15046.0 464.220   9
   1   1   5 4585.91 231.431  19
   1   1   5 3669.02 209.844  17
   1   1   5 4083.35 203.052  18
  -1  -1  -5 4569.14 228.642  16
   1   1   5 3815.27 212.707  21
   1   1   5 4310.62 228.992  20
   1   1   5 4043.84 221.274  11
  -1  -1  -5 4225.47 169.289   7
  -1  -1  -5 4160.44 202.732  18
  -1  -1  -5 4703.75 233.677  17
  -1  -1  -5 4357.66 223.859   5
  -1  -1  -5 3978.81 215.580  11
  -1  -1  -5 4652.17 230.217  21
  -1  -1  -5 4091.09 222.481   9
   1   1   5 4305.39 192.750  12
  -1  -1  -5 4283.15 228.882  20
  -1  -1  -5 4429.06 228.072  19
  -1  -1  -5 4080.30 139.992   1
  -1  -1  -6 710.480 45.0908   1
   1   1   6 632.439 96.5828  19
   1   1   6 776.004 103.839   5
   1   1   6 800.595 106.259  11
   1   1   6 712.593 85.0248  12
   1   1   6 684.018 88.4606  18
  -1  -1  -6 698.228 73.1379   7
   1   1   6 700.650 101.401  17
  -1  -1  -6 762.874 91.8147  18
  -1  -1  -6 649.910 94.0752   9
   1   1   6 591.894 100.776  20
   1   1   6 756.372 106.074  21
  -1  -1  -7 919.827 91.7885   7
   1   1   7 1040.12 126.549   5
  -1  -1  -7 968.671 113.179  18
  -1  -1  -7 1068.84 129.692   9
   1   1   7 860.818 96.1427  12
   1   1   7 1138.43 135.566  19
   1   1   7 997.667 128.724  21
  -1  -1  -7 881.432 71.3593  15
   1   1   7 819.648 98.6288  18
   1   1   7 987.509 132.208  20
   1   1   7 933.181 121.252  17
   1   1   7 875.141 119.511  11
   1   1   8 8911.76 351.837  12
   1   1   8 9134.42 428.613   5
   1   1   8 9744.53 455.492  19
   1   1   8 9007.67 424.897  11
  -1  -1  -8 9794.71 439.281   9
  -1  -1  -8 9490.18 367.234   2
   1   1   8 9704.51 396.625  18
   1   1   8 9106.78 438.266  21
   1   1   8 9467.24 456.850  20
   1   1   8 9776.79 452.179  17
  -1  -1  -8 9935.48 359.420   7
  -1  -1  -8 10193.7 307.732  15
  -1  -1  -9 9928.27 462.496   9
   1   1   9 8549.35 435.794  11
   1   1   9 8306.87 354.120  12
   1   1   9 9054.51 402.894  18
  -1  -1  -9 9665.31 306.901  15
   1   1   9 9894.63 480.340  19
   1   1   9 9792.80 476.449  21
   1   1   9 8939.63 463.224  17
   1   1   9 9387.18 477.373  20
  -1  -1  -9 9784.02 379.471   2
   1   1   9 9065.94 450.997   5
  -1  -1  -9 9063.98 364.816   7
   1   1  10-29.5202 83.0618   6
  -1  -1 -10-32.2537 52.1124   7
   1   1  10 69.7507 52.5332  18
   1   1  10 36.4880 72.0860  11
   1   1  10-3.24686 64.3364  21
   1   1  10-61.6965 80.9300  17
   1   1  10 27.7358 70.8422  20
  -1  -1 -10 98.3970 50.3052   2
   1   1  10-5.68782 69.0381  19
   1   1  10-16.7471 75.5069   4
  -1  -1 -10 16.1567 61.6081   9
   1   1  10 221.286 110.515   8
   1   1  11 828.086 160.567   6
   1   1  11 604.420 135.228   8
   1   1  11 785.034 159.802   4
   1   1  11 745.604 155.337  21
  -1  -1 -11 823.510 114.361   7
   1   1  11 923.742 168.323  19
   1   1  11 655.203 148.250  20
   1   1  11 710.584 117.640  18
   1   1  11 432.030 121.643  17
  -1  -1 -11 683.575 137.764   9
   1   1  12 63.3068 82.8096  17
   1   1  12-44.5408 83.8874  21
   1   1  12 6.29171 90.2617   4
   1   1  12-37.2356 94.6870   8
   1   1  12-0.23712 78.2110  19
   1   1  12 98.4011 67.5924  20
   1   1  12 85.2566 77.7643   6
  -1  -1 -12 71.4910 63.9924   9
   1   1  13 3193.08 327.879   6
   1   1  13 3244.14 322.214   8
  -1  -1 -13 3221.26 315.602   9
   1   1  13 3282.73 348.009   4
   1   1  13 3837.52 366.627  17
   1   1  13 3323.60 349.421  19
  -1  -1 -13 3444.55 356.724  10
   1   1  13 3001.23 327.891  21
   1   1  13 3266.71 349.935  20
   1   1  14 409.051 158.097   4
   1   1  14 473.238 144.060   6
  -1  -1 -14 735.065 167.864  14
  -1  -1 -14 489.773 135.088   9
   1   1  14 267.078 116.863   8
   1   2 -13 491.451 153.769  14
   1   2 -12 185.772 104.503  14
  -1  -2  12 223.717 126.004  21
  -1  -2  12-31.4035 79.3602  17
  -1  -2  12 34.1939 95.2954  19
   1   2 -12 108.859 56.9815   7
  -1  -2  12 237.248 113.724  20
  -1  -2  12 52.6300 96.0369   5
  -1  -2  11 254.393 127.574  19
  -1  -2  11 94.8451 72.6035   5
  -1  -2  11 139.408 88.2597  20
   1   2 -11 85.7791 79.3543  14
  -1  -2  11 163.662 95.9824  21
  -1  -2  11 318.671 123.481  17
   1   2 -11 335.850 98.2037   7
  -1  -2  10 2163.75 254.845  21
   1   2 -10 1968.20 191.362   9
  -1  -2  10 2133.34 250.494  19
   1   2 -10 2396.52 194.606  15
  -1  -2  10 1689.84 236.419  20
  -1  -2  10 2464.75 274.423   5
  -1  -2  10 2172.09 258.600  17
   1   2 -10 2329.67 251.730  14
   1   2 -10 2100.94 218.858   7
  -1  -2   9 109.596 83.4877  21
   1   2  -9 89.4229 66.9678   7
  -1  -2   9 69.3976 84.0706   5
   1   2  -9 189.924 67.3757   9
  -1  -2   9 173.843 86.9364  17
  -1  -2   9 197.626 90.3655  20
  -1  -2   9 67.5423 40.1168  18
   1   2  -9 89.3158 46.9463  15
  -1  -2   9 104.295 76.5942  19
   1   2  -9 224.665 105.271  14
   1   2  -8 28.6164 46.0941   3
  -1  -2   8-0.17206 71.7973  19
  -1  -2   8-20.6691 72.0845   5
  -1  -2   8-28.0209 74.9664  20
  -1  -2   8 20.6423 35.2111  18
   1   2  -8 24.0507 52.9445   7
   1   2  -8 64.8019 52.2005   9
   1   2  -8-24.8923 82.9743  14
  -1  -2   8-24.1917 64.6212  17
   1   2  -8-18.4551 44.5934  15
  -1  -2   8 17.7422 78.7048  21
  -1  -2   7 5165.53 323.976  21
   1   2  -7 5119.33 318.118  14
  -1  -2   7 4536.06 313.150   5
  -1  -2   7 5312.11 328.620  17
   1   2  -7 5427.50 273.211  15
  -1  -2   7 4901.66 223.155  18
  -1  -2   7 4756.35 322.674  20
  -1  -2   7 4655.72 312.727  19
   1   2  -7 4256.28 215.360   3
   1   2  -7 5167.96 297.506   7
   1   2  -7 4697.00 241.634   9
   1   2  -7 4577.48 235.258  11
  -1  -2   6 121.198 27.2281   1
   1   2  -6 134.097 41.8518  11
   1   2  -6 97.4412 37.4714   3
   1   2  -6 117.971 39.9141   9
   1   2  -6 182.483 73.4098   7
  -1  -2   6 67.4521 62.5657  17
  -1  -2   6 128.720 63.2668  19
  -1  -2   6 12.9026 49.5391  20
  -1  -2   6 166.128 45.8856  18
  -1  -2   6 42.4364 63.1785   5
   1   2  -6 80.6859 41.4270  15
   1   2  -6 91.7334 64.3066  14
  -1  -2   6 230.148 80.2061  21
  -1  -2   5 5607.64 207.764   1
   1   2  -5 5901.86 301.994  14
  -1  -2   5 5793.88 301.060  21
   1   2  -5 5252.52 217.004  11
  -1  -2   5 6022.09 227.968  11
   1   2  -5 5480.54 219.889   9
  -1  -2   5 5853.66 307.440  20
  -1  -2   5 6149.99 310.413  19
   1   2  -5 5476.89 258.084  15
  -1  -2   5 5676.56 296.369  17
   1   2  -5 5813.86 211.981   3
  -1  -2   5 5280.99 300.287   5
   1   2  -5 5787.55 288.421   7
  -1  -2   5 5641.78 268.076  15
   1   2  -4 59433.3 1418.66  20
  -1  -2   4 59385.5 1404.53   7
   1   2  -4 55914.2 1399.95  14
  -1  -2   4 56683.3 1391.70  17
   1   2  -4 58629.6 1409.62  13
  -1  -2   4 60268.2 1372.86  15
   1   2  -4 55090.7 1380.69   7
  -1  -2   4 58141.2 1289.66   1
   1   2  -4 58712.5 1405.43  16
   1   2  -4 57398.5 1354.59  15
  -1  -2   4 55509.0 1399.46  20
  -1  -2   4 58383.4 1418.10   5
  -1  -2   4 56628.1 1396.11  19
   1   2  -4 60901.1 1261.34   3
   1   2  -4 58473.2 1405.52  17
   1   2  -4 59243.8 1412.40  19
   1   2  -4 58473.7 1402.50  21
   1   2  -4 56266.9 1265.14   9
  -1  -2   4 55688.1 1266.16  11
   1   2  -4 58801.7 1268.24  11
  -1  -2   4 55073.4 1386.52  21
   1   2  -3 19971.9 572.916  20
  -1  -2   3 19667.9 510.533   1
  -1  -2   3 19627.4 570.439   7
  -1  -2   3 18491.4 552.203  19
  -1  -2   3 19995.1 580.581  14
  -1  -2   3 18457.9 568.225   5
   1   2  -3 18844.4 506.656   1
   1   2  -3 20645.5 588.113   5
   1   2  -3 19042.9 450.198  11
   1   2  -3 19464.5 559.410  21
  -1  -2   3 18585.7 557.500  20
   1   2  -3 18662.3 566.665  14
   1   2  -3 19370.0 563.065  19
  -1  -2   3 18713.4 568.167  13
   1   2  -3 19033.1 450.593   9
   1   2  -3 18420.7 559.042   7
   1   2  -3 18675.4 542.053  15
   1   2  -3 19240.8 455.316   3
   1   2  -3 19321.6 558.763  17
   1   2  -3 19919.2 562.200  16
  -1  -2   3 18892.0 451.479  11
  -1  -2   3 18959.5 554.843  17
  -1  -2   3 19774.5 553.605  15
   1   2  -3 20156.0 578.509  13
  -1  -2   3 19085.3 554.767  21
   1   2  -2 11693.9 383.455   7
  -1  -2   2 12939.3 396.207   7
  -1  -2   2 12444.3 361.445   1
   1   2  -2 12099.6 369.514  19
   1   2  -2 12547.5 393.437  13
  -1  -2   2 11628.1 384.074  13
   1   2  -2 12182.5 389.610   5
  -1  -2   2 12154.9 297.071   3
  -1  -2   2 11790.5 294.199   2
   1   2  -2 11793.3 373.302  15
   1   2  -2 11672.4 355.201   1
  -1  -2   2 11608.9 362.192  19
   1   2  -2 11738.6 296.860   3
  -1  -2   2 12543.8 384.398  15
  -1  -2   2 11713.4 361.344  21
  -1  -2   2 11843.9 383.800   5
   1   2  -2 12490.4 370.273  21
   1   2  -2 12556.7 374.996  20
   1   2  -2 11548.5 382.400  14
   1   2  -2 12594.3 370.139  17
   1   2  -2 12032.9 364.644  16
  -1  -2   2 11921.2 361.670  17
  -1  -2   2 12770.3 398.600  14
  -1  -2   2 11553.7 367.340  20
  -1  -2   1 15734.3 406.543  21
   1   2  -1 16164.3 411.692  21
  -1  -2   1 15878.6 450.915  13
  -1  -2   1 16289.2 454.841   7
   1   2  -1 16576.4 415.569  19
  -1  -2   1 16466.5 446.680   1
  -1  -2   1 15732.7 408.239  17
  -1  -2   1 16037.1 397.540   2
   1   2  -1 15803.1 439.295   1
  -1  -2   1 15797.9 382.365   3
  -1  -2   1 15138.6 437.462   5
  -1  -2   1 16126.0 407.559  18
   1   2  -1 16287.8 415.965  20
   1   2  -1 16317.2 445.006   5
   1   2  -1 16139.9 409.840  17
   1   2  -1 15808.9 409.046  16
   1   2  -1 16670.4 456.533  13
   1   2  -1 15334.4 447.959  14
   1   2  -1 15557.9 446.478  15
   1   2  -1 15379.6 449.211   7
  -1  -2   1 15507.1 409.816  20
  -1  -2   1 15422.6 407.523  19
   1   2  -1 16232.5 383.452   3
  -1  -2   1 16455.9 455.350  15
  -1  -2   1 16942.9 461.137  14
   1   2   0 16005.6 401.510   7
  -1  -2   0 16280.7 403.231   7
  -1  -2   0 15883.0 328.662  11
   1   2   0 11415.6 312.455  17
  -1  -2   0 14985.9 321.874  19
  -1  -2   0 14991.4 321.295  21
  -1  -2   0 14957.9 323.266  20
  -1  -2   0 16587.1 415.252   1
  -1  -2   0 15775.8 401.365  13
  -1  -2   0 15781.8 409.737  15
  -1  -2   0 15250.4 364.026   3
  -1  -2   0 15748.9 384.847  18
   1   2   0 11556.5 313.506  19
  -1  -2   0 15340.1 400.613   6
  -1  -2   0 15013.6 375.685   5
   1   2   0 10812.4 312.280  20
   1   2   0 11312.4 311.871  16
  -1  -2   0 16067.9 407.051  14
   1   2   0 11685.5 313.331  21
   1   2   0 15413.0 403.522  15
   1   2   0 13376.8 365.721  18
   1   2   0 15602.2 402.253  14
  -1  -2   0 14926.6 322.019  17
   1   2   0 15983.1 408.628   1
   1   2   1 13821.8 368.645  14
   1   2   1 14039.7 366.838   6
   1   2   1 14193.2 372.403  15
  -1  -2  -1 14532.5 384.981   1
  -1  -2  -1 14881.1 377.039  15
  -1  -2  -1 13934.9 331.972   4
  -1  -2  -1 14726.7 378.002  18
  -1  -2  -1 14115.8 341.772  11
   1   2   1 13972.3 369.646  18
   1   2   1 14250.2 342.616  11
  -1  -2  -1 15069.0 378.975  14
  -1  -2  -1 14586.7 377.748   8
   1   2   1 12726.8 349.901   7
   1   2   1 14645.5 385.661   1
   1   2   1 14403.5 374.454   8
  -1  -2  -1 14750.4 372.422   6
  -1  -2  -1 14818.6 364.091   7
  -1  -2  -2 20022.6 488.529   4
   1   2   2 20397.1 524.004  11
  -1  -2  -2 21176.1 523.686  15
  -1  -2  -2 21619.2 527.524   6
  -1  -2  -2 20032.7 456.756  19
  -1  -2  -2 19308.9 454.339  16
   1   2   2 19699.4 454.761  20
  -1  -2  -2 20539.0 523.347  11
   1   2   2 19817.3 519.463   6
  -1  -2  -2 21339.2 533.615   1
  -1  -2  -2 19744.1 455.727  17
  -1  -2  -2 20532.5 534.818   8
   1   2   2 19929.1 453.267  19
  -1  -2  -2 21677.3 534.126  14
   1   2   2 20352.4 487.796   4
   1   2   2 18930.5 451.629  17
   1   2   2 20608.9 531.296   1
   1   2   2 19498.9 451.913  21
   1   2   2 20107.3 540.596  18
   1   2   2 19594.7 528.991   8
  -1  -2  -2 20160.2 456.557  21
  -1  -2  -2 20347.1 502.819   7
  -1  -2  -2 20929.8 511.501  12
  -1  -2  -2 21811.4 552.052  18
   1   2   3 20372.4 560.286   6
  -1  -2  -3 21393.0 539.739  12
  -1  -2  -3 22554.1 572.242   6
  -1  -2  -3 22204.9 559.473   1
  -1  -2  -3 22048.8 583.888  11
   1   2   3 21221.3 526.761  17
  -1  -2  -3 21963.9 597.343  18
  -1  -2  -3 21240.9 528.698  17
   1   2   3 21539.5 528.495  19
   1   2   3 21145.5 525.394  21
   1   2   3 21505.3 591.253  18
   1   2   3 21623.1 543.272   4
   1   2   3 21129.6 581.799  11
   1   2   3 22330.0 543.200  12
  -1  -2  -3 21039.9 545.338   4
   1   2   3 20857.2 577.855   8
  -1  -2  -3 21306.7 527.679  16
   1   2   3 21259.4 530.527  20
  -1  -2  -3 20644.3 528.857  19
  -1  -2  -3 22651.2 588.799   8
  -1  -2  -3 22099.7 550.746  15
   1   2   3 21215.9 557.662   1
  -1  -2  -3 21110.6 529.138  21
  -1  -2  -3 21663.7 535.011  20
  -1  -2  -4 13029.6 394.782  19
  -1  -2  -4 12532.7 405.754   6
   1   2   4 12276.7 423.757  11
   1   2   4 13058.4 406.892   6
   1   2   4 13072.6 367.508  12
  -1  -2  -4 12297.4 369.554   1
   1   2   4 12779.7 392.638  20
   1   2   4 11936.8 419.981  18
  -1  -2  -4 12771.2 365.167  12
   1   2   4 12674.0 373.887   1
   1   2   4 12350.5 384.413  19
  -1  -2  -4 12907.9 379.984   5
  -1  -2  -4 13953.1 433.829  11
   1   2   4 12678.7 384.772  17
  -1  -2  -4 13104.2 390.724  16
  -1  -2  -4 13362.7 399.818  20
  -1  -2  -4 12993.1 391.014  17
   1   2   4 12537.0 382.816  21
   1   2   4 12290.0 389.745   4
  -1  -2  -4 12981.5 420.960   8
  -1  -2  -4 13022.0 391.736  21
   1   2   4 12349.8 414.259   8
  -1  -2  -4 13375.9 432.174  18
   1   2   5 4712.93 224.205  17
   1   2   5 4377.85 233.728  18
  -1  -2  -5 4437.81 223.266  19
  -1  -2  -5 4878.11 227.228  21
  -1  -2  -5 4390.41 226.313   2
  -1  -2  -5 4480.22 211.115   5
  -1  -2  -5 4374.23 222.441  20
   1   2   5 4016.16 213.464   4
  -1  -2  -5 4784.51 226.847  17
   1   2   5 4458.99 185.059   1
   1   2   5 4332.18 241.072  11
   1   2   5 4566.10 187.386  12
   1   2   5 4384.91 219.541  19
  -1  -2  -5 4164.04 178.551   1
   1   2   5 4842.13 232.190  20
  -1  -2  -5 4287.25 234.704  18
  -1  -2  -5 4590.86 221.810  16
   1   2   5 4404.72 234.608   8
   1   2   5 4410.18 217.689  21
   1   2   5 4501.44 226.301   6
   1   2   6 739.480 108.968  11
  -1  -2  -6 870.363 99.7749   2
   1   2   6 591.690 96.6392  20
   1   2   6 651.231 69.6816  12
   1   2   6 583.349 87.6750  21
   1   2   6 700.516 99.8544  17
  -1  -2  -6 797.562 98.3648   5
   1   2   6 460.817 85.1985   6
  -1  -2  -6 735.143 69.4250   1
   1   2   6 719.200 95.6684  19
   1   2   6 610.147 94.9835  18
   1   2   6 586.810 95.9852   8
   1   2   6 651.671 94.6163   4
   1   2   7 2325.42 190.393  20
   1   2   7 2231.70 183.889  21
  -1  -2  -7 2116.12 152.382   7
  -1  -2  -7 2197.99 112.621   1
  -1  -2  -7 2479.65 180.336   2
   1   2   7 2385.12 186.571  17
   1   2   7 2183.95 182.307   6
   1   2   7 2889.69 214.383   8
   1   2   7 2159.10 181.085  19
   1   2   7 2176.36 194.647  11
   1   2   7 2069.40 180.707   4
   1   2   7 2230.44 136.198  12
   1   2   7 2720.45 202.975  18
   1   2   8 624.159 113.535  21
   1   2   8 547.817 102.320  20
   1   2   8 543.272 102.527  18
   1   2   8 487.638 98.9199   6
   1   2   8 420.938 62.7758  12
  -1  -2  -8 477.665 78.8056   7
   1   2   8 440.588 99.5212  17
   1   2   8 525.286 112.806  11
   1   2   8 425.497 92.2282  19
   1   2   8 605.146 117.910   8
  -1  -2  -8 464.023 84.4628   2
   1   2   8 583.261 107.047   4
   1   2   9 8294.14 438.534   4
   1   2   9 8631.84 449.811  20
  -1  -2  -9 9307.35 402.224   2
   1   2   9 9751.92 446.108  18
   1   2   9 9138.38 441.045   6
   1   2   9 9141.79 455.383  19
   1   2   9 9243.46 454.014  17
   1   2   9 9283.47 454.244  21
  -1  -2  -9 8814.72 451.868   9
  -1  -2  -9 9442.76 376.821   7
   1   2   9 8872.24 452.574   8
   1   2   9 8355.04 322.898  12
  -1  -2 -10 5898.30 317.025   2
   1   2  10 5424.46 363.917  19
   1   2  10 5785.09 374.634  17
   1   2  10 6046.17 356.385  18
  -1  -2 -10 5326.32 360.399   9
   1   2  10 5028.75 353.468  21
   1   2  10 5692.41 373.717   8
   1   2  10 5057.85 359.373  20
  -1  -2 -10 5665.84 294.404   7
   1   2  10 5795.06 375.441   4
   1   2  10 5544.51 354.470   6
  -1  -2 -11 1213.85 146.871   2
   1   2  11 1606.41 206.939  17
   1   2  11 1477.11 181.942  18
   1   2  11 1408.71 198.051   8
  -1  -2 -11 1278.02 144.114   7
   1   2  11 1231.54 192.939  20
   1   2  11 1351.22 191.712  19
   1   2  11 1218.62 180.018   6
   1   2  11 1377.35 197.542  21
   1   2  11 997.913 171.320   4
  -1  -2 -11 1371.17 196.107   9
   1   2  12-13.7873 72.6648   6
  -1  -2 -12 52.2815 77.1230   9
   1   2  12-52.9354 86.6639   4
   1   2  12 80.2702 98.1293  19
   1   2  12 18.3425 90.6567  20
   1   2  12 96.6383 103.241  17
   1   2  12 113.331 66.4184  18
   1   2  12 41.8174 70.2458  21
   1   2  12 37.2364 80.2190   8
   1   2  13-56.0040 82.7447  17
   1   2  13-5.50125 80.4045   6
   1   2  13 104.640 86.0548  21
  -1  -2 -13 309.251 124.435   9
   1   2  13 174.195 114.339   4
   1   2  13 68.2717 74.7470  20
   1   2  13 41.9942 90.3900  19
   1   2  13 105.217 103.830   8
   1   2  14 87.9146 94.2841  17
   1   2  14 166.032 103.494   6
   1   2  14 265.345 132.874   4
   1   2  14 345.885 128.964  20
  -1  -2 -14 40.2431 100.154   9
   1   2  14-42.7036 87.8868   8
   1   2  14 0.28400 77.3174  21
   1   2  14 55.0762 73.9722  19
   1   3 -13 182.960 112.814  14
  -1  -3  12 71.8915 107.497  17
   1   3 -12 112.880 87.1576   7
   1   3 -12-27.6398 82.1125  14
  -1  -3  12 17.6837 85.2461  21
   1   3 -12 83.3296 75.9768  10
  -1  -3  12 117.743 102.197  20
  -1  -3  12-98.7606 101.676   5
  -1  -3  12 39.4191 88.1144  19
   1   3 -11-27.0669 65.1900   7
   1   3 -11 99.3840 82.7641  14
  -1  -3  11-0.52149 102.318  17
  -1  -3  11 179.652 99.9757  19
  -1  -3  11 137.629 94.8258  20
  -1  -3  11-133.175 134.104   5
  -1  -3  11 103.741 93.2225  21
   1   3 -10-29.1671 92.5459  14
  -1  -3  10 66.4075 103.222  19
  -1  -3  10 31.8123 93.3864   5
  -1  -3  10 12.7165 86.8849  20
   1   3 -10 0.93154 65.6518   7
  -1  -3  10-0.23133 90.6675  17
  -1  -3  10 34.6740 86.8884  21
   1   3  -9-37.6887 52.5755   7
  -1  -3   9 3.38532 69.1505  20
   1   3  -9-20.9236 66.9152  14
  -1  -3   9-32.9435 83.7106  19
  -1  -3   9 26.5269 58.9614  21
  -1  -3   9-51.0787 72.7754  17
  -1  -3   9-7.05465 77.2234   5
   1   3  -9 130.019 62.7021  15
   1   3  -9-9.35469 36.5923   9
   1   3  -8 20.3926 77.2356  14
   1   3  -8 30.0086 41.6360   9
   1   3  -8 59.4233 66.2950   7
  -1  -3   8 62.9814 93.3431   5
  -1  -3   8 10.3877 78.0336  17
  -1  -3   8 49.3580 79.8500  21
  -1  -3   8 94.2750 62.3420  19
  -1  -3   8-40.1346 80.0586  20
   1   3  -8-40.5815 48.9505  15
   1   3  -7 10287.6 360.006   9
   1   3  -7 10433.3 467.905   7
   1   3  -7 9778.65 471.758  14
  -1  -3   7 10177.0 488.819  19
  -1  -3   7 9928.71 359.732  11
   1   3  -7 8840.30 339.752  11
  -1  -3   7 9991.26 498.027   5
  -1  -3   7 9684.39 298.203  18
   1   3  -7 9290.39 343.126   3
  -1  -3   7 9729.52 481.042  17
  -1  -3   7 10880.0 509.804  20
   1   3  -7 10392.2 421.253  15
  -1  -3   7 9119.79 329.270   1
  -1  -3   7 10123.7 483.624  21
  -1  -3   6-36.3653 69.0461  20
  -1  -3   6-2.48422 19.6655  18
   1   3  -6-42.8054 57.6367   7
   1   3  -6 34.3463 37.8301   1
  -1  -3   6 71.0975 40.6378   1
   1   3  -6-14.5920 61.3283  14
  -1  -3   6 41.0527 65.1209   5
   1   3  -6 40.3597 47.4353  15
   1   3  -6 0.95777 29.4799  11
  -1  -3   6 20.3622 31.7649  11
  -1  -3   6-2.91437 56.3161  21
  -1  -3   6 77.8107 59.6605  19
   1   3  -6 20.6402 28.0064   3
  -1  -3   6-14.1362 65.8673  17
   1   3  -6 48.9309 30.6195   9
   1   3  -5 1105.57 131.130   7
   1   3  -5 1063.79 134.096  14
   1   3  -5 1174.80 92.3035   3
  -1  -3   5 1261.78 148.551  20
   1   3  -5 1183.20 85.0251   9
  -1  -3   5 1139.35 132.130  21
  -1  -3   5 1090.12 82.5290  11
  -1  -3   5 1024.56 99.6976   1
  -1  -3   5 1062.80 129.931  17
  -1  -3   5 1051.50 129.621  19
  -1  -3   5 1179.95 149.604   5
   1   3  -5 988.915 78.2494  11
   1   3  -5 1057.19 115.895  15
   1   3  -5 1015.88 101.501   1
   1   3  -4 1478.22 99.4345   3
   1   3  -4 1380.64 118.630   1
  -1  -3   4 1613.91 87.5687  11
  -1  -3   4 1566.70 86.1250  18
  -1  -3   4 1582.93 146.362  20
  -1  -3   4 1471.42 141.024  17
  -1  -3   4 1698.84 151.947  19
  -1  -3   4 1589.25 156.615   5
   1   3  -4 1488.06 147.373   7
   1   3  -4 1597.20 85.9764   9
   1   3  -4 1404.51 129.960  15
  -1  -3   4 1532.70 125.450   1
   1   3  -4 1401.81 141.239  14
  -1  -3   4 1061.88 142.241  13
  -1  -3   4 1569.97 138.983  15
  -1  -3   4 1897.38 156.002  21
   1   3  -3 23428.3 653.158  21
   1   3  -3 23551.8 657.695  19
   1   3  -3 21513.1 671.149   7
  -1  -3   3 21600.5 670.122   5
  -1  -3   3 21183.6 629.769  21
   1   3  -3 21835.6 669.324  14
   1   3  -3 22007.9 650.052  15
  -1  -3   3 22076.7 638.260  19
   1   3  -3 22332.0 514.701   9
   1   3  -3 22392.9 567.884   3
   1   3  -3 23585.6 651.904  16
  -1  -3   3 22559.1 567.400   3
  -1  -3   3 21899.8 510.920  11
   1   3  -3 23170.9 659.591  20
  -1  -3   3 23936.0 652.871  17
  -1  -3   3 23136.5 637.998   1
  -1  -3   3 22291.1 672.662  13
  -1  -3   3 23954.4 669.209  15
   1   3  -3 23370.6 650.571  17
   1   3  -3 21934.3 631.103   1
  -1  -3   3 22187.4 543.251  18
  -1  -3   3 22389.4 645.226  20
   1   3  -2 2254.46 165.042   7
  -1  -3   2 2427.06 170.467  14
  -1  -3   2 2244.75 159.385   5
  -1  -3   2 2200.55 81.2602  11
  -1  -3   2 2160.30 138.289  20
  -1  -3   2 2153.07 159.696  13
   1   3  -2 2142.87 155.394  13
  -1  -3   2 2245.20 121.282   3
   1   3  -2 2346.15 122.393   3
   1   3  -2 2492.22 143.899  16
  -1  -3   2 2392.17 121.644   2
   1   3  -2 2206.92 152.975   1
   1   3  -2 2198.22 154.163   5
  -1  -3   2 2115.19 134.989  17
  -1  -3   2 2551.66 165.368  15
  -1  -3   2 2269.59 152.180   1
   1   3  -2 2412.35 142.895  17
  -1  -3   2 2097.37 111.702  18
   1   3  -2 2102.19 134.998  21
   1   3  -2 2502.79 145.716  19
  -1  -3   2 2093.08 80.4639   9
  -1  -3   2 2138.88 134.037  21
   1   3  -2 2274.57 160.026  14
   1   3  -2 2378.16 144.639  20
  -1  -3   2 2147.17 136.776  19
   1   3  -2 2088.29 154.479  15
  -1  -3   2 2295.69 160.850   7
  -1  -3   1 17551.3 472.992   3
  -1  -3   1 18551.6 535.922   1
  -1  -3   1 18548.1 539.209  14
  -1  -3   1 17087.3 458.117  19
   1   3  -1 17379.1 528.488   1
   1   3  -1 17464.3 466.487  18
   1   3  -1 17588.5 423.518  10
   1   3  -1 17931.7 533.757  15
  -1  -3   1 18058.0 474.403  18
  -1  -3   1 19155.5 546.869   7
   1   3  -1 16916.7 528.320   7
  -1  -3   1 16797.6 459.047  20
  -1  -3   1 17266.7 500.962   5
  -1  -3   1 18310.5 538.341  15
   1   3  -1 17516.5 531.116  14
   1   3  -1 17643.8 505.402   5
  -1  -3   1 18105.0 533.761  13
   1   3  -1 16660.7 458.056  17
  -1  -3   1 17235.5 412.350   9
  -1  -3   1 17583.1 480.880   2
  -1  -3   1 17495.1 458.258  21
   1   3  -1 18272.1 477.675   3
   1   3  -1 18144.7 467.553  19
   1   3  -1 17197.6 462.169  21
   1   3  -1 18034.8 470.171  20
  -1  -3   0 47433.2 1102.53   1
  -1  -3   0 43833.7 966.744  19
   1   3   0 44578.5 973.485  16
  -1  -3   0 43708.1 967.093  20
  -1  -3   0 46704.3 1097.76  15
  -1  -3   0 47410.0 1096.80  14
   1   3   0 41775.3 1079.54  15
   1   3   0 45214.7 974.284  20
   1   3   0 46509.3 1047.09   3
  -1  -3   0 44711.0 1042.78   3
   1   3   0 44976.1 971.278  19
  -1  -3   0 44292.3 1054.23   2
  -1  -3   0 43216.4 1022.78   5
  -1  -3   0 44155.4 1077.93  13
   1   3   0 44018.6 1037.57  18
   1   3   0 45275.4 1093.39   1
  -1  -3   0 45817.4 1077.62   6
  -1  -3   0 44238.7 966.667  21
   1   3   0 43482.8 1080.00   7
   1   3   0 42059.1 1076.22  14
   1   3   0 46466.7 1030.34   5
  -1  -3   0 47078.1 1091.76   7
   1   3   0 44350.9 970.858  17
   1   3   0 45273.5 970.688  21
  -1  -3   0 45042.2 1046.38  18
   1   3   1 3866.15 115.634  19
   1   3   1 3835.55 116.022  20
   1   3   1 3747.58 197.253  14
  -1  -3  -1 3697.90 186.940   3
  -1  -3  -1 3942.99 198.095   2
  -1  -3  -1 4153.50 194.876  18
   1   3   1 4000.37 116.968  21
   1   3   1 3967.73 117.208  16
  -1  -3  -1 4004.84 168.237  11
   1   3   1 4010.80 118.124  17
  -1  -3  -1 4192.70 157.361   5
   1   3   1 3834.08 188.715  18
  -1  -3  -1 4428.31 207.826   8
   1   3   1 3612.50 201.024   1
  -1  -3  -1 4215.32 200.780   7
  -1  -3  -1 3912.86 118.861  16
  -1  -3  -1 3759.69 113.385  20
  -1  -3  -1 4359.89 208.949  15
  -1  -3  -1 4058.69 151.208   4
   1   3   1 3663.42 196.781  15
   1   3   1 3975.39 188.014   6
  -1  -3  -1 4301.63 206.631  14
  -1  -3  -1 4118.30 207.643   1
  -1  -3  -1 4102.44 191.893   6
   1   3   1 4122.21 200.452   7
  -1  -3  -2 4267.59 209.740  14
  -1  -3  -2 3771.48 202.320   2
   1   3   2 3668.65 180.040   6
   1   3   2 3999.00 121.203  20
   1   3   2 3895.22 203.110   8
   1   3   2 3586.22 197.013   1
   1   3   2 3752.98 121.434  16
  -1  -3  -2 3979.99 203.037   1
  -1  -3  -2 3340.73 189.650   3
   1   3   2 3926.14 143.731   4
   1   3   2 3717.30 123.193  19
  -1  -3  -2 4112.60 205.346   8
   1   3   2 3604.14 120.822  17
   1   3   2 3712.53 121.455  21
  -1  -3  -2 3832.56 202.360  18
  -1  -3  -2 3697.82 121.282  16
  -1  -3  -2 4011.66 184.902  11
  -1  -3  -2 3694.65 122.073  17
   1   3   2 3570.67 196.312  18
  -1  -3  -2 3801.64 182.115   6
  -1  -3  -2 4053.56 202.477  15
  -1  -3  -2 3754.78 141.175   4
  -1  -3  -2 3867.50 190.431   7
  -1  -3  -3 1363.83 122.026   8
   1   3   3 1122.68 78.1009  19
  -1  -3  -3 1240.21 114.691  14
   1   3   3 1187.82 102.338   6
  -1  -3  -3 1458.37 120.211  15
  -1  -3  -3 1287.34 105.491   6
   1   3   3 1277.45 79.4618  21
  -1  -3  -3 1165.04 99.1244  12
  -1  -3  -3 1235.61 113.772   1
  -1  -3  -3 1390.26 129.391  18
   1   3   3 1332.33 119.590   1
  -1  -3  -3 1168.44 118.371   2
   1   3   3 1277.39 79.3025  17
  -1  -3  -3 1310.89 81.5709  17
   1   3   3 1230.12 80.2797   4
   1   3   3 1210.77 76.6846  16
  -1  -3  -3 1350.92 80.7373  16
  -1  -3  -3 1229.26 109.845  11
   1   3   3 1400.20 127.312   8
  -1  -3  -3 1264.73 81.4481   4
   1   3   3 1232.38 122.917  18
  -1  -3  -3 1204.37 78.0871  21
   1   3   3 1260.09 81.5102  20
  -1  -3  -4 431.896 58.9004  16
  -1  -3  -4 438.806 74.0961   1
   1   3   4 415.073 60.8621  16
   1   3   4 287.086 63.4639   6
   1   3   4 334.430 84.3527   8
   1   3   4 286.390 52.5179  19
   1   3   4 268.853 51.2816   4
  -1  -3  -4 323.165 63.8882  15
  -1  -3  -4 322.485 58.7914   6
   1   3   4 284.048 55.4470  20
  -1  -3  -4 342.070 56.6726  19
   1   3   4 346.342 53.6085  17
   1   3   4 363.177 56.5163  21
  -1  -3  -4 300.990 55.1730  17
  -1  -3  -4 326.907 47.1341   5
   1   3   4 298.045 81.6116  18
  -1  -3  -4 374.860 84.1505   2
  -1  -3  -4 291.685 70.6972  11
  -1  -3  -4 287.210 49.8044  21
   1   3   4 244.484 72.0924   1
  -1  -3  -4 469.929 65.6781  12
  -1  -3  -4 332.918 67.0148   8
   1   3   5 9504.50 336.378  17
   1   3   5 8977.57 333.594  19
   1   3   5 8968.34 325.387   4
  -1  -3  -5 8806.03 335.954   1
  -1  -3  -5 9063.46 380.742   2
   1   3   5 9028.74 336.922  20
  -1  -3  -5 9042.72 334.574  17
   1   3   5 9385.07 334.748  21
   1   3   5 8915.90 382.229   8
   1   3   5 9127.67 395.311  18
  -1  -3  -5 9191.99 307.739   5
   1   3   5 9196.98 347.138   6
  -1  -3  -5 9214.51 305.541  12
   1   3   5 9084.86 331.530  16
  -1  -3  -5 9381.09 349.908   6
  -1  -3  -5 9100.34 340.906  19
  -1  -3  -5 9676.55 339.423  16
   1   3   5 9090.60 339.039   1
  -1  -3  -5 8892.72 332.843  21
   1   3   6 2046.96 156.986  21
  -1  -3  -6 2012.71 156.193  21
   1   3   6 2300.39 165.403   6
  -1  -3  -6 2182.27 130.701  12
  -1  -3  -6 2037.75 140.397   5
   1   3   6 2341.30 193.484   8
  -1  -3  -6 2349.33 168.841  19
   1   3   6 2200.53 162.254  17
  -1  -3  -6 2021.35 174.811   2
   1   3   6 2111.88 163.302  20
  -1  -3  -6 2106.80 143.031   1
   1   3   6 2145.98 146.056   1
   1   3   6 2376.71 195.368  18
   1   3   6 2149.23 156.946   4
   1   3   6 2163.06 162.641  19
  -1  -3  -6 1957.09 156.091  16
  -1  -3  -6 1910.90 154.292  17
   1   3   7 116.875 59.8289  20
   1   3   7 86.4396 51.8680  21
   1   3   7 92.7460 49.6904   6
   1   3   7 34.3355 41.9125  17
   1   3   7 32.4187 55.4621  18
   1   3   7 54.1676 39.2581   1
  -1  -3  -7 55.9909 36.8275   5
   1   3   7 30.0784 51.0427  19
  -1  -3  -7 78.1443 34.7092   1
   1   3   7 30.7438 44.9466   4
  -1  -3  -7 0.92293 45.3176   2
   1   3   7 51.8161 57.5585   8
   1   3   8 43292.5 1171.19  19
   1   3   8 42675.9 1145.07   6
   1   3   8 42061.3 1162.41  17
   1   3   8 41549.2 1203.69  18
  -1  -3  -8 38773.8 999.740   1
   1   3   8 42276.2 1163.71  21
   1   3   8 41123.5 1167.43  20
   1   3   8 44003.9 1227.31   8
   1   3   8 42091.9 1147.24   4
  -1  -3  -8 41066.0 1151.66   2
  -1  -3  -9 8993.85 435.191   2
   1   3   9 9754.86 472.853  20
   1   3   9 10324.0 459.640   6
   1   3   9 10205.4 472.365  17
  -1  -3  -9 9902.15 414.332   7
   1   3   9 9462.88 486.990   8
   1   3   9 9405.72 476.145  18
   1   3   9 9527.58 461.985  19
   1   3   9 9478.36 451.091   4
   1   3   9 9990.58 467.439  21
   1   3  10 5368.50 362.805  18
   1   3  10 5241.42 354.112  19
   1   3  10 5299.18 335.462   6
   1   3  10 4940.97 345.404  21
  -1  -3 -10 5809.44 312.236   7
   1   3  10 5241.21 355.563  17
   1   3  10 4629.66 339.988  20
   1   3  10 4782.01 332.665   4
  -1  -3 -10 4865.67 316.618   2
   1   3  10 5640.64 382.557   8
   1   3  11-82.9240 87.2304  21
  -1  -3 -11-10.1386 53.7420   7
   1   3  11-33.8303 71.3438  18
   1   3  11-75.2291 91.6737  20
   1   3  11 97.3103 71.8464   6
   1   3  11 49.0284 82.6712   8
   1   3  11 49.4144 68.1170  17
   1   3  11-60.0672 78.5228   4
  -1  -3 -11-52.7809 86.8762   9
  -1  -3 -11 29.9448 66.4148   2
   1   3  11 33.9652 73.3862  19
   1   3  12 4289.04 353.022   4
   1   3  12 4413.90 358.620  18
   1   3  12 4719.47 377.866  19
  -1  -3 -12 4528.92 377.778   9
   1   3  12 4286.76 356.379  21
   1   3  12 5080.29 395.084  20
   1   3  12 4680.33 371.392  17
   1   3  12 4244.68 371.832   8
   1   3  12 4404.09 346.415   6
  -1  -3 -13 158.380 111.849   9
   1   3  13 306.660 118.230  19
   1   3  13 159.426 96.8434  18
   1   3  13 211.322 112.479  20
   1   3  13 291.072 114.634   4
   1   3  13 152.887 97.6756   8
   1   3  13 125.991 103.653  17
   1   3  13 188.247 92.2459  21
   1   3  13 219.227 101.767   6
   1   3  14 6556.81 510.962   8
   1   3  14 7333.97 534.637  20
  -1  -3 -14 6664.38 479.754   3
   1   3  14 6858.23 512.069  19
   1   3  14 7541.81 534.893  17
  -1  -3 -14 6894.14 512.519   9
   1   3  14 5789.10 466.736   4
   1   3  14 7044.10 512.991  21
   1   4 -12 6861.26 503.661  14
   1   4 -12 8382.44 565.125  10
   1   4 -11-21.1599 86.4060  10
  -1  -4  11-44.6274 102.216  20
  -1  -4  11 163.504 77.0365  19
   1   4 -11 39.9479 80.8812   7
  -1  -4  11 74.9410 106.590  17
  -1  -4  11 89.2855 124.454   5
  -1  -4  11-35.9288 120.181  21
   1   4 -11-25.6480 89.2636  14
  -1  -4  10 3263.57 326.928  21
   1   4 -10 3384.84 311.881   7
  -1  -4  10 3664.56 347.084  19
  -1  -4  10 2835.24 313.769  20
  -1  -4  10 3770.30 363.017   5
   1   4 -10 3534.69 320.579  10
  -1  -4  10 3623.78 339.965  17
   1   4 -10 3680.71 335.475  14
   1   4  -9-76.5178 85.6671   7
  -1  -4   9 18.7079 97.5182   5
  -1  -4   9 174.548 113.346  20
  -1  -4   9-11.3752 82.1656  21
   1   4  -9-110.359 107.727  14
   1   4  -9-50.4840 82.4587  10
   1   4  -9-37.5760 54.9066  15
  -1  -4   9 83.1074 92.3979  19
  -1  -4   9-23.8104 80.2572  17
   1   4  -8 308.826 99.8612  14
  -1  -4   8 777.771 153.543  20
  -1  -4   8 745.989 149.968  21
  -1  -4   8 752.922 142.115  19
  -1  -4   8 501.605 124.379  17
   1   4  -8 625.911 135.418  10
  -1  -4   8 452.449 110.616   5
   1   4  -8 478.913 101.931  15
   1   4  -8 552.379 126.572   7
  -1  -4   7 43481.8 1264.97  21
  -1  -4   7 41823.3 1025.21  11
  -1  -4   7 43089.7 1269.80  19
   1   4  -7 43230.6 1262.88  14
   1   4  -7 41814.7 1093.59   1
   1   4  -7 44646.5 1033.76   9
   1   4  -7 42534.0 1176.92  15
  -1  -4   7 42032.7 1270.40  20
  -1  -4   7 41172.7 1293.50   5
  -1  -4   7 42141.4 1261.55  17
   1   4  -7 40948.9 1240.43   7
   1   4  -7 40199.9 1200.44  10
   1   4  -6 79842.5 2034.45  14
  -1  -4   6 82098.0 2032.81  19
  -1  -4   6 80881.0 2021.97  21
  -1  -4   6 81588.7 1779.46  11
   1   4  -6 77233.4 1830.18   3
  -1  -4   6 80805.6 2027.46  17
   1   4  -6 83361.6 2047.42   7
  -1  -4   6 77971.8 2024.44  20
   1   4  -6 83170.7 1906.26   1
   1   4  -6 81710.4 1974.28  10
   1   4  -6 83492.0 1787.42   9
  -1  -4   6 82623.8 2077.38   5
   1   4  -6 82602.3 1968.94  15
   1   4  -5 3813.89 245.682  15
  -1  -4   5 4101.47 261.195  21
  -1  -4   5 3812.01 272.703  13
   1   4  -5 3638.70 261.284  14
   1   4  -5 4157.18 166.266   9
   1   4  -5 3783.76 232.585  10
   1   4  -5 3952.82 235.211   1
  -1  -4   5 3442.15 248.605  20
  -1  -4   5 3602.75 267.947   5
   1   4  -5 3742.27 265.627   7
  -1  -4   5 3778.92 256.687  19
   1   4  -5 3351.16 188.780   3
  -1  -4   5 3966.59 161.772  11
  -1  -4   5 3643.88 252.573  17
  -1  -4   5 3547.45 129.440  18
  -1  -4   4 529.472 74.4397   3
   1   4  -4 504.131 104.273   7
  -1  -4   4 489.282 87.7952  21
  -1  -4   4 492.497 89.9975  19
  -1  -4   4 543.936 49.9817  11
   1   4  -4 498.427 79.2992  10
  -1  -4   4 655.303 102.745  20
   1   4  -4 632.761 108.916  14
   1   4  -4 450.451 66.2347   3
  -1  -4   4 487.847 103.119   5
   1   4  -4 628.218 98.1343   1
  -1  -4   4 390.581 98.6392  13
  -1  -4   4 514.775 49.6004  18
   1   4  -4 542.015 93.8009  15
  -1  -4   3 4312.00 176.188  18
  -1  -4   3 4618.71 264.708   5
  -1  -4   3 4533.98 237.360  19
  -1  -4   3 4225.58 257.228  13
  -1  -4   3 4455.44 210.126   3
  -1  -4   3 4664.48 243.232  20
   1   4  -3 4132.55 202.820  10
   1   4  -3 4268.98 206.154   3
   1   4  -3 4504.43 239.878  19
   1   4  -3 4355.91 254.068  15
  -1  -4   3 4507.63 235.177  21
  -1  -4   3 4072.45 150.256   9
  -1  -4   3 4494.90 154.647  11
   1   4  -3 4748.06 244.348  21
   1   4  -3 4532.36 241.616  17
   1   4  -3 4179.12 236.615  20
   1   4  -3 4112.73 243.467   1
   1   4  -3 4247.59 266.502   7
   1   4  -3 4678.85 270.768  14
  -1  -4   2 1507.59 122.027  19
   1   4  -2 1882.89 163.165  15
  -1  -4   2 1688.86 88.8069   9
  -1  -4   2 1731.12 146.644   5
  -1  -4   2 1860.98 130.591   2
  -1  -4   2 1686.96 127.815  20
   1   4  -2 1609.22 128.893  20
   1   4  -2 1835.49 110.412  10
   1   4  -2 1601.84 123.581   3
  -1  -4   2 1643.06 111.557  18
  -1  -4   2 1817.37 130.665   3
   1   4  -2 1831.16 134.485  21
   1   4  -2 1702.57 130.192  17
   1   4  -2 1770.40 130.397  19
   1   4  -2 1787.46 164.033  14
  -1  -4   2 1752.51 126.685  21
   1   4  -2 1732.57 160.734   7
   1   4  -2 1801.75 159.797   1
  -1  -4   2 1856.22 162.332  13
   1   4  -1 16182.4 456.904  19
   1   4  -1 15523.6 537.281   1
  -1  -4   1 16250.5 498.775   5
  -1  -4   1 15611.7 535.467  13
   1   4  -1 16042.6 496.299   2
  -1  -4   1 15828.1 420.254   9
   1   4  -1 16246.3 460.880  20
  -1  -4   1 15775.2 496.752   2
   1   4  -1 16656.9 500.330   5
  -1  -4   1 15345.1 446.077  21
   1   4  -1 16162.0 396.657  10
  -1  -4   1 16247.7 474.587  18
  -1  -4   1 15291.6 447.141  19
   1   4  -1 15935.3 542.123  14
   1   4  -1 16090.3 455.150  17
   1   4  -1 16068.5 455.416  21
   1   4  -1 15650.9 539.181  15
   1   4  -1 16068.2 490.260   3
  -1  -4   1 15871.6 488.329   3
   1   4  -1 15780.9 456.882  16
   1   4  -1 15856.4 464.936  18
   1   4  -1 15549.4 544.398   7
  -1  -4   1 15547.3 451.004  20
   1   4   0 84279.2 1803.19  20
   1   4   0 84051.9 1951.20  14
  -1  -4   0 81621.5 1935.85  13
   1   4   0 88901.3 1926.86   2
  -1  -4   0 89711.9 1943.41   6
   1   4   0 88320.2 1913.92   3
   1   4   0 82480.8 1881.66  18
  -1  -4   0 85234.1 1896.16  18
  -1  -4   0 82746.5 1793.82  20
   1   4   0 86468.6 1857.76   5
   1   4   0 83009.2 1959.33   1
  -1  -4   0 84351.4 1853.27   5
   1   4   0 84274.2 1800.60  17
   1   4   0 84273.0 1800.33  19
  -1  -4   0 81986.7 1792.52  19
   1   4   0 81968.0 1957.75  15
  -1  -4   0 81029.3 1896.97   3
  -1  -4   0 83100.3 1914.41   2
   1   4   0 84111.2 1804.49  16
   1   4   0 85067.0 1799.26  21
   1   4   0 84294.0 1956.79   7
   1   4   1 23713.6 560.181  19
   1   4   1 24085.4 562.465  20
   1   4   1 23219.1 678.328  18
  -1  -4  -1 23713.3 556.158  20
   1   4   1 24343.4 561.791  21
   1   4   1 24011.0 563.061  16
   1   4   1 22977.3 703.541  14
  -1  -4  -1 23967.0 705.791   2
  -1  -4  -1 24103.5 691.389   3
  -1  -4  -1 23226.5 597.082   5
   1   4   1 23946.9 564.907  17
  -1  -4  -1 24151.2 587.482   4
   1   4   1 23257.0 721.635   1
  -1  -4  -1 25071.2 696.645  18
  -1  -4  -1 25302.0 689.456   6
  -1  -4  -2 1948.45 141.101   6
   1   4   2 1822.87 91.0434  17
  -1  -4  -2 1826.08 83.6466  10
   1   4   2 1740.83 86.4689  20
  -1  -4  -2 1623.38 145.135  18
  -1  -4  -2 1742.22 152.771   3
  -1  -4  -2 1674.72 92.1835   5
   1   4   2 1720.89 154.189   8
  -1  -4  -2 1809.19 160.856   2
   1   4   2 1922.75 155.314  18
   1   4   2 1729.29 89.0149  21
  -1  -4  -2 1762.59 134.107  11
   1   4   2 1834.94 89.6337  16
  -1  -4  -2 1796.99 89.6488  16
   1   4   2 1658.21 134.871   6
   1   4   2 1645.54 157.032   1
   1   4   2 1880.36 89.2076  19
  -1  -4  -2 1786.82 92.4234   4
  -1  -4  -2 1836.71 151.782   7
  -1  -4  -3 15156.9 473.031   6
   1   4   3 14093.6 510.514   1
   1   4   3 14496.0 520.361  18
  -1  -4  -3 14827.8 404.974  10
  -1  -4  -3 13996.2 516.836   2
   1   4   3 14706.1 524.974   8
   1   4   3 15335.9 390.116  20
   1   4   3 14309.2 391.942  17
  -1  -4  -3 15115.2 504.768   7
  -1  -4  -3 14491.5 393.696  17
   1   4   3 15065.9 382.605   4
   1   4   3 14603.4 395.837  19
  -1  -4  -3 14526.6 489.368  11
   1   4   3 14882.2 472.524   6
   1   4   3 14834.7 392.193  16
  -1  -4  -3 14557.0 392.518  16
  -1  -4  -3 14806.0 521.441   3
  -1  -4  -3 13953.7 379.953   4
   1   4   3 14663.1 395.104  21
   1   4   4 2456.87 164.175   6
  -1  -4  -4 2625.75 169.209   6
   1   4   4 2424.77 136.103  21
  -1  -4  -4 2883.04 211.880   3
  -1  -4  -4 2499.25 114.102   5
   1   4   4 2717.51 138.948  20
   1   4   4 2818.12 149.820  19
   1   4   4 2770.43 142.933  16
  -1  -4  -4 2763.01 165.995  12
  -1  -4  -4 2823.24 209.710   2
  -1  -4  -4 2556.28 141.941  21
  -1  -4  -4 2828.65 146.300  16
   1   4   4 2564.01 190.534   1
   1   4   4 2833.56 209.347   8
   1   4   4 2668.89 142.099  17
   1   4   4 2625.13 145.309  20
  -1  -4  -4 2824.44 147.140  17
   1   4   4 2703.65 128.906   4
   1   4   4 2571.21 200.974  18
  -1  -4  -5 25009.2 672.129  12
  -1  -4  -5 24559.2 785.772   2
  -1  -4  -5 24239.8 608.648   5
   1   4   5 24888.8 673.164  17
   1   4   5 24603.0 740.592   1
   1   4   5 24804.1 680.129  20
   1   4   5 25218.7 674.381  21
   1   4   5 26064.3 646.698   4
  -1  -4  -5 24640.5 672.372  16
   1   4   5 25271.9 800.705  18
   1   4   5 24274.2 705.861   6
   1   4   5 24357.4 672.457  19
  -1  -4  -5 24721.9 678.771  21
  -1  -4  -5 23746.0 671.649  17
   1   4   5 24080.2 780.712   8
  -1  -4  -5 24895.7 790.322   3
  -1  -4  -5 25361.5 709.141   6
   1   4   5 24943.9 671.657  16
   1   4   6 373.520 68.7785   4
  -1  -4  -6 360.505 88.8977   2
   1   4   6 437.569 77.6897  17
   1   4   6 335.754 69.4591  16
   1   4   6 310.313 64.3034  20
   1   4   6 449.919 85.7550   1
   1   4   6 416.132 74.7675  19
  -1  -4  -6 465.573 66.2504  12
   1   4   6 344.872 96.4108   8
  -1  -4  -6 433.568 71.5439  16
  -1  -4  -6 251.834 62.9709  19
   1   4   6 298.551 66.1816  21
   1   4   6 468.267 82.1186   6
  -1  -4  -6 313.645 52.6484   5
  -1  -4  -6 373.448 69.2101  21
   1   4   6 374.569 99.7331  18
  -1  -4  -6 476.655 97.1539   3
  -1  -4  -6 293.511 64.0085  17
   1   4   7 6069.34 281.341   4
   1   4   7 6072.17 301.706  21
   1   4   7 5413.35 292.857  20
   1   4   7 5973.38 294.291   1
   1   4   7 5354.46 287.012  19
  -1  -4  -7 5269.97 243.638   5
   1   4   7 5051.72 335.413  18
   1   4   7 5944.76 299.921  17
   1   4   7 5323.56 285.563  16
   1   4   7 5831.00 296.840   6
  -1  -4  -7 5558.64 237.930  12
   1   4   7 5427.44 341.623   8
  -1  -4  -7 5307.58 325.018   2
  -1  -4  -8 4179.44 297.366   2
   1   4   8 4274.79 315.334  18
   1   4   8 4025.88 248.901   4
   1   4   8 3795.02 257.798  21
   1   4   8 4523.51 249.029   1
   1   4   8 4048.97 305.266   8
   1   4   8 3915.57 261.509  19
   1   4   8 4344.04 266.017   6
   1   4   8 4388.76 273.274  17
   1   4   8 3623.21 258.063  20
  -1  -4  -9 12650.4 562.320   2
   1   4   9 12709.3 461.024   1
   1   4   9 12471.8 512.261   4
   1   4   9 12724.8 518.289   6
   1   4   9 13073.3 547.070  19
   1   4   9 12794.9 543.086  17
   1   4   9 12158.5 590.454   8
   1   4   9 11218.8 569.953  18
   1   4   9 12794.2 548.502  20
   1   4   9 12336.8 532.714  21
   1   4  10 3177.16 271.546  20
   1   4  10 3421.36 261.493   6
   1   4  10 3325.91 272.379  21
   1   4  10 2750.89 275.427  18
  -1  -4 -10 3076.94 287.439   3
  -1  -4 -10 3309.93 250.940   7
   1   4  10 3144.22 256.648   4
   1   4  10 2919.20 291.116   8
  -1  -4 -10 3002.02 264.818   2
   1   4  10 2896.58 259.039  19
   1   4  10 3081.32 263.909  17
  -1  -4 -11 2352.30 217.732   7
   1   4  11 2118.32 216.476   6
   1   4  11 2108.55 255.399  18
   1   4  11 2280.71 239.299  21
   1   4  11 2589.28 266.208  20
  -1  -4 -11 2121.65 251.368   3
   1   4  11 2368.60 237.134   4
   1   4  11 2331.17 245.317  17
   1   4  11 2603.82 278.366   8
  -1  -4 -11 2360.31 240.716   2
   1   4  11 2732.60 264.319  19
   1   4  12 365.711 105.727   6
   1   4  12 262.686 98.5414  17
   1   4  12 341.621 120.284  20
  -1  -4 -12 234.719 96.8029   3
   1   4  12 187.114 91.5490  18
   1   4  12 416.031 130.173   8
  -1  -4 -12 304.806 98.7735   2
   1   4  12 232.830 96.0616   4
   1   4  12 352.380 114.095  21
  -1  -4 -12 382.442 142.165   9
   1   4  12 484.258 128.430  19
   1   4  13 578.938 145.245  20
   1   4  13 543.087 144.601   8
   1   4  13 662.888 155.480  18
   1   4  13 544.552 145.515  19
  -1  -4 -13 827.387 184.427   9
   1   4  13 821.852 171.555  21
   1   4  13 641.969 153.899  17
  -1  -4 -13 932.221 183.469   3
   1   4  13 746.013 162.354   4
   1   4  14-510.318 151.639  18
   1   4  14 8.44549 86.8898  20
  -1  -4 -14 49.3122 96.2748   3
   1   4  14-234.674 106.300  19
   1   4  14-70.1408 61.8275  21
   1   4  14-298.742 128.309  17
   1   5 -12 3927.28 380.350  14
   1   5 -11 274.987 116.872   7
   1   5 -11-39.4374 113.587  14
  -1  -5  11 122.668 87.0456  20
  -1  -5  11 320.186 140.810  21
  -1  -5  11 122.048 104.553  19
   1   5 -11 210.164 108.330  10
  -1  -5  10 163.918 107.358  19
  -1  -5  10 129.241 88.5109  21
  -1  -5  10-85.0496 121.742  20
   1   5 -10-59.9013 80.9954  10
   1   5 -10-86.7038 86.1401  14
  -1  -5  10 62.1982 90.3220   5
   1   5 -10-82.3897 75.0535   7
   1   5  -9 189.466 107.350  14
  -1  -5   9 118.204 114.129  20
  -1  -5   9 91.0471 72.4680   5
  -1  -5   9 52.5360 69.6483  19
  -1  -5   9-14.4277 70.4148  21
   1   5  -9-52.7933 64.6134  10
   1   5  -9-28.5932 86.0969   7
   1   5  -8 94.0377 72.4786  14
   1   5  -8 75.2266 69.9955  10
  -1  -5   8 99.7262 81.9447  20
  -1  -5   8 164.663 84.3523  21
   1   5  -8 83.7826 89.7259   7
  -1  -5   8 181.392 106.994   5
  -1  -5   8 74.7063 64.0361  19
   1   5  -8 86.0930 64.9024  15
  -1  -5   7 1520.26 194.776  21
  -1  -5   7 1668.78 204.849  19
  -1  -5   7 1556.66 208.222   5
   1   5  -7 1761.38 170.283   1
   1   5  -7 1516.85 172.982  10
   1   5  -7 1619.76 204.403   7
  -1  -5   7 1353.60 186.484  20
   1   5  -7 1763.78 189.916  15
   1   5  -7 1411.27 191.522  14
   1   5  -6 3952.54 284.897  15
   1   5  -6 4002.41 304.875  14
   1   5  -6 4188.82 269.666  10
  -1  -5   6 3528.04 304.675  13
  -1  -5   6 4362.33 308.530  20
  -1  -5   6 4124.61 324.791   5
  -1  -5   6 4332.39 303.133  21
   1   5  -6 4113.31 313.867   7
  -1  -5   6 4499.37 310.031  19
   1   5  -6 4223.92 274.977   1
   1   5  -5 4615.51 317.666  14
  -1  -5   5 4491.11 316.273  13
   1   5  -5 4139.95 236.375   3
   1   5  -5 4751.12 325.825   7
  -1  -5   5 4434.53 316.758   5
   1   5  -5 4245.62 278.487   1
  -1  -5   5 4716.46 249.455   3
  -1  -5   5 4769.69 182.409  11
   1   5  -5 4612.85 261.911  10
  -1  -5   5 4763.62 298.620  21
  -1  -5   5 4576.56 296.539  19
  -1  -5   5 4363.32 292.741  20
   1   5  -5 5038.85 311.900  15
  -1  -5   4 4587.90 244.666   3
  -1  -5   4 4383.38 173.580   9
  -1  -5   4 4677.62 279.924  20
  -1  -5   4 4748.79 311.258  13
   1   5  -4 4888.54 297.443   1
   1   5  -4 4279.02 232.495  10
   1   5  -4 5090.33 332.078   7
  -1  -5   4 4098.96 173.861  18
  -1  -5   4 4585.40 302.038   5
  -1  -5   4 4800.00 178.673  11
   1   5  -4 4241.72 296.546  14
  -1  -5   4 4798.85 279.536  21
  -1  -5   4 4818.87 280.459  19
   1   5  -4 4924.28 293.976  16
   1   5  -4 4577.89 293.399  15
   1   5  -4 4365.56 239.274   3
   1   5  -3 1182.26 148.812   1
  -1  -5   3 1254.54 129.722  21
   1   5  -3 1241.01 132.806  16
  -1  -5   3 1406.41 156.541   5
  -1  -5   3 1192.78 83.3632   9
  -1  -5   3 1337.20 87.1617  11
   1   5  -3 1236.41 106.236  10
  -1  -5   3 1166.76 125.555  19
  -1  -5   3 1475.91 135.162   3
  -1  -5   3 1108.93 95.3244  18
   1   5  -3 1152.87 120.626   3
   1   5  -3 1355.68 158.669  14
  -1  -5   3 1210.17 131.664  20
   1   5  -3 1100.70 148.890   7
  -1  -5   3 1155.11 154.415  13
   1   5  -3 1100.57 142.670  15
   1   5  -2 13320.9 529.783  14
   1   5  -2 12739.5 443.965  21
  -1  -5   2 13549.3 470.179   2
  -1  -5   2 12091.4 415.251  18
  -1  -5   2 13835.4 450.563  21
   1   5  -2 12838.8 445.988  17
   1   5  -2 13075.4 452.921  16
  -1  -5   2 12969.3 442.514  19
  -1  -5   2 12953.5 444.075  20
   1   5  -2 13102.6 523.738   1
  -1  -5   2 12936.4 517.825  13
   1   5  -2 13352.2 384.335  10
   1   5  -2 12807.4 451.484  20
   1   5  -2 12920.9 447.390  19
  -1  -5   2 12926.7 462.077   3
  -1  -5   2 12765.8 376.345   9
  -1  -5   2 12816.6 482.983   5
   1   5  -2 12890.6 539.088   7
   1   5  -2 13144.2 526.317  15
   1   5  -1 1140.60 117.093   5
   1   5  -1 1354.32 111.247  19
   1   5  -1 1406.44 151.550  14
   1   5  -1 1416.34 160.746   1
  -1  -5   1 1354.00 122.584  18
  -1  -5   1 1495.81 114.873  20
   1   5  -1 1249.69 154.897   7
  -1  -5   1 1527.49 114.753  19
   1   5  -1 1434.37 115.705  20
   1   5  -1 1331.87 119.815  18
   1   5  -1 1447.63 116.657  21
  -1  -5   1 1310.91 149.047  13
   1   5  -1 1416.36 80.7189  10
   1   5  -1 1252.18 109.246  16
   1   5  -1 1151.21 103.679  17
  -1  -5   1 1428.12 139.644   2
  -1  -5   1 1474.79 106.703   9
  -1  -5   1 1176.87 127.319   3
   1   5  -1 1451.51 158.643  15
  -1  -5   1 1572.23 136.528   5
   1   5   0 10.9462 28.5714  16
   1   5   0 14.6870 22.9043  21
   1   5   0-0.31399 21.8614  19
  -1  -5   0 33.9656 29.0746  20
  -1  -5   0-8.22797 48.8833  13
   1   5   0-9.85516 40.6474  18
   1   5   0 60.1459 57.9522  14
   1   5   0 10.1962 30.8046   5
   1   5   0 11.0125 9.79083  10
   1   5   0-29.8018 27.3548  20
  -1  -5   0-42.2827 38.4608  18
   1   5   0 25.9873 27.9998  17
   1   5   0-13.5721 28.7391  17
  -1  -5   0 36.0367 37.5656   5
   1   5   0-11.9192 62.0874   1
  -1  -5   0-29.7350 53.4458   2
  -1  -5   0 22.9022 43.3867   3
  -1  -5   0-13.8371 25.4854  19
   1   5   1 1252.41 88.0759  19
   1   5   1 1206.95 154.034   1
   1   5   1 1259.75 147.925  14
   1   5   1 1246.12 89.0730  17
  -1  -5  -1 1311.09 85.6495  20
  -1  -5  -1 1307.18 144.461   2
  -1  -5  -1 1303.40 141.437   3
   1   5   1 1277.37 133.353  18
   1   5   1 1139.64 85.0645  20
   1   5   1 1385.95 91.5876  21
  -1  -5  -1 1363.71 100.268   5
   1   5   1 1446.46 92.6513  16
  -1  -5  -1 1207.35 87.8512   4
   1   5   2 5180.51 189.390  20
  -1  -5  -2 4956.31 292.833   2
   1   5   2 5337.24 195.445  17
   1   5   2 5333.42 191.218  21
   1   5   2 5013.13 302.432   1
   1   5   2 5244.41 189.730  19
   1   5   2 5207.03 194.534  21
   1   5   2 5288.07 303.750   8
  -1  -5  -2 5262.33 192.100   5
   1   5   2 5309.28 292.439  18
   1   5   2 5516.29 195.777  16
  -1  -5  -2 4978.53 162.755  10
  -1  -5  -2 5107.50 192.610  16
  -1  -5  -2 4775.22 285.586   3
  -1  -5  -2 4948.43 178.430   4
   1   5   3 23992.2 579.978  20
   1   5   3 23400.8 587.890  19
   1   5   3 23093.8 759.062   8
  -1  -5  -3 22723.9 583.876  17
   1   5   3 22524.3 748.003  18
   1   5   3 23062.1 758.428   1
  -1  -5  -3 23087.2 752.973   3
   1   5   3 22756.7 581.887  17
   1   5   3 23029.3 583.086  21
  -1  -5  -3 21722.5 540.252   4
  -1  -5  -3 22693.0 758.593   2
  -1  -5  -3 23141.3 575.097  10
   1   5   3 23187.1 581.060  16
   1   5   3 23969.2 581.205  19
  -1  -5  -3 22609.7 538.350   5
  -1  -5  -3 22873.3 582.300  16
   1   5   4 160.403 28.2836   4
   1   5   4 183.726 73.9864   1
  -1  -5  -4 210.526 78.5836   2
  -1  -5  -4 203.913 45.5551  17
   1   5   4 194.735 43.7034  20
   1   5   4 183.120 41.5565  19
   1   5   4 179.673 81.9064   8
  -1  -5  -4 117.326 30.6595  16
  -1  -5  -4 144.427 39.2752  10
  -1  -5  -4 154.728 23.4227   5
  -1  -5  -4 190.034 79.4180   3
   1   5   4 128.204 39.6901  21
  -1  -5  -4 140.517 23.4036   5
   1   5   4 141.838 55.3872   6
   1   5   4 188.506 39.5418  16
   1   5   4 132.514 64.1093  18
   1   5   4 149.383 39.7017  17
  -1  -5  -5 4098.36 287.755   2
   1   5   5 4039.70 208.420  20
  -1  -5  -5 3927.91 203.695  21
  -1  -5  -5 3848.65 201.651  17
   1   5   5 3988.41 204.416  19
   1   5   5 3799.78 192.611  20
  -1  -5  -5 3673.52 207.448  10
   1   5   5 3882.10 278.712   8
  -1  -5  -5 3746.14 136.125   5
   1   5   5 3549.02 273.512  18
   1   5   5 4022.66 268.159   1
  -1  -5  -5 3582.87 213.794  12
  -1  -5  -5 3464.84 265.324   3
   1   5   5 3619.21 221.972   6
   1   5   5 4220.45 206.110  21
   1   5   5 3900.05 161.704   4
   1   5   5 3997.75 201.124  16
  -1  -5  -5 4066.41 203.984  16
   1   5   5 4061.05 203.574  17
  -1  -5  -6-26.1014 68.2958   3
  -1  -5  -6-25.3570 56.4903   2
   1   5   6-30.4963 42.4360  16
   1   5   6 23.3990 27.1146   4
  -1  -5  -6-179.893 53.2251  21
   1   5   6 50.9702 41.5017   6
  -1  -5  -6-44.7749 42.7774  12
   1   5   6 15.9880 44.8049  20
   1   5   6-4.77793 39.3929  20
  -1  -5  -6-31.5226 36.8006  17
  -1  -5  -6-2.59883 33.0202  16
   1   5   6 1.56447 42.4207  19
   1   5   6-30.3429 46.5344  21
   1   5   6 38.8045 41.4548  17
  -1  -5  -6 24.3068 19.7348   5
   1   5   6-52.7847 59.3778   1
   1   5   6-22.2598 69.1448   8
   1   5   6 23.5530 61.2113  18
  -1  -5  -7 2501.94 236.957   2
   1   5   7 2503.01 191.333   6
  -1  -5  -7 2450.28 163.469  12
   1   5   7 2232.11 200.837   1
   1   5   7 2688.81 193.792  21
   1   5   7 2108.93 229.364   8
  -1  -5  -7 2140.88 128.771   5
  -1  -5  -7 2636.56 248.765   3
   1   5   7 2732.01 194.826  17
   1   5   7 2686.28 163.966   4
   1   5   7 2555.21 251.271  18
   1   5   7 2239.23 179.722  19
   1   5   7 2354.97 185.908  20
   1   5   7 2476.24 187.069  16
  -1  -5  -8 2547.61 259.155   3
  -1  -5  -8 2904.87 264.985   2
  -1  -5  -8 2643.15 165.992  12
   1   5   8 2720.25 221.470   1
   1   5   8 2980.02 230.011  20
   1   5   8 2929.18 221.197  21
   1   5   8 2999.10 277.330  18
   1   5   8 3002.34 193.520   4
   1   5   8 3162.49 228.984  17
   1   5   8 3118.92 283.955   8
   1   5   8 2960.27 220.330  16
   1   5   8 3089.19 224.115   6
   1   5   8 2704.48 218.284  19
   1   5   9 6324.66 359.903  19
  -1  -5  -9 6493.16 413.527   2
   1   5   9 5631.66 342.729  17
   1   5   9 6383.60 344.639   6
   1   5   9 6060.14 350.697  21
   1   5   9 6696.45 437.150   8
   1   5   9 5714.16 350.391  20
   1   5   9 6307.00 319.643   4
   1   5   9 6077.49 336.431   1
   1   5   9 5644.18 409.286  18
  -1  -5  -9 5725.05 403.678   3
   1   5  10 896.052 173.392  18
   1   5  10 1074.51 156.945  17
   1   5  10 1035.85 157.703  19
   1   5  10 1125.43 167.309  21
  -1  -5 -10 1333.13 210.308   3
  -1  -5 -10 1024.37 171.504   2
   1   5  10 893.373 126.959   4
   1   5  10 1110.17 168.599  20
   1   5  10 1163.55 186.828   8
   1   5  10 1025.48 145.221   6
   1   5  11 2614.75 262.350  20
  -1  -5 -11 2817.84 284.598   2
   1   5  11 2991.42 273.389  17
   1   5  11 2669.04 256.920  21
   1   5  11 2446.49 289.745  18
   1   5  11 2508.05 292.175   8
  -1  -5 -11 2780.81 293.288   3
   1   5  11 2352.62 245.644  19
   1   5  12 652.426 160.422   8
   1   5  12 251.395 100.956  18
   1   5  12 453.533 118.425  21
  -1  -5 -12 487.045 137.119   2
   1   5  12 537.378 139.566  20
   1   5  12 466.446 136.500  17
   1   5  12 270.923 97.4964  19
  -1  -5 -12 689.988 176.212   3
   1   5  13 189.575 104.091   8
   1   5  13 164.621 110.683  20
   1   5  13 441.001 132.284  19
  -1  -5 -13 389.321 133.042   3
   1   5  13 177.551 103.777  18
   1   5  13 273.575 125.891  17
   1   5  13 288.074 124.656  21
   1   5  14 215.726 115.542  20
   1   5  14-61.2158 87.3374  17
   1   5  14 109.458 78.3031  19
   1   5  14 241.157 93.6698  21
   1   6 -11-41.4172 63.6853   7
   1   6 -11 49.0225 64.3811  14
   1   6 -10 0.26919 86.9303   7
   1   6 -10 157.287 122.474  14
  -1  -6  10 104.396 104.591  19
  -1  -6  10 113.860 79.5383  20
  -1  -6  10 2.46597 66.4813  21
   1   6  -9 2955.19 327.571  16
   1   6  -9 2915.11 312.267  14
  -1  -6   9 3440.11 338.349  19
  -1  -6   9 3182.51 319.652  21
   1   6  -9 3415.60 303.409  10
  -1  -6   9 3291.38 351.090   5
  -1  -6   9 3396.10 339.393  20
   1   6  -9 3667.30 351.931   7
   1   6  -8 336.785 93.0726  10
   1   6  -8 151.418 77.2383  14
  -1  -6   8 108.693 87.9355   5
   1   6  -8 273.728 113.426   7
   1   6  -8 199.338 107.080  16
  -1  -6   8 161.247 111.088  20
  -1  -6   8 382.683 119.485  21
  -1  -6   8 361.313 107.861  19
   1   6  -8 253.870 99.5187  15
  -1  -6   7 126.613 78.5831  21
   1   6  -7 127.353 81.3749  16
  -1  -6   7 141.970 65.6025  19
  -1  -6   7 124.592 108.686   5
   1   6  -7 218.040 82.7485  15
   1   6  -7 132.546 85.5555  14
   1   6  -7 239.078 87.0342  10
   1   6  -7 120.652 77.7054   1
  -1  -6   7 206.861 93.3767  20
   1   6  -7 94.2925 93.5442   7
   1   6  -6 40.4510 67.8535  14
  -1  -6   6 108.155 68.9999  21
  -1  -6   6 234.344 109.177  13
   1   6  -6 141.057 75.1912   1
  -1  -6   6 25.7753 65.5990  20
   1   6  -6 67.8152 76.9317   7
   1   6  -6 106.640 60.0396  10
   1   6  -6 33.7012 58.8396  15
   1   6  -6 178.559 90.8404  16
  -1  -6   6 57.6476 71.2121   5
  -1  -6   6 47.2194 66.6712  19
  -1  -6   5 1023.57 145.052  21
  -1  -6   5 1103.78 134.114   3
  -1  -6   5 952.000 160.777  13
   1   6  -5 995.222 122.993  10
  -1  -6   5 931.934 138.800  19
  -1  -6   5 1122.75 168.155   5
   1   6  -5 868.665 134.568  16
   1   6  -5 974.114 164.853   7
   1   6  -5 1136.03 158.827   1
   1   6  -5 896.960 152.349  14
  -1  -6   5 869.339 142.257  20
   1   6  -5 1089.38 157.401  15
   1   6  -4 3336.67 270.725   1
  -1  -6   4 3618.93 238.986   3
   1   6  -4 3731.12 263.993  16
  -1  -6   4 3304.04 243.047  21
  -1  -6   4 3156.02 274.778  13
  -1  -6   4 3352.18 244.149  19
  -1  -6   4 3300.63 245.903  20
  -1  -6   4 3553.40 162.321  11
   1   6  -4 3039.13 196.701  10
  -1  -6   4 3111.66 260.691   5
   1   6  -4 3586.98 281.964  15
   1   6  -4 3163.78 272.278  14
   1   6  -4 3362.82 295.031   7
  -1  -6   3 6848.70 333.718  19
  -1  -6   3 6296.17 381.642  13
   1   6  -3 5777.34 367.288   1
  -1  -6   3 6484.69 331.893   3
   1   6  -3 6232.64 329.933  16
   1   6  -3 7103.38 279.487  10
   1   6  -3 6700.75 395.958  14
  -1  -6   3 7013.64 336.964  21
   1   6  -3 5776.54 384.584   7
  -1  -6   3 6832.64 251.519  11
  -1  -6   3 6517.75 329.166  20
  -1  -6   3 6502.02 359.336   5
   1   6  -2 62.9640 72.7956   7
  -1  -6   2 47.0775 32.7533   9
  -1  -6   2 21.5273 66.5140  13
  -1  -6   2 103.783 55.9109   2
  -1  -6   2-11.7903 53.3471   5
   1   6  -2 164.335 74.2881  14
  -1  -6   2 146.109 58.8520  20
   1   6  -2 56.2410 30.8536  10
  -1  -6   2 20.5300 48.3914  19
  -1  -6   2 77.9860 37.4364  18
   1   6  -2 66.4471 56.0352  16
   1   6  -2 89.4048 40.9324  18
   1   6  -2 85.8114 77.7805   1
  -1  -6   2 25.7707 50.1417   3
   1   6  -1 3131.39 258.329  14
  -1  -6   1 3455.76 199.165  20
   1   6  -1 2915.67 182.892  19
   1   6  -1 3173.84 191.850  20
   1   6  -1 2978.58 187.262  17
  -1  -6   1 3166.11 256.356  13
  -1  -6   1 1798.68 282.144  19
   1   6  -1 3150.69 128.267  10
   1   6  -1 3119.42 189.322  16
  -1  -6   1 3216.88 235.741   2
  -1  -6   1 2853.27 220.233   3
   1   6  -1 3503.23 276.256   1
  -1  -6   1 3445.38 217.988   5
  -1  -6   1 3075.35 180.185   9
   1   6  -1 3021.53 181.814  21
   1   6  -1 3382.39 208.558  18
   1   6  -1 3067.92 186.110  17
  -1  -6   0 412.606 61.7284  19
   1   6   0 359.773 105.571   1
   1   6   0 336.725 89.7403  14
  -1  -6   0 298.552 87.2012  13
   1   6   0 257.851 53.2646  19
   1   6   0 417.929 65.3227  17
  -1  -6   0 446.960 71.9405   5
   1   6   0 294.918 79.4886  18
   1   6   0 281.885 27.9606  10
   1   6   0 330.165 59.2740  20
  -1  -6   0 316.754 86.2528   3
  -1  -6   0 388.665 95.5345   2
  -1  -6   0 299.148 56.4126  20
   1   6   0 266.979 52.0340  17
   1   6   0 350.790 64.1654   5
   1   6   0 300.466 59.8209  16
   1   6   0 238.153 51.4297  21
   1   6   1 697.039 135.642   1
   1   6   1 776.769 77.7223  21
   1   6   1 770.134 82.1276  21
  -1  -6  -1 887.678 78.4832   4
   1   6   1 932.271 148.381  14
  -1  -6  -1 819.003 78.6951  20
   1   6   1 932.290 124.104  18
   1   6   1 912.857 85.8121  17
   1   6   1 739.966 76.6790  20
   1   6   1 889.872 81.6702  19
  -1  -6  -1 804.198 128.226   3
  -1  -6  -1 772.020 126.217   2
   1   6   1 882.577 86.9007  16
  -1  -6  -1 924.888 90.6561   5
   1   6   2 45.6442 82.3248   1
   1   6   2 86.4985 28.2514  20
  -1  -6  -2 61.9373 23.7854   4
   1   6   2 43.0499 24.2389  21
  -1  -6  -2 45.3475 15.4785  10
   1   6   2 42.6810 27.1110  19
  -1  -6  -2 42.7808 59.4162   3
  -1  -6  -2 103.373 72.5719   2
  -1  -6  -2 72.4295 25.8932   5
   1   6   2 136.638 75.0304  18
   1   6   2 72.3667 36.6280  17
   1   6   2 55.9281 31.4992  21
   1   6   2 46.1663 29.0817  16
  -1  -6  -2 20.6542 27.4392  16
   1   6   3 34.4117 30.7496  21
  -1  -6  -3-1.39675 11.8774   4
  -1  -6  -3 109.609 91.2370   3
   1   6   3-0.16929 29.2646  19
  -1  -6  -3-0.43439 15.5607   5
   1   6   3 1.71155 22.7273  21
   1   6   3-24.7361 57.3588  18
  -1  -6  -3-18.5191 18.4350  10
   1   6   3 54.2234 32.2802  19
   1   6   3 18.9231 26.2537  20
   1   6   3-5.06845 64.1909   8
  -1  -6  -3 26.9324 67.9520   2
   1   6   3-4.15905 73.8269   1
   1   6   3 0.22071 28.4551  17
  -1  -6  -3 40.8752 31.3122  16
   1   6   3-7.33503 29.2080  16
  -1  -6  -4 5339.91 235.809  17
   1   6   4 5873.38 236.105  19
   1   6   4 5767.53 238.669  21
   1   6   4 5497.24 228.962  20
  -1  -6  -4 5387.30 354.303   2
   1   6   4 5972.38 364.128   1
  -1  -6  -4 5409.60 231.721  10
  -1  -6  -4 5853.01 363.650   3
   1   6   4 5953.47 244.444  19
  -1  -6  -4 5344.01 235.151  16
   1   6   4 5965.14 240.556  16
   1   6   4 5461.14 352.167  18
   1   6   4 5792.35 368.257   8
   1   6   4 6045.91 244.094  17
   1   6   5 127.770 43.5434  19
   1   6   5 31.6031 34.2375  20
   1   6   5 126.588 39.7307  20
   1   6   5 287.704 105.412  18
  -1  -6  -5 44.6206 73.6627   3
   1   6   5 123.192 62.7027   6
   1   6   5 146.144 89.0374   1
  -1  -6  -5 72.8509 34.7328  17
   1   6   5 127.707 44.1811  19
  -1  -6  -5 162.390 47.1227  10
  -1  -6  -5 80.5413 34.1528  16
   1   6   5 63.5913 35.7318  21
  -1  -6  -5 281.288 99.7591   2
   1   6   5 94.8466 40.4311  16
   1   6   5 184.717 51.6700  17
   1   6   5 118.320 96.0923   8
   1   6   6 8845.68 399.011   6
   1   6   6 8949.31 501.631  18
   1   6   6 9822.79 376.473  21
   1   6   6 8989.86 467.324   1
   1   6   6 9370.30 278.173   4
  -1  -6  -6 9452.02 507.298   2
   1   6   6 9816.87 382.714  20
   1   6   6 9595.21 373.029  17
   1   6   6 10106.7 379.069  16
  -1  -6  -6 10194.9 521.167   3
   1   6   6 8754.30 496.097   8
  -1  -6  -6 8635.50 382.069  12
   1   6   6 9033.18 367.705  19
   1   6   7 277.725 69.1511  21
   1   6   7 203.344 66.3924   6
   1   6   7 300.913 106.484  18
  -1  -6  -7 275.048 65.1816  12
   1   6   7 279.163 74.5673  16
   1   6   7 284.720 73.1390  19
  -1  -6  -7 315.573 109.698   3
   1   6   7 195.476 55.2642  17
  -1  -6  -7 239.177 95.0268   2
   1   6   7 131.470 82.3687   8
   1   6   7 191.167 92.7866   1
   1   6   7 90.1688 47.3406  20
  -1  -6  -8 48.5963 37.1267  12
   1   6   8-29.2160 48.7342  16
   1   6   8 12.2822 52.4367   6
   1   6   8-55.8092 72.8607  18
   1   6   8 51.5656 63.5648   1
  -1  -6  -8-7.53001 88.7292   3
   1   6   8-15.1969 45.6474  19
   1   6   8 14.1145 48.0724  20
   1   6   8-18.4834 80.1088   8
   1   6   8 84.8648 64.0999  21
   1   6   8 80.1906 61.9314  17
  -1  -6  -8-77.8193 86.6169   2
   1   6   9 3617.16 271.280  20
  -1  -6  -9 3818.06 341.854   3
   1   6   9 3371.65 257.028  17
   1   6   9 3748.35 265.747  21
   1   6   9 3292.96 328.462  18
   1   6   9 3756.75 263.783   6
   1   6   9 3653.44 272.224  19
  -1  -6  -9 3490.22 328.424   2
   1   6   9 3755.26 289.258   1
   1   6   9 3596.65 339.811   8
  -1  -6 -10 2417.62 274.055   2
   1   6  10 2146.46 216.472  17
   1   6  10 2198.20 274.682   8
   1   6  10 2187.49 225.391  20
   1   6  10 2142.34 218.955  21
   1   6  10 2173.03 220.863  19
   1   6  10 2445.41 300.434  18
  -1  -6 -10 2210.73 273.198   3
  -1  -6 -11 4232.25 375.100   2
   1   6  11 4707.08 346.328  17
   1   6  11 5175.19 358.217  21
   1   6  11 4865.69 352.930  19
   1   6  11 4505.27 348.327  20
   1   6  11 4886.30 428.820  18
  -1  -6 -11 4779.86 415.929   3
   1   6  11 5140.73 441.709   8
  -1  -6 -12-21.9057 89.7003   3
   1   6  12 1.81666 78.2943  18
  -1  -6 -12-284.637 115.438   2
   1   6  12 34.2152 112.049   8
  -1  -6 -13-61.6265 107.007   2
  -1  -7   9 2071.07 275.416  21
  -1  -7   9 2228.21 284.492  20
   1   7  -9 2048.76 277.337  14
  -1  -7   9 2583.51 305.825  19
   1   7  -9 2256.15 289.583   7
   1   7  -9 2275.95 291.023  16
   1   7  -8 455.881 123.445  14
   1   7  -8 217.454 100.616   7
  -1  -7   8 402.597 117.306  20
  -1  -7   8 388.724 126.725  19
  -1  -7   8 381.324 121.301  21
  -1  -7   8 354.004 125.271   5
   1   7  -8 320.132 119.874  16
   1   7  -7 2221.51 277.613   7
   1   7  -7 2406.62 278.220  14
  -1  -7   7 2466.99 286.113  13
  -1  -7   7 2208.23 249.472  21
  -1  -7   7 2200.95 253.844  20
  -1  -7   7 2153.56 277.406   5
  -1  -7   7 2089.56 247.720  19
   1   7  -7 2661.79 281.481  16
  -1  -7   6 1153.42 171.827  21
  -1  -7   6 1376.18 193.790  20
   1   7  -6 1156.98 200.579   7
   1   7  -6 1218.63 192.849  14
  -1  -7   6 1025.87 161.097  19
  -1  -7   6 1047.33 172.610   5
   1   7  -6 949.749 158.782  16
   1   7  -6 1087.10 174.914   1
  -1  -7   6 998.152 192.866  13
  -1  -7   5 508.329 136.350  13
  -1  -7   5 562.825 118.454  19
   1   7  -5 769.459 157.883   7
   1   7  -5 514.634 136.088  14
  -1  -7   5 501.542 107.402   3
  -1  -7   5 724.472 123.805  20
  -1  -7   5 835.564 138.079  21
   1   7  -5 486.842 121.059   1
  -1  -7   5 530.614 125.342   5
   1   7  -5 724.357 134.056  16
   1   7  -4 1269.49 195.384  14
  -1  -7   4 1391.92 198.161  13
  -1  -7   4 1256.69 162.391  20
   1   7  -4 1384.92 195.773   1
  -1  -7   4 1304.20 159.871  21
  -1  -7   4 1439.83 186.115   5
  -1  -7   4 1453.74 169.903   3
   1   7  -4 1781.50 234.189   7
   1   7  -4 1513.03 179.076  16
  -1  -7   4 1594.80 175.174  19
  -1  -7   3 6382.64 373.430   5
  -1  -7   3 6079.77 355.255   3
  -1  -7   3 6376.03 337.720  20
   1   7  -3 5643.06 395.596   1
  -1  -7   3 6079.36 330.096  19
   1   7  -3 6826.14 448.243   7
  -1  -7   3 6002.02 400.250  13
   1   7  -3 6026.63 407.689  14
   1   7  -3 6246.39 346.121  16
   1   7  -2 3901.17 319.980  14
   1   7  -2 3751.98 319.032   1
   1   7  -2 3903.92 250.053  16
  -1  -7   2 4174.84 322.472  13
  -1  -7   2 4089.11 273.603   5
  -1  -7   2 4020.35 243.913  19
  -1  -7   2 4031.41 287.645   3
   1   7  -2 3926.59 235.464  18
   1   7  -2 4215.76 259.574  17
  -1  -7   2 4203.22 249.913  20
   1   7  -1 1173.92 126.955  17
  -1  -7   1 1025.51 163.979  13
  -1  -7   1 1441.45 132.676  20
   1   7  -1 1521.31 204.748  14
  -1  -7   1 1215.29 122.808  19
   1   7  -1 1443.45 149.821  18
   1   7  -1 1280.62 189.112   1
   1   7  -1 1315.89 132.979  16
  -1  -7   1 1383.81 170.856   2
  -1  -7   1 1183.21 159.163   3
  -1  -7   1 1195.82 140.021   5
   1   7   0 15.9519 79.1892  14
  -1  -7   0 144.391 84.0714   2
   1   7   0 33.7031 58.1422  18
   1   7   0 5.08127 84.7529   1
  -1  -7   0 73.6175 47.4525  20
  -1  -7   0 24.7426 41.0068   5
   1   7   0 42.4032 35.0088  17
  -1  -7   0 42.1699 74.4479  13
   1   7   0 69.9607 43.2766  16
  -1  -7   0 184.080 84.2311   3
  -1  -7  -1 3795.94 303.520  13
   1   7   1 3539.48 192.112  17
   1   7   1 3352.72 301.396   1
   1   7   1 3229.96 252.977  18
  -1  -7  -1 3290.08 278.269   2
  -1  -7  -1 3450.85 191.102   5
  -1  -7  -1 3337.93 178.872  20
   1   7   1 3192.96 182.641  16
  -1  -7  -1 3093.88 266.753   3
   1   7   1 3412.45 191.311  21
   1   7   2 19922.3 561.032  16
  -1  -7  -2 19663.0 760.513   3
   1   7   2 19284.5 729.177  18
  -1  -7  -2 19514.9 525.022   5
   1   7   2 18827.2 782.650   1
   1   7   2 19783.5 560.922  21
  -1  -7  -2 18968.2 763.373   2
   1   7   2 20095.3 563.457  17
   1   7   3 46392.7 1093.91  17
   1   7   3 44997.0 1386.08   1
   1   7   3 45425.3 1086.23  16
  -1  -7  -3 45643.8 1373.69   2
   1   7   3 44422.1 1086.00  21
   1   7   3 45388.5 1339.27  18
  -1  -7  -3 45410.5 1358.54   3
   1   7   3 45915.4 1097.60  19
   1   7   4 104.010 95.4183   8
  -1  -7  -4 19.6089 69.6619   3
   1   7   4 50.0214 76.3734   1
   1   7   4-24.2856 36.5415  21
   1   7   4 85.3362 42.0880  19
  -1  -7  -4 113.858 75.2292   2
   1   7   4 102.535 86.5372  18
   1   7   4 88.8155 40.6320  17
   1   7   4 37.4202 28.2329  16
  -1  -7  -5 2870.94 284.957   2
   1   7   5 2927.48 176.810  16
   1   7   5 2786.80 173.897  21
   1   7   5 2422.38 255.325  18
   1   7   5 2612.01 266.858   1
   1   7   5 2217.60 252.107   8
   1   7   5 2312.86 162.285  19
   1   7   5 2732.09 171.971  17
  -1  -7  -5 3156.47 295.922   3
  -1  -7  -6 6830.13 456.093   3
   1   7   6 7596.89 476.384  18
  -1  -7  -6 6947.87 363.097  12
   1   7   6 7122.63 447.786   1
  -1  -7  -6 7374.00 474.723   2
   1   7   6 7396.06 473.160   8
  -1  -7  -7 385.363 80.2907  12
  -1  -7  -7 179.329 84.2901   3
   1   7   7 409.173 95.1561   6
   1   7   7 235.482 95.7570  18
   1   7   7 458.456 128.608   1
  -1  -7  -7 561.471 154.806   2
   1   7   7 303.669 124.221   8
   1   7   8 3955.25 369.646   8
  -1  -7  -8 4663.03 392.085   3
  -1  -7  -8 4148.02 371.782   2
   1   7   8 4140.07 339.574   1
   1   7   8 4455.16 388.640  18
   1   7   9 1059.19 192.975   8
   1   7   9 1722.40 254.781  18
  -1  -7  -9 1541.83 232.324   3
  -1  -7  -9 1193.16 211.971   2
   1   7   9 1280.10 194.721   1
   1   7  10 962.716 202.208  18
   1   7  10 1081.20 214.816   8
  -1  -7 -10 1005.29 201.954   3
  -1  -7 -10 619.830 167.884   2
   1   7  11 543.359 163.061   8
   1   7  11 723.619 178.918  18
  -1  -7 -11 643.360 175.264   2
  -1  -7 -11 688.976 180.692   3
  -1  -7 -12 757.146 184.841   2
   1   8  -8 463.372 143.377  14
   1   8  -7 392.456 148.917  14
  -1  -8   7 425.409 133.488   5
  -1  -8   7 570.533 165.796  13
   1   8  -7 505.899 145.594   7
   1   8  -6 319.107 124.729  14
  -1  -8   6 537.277 159.278  13
  -1  -8   6 154.864 109.746   5
   1   8  -6 228.232 95.5789   1
  -1  -8   5 338.865 117.701  13
  -1  -8   5 641.905 147.349   5
   1   8  -5 602.174 153.560  14
   1   8  -5 471.197 121.362   1
   1   8  -4 114.136 84.6467  14
  -1  -8   4-68.2180 103.776  13
   1   8  -4 14.7693 73.8265   1
  -1  -8   4 33.6946 71.9783   5
  -1  -8   4 86.4438 73.0718   3
   1   8  -3 1335.66 213.115  14
  -1  -8   3 1400.91 182.578   3
  -1  -8   3 1172.55 170.463   5
  -1  -8   3 1533.73 218.283  13
   1   8  -3 1355.58 213.024   1
  -1  -8   2 508.916 138.748  13
   1   8  -2 727.599 157.931  14
   1   8  -2 367.040 135.817   1
  -1  -8   2 504.650 108.214   5
  -1  -8   2 477.954 115.080   3
  -1  -8   1 4747.41 343.575   3
   1   8  -1 4259.33 283.027  18
  -1  -8   1 4237.28 352.956  13
  -1  -8   1 4417.13 278.361   5
   1   8  -1 4298.71 371.134   1
   1   8  -1 4001.32 345.305  14
  -1  -8   0-25.8392 81.6555  13
   1   8   0 34.9065 82.5536   1
   1   8   0 13.7640 67.8938  18
  -1  -8   0-30.4988 75.0440   2
  -1  -8   0 37.5952 71.8222   3
   1   8   1 497.009 160.581   1
  -1  -8  -1 352.246 113.264   2
   1   8   1 276.196 104.953  18
  -1  -8  -1 413.200 119.270   3
  -1  -8  -1 364.432 104.827  13
  -1  -8  -2 227.301 111.779   2
   1   8   2 268.233 96.9621  18
   1   8   2 375.204 141.688   1
  -1  -8  -2 283.687 109.297   3
  -1  -8  -3 4813.25 377.200   3
  -1  -8  -3 5392.70 407.196   2
   1   8   3 4615.48 356.477  18
   1   8   3 5399.54 417.281   1
  -1  -8  -4 1342.59 212.438   3
   1   8   4 1390.43 218.303   1
   1   8   4 1139.15 183.885  18
  -1  -8  -4 1459.51 218.892   2
  -1  -8  -5 31.0784 81.1892   2
   1   8   5-15.7339 82.9599   1
   1   8   5 46.5263 72.4833  18
  -1  -8  -5-61.8025 99.0701   3
   1   8   5-37.4460 94.4048   8
   1   8   6 19.5222 66.3645  18
   1   8   6 87.4520 102.146   1
  -1  -8  -6-22.2914 71.5138  12
  -1  -8  -6-22.1225 76.4486   3
  -1  -8  -6 31.4917 94.7591   2
   1   8   6-36.0216 95.6687   8
   1   8   7 29.6143 89.8678   1
  -1  -8  -7 81.4072 125.396   3
  -1  -8  -7 200.853 121.979   2
   1   8   7 376.046 134.572   8
   1   8   7 89.1780 102.686  18
   1   8   8 1601.72 229.854   1
  -1  -8  -8 1694.04 254.213   3
  -1  -8  -8 1676.21 260.578   2
   1   8   8 1910.32 269.995  18
   1   8   8 1511.90 248.434   8
   1   8   9 463.097 161.251  18
   1   8   9 139.736 85.9282   8
  -1  -8  -9 109.816 97.1660   2
   1   8   9 144.940 109.823   1
  -1  -8  -9 261.884 131.669   3
  -1  -8 -10 1484.16 257.326   2
   1   9  -5 1934.29 273.268  14
  -1  -9   5 1786.20 269.513  13
   1   9  -5 1290.23 219.430   1
   1   9  -4 109.302 102.009  14
   1   9  -4 309.550 130.127   1
  -1  -9   4-47.2536 99.2395  13
   1   9  -3-33.9756 93.0040  14
   1   9  -3 66.9911 88.7354   1
  -1  -9   3 115.730 110.515  13
   1   9  -2 719.897 174.560  14
   1   9  -2 576.852 147.987   1
  -1  -9   2 534.119 147.932  13
  -1  -9   2 719.152 153.410   3
  -1  -9   1 218.814 105.512  13
   1   9  -1 444.229 136.524   1
  -1  -9   1 366.275 112.242   3
  -1  -9   0 453.330 146.390  13
   1   9   0 489.024 145.103   1
  -1  -9   0 731.488 149.238   3
  -1  -9  -1 6.13772 91.3918  13
   1   9   1-76.4106 86.0767  18
  -1  -9  -1 160.282 100.495   2
   1   9   1-68.7982 111.107   1
  -1  -9  -1-176.715 98.5667   3
   1   9   2 900.933 192.520   1
   1   9   2 397.095 111.619  18
  -1  -9  -2 658.592 154.788   2
  -1  -9  -2 615.173 141.748   3
  -1  -9  -2 677.673 158.430  13
   1   9   3 2100.17 250.721  18
  -1  -9  -3 2461.94 292.362   3
   1   9   3 2491.69 305.294   1
  -1  -9  -3 2550.79 302.395   2
  -1  -9  -4 60.4261 91.5054   3
   1   9   4 187.983 114.709   1
   1   9   4 216.587 110.655  18
  -1  -9  -4 125.913 106.011   2
  -1  -9  -5 116.221 102.271   3
   1   9   5 277.632 124.264   1
   1   9   5 148.913 103.068  18
  -1  -9  -5 371.798 144.171   2
   1   9   6 38.2968 74.6018  18
  -1  -9  -6-177.172 141.781   3
   1   9   6 56.0529 80.9187   1
   1   9   6 13.8002 75.2100   8
  -1  -9  -7 264.676 149.139   2
   1   9   7 155.407 118.413  18
   1   9   7 178.696 122.816   1
  -1  -9  -7 170.693 108.487   3
   1   9   7 271.694 130.304   8
   1   9   8-4.00526 98.0359   1
   1   9   9 753.495 194.253   1
  -1 -10   1 568.308 147.789   3
  -1 -10   0 796.061 176.662   3
  -1 -10  -1 1097.29 211.711   3
   1  10   2 1090.22 190.022  18
  -1 -10  -2 1232.90 225.773   3
   1  10   3 382.264 130.548  18
  -1 -10  -3 561.825 171.891   3
  -1 -10  -3 627.436 191.372   2
   1  10   4-30.2911 78.7577  18
  -1 -10  -4 167.826 110.737   3
   1  10   5 1643.60 264.731  18
  -2   9   3 150.969 100.675  18
  -2   8   6 1162.05 225.937   8
  -2   8   5 785.644 201.578   1
  -2   8   5 668.723 179.049  18
  -2   8   5 655.601 174.930   8
  -2   8   4 3820.60 405.267   1
  -2   8   4 3458.17 361.318  18
  -2   8   4 3105.14 333.676   8
   2  -8  -3 638.606 184.097   3
  -2   8   3 399.550 134.041  18
  -2   8   3 481.467 155.429   1
  -2   8   2 224.407 103.166  18
   2  -8  -2 29.3749 84.7496   3
  -2   8   1 636.990 159.880   1
   2  -8  -1 903.886 198.972   3
  -2   8   1 884.567 166.035  18
   2  -8   0 408.416 143.680  13
  -2   8   0 555.165 165.849   1
   2  -8   0 507.217 153.182   3
   2  -8   1 160.889 100.133  13
  -2   8  -1 41.2324 141.631   1
   2  -8   1-192.382 118.251   3
   2  -8   2 3762.63 353.393  13
  -2   8  -2 3841.66 402.114   1
   2  -8   2 3972.61 387.015   3
   2  -8   3 324.976 132.219   3
   2  -8   3 335.754 125.110  13
  -2   8  -3 512.422 148.442   1
   2  -8   4 126.490 98.4165   3
  -2   8  -4 177.293 127.398   1
   2  -8   5 33.8229 96.2856   3
  -2   7   8 184.142 126.429   1
  -2   7   7 8962.46 585.500   1
   2  -7  -7 9018.85 610.449   3
  -2   7   7 9101.75 595.197   8
  -2   7   7 7739.20 587.889  18
  -2   7   6 132.306 117.812   1
  -2   7   6-58.5808 110.088  18
   2  -7  -6 34.2903 100.700   3
  -2   7   6-67.7710 88.4677  21
  -2   7   6-59.6064 87.6723  16
  -2   7   6-75.3582 75.3524  17
  -2   7   6 247.325 120.618   8
  -2   7   5 4337.67 342.572  19
  -2   7   5 4415.36 341.356  21
  -2   7   5 4459.61 402.152  18
  -2   7   5 4270.69 333.854  17
  -2   7   5 4061.76 326.780  16
  -2   7   5 5050.00 410.713   8
  -2   7   5 5393.25 444.628   1
   2  -7  -5 4959.86 432.117   3
  -2   7   4 43.0151 53.9597  16
  -2   7   4-61.1311 86.3428  18
  -2   7   4-76.4503 104.956   1
  -2   7   4-30.1449 86.1749   8
  -2   7   4 34.6602 62.0298  17
  -2   7   4-19.5184 75.9131  19
  -2   7   4 27.5380 62.3272  21
   2  -7  -4-44.5268 102.152   3
  -2   7   3 5906.71 391.391  21
  -2   7   3 7106.04 509.333   1
  -2   7   3 6628.49 448.598   8
   2  -7  -3 7881.10 527.021   3
  -2   7   3 7270.27 481.961  18
  -2   7   3 6825.00 411.924  17
  -2   7   3 6471.87 402.442  16
  -2   7   2 893.868 151.140  21
  -2   7   2 1033.07 182.271  18
  -2   7   2 1312.55 231.413   1
  -2   7   2 978.869 159.069  17
  -2   7   2 1254.87 180.123  16
   2  -7  -2 1292.07 213.433   3
  -2   7   1 16992.9 711.972  21
   2  -7  -1 18914.8 842.054   3
  -2   7   1 19560.2 875.650   1
  -2   7   1 16949.0 701.530  16
  -2   7   1 17545.9 747.025  18
   2  -7  -1 17550.6 693.080  20
  -2   7   1 17027.1 707.457  17
  -2   7   0 494.891 140.950   1
  -2   7   0 419.303 113.485  21
  -2   7   0 377.331 102.437  18
   2  -7   0 661.586 125.654  20
  -2   7   0 629.347 132.151  17
  -2   7   0 529.390 117.861  16
   2  -7   0 690.480 171.092   3
   2  -7   1 2346.75 259.372  13
   2  -7   1 2695.66 297.701   3
   2  -7   1 2254.82 228.816  20
  -2   7  -1 2570.39 253.372  17
  -2   7  -1 2669.69 308.411   1
  -2   7  -1 2119.20 232.107  16
   2  -7   2 880.263 164.490  13
   2  -7   2 870.386 176.960   3
   2  -7   2 780.662 134.213  20
  -2   7  -2 1078.11 218.175   1
  -2   7  -2 876.398 154.044  16
  -2   7  -2 725.925 141.653  17
   2  -7   3 1886.18 206.736  11
   2  -7   3 1993.84 255.964   3
  -2   7  -3 2213.98 287.465   1
   2  -7   3 2006.94 233.558  20
   2  -7   3 2396.18 250.376  19
  -2   7  -3 1651.36 212.710  17
  -2   7  -3 1375.04 199.921  16
   2  -7   3 1841.89 227.897  13
   2  -7   4 914.664 186.991   3
  -2   7  -4 670.871 171.700   1
   2  -7   4 654.843 140.579  20
   2  -7   4 584.345 143.762  13
   2  -7   4 535.293 142.075  19
  -2   7  -4 566.356 134.012  17
  -2   7  -4 675.953 156.451  16
  -2   7  -5 297.247 115.137  16
  -2   7  -5 302.398 112.305   1
   2  -7   5 298.431 104.636   3
   2  -7   5 183.580 100.460  20
  -2   7  -5 142.090 78.0474  17
   2  -7   5 297.236 104.827  19
  -2   7  -6 1129.85 208.456  16
   2  -7   6 863.195 177.319  19
   2  -7   6 1164.26 202.884   3
  -2   7  -6 904.854 192.488   1
   2  -7   6 971.194 182.948  20
  -2   7  -6 1037.93 207.879  17
   2  -7   7 503.636 158.181   3
   2  -7   7 582.569 159.348  19
  -2   7  -7 208.130 116.270  17
  -2   7  -7 202.244 101.245   1
   2  -7   7 394.134 132.261  20
  -2   7  -7 272.601 130.816  16
  -2   6  10 174.657 103.263  19
  -2   6  10-1.31984 76.6630  20
  -2   6  10 22.2135 68.2142  17
  -2   6  10-13.0480 78.6258  16
  -2   6  10-94.5168 86.8526  21
  -2   6   9 607.972 176.897  18
  -2   6   9 300.035 124.625  21
  -2   6   9 656.976 183.571   8
  -2   6   9 479.014 136.883  17
  -2   6   9 418.381 122.145  19
   2  -6  -9 516.342 144.109   3
  -2   6   9 324.244 108.672  16
  -2   6   9 336.811 115.343  20
  -2   6   8 85.6930 85.3536  21
  -2   6   8 7.52123 99.1912  18
   2  -6  -8-40.8962 117.293   3
  -2   6   8-13.9009 73.1128  17
  -2   6   8-24.7166 76.4836  16
  -2   6   8-30.0567 84.8410  19
  -2   6   8-167.615 92.7251   1
  -2   6   8-14.6982 106.474   8
  -2   6   7 1078.25 207.093  18
  -2   6   7 886.900 161.667  21
   2  -6  -7 1313.63 223.889   3
  -2   6   7 847.729 163.558  19
  -2   6   7 733.267 144.477  17
  -2   6   7 723.205 158.188   1
  -2   6   7 972.493 163.883  16
  -2   6   7 817.035 175.900   8
  -2   6   6 27.4671 62.5470  19
  -2   6   6 240.387 110.649   1
  -2   6   6 53.4331 60.9260  16
  -2   6   6-27.1933 81.4361  21
  -2   6   6 14.3381 106.196  18
   2  -6  -6 33.7462 104.999   3
  -2   6   6-58.1327 71.6393  17
  -2   6   6 13.1897 72.0261   8
  -2   6   5 995.745 178.932   8
  -2   6   5 1341.30 183.953  21
  -2   6   5 1215.16 207.455   1
  -2   6   5 1025.34 164.166  19
  -2   6   5 1424.78 186.130  17
  -2   6   5 1496.69 220.414  18
   2  -6  -5 1402.70 221.739   3
  -2   6   5 1116.10 172.135  16
  -2   6   4 2997.52 305.124   1
  -2   6   4 2645.57 245.101  17
  -2   6   4 3131.24 308.828  18
  -2   6   4 2653.44 249.731  21
  -2   6   4 2831.81 261.362  19
  -2   6   4 2452.28 234.850  16
   2  -6  -4 2878.45 299.134   3
  -2   6   4 2484.07 260.546   8
  -2   6   3 5396.93 408.222   1
   2  -6  -3 4790.13 381.808   3
  -2   6   3 4549.71 359.612  18
  -2   6   3 5104.09 336.940  17
  -2   6   3 4650.50 320.390  16
  -2   6   3 4542.78 342.549   8
  -2   6   3 4684.55 326.053  21
  -2   6   2 1749.04 205.807   8
  -2   6   2 2033.28 187.287  10
  -2   6   2 2124.47 236.314  18
  -2   6   2 1969.56 254.339   1
  -2   6   2 1619.02 191.949  17
   2  -6  -2 2233.71 252.460   3
  -2   6   2 1976.72 206.695  16
  -2   6   2 1642.39 194.950  21
  -2   6   1 6588.59 450.543   1
  -2   6   1 6250.76 376.006  21
   2  -6  -1 7236.19 460.004   3
   2  -6  -1 6716.82 367.862  20
  -2   6   1 6588.76 343.018  10
  -2   6   1 6737.37 404.405  18
  -2   6   1 5604.83 357.870  17
  -2   6   1 5998.76 364.439  16
  -2   6   0 425.437 109.037  21
  -2   6   0 493.241 113.769  17
  -2   6   0 465.720 93.6058  10
  -2   6   0 640.358 123.639  16
   2  -6   0 767.673 125.790  20
  -2   6   0 467.111 104.791  18
   2  -6   0 558.050 143.802   3
  -2   6   0 665.741 155.049   1
  -2   6  -1 138.420 109.041   1
   2  -6   1 208.179 115.631   3
  -2   6  -1 188.424 67.3208  10
  -2   6  -1 72.8904 52.2617  18
  -2   6  -1 151.470 75.0428  17
  -2   6  -1 76.3935 62.7908  16
   2  -6   1 78.0843 51.9788  20
  -2   6  -2 6448.21 444.338   1
   2  -6   2 6045.82 370.716  20
   2  -6   2 6268.71 379.820  19
  -2   6  -2 6104.81 326.641  18
   2  -6   2 6280.23 419.807   3
  -2   6  -2 5661.55 374.430  17
  -2   6  -2 5103.44 355.589  16
   2  -6   2 6077.62 379.558  13
  -2   6  -2 6090.73 334.314  10
   2  -6   3 300.769 104.838   3
  -2   6  -3 401.414 129.012   1
   2  -6   3 464.998 109.173  20
   2  -6   3 358.144 103.138  13
   2  -6   3 389.206 103.997  19
  -2   6  -3 500.185 102.692  10
   2  -6   3 431.901 92.5547   4
  -2   6  -3 383.517 110.049  17
  -2   6  -3 442.798 122.965  16
  -2   6  -4 4449.97 346.223  16
   2  -6   4 4465.39 295.686   4
  -2   6  -4 4562.68 301.829  10
   2  -6   4 4369.16 333.838  19
  -2   6  -4 4276.63 359.728   1
   2  -6   4 4505.96 321.467  13
   2  -6   4 4693.46 346.499  20
  -2   6  -4 3523.53 315.302  17
   2  -6   4 4244.49 350.114   3
   2  -6   4 4073.79 291.581  11
   2  -6   5 2435.24 231.997   4
   2  -6   5 1752.59 218.561  20
   2  -6   5 1852.92 239.098   3
   2  -6   5 2036.32 217.934  13
   2  -6   5 2710.62 271.394  19
   2  -6   5 2657.67 232.066  11
  -2   6  -5 2281.02 221.354  10
  -2   6  -5 2219.73 262.150   1
  -2   6  -5 1823.37 232.536  17
  -2   6  -5 1944.84 241.338  16
  -2   6  -6 306.962 91.8919  14
  -2   6  -6 414.960 124.483  17
   2  -6   6 203.516 97.3786   3
   2  -6   6 224.190 91.3246  13
  -2   6  -6 325.963 109.810  16
  -2   6  -6 350.349 103.457  10
  -2   6  -6 461.622 136.158   1
   2  -6   6 281.713 115.980  19
   2  -6   6 76.5512 72.6840  20
   2  -6   6 447.196 117.026   4
  -2   6  -7 202.352 115.716  16
   2  -6   7 97.9347 81.0320   3
   2  -6   7 78.6329 77.6041   4
   2  -6   7-149.881 111.653  20
  -2   6  -7 26.6626 60.3011  10
  -2   6  -7-37.5067 75.9455   1
   2  -6   7 20.2716 89.9397  19
  -2   6  -8 22.0430 104.378  16
   2  -6   8 145.460 104.072  19
   2  -6   8-1.98853 90.7795   4
   2  -6   8 152.080 102.461  20
   2  -6   9 1197.43 219.236   4
  -2   5  11 49.8944 100.674  17
  -2   5  11 29.5060 86.2319  21
  -2   5  11-15.1708 90.0259  20
  -2   5  11 312.654 133.106  19
  -2   5  11 86.3778 77.9331  16
  -2   5  10 788.634 165.831  21
  -2   5  10 1121.21 216.500   8
  -2   5  10 584.333 162.786  19
   2  -5 -10 1048.47 199.497   3
  -2   5  10 842.094 206.874  18
  -2   5  10 795.816 182.874  20
  -2   5  10 815.760 180.246  17
  -2   5  10 619.284 156.912  16
  -2   5   9 1955.70 242.988  17
  -2   5   9 2129.66 289.809  18
  -2   5   9 2124.73 262.952  20
  -2   5   9 2330.93 269.209  19
  -2   5   9 2199.87 260.950  16
   2  -5  -9 2442.64 289.199   3
  -2   5   9 1952.73 244.722  21
  -2   5   9 2208.42 286.679   8
  -2   5   8-79.2708 76.7194  21
  -2   5   8-48.5076 93.3988  18
  -2   5   8 22.8912 63.4674   1
  -2   5   8-36.7448 77.0964  19
  -2   5   8 24.1975 68.9058  17
   2  -5  -8 41.9873 83.1554   3
  -2   5   8-5.62468 71.5971  16
  -2   5   8-30.4535 74.1172   8
  -2   5   7 144.096 70.7863  21
  -2   5   7 109.305 88.3056  17
  -2   5   7 78.7670 75.9243   1
  -2   5   7 175.951 113.901  18
  -2   5   7 109.383 70.8890  19
  -2   5   7 21.4584 82.8324  16
   2  -5  -7 212.385 95.7449   3
  -2   5   7 153.458 104.178   8
  -2   5   6 1718.44 215.861   1
  -2   5   6 2256.43 249.002   8
  -2   5   6 2220.83 263.757  18
  -2   5   6 2316.54 238.762  19
  -2   5   6 1633.29 199.016  17
  -2   5   6 2105.80 221.371  21
  -2   5   6 1879.27 212.352  16
   2  -5  -6 2074.66 242.809   3
  -2   5   5-56.3156 89.9350   8
   2  -5  -5 45.0051 76.0858   3
  -2   5   5-33.0317 83.9211   1
  -2   5   5-2.41491 68.8625  21
  -2   5   5-54.4010 64.1628  19
  -2   5   5-26.9843 71.6077  16
  -2   5   5-13.1647 62.3732  17
  -2   5   5-20.1156 77.4223  18
  -2   5   4 19.3517 52.4774  21
  -2   5   4 9.01584 77.9309   1
  -2   5   4 20.9104 68.8089  18
  -2   5   4 39.5777 57.2425  19
  -2   5   4 12.1609 60.3014  17
  -2   5   4 164.687 90.5080   8
   2  -5  -4 60.3016 68.8645   3
  -2   5   4-10.1346 59.3653  16
  -2   5   3 431.936 94.8688  21
  -2   5   3 367.430 96.2415  16
  -2   5   3 310.232 94.9073   8
  -2   5   3 219.349 95.1953  18
  -2   5   3 262.588 77.4263  17
   2  -5  -3 378.520 106.534   3
  -2   5   3 299.915 111.135   1
  -2   5   2 4472.66 275.526  10
   2  -5  -2 5191.39 360.998   3
  -2   5   2 5051.89 362.333   1
   2  -5  -2 4543.03 284.683  20
  -2   5   2 4622.25 302.612  21
  -2   5   2 4542.70 326.036  18
  -2   5   2 4862.78 305.190  16
  -2   5   2 4684.74 308.345   8
  -2   5   2 4682.83 303.340  17
  -2   5   1 5977.45 398.627   1
   2  -5  -1 6503.98 345.168  20
   2  -5  -1 5757.74 274.502   6
  -2   5   1 6344.43 371.329  18
  -2   5   1 6511.07 361.190  21
  -2   5   1 6283.68 353.321  17
  -2   5   1 6214.00 347.853  16
  -2   5   1 6878.04 334.600  10
   2  -5  -1 6585.92 404.071   3
  -2   5   1 6161.79 348.958   8
  -2   5   0 165.127 69.1161  10
   2  -5   0 32.8003 18.5418   4
  -2   5   0 151.688 94.5849   1
  -2   5   0 28.9130 50.1349  18
   2  -5   0 36.9318 50.8826  20
  -2   5   0 62.7749 50.4680  16
   2  -5   0 231.929 111.304   3
  -2   5   0 13.5920 55.4647  17
  -2   5  -1 975.256 120.454  10
  -2   5  -1 727.238 112.371  18
   2  -5   1 695.715 120.460  20
  -2   5  -1 983.997 145.978  17
  -2   5  -1 727.587 128.456  16
  -2   5  -1 1134.97 178.839   1
   2  -5   1 944.494 90.9294   4
   2  -5   1 1180.88 173.968   3
  -2   5  -2-37.2735 87.2600   1
   2  -5   2 20.9968 62.9930  13
   2  -5   2 55.1163 38.2586   4
   2  -5   2-11.2535 67.1881  19
   2  -5   2-4.83324 69.6247   3
  -2   5  -2 46.4753 51.6455  10
  -2   5  -2-18.6138 52.7408  17
  -2   5  -2 62.8216 47.4907  18
   2  -5   2 5.01371 61.5278  20
  -2   5  -2 53.4394 59.5670  16
   2  -5   3 125.111 83.6923   3
   2  -5   3 129.300 75.9045  13
   2  -5   3 94.1315 73.0187  20
  -2   5  -3-52.7750 99.0971   1
   2  -5   3 9.81227 59.8178  19
   2  -5   3 41.7199 45.7964   4
  -2   5  -3-48.0125 53.4376  10
  -2   5  -3-8.14671 38.2448  18
  -2   5  -3-35.9479 69.8820  17
  -2   5  -3 23.8962 56.5145  16
   2  -5   4 3463.51 254.009   4
  -2   5  -4 3722.37 269.334  14
   2  -5   4 3775.50 290.442  19
   2  -5   4 3403.25 276.131  20
   2  -5   4 3705.27 264.415  13
  -2   5  -4 3969.26 270.593  10
   2  -5   4 3499.21 257.664  11
   2  -5   4 3766.88 306.100   3
  -2   5  -4 3424.67 297.245   1
  -2   5  -4 3173.04 275.940  16
  -2   5  -4 3605.95 293.450  17
  -2   5  -5 17851.3 736.579   1
   2  -5   5 18706.5 738.549  19
   2  -5   5 18514.7 664.287  11
  -2   5  -5 18068.7 674.832  14
   2  -5   5 18645.8 677.477  13
   2  -5   5 16916.6 721.101   3
   2  -5   5 18778.3 739.949  20
   2  -5   5 18117.8 696.437   4
  -2   5  -5 17381.1 737.469  16
  -2   5  -5 17581.6 672.995  10
   2  -5   6 293.121 88.1050  19
   2  -5   6 375.812 110.415  20
  -2   5  -6 401.311 91.0933  14
   2  -5   6 190.399 95.4611   3
  -2   5  -6 358.910 109.815   1
   2  -5   6 287.324 101.746   4
  -2   5  -6 336.007 102.358  10
   2  -5   6 301.522 95.5146  11
   2  -5   6 402.629 100.630  13
  -2   5  -6 173.483 98.2837  16
  -2   5  -7 808.405 144.352  10
  -2   5  -7 821.171 136.889  14
   2  -5   7 816.769 154.908  19
   2  -5   7 984.688 144.858  11
   2  -5   7 1011.43 172.756   4
   2  -5   7 991.537 153.028  13
   2  -5   7 921.755 167.545  20
  -2   5  -7 628.170 143.181   1
  -2   5  -7 525.360 138.650  16
  -2   5  -8-90.3993 98.5422  10
   2  -5   8 131.343 96.1995  19
  -2   5  -8 110.512 69.4925   1
   2  -5   8 127.841 75.9179   4
   2  -5   8 47.9884 68.3546  20
   2  -5   8-54.2591 79.1018  21
  -2   5  -8 30.6262 81.3272  16
   2  -5   9 116.901 99.0907  20
   2  -5   9 29.9855 88.9671  19
  -2   5  -9 124.314 79.2173  10
   2  -5   9 180.461 116.511  21
   2  -5   9 174.731 124.597   4
  -2   5  -9 109.322 82.0826  16
   2  -5  10 38.5704 82.3537  21
  -2   5 -10 281.902 117.289  10
   2  -5  10 99.2016 93.5926  20
   2  -5  10 0.86176 131.682  19
   2  -5  10 274.425 122.043   4
  -2   5 -10 314.885 134.909  16
  -2   5 -11 4426.89 406.387  10
  -2   4  12 285.932 114.625  21
   2  -4 -12 95.7018 97.6373   7
  -2   4  12-50.5991 100.558  19
  -2   4  12 156.218 131.037  20
   2  -4 -12 23.0076 90.5165   3
  -2   4  12-34.1327 121.966  17
  -2   4  12 191.165 89.0121  16
  -2   4  11-46.1489 93.7089  18
   2  -4 -11 42.9028 89.1239   7
  -2   4  11 13.8984 84.2051  17
  -2   4  11-46.4632 101.511  20
  -2   4  11 104.472 88.7920   8
  -2   4  11 41.0187 84.8393  19
   2  -4 -11 48.9750 84.9661   3
  -2   4  11 52.1335 84.7221  16
  -2   4  11 158.462 98.1489  21
  -2   4  10 2568.48 288.241  21
  -2   4  10 2158.27 277.496  20
  -2   4  10 2879.47 303.277  17
  -2   4  10 3118.20 339.470   8
  -2   4  10 2725.72 293.157  16
  -2   4  10 2328.12 296.132  18
   2  -4 -10 2510.05 283.757   3
  -2   4  10 2671.68 296.770  19
  -2   4   9 4892.38 387.402  19
  -2   4   9 5735.85 410.904  17
  -2   4   9 5608.21 450.170  18
  -2   4   9 5720.17 410.518  16
  -2   4   9 6684.32 470.083   8
  -2   4   9 5981.66 420.331  21
  -2   4   9 5490.82 416.296  20
   2  -4  -9 5696.00 409.046   3
  -2   4   8-40.9589 68.7817  21
  -2   4   8-15.6885 64.0395  17
  -2   4   8 178.226 92.3157  18
  -2   4   8 3.38551 57.3885   1
  -2   4   8 63.9492 68.8445  19
  -2   4   8 46.9851 74.7411  16
   2  -4  -8 77.7583 80.6913   3
  -2   4   8 200.100 121.313   8
  -2   4   7 470.420 120.447  17
  -2   4   7 285.038 103.878  21
  -2   4   7 428.137 137.366  18
  -2   4   7 323.833 107.025  19
  -2   4   7 50.7326 69.1385  16
   2  -4  -7 444.676 127.027   3
  -2   4   7 236.744 94.5757   8
  -2   4   7 361.230 98.0568   1
  -2   4   6 79.9569 89.2287   8
  -2   4   6 29.3113 62.7829  21
  -2   4   6 93.7144 78.5654  16
  -2   4   6 45.8653 71.9356  19
  -2   4   6-24.0857 87.0574  18
  -2   4   6 76.7091 66.7826  17
  -2   4   6 138.492 75.0194   1
   2  -4  -6 47.6830 72.7147   3
  -2   4   5 6423.74 373.924  19
  -2   4   5 6226.79 188.463   4
   2  -4  -5 6673.24 398.383   3
  -2   4   5 6001.56 400.880  18
  -2   4   5 5905.21 374.785   8
  -2   4   5 6312.74 363.582  21
  -2   4   5 6461.45 368.524  17
  -2   4   5 6549.26 367.262  16
  -2   4   5 6192.83 371.544   1
  -2   4   4 5583.18 347.617   1
  -2   4   4 5242.78 334.052   8
  -2   4   4 5063.74 317.513  19
   2  -4  -4 5261.46 347.637   3
  -2   4   4 5059.67 350.164  18
  -2   4   4 5218.95 315.770  17
  -2   4   4 5097.42 311.533  16
  -2   4   4 5451.01 325.366  21
  -2   4   3 5515.88 344.534   1
  -2   4   3 5538.33 316.023  17
  -2   4   3 5562.65 358.573  18
   2  -4  -3 5220.49 170.260   6
   2  -4  -3 5743.20 355.260   3
  -2   4   3 5784.30 329.592   8
  -2   4   3 5853.76 325.446  21
  -2   4   3 5464.53 309.719  16
  -2   4   2 2824.23 233.943  18
   2  -4  -2 2862.31 138.524   6
   2  -4  -2 2786.71 205.137  20
  -2   4   2 2992.97 223.785  21
  -2   4   2 2983.90 250.969   1
  -2   4   2 2876.73 218.299   8
   2  -4  -2 3115.13 258.177   3
  -2   4   2 2710.25 97.9826   5
  -2   4   2 2859.22 208.056  10
  -2   4   2 2610.11 211.193  17
  -2   4   2 3022.10 221.151  16
  -2   4   1 374.070 101.437   1
  -2   4   1 557.235 94.6594  10
  -2   4   1 507.002 85.2169   8
  -2   4   1 458.280 92.3733  21
  -2   4   1 347.798 87.3837  18
  -2   4   1 411.746 88.1365  17
   2  -4  -1 460.746 65.0185   6
   2  -4  -1 523.425 98.4132  20
  -2   4   1 404.757 49.4582   5
   2  -4  -1 471.525 115.220   3
   2  -4  -1 372.208 33.9062   4
  -2   4   1 420.258 93.5187  16
  -2   4   0 414.026 81.4884  10
   2  -4   0 309.379 80.6974  20
  -2   4   0 475.538 88.4128  18
  -2   4   0 398.515 58.8489   5
   2  -4   0 409.597 51.3233   4
  -2   4   0 346.073 88.9594  17
  -2   4   0 442.126 119.420   1
  -2   4   0 344.757 76.0988   8
  -2   4   0 317.879 81.7140  16
   2  -4   0 513.314 116.001   3
  -2   4  -1 99.6007 83.4349   1
   2  -4   1 31.0088 51.4915  19
  -2   4  -1 28.7005 45.7413  18
   2  -4   1 56.1363 53.0213  20
  -2   4  -1 30.3524 46.2665  10
  -2   4  -1 22.2869 53.3558  17
   2  -4   1 41.2736 29.3449   4
  -2   4  -1 34.8745 31.5898   5
  -2   4  -1 24.8077 53.6770  16
   2  -4   1 61.4815 73.6384   3
  -2   4  -2 9377.58 465.854   1
   2  -4   2 10380.9 379.705   4
  -2   4  -2 9316.70 373.516  18
   2  -4   2 9813.76 434.833  19
  -2   4  -2 9301.89 437.777  17
  -2   4  -2 9916.22 404.387  10
   2  -4   2 9501.00 456.257   3
   2  -4   2 9875.44 434.125  20
  -2   4  -2 9260.74 435.147  16
  -2   4  -3 5263.22 324.979  17
   2  -4   3 5638.86 323.103  20
  -2   4  -3 5118.54 290.738  10
   2  -4   3 5548.23 319.996  19
  -2   4  -3 5573.08 246.281  18
   2  -4   3 5701.94 342.511   3
   2  -4   3 5093.20 281.553  13
  -2   4  -3 4878.94 313.564  16
   2  -4   3 5388.90 284.037   4
  -2   4  -3 5094.76 337.758   1
   2  -4   4 884.956 119.037  11
   2  -4   4 1123.73 158.725   3
  -2   4  -4 971.323 121.471  14
  -2   4  -4 842.206 141.863   1
   2  -4   4 946.433 141.789  20
   2  -4   4 1007.77 123.284  13
   2  -4   4 1093.44 138.881   4
  -2   4  -4 947.737 79.4558  18
  -2   4  -4 727.431 114.215  10
   2  -4   4 1110.29 150.960  19
  -2   4  -4 650.975 127.072  16
  -2   4  -5 1179.32 138.006  14
   2  -4   5 1168.42 162.989   3
  -2   4  -5 1152.55 162.169   1
   2  -4   5 1358.89 168.517   4
   2  -4   5 1149.28 142.252  11
  -2   4  -5 1283.65 157.009  10
  -2   4  -5 1349.01 180.710  16
   2  -4   5 1528.79 184.474  19
  -2   4  -5 1089.70 145.842   9
   2  -4   5 941.127 154.662  20
   2  -4   5 1263.13 144.299  13
  -2   4  -6 14932.3 593.222   9
   2  -4   6 16569.8 666.916   4
  -2   4  -6 15688.6 577.622  14
  -2   4  -6 15493.8 630.009   1
   2  -4   6 15470.5 578.027  13
   2  -4   6 15981.7 654.966   3
   2  -4   6 15495.7 586.176  11
  -2   4  -6 16020.1 634.997  10
   2  -4   6 16027.5 671.649  21
   2  -4   6 16464.4 677.417  19
   2  -4   6 15775.5 669.127  20
  -2   4  -6 15333.5 673.919  16
   2  -4   7 9.71325 82.9070  21
  -2   4  -7 74.2565 53.4139  14
   2  -4   7 69.8260 86.4776   4
   2  -4   7 222.736 78.4109  11
  -2   4  -7 140.736 77.2231   1
   2  -4   7 297.912 115.774  20
   2  -4   7 142.490 116.238  19
  -2   4  -7 67.9759 66.4262   9
  -2   4  -7 3.56573 61.1091  10
  -2   4  -7 173.871 86.0711  16
   2  -4   8 3240.82 308.811   4
  -2   4  -8 2743.09 228.861  14
   2  -4   8 2980.08 299.491  20
  -2   4  -8 2719.72 265.385  10
  -2   4  -8 3001.56 249.694   9
  -2   4  -8 3228.74 256.304   1
   2  -4   8 3065.16 294.248  19
   2  -4   8 3117.29 301.769  21
  -2   4  -8 2838.65 298.526  16
   2  -4   8 3081.69 244.768  11
   2  -4   9 470.104 144.433  21
   2  -4   9 518.427 143.465   4
   2  -4   9 315.766 98.4334  11
  -2   4  -9 324.556 103.835  10
   2  -4   9 304.432 109.525  20
   2  -4   9 267.440 105.289  19
  -2   4  -9 387.168 105.771   9
  -2   4  -9 282.192 122.372  16
  -2   4 -10 1340.79 214.308  10
   2  -4  10 1696.74 255.000  20
   2  -4  10 1139.33 210.144  21
   2  -4  10 1364.19 226.613  19
   2  -4  10 1128.04 209.593   4
  -2   4 -10 923.431 188.758  16
   2  -4  11 2495.22 309.639  21
  -2   4 -11 2306.31 286.620  10
   2  -4  11 2588.42 319.571  19
  -2   4 -11 2332.83 307.525  16
   2  -4  11 2409.49 312.788  20
   2  -4  11 1632.29 263.495   4
   2  -3 -13 690.934 165.437   7
  -2   3  12 2270.98 306.198  20
   2  -3 -12 1834.34 259.361   7
  -2   3  12 1641.66 250.514  16
  -2   3  12 2031.07 283.659  21
  -2   3  12 1579.67 249.773  18
  -2   3  12 2106.58 289.791  17
  -2   3  12 2094.44 286.088  19
  -2   3  11 85.6559 92.1930  20
  -2   3  11 265.453 121.150  16
   2  -3 -11 11.9904 94.2492   3
   2  -3 -11 248.428 115.452   7
  -2   3  11-9.53652 67.0123  21
  -2   3  11 86.0271 71.9617  17
  -2   3  11 175.745 117.401  19
  -2   3  11 260.932 107.845  18
  -2   3  11 149.642 90.4720   8
  -2   3  10 869.234 172.371  21
   2  -3 -10 866.072 162.923   7
  -2   3  10 1197.59 196.859  19
  -2   3  10 998.570 195.877  20
  -2   3  10 902.761 177.707  17
  -2   3  10 964.720 184.549  18
   2  -3 -10 1110.20 171.529   3
  -2   3  10 1193.86 200.133  16
  -2   3  10 1190.67 215.163   8
   2  -3  -9 19916.8 846.717   7
  -2   3   9 20953.3 843.369  17
   2  -3  -9 20919.2 812.538   3
  -2   3   9 20999.6 859.844  20
  -2   3   9 21447.1 859.209  19
  -2   3   9 21277.0 847.309  21
  -2   3   9 19091.7 853.826  18
  -2   3   9 21254.7 888.539   8
  -2   3   9 20816.4 841.554  16
  -2   3   8 5367.53 309.140   1
  -2   3   8 5554.41 378.331  21
   2  -3  -8 5909.08 372.651   3
  -2   3   8 4757.87 358.281  19
  -2   3   8 4927.09 371.581  20
  -2   3   8 5601.64 274.804   5
  -2   3   8 4919.19 382.374  18
  -2   3   8 5441.83 376.477  17
  -2   3   8 5703.90 381.703  16
  -2   3   8 6147.18 418.580   8
  -2   3   7 4620.41 351.838  18
  -2   3   7 4068.69 310.473  17
  -2   3   7 4613.06 333.181  19
  -2   3   7 4537.09 286.983   1
  -2   3   7 4100.81 310.342  21
  -2   3   7 4922.42 233.581   5
  -2   3   7 4437.51 318.101  16
  -2   3   7 4584.51 344.347   8
   2  -3  -7 4403.39 313.412   3
  -2   3   6 128.291 65.4560   1
  -2   3   6 125.084 70.4641  21
  -2   3   6 173.695 70.8607  16
   2  -3  -6 72.2472 67.6399   3
  -2   3   6 63.6577 68.0277  19
  -2   3   6 152.752 42.5210   5
  -2   3   6 123.923 104.545  18
  -2   3   6 33.5841 66.1511  17
  -2   3   6 108.385 67.5908   8
  -2   3   5 2279.74 209.791  19
  -2   3   5 2650.81 225.580  17
  -2   3   5 2423.22 214.417  21
   2  -3  -5 2442.43 220.061   3
  -2   3   5 2305.78 218.563   8
  -2   3   5 2590.91 246.232  18
  -2   3   5 2639.43 213.505   1
  -2   3   5 2745.15 132.293   5
  -2   3   5 2507.98 212.604  16
  -2   3   5 2498.10 140.251   4
  -2   3   4 10851.6 462.545  16
   2  -3  -4 10708.8 476.272   3
  -2   3   4 10757.5 473.046  19
  -2   3   4 10872.0 503.234  18
  -2   3   4 10945.6 301.979   5
  -2   3   4 11135.3 470.281  17
  -2   3   4 10997.4 468.160  21
  -2   3   4 10801.2 474.777   8
  -2   3   4 11614.8 323.771   4
  -2   3   4 10623.7 461.959   1
   2  -3  -3 12458.5 505.065   3
  -2   3   3 12644.0 520.440  18
  -2   3   3 12194.4 475.492  16
  -2   3   3 11821.3 307.345   5
  -2   3   3 12710.3 485.468   8
  -2   3   3 11978.1 474.520  17
  -2   3   3 12004.1 476.965  21
  -2   3   3 11755.9 314.093   4
  -2   3   3 12602.5 504.459   1
  -2   3   2 1219.96 66.3683   4
   2  -3  -2 869.811 129.438   3
   2  -3  -2 1292.22 132.542  20
   2  -3  -2 1068.94 62.1315   6
  -2   3   2 1391.40 143.115  21
  -2   3   2 1229.90 147.424  18
  -2   3   2 1168.56 135.733  17
  -2   3   2 1328.31 153.803   1
  -2   3   2 1195.44 129.752  16
  -2   3   2 992.029 116.687  10
  -2   3   2 1289.98 133.075   8
   2  -3  -1 7153.91 324.620  20
  -2   3   1 7623.17 357.009  18
  -2   3   1 7633.61 242.436   5
  -2   3   1 6822.79 324.436  16
  -2   3   1 6991.62 363.648   1
   2  -3  -1 7372.70 217.475   4
   2  -3  -1 7063.63 358.919   3
  -2   3   1 7311.77 320.447  10
  -2   3   1 7380.89 339.572  17
  -2   3   1 7378.84 341.364  21
  -2   3   1 7177.62 317.010   8
   2  -3  -1 7324.70 314.889   8
   2  -3   0 858.372 102.668  10
   2  -3   0 1005.99 116.405  20
  -2   3   0 777.120 121.591   1
  -2   3   0 927.551 107.789  10
  -2   3   0 1135.18 128.435  18
  -2   3   0 954.084 119.949  17
   2  -3   0 997.749 102.320   8
  -2   3   0 1143.67 90.9729   5
  -2   3   0 876.566 114.973  16
   2  -3   0 960.800 130.455   3
  -2   3   0 804.362 96.0431   8
   2  -3   0 896.989 74.8365   4
   2  -3   1 12378.3 392.217   4
   2  -3   1 12790.2 470.795  20
  -2   3  -1 13444.9 425.033   5
   2  -3   1 12761.3 502.526   3
  -2   3  -1 12437.0 446.769  10
   2  -3   1 12994.1 457.652  14
  -2   3  -1 12699.2 447.114  18
   2  -3   1 12887.1 472.332  19
  -2   3  -1 12296.7 475.590  16
   2  -3   1 13393.2 425.045   8
  -2   3  -1 12915.9 512.752   1
  -2   3  -1 12718.7 483.336  17
   2  -3   2 6889.76 304.695  14
   2  -3   2 7102.61 335.234  20
  -2   3  -2 7262.21 311.982   5
   2  -3   2 7493.32 344.279  19
   2  -3   2 7423.04 361.879   3
   2  -3   2 6967.86 290.205   4
   2  -3   2 6547.65 272.893   8
  -2   3  -2 6898.95 313.955  10
  -2   3  -2 6695.57 338.556  17
  -2   3  -2 7209.53 288.757  18
  -2   3  -2 6272.63 327.500  16
  -2   3  -2 6849.39 353.750   1
  -2   3  -3 9491.97 364.911  14
   2  -3   3 9456.91 364.393  14
  -2   3  -3 9002.85 381.682  10
   2  -3   3 9436.47 409.962  19
   2  -3   3 9329.75 356.460  13
   2  -3   3 8802.43 376.170  11
   2  -3   3 9568.31 413.908  20
   2  -3   3 8943.82 331.576   8
   2  -3   3 8477.46 402.542   3
   2  -3   3 9295.13 376.831   4
  -2   3  -3 8985.90 387.870   9
  -2   3  -3 9739.26 319.384  18
  -2   3  -3 9150.86 413.430  16
  -2   3  -3 8625.31 407.742   1
   2  -3   4 102.018 68.4659   3
   2  -3   4 37.7252 62.6168  20
   2  -3   4 40.6302 30.2804   8
   2  -3   4 18.7219 46.6443   4
   2  -3   4 38.8105 61.3156  19
   2  -3   4 39.4900 36.8419  13
   2  -3   4 45.7691 30.3608  14
  -2   3  -4 83.4123 42.6542  10
  -2   3  -4 51.4334 24.2640  18
  -2   3  -4 19.1447 67.1841  16
  -2   3  -4 12.6285 61.2094   1
  -2   3  -4 36.5842 34.7079  14
   2  -3   4 34.6899 50.2451  11
  -2   3  -4 19.6482 50.6093   9
  -2   3  -5 591.426 105.644   1
   2  -3   5 616.908 110.513   4
   2  -3   5 546.740 93.9523  11
  -2   3  -5 615.234 108.236  10
   2  -3   5 522.869 109.514  19
   2  -3   5 510.652 86.4623  13
  -2   3  -5 648.323 94.3443  14
   2  -3   5 407.758 99.7701   3
   2  -3   5 423.857 96.8648  20
  -2   3  -5 513.235 112.360  16
  -2   3  -5 620.006 102.680   9
   2  -3   5 535.252 105.347  21
   2  -3   6 1027.54 129.862  11
  -2   3  -6 1117.72 147.570  10
  -2   3  -6 1063.27 120.427  14
  -2   3  -6 885.501 127.196   1
   2  -3   6 1285.79 171.350  21
   2  -3   6 1391.84 178.960  20
   2  -3   6 1116.09 156.920  19
   2  -3   6 1282.46 137.164  13
   2  -3   6 1229.38 165.750   4
  -2   3  -6 1020.27 129.906   9
  -2   3  -6 808.459 144.526  16
  -2   3  -7 603.832 99.7183  14
   2  -3   7 585.739 134.557  20
   2  -3   7 523.833 121.055  21
   2  -3   7 414.658 120.836   4
  -2   3  -7 240.076 80.5572  10
   2  -3   7 392.738 116.020  19
   2  -3   7 345.246 90.6095  11
  -2   3  -7 492.482 103.245   9
  -2   3  -7 353.060 81.7055   1
  -2   3  -7 376.959 116.400  16
   2  -3   8 6433.86 425.769  20
   2  -3   8 6471.96 432.424   4
  -2   3  -8 6828.20 344.988  14
  -2   3  -8 6982.34 348.902   1
   2  -3   8 6916.46 373.211  11
   2  -3   8 7802.22 461.426  21
   2  -3   8 7678.92 457.048  19
  -2   3  -8 7231.96 383.626   9
  -2   3  -8 6783.40 415.799  10
  -2   3  -8 7418.81 463.341  16
   2  -3   9 2511.80 282.337   4
  -2   3  -9 2746.73 221.098  14
  -2   3  -9 2860.89 273.967  10
   2  -3   9 2285.90 259.525  20
   2  -3   9 2249.40 214.637  11
  -2   3  -9 2357.69 223.203   9
   2  -3   9 2586.57 275.901  21
  -2   3  -9 2511.04 277.089  16
   2  -3   9 2575.03 279.751  19
  -2   3 -10 1815.25 227.886  10
   2  -3  10 1408.70 221.271  21
   2  -3  10 1464.64 236.487   4
   2  -3  10 1350.23 215.385  20
  -2   3 -10 1691.29 195.938   9
   2  -3  10 1468.82 227.010  19
   2  -3  10 1416.32 176.603  11
  -2   3 -10 1580.30 228.696  16
  -2   3 -11 405.931 134.713  10
   2  -3  11 393.466 141.319   4
   2  -3  11 778.366 177.608  19
   2  -3  11 555.412 149.816  20
  -2   3 -11 491.446 153.716  16
   2  -3  11 626.284 158.590  21
  -2   3 -12-59.7628 119.895  10
   2  -2 -13 112.919 109.898   7
  -2   2  13 289.494 102.983  18
  -2   2  12 1767.67 269.143  20
  -2   2  12 1387.14 237.219  19
  -2   2  12 1272.51 220.395  18
   2  -2 -12 960.625 186.714   7
  -2   2  12 1645.69 251.642  17
  -2   2  12 1946.79 271.370  21
  -2   2  12 1316.48 236.022   8
  -2   2  11 268.955 89.0920   5
   2  -2 -11 438.507 131.756   7
  -2   2  11 314.893 112.742  20
  -2   2  11 451.642 145.829  21
  -2   2  11 433.982 144.930  19
  -2   2  11 320.178 135.476  16
  -2   2  11 450.273 131.291  18
  -2   2  11 377.474 139.330  17
   2  -2 -11 356.959 110.116   3
  -2   2  11 166.952 111.259   8
   2  -2 -10 361.221 127.565   7
  -2   2  10 362.312 120.803  18
  -2   2  10 223.101 102.635  16
  -2   2  10 135.765 91.3191  19
  -2   2  10 321.713 88.0827   5
  -2   2  10 547.163 147.653  17
   2  -2 -10 378.563 111.140   3
  -2   2  10 361.761 127.436  21
  -2   2  10 372.203 134.353  20
  -2   2  10 419.699 134.754   8
  -2   2   9 573.938 141.710  20
  -2   2   9 710.629 160.619  19
  -2   2   9 363.481 124.235  18
  -2   2   9 286.084 75.0056   5
   2  -2  -9 439.019 108.079   3
  -2   2   9 483.112 134.712  17
   2  -2  -9 461.708 139.782   7
  -2   2   9 464.687 128.221  16
  -2   2   9 442.559 121.477  21
  -2   2   9 375.260 124.124   8
  -2   2   8 1626.89 126.967   6
  -2   2   8 1681.35 161.963   5
  -2   2   8 1903.77 156.850   1
  -2   2   8 2096.52 224.214  16
  -2   2   8 2049.66 226.177  21
  -2   2   8 2046.86 230.036  19
   2  -2  -8 1652.15 183.876   3
  -2   2   8 1349.66 200.584  20
   2  -2  -8 1554.69 211.561   7
  -2   2   8 1935.72 228.524  18
  -2   2   8 2120.74 227.239  17
  -2   2   8 1773.07 219.528   8
  -2   2   7 382.467 111.761  18
  -2   2   7 404.093 78.0510   1
  -2   2   7 233.039 95.4466  21
  -2   2   7 326.805 108.177  17
  -2   2   7 299.337 50.1884   6
   2  -2  -7 270.694 82.7962   3
  -2   2   7 299.451 68.6874   5
  -2   2   7 109.994 76.4951  16
  -2   2   7 369.488 103.205  19
  -2   2   7 275.533 95.1348   8
  -2   2   6 195.987 33.7337   6
  -2   2   6 107.587 77.0931  21
  -2   2   6 145.438 75.1321  18
  -2   2   6 116.832 77.3390  17
  -2   2   6 88.8091 43.1366   1
  -2   2   6 195.136 49.0866   5
   2  -2  -6 224.890 64.7757   3
  -2   2   6 143.272 63.2761  19
  -2   2   6 154.236 70.9308  16
  -2   2   6 242.472 88.0748   8
   2  -2  -5 2913.48 217.136   3
  -2   2   5 3295.78 175.003   5
  -2   2   5 3161.40 238.982   8
  -2   2   5 3384.45 217.024   1
  -2   2   5 3358.43 243.799  21
  -2   2   5 3403.00 245.405  19
  -2   2   5 3354.75 259.652  18
  -2   2   5 3138.33 235.717  17
  -2   2   5 3201.57 108.679   6
  -2   2   5 3037.59 229.584  16
  -2   2   4 287.301 74.8242  21
   2  -2  -4 235.174 71.2395   3
  -2   2   4 323.400 90.7575  18
  -2   2   4 255.231 76.2906  16
  -2   2   4 216.294 78.2979  17
  -2   2   4 180.904 61.5387   1
  -2   2   4 227.926 48.2781   5
  -2   2   4 167.845 81.3318  19
  -2   2   4 238.419 68.7365   8
  -2   2   3 6316.26 311.672  21
  -2   2   3 5970.31 303.177  17
   2  -2  -3 6101.50 305.622   3
  -2   2   3 6162.99 329.943  18
  -2   2   3 6411.42 223.563   4
  -2   2   3 6081.01 301.433  16
  -2   2   3 6540.28 218.614   5
  -2   2   3 5931.62 299.499   8
  -2   2   3 6177.90 304.639   1
  -2   2   2 7109.07 327.100  21
   2  -2  -2 7511.00 320.816  10
  -2   2   2 7186.18 318.303  10
   2  -2  -2 7093.75 330.264   3
  -2   2   2 7517.52 352.217  18
  -2   2   2 7533.89 328.648  16
  -2   2   2 7358.42 310.833   8
  -2   2   2 7011.76 321.445  17
  -2   2   2 7850.50 236.813   4
   2  -2  -1 5035.59 241.828  10
  -2   2   1 4434.63 217.576   8
   2  -2  -1 4738.07 249.080  16
   2  -2  -1 4581.30 234.767  20
  -2   2   1 4593.07 254.747  18
  -2   2   1 5020.63 246.254  19
  -2   2   1 4674.90 248.035  21
  -2   2   1 4648.02 234.274  10
   2  -2  -1 4601.65 253.554   3
  -2   2   1 5094.30 247.784  20
   2  -2  -1 4718.38 249.120  17
  -2   2   1 4654.58 248.000  17
  -2   2   1 4676.77 174.182   4
  -2   2   1 4475.65 240.036  16
   2  -2  -1 4791.44 170.602   4
  -2   2   0 2140.91 118.630   4
  -2   2   0 1974.23 155.556  16
  -2   2   0 2015.51 146.370  10
  -2   2   0 2036.88 151.703  20
   2  -2   0 1982.26 144.138  10
  -2   2   0 2162.11 154.482  19
   2  -2   0 1747.21 157.468   3
   2  -2   0 2259.48 163.544   9
   2  -2   0 1924.18 148.538  20
  -2   2   0 1904.62 157.496  17
   2  -2   0 1834.99 149.658  17
   2  -2   0 2026.96 156.177  16
  -2   2   0 1847.52 122.587   8
   2  -2   0 2052.35 128.229   8
   2  -2   0 2037.68 109.515   4
   2  -2   1 5455.12 233.465  14
  -2   2  -1 5484.06 259.574  20
  -2   2  -1 4804.01 251.179  16
   2  -2   1 4638.46 242.313  20
  -2   2  -1 5002.97 242.222  10
   2  -2   1 4903.88 206.152   4
  -2   2  -1 5257.98 225.044   5
   2  -2   1 4855.81 247.522  19
   2  -2   1 4823.24 263.042   3
   2  -2   1 5189.37 245.674  10
   2  -2   1 5369.22 258.135   9
   2  -2   1 5461.56 267.581  16
  -2   2  -1 5173.18 202.286   8
  -2   2  -1 5027.36 260.911  17
   2  -2   1 5045.60 202.578   8
  -2   2  -1 5426.94 258.385  19
   2  -2   2-24.8694 40.9372   7
   2  -2   2-12.6487 33.1034  14
  -2   2  -2-5.54549 42.2372  10
   2  -2   2-31.0752 59.1470  19
  -2   2  -2-17.6891 50.9367   9
   2  -2   2 8.17129 26.5945   8
   2  -2   2 1.04550 32.6517  10
   2  -2   2 39.8732 38.4680   4
  -2   2  -2 41.7161 38.3067   5
   2  -2   2 72.1663 41.6420   9
  -2   2  -2-11.6812 55.6032  17
   2  -2   2 41.6162 53.7233  20
   2  -2   2-10.7966 65.7285   3
  -2   2  -2 106.236 63.5247  16
   2  -2   3 387.695 86.2251   3
  -2   2  -3 362.309 58.2183  14
   2  -2   3 237.205 57.4247   7
   2  -2   3 360.473 57.1165  14
   2  -2   3 321.378 53.5056  13
  -2   2  -3 331.843 74.3853   9
   2  -2   3 287.581 74.2743  20
   2  -2   3 305.052 72.1727  11
   2  -2   3 436.376 87.3002  19
   2  -2   3 351.423 74.7577   4
  -2   2  -3 425.592 89.6346  16
  -2   2  -3 215.516 72.4804   1
  -2   2  -3 412.145 81.4288  10
   2  -2   3 230.192 40.9401   8
   2  -2   4 2130.57 154.998   7
   2  -2   4 2051.29 177.125   4
  -2   2  -4 2105.31 133.265  14
   2  -2   4 2094.06 134.144  14
   2  -2   4 2012.83 161.174  11
   2  -2   4 1953.14 128.784  13
   2  -2   4 2064.72 177.443  20
  -2   2  -4 1979.55 164.546  10
   2  -2   4 2043.77 173.373  19
   2  -2   4 2019.39 178.085  21
  -2   2  -4 2062.12 162.242   9
   2  -2   4 2059.35 177.317   3
  -2   2  -4 2047.68 180.072  16
  -2   2  -4 1664.97 154.030   1
   2  -2   4 2131.71 142.485  15
   2  -2   5 2751.22 180.894   7
   2  -2   5 2626.98 207.246   4
  -2   2  -5 2722.46 162.994  14
   2  -2   5 2593.84 187.684  11
   2  -2   5 2653.89 162.395  13
  -2   2  -5 2848.64 210.039  10
  -2   2  -5 2862.49 194.822   1
   2  -2   5 2791.54 218.219  20
   2  -2   5 2521.93 210.661  19
   2  -2   5 2414.36 203.971   3
  -2   2  -5 2882.63 198.231   9
  -2   2  -5 2476.86 88.6732  18
  -2   2  -5 2448.74 90.0429  18
   2  -2   5 2886.37 161.601  15
   2  -2   5 2998.12 169.621  14
  -2   2  -5 2654.42 218.449  16
   2  -2   5 2605.21 209.659  21
   2  -2   6 302.180 87.1493  21
   2  -2   6 252.950 48.1593  15
  -2   2  -6 328.313 67.7902  14
  -2   2  -6 189.533 50.5428  13
  -2   2  -6 332.189 82.5246   9
   2  -2   6 326.234 92.2514   4
  -2   2  -6 233.686 74.8259  10
  -2   2  -6 275.753 94.8425  16
   2  -2   6 402.026 78.3933  11
   2  -2   6 261.683 87.3735  20
   2  -2   6 285.796 94.8994  19
  -2   2  -6 186.982 62.8392   1
  -2   2  -7 1487.93 136.970   1
   2  -2   7 1260.02 146.643  11
  -2   2  -7 1111.31 119.356  13
   2  -2   7 1378.14 180.722   4
   2  -2   7 1226.04 168.605  20
   2  -2   7 1211.55 166.365  19
  -2   2  -7 1402.84 169.785  10
  -2   2  -7 1413.38 132.350  14
  -2   2  -7 1233.30 142.397   9
   2  -2   7 1246.33 162.435  21
  -2   2  -7 1512.94 145.131   7
   2  -2   7 1261.96 100.326  15
  -2   2  -7 1403.80 180.658  16
   2  -2   8 1937.24 222.895  20
  -2   2  -8 1979.90 164.458  14
  -2   2  -8 1800.44 148.636   1
   2  -2   8 1824.08 180.388  11
   2  -2   8 1585.75 203.858   4
   2  -2   8 1823.93 208.775  19
   2  -2   8 1934.05 218.620  21
  -2   2  -8 1627.40 196.304  10
  -2   2  -8 1567.98 168.913   9
  -2   2  -8 2137.16 231.737  16
  -2   2  -8 1752.01 160.153   7
   2  -2   9 392.894 102.843  19
  -2   2  -9 334.417 81.2996  14
   2  -2   9 236.003 71.3730  11
   2  -2   9-10.5559 87.8075   4
  -2   2  -9 276.199 91.6280  10
   2  -2   9 503.648 132.014  20
  -2   2  -9 356.824 85.1807   7
  -2   2  -9 107.828 67.5497   9
   2  -2   9 312.846 104.301  21
  -2   2  -9 364.928 123.768  16
  -2   2 -10 35.7730 50.5532   7
  -2   2 -10 3.67756 53.9686  14
   2  -2  10 112.937 95.1429  20
   2  -2  10 39.4638 70.0790  21
  -2   2 -10 33.8301 70.7767  16
   2  -2  10 43.6181 59.8007  11
   2  -2  10 26.6419 99.3209   4
  -2   2 -10 63.1859 87.1181  10
  -2   2 -10 41.8341 57.7149   9
   2  -2  10 132.174 108.440  19
   2  -2  11 317.409 126.840  19
   2  -2  11 326.268 92.8946  11
   2  -2  11 250.440 107.967  20
  -2   2 -11 194.995 75.9433  10
   2  -2  11 454.265 132.450  21
   2  -2  11 509.772 153.297   4
  -2   2 -11 271.405 96.9012   9
  -2   2 -11 257.560 132.019  16
  -2   2 -12 163.216 83.8434   9
  -2   2 -12 115.305 99.3869  10
   2  -2  12 322.273 145.056  20
   2  -2  12-64.2285 110.123  19
   2  -2  12 211.886 94.3320  11
   2  -2  12 13.9905 80.4250   4
   2  -2  12 44.2298 89.4593  21
  -2   2 -12 469.202 136.626  16
   2  -1 -13 449.374 137.275   7
  -2   1  13 735.434 165.820   5
  -2   1  12 278.532 108.128  18
  -2   1  12 259.953 151.284  20
   2  -1 -12 101.822 85.3981   7
  -2   1  12 135.587 102.401   8
  -2   1  12 563.324 174.327  19
  -2   1  12 348.509 112.814   5
  -2   1  12 291.400 118.712  17
  -2   1  12 322.172 132.582  21
   2  -1 -11-6.11357 77.6050  15
  -2   1  11 148.516 103.730  19
  -2   1  11 111.247 86.4046  18
  -2   1  11 11.6405 99.5868  21
  -2   1  11 31.6174 74.4185  20
  -2   1  11-18.0832 85.3913   5
  -2   1  11 41.7757 91.1879  16
  -2   1  11-36.2831 87.8448  17
   2  -1 -11-87.3231 101.889   7
  -2   1  11 6.16691 100.592   8
   2  -1 -10 37.7821 55.7743   3
  -2   1  10 138.533 69.8923   6
   2  -1 -10 197.315 98.7237  15
  -2   1  10-35.6254 70.8085  20
  -2   1  10 109.628 65.1449  17
  -2   1  10 227.219 94.1991  19
  -2   1  10 92.5743 86.3434  21
  -2   1  10 157.958 85.0066   5
  -2   1  10 129.446 105.333  16
   2  -1 -10 44.7978 78.9956   7
  -2   1  10 76.1375 86.3034  18
  -2   1   9 7801.92 473.970  19
   2  -1  -9 6820.94 421.389   7
   2  -1  -9 7181.06 376.908   3
  -2   1   9 7393.08 456.752  17
  -2   1   9 6937.59 387.522   5
  -2   1   9 7586.47 444.409  18
  -2   1   9 7084.92 448.653  21
  -2   1   9 7413.14 469.887  20
  -2   1   9 7896.27 474.686  16
  -2   1   8 652.865 129.314  18
  -2   1   8 591.927 72.5880   1
  -2   1   8 513.146 122.586  19
  -2   1   8 525.774 124.122  20
   2  -1  -8 662.207 144.652   7
  -2   1   8 641.847 111.636   5
  -2   1   8 769.880 149.195  17
   2  -1  -8 584.473 101.854   3
  -2   1   8 565.426 121.594  21
  -2   1   8 422.315 104.046  16
  -2   1   7 44.6155 62.7744  21
   2  -1  -7-19.7698 84.7705   7
  -2   1   7 10.4437 57.5508  19
  -2   1   7 31.1594 62.4583  16
  -2   1   7 52.4014 79.6900  17
   2  -1  -7 61.9281 49.9260   3
  -2   1   7 261.131 71.3813   5
  -2   1   7 83.9238 67.6749  18
  -2   1   7 145.003 74.2865  20
  -2   1   7 116.894 46.2520   1
  -2   1   6-20.7944 65.3176  19
  -2   1   6 34.9102 39.8246   1
  -2   1   6 46.6069 59.8061  18
   2  -1  -6-38.5727 51.1308   3
  -2   1   6 74.5468 70.3102  21
  -2   1   6-26.1633 42.1375   5
  -2   1   6 17.6937 63.5937  16
  -2   1   6 13.3642 66.9831  17
   2  -1  -6 29.8415 69.6081   7
   2  -1  -5 1116.23 120.382   3
  -2   1   5 1099.77 118.819   2
  -2   1   5 1166.60 141.752  17
  -2   1   5 1172.72 145.287  19
  -2   1   5 1085.61 147.164  18
   2  -1  -5 1362.59 118.069   5
  -2   1   5 1127.71 110.197   5
  -2   1   5 1103.21 143.221  21
  -2   1   5 889.897 124.014  16
  -2   1   4 17880.9 526.623   5
  -2   1   4 18948.0 617.748  21
  -2   1   4 18190.6 606.031  16
   2  -1  -4 18045.0 565.027   3
  -2   1   4 19017.2 622.705  19
  -2   1   4 19027.9 582.276   2
  -2   1   4 18522.1 614.741  17
  -2   1   4 18778.0 631.025  18
   2  -1  -3 4364.72 225.112   3
  -2   1   3 4611.73 254.481  19
  -2   1   3 4918.87 236.580   3
  -2   1   3 4716.62 241.124   2
  -2   1   3 4704.15 199.174   5
  -2   1   3 4525.72 247.657  16
  -2   1   3 4517.45 248.370  17
   2  -1  -3 4778.48 160.626  12
  -2   1   3 4692.55 252.935  21
  -2   1   2 4957.17 245.624  10
  -2   1   2 5515.34 265.023  21
   2  -1  -2 5482.43 248.871   3
   2  -1  -2 5681.52 259.912  10
  -2   1   2 5474.88 246.406   3
  -2   1   2 5664.72 260.574   2
   2  -1  -2 5536.64 264.386  21
   2  -1  -2 5419.87 258.807  16
  -2   1   2 5107.80 251.368  16
  -2   1   2 5203.68 199.465   5
  -2   1   2 5041.95 253.323  17
   2  -1  -2 5461.45 261.146  17
  -2   1   2 5878.53 257.149  20
  -2   1   2 5823.03 248.992   8
  -2   1   2 5181.71 202.968   4
  -2   1   1 4163.10 210.946  10
  -2   1   1 4118.44 210.026   3
   2  -1  -1 4185.96 207.429  20
  -2   1   1 4693.32 218.155  20
  -2   1   1 4135.94 213.763  17
   2  -1  -1 4837.53 230.466  17
  -2   1   1 4236.33 217.524  21
   2  -1  -1 4517.81 215.918  10
  -2   1   1 4284.53 191.864   8
  -2   1   1 4444.27 219.794  16
   2  -1  -1 4698.00 225.409  16
   2  -1  -1 4334.94 213.742   3
  -2   1   1 4390.45 170.818   4
   2  -1  -1 4261.01 168.179   4
   2  -1   0 3241.95 174.911  20
  -2   1   0 3636.45 184.836  19
  -2   1   0 3186.93 182.401  17
  -2   1   0 3091.54 173.576  10
   2  -1   0 3285.30 175.742  10
   2  -1   0 3686.69 191.840   9
   2  -1   0 3338.86 187.648  17
  -2   1   0 3440.43 187.889   3
   2  -1   0 3214.73 183.670   3
  -2   1   0 3376.94 184.295  16
   2  -1   0 3499.27 187.035  16
  -2   1   0 3440.08 144.187   8
   2  -1   0 3174.25 142.765   4
  -2   1   0 3425.51 178.842  20
  -2   1   0 3196.94 145.492   4
  -2   1  -1 2324.62 146.955  10
   2  -1   1 2484.14 154.914  20
  -2   1  -1 2839.81 164.416  19
  -2   1  -1 2777.45 163.036  20
  -2   1  -1 2744.04 168.216  17
   2  -1   1 2656.88 156.533  10
  -2   1  -1 2798.14 170.647   3
   2  -1   1 2434.50 161.440   3
  -2   1  -1 2563.79 159.494   9
   2  -1   1 2944.65 167.663   9
   2  -1   1 2426.73 155.998  19
  -2   1  -1 2698.50 107.211   8
  -2   1  -1 2597.64 162.434  16
   2  -1   1 2738.03 165.799  16
  -2   1  -1 2774.40 143.816   4
   2  -1   1 2450.56 105.147   8
   2  -1   1 2523.66 134.808   4
   2  -1   2 212.724 68.5949   3
   2  -1   2 186.163 34.9378  14
  -2   1  -2 240.324 56.1114   4
   2  -1   2 230.450 57.8840   4
   2  -1   2 244.462 56.3755  10
   2  -1   2 239.320 62.0479  20
  -2   1  -2 298.306 69.7508   9
   2  -1   2 308.390 64.0263   9
   2  -1   2 185.609 54.1479  19
  -2   1  -2 300.734 59.8051  19
  -2   1  -2 210.481 55.5494  10
  -2   1  -2 219.566 64.5202   3
  -2   1  -2 209.446 54.1258  21
  -2   1  -2 85.6623 44.1310  20
  -2   1  -2 176.794 57.6214  16
   2  -1   2 190.993 25.8767   8
   2  -1   2 207.152 55.4833  16
  -2   1  -3 8269.60 330.476  21
   2  -1   3 8210.43 244.270  14
   2  -1   3 8250.18 242.046  13
   2  -1   3 7749.16 323.235  21
   2  -1   3 8107.38 330.094  19
   2  -1   3 7549.88 307.276  11
  -2   1  -3 8463.13 336.045  20
   2  -1   3 8183.91 334.257   3
   2  -1   3 7842.94 317.937   4
   2  -1   3 8374.40 322.467   9
  -2   1  -3 7779.24 320.216  10
   2  -1   3 8288.44 329.733  10
  -2   1  -3 7881.52 330.359   3
  -2   1  -3 7638.11 239.065  14
  -2   1  -3 7452.56 309.458   9
  -2   1  -3 8229.95 328.001   5
   2  -1   3 7597.90 321.785  20
  -2   1  -3 7785.87 331.285  16
   2  -1   3 8349.26 344.549  16
  -2   1  -3 7856.80 325.271  19
   2  -1   3 8337.65 292.096   7
   2  -1   4 3985.25 186.731   7
   2  -1   4 4050.30 236.394   4
  -2   1  -4 4010.18 159.976  14
   2  -1   4 3821.92 161.518  14
   2  -1   4 4099.20 238.617  19
   2  -1   4 4200.41 165.528  13
   2  -1   4 4162.16 238.800  21
   2  -1   4 4172.08 221.889  11
  -2   1  -4 3840.72 216.808   9
  -2   1  -4 3940.14 241.325  16
  -2   1  -4 4229.90 154.221  18
   2  -1   4 4132.00 220.733   9
  -2   1  -4 4391.26 239.947  10
   2  -1   4 3966.20 166.777  15
   2  -1   4 4035.46 235.545  20
   2  -1   5 2684.52 154.031   7
   2  -1   5 2637.33 203.020   4
  -2   1  -5 3056.65 147.173  14
  -2   1  -5 2746.82 141.197  13
   2  -1   5 2709.97 205.850  20
   2  -1   5 2886.25 190.894  11
   2  -1   5 2976.05 211.888  19
  -2   1  -5 3204.46 213.170  10
  -2   1  -5 3181.64 201.117   9
  -2   1  -5 2781.45 211.320  16
  -2   1  -5 2896.97 120.314  18
   2  -1   5 3312.90 221.791  21
   2  -1   5 2906.63 128.275  15
   2  -1   6 8790.57 314.439   7
   2  -1   6 8150.44 359.725  11
  -2   1  -6 7640.33 293.182  13
   2  -1   6 8618.43 401.361  21
  -2   1  -6 8312.94 366.435   9
   2  -1   6 8581.79 404.010  20
   2  -1   6 8378.82 398.321  19
  -2   1  -6 8048.77 387.859  10
  -2   1  -6 8379.50 247.601  18
   2  -1   6 8431.54 247.826  15
  -2   1  -6 8255.31 405.108  16
   2  -1   6 8373.69 408.718   4
  -2   1  -6 9163.98 329.116   1
  -2   1  -6 8291.92 302.177  14
  -2   1  -6 8845.90 319.566   7
   2  -1   7 1674.21 182.706  21
  -2   1  -7 1887.66 140.836  14
   2  -1   7 1716.46 133.128   7
   2  -1   7 1939.23 197.890  20
  -2   1  -7 1681.02 133.693  13
  -2   1  -7 1906.80 191.528  10
   2  -1   7 1717.78 190.006   4
   2  -1   7 1729.95 83.1519  15
  -2   1  -7 1864.51 140.435   7
   2  -1   7 1596.75 159.379  11
  -2   1  -7 1692.27 93.7440  18
  -2   1  -7 1608.25 161.337   9
  -2   1  -7 2014.53 135.974   1
  -2   1  -7 1755.71 190.919  16
   2  -1   7 1953.61 198.598  19
  -2   1  -8 1314.63 107.281   1
  -2   1  -8 1657.96 144.828  14
   2  -1   8 1631.79 198.216   4
   2  -1   8 1123.93 115.203   7
   2  -1   8 1497.15 186.293  20
  -2   1  -8 1619.91 169.735   9
   2  -1   8 1421.19 158.878  11
  -2   1  -8 1435.48 177.432  10
   2  -1   8 1328.34 177.608  21
   2  -1   8 1330.47 177.760  19
  -2   1  -8 1384.24 127.485   7
  -2   1  -9 781.781 75.9856   1
   2  -1   9 887.355 160.619   4
  -2   1  -9 823.700 111.395  14
   2  -1   9 557.029 116.810  21
  -2   1  -9 806.131 134.314   9
   2  -1   9 706.686 142.622  19
   2  -1   9 946.410 140.574  11
  -2   1  -9 803.184 150.722  10
   2  -1   9 959.139 162.916  20
  -2   1  -9 924.030 112.395   7
   2  -1  10-30.0507 63.6079  21
  -2   1 -10 33.2357 41.1449   7
   2  -1  10 34.8902 82.2319  20
  -2   1 -10-8.36193 49.5007  14
  -2   1 -10 82.2280 90.0606  10
   2  -1  10 5.99879 106.469   4
  -2   1 -10 96.0776 66.5193   9
   2  -1  10-17.0215 68.1870  11
   2  -1  10 40.1200 77.0627  19
   2  -1  11 466.178 138.549  21
  -2   1 -11 477.006 101.095  14
   2  -1  11 404.828 145.110   4
   2  -1  11 863.877 179.226  20
   2  -1  11 404.728 109.003  11
   2  -1  11 749.307 170.619  19
  -2   1 -11 689.335 162.624  10
  -2   1 -11 507.172 122.531   9
   2  -1  12 5502.51 440.208  19
   2  -1  12 5812.63 455.860  20
   2  -1  12 5187.38 377.119  11
  -2   1 -12 4801.16 363.014   9
  -2   1 -12 4736.98 407.856  10
   2  -1  12 5503.00 462.374   4
   2  -1  12 5770.03 446.022  21
   2  -1  13 308.800 127.372  21
   2  -1  13 491.581 124.877  11
   2  -1  13 443.982 149.991  19
  -2   1 -13 622.155 176.657  10
   2  -1  13 643.979 185.125   4
   2  -1  13 262.474 134.972  20
  -2   1 -13 900.611 166.984   9
   2   0 -13 4606.67 394.087   7
   2   0 -13 5276.86 475.574  14
  -2   0  13 4821.18 414.641   5
  -2   0  12 171.420 94.0836  21
   2   0 -12 153.146 83.6714   7
   2   0 -12 40.8199 65.8431   9
  -2   0  12 35.2981 118.541  20
  -2   0  12 121.208 111.208  19
  -2   0  12-79.6145 89.2541   5
  -2   0  12 196.343 101.002  17
  -2   0  11 1337.85 226.823  21
   2   0 -11 1428.57 183.661  15
   2   0 -11 1387.95 199.443   7
  -2   0  11 1570.33 242.720  20
  -2   0  11 1521.48 236.883  19
  -2   0  11 1527.20 206.189   5
  -2   0  11 1679.17 244.459  17
  -2   0  11 1171.17 176.819  18
   2   0 -10 44.1380 84.2450  15
   2   0 -10 38.1849 62.8191   7
  -2   0  10 90.8612 86.6106  20
  -2   0  10 167.921 94.0640  18
  -2   0  10 88.4741 95.5968  19
   2   0 -10-21.7171 44.2096   3
  -2   0  10-94.6810 75.8370  17
  -2   0  10-68.6246 78.0223  21
  -2   0  10 41.6128 76.5751   5
  -2   0   9 1188.24 165.633  18
   2   0  -9 1415.50 184.978   7
   2   0  -9 1444.75 145.080   3
  -2   0   9 1409.06 203.131  16
  -2   0   9 1457.38 205.549  21
  -2   0   9 998.028 173.741  19
  -2   0   9 1543.73 209.298  17
  -2   0   9 1245.22 170.052   5
  -2   0   9 1497.28 214.885  20
   2   0  -9 1093.37 159.447  15
  -2   0   8 482.337 50.2746   1
   2   0  -8 381.926 106.390  15
  -2   0   8 372.719 119.391  20
   2   0  -8 361.636 106.207   7
  -2   0   8 210.882 88.4651  21
  -2   0   8 476.097 102.303   5
  -2   0   8 487.715 127.882  19
  -2   0   8 425.485 104.278  18
   2   0  -8 431.179 78.4428   3
  -2   0   8 474.218 114.340  17
  -2   0   8 355.464 106.148  16
   2   0  -7 4314.15 292.151   7
  -2   0   7 4159.45 296.404  17
  -2   0   7 3573.64 198.616   2
   2   0  -7 4279.63 230.555   3
  -2   0   7 4330.98 308.579  19
  -2   0   7 4147.11 298.625  21
  -2   0   7 4004.76 266.801   5
  -2   0   7 4172.06 279.963  18
  -2   0   7 4165.55 304.841  20
  -2   0   7 4051.45 291.741  16
   2   0  -6 48655.7 1178.55   3
  -2   0   6 46851.8 1018.45  12
   2   0  -6 48565.1 1304.91   7
  -2   0   6 49810.0 1339.81  20
  -2   0   6 49472.3 1321.96  17
  -2   0   6 51401.5 1333.43  21
  -2   0   6 47719.9 1282.73  18
  -2   0   6 49621.3 1335.35  19
  -2   0   6 49116.5 1258.95   5
  -2   0   6 48523.1 1161.42   2
  -2   0   6 50602.7 1327.32  16
   2   0  -5 22338.5 715.724   7
  -2   0   5 22919.9 672.321   5
  -2   0   5 22447.4 716.204  16
  -2   0   5 22571.8 720.586  17
  -2   0   5 21892.6 500.067  12
  -2   0   5 21121.9 707.135  21
  -2   0   5 22606.9 615.368   2
   2   0  -5 22073.9 614.276   3
  -2   0   5 21951.8 723.880  19
   2   0  -4 1587.73 161.575   7
   2   0  -4 1619.19 117.479   3
  -2   0   4 1562.39 154.962  21
  -2   0   4 1602.06 158.227  19
  -2   0   4 1616.61 133.173   5
  -2   0   4 1692.44 159.047  17
  -2   0   4 1621.46 120.565   2
  -2   0   4 1912.07 165.324  16
  -2   0   4 1778.40 79.5260  12
   2   0  -4 1699.60 133.605   5
   2   0  -3 24344.8 682.654  21
   2   0  -3 22420.2 676.226   7
  -2   0   3 21742.2 589.666   3
  -2   0   3 23086.5 614.668   2
   2   0  -3 22535.3 592.268   3
  -2   0   3 22621.6 530.403  12
  -2   0   3 22199.0 616.870   5
  -2   0   3 21932.5 669.098  19
   2   0  -3 24115.1 674.487  10
  -2   0   3 22175.7 664.120  21
  -2   0   3 22582.4 667.506  17
   2   0  -3 23717.1 676.508  17
  -2   0   3 23125.4 666.884  16
   2   0  -3 23709.1 671.783  16
  -2   0   2 6828.08 242.241   3
  -2   0   2 6684.07 197.660   6
   2   0  -2 6460.91 237.941   3
   2   0  -2 6939.62 212.516  12
   2   0  -2 7171.75 284.302  10
  -2   0   2 6784.33 286.115  19
   2   0  -2 6770.69 282.531  17
  -2   0   2 6783.28 282.527  21
  -2   0   2 6455.82 244.294   5
  -2   0   2 6800.24 281.907  17
  -2   0   2 6597.67 275.554  16
   2   0  -2 7072.73 283.562  16
   2   0  -2 7182.35 290.285  21
  -2   0   2 6308.53 270.261  10
  -2   0   1 22686.0 635.172  21
  -2   0   1 24487.7 541.756   6
   2   0  -1 24865.2 649.809  21
   2   0  -1 22965.1 536.788   6
  -2   0   1 24261.4 608.991   3
  -2   0   1 24790.2 633.469  20
   2   0  -1 23551.0 582.770  12
  -2   0   1 23045.9 629.766  10
   2   0  -1 25202.9 642.109  10
   2   0  -1 23119.9 600.880   3
   2   0  -1 25467.7 646.698  16
  -2   0   1 22856.1 633.836  17
   2   0  -1 24527.7 645.188  17
  -2   0   1 23185.4 631.482  16
  -2   0   1 24156.6 602.816   4
   2   0  -1 24288.6 630.814   9
  -2   0   0 997068. 19314.7  20
  -2   0   0 997457. 19317.2  19
  -2   0   0 979644. 19285.3   4
   2   0   0 930633. 19275.1   4
  -2   0   0 927683. 19317.4  21
   2   0   0 954619. 19237.7   6
   2   0   0 941099. 19300.8  20
   2   0   0 998355. 19322.0  10
  -2   0   0 913136. 19307.4  10
   2   0   0 931945. 19295.5   3
  -2   0   0 926599. 19305.6   9
   2   0   0 964387. 19312.8   9
  -2   0   0 943700. 19315.8  17
  -2   0   0 941162. 19312.3  16
   2   0   0 988228. 19325.3  16
   2   0   1 328658. 6498.77  10
   2   0   1 310356. 6482.90  19
  -2   0  -1 326777. 6492.28  20
  -2   0  -1 330049. 6494.79  19
   2   0   1 323993. 6495.23   9
   2   0   1 304489. 6479.53  20
   2   0   1 308069. 6449.99   6
  -2   0  -1 309091. 6490.71  16
  -2   0  -1 324697. 6500.51   3
   2   0   1 310619. 6494.76   3
  -2   0  -1 302625. 6484.24  10
  -2   0  -1 308052. 6486.00   9
  -2   0  -1 305786. 6493.29  17
   2   0   1 334834. 6508.43  17
   2   0   1 331837. 6505.45  16
   2   0   1 308672. 6466.09   4
  -2   0  -1 322057. 6478.29   4
   2   0   2 51446.7 1208.24   4
  -2   0  -2 54667.5 1223.98  20
   2   0   2 53722.8 1221.68   9
   2   0   2 51922.6 1210.28  19
  -2   0  -2 53959.2 1221.07  19
   2   0   2 54381.3 1233.46  16
  -2   0  -2 50137.2 1213.44  10
  -2   0  -2 54753.9 1222.63  21
   2   0   2 50197.8 1201.25   6
  -2   0  -2 54871.5 1237.24   3
   2   0   2 52427.5 1229.61   3
  -2   0  -2 51111.3 1210.82   9
  -2   0  -2 50763.3 1217.16  16
   2   0   2 54791.0 1228.37  10
   2   0   2 52312.3 1212.23  11
  -2   0  -2 55561.1 1228.86   4
   2   0   2 50287.8 1208.78  20
   2   0   3 6580.11 277.602   4
  -2   0  -3 6878.86 283.332   4
  -2   0  -3 6770.38 278.414  10
   2   0   3 6961.27 211.337   7
   2   0   3 6970.48 276.173  21
  -2   0  -3 7286.48 282.803  19
  -2   0  -3 7452.24 278.896  11
  -2   0  -3 7237.58 282.315  20
  -2   0  -3 7325.56 291.574   3
   2   0   3 7432.67 288.693  10
   2   0   3 6759.24 274.186  20
  -2   0  -3 6679.64 269.958   9
   2   0   3 7438.72 284.006   9
  -2   0  -3 6995.81 277.886  21
   2   0   3 6756.72 272.239  11
  -2   0  -3 6675.56 278.477  16
   2   0   3 6876.52 275.357  19
  -2   0  -4 11243.6 400.363  21
   2   0   4 11285.6 300.646   7
   2   0   4 11495.8 412.334   4
  -2   0  -4 11044.8 289.010  14
  -2   0  -4 12019.8 413.995  20
   2   0   4 11484.5 402.294  21
  -2   0  -4 12590.3 424.863   5
   2   0   4 10988.5 398.748  20
   2   0   4 11309.7 400.540  19
   2   0   4 11765.3 400.973   9
   2   0   4 9735.87 268.957  15
   2   0   4 10645.2 385.634  11
  -2   0  -4 11758.8 408.649  17
   2   0   4 11898.0 416.105  10
  -2   0  -4 11711.1 332.365  18
  -2   0  -4 12436.7 420.681   3
  -2   0  -4 11676.8 292.300  13
  -2   0  -4 11126.4 393.956   9
  -2   0  -4 12041.3 410.644  19
  -2   0  -4 11376.6 405.281  10
  -2   0  -4 11460.9 410.493  16
  -2   0  -4 11533.1 394.589  11
   2   0   5 89.4415 47.7064  11
   2   0   5 5.04125 68.9525   4
  -2   0  -5 100.028 31.1829   7
   2   0   5 27.7852 47.5789  21
  -2   0  -5 68.0007 37.0359  14
   2   0   5 80.5083 27.2860   7
   2   0   5 85.5402 59.8515  19
  -2   0  -5 100.258 33.8470  13
  -2   0  -5 57.4233 27.1715  18
  -2   0  -5 82.1880 62.0736  10
   2   0   5 91.7448 56.1733  20
  -2   0  -5 64.4868 57.0007   9
  -2   0  -5 118.830 60.4694  16
   2   0   6 41092.7 1155.65   4
   2   0   6 43047.9 973.819   7
   2   0   6 43176.7 1141.88  19
  -2   0  -6 41155.3 1002.51  14
   2   0   6 41462.0 1104.98  11
  -2   0  -6 41919.9 1007.95  13
   2   0   6 43400.8 1146.95  20
  -2   0  -6 41135.5 1137.11  10
  -2   0  -6 42141.2 1109.63   9
  -2   0  -6 43663.7 1001.28  18
   2   0   6 42595.2 1134.27  21
  -2   0  -6 42576.7 970.365   7
  -2   0  -7 29214.0 805.036  13
   2   0   7 30972.2 934.491  21
   2   0   7 30721.6 963.079   4
  -2   0  -7 30367.5 811.593  14
   2   0   7 30513.9 933.266  19
  -2   0  -7 30912.3 942.294  10
   2   0   7 30832.0 942.145  20
   2   0   7 30742.0 771.167   7
   2   0   7 28889.0 887.093  11
  -2   0  -7 30155.9 902.874   9
  -2   0  -7 31568.8 764.070   7
   2   0   8 4097.99 302.526   4
   2   0   8 3859.84 280.751  21
  -2   0  -8 4002.02 227.956  14
  -2   0  -8 3587.96 218.699  13
  -2   0  -8 4101.63 289.956  10
  -2   0  -8 4019.11 192.368   7
   2   0   8 3704.64 193.393   7
   2   0   8 3847.82 283.831  19
   2   0   8 4275.00 204.784  18
  -2   0  -8 3531.16 194.275  18
  -2   0  -8 3792.19 261.725   9
   2   0   8 3839.41 282.432  20
   2   0   8 3778.96 261.059  11
  -2   0  -8 3903.83 160.521   1
  -2   0  -9 1307.95 114.050   7
  -2   0  -9 1014.49 61.2268   1
  -2   0  -9 1219.04 137.515  14
   2   0   9 1385.61 180.063  19
   2   0   9 1110.71 145.825  11
   2   0   9 1390.13 187.615  20
   2   0   9 1297.92 115.179  18
  -2   0  -9 1412.86 181.417  10
   2   0   9 1091.40 172.054   4
  -2   0  -9 1260.40 161.302   9
   2   0   9 1246.80 173.311  21
  -2   0 -10 1352.89 124.411   7
   2   0  10 1596.27 207.367  19
  -2   0 -10 1325.15 155.014  14
   2   0  10 1319.01 187.745  21
   2   0  10 1486.00 202.427  20
   2   0  10 1118.96 181.144   4
   2   0  10 1298.05 122.245  18
  -2   0 -10 1151.03 181.471  10
   2   0  10 1327.61 175.955  11
  -2   0 -10 1245.77 170.356   9
  -2   0 -11 450.259 102.174  14
   2   0  11 287.053 106.397  19
   2   0  11 497.529 134.054  21
   2   0  11 292.190 120.143   4
   2   0  11 444.453 112.732  11
   2   0  11 498.468 144.206  20
  -2   0 -11 398.540 131.990  10
  -2   0 -11 487.775 124.766   9
  -2   0 -12 1675.00 192.018  14
   2   0  12 1551.62 230.159  19
   2   0  12 2008.80 270.534   4
   2   0  12 1663.16 236.481  20
   2   0  12 1563.32 211.950  11
  -2   0 -12 1996.08 259.775  10
   2   0  12 1571.85 201.464   8
   2   0  12 1852.54 251.283  21
  -2   0 -12 1574.28 211.440   9
   2   0  13 1606.80 258.842   4
  -2   0 -13 1781.81 258.925  10
   2   0  13 1226.19 221.954  21
   2   0  13 1656.42 256.050  20
   2   0  13 1337.67 203.961  11
   2   0  13 2007.00 274.416  19
   2   0  13 1594.14 259.569   6
  -2   0 -13 1891.38 240.439   9
   2   0  13 1472.69 210.444   8
   2   0  14 4186.00 374.226  11
  -2   0 -14 3478.65 340.869   9
  -2  -1  13 39.1218 94.6568   5
   2   1 -13 269.847 119.892   7
   2   1 -13 3.34901 112.818  14
   2   1 -12 4519.31 372.451   7
   2   1 -12 4808.47 429.284  14
  -2  -1  12 5496.33 470.326  20
  -2  -1  12 5215.11 425.983   5
  -2  -1  12 5605.62 474.410  19
  -2  -1  12 5543.57 461.644  17
  -2  -1  12 5055.87 441.674  21
   2   1 -11 728.549 165.706  14
   2   1 -11 773.624 157.319   7
  -2  -1  11 658.436 169.748  20
  -2  -1  11 832.334 179.764  21
  -2  -1  11 730.858 183.207  19
  -2  -1  11 897.249 170.400   5
  -2  -1  11 583.540 162.931  17
   2   1 -11 745.213 134.751   9
   2   1 -10 427.111 130.747  14
   2   1 -10 841.670 155.674   7
   2   1 -10 1052.03 151.301  15
  -2  -1  10 962.708 193.467  20
  -2  -1  10 964.078 175.827  19
  -2  -1  10 712.807 124.160  18
  -2  -1  10 708.796 156.777  17
  -2  -1  10 1009.96 179.678  21
   2   1 -10 918.224 143.077   9
  -2  -1  10 1071.15 178.883   5
   2   1  -9 50.2442 79.7281  15
   2   1  -9-36.9734 74.8391   7
  -2  -1   9 32.5346 76.4845  20
  -2  -1   9 112.244 89.9675  17
  -2  -1   9 192.628 79.7816  18
  -2  -1   9 83.9893 81.6672   5
  -2  -1   9 49.2217 78.6982  21
   2   1  -9 61.8972 42.9268   3
  -2  -1   9 37.2543 72.7884  19
  -2  -1   8 1795.42 210.698  21
   2   1  -8 1845.32 201.524   7
   2   1  -8 1939.47 143.928   3
  -2  -1   8 1504.19 199.128  20
  -2  -1   8 1730.23 172.652  18
  -2  -1   8 1810.03 211.451  17
  -2  -1   8 1333.76 177.371   5
  -2  -1   8 1872.12 215.102  16
  -2  -1   8 1513.19 194.141  19
   2   1  -8 1660.52 178.278  15
   2   1  -7 7.27744 65.8295  15
  -2  -1   7 178.154 75.8903  18
   2   1  -7 74.3175 68.3045   7
  -2  -1   7 78.0070 75.8151  19
  -2  -1   7 91.2893 71.1588  21
  -2  -1   7 73.5876 68.4212   5
  -2  -1   7 83.7637 89.0345  20
  -2  -1   7 47.3561 22.2793   1
   2   1  -7 98.6671 37.2170   3
  -2  -1   7 168.797 69.0585  17
  -2  -1   7 131.543 79.8711  16
   2   1  -6 7900.55 388.804   7
  -2  -1   6 8354.03 407.900  17
  -2  -1   6 8372.00 258.621   2
  -2  -1   6 8748.24 414.670  21
  -2  -1   6 7788.65 408.121  20
   2   1  -6 8238.15 286.463   3
  -2  -1   6 8322.77 411.000  19
  -2  -1   6 7726.08 380.213   5
  -2  -1   6 7775.30 263.764   1
  -2  -1   6 7721.98 396.427  16
   2   1  -6 8240.42 377.578  15
   2   1  -5 2249.09 188.033   7
  -2  -1   5 2336.40 117.459   2
  -2  -1   5 2488.43 199.205  21
  -2  -1   5 2232.38 179.953   5
   2   1  -5 2374.01 124.551   3
  -2  -1   5 2630.92 205.238  19
  -2  -1   5 2515.79 201.626  17
   2   1  -5 2181.40 150.369  11
  -2  -1   5 2304.46 190.876  16
  -2  -1   5 2444.74 204.252  20
   2   1  -5 2536.78 185.466  15
   2   1  -4 1014.44 124.073  15
   2   1  -4 1089.82 119.525   5
   2   1  -4 827.352 112.588   7
  -2  -1   4 1059.67 125.756  20
  -2  -1   4 1109.98 126.063  21
  -2  -1   4 796.976 117.567  19
  -2  -1   4 1058.57 120.453   5
  -2  -1   4 1040.74 121.342  17
  -2  -1   4 1024.93 76.4654   2
  -2  -1   4 1192.26 130.393  16
   2   1  -4 1110.91 74.4727   3
  -2  -1   3 4453.20 228.662   5
  -2  -1   3 4848.50 185.860  12
   2   1  -3 4617.72 243.663   7
   2   1  -3 5297.76 247.318  10
   2   1  -3 4955.53 161.573   3
   2   1  -3 4858.88 240.931  16
   2   1  -3 4776.80 246.118  19
  -2  -1   3 4975.19 250.044  19
  -2  -1   3 4850.52 244.559  21
  -2  -1   3 5224.58 262.792   7
   2   1  -3 5160.34 250.176  17
   2   1  -3 5274.48 242.753   5
  -2  -1   3 4649.54 238.076  17
   2   1  -3 5210.82 251.850  21
  -2  -1   3 4993.06 244.267  16
   2   1  -3 4333.21 234.915  15
   2   1  -2 214.117 60.8745  15
  -2  -1   2 441.630 78.7486   7
  -2  -1   2 332.930 45.3444  12
   2   1  -2 358.398 67.1916   7
   2   1  -2 405.870 63.2849  21
  -2  -1   2 394.507 37.8963   3
  -2  -1   2 385.110 69.5971  19
   2   1  -2 373.343 59.7733  10
   2   1  -2 442.576 73.1731  19
  -2  -1   2 362.779 64.6079  17
   2   1  -2 511.501 74.3317  17
   2   1  -2 434.320 38.8936   3
  -2  -1   2 243.467 56.6629   5
  -2  -1   2 412.398 66.9016  16
   2   1  -2 396.626 62.4858  16
  -2  -1   2 430.437 67.9927  21
   2   1  -1 2216.89 138.630   7
  -2  -1   1 2311.23 141.770   7
  -2  -1   1 2065.12 128.180  21
   2   1  -1 2210.61 130.477  17
   2   1  -1 2190.05 117.710  12
   2   1  -1 2466.50 135.551  21
  -2  -1   1 2423.20 98.6606   3
  -2  -1   1 1953.11 129.791   4
  -2  -1   1 2167.01 128.191  10
   2   1  -1 2287.56 129.631  10
  -2  -1   1 2066.04 130.554  19
  -2  -1   1 2306.28 119.901  12
   2   1  -1 2327.98 96.7513   3
   2   1  -1 2378.28 115.892   9
  -2  -1   1 2013.08 125.480  17
  -2  -1   1 2355.27 116.707   6
  -2  -1   1 2191.53 130.635   5
  -2  -1   1 2196.54 128.858  16
   2   1  -1 2532.61 136.609  16
   2   1  -1 2234.85 145.665  15
   2   1   0 7025.25 233.316  20
   2   1   0 6475.71 225.513   6
   2   1   0 6985.74 243.431   7
  -2  -1   0 7594.07 252.223   7
  -2  -1   0 7334.32 245.718  12
   2   1   0 7767.62 237.764  13
  -2  -1   0 7589.68 238.562  20
   2   1   0 7428.71 244.544  10
  -2  -1   0 7133.30 241.968  21
   2   1   0 7287.27 246.509  12
   2   1   0 7061.64 229.892   9
  -2  -1   0 6822.73 238.209  17
  -2  -1   0 7013.17 240.891  10
  -2  -1   0 7265.20 224.846   3
   2   1   0 6912.45 221.731   3
  -2  -1   0 6873.13 227.125   9
   2   1   0 7149.67 243.111  21
  -2  -1   0 7225.71 233.870   6
   2   1   0 7356.20 243.189  17
   2   1   0 6957.06 230.450  14
   2   1   0 7003.20 244.951   4
  -2  -1   0 7093.74 250.455   4
   2   1   0 7206.08 256.859  15
  -2  -1   0 7077.66 237.856  16
   2   1   0 7425.66 242.665  16
  -2  -1  -1 3784.05 163.490   3
  -2  -1  -1 3873.84 159.731  11
  -2  -1  -1 3846.22 159.231   9
   2   1   1 4697.88 185.147  12
   2   1   1 3555.75 140.415   7
   2   1   1 3126.66 122.718  14
  -2  -1  -1 3944.30 133.518  14
   2   1   1 3125.39 121.297  13
  -2  -1  -1 3980.86 133.346  13
  -2  -1  -1 4043.00 166.848   6
   2   1   1 4153.64 166.432  10
  -2  -1  -1 3738.52 168.483  12
   2   1   1 3793.84 156.829  11
  -2  -1  -1 3782.36 152.675  20
   2   1   1 3642.69 156.087  17
  -2  -1  -1 3935.61 153.996  19
   2   1   1 3893.20 151.925  20
  -2  -1  -1 3819.11 160.495  10
  -2  -1  -1 3654.80 152.866  16
  -2  -1  -1 3777.32 156.632  17
   2   1   1 4072.13 163.014   9
   2   1   1 3943.79 159.898  16
   2   1   1 3887.17 152.118  19
   2   1   1 3884.95 164.099   6
   2   1   1 3753.68 164.819   4
  -2  -1  -1 4103.66 173.330   4
   2   1   1 3720.63 159.840  15
   2   1   2 11135.3 280.576  14
   2   1   2 12633.8 293.777   7
  -2  -1  -2 11756.1 282.203  14
   2   1   2 11560.0 365.384   6
  -2  -1  -2 12571.8 284.639  13
  -2  -1  -2 12267.5 348.514  21
  -2  -1  -2 12837.7 351.821  19
  -2  -1  -2 11571.1 355.969  10
   2   1   2 13035.6 382.154  12
   2   1   2 12082.5 345.076  19
  -2  -1  -2 12906.7 367.901  11
   2   1   2 12197.5 363.292  11
  -2  -1  -2 12504.7 351.271  20
   2   1   2 11791.7 343.441  20
  -2  -1  -2 12511.0 376.572   6
  -2  -1  -2 12074.7 361.715   9
   2   1   2 12574.5 370.094   9
   2   1   2 12737.3 366.355  10
  -2  -1  -2 11936.7 349.278  16
   2   1   2 12232.4 355.340  16
  -2  -1  -2 11828.0 301.465   8
  -2  -1  -2 12535.8 375.912   4
   2   1   2 11538.6 364.714   4
   2   1   2 12255.3 325.994  15
   2   1   3 59176.3 1361.58  20
  -2  -1  -3 62360.0 1404.59   4
  -2  -1  -3 58354.5 1266.16  14
  -2  -1  -3 63630.4 1393.85  11
  -2  -1  -3 61887.8 1364.95  21
   2   1   3 62087.0 1390.60  12
   2   1   3 61714.7 1385.10  11
   2   1   3 60228.6 1394.15   6
  -2  -1  -3 61290.1 1368.73  20
   2   1   3 63371.2 1393.74  10
  -2  -1  -3 59689.5 1377.47  10
   2   1   3 59892.1 1390.57   4
  -2  -1  -3 62633.7 1368.88  19
  -2  -1  -3 59660.7 1382.66   9
   2   1   3 63197.5 1394.61   9
   2   1   3 59555.3 1359.18  19
   2   1   3 59263.7 1296.39   8
  -2  -1  -3 57742.1 1363.71  16
  -2  -1  -3 62009.3 1301.97   8
   2   1   3 59037.6 1357.94  21
   2   1   3 60923.0 1274.86  15
  -2  -1  -3 62466.4 1363.19  18
   2   1   4 2365.59 164.201   4
  -2  -1  -4 2562.14 167.389   4
   2   1   4 2540.60 142.842  18
   2   1   4 2278.35 146.692  21
  -2  -1  -4 2552.03 152.982  21
  -2  -1  -4 2664.46 157.775  19
  -2  -1  -4 2659.63 165.329  11
  -2  -1  -4 2538.21 154.348  17
   2   1   4 2549.37 162.349  11
   2   1   4 2427.40 153.216  20
  -2  -1  -4 2773.25 162.676  20
   2   1   4 2439.48 167.255   6
  -2  -1  -4 2311.25 152.408  16
   2   1   4 2217.66 145.091  19
  -2  -1  -4 2476.57 159.724  10
  -2  -1  -4 2450.39 142.840  18
  -2  -1  -4 2287.53 157.635   9
   2   1   4 2542.24 161.452   9
   2   1   4 2545.47 162.094  12
   2   1   4 2519.53 126.247   8
   2   1   5 10030.9 380.795  19
   2   1   5 9882.82 399.025   4
   2   1   5 9874.97 377.613  21
   2   1   5 10076.2 348.895  18
   2   1   5 10260.5 385.998  20
  -2  -1  -5 10518.0 391.803  20
   2   1   5 10276.2 390.680  11
  -2  -1  -5 10890.1 392.734  19
  -2  -1  -5 10775.1 390.804  17
  -2  -1  -5 10554.5 356.492  18
   2   1   5 11092.7 389.006  12
  -2  -1  -5 10604.7 399.873   5
  -2  -1  -5 10919.5 391.348  21
  -2  -1  -5 9934.89 391.052  10
   2   1   5 10302.5 340.405   8
   2   1   5 10041.3 403.285   6
  -2  -1  -5 10157.1 390.989   9
  -2  -1  -6 2930.32 111.201   7
   2   1   6 2983.88 215.329   4
   2   1   6 2482.05 189.255  11
  -2  -1  -6 2812.17 200.872   9
   2   1   6 2822.99 198.915  20
   2   1   6 2901.31 198.431  19
   2   1   6 2725.41 165.988  18
  -2  -1  -6 2596.22 164.803  18
   2   1   6 2987.82 215.081   6
  -2  -1  -6 3064.80 211.907  10
   2   1   6 2756.73 194.772  21
   2   1   6 2863.74 172.064   8
   2   1   7 489.958 93.3629  11
   2   1   7 772.771 119.289   4
   2   1   7 634.949 105.292  21
   2   1   7 625.214 84.4862  18
   2   1   7 529.095 93.7707  17
   2   1   7 540.671 100.660  20
   2   1   7 707.989 109.704  19
  -2  -1  -7 524.473 100.439  10
  -2  -1  -7 479.017 77.1413  18
   2   1   7 760.201 126.837   6
  -2  -1  -7 465.733 54.2287   1
  -2  -1  -7 653.295 109.394   9
  -2  -1  -7 591.827 55.0464   7
   2   1   7 587.981 88.3633   8
   2   1   8 2428.55 228.937   4
  -2  -1  -8 2977.64 145.132   7
   2   1   8 3011.61 237.865  21
   2   1   8 3018.98 244.918  20
   2   1   8 2737.16 223.757  11
   2   1   8 2480.06 232.771   6
   2   1   8 2979.33 237.827  19
   2   1   8 2992.28 194.869  18
  -2  -1  -8 3260.44 256.976  10
  -2  -1  -8 2785.98 123.230   1
  -2  -1  -8 2962.45 232.476   9
   2   1   8 3071.77 242.272  17
   2   1   8 2998.95 212.996   8
  -2  -1  -9 891.230 88.4109   7
   2   1   9 750.436 132.539  21
   2   1   9 952.312 156.589   6
   2   1   9 784.658 138.997  20
   2   1   9 958.341 147.428  11
   2   1   9 873.108 140.543  17
   2   1   9 1040.69 159.556  19
  -2  -1  -9 874.845 151.460  10
   2   1   9 992.143 131.754   8
  -2  -1  -9 1026.06 154.087   9
   2   1   9 832.927 111.973  18
   2   1   9 957.564 154.666   4
  -2  -1 -10 2683.19 165.974   7
   2   1  10 3277.47 256.118   8
   2   1  10 3049.73 289.630   4
   2   1  10 3099.37 280.368   6
   2   1  10 3310.05 289.357  20
   2   1  10 3033.23 273.968  17
   2   1  10 3203.81 222.778  18
  -2  -1 -10 2956.52 261.552   9
   2   1  10 3380.35 285.328  19
   2   1  10 2745.14 254.078  11
  -2  -1 -10 3385.67 293.847  10
   2   1  10 2709.82 259.099  21
   2   1  11 290.293 131.483   4
  -2  -1 -11 196.869 62.7776   2
   2   1  11 330.819 120.854  21
   2   1  11 192.499 91.0214  20
   2   1  11 169.928 95.3883   6
   2   1  11 233.357 69.6776  18
  -2  -1 -11 166.521 78.5197  10
   2   1  11 289.169 99.9574  17
   2   1  11 231.411 84.4607  11
  -2  -1 -11 169.277 88.2501   9
   2   1  11 109.588 73.8541  19
   2   1  11 288.380 90.8939   8
   2   1  12 49.4722 77.8273   6
   2   1  12 70.9551 98.5293   4
   2   1  12 11.2130 83.1388  19
   2   1  12-38.0447 76.1042  21
   2   1  12-37.3126 81.3457  20
   2   1  12 72.9058 74.4725  11
  -2  -1 -12 8.01006 71.1996  10
   2   1  12 16.2835 63.2265  17
  -2  -1 -12-39.5973 75.1782   9
   2   1  12 7.12791 58.7659   8
   2   1  13-14.2750 82.5810  21
   2   1  13-28.4674 62.6188  20
   2   1  13-10.3486 97.6555  11
   2   1  13-30.9819 86.3137  19
   2   1  13-59.5780 99.8305   6
  -2  -1 -13 45.4713 74.3213  10
   2   1  13 22.6108 64.9296   8
  -2  -1 -13-29.0436 69.9057   9
   2   1  13 73.1475 98.5351   4
   2   1  14 1870.22 271.947  19
   2   1  14 1918.44 274.549  21
   2   1  14 1151.99 195.054   8
   2   1  14 2443.70 308.630   6
   2   1  14 2066.90 290.362  20
   2   1  14 2199.77 305.163   4
  -2  -1 -14 1549.31 236.930   9
  -2  -2  12 54.8794 92.7779  20
   2   2 -12 124.173 102.866  14
   2   2 -12 39.4038 68.2895   7
  -2  -2  12 91.8573 68.8189  21
  -2  -2  12 245.945 137.391  19
  -2  -2  12 215.974 133.465  17
  -2  -2  12 314.444 133.197   5
   2   2 -11 106.444 103.129  14
   2   2 -11 0.21143 78.5421   7
  -2  -2  11-100.316 116.183  17
  -2  -2  11-18.3535 94.2137  20
  -2  -2  11 33.6450 98.5900  21
  -2  -2  11 79.2057 78.5765   5
  -2  -2  11 268.455 136.993  19
  -2  -2  10 59.4981 69.6051  21
   2   2 -10 176.383 106.855  14
   2   2 -10 135.199 83.4932   7
  -2  -2  10 145.022 100.233  20
  -2  -2  10 192.310 103.740  19
  -2  -2  10 81.5658 77.4706  17
  -2  -2  10 61.0046 104.172   5
   2   2 -10 127.340 67.1476   9
   2   2 -10 100.462 63.2463  15
   2   2  -9-86.3973 61.1039  15
  -2  -2   9 76.5905 84.1381   5
   2   2  -9 76.8364 68.6446   7
   2   2  -9 63.2617 93.0014  14
  -2  -2   9 37.0033 79.3196  20
  -2  -2   9-19.9762 89.8826  21
  -2  -2   9-32.1137 55.5517  18
  -2  -2   9 34.3577 82.1491  19
  -2  -2   9-26.4809 98.0937  17
   2   2  -9 32.1316 50.8634   9
   2   2  -8 2067.93 210.252   7
  -2  -2   8 2217.96 234.891  21
   2   2  -8 2175.37 233.187  14
   2   2  -8 1875.53 187.683  15
   2   2  -8 2092.47 131.572   3
  -2  -2   8 2211.83 236.756  19
  -2  -2   8 2300.88 236.459   5
  -2  -2   8 1860.92 170.228  18
  -2  -2   8 2012.24 227.766  17
   2   2  -8 2007.59 169.350   9
  -2  -2   8 2500.08 259.273  20
   2   2  -7 371.160 81.5198  15
   2   2  -7 335.383 53.4039   3
   2   2  -7 346.807 106.911  14
   2   2  -7 386.551 95.6061   7
   2   2  -7 341.685 73.4524  11
  -2  -2   7 290.299 44.5553   1
  -2  -2   7 294.459 95.9834  21
  -2  -2   7 353.925 95.2691  19
  -2  -2   7 292.547 100.838  17
  -2  -2   7 386.280 82.9606  18
  -2  -2   7 282.623 94.8363  20
  -2  -2   7 496.720 112.635   5
   2   2  -7 350.504 50.4087   3
   2   2  -6 3437.03 246.928   7
   2   2  -6 3343.84 260.440  14
  -2  -2   6 3935.38 270.853  21
  -2  -2   6 3620.19 268.928  20
   2   2  -6 3784.49 148.639   3
  -2  -2   6 3391.82 163.349   1
  -2  -2   6 3332.49 255.956  19
  -2  -2   6 3309.62 251.693   5
   2   2  -6 3337.66 144.936   3
  -2  -2   6 3463.17 255.514  17
  -2  -2   6 3646.05 263.022  16
   2   2  -6 3418.78 186.518  11
   2   2  -6 3156.17 221.851  15
   2   2  -5 4983.01 282.533   7
   2   2  -5 4626.39 284.625  14
  -2  -2   5 4157.54 265.278  21
  -2  -2   5 5185.08 297.323  20
   2   2  -5 4567.84 201.579  11
  -2  -2   5 4963.94 206.833   1
   2   2  -5 4427.98 150.032   3
  -2  -2   5 5151.83 291.982   5
   2   2  -5 4590.70 152.722   3
  -2  -2   5 4651.77 279.413  19
  -2  -2   5 4415.21 272.783  17
  -2  -2   5 4848.11 283.555  16
   2   2  -5 4550.81 257.310  15
   2   2  -4 121.896 59.2843  15
  -2  -2   4 121.870 37.1161   1
   2   2  -4 124.034 78.5506  14
   2   2  -4 171.353 70.7687   7
   2   2  -4 157.996 35.6278  11
  -2  -2   4 137.364 73.7405  19
  -2  -2   4 129.856 69.7899  21
  -2  -2   4 139.176 19.8131   2
  -2  -2   4 70.2888 55.6139   5
  -2  -2   4 182.856 67.5309  16
  -2  -2   4 60.4624 58.6669  20
  -2  -2   4 165.421 68.8792  17
  -2  -2   3 167.722 50.9987   1
   2   2  -3 223.202 70.7333  15
   2   2  -3 291.595 66.1912  21
  -2  -2   3 353.232 76.1525   7
  -2  -2   3 213.422 76.1064  15
   2   2  -3 230.766 36.4110  11
  -2  -2   3 264.634 69.2897  17
   2   2  -3 327.381 94.8755  14
   2   2  -3 255.483 67.1267   7
   2   2  -3 300.775 81.0390  13
   2   2  -3 217.259 60.9978  17
   2   2  -3 255.756 62.5473  16
  -2  -2   3 261.985 74.6225  19
  -2  -2   3 276.569 73.6667  20
   2   2  -3 210.407 60.5753  19
  -2  -2   3 267.298 69.8239  21
  -2  -2   3 264.120 72.6267   5
   2   2  -3 230.105 65.1827   5
  -2  -2   3 339.592 78.4965  16
   2   2  -2 599.284 82.0211  15
  -2  -2   2 700.739 90.0627  15
  -2  -2   2 854.011 96.4044   7
  -2  -2   2 642.563 74.7988   1
  -2  -2   2 426.764 69.0161  20
   2   2  -2 509.893 86.6063  14
   2   2  -2 618.612 87.2337   7
   2   2  -2 666.144 85.7315  13
   2   2  -2 532.270 68.3239  16
   2   2  -2 515.426 68.1407  17
   2   2  -2 692.205 80.7270  19
   2   2  -2 517.848 43.2067   9
  -2  -2   2 462.507 70.1251  19
   2   2  -2 490.678 64.1769  10
   2   2  -2 522.382 73.0416  21
  -2  -2   2 561.597 81.6969   5
  -2  -2   2 492.313 71.6354  21
   2   2  -2 551.273 80.4041   5
  -2  -2   2 580.640 73.9514  16
  -2  -2   2 494.962 71.4046  17
  -2  -2   1 291.693 58.8022   1
   2   2  -1 208.769 54.4962  15
  -2  -2   1 186.699 49.7379  13
  -2  -2   1 181.562 47.9854   6
   2   2  -1 186.174 55.0004  14
  -2  -2   1 210.203 47.7656  14
  -2  -2   1 218.983 44.2248  21
   2   2  -1 239.517 55.4048   7
   2   2  -1 243.662 43.4190  17
  -2  -2   1 252.106 53.2495   7
   2   2  -1 179.100 42.2202  21
   2   2  -1 203.007 25.8030  11
  -2  -2   1 135.692 37.5656  19
  -2  -2   1 358.706 69.4844  15
   2   2  -1 211.421 39.0151  10
   2   2  -1 255.175 45.8714  19
   2   2  -1 250.251 51.0459  13
  -2  -2   1 219.182 44.5501  17
  -2  -2   1 209.585 56.0158   5
  -2  -2   1 210.980 42.6346  16
   2   2  -1 198.648 40.0928  16
   2   2  -1 243.778 27.1352   9
   2   2   0 8762.37 287.539   7
  -2  -2   0 8654.12 289.283   7
   2   2   0 8574.69 286.367  14
  -2  -2   0 8746.46 291.541  14
   2   2   0 8520.73 253.369  21
   2   2   0 9056.08 291.169  13
  -2  -2   0 8688.94 289.420  13
  -2  -2   0 8425.54 251.307  21
  -2  -2   0 8649.65 294.858  12
  -2  -2   0 8458.59 245.867  20
  -2  -2   0 8172.77 251.252  10
  -2  -2   0 8652.57 256.975  19
   2   2   0 8761.42 255.146  10
   2   2   0 8842.89 237.915  11
  -2  -2   0 8070.24 248.623  17
   2   2   0 8758.88 254.556  17
  -2  -2   0 8272.21 234.028   9
   2   2   0 8602.91 237.719   9
  -2  -2   0 8870.51 299.602   6
   2   2   0 8371.94 291.096   6
  -2  -2   0 8250.46 248.226  16
   2   2   0 8623.32 251.932  16
  -2  -2   0 8901.71 295.541   4
  -2  -2   0 8549.61 234.451  11
   2   2   0 8421.33 297.419  15
  -2  -2   0 9534.37 311.955  15
   2   2   1 21399.5 536.076   7
  -2  -2  -1 22155.0 540.552   7
  -2  -2  -1 22836.8 550.165  14
   2   2   1 22809.3 549.016  13
  -2  -2  -1 21699.3 545.203  13
  -2  -2  -1 22026.5 530.593  11
  -2  -2  -1 21240.4 496.173  19
   2   2   1 21921.4 532.586   9
   2   2   1 21407.1 527.770  11
   2   2   1 21188.6 518.683  10
   2   2   1 21059.5 495.369  20
  -2  -2  -1 21289.6 495.399  20
  -2  -2  -1 22246.7 577.280   6
  -2  -2  -1 21122.2 498.878  16
   2   2   1 21223.5 570.755   6
  -2  -2  -1 21021.0 514.873  10
   2   2   1 22107.7 575.784  12
  -2  -2  -1 23379.2 583.081  18
  -2  -2  -1 22341.4 565.098   4
  -2  -2  -1 20797.6 498.782  17
   2   2   1 21551.0 502.548  17
  -2  -2  -1 21240.3 501.172  21
   2   2   1 21255.9 500.381  16
   2   2   1 21383.2 544.435  14
  -2  -2  -1 22191.7 576.486  12
  -2  -2  -1 21392.0 527.707   9
   2   2   1 22079.0 564.904  15
   2   2   1 20666.5 557.492   4
  -2  -2  -1 22319.0 568.669  15
   2   2   2 1860.27 119.629  12
  -2  -2  -2 1718.30 87.4865   7
   2   2   2 1655.19 98.7073  14
  -2  -2  -2 1836.11 100.571  14
  -2  -2  -2 1838.95 110.823  11
  -2  -2  -2 1593.19 81.5573  20
  -2  -2  -2 1729.64 107.872   9
   2   2   2 1623.24 84.8365  16
  -2  -2  -2 1660.02 82.1871  19
   2   2   2 1565.99 80.7232  19
   2   2   2 1732.28 120.150   6
  -2  -2  -2 1729.21 117.162  18
   2   2   2 1746.20 98.9145  10
  -2  -2  -2 1717.47 119.093   6
   2   2   2 1730.18 106.635  15
  -2  -2  -2 1608.12 114.448  12
   2   2   2 1867.26 114.874   9
   2   2   2 1693.10 82.2345  20
  -2  -2  -2 1784.13 106.082  15
   2   2   2 1659.48 117.053  18
   2   2   2 1586.09 85.9729   7
  -2  -2  -2 1584.27 82.7055  16
  -2  -2  -2 1788.98 105.471   8
   2   2   2 1905.85 113.795  11
  -2  -2  -2 1609.02 95.8664  10
  -2  -2  -2 1801.19 85.6891  21
   2   2   2 1630.78 110.666   4
  -2  -2  -2 1817.04 114.832   4
  -2  -2  -3-4.55327 22.6721  15
  -2  -2  -3-0.79721 21.3185  19
  -2  -2  -3 42.8458 30.8182  14
  -2  -2  -3 15.5318 15.1560   7
   2   2   3 12.9731 40.4640  11
   2   2   3-3.42686 34.8407   4
   2   2   3 17.3928 36.2095  18
  -2  -2  -3-40.9090 41.2387   9
  -2  -2  -3-3.61493 34.3958   4
   2   2   3 2.35826 29.0890  12
  -2  -2  -3 14.7750 23.7412  20
  -2  -2  -3 6.28153 19.5273  21
   2   2   3-7.93639 23.4971  20
  -2  -2  -3-14.1175 31.6179  11
  -2  -2  -3 32.1039 38.2429   6
  -2  -2  -3-21.2745 38.3700  12
  -2  -2  -3 4.54038 25.3979  16
  -2  -2  -3 48.2410 32.0420  10
   2   2   3-10.5298 41.1549   6
   2   2   3 4.11829 24.2263  19
  -2  -2  -3 16.1267 32.8548  18
  -2  -2  -3-10.6988 22.8047  17
   2   2   3 24.4746 33.2622   8
   2   2   3-6.54283 24.2686  21
  -2  -2  -3 5.82171 25.6394   8
  -2  -2  -3 32.8263 36.7653   1
   2   2   3 33.5839 26.7628  15
  -2  -2  -4-6.94339 22.2739  15
   2   2   4 26.9277 51.1792  11
  -2  -2  -4 11.1912 13.2552   7
  -2  -2  -4 39.4749 45.9857  12
   2   2   4-36.0565 31.6443  19
   2   2   4 5.24205 33.1990  20
  -2  -2  -4 18.9953 35.2762  11
   2   2   4 24.1491 46.0171   6
  -2  -2  -4 48.4476 33.0399  19
   2   2   4 0.84890 44.4914  18
  -2  -2  -4-1.71290 38.8138   4
   2   2   4-22.3121 42.7333  12
  -2  -2  -4 35.7453 39.5028  18
  -2  -2  -4 28.3189 42.1105  10
   2   2   4 30.4490 45.4636   4
  -2  -2  -4-15.5981 33.9770  20
  -2  -2  -4 17.9770 29.0685  17
  -2  -2  -4 106.223 52.3958   6
  -2  -2  -4 19.7333 27.7122  21
  -2  -2  -4 53.0680 55.4194   9
  -2  -2  -4 21.7052 32.6330   1
   2   2   4 1.17281 39.5688   8
   2   2   4-21.4619 35.3530  21
  -2  -2  -4 29.2677 29.4381   8
   2   2   5 7852.92 331.694   4
  -2  -2  -5 7834.81 339.355   9
  -2  -2  -5 8133.74 313.870  21
   2   2   5 8211.37 312.901  12
   2   2   5 7916.64 302.725  21
   2   2   5 7598.36 334.774   6
   2   2   5 7984.74 308.424  20
   2   2   5 7243.80 330.653  11
  -2  -2  -5 8381.28 320.198  20
   2   2   5 7736.86 301.065  17
  -2  -2  -5 8424.94 317.654  19
  -2  -2  -5 7755.46 236.212  15
  -2  -2  -5 8223.01 325.155   5
   2   2   5 8050.82 325.506  18
  -2  -2  -5 7963.37 328.914  18
  -2  -2  -5 7996.07 311.155  17
  -2  -2  -5 7744.56 322.040  10
  -2  -2  -5 7383.55 278.313   1
   2   2   5 7807.08 307.365   8
   2   2   5 7963.72 306.711  19
   2   2   6 2924.31 188.237  21
   2   2   6 2750.95 199.684   4
   2   2   6 2886.89 179.120  12
   2   2   6 2698.79 183.233  19
   2   2   6 2809.94 205.475   6
   2   2   6 2663.92 198.318  11
  -2  -2  -6 2666.76 146.234   1
   2   2   6 2614.65 184.429  18
   2   2   6 2972.31 189.406   8
  -2  -2  -6 2656.82 185.506  18
  -2  -2  -6 2527.48 189.772  10
   2   2   6 2726.88 184.148  17
  -2  -2  -6 2576.93 195.400   9
   2   2   6 2910.86 193.852  20
  -2  -2  -6 2832.18 120.177   7
  -2  -2  -6 2673.25 115.700  15
   2   2   7 486.375 92.4971  19
   2   2   7 687.554 108.415  20
   2   2   7 586.483 87.3802  12
   2   2   7 660.964 112.655  11
  -2  -2  -7 621.641 66.5050   1
  -2  -2  -7 648.472 62.9201   7
   2   2   7 613.513 104.629   4
   2   2   7 645.106 99.8193  21
   2   2   7 550.049 90.4390   8
   2   2   7 759.276 108.345  18
  -2  -2  -7 770.712 118.024  10
   2   2   7 591.640 98.1409  17
  -2  -2  -7 656.471 111.606   9
  -2  -2  -7 617.841 51.3141  15
   2   2   7 555.906 105.204   6
   2   2   8 1024.57 128.106  18
  -2  -2  -8 1094.62 144.413   9
   2   2   8 847.733 137.595   4
   2   2   8 925.785 141.215   6
   2   2   8 938.000 132.941  11
  -2  -2  -8 1052.64 84.7947   7
   2   2   8 1107.65 138.843  19
   2   2   8 933.269 128.861  21
  -2  -2  -8 1032.38 144.321  10
  -2  -2  -8 1042.30 81.2408   1
   2   2   8 1090.11 143.252  20
  -2  -2  -8 864.171 61.1054  15
   2   2   8 1003.60 131.353   8
   2   2   8 974.796 131.271  17
   2   2   9 2991.46 257.406   4
  -2  -2  -9 3225.67 165.853   7
  -2  -2  -9 2819.69 124.901   1
   2   2   9 3400.59 259.044  21
  -2  -2  -9 3603.57 279.701  10
   2   2   9 3069.09 254.556  20
   2   2   9 3096.79 259.150  11
   2   2   9 2770.35 246.624   6
   2   2   9 3249.47 253.828  19
   2   2   9 3011.24 227.305  18
   2   2   9 3125.22 248.269  17
  -2  -2  -9 3182.24 261.169   9
   2   2   9 3240.03 243.190   8
  -2  -2  -9 2858.00 116.804  15
  -2  -2  -9 2848.58 119.217  15
   2   2  10 78.1015 62.8135  18
  -2  -2 -10-29.0749 39.4526   7
   2   2  10 5.85021 84.3591   4
   2   2  10 33.7906 65.4003  17
   2   2  10 51.3607 73.0731  21
   2   2  10 72.8554 78.9876  20
   2   2  10-15.0597 73.2827  11
  -2  -2 -10-50.7087 43.5290   2
   2   2  10-27.0132 68.5026  19
  -2  -2 -10-2.21826 65.2097  10
   2   2  10 68.4282 79.7785   6
  -2  -2 -10-31.8695 69.4748   9
   2   2  10 1.42233 70.2037   8
   2   2  11 577.885 134.074  21
   2   2  11 759.528 165.856   4
   2   2  11 829.049 154.117   8
   2   2  11 696.636 148.881  20
   2   2  11 741.836 154.060  11
  -2  -2 -11 823.062 119.079   2
  -2  -2 -11 700.773 148.102   9
  -2  -2 -11 903.918 162.814  10
   2   2  11 850.627 160.173  17
   2   2  11 802.578 125.340  18
   2   2  11 851.778 160.205  19
   2   2  11 796.405 154.712   6
   2   2  12 306.718 120.725  21
   2   2  12 469.670 142.697  20
   2   2  12 398.587 130.253   4
   2   2  12 269.500 106.925  11
   2   2  12 245.018 85.0711  19
   2   2  12 457.555 113.390  18
  -2  -2 -12 415.347 136.242  10
   2   2  12 325.173 115.151  17
  -2  -2 -12 329.358 124.430   9
   2   2  12 237.142 103.696   6
   2   2  12 317.191 93.6535   8
   2   2  13 1377.79 206.926   8
   2   2  13 1486.85 224.242   6
   2   2  13 1442.82 230.035  21
   2   2  13 1303.54 222.184   4
   2   2  13 1611.51 236.659  20
   2   2  13 1570.09 234.145  19
  -2  -2 -13 1568.15 241.833  10
   2   2  13 1474.76 230.659  17
  -2  -2 -13 1668.74 235.377   9
   2   2  14-110.999 106.507  21
   2   2  14 94.5806 97.8843   4
   2   2  14-21.0153 93.2886  20
   2   2  14 66.6387 115.255  19
   2   2  14-36.0409 96.9846   6
   2   2  14 134.681 111.272  17
  -2  -2 -14-77.8882 119.599   9
   2   2  14-21.2898 87.3373   8
   2   2  15 859.100 183.070   8
   2   3 -12 114.331 77.0986   7
   2   3 -12 73.7629 101.086  14
  -2  -3  12 99.2235 104.766   5
  -2  -3  11 95.1873 108.834   5
   2   3 -11-38.4252 87.9098  14
  -2  -3  11-23.0294 110.918  21
  -2  -3  11 45.4649 116.165  20
  -2  -3  11-144.499 110.453  19
   2   3 -11 73.0667 72.0210   7
  -2  -3  11-40.2428 101.259  17
   2   3 -10 629.169 141.539   7
   2   3 -10 744.023 162.964  14
  -2  -3  10 895.986 176.822   5
  -2  -3  10 720.677 160.950  20
   2   3 -10 660.606 122.020  15
  -2  -3  10 925.676 183.503  19
  -2  -3  10 942.250 182.245  17
  -2  -3  10 963.523 186.463  21
   2   3  -9 1826.67 233.565  14
   2   3  -9 1788.30 213.132   7
  -2  -3   9 1860.94 240.561   5
  -2  -3   9 1697.40 227.217  20
  -2  -3   9 2019.05 244.532  19
  -2  -3   9 2055.72 247.626  17
  -2  -3   9 2017.83 238.651  21
   2   3  -9 2262.65 211.452  15
   2   3  -8 12588.1 582.601   7
   2   3  -8 12151.4 598.573  14
  -2  -3   8 13273.8 619.194  19
  -2  -3   8 12579.1 614.988  20
  -2  -3   8 12642.0 612.697   5
  -2  -3   8 13111.6 464.613  18
  -2  -3   8 13424.7 619.192  17
   2   3  -8 13267.4 451.825   9
  -2  -3   8 14044.0 627.354  21
   2   3  -8 13396.7 548.587  15
   2   3  -7 4860.10 327.840   7
  -2  -3   7 4807.30 222.530   1
   2   3  -7 4930.84 339.842  14
   2   3  -7 4827.45 225.799  11
  -2  -3   7 6022.82 378.800  20
  -2  -3   7 4964.44 341.967  19
  -2  -3   7 4968.20 342.857   5
  -2  -3   7 5423.60 264.517  18
  -2  -3   7 5648.83 357.745  17
   2   3  -7 5732.21 244.674   9
   2   3  -7 5086.40 186.149   3
   2   3  -7 5159.95 307.706  15
  -2  -3   7 5442.22 350.504  21
   2   3  -6 4806.51 306.616   7
   2   3  -6 4872.28 321.199  14
  -2  -3   6 4367.14 219.248   1
  -2  -3   6 4830.32 308.446  21
   2   3  -6 4983.76 205.095  11
  -2  -3   6 5642.28 338.587  20
   2   3  -6 4540.21 158.280   3
  -2  -3   6 5161.25 321.760  19
  -2  -3   6 4882.00 321.864   5
  -2  -3   6 4873.68 311.223  17
   2   3  -6 5116.23 209.805   9
   2   3  -6 5331.89 300.783  15
   2   3  -5 36.9734 45.3943  15
  -2  -3   5 67.6936 51.6305  21
   2   3  -5 79.3768 60.3233  14
   2   3  -5 88.0680 62.2232   7
  -2  -3   5 50.5156 59.3377   5
  -2  -3   5-15.4058 61.2583  20
  -2  -3   5-13.6851 49.7070  19
  -2  -3   5 12.3303 55.2789  17
  -2  -3   5 42.5634 38.1184   1
   2   3  -5 25.6484 18.4337   9
   2   3  -5 43.1190 12.2058   3
   2   3  -5 38.1153 18.5578  11
   2   3  -4 2830.87 210.143   7
   2   3  -4 2905.00 216.461  14
   2   3  -4 2724.83 107.415  11
  -2  -3   4 2985.39 176.564   1
  -2  -3   4 2939.72 209.521  20
  -2  -3   4 2882.30 200.968  21
  -2  -3   4 2842.18 202.124  19
  -2  -3   4 2830.20 197.069  17
   2   3  -4 2963.65 110.140   9
  -2  -3   4 2920.13 219.112   5
   2   3  -4 2923.35 202.674  15
   2   3  -3 852.156 111.614  15
  -2  -3   3 671.275 125.231  13
   2   3  -3 982.205 125.183  14
   2   3  -3 953.275 117.073   7
   2   3  -3 919.254 103.609  17
  -2  -3   3 884.861 99.9358   1
  -2  -3   3 904.077 110.616  20
  -2  -3   3 1067.42 65.9371   2
  -2  -3   3 739.159 98.6099  19
   2   3  -3 887.344 106.405  19
   2   3  -3 1045.33 108.401  21
  -2  -3   3 807.048 99.8335  17
  -2  -3   3 1072.66 130.265   5
   2   3  -3 1052.71 109.204  16
  -2  -3   3 985.390 107.416  21
   2   3  -2 82939.5 1940.71   7
  -2  -3   2 87379.5 1954.67   7
   2   3  -2 86280.7 1882.32  17
  -2  -3   2 86924.4 1961.67  14
  -2  -3   2 85443.5 1917.31   1
   2   3  -2 87536.3 1957.11  13
  -2  -3   2 81945.4 1946.49  13
  -2  -3   2 83412.7 1878.99  19
   2   3  -2 87208.2 1890.36  19
  -2  -3   2 82373.0 1883.38  20
   2   3  -2 85828.3 1881.31  21
   2   3  -2 85192.3 1943.73   5
  -2  -3   2 83106.6 1872.89  16
  -2  -3   2 80855.5 1750.05   3
  -2  -3   2 81735.3 1931.12   5
  -2  -3   2 83808.8 1874.74  17
   2   3  -2 81741.2 1942.29  14
  -2  -3   2 83527.7 1875.41  21
   2   3  -2 85418.1 1879.45  16
   2   3  -2 82971.9 1936.49  15
  -2  -3   2 94306.5 1973.15  15
   2   3  -1 2682.68 174.761   7
  -2  -3   1 2718.26 115.485   3
  -2  -3   1 2958.55 179.779   7
  -2  -3   1 2833.18 176.674   6
   2   3  -1 2788.12 177.459  14
  -2  -3   1 2920.21 179.909  14
  -2  -3   1 2622.98 137.363  20
   2   3  -1 2457.53 165.581  13
  -2  -3   1 2727.37 177.131  13
  -2  -3   1 2974.34 178.722   1
  -2  -3   1 2778.53 139.416  19
  -2  -3   1 2585.67 133.012  17
   2   3  -1 2778.92 127.581  10
  -2  -3   1 2796.20 137.166  21
   2   3  -1 2885.12 140.632  19
  -2  -3   1 2861.02 155.524  18
  -2  -3   1 2735.96 170.993   5
   2   3  -1 2999.97 176.902   5
   2   3  -1 2742.53 137.212  17
   2   3  -1 2607.00 172.354   1
   2   3  -1 2971.00 140.180  21
  -2  -3   1 2674.37 134.795  16
   2   3  -1 2865.52 138.935  16
   2   3  -1 2728.48 176.216  15
  -2  -3   1 3196.77 188.858  15
  -2  -3   0 44396.6 1025.22   7
   2   3   0 40576.8 1016.18  14
  -2  -3   0 43468.3 1007.63  18
  -2  -3   0 43600.5 1030.91  14
  -2  -3   0 42619.5 1000.39   4
   2   3   0 42881.4 1025.86  13
  -2  -3   0 41856.7 1019.91  13
   2   3   0 40908.8 1029.17   1
  -2  -3   0 41636.8 895.884  11
  -2  -3   0 40685.5 910.811  20
   2   3   0 40202.8 897.074  11
  -2  -3   0 39580.9 907.587  19
   2   3   0 41794.1 897.146  10
   2   3   0 41099.9 912.442  19
  -2  -3   0 39991.2 906.115  21
  -2  -3   0 44765.2 1039.99   6
  -2  -3   0 40728.5 996.915   5
   2   3   0 42480.6 911.130  17
  -2  -3   0 40338.2 894.923   9
  -2  -3   0 44694.9 1046.72   1
  -2  -3   0 40655.8 904.894  17
  -2  -3   0 40720.0 904.824  16
   2   3   0 42058.5 908.085  16
   2   3   0 41179.3 1012.66   7
   2   3   0 40640.0 1025.32  15
   2   3   0 41716.6 910.581  21
  -2  -3   0 43609.8 1044.74  15
   2   3   1 13234.3 409.516   7
  -2  -3  -1 14059.5 416.153   7
   2   3   1 13240.4 421.192  14
  -2  -3  -1 14435.7 432.645  14
  -2  -3  -1 12981.1 416.780  13
   2   3   1 12497.4 422.861   6
  -2  -3  -1 13360.7 367.408  11
  -2  -3  -1 14677.9 455.630   1
  -2  -3  -1 12923.1 321.077  10
  -2  -3  -1 13396.9 400.424   4
   2   3   1 13580.0 369.919  11
   2   3   1 13060.2 420.343  18
   2   3   1 13894.9 448.861   1
   2   3   1 13452.8 322.915  10
  -2  -3  -1 14461.3 435.953  18
  -2  -3  -1 13307.6 367.263   9
  -2  -3  -1 13950.3 438.105   6
  -2  -3  -1 14051.2 434.174   8
   2   3   1 12541.1 394.196   4
   2   3   1 12966.1 425.428  15
  -2  -3  -1 14319.2 439.164  15
  -2  -3  -2 2654.59 142.076  11
   2   3   2 2499.93 153.802  14
  -2  -3  -2 2734.58 157.963  14
  -2  -3  -2 2893.43 167.854   6
  -2  -3  -2 2644.39 165.285  18
   2   3   2 2405.92 157.904   6
   2   3   2 2500.41 141.945  11
  -2  -3  -2 2547.98 138.211   7
  -2  -3  -2 2733.10 143.667   4
  -2  -3  -2 2639.27 109.616  10
   2   3   2 2385.06 157.710  18
  -2  -3  -2 2715.29 164.080  12
   2   3   2 2150.95 158.616   1
  -2  -3  -2 2612.47 163.136   1
  -2  -3  -2 2977.24 166.429   8
  -2  -3  -2 2419.53 137.066   9
   2   3   2 2527.59 139.292   4
   2   3   2 2415.80 151.265  15
  -2  -3  -2 2891.05 161.963  15
   2   3   2 2483.73 139.447   7
  -2  -3  -3 13942.2 411.714   4
  -2  -3  -3 13299.6 385.876   7
  -2  -3  -3 13306.5 336.467  17
  -2  -3  -3 13677.7 427.182  14
  -2  -3  -3 13703.1 426.614  11
  -2  -3  -3 12996.4 373.883  10
   2   3   3 13534.2 335.335  20
   2   3   3 12926.0 332.702  21
  -2  -3  -3 12936.3 335.831  21
   2   3   3 13504.2 442.226   6
  -2  -3  -3 13169.3 427.294  12
  -2  -3  -3 14649.0 444.244   8
  -2  -3  -3 12600.2 335.938  19
   2   3   3 13484.5 441.937   1
   2   3   3 13012.4 421.446  11
   2   3   3 13444.6 451.680  18
  -2  -3  -3 14055.9 459.850  18
   2   3   3 13316.0 334.168  19
  -2  -3  -3 13022.4 338.125  20
   2   3   3 13260.2 434.132   8
  -2  -3  -3 13843.4 444.217   6
  -2  -3  -3 13214.6 335.242  16
  -2  -3  -3 13283.1 439.081   1
   2   3   3 13233.1 416.323  15
   2   3   3 12819.6 400.970   4
  -2  -3  -3 14057.5 419.346  15
  -2  -3  -4 20745.0 585.994   4
  -2  -3  -4 21528.4 600.058  14
  -2  -3  -4 20468.4 529.534  19
   2   3   4 20903.7 588.623  12
   2   3   4 19724.1 519.638  21
   2   3   4 20016.1 608.419  11
   2   3   4 20825.4 529.151  20
  -2  -3  -4 20747.3 614.677  11
  -2  -3  -4 20579.8 598.824   1
   2   3   4 19710.2 522.062  19
  -2  -3  -4 20188.4 530.292  20
  -2  -3  -4 19771.7 582.630  12
  -2  -3  -4 20075.5 561.471  10
   2   3   4 20747.4 630.613  18
  -2  -3  -4 21691.7 641.290  18
   2   3   4 20307.4 522.607  17
  -2  -3  -4 19973.2 525.235  17
  -2  -3  -4 20810.2 533.333   7
  -2  -3  -4 20270.4 527.305  21
  -2  -3  -4 20670.1 527.804  16
   2   3   4 19470.8 605.672   6
   2   3   4 20080.1 604.852   8
  -2  -3  -4 21974.2 616.712   8
  -2  -3  -4 21958.4 623.092   6
  -2  -3  -4 21226.2 570.439  15
   2   3   4 19920.8 574.907   4
   2   3   5 2056.69 153.271   4
  -2  -3  -5 2126.99 148.419   1
   2   3   5 2020.21 132.116  19
  -2  -3  -5 2028.97 152.049   4
   2   3   5 2151.18 172.923  11
   2   3   5 2159.95 146.396  12
   2   3   5 2027.37 130.486  21
  -2  -3  -5 2194.61 138.064  21
   2   3   5 2215.85 177.879  18
   2   3   5 2014.05 134.405  20
  -2  -3  -5 2243.56 143.508  20
   2   3   5 2184.62 136.492  17
  -2  -3  -5 2121.24 152.087  10
  -2  -3  -5 2225.03 138.231  17
   2   3   5 2058.30 163.411   6
  -2  -3  -5 2286.41 143.582  19
  -2  -3  -5 2054.69 134.078  16
  -2  -3  -5 1851.89 144.353  12
   2   3   5 2126.96 167.192   8
  -2  -3  -5 2142.26 135.202  15
  -2  -3  -5 2146.93 122.094   7
  -2  -3  -6 382.302 67.2917  21
   2   3   6 351.842 74.4213   4
  -2  -3  -6 377.659 71.8038  12
  -2  -3  -6 258.687 60.3943   5
   2   3   6 359.264 84.5090  18
   2   3   6 302.400 61.9493  21
   2   3   6 308.568 70.3941   6
   2   3   6 253.304 59.7886  12
   2   3   6 196.886 54.7111  20
  -2  -3  -6 307.024 67.1516  20
  -2  -3  -6 275.602 58.9308  16
  -2  -3  -6 316.913 64.5320  19
  -2  -3  -6 332.127 67.1998  17
   2   3   6 177.621 53.4576  19
  -2  -3  -6 245.187 81.2331   9
   2   3   6 314.189 66.7726  17
  -2  -3  -6 316.253 64.3353   1
   2   3   6 437.292 87.5645   8
   2   3   6 312.035 84.2127  11
  -2  -3  -6 269.766 50.0288  15
   2   3   7 12155.8 475.976   4
  -2  -3  -7 11389.0 397.057   1
   2   3   7 12093.7 483.804   8
   2   3   7 12293.7 455.391  21
   2   3   7 12018.2 483.038   6
   2   3   7 12676.3 467.980  20
   2   3   7 11964.7 503.595  11
   2   3   7 12475.3 427.988  12
   2   3   7 11661.5 488.113  18
   2   3   7 12237.8 455.307  17
   2   3   7 12284.4 456.257  19
  -2  -3  -7 12110.5 504.365   9
  -2  -3  -7 11891.1 385.512  15
   2   3   8 4185.93 278.153   4
  -2  -3  -8 4124.74 208.477   7
  -2  -3  -8 4279.38 207.852   1
   2   3   8 4810.64 285.077  20
  -2  -3  -8 4552.79 281.467   2
   2   3   8 4111.50 258.883  21
   2   3   8 4702.15 294.907   6
   2   3   8 3937.81 288.683  11
   2   3   8 4114.47 262.356  17
   2   3   8 4505.28 272.730  19
  -2  -3  -8 4466.96 303.506   9
   2   3   8 4021.58 226.540  12
   2   3   8 3946.33 275.248   8
   2   3   8 4377.00 289.880  18
  -2  -3  -8 3999.73 197.051  15
   2   3   9 31307.6 1023.57  11
  -2  -3  -9 29953.8 787.974   1
  -2  -3  -9 31598.3 826.856   7
  -2  -3  -9 31877.5 968.343   2
   2   3   9 30905.5 866.688  12
   2   3   9 33062.2 1006.28   4
   2   3   9 31992.9 975.883  17
   2   3   9 31627.9 975.757  19
  -2  -3  -9 31947.7 1024.99   9
   2   3   9 33804.2 1016.55  18
   2   3   9 33329.6 1008.84   6
   2   3   9 33087.9 1010.89   8
   2   3   9 32863.3 982.573  21
  -2  -3  -9 30233.8 799.015  15
   2   3   9 32235.0 988.036  20
   2   3  10 13884.7 601.723  21
   2   3  10 14687.6 629.050   4
  -2  -3 -10 14374.2 476.273   7
  -2  -3 -10 14578.9 588.056   2
   2   3  10 14014.6 619.701   6
   2   3  10 14638.3 622.368  20
   2   3  10 14148.4 643.866  11
   2   3  10 15002.6 622.290  19
   2   3  10 15436.2 633.807  18
   2   3  10 14002.0 606.250  17
  -2  -3 -10 15193.8 660.926   9
   2   3  10 14601.8 630.573   8
   2   3  11 20.5735 66.9448   6
   2   3  11-23.9570 85.4814   4
  -2  -3 -11 19.5079 58.8367   2
   2   3  11-62.3641 68.7613  20
   2   3  11 163.320 93.2234  19
   2   3  11-6.96493 59.0993  18
   2   3  11 68.0847 74.1279  17
  -2  -3 -11-24.5695 78.5376   9
   2   3  11 4.41040 80.7789  21
   2   3  12 521.602 138.013  20
   2   3  12 703.587 145.590  21
   2   3  12 911.773 170.038   6
   2   3  12 495.030 130.307  19
   2   3  12 698.200 155.098   4
   2   3  12 772.105 157.149  18
  -2  -3 -12 705.563 129.989   2
  -2  -3 -12 662.375 154.399  10
   2   3  12 685.038 146.356  17
  -2  -3 -12 486.423 126.338   9
   2   3  12 628.496 137.757   8
   2   3  13 6701.47 475.266  20
   2   3  13 6044.07 455.361   4
   2   3  13 5813.95 437.862  21
   2   3  13 6395.68 462.486  17
   2   3  13 6607.67 458.075   6
   2   3  13 6465.70 460.578  19
  -2  -3 -13 6049.94 464.828  10
  -2  -3 -13 6478.44 472.037   9
   2   3  13 6150.18 422.238  18
   2   3  13 6473.44 464.029   8
   2   3  14 26.6547 84.5263   6
   2   3  14 39.1703 85.8993  19
   2   3  14-25.5743 102.162  21
  -2  -3 -14 181.254 121.243  10
   2   3  14 23.1210 79.4624  17
  -2  -3 -14 26.4852 97.5752   9
   2   3  14-107.834 101.064   4
   2   3  14-101.651 114.880  20
   2   3  14-27.8120 88.5668   8
   2   3  15 2934.25 332.760   6
   2   4 -12 235.934 110.073   7
   2   4 -12 96.4159 94.4442  14
   2   4 -11 6755.97 478.266   7
  -2  -4  11 7600.93 534.986  21
   2   4 -11 6946.52 505.276  14
  -2  -4  11 6481.64 507.184  20
  -2  -4  11 7012.78 517.678  19
  -2  -4  11 6897.54 514.298  17
  -2  -4  11 7534.23 548.832   5
   2   4 -10-28.7437 59.1558   7
   2   4 -10 145.425 112.244  14
  -2  -4  10 180.211 123.976  20
  -2  -4  10-44.0226 81.1434  19
  -2  -4  10 96.4817 98.2550  21
  -2  -4  10 66.1342 83.6220  17
  -2  -4  10 136.655 108.366   5
   2   4  -9 742.786 134.982  15
  -2  -4   9 555.211 138.973  21
   2   4  -9 565.390 126.160   7
   2   4  -9 480.514 128.330  14
  -2  -4   9 685.130 146.046  17
  -2  -4   9 662.520 154.414  19
  -2  -4   9 1069.07 196.343   5
  -2  -4   9 846.557 172.734  20
   2   4  -8 2547.25 257.111   7
   2   4  -8 2770.78 277.901  14
  -2  -4   8 2934.38 278.779  21
  -2  -4   8 2832.27 276.843  20
  -2  -4   8 2418.62 254.617  19
  -2  -4   8 2583.10 275.254   5
   2   4  -8 2746.97 238.273  15
  -2  -4   8 2603.89 266.142  17
   2   4  -7 3811.83 299.463   7
   2   4  -7 3517.05 297.900  14
  -2  -4   7 3394.05 283.254  19
  -2  -4   7 3772.51 313.754   5
  -2  -4   7 3801.76 297.761  17
  -2  -4   7 3494.10 294.044  20
  -2  -4   7 4123.55 311.061  21
   2   4  -7 4015.22 281.706  15
  -2  -4   6 4953.72 318.325  21
   2   4  -6 4737.06 327.377  14
  -2  -4   6 4543.55 307.689  19
   2   4  -6 4719.42 165.174   9
  -2  -4   6 4298.04 307.430  20
  -2  -4   6 4364.44 299.213  17
   2   4  -6 3991.54 158.670   3
  -2  -4   6 4270.74 320.021   5
   2   4  -6 4921.79 327.594   7
   2   4  -6 4340.03 287.513  15
   2   4  -5 12289.1 534.336   7
   2   4  -5 12631.9 544.092  14
  -2  -4   5 13734.5 523.904  21
  -2  -4   5 13216.7 525.442  20
   2   4  -5 12262.1 335.789   3
  -2  -4   5 13243.6 560.167   5
  -2  -4   5 13790.9 525.321  17
  -2  -4   5 12760.7 511.614  19
   2   4  -5 12235.4 300.497   9
   2   4  -5 13455.1 526.066  15
  -2  -4   4 419.284 44.3625   2
   2   4  -4 345.003 85.5901  15
  -2  -4   4 322.780 98.6411  13
   2   4  -4 361.021 86.9846  14
   2   4  -4 282.827 79.6279   7
   2   4  -4 403.753 44.4995   3
  -2  -4   4 357.007 60.5361  18
  -2  -4   4 391.144 82.9230  20
  -2  -4   4 402.830 78.7061  19
  -2  -4   4 309.717 78.7091  21
   2   4  -4 460.516 84.8979   1
  -2  -4   4 278.660 75.4402  17
  -2  -4   4 324.482 95.0448   5
   2   4  -3 283.899 69.8578  15
   2   4  -3 455.816 77.2816  21
  -2  -4   3 288.859 41.3191   3
  -2  -4   3 211.518 45.5186  18
  -2  -4   3 336.823 68.3775  21
   2   4  -3 258.429 74.8780  14
   2   4  -3 302.589 80.7483   7
   2   4  -3 321.725 64.3038  19
  -2  -4   3 239.316 80.2242  13
  -2  -4   3 381.857 76.3256  20
   2   4  -3 313.574 79.2152   1
   2   4  -3 319.145 41.7611   3
   2   4  -3 416.937 73.9315  20
  -2  -4   3 419.000 72.9683  19
   2   4  -3 409.040 76.3993  17
  -2  -4   3 330.782 48.1871   2
  -2  -4   3 295.888 86.1493   5
  -2  -4   3 306.305 71.3949  17
   2   4  -3 376.544 67.2189  16
   2   4  -2 13248.1 422.182  19
   2   4  -2 12470.9 482.191   7
   2   4  -2 13165.2 488.699  14
  -2  -4   2 12013.4 401.201  21
  -2  -4   2 12900.7 363.547   3
  -2  -4   2 13055.5 395.807   2
   2   4  -2 12699.3 415.504  21
  -2  -4   2 12404.4 413.299  20
   2   4  -2 12689.7 420.061  20
   2   4  -2 12671.1 411.634  16
  -2  -4   2 13029.0 487.392  13
  -2  -4   2 12390.2 408.333  19
   2   4  -2 11865.1 458.831   1
  -2  -4   2 13231.7 413.882  18
  -2  -4   2 12752.6 467.934   5
  -2  -4   2 12033.7 404.120  17
   2   4  -2 13440.2 420.305  17
   2   4  -2 12360.8 476.375  15
   2   4  -1 6650.25 316.402   7
   2   4  -1 6305.06 308.397  14
   2   4  -1 6982.12 245.956  19
  -2  -4   1 6856.53 319.009  13
  -2  -4   1 7056.41 273.755   2
  -2  -4   1 6597.26 235.457  19
  -2  -4   1 6120.43 164.556  11
  -2  -4   1 6891.49 241.102  20
  -2  -4   1 5628.53 163.933   9
   2   4  -1 6832.43 208.429  10
  -2  -4   1 6687.14 244.863   3
   2   4  -1 6168.10 304.292   1
  -2  -4   1 7218.56 281.974  18
  -2  -4   1 6571.31 293.522   5
  -2  -4   1 6454.14 233.494  17
   2   4  -1 7050.97 243.338  17
   2   4  -1 7310.23 304.673   5
  -2  -4   1 6139.85 163.668   9
   2   4  -1 6678.40 238.189  16
   2   4  -1 6925.22 240.898  21
  -2  -4   1 6531.44 233.365  21
   2   4  -1 6627.72 315.635  15
   2   4   0 6154.94 288.493   7
  -2  -4   0 5723.62 182.381  19
   2   4   0 5732.55 286.602  14
  -2  -4   0 6322.75 293.689  13
  -2  -4   0 5640.93 180.742  21
  -2  -4   0 5564.85 256.264   2
  -2  -4   0 5772.00 191.205  11
  -2  -4   0 5676.81 183.320  20
  -2  -4   0 5586.17 236.766   3
   2   4   0 5735.09 187.117  19
   2   4   0 5781.44 185.267  17
   2   4   0 5679.83 288.611   1
  -2  -4   0 6316.11 270.538  18
  -2  -4   0 5639.81 253.740   5
   2   4   0 5677.87 185.553  21
   2   4   0 5637.50 183.547  16
  -2  -4   0 5868.33 251.171   4
   2   4   0 5943.59 291.682  15
  -2  -4  -1 37014.0 928.032   7
   2   4   1 34178.1 927.953  14
  -2  -4  -1 33811.4 920.665  13
  -2  -4  -1 34887.0 917.249   2
  -2  -4  -1 34230.7 826.435  11
  -2  -4  -1 37140.7 938.421   6
   2   4   1 32702.7 909.755   7
   2   4   1 33056.2 940.601   1
  -2  -4  -1 35129.0 887.134   3
  -2  -4  -1 35366.8 918.601  18
  -2  -4  -1 34798.1 867.663   5
   2   4   1 34530.9 923.329   6
   2   4   1 34149.1 904.296  18
  -2  -4  -1 35677.0 861.612   4
   2   4   1 34329.2 936.049  15
  -2  -4  -2-42.2899 52.6012  15
   2   4   2 20.2545 52.9019   6
   2   4   2-9.45793 36.5285   4
   2   4   2 26.6414 46.7842   7
   2   4   2 24.7526 56.5139  14
  -2  -4  -2-4.41925 35.6912  14
  -2  -4  -2 15.2978 32.6226   7
  -2  -4  -2 0.50666 38.2837   6
   2   4   2-9.05289 68.7077   1
  -2  -4  -2 59.9625 33.5530   4
  -2  -4  -2 7.24757 32.8525  11
  -2  -4  -2 50.4110 66.5951   2
   2   4   2-40.6261 52.1766  18
  -2  -4  -2 12.7841 40.9060  18
  -2  -4  -2 2.06907 10.5793  10
   2   4   2 177.919 68.2348  15
  -2  -4  -3 3846.67 203.814   7
   2   4   3 3506.94 211.296   6
  -2  -4  -3 3588.54 226.437   2
  -2  -4  -3 3666.93 209.554  12
  -2  -4  -3 3981.95 219.443   6
   2   4   3 3557.85 229.245   1
  -2  -4  -3 3656.57 201.644  11
  -2  -4  -3 3440.87 144.567  10
   2   4   3 3745.02 233.080  18
   2   4   3 3520.66 221.113   8
   2   4   3 3549.94 215.286  15
   2   4   3 3777.53 181.239   4
  -2  -4  -3 3599.23 212.213  15
  -2  -4  -3 3639.61 177.006   4
  -2  -4  -4 56006.6 1328.59   4
  -2  -4  -4 57074.8 1253.73  19
  -2  -4  -4 57429.8 1439.70   2
  -2  -4  -4 57386.4 1374.19  12
   2   4   4 58168.7 1403.28   6
   2   4   4 57029.0 1247.80  20
   2   4   4 56622.3 1400.07  11
   2   4   4 58556.3 1247.49  19
  -2  -4  -4 55927.2 1299.24  10
   2   4   4 57983.0 1445.94  18
   2   4   4 57731.8 1245.61  17
  -2  -4  -4 57180.7 1251.31  17
  -2  -4  -4 57282.7 1250.63  21
  -2  -4  -4 55847.9 1246.53  16
   2   4   4 55282.8 1421.21   8
   2   4   4 58254.3 1245.11  21
   2   4   4 57205.1 1411.36   1
   2   4   4 56564.0 1322.79   4
  -2  -4  -4 60394.7 1400.17  15
  -2  -4  -4 59015.9 1359.03   7
  -2  -4  -5 9.69421 25.8912  17
  -2  -4  -5 18.1245 52.4552   2
  -2  -4  -5 29.3113 28.5404   7
   2   4   5 38.1104 33.1115   4
   2   4   5 31.2776 27.1768  21
  -2  -4  -5 6.56832 47.2291  12
  -2  -4  -5 24.5361 30.9889  19
   2   4   5 102.624 37.5549  20
   2   4   5 39.8589 50.0994   6
   2   4   5-15.8065 47.8952  11
   2   4   5 48.8969 32.2843  19
   2   4   5 60.4814 59.7575  18
   2   4   5 74.1951 32.2848  17
   2   4   5-0.38628 48.7531   1
  -2  -4  -5 55.7972 26.6638  21
   2   4   5 48.4239 59.1644   8
  -2  -4  -5 21.4887 26.2165  16
  -2  -4  -5 48.9186 34.8915   4
  -2  -4  -5 65.2693 43.4305  15
  -2  -4  -6 6752.75 308.331  15
   2   4   6 7410.56 345.767   6
  -2  -4  -6 6807.57 356.421   2
   2   4   6 7078.61 285.199  21
   2   4   6 6961.13 289.594  20
  -2  -4  -6 7287.37 292.239  16
   2   4   6 6784.94 354.962  11
   2   4   6 6941.50 285.001  19
  -2  -4  -6 6856.15 292.002  19
   2   4   6 6808.87 282.434  17
  -2  -4  -6 6570.21 283.890   5
   2   4   6 6995.17 366.774  18
   2   4   6 7153.57 326.054   1
  -2  -4  -6 6993.40 290.803  17
  -2  -4  -6 7071.07 291.475  21
   2   4   6 7055.04 358.522   8
  -2  -4  -6 7135.86 305.548  12
   2   4   6 6933.71 305.614   4
   2   4   7-18.1359 38.9626   4
   2   4   7-16.4153 34.0761  17
   2   4   7-14.2048 35.9082  21
  -2  -4  -7 37.1380 44.1320  12
   2   4   7 36.3688 37.9203  19
   2   4   7 3.27361 41.2508  20
  -2  -4  -7 4.75834 50.3103   2
   2   4   7 14.4846 56.2362  18
   2   4   7-12.7952 46.9370   6
   2   4   7-10.1544 58.7886   8
  -2  -4  -7 12.7121 32.8766  15
   2   4   7 151.534 72.1356  11
   2   4   8 49.0466 77.3420  18
   2   4   8-41.0190 55.7254  20
   2   4   8-15.3765 50.2068   4
   2   4   8 30.5133 45.9101  19
  -2  -4  -8 89.3026 68.5773   2
   2   4   8 15.4544 50.2504   6
   2   4   8 88.7907 56.5236  17
   2   4   8-59.5184 44.6450  21
   2   4   8 67.8584 63.4941   8
   2   4   9 1809.96 185.187   4
   2   4   9 2044.33 191.728  21
   2   4   9 1830.84 194.299   6
   2   4   9 2062.79 197.038  20
   2   4   9 2117.68 193.524  17
   2   4   9 1601.62 170.411  19
   2   4   9 1965.91 215.181  18
  -2  -4  -9 1753.62 213.631   9
  -2  -4  -9 1999.99 205.497   2
   2   4   9 1778.28 204.656   8
   2   4  10 8110.72 425.035  21
   2   4  10 7183.81 411.090   4
  -2  -4 -10 7961.92 361.163   7
   2   4  10 7983.83 464.859   8
   2   4  10 7734.40 422.416  20
   2   4  10 8545.75 450.504   6
   2   4  10 7912.35 422.879  19
   2   4  10 8163.30 469.728  18
  -2  -4 -10 8073.75 442.704   2
   2   4  10 8213.31 428.070  17
  -2  -4 -10 7490.32 460.441   9
   2   4  11 505.123 125.298  19
   2   4  11 732.904 149.528  18
   2   4  11 693.025 134.370   6
   2   4  11 570.624 132.352  20
   2   4  11 739.412 143.207   4
  -2  -4 -11 512.560 112.966   2
   2   4  11 603.755 120.974  17
  -2  -4 -11 686.429 152.018   9
   2   4  11 651.157 151.131   8
   2   4  11 556.687 126.103  21
   2   4  12 73.4780 65.0509  21
   2   4  12 2.05942 77.6808   4
   2   4  12 29.9840 66.6738   6
   2   4  12 105.014 93.0439  19
   2   4  12 73.3543 86.7204  20
   2   4  12 152.407 91.5937  18
  -2  -4 -12 25.6456 62.3830   2
   2   4  12-12.1967 90.6752  17
  -2  -4 -12 61.5733 81.3477   9
   2   4  12 104.986 92.9167   8
   2   4  13-30.3494 72.3760  21
   2   4  13-30.1815 83.9290  18
   2   4  13 122.472 89.8600   4
   2   4  13 98.7153 90.8624  20
   2   4  13 6.07563 71.3634   6
  -2  -4 -13 33.4622 68.2153  10
   2   4  13 174.943 85.2137  17
   2   4  13-66.4966 80.6028  19
  -2  -4 -13 28.8798 73.8044   9
   2   4  13 67.8217 81.7458   8
   2   4  14 143.481 85.0812  21
   2   4  14-178.198 130.412  20
   2   4  14-187.734 103.001   4
   2   4  14-42.4854 108.358   6
   2   4  14 127.982 124.295   8
   2   4  14-48.1958 98.6125  19
   2   4  14-119.753 80.5756  18
  -2  -4 -14 75.4197 81.3336  10
   2   4  14-260.035 118.639  17
   2   5 -11 6688.19 494.236   7
   2   5 -11 5917.77 481.336  14
  -2  -5  11 6510.32 508.822  19
   2   5 -11 6864.19 493.310  10
  -2  -5  11 6975.20 522.960  17
  -2  -5  11 6816.44 515.236  21
   2   5 -10 1704.54 235.401   7
   2   5 -10 1395.22 224.009  14
  -2  -5  10 1840.39 257.968  21
  -2  -5  10 1386.56 225.976  20
  -2  -5  10 1729.69 251.266  19
   2   5 -10 1704.65 230.829  10
  -2  -5  10 2015.42 265.485  17
  -2  -5  10 1821.90 264.493   5
   2   5  -9-76.5547 100.946   7
   2   5  -9 201.688 95.4354  14
  -2  -5   9 116.568 101.127  20
   2   5  -9-25.3526 79.0594  10
  -2  -5   9 218.890 112.051  17
  -2  -5   9-13.3512 70.7182   5
  -2  -5   9 186.226 93.7759  19
  -2  -5   9 254.935 118.288  21
   2   5  -9 32.1654 58.3229  15
   2   5  -8 1262.69 176.885  15
  -2  -5   8 1318.06 196.803  19
   2   5  -8 1165.53 193.423   7
   2   5  -8 1224.89 194.471  14
  -2  -5   8 1541.52 212.416  20
  -2  -5   8 1758.54 216.258  21
  -2  -5   8 1542.06 207.880  17
  -2  -5   8 1234.27 197.878   5
   2   5  -7 3501.86 309.230   7
   2   5  -7 4331.28 343.074  14
  -2  -5   7 3902.71 315.283  19
  -2  -5   7 3994.62 320.031  20
  -2  -5   7 4411.41 356.828   5
  -2  -5   7 3787.98 309.168  17
  -2  -5   7 3940.06 310.584  21
   2   5  -7 4232.38 304.349  15
   2   5  -6-43.0873 68.7418  15
   2   5  -6 52.0564 76.0792   7
   2   5  -6 143.333 86.2287  14
  -2  -5   6 96.1683 69.8266  21
  -2  -5   6 22.0468 57.6924  19
  -2  -5   6 30.8188 72.9544  20
  -2  -5   6 123.819 68.1900  17
  -2  -5   6 48.7032 67.8332   5
  -2  -5   5 5264.67 352.176   5
   2   5  -5 5377.74 355.837   7
   2   5  -5 5725.70 362.334  14
  -2  -5   5 5510.67 326.799  20
  -2  -5   5 5737.96 371.664  13
  -2  -5   5 6127.73 338.501  21
   2   5  -5 4787.92 208.993   3
   2   5  -5 5349.91 309.872   1
  -2  -5   5 5411.32 322.013  19
   2   5  -5 5543.32 338.002  15
  -2  -5   5 6054.93 335.662  17
   2   5  -4 36338.0 1089.87   7
   2   5  -4 34947.9 1072.41  14
  -2  -5   4 36205.2 995.375  21
  -2  -5   4 35206.6 1075.56  13
  -2  -5   4 35800.0 992.906  19
  -2  -5   4 36543.0 860.767   3
  -2  -5   4 33755.9 870.078  18
   2   5  -4 33532.0 999.747   1
  -2  -5   4 35626.2 1068.32   5
  -2  -5   4 35892.6 992.030  17
  -2  -5   4 35452.1 996.980  20
   2   5  -4 34013.0 1041.16  15
   2   5  -4 32656.0 847.089   3
   2   5  -3 1723.25 182.169  14
  -2  -5   3 1825.63 154.716  20
  -2  -5   3 1839.05 178.245   5
   2   5  -3 1550.74 175.977   7
  -2  -5   3 1813.78 150.144  21
  -2  -5   3 1362.91 166.674  13
  -2  -5   3 1783.62 148.597  19
  -2  -5   3 1909.82 132.200   2
   2   5  -3 1819.72 128.040  10
   2   5  -3 1431.71 112.241   3
   2   5  -3 1885.36 178.371   1
  -2  -5   3 1702.89 128.974  18
  -2  -5   3 1770.22 124.944   3
  -2  -5   3 1946.29 157.240  17
   2   5  -3 1731.70 178.950  15
   2   5  -2 504.119 104.639   1
   2   5  -2 636.756 109.802   7
   2   5  -2 599.165 114.432  14
  -2  -5   2 585.257 104.357  13
   2   5  -2 574.793 77.2985  16
   2   5  -2 742.032 88.2578  19
   2   5  -2 526.024 79.6003  20
  -2  -5   2 710.309 88.8383  19
   2   5  -2 740.125 68.5563  10
  -2  -5   2 599.409 82.4794  18
  -2  -5   2 735.040 89.4721   2
   2   5  -2 636.208 82.0375  17
  -2  -5   2 658.115 84.8072  20
   2   5  -2 510.170 73.3652  21
  -2  -5   2 584.457 72.6636   3
  -2  -5   2 611.398 105.437   5
  -2  -5   2 677.373 83.1768  21
   2   5  -2 656.472 114.222  15
   2   5  -1 3442.61 243.477   7
   2   5  -1 3043.50 232.741  14
  -2  -5   1 3426.07 165.465  20
  -2  -5   1 3122.33 156.917  21
  -2  -5   1 3241.21 234.227  13
   2   5  -1 3340.86 167.616  16
   2   5  -1 3108.40 162.193  21
   2   5  -1 3098.83 115.147  10
  -2  -5   1 3185.09 198.543   2
  -2  -5   1 2992.72 122.193   9
   2   5  -1 2562.45 211.540   1
   2   5  -1 3017.65 162.296  20
  -2  -5   1 3104.84 124.469  11
   2   5  -1 3029.29 115.723  10
   2   5  -1 3041.00 161.773  19
  -2  -5   1 3410.08 190.061   3
  -2  -5   1 3676.34 208.121  18
  -2  -5   1 2995.70 203.441   5
   2   5  -1 3247.30 164.238  17
   2   5  -1 2879.71 155.554  16
   2   5  -1 3174.34 234.273  15
  -2  -5   1 3296.42 161.601  19
  -2  -5   0 443.795 70.0637   4
   2   5   0 522.808 97.5488   7
   2   5   0 424.887 95.7270  14
   2   5   0 593.335 54.8175  21
  -2  -5   0 503.619 49.9101  20
  -2  -5   0 474.166 95.3835  13
   2   5   0 355.961 47.4447  20
  -2  -5   0 426.977 53.7762  11
   2   5   0 552.041 54.3906  19
  -2  -5   0 430.137 78.3222  18
  -2  -5   0 441.536 81.8581   2
   2   5   0 500.481 51.4345  17
  -2  -5   0 544.231 52.0854  19
  -2  -5   0 550.172 80.8097   3
  -2  -5   0 494.346 50.7693  21
  -2  -5   0 557.019 87.6205   5
   2   5   0 611.032 86.8334  18
   2   5   0 445.431 49.5857  16
   2   5   0 550.843 106.975   1
   2   5   0 532.958 52.0794  16
   2   5   0 474.688 97.4252  15
   2   5   1 1355.15 144.695   7
   2   5   1 1298.32 146.433  14
  -2  -5  -1 1337.27 146.963  13
   2   5   1 1349.78 61.3555  21
  -2  -5  -1 1285.64 127.533   3
   2   5   1 1428.19 62.3108  17
   2   5   1 1292.66 60.9090  19
   2   5   1 1575.47 167.660   1
  -2  -5  -1 1424.84 118.751   5
   2   5   1 1414.08 61.5405  17
   2   5   1 1651.03 163.362  15
  -2  -5  -1 1361.04 58.8589  20
   2   5   1 1366.26 61.4927  16
   2   5   1 1444.77 61.7767  16
   2   5   1 1734.13 152.472  18
  -2  -5  -1 1442.11 113.554   4
   2   5   1 1219.85 60.0376  20
  -2  -5  -1 1310.84 105.509  11
  -2  -5  -1 1599.86 151.707   2
   2   5   2 29742.4 882.362  14
   2   5   2 28897.9 860.740  18
   2   5   2 28357.3 847.394   6
  -2  -5  -2 30176.7 878.779   2
   2   5   2 28303.6 882.865   1
  -2  -5  -2 30046.6 792.281  11
  -2  -5  -2 29962.5 764.137   5
  -2  -5  -2 30405.4 857.316   3
   2   5   2 30341.5 888.854  15
  -2  -5  -2 30087.2 755.992   4
   2   5   3 3539.78 243.065  18
   2   5   3 3400.67 222.830   6
   2   5   3 3447.39 249.923   1
  -2  -5  -3 3797.11 244.027   3
  -2  -5  -3 3628.02 133.598  10
  -2  -5  -3 3581.27 131.101  10
  -2  -5  -3 3792.98 253.294   2
   2   5   3 3936.99 258.268   8
   2   5   3 4079.94 186.865   4
  -2  -5  -3 3525.35 175.524   4
  -2  -5  -4 1051.36 96.4233   4
   2   5   4 1233.45 67.6517  20
   2   5   4 1109.86 66.8401  20
   2   5   4 1134.96 67.5835  19
   2   5   4 1085.88 125.784   6
  -2  -5  -4 1197.16 89.5881  10
  -2  -5  -4 1143.55 125.711  12
  -2  -5  -4 1269.90 153.349   2
  -2  -5  -4 1188.92 68.5596  16
   2   5   4 1311.00 157.772  18
   2   5   4 1172.08 67.7492  21
  -2  -5  -4 1243.98 70.7383  17
  -2  -5  -4 1361.97 157.813   3
   2   5   4 1114.38 66.6212  17
   2   5   4 1444.39 160.945   8
   2   5   4 1244.01 102.142   4
   2   5   4 1031.04 138.701   1
   2   5   5 887.337 76.9321  21
  -2  -5  -5 922.290 96.6025   4
   2   5   5 758.524 126.396  18
  -2  -5  -5 944.257 113.782  12
   2   5   5 1160.69 86.5292  20
   2   5   5 937.990 77.9098  17
  -2  -5  -5 927.545 79.5390  17
   2   5   5 1022.88 125.325   6
   2   5   5 1018.96 135.368   1
  -2  -5  -5 946.745 139.055   2
   2   5   5 966.070 78.6629  19
  -2  -5  -5 994.795 139.334   3
  -2  -5  -5 957.146 80.9374  16
  -2  -5  -5 935.882 80.1952  21
   2   5   5 1032.60 144.147   8
   2   5   5 1213.17 105.594   4
   2   5   6 2712.40 158.381  21
   2   5   6 2466.50 152.981  17
  -2  -5  -6 2476.68 225.238   2
  -2  -5  -6 2542.24 182.039  12
   2   5   6 2862.35 164.307  20
   2   5   6 2713.31 207.934   6
   2   5   6 2654.82 158.491  19
  -2  -5  -6 2345.09 149.242   5
   2   5   6 2636.52 234.260  18
  -2  -5  -6 2433.73 156.039  17
   2   5   6 2463.89 203.361   1
  -2  -5  -6 2326.62 152.027  21
  -2  -5  -6 2436.75 153.058  16
   2   5   6 2626.69 232.741   8
   2   5   6 2569.50 166.972   4
   2   5   7 8248.95 395.320   6
   2   5   7 7901.36 431.501   8
   2   5   7 8230.63 335.617  17
  -2  -5  -7 8141.12 350.290  12
   2   5   7 8377.20 338.700  19
   2   5   7 8260.12 340.685  20
  -2  -5  -7 7679.26 338.715  19
  -2  -5  -7 7730.73 315.765   5
   2   5   7 8092.59 446.624  18
   2   5   7 8272.73 396.932   1
  -2  -5  -7 7718.92 331.403  16
  -2  -5  -7 7761.97 336.908  17
  -2  -5  -7 7795.37 337.397  21
   2   5   7 8508.59 338.504  21
  -2  -5  -7 7723.00 426.403   2
   2   5   7 8437.26 351.832   4
  -2  -5  -8 344.106 74.8776  12
   2   5   8 658.844 99.6835   4
   2   5   8 509.153 99.9435   6
   2   5   8 433.229 85.4214  21
   2   5   8 486.863 101.493   1
   2   5   8 459.321 85.9099  19
   2   5   8 354.370 118.521  18
  -2  -5  -8 357.801 98.2314   2
   2   5   8 479.117 85.9522  17
   2   5   8 575.439 124.612   8
   2   5   8 595.057 96.4672  20
   2   5   9 1869.86 176.517  21
   2   5   9 1829.56 195.791   6
   2   5   9 1904.16 227.292   8
   2   5   9 1753.56 178.893  20
   2   5   9 1908.22 180.646  19
   2   5   9 2066.96 235.179  18
  -2  -5  -9 1774.79 211.292   2
   2   5   9 1853.27 174.842  17
   2   5   9 1779.85 174.246   4
   2   5  10 1897.32 194.808   4
   2   5  10 2253.67 208.381  21
   2   5  10 1765.77 191.725  20
   2   5  10 2285.93 214.799  19
   2   5  10 2015.56 205.127  17
   2   5  10 2105.12 252.935  18
  -2  -5 -10 1790.54 212.939   2
   2   5  10 1964.77 209.347   6
   2   5  10 2501.97 268.973   8
   2   5  11 1320.71 176.477   4
   2   5  11 1446.76 218.318  18
   2   5  11 1328.02 178.329  21
   2   5  11 1062.92 165.484  20
   2   5  11 1270.46 181.687   6
   2   5  11 1072.60 160.449  19
  -2  -5 -11 1357.24 198.902   2
   2   5  11 1209.08 163.978  17
  -2  -5 -11 1466.78 219.251   9
   2   5  11 1353.78 206.829   8
   2   5  12-14.7538 76.5032   6
   2   5  12-34.5060 78.9241  20
   2   5  12 25.6749 52.5982  19
   2   5  12-6.98993 72.7945  21
  -2  -5 -12-146.302 82.0427   2
   2   5  12 5.88219 64.6732  17
   2   5  12 113.830 65.8530   4
   2   5  12-38.8218 92.8107  18
  -2  -5 -12-63.4787 112.962   9
   2   5  12 29.0460 72.8821   8
   2   5  13 375.848 112.038  18
   2   5  13 95.1428 86.9142  20
   2   5  13 356.620 105.097  21
   2   5  13 367.577 118.904  19
  -2  -5 -13 352.614 127.125   3
   2   5  13 340.011 114.218  17
  -2  -5 -13 477.290 120.627   2
  -2  -5 -13 451.064 158.186   9
   2   5  13 354.711 123.917   8
   2   5  14 244.721 113.811  21
   2   5  14 219.186 104.527  20
   2   5  14 139.336 104.639  19
   2   5  14-44.4023 97.8722  18
   2   5  14-57.9906 75.8799  17
   2   6 -10 8981.39 585.517   7
   2   6 -10 8149.10 566.645  14
  -2  -6  10 8187.16 556.091  21
  -2  -6  10 8652.54 579.519  20
  -2  -6  10 8143.98 555.948  19
  -2  -6   9 313.359 119.482  21
   2   6  -9 435.680 143.427   7
   2   6  -9 132.216 81.0752  14
  -2  -6   9 152.726 95.9279  20
  -2  -6   9 318.637 123.673  19
   2   6  -9 239.695 96.9898  10
  -2  -6   9 310.506 128.273   5
   2   6  -8 1182.05 201.601   7
   2   6  -8 1154.77 200.713  14
  -2  -6   8 1199.96 200.236  20
   2   6  -8 1156.69 167.741  10
  -2  -6   8 1172.89 208.529   5
  -2  -6   8 1522.42 210.075  19
  -2  -6   8 1424.64 206.356  21
   2   6  -8 1277.72 183.776  15
   2   6  -7 195.553 104.796   7
   2   6  -7 35.1494 68.9519  14
  -2  -6   7 67.4339 65.6710  21
  -2  -6   7 172.491 94.1956  20
  -2  -6   7 160.213 64.0322  19
   2   6  -7 93.5984 57.5774  10
  -2  -6   7 17.4145 71.5766   5
   2   6  -7 116.317 68.1938  15
   2   6  -6 85.0447 77.1552   7
   2   6  -6 139.395 89.8362  14
  -2  -6   6 75.7125 56.0636  19
  -2  -6   6 12.0976 61.1629  20
   2   6  -6 49.6646 60.3620   1
  -2  -6   6 42.9989 87.9431  13
   2   6  -6 86.8352 51.7881  10
  -2  -6   6 163.561 80.3999  21
  -2  -6   6 125.442 88.7476   5
   2   6  -6 25.3808 57.6412  15
   2   6  -5 1889.14 224.973  14
   2   6  -5 1544.02 204.567   7
  -2  -6   5 1920.40 222.838  13
   2   6  -5 1811.25 198.556   1
  -2  -6   5 1752.96 194.790  20
   2   6  -5 2082.30 174.496  10
  -2  -6   5 2078.46 200.000  19
  -2  -6   5 2153.76 232.189   5
  -2  -6   5 1705.76 135.630   3
  -2  -6   5 1754.46 185.173  21
   2   6  -5 1511.86 192.256  15
   2   6  -4 4142.90 327.686   7
   2   6  -4 4126.76 318.890  14
  -2  -6   4 4521.27 276.814  19
   2   6  -4 4424.85 234.312  10
  -2  -6   4 4030.88 317.671  13
  -2  -6   4 4264.43 271.117  20
  -2  -6   4 4262.51 270.486  21
   2   6  -4 3976.33 290.542   1
  -2  -6   4 4111.81 303.752   5
  -2  -6   4 4218.33 227.152   3
   2   6  -4 4421.20 318.609  15
   2   6  -3 19621.3 754.332  14
   2   6  -3 18716.7 714.131   1
  -2  -6   3 19439.9 744.986  13
  -2  -6   3 19924.5 638.230  20
   2   6  -3 18608.1 593.570   3
  -2  -6   3 20622.5 623.888   2
  -2  -6   3 19865.2 634.988  19
  -2  -6   3 20278.8 606.328   3
   2   6  -3 20473.4 557.975  10
  -2  -6   3 16823.6 571.756  18
  -2  -6   3 18623.5 701.209   5
  -2  -6   3 19479.2 628.538  21
   2   6  -3 19361.6 736.913  15
   2   6  -3 20047.6 646.847  16
   2   6  -3 20066.0 765.164   7
   2   6  -2 644.931 124.343   7
   2   6  -2 495.641 114.442  14
   2   6  -2 419.509 73.3266  16
  -2  -6   2 402.242 39.7251  11
  -2  -6   2 425.439 112.157  13
  -2  -6   2 473.656 77.2384  21
  -2  -6   2 451.461 41.8414  11
   2   6  -2 451.929 75.7481  20
  -2  -6   2 510.718 79.3707  19
   2   6  -2 318.644 71.2728  19
  -2  -6   2 406.566 76.2249  18
   2   6  -2 515.776 54.4255  10
  -2  -6   2 458.076 41.7329   9
   2   6  -2 307.336 67.2444  17
  -2  -6   2 462.303 98.0794   5
  -2  -6   2 617.487 97.5800   2
   2   6  -2 545.817 84.5103  21
  -2  -6   2 561.072 88.8118   3
  -2  -6   2 568.908 83.5353  20
   2   6  -2 599.182 119.964   1
   2   6  -2 461.028 77.9578  16
   2   6  -2 346.642 102.070  15
   2   6  -1 10662.2 504.092  14
  -2  -6   1 11644.7 375.302  21
  -2  -6   1 11514.8 514.688  13
   2   6  -1 11148.7 376.501  21
   2   6  -1 10682.5 371.419  17
  -2  -6   1 11006.9 334.722  11
  -2  -6   1 11486.3 461.019   2
   2   6  -1 11290.5 514.413   1
   2   6  -1 11069.1 377.137  19
  -2  -6   1 11548.3 441.245   3
   2   6  -1 10713.0 509.738   7
   2   6  -1 11633.2 384.384  16
  -2  -6   1 11127.3 335.311   9
   2   6  -1 10301.5 373.805  20
   2   6  -1 11173.6 376.490  16
  -2  -6   1 11816.9 462.280   5
  -2  -6   1 11686.1 375.345  20
  -2  -6   1 11460.9 373.671  19
   2   6  -1 11464.6 521.959  15
   2   6   0 22.1645 56.4374   7
   2   6   0-16.4674 72.2798  14
  -2  -6   0-62.1347 71.1137  13
   2   6   0 19.3497 41.4391  18
   2   6   0 29.5430 21.9605  17
   2   6   0 24.5409 20.4285  20
  -2  -6   0 81.4636 28.9921  19
  -2  -6   0 55.7371 37.3045   5
  -2  -6   0 60.6831 31.6949  11
   2   6   0 33.3355 22.0771  19
   2   6   0 80.2396 30.7488  21
  -2  -6   0-0.48269 48.9580   2
   2   6   0 59.4916 28.3740  17
   2   6   0 28.8766 76.8095   1
  -2  -6   0 19.0070 45.1350   3
   2   6   0 45.9875 25.9103  16
   2   6   0 34.9239 24.5063  16
  -2  -6   0 38.5435 20.8857  20
   2   6   0 89.6235 74.6115  15
   2   6   1 10165.1 481.639  14
  -2  -6  -1 10704.3 377.072   4
  -2  -6  -1 10986.3 283.608  20
  -2  -6  -1 10640.0 479.801  13
   2   6   1 10394.5 286.461  21
   2   6   1 9928.77 288.257  20
  -2  -6  -1 9904.72 371.321  11
  -2  -6  -1 10508.6 444.139   3
  -2  -6  -1 10495.0 463.681   2
   2   6   1 10304.6 490.986   1
   2   6   1 10240.2 287.416  19
  -2  -6  -1 11448.5 401.820   5
   2   6   1 10581.1 287.388  17
   2   6   1 10751.5 288.762  17
   2   6   1 10719.5 288.207  16
   2   6   1 11066.4 290.176  16
   2   6   1 11261.5 292.367  21
   2   6   1 10636.2 448.694  18
   2   6   1 10276.2 477.861   7
   2   6   2 5132.24 331.861   1
   2   6   2 5160.11 328.758  14
  -2  -6  -2 5405.30 324.347   2
  -2  -6  -2 5306.61 310.126   3
   2   6   2 5432.23 312.175  18
  -2  -6  -2 5428.58 242.010   5
  -2  -6  -2 4879.98 222.319   4
  -2  -6  -3 10748.1 497.168   2
  -2  -6  -3 11011.6 487.199   3
   2   6   3 11768.0 508.648  18
   2   6   3 11076.1 509.506   1
  -2  -6  -3 11995.9 372.512   5
  -2  -6  -3 10409.0 355.603   4
  -2  -6  -4 3591.50 178.251   4
   2   6   4 3845.39 127.656  21
   2   6   4 3608.70 124.174  20
   2   6   4 3434.88 243.138   6
   2   6   4 3604.00 124.200  19
   2   6   4 3502.17 125.961  20
  -2  -6  -4 3484.81 269.304   3
  -2  -6  -4 3998.24 160.058  10
   2   6   4 3980.26 288.833   1
   2   6   4 3627.49 125.926  19
  -2  -6  -4 4006.46 161.244  10
   2   6   4 4036.99 291.315  18
   2   6   4 3802.76 130.060  17
  -2  -6  -4 3712.54 174.186   5
  -2  -6  -4 4042.49 294.902   2
  -2  -6  -4 3580.29 127.837  16
   2   6   4 3505.93 275.193   8
  -2  -6  -5 3831.00 193.484   4
  -2  -6  -5 3952.43 167.184  16
  -2  -6  -5 4040.81 259.014  12
   2   6   5 4387.77 171.433  21
   2   6   5 4389.12 175.474  20
   2   6   5 4297.82 273.280   6
  -2  -6  -5 4250.82 308.860   3
  -2  -6  -5 3771.65 194.157  10
  -2  -6  -5 4120.27 307.225   2
   2   6   5 4326.84 172.453  19
   2   6   5 3939.95 302.538  18
   2   6   5 4507.93 175.108  17
  -2  -6  -5 4234.53 173.450  17
   2   6   5 3793.74 287.707   1
   2   6   5 3766.70 300.166   8
   2   6   5 4577.13 208.109   4
   2   6   5 4272.32 167.733  20
   2   6   6 51.2172 70.2796   1
   2   6   6-23.8446 30.0106   4
  -2  -6  -6-14.4708 33.4984  21
   2   6   6 107.413 74.9870  18
   2   6   6-26.1722 30.1536  21
   2   6   6-5.87857 28.2782  20
  -2  -6  -6 12.7994 24.7179   5
   2   6   6-8.08608 29.0738  19
  -2  -6  -6-34.7662 78.0787   2
   2   6   6 53.8943 55.2463   6
  -2  -6  -6-45.3022 37.7094  17
  -2  -6  -6 34.2415 72.4013   3
   2   6   6 7.83509 27.3091  17
  -2  -6  -6 44.5627 54.0038  12
  -2  -6  -6-15.3733 35.2670  16
   2   6   6-41.5887 65.1026   8
   2   6   7 918.077 100.078  21
   2   6   7 895.348 147.986   1
   2   6   7 870.367 98.4576  19
  -2  -6  -7 1043.88 130.586  12
   2   6   7 868.517 130.440   6
   2   6   7 823.061 96.9206  20
   2   6   7 806.309 156.570  18
  -2  -6  -7 770.083 139.800   2
   2   6   7 1034.31 105.929  17
  -2  -6  -7 843.478 157.555   3
   2   6   7 985.010 163.209   8
   2   6   7 967.265 103.610   4
   2   6   8 46.9517 33.7139   4
  -2  -6  -8 159.372 64.1785  12
   2   6   8 160.920 76.8922   1
   2   6   8 172.103 65.0597   6
   2   6   8 69.1304 47.7361  20
   2   6   8 160.768 57.4149  19
   2   6   8 55.6709 76.6458  18
  -2  -6  -8 76.6348 70.6526   2
   2   6   8 135.198 54.9042  21
  -2  -6  -8 263.695 107.561   3
   2   6   8 147.795 47.9384  17
   2   6   8 101.042 79.5230   8
   2   6   9 180.441 54.9593   4
   2   6   9 68.5710 53.2262  21
   2   6   9 206.783 85.4065   1
  -2  -6  -9 241.288 68.7466  12
   2   6   9 159.958 65.4657  19
   2   6   9 163.688 68.7488  20
   2   6   9 144.529 72.0578   6
   2   6   9 92.1660 94.1250  18
  -2  -6  -9 95.6731 80.9673   2
  -2  -6  -9 120.391 89.8519   3
   2   6   9 138.786 59.8007  17
   2   6   9 24.6217 68.9287   8
   2   6  10 1254.94 153.325  21
   2   6  10 1128.11 150.210  20
   2   6  10 1058.28 155.199   6
   2   6  10 1211.51 153.803  19
   2   6  10 1256.58 206.598  18
  -2  -6 -10 838.959 168.839   2
  -2  -6 -10 1149.07 202.752   3
   2   6  10 1126.06 147.490  17
   2   6  10 1092.05 191.747   8
  -2  -6 -11 322.162 112.366   3
   2   6  11 434.575 112.291   6
   2   6  11 473.781 138.583  18
  -2  -6 -11 781.298 166.112   2
   2   6  11 715.301 130.138  17
   2   6  11 755.670 181.721   8
  -2  -6 -12 3035.47 331.817   3
   2   6  12 2289.17 300.895  18
  -2  -6 -12 2260.37 279.992   2
  -2  -6 -12 3280.13 350.228   9
   2   6  12 3291.67 353.948   8
   2   6  13 958.759 207.170  18
  -2  -6 -13 919.018 180.914   2
   2   7  -9 2447.60 308.912   7
   2   7  -9 1981.59 287.723  14
  -2  -7   9 1866.56 254.391  21
  -2  -7   9 2217.91 282.119  19
  -2  -7   9 1656.08 245.092  20
   2   7  -9 2171.47 285.486  16
   2   7  -8 2189.94 287.891   7
   2   7  -8 2397.12 293.772  14
  -2  -7   8 2171.18 260.618  21
  -2  -7   8 1846.90 242.395  20
  -2  -7   8 2091.86 258.606  19
  -2  -7   8 2395.86 301.441   5
   2   7  -8 1725.69 243.215  16
   2   7  -8 1959.85 244.617  15
   2   7  -7 5159.13 416.807  14
  -2  -7   7 4604.57 362.491  20
  -2  -7   7 4478.97 353.386  19
  -2  -7   7 4958.81 413.790   5
  -2  -7   7 5717.11 392.158  21
   2   7  -7 5056.35 384.579  16
   2   7  -7 5164.77 391.292  15
   2   7  -7 4506.16 397.032   7
  -2  -7   6 4922.83 352.125  19
   2   7  -6 5582.27 421.236  14
  -2  -7   6 5381.99 360.993  21
  -2  -7   6 4756.51 392.119  13
  -2  -7   6 6189.63 436.863   5
   2   7  -6 4973.00 357.972   1
   2   7  -6 4876.14 356.004  16
  -2  -7   6 5332.84 366.827  20
   2   7  -6 4712.74 372.349  15
   2   7  -6 5889.18 441.079   7
   2   7  -5 15.2625 66.0593   7
   2   7  -5 21.4112 69.1854   1
   2   7  -5 86.6027 84.5187  14
  -2  -7   5 21.0747 48.5752  21
  -2  -7   5 107.992 73.5108  20
  -2  -7   5-17.2276 107.269  13
  -2  -7   5 58.4177 70.6900  19
  -2  -7   5-37.6597 85.5754   5
   2   7  -5-7.88163 64.0351  16
   2   7  -5-49.9645 67.2817  15
  -2  -7   4 130.883 51.6386   3
   2   7  -4 318.743 131.550   7
   2   7  -4 99.6498 76.6302  14
  -2  -7   4 138.235 60.2505  21
  -2  -7   4 194.595 82.6469  13
  -2  -7   4 251.655 72.4491  20
  -2  -7   4 253.397 71.7870  19
  -2  -7   4 194.092 91.4307   5
   2   7  -4 259.774 107.392   1
   2   7  -4 243.353 83.6603  16
   2   7  -4 136.481 84.4342  15
  -2  -7   3 30.6186 76.7629  13
   2   7  -3 24.8811 73.5400   1
   2   7  -3 12.4213 93.6628   7
   2   7  -3 30.1844 60.6995  14
  -2  -7   3 26.6008 46.7843  21
  -2  -7   3-15.8159 48.0756  20
  -2  -7   3-15.7348 37.2787  19
  -2  -7   3-16.2939 62.2012   5
  -2  -7   3 31.9804 49.7114   2
   2   7  -3 21.2236 40.4082  16
  -2  -7   3 40.6332 51.6340   3
   2   7  -3 15.2341 82.6166  15
   2   7  -2 8645.48 487.836  14
  -2  -7   2 8796.64 417.001   2
  -2  -7   2 8708.71 356.243  21
  -2  -7   2 8659.23 478.127  13
   2   7  -2 7774.24 461.422   1
  -2  -7   2 8746.54 359.473  20
  -2  -7   2 8560.55 398.000   3
  -2  -7   2 8660.55 428.370   5
  -2  -7   2 9071.43 361.701  19
   2   7  -2 8073.68 355.555  16
   2   7  -2 8694.34 494.126  15
   2   7  -2 7840.29 474.585   7
   2   7  -1 16.4953 73.0203   7
   2   7  -1 9.52278 68.8397  14
  -2  -7   1 7.35764 29.9615  20
  -2  -7   1-70.9981 85.7635  13
  -2  -7   1-1.57314 32.6297  19
   2   7  -1-34.0996 83.8718   1
  -2  -7   1-31.3043 51.7175   2
  -2  -7   1 76.1188 58.5631   3
   2   7  -1 44.3805 35.2563  16
  -2  -7   1-36.2713 62.8141   5
   2   7   0 2598.04 254.853   1
   2   7   0 2959.58 270.467  14
  -2  -7   0 2830.48 261.553  13
   2   7   0 2983.90 159.230  17
  -2  -7   0 3021.10 153.008  20
  -2  -7   0 2626.56 170.541  11
   2   7   0 2870.43 222.211  18
  -2  -7   0 3312.38 160.288  19
  -2  -7   0 3232.87 217.575   5
  -2  -7   0 2788.33 227.907   3
   2   7   0 3105.36 161.043  16
  -2  -7   0 3032.78 249.178   2
  -2  -7  -1 14731.7 386.808  20
   2   7   1 14534.3 636.265  14
  -2  -7  -1 13923.0 623.971  13
  -2  -7  -1 14553.4 606.671   2
  -2  -7  -1 14221.8 583.781   3
   2   7   1 13877.4 570.535  18
  -2  -7  -1 14783.9 506.317   5
   2   7   1 14878.7 397.203  21
   2   7   1 14849.4 396.371  17
   2   7   1 14831.0 395.363  16
   2   7   1 14637.8 652.010   1
  -2  -7  -1 14002.7 476.250   4
   2   7   2 43657.5 1239.13  14
   2   7   2 43448.5 1250.45   1
   2   7   2 32095.8 805.039  21
  -2  -7  -2 43543.6 1216.65  13
  -2  -7  -2 42860.8 1199.45   2
  -2  -7  -2 42393.7 1169.57   3
   2   7   2 39198.6 816.299  19
   2   7   2 43131.8 1169.29  18
  -2  -7  -2 45821.1 997.699   5
   2   7   2 39192.5 815.867  17
   2   7   2 33862.9 808.309  16
  -2  -7  -2 42130.4 953.335   4
   2   7   3 1822.49 220.695   1
   2   7   3 2517.63 239.974  18
  -2  -7  -3 2338.28 144.086   5
  -2  -7  -3 2156.30 223.913   3
  -2  -7  -3 2618.83 250.839   2
  -2  -7  -4 8170.45 468.985   2
   2   7   4 8367.44 476.213   1
  -2  -7  -4 7934.58 451.721   3
   2   7   4 8668.72 471.028  18
  -2  -7  -4 8734.24 289.322   5
  -2  -7  -5 2684.02 228.548  12
  -2  -7  -5 3468.57 299.527   2
   2   7   5 2751.09 272.494   1
  -2  -7  -5 2929.97 153.214  10
   2   7   5 2781.70 272.299  18
  -2  -7  -5 2861.49 268.982   3
   2   7   5 2906.46 239.131   6
  -2  -7  -6 6660.61 363.646  12
   2   7   6 7103.67 386.211   6
  -2  -7  -6 5976.20 420.530   2
  -2  -7  -6 6572.28 433.621   3
   2   7   6 6948.62 425.804   1
   2   7   6 7038.04 451.580  18
   2   7   6 7412.77 458.751   8
   2   7   7 4494.31 303.849   6
  -2  -7  -7 4453.57 363.808   2
  -2  -7  -7 4356.09 280.727  12
   2   7   7 4461.82 368.359  18
  -2  -7  -7 3990.57 342.044   3
   2   7   7 4128.24 332.939   1
   2   7   7 4183.19 353.714   8
   2   7   8 10336.0 501.296   6
  -2  -7  -8 10938.2 470.070  12
   2   7   8 11405.7 568.820   1
   2   7   8 11299.4 620.515  18
  -2  -7  -8 10895.6 604.061   2
   2   7   8 11197.3 611.779   8
  -2  -7  -8 11131.3 612.505   3
   2   7   9 433.945 113.922   6
   2   7   9 900.576 192.881  18
  -2  -7  -9 885.759 181.458   2
  -2  -7  -9 695.315 162.385   3
   2   7   9 577.025 138.383   1
   2   7   9 518.961 142.905   8
   2   7  10 39.3859 68.3111   1
   2   7  10 152.587 118.430  18
  -2  -7 -10 21.5363 89.0141   3
  -2  -7 -10 164.589 118.600   2
   2   7  10 223.608 135.270   8
   2   7  11 78.0402 88.6351  18
  -2  -7 -11 121.731 111.428   3
  -2  -7 -11 67.6983 84.8715   2
   2   7  11-89.5426 91.3877   8
  -2  -7 -12 293.109 114.784   2
   2   8  -7 848.005 201.857   7
   2   8  -7 1271.94 221.159  14
  -2  -8   7 1218.21 215.796   5
   2   8  -6 1072.67 210.443   7
   2   8  -6 870.783 186.964  14
   2   8  -6 654.185 142.375   1
  -2  -8   6 983.413 209.270  13
  -2  -8   6 917.577 187.857   5
   2   8  -5 107.274 74.0072   7
   2   8  -5 163.376 96.7445  14
  -2  -8   5-16.2341 112.202  13
   2   8  -5 182.786 97.0885   1
  -2  -8   5 101.866 76.6948   5
   2   8  -4 2.82146 118.360   7
   2   8  -4-73.7774 102.741  14
   2   8  -4 3.61447 76.7235   1
  -2  -8   4 5.10037 87.9548  13
  -2  -8   4-50.3282 75.8215   5
   2   8  -3 867.789 174.143   1
   2   8  -3 702.742 164.262   7
  -2  -8   3 628.726 148.031  13
   2   8  -3 795.457 168.982  14
  -2  -8   3 780.745 142.402   5
  -2  -8   3 812.392 128.223   3
   2   8  -2 5040.90 392.212  14
  -2  -8   2 4935.30 379.671  13
  -2  -8   2 5535.40 349.777   2
   2   8  -2 4420.63 369.679   1
  -2  -8   2 4954.64 322.204   3
  -2  -8   2 5212.16 340.567   5
   2   8  -2 4801.63 386.253   7
   2   8  -1 2086.44 247.898  14
  -2  -8   1 2241.39 255.863  13
  -2  -8   1 1685.39 179.826   5
   2   8  -1 1380.29 212.039   1
  -2  -8   1 1704.06 196.618   2
  -2  -8   1 1806.76 195.452   3
  -2  -8   0 161.107 103.781  13
   2   8   0 187.396 79.4749  14
   2   8   0 102.403 59.8532  18
   2   8   0 53.2097 85.1585   1
  -2  -8   0 58.6100 56.8232   5
  -2  -8   0 113.268 64.7936   2
  -2  -8   0 192.238 85.3412   3
   2   8   1 1370.51 198.777  14
  -2  -8  -1 1026.17 157.259   3
  -2  -8  -1 1219.02 187.972  13
   2   8   1 1281.17 169.688  18
  -2  -8  -1 1531.03 145.807   5
   2   8   1 1379.03 206.800   1
  -2  -8  -1 1606.14 197.272   2
  -2  -8  -2 350.194 113.525  13
   2   8   2 378.432 115.020   1
   2   8   2 486.376 115.787  18
  -2  -8  -2 533.704 125.803   2
  -2  -8  -2 258.235 103.183   3
   2   8   3 138.681 68.6372  18
   2   8   3 114.350 109.604   1
  -2  -8  -3 73.6260 71.1368   2
  -2  -8  -3 1.95317 59.8884   3
  -2  -8  -4 2243.00 257.897   2
   2   8   4 2360.19 268.711   1
   2   8   4 1968.19 232.534  18
  -2  -8  -4 1957.01 236.493   3
  -2  -8  -5 2504.26 271.828   3
   2   8   5 2505.11 273.857   1
  -2  -8  -5 2641.55 287.986   2
   2   8   5 2929.21 293.415  18
  -2  -8  -6 3981.07 357.628   2
  -2  -8  -6 4544.19 376.325   3
   2   8   6 4328.07 375.458   8
   2   8   6 3853.70 351.494  18
  -2  -8  -6 4348.06 309.210  12
   2   8   6 3338.45 326.559   1
   2   8   7 1048.62 185.746   8
   2   8   7 1249.70 207.569   1
  -2  -8  -7 1709.19 188.497  12
   2   8   7 1325.71 177.301   6
   2   8   7 1383.76 220.095  18
  -2  -8  -7 1538.06 230.991   2
  -2  -8  -7 1402.01 215.887   3
   2   8   8 134.564 92.2086   1
   2   8   8 276.396 86.3438   6
  -2  -8  -8 125.295 111.401   2
   2   8   8 91.8057 93.9838   8
   2   8   8 311.099 128.743  18
  -2  -8  -8 213.641 118.250   3
   2   8   9-19.8984 73.7992   1
   2   8   9 65.2870 102.332  18
  -2  -8  -9-45.8905 81.5692   3
   2   8   9 104.962 118.500   8
   2   8  10 356.758 138.840  18
  -2  -8 -10 421.788 148.318   2
   2   8  10 302.918 122.860   8
  -2  -8 -10 445.165 146.969   3
  -2  -9   6-57.8019 112.597   5
   2   9  -5 234.489 118.788  14
  -2  -9   5 161.301 116.572  13
   2   9  -5 54.7098 75.5601   1
  -2  -9   5 38.1716 79.5247   5
   2   9  -4-0.28162 76.5574  14
  -2  -9   4 193.864 115.476  13
   2   9  -4 65.4766 88.0835   1
  -2  -9   4-14.3819 89.2064   5
   2   9  -3 3995.71 381.490  14
  -2  -9   3 3823.69 371.487  13
   2   9  -3 3151.04 337.122   1
  -2  -9   3 3134.40 288.658   5
   2   9  -2 225.127 114.027  14
  -2  -9   2 384.451 134.768  13
  -2  -9   2 317.614 95.0007   3
   2   9  -2 133.472 112.070   1
   2   9  -1 489.056 152.374  14
  -2  -9   1 833.475 172.212  13
   2   9  -1 489.415 129.816   1
  -2  -9   1 844.582 154.010   2
  -2  -9   1 374.812 113.104   3
  -2  -9   0-58.6511 96.4408   3
   2   9   0 29.1519 80.8493  14
  -2  -9   0-60.2203 97.8309  13
   2   9   0 73.2782 63.1321  18
   2   9   0 86.9642 97.6042   1
  -2  -9   0 62.7918 78.8353   2
  -2  -9  -1 1184.00 213.307  13
   2   9   1 1107.83 169.691  18
   2   9   1 1055.92 208.409   1
  -2  -9  -1 915.664 176.932   2
  -2  -9  -1 1382.27 202.161   3
  -2  -9  -2-60.6728 102.837  13
   2   9   2-43.1585 101.215   1
   2   9   2 60.8443 59.1508  18
  -2  -9  -2-77.9195 98.1194   2
  -2  -9  -2-38.9788 76.5893   3
  -2  -9  -3 3235.92 326.085  13
   2   9   3 3507.88 353.269   1
  -2  -9  -3 3588.89 340.598   2
  -2  -9  -3 3443.99 327.575   3
   2   9   3 3139.34 305.529  18
   2   9   4 961.402 180.620  18
   2   9   4 966.911 201.890   1
  -2  -9  -4 744.815 170.523   2
  -2  -9  -4 933.255 182.425   3
   2   9   5 2172.50 269.458  18
  -2  -9  -5 2415.22 300.032   2
  -2  -9  -5 2352.68 286.365   3
   2   9   5 2074.06 276.543   1
  -2  -9  -6 146.168 67.7715  12
   2   9   6 274.336 118.653  18
  -2  -9  -6 247.343 107.512   2
  -2  -9  -6 298.593 126.445   3
   2   9   6 211.122 96.5571   1
   2   9   7 215.140 125.938   1
   2   9   7-20.0246 92.6246  18
  -2  -9  -7 122.057 104.221   2
  -2  -9  -7 154.633 117.588   3
   2   9   7-81.3668 117.106   8
   2   9   8 8.12979 111.968   1
  -2  -9  -8-35.6203 82.4692   3
   2   9   8 39.0752 82.2840  18
  -2  -9  -8 103.225 115.317   2
   2   9   8-28.5064 84.6118   8
   2   9   9 183.134 107.074   1
   2  10  -2 2368.23 318.083   1
   2  10  -1 2645.61 336.882   1
   2  10  -1 2516.95 314.778  14
  -2 -10   1 2728.18 334.201  13
  -2 -10   0 2168.41 291.698  13
  -2 -10   0 2002.66 266.205   2
  -2 -10   0 2375.36 273.789   3
   2  10   0 2351.64 316.880   1
  -2 -10  -1 2848.46 328.434  13
  -2 -10  -1 2458.98 295.268   2
   2  10   1 2523.76 324.173   1
  -2 -10  -1 2252.67 273.226   3
   2  10   2 101.768 65.0961  18
  -2 -10  -2 185.492 117.239  13
  -2 -10  -2-14.0526 110.649   2
   2  10   2 43.4549 106.581   1
  -2 -10  -2 16.1489 72.6425   3
  -2 -10  -3 3204.60 353.949  13
   2  10   3 3943.91 407.745   1
   2  10   3 2967.50 314.621  18
  -2 -10  -3 3074.61 334.870   3
  -2 -10  -3 3097.07 348.390   2
  -2 -10  -4 1204.89 228.455  13
   2  10   4 1120.91 199.949  18
  -2 -10  -4 899.746 191.708   2
  -2 -10  -4 1207.22 221.754   3
   2  10   4 1062.94 222.788   1
   2  10   5 3255.65 370.697   1
  -2 -10  -5 3172.52 362.594   2
  -2 -10  -5 3133.41 345.723   3
   2  10   5 2718.97 324.609  18
   2  10   6-331.310 140.361   1
   2  10   6-160.365 102.901  18
  -2 -10  -6 62.1491 109.933   3
  -2 -11  -1 2414.95 307.036   3
  -2 -11  -2 1277.77 228.466   3
   2  11   4 417.238 145.246  18
  -3   8   3 1769.11 266.848  18
  -3   8   2 1925.12 271.034  18
   3  -8   0 497.566 142.982  13
  -3   7   7 1172.02 227.002   1
  -3   7   6-65.3428 120.079   1
  -3   7   6 79.1511 100.619   8
  -3   7   5 3437.82 379.047   1
  -3   7   5 2707.18 297.828  19
  -3   7   5 3169.74 362.866  18
  -3   7   5 3272.36 319.395  17
  -3   7   5 2829.59 302.775  16
  -3   7   5 2861.06 319.545   8
  -3   7   5 2637.68 290.485  21
  -3   7   4-120.139 143.119   1
  -3   7   4-44.0594 69.1749  21
  -3   7   4-24.9502 103.719  19
  -3   7   4 19.2447 76.8836  18
   3  -7  -4 100.887 99.5913   3
  -3   7   4-50.2699 83.6045  17
  -3   7   4-22.8371 91.6802  16
  -3   7   4 43.3003 65.1786   8
  -3   7   3 1887.66 241.038  21
  -3   7   3 2081.68 251.060  17
  -3   7   3 1675.92 241.759  18
  -3   7   3 1884.05 232.761  16
  -3   7   3 1883.85 244.971   8
   3  -7  -3 2030.95 288.451   3
  -3   7   3 2508.92 323.847   1
  -3   7   2 21060.8 981.560   1
  -3   7   2 19629.9 833.850  21
   3  -7  -2 22701.6 991.150   3
  -3   7   2 19592.9 876.910  18
  -3   7   2 19329.3 824.864  17
  -3   7   2 19561.3 819.632  16
   3  -7  -1 284.526 102.032  20
  -3   7   1 184.980 116.014   1
  -3   7   1 116.919 85.3137  18
  -3   7   1 66.2356 96.9950  17
  -3   7   1 170.840 94.2154  21
  -3   7   1-13.8306 60.3592  16
   3  -7  -1 174.116 111.273   3
  -3   7   0-79.5343 88.5623  21
  -3   7   0-18.0288 81.6625   1
   3  -7   0 103.167 114.828   3
  -3   7   0 13.0964 62.6257  18
  -3   7   0 147.799 97.9307  17
   3  -7   0-60.3341 100.751  20
  -3   7   0 57.3088 82.5938  16
   3  -7   1 202.768 80.6186  13
   3  -7   1 152.284 89.4650  20
  -3   7  -1-12.5881 86.4749  21
  -3   7  -1 258.719 135.012   1
  -3   7  -1 166.808 91.7277  17
  -3   7  -1 79.1371 78.8666  16
   3  -7   1 263.822 121.104   3
   3  -7   2 1674.43 255.247   3
  -3   7  -2 1613.03 261.264   1
   3  -7   2 1287.59 194.826  13
   3  -7   2 1218.04 192.334  20
  -3   7  -2 987.435 183.837  17
  -3   7  -2 925.889 181.856  16
   3  -7   3 2946.85 338.690   3
  -3   7  -3 3391.49 369.362   1
   3  -7   3 2573.87 275.249  11
  -3   7  -3 2752.94 296.539  16
   3  -7   3 2778.51 292.668  20
  -3   7  -3 2617.78 293.359  17
   3  -7   4 2181.90 289.320   3
   3  -7   4 2000.10 256.020  19
  -3   7  -4 2548.37 318.551   1
  -3   7  -4 1907.59 261.780  17
   3  -7   4 2323.15 273.341  20
  -3   7  -4 1660.46 243.649  16
   3  -7   5 73.4730 109.470   3
   3  -7   5 71.0837 55.1288  20
  -3   7  -5 87.6946 131.990   1
  -3   7  -5-78.5512 116.070  17
   3  -7   5 56.6094 79.0035  19
  -3   7  -5-14.5132 73.4576  16
   3  -7   6 833.311 191.079   3
   3  -7   6 701.002 162.728  20
  -3   7  -6 665.713 180.681   1
   3  -7   6 497.245 143.421  19
  -3   7  -6 900.268 202.120  17
  -3   7  -6 1000.31 208.311  16
  -3   6   9 283.703 115.985  21
  -3   6   9 61.1968 100.389  19
  -3   6   9 368.997 124.607  17
  -3   6   9 390.008 149.128  16
  -3   6   8 945.034 195.692  16
  -3   6   8 1085.35 212.592   8
  -3   6   8 899.613 199.875  19
  -3   6   8 692.158 168.043  21
  -3   6   8 981.537 193.696   1
  -3   6   8 816.170 176.693  17
   3  -6  -8 1041.89 210.679   3
  -3   6   7 398.377 128.557  21
  -3   6   7 376.523 109.930  16
  -3   6   7 419.224 129.088  19
  -3   6   7 183.710 100.877  18
  -3   6   7 144.264 97.3939   1
  -3   6   7 295.844 115.086  17
   3  -6  -7 413.385 147.194   3
  -3   6   7 278.566 119.654   8
  -3   6   6 718.501 162.799  19
  -3   6   6 607.870 158.484   1
  -3   6   6 663.033 173.350  18
  -3   6   6 478.271 137.632  21
  -3   6   6 818.136 167.353  17
   3  -6  -6 838.428 197.878   3
  -3   6   6 1101.29 185.997  16
  -3   6   6 484.953 140.753   8
  -3   6   5 2146.63 285.383   1
  -3   6   5 1734.72 225.213  21
  -3   6   5 1702.88 223.240  19
  -3   6   5 1620.47 247.157  18
  -3   6   5 1715.81 225.649  17
   3  -6  -5 2032.44 274.062   3
  -3   6   5 1821.54 231.324  16
  -3   6   5 1636.26 228.670   8
  -3   6   4 1180.33 209.749   1
  -3   6   4 1737.34 251.206  18
  -3   6   4 1229.69 192.605  19
  -3   6   4 882.819 165.553  17
  -3   6   4 1391.39 193.904  16
   3  -6  -4 1558.26 237.304   3
  -3   6   4 1524.23 212.320   8
  -3   6   4 1208.55 191.810  21
  -3   6   3 742.608 142.370  16
  -3   6   3 602.432 134.982  21
  -3   6   3 554.007 136.506  17
  -3   6   3 496.886 144.866  18
  -3   6   3 685.555 144.115   8
  -3   6   3 894.041 191.067   1
   3  -6  -3 713.504 173.727   3
  -3   6   2 114.050 105.963   1
  -3   6   2 304.466 104.036  10
  -3   6   2 281.706 111.570  18
  -3   6   2 250.267 100.911  17
  -3   6   2 288.898 89.8295  16
  -3   6   2 153.577 95.8634  21
  -3   6   2 246.653 95.1818   8
   3  -6  -2 183.963 105.235   3
  -3   6   1 15.6640 93.0800   1
  -3   6   1 85.9146 78.4156  21
   3  -6  -1 197.357 103.591   3
   3  -6  -1 37.7162 69.5880  20
  -3   6   1 73.6340 56.0168  10
  -3   6   1 23.4157 70.9536  18
  -3   6   1 87.9472 79.9682  17
  -3   6   1 65.1447 76.9271  16
  -3   6   0 203.874 96.3125   1
  -3   6   0 241.925 107.655  17
  -3   6   0 427.697 118.330  21
   3  -6   0 216.529 90.4586  20
  -3   6   0 229.594 88.9369  10
  -3   6   0 289.295 96.3785  18
  -3   6   0 293.215 106.348  16
   3  -6   0 356.136 123.489   3
   3  -6   1 128.819 81.6122  20
  -3   6  -1 126.727 57.0148  10
  -3   6  -1 75.1354 51.7780  18
  -3   6  -1 169.243 94.1618   1
  -3   6  -1 44.4986 69.1390  17
  -3   6  -1 60.7146 69.1314  16
   3  -6   1 119.227 104.021   3
   3  -6   2 659.837 156.308   3
   3  -6   2 504.699 121.246  13
  -3   6  -2 673.542 166.774   1
  -3   6  -2 765.784 128.605  10
  -3   6  -2 580.840 143.192  17
   3  -6   2 654.674 128.833  20
  -3   6  -2 778.251 156.265  16
  -3   6  -3 3197.59 333.774   1
   3  -6   3 2898.38 311.931   3
  -3   6  -3 3219.62 306.693  16
   3  -6   3 2748.69 256.402  13
   3  -6   3 3077.80 276.055  11
   3  -6   3 3201.99 293.706  20
   3  -6   3 3030.55 284.864  19
  -3   6  -3 2496.25 242.181  10
  -3   6  -3 2072.68 257.743  17
   3  -6   4 125.736 66.4426  11
   3  -6   4-34.0482 98.0434   3
  -3   6  -4 267.764 113.658   1
   3  -6   4-25.3348 95.6712  19
  -3   6  -4-24.0083 69.0609  10
  -3   6  -4-23.8897 66.9378  17
   3  -6   4-6.34717 59.4051  13
  -3   6  -4 53.9425 61.6218  16
   3  -6   4 19.5579 84.8378  20
   3  -6   5 817.596 182.000   3
   3  -6   5 577.999 131.251  11
   3  -6   5 846.152 174.254  19
   3  -6   5 609.476 145.381  20
  -3   6  -5 763.787 174.349   1
  -3   6  -5 519.401 117.859  10
  -3   6  -5 862.942 177.119  16
  -3   6  -5 554.134 143.336  17
   3  -6   6 1357.07 227.933   3
  -3   6  -6 1232.20 215.835   1
   3  -6   6 1097.05 197.928  19
  -3   6  -6 1075.30 174.224  10
   3  -6   6 1404.16 219.018  20
  -3   6  -6 1579.90 238.219  17
  -3   6  -6 1522.40 234.019  16
   3  -6   7 68.3150 96.0334   3
  -3   6  -7 124.665 88.3035   1
   3  -6   7 20.1223 87.2436  19
   3  -6   7 331.676 122.371  20
  -3   6  -7 343.907 136.340  16
  -3   6  -7 82.6834 91.4225  17
  -3   5  10 338.159 119.965  20
  -3   5  10 430.188 142.263  21
  -3   5  10 653.526 166.082  19
  -3   5  10 626.157 165.611  17
   3  -5 -10 376.386 140.035   3
  -3   5  10 398.187 140.485  16
  -3   5   9 1675.75 245.024  21
  -3   5   9 1757.63 255.683  19
  -3   5   9 1750.21 251.414  17
   3  -5  -9 2016.26 276.495   3
  -3   5   9 2125.19 276.583  16
  -3   5   9 1913.23 285.266   8
  -3   5   8 8.85654 81.4130   1
  -3   5   8-121.377 99.7341  19
  -3   5   8 54.6769 85.0740  17
   3  -5  -8 327.549 121.310   3
  -3   5   8 80.2325 93.2598  16
  -3   5   8 145.556 101.421  21
  -3   5   8 148.928 109.776   8
  -3   5   8 132.678 94.9917  18
  -3   5   7 1175.85 193.000   1
  -3   5   7 1143.29 192.449  21
  -3   5   7 1534.20 245.902  18
  -3   5   7 1071.71 187.892  19
  -3   5   7 1319.20 200.797  17
   3  -5  -7 1507.95 236.566   3
  -3   5   7 1373.83 207.490  16
  -3   5   7 1338.69 220.109   8
  -3   5   6 70.3922 65.5993   1
  -3   5   6 117.251 74.7527  21
  -3   5   6 192.026 115.880  18
  -3   5   6 52.2314 87.4865   8
  -3   5   6 77.2177 79.0588  17
  -3   5   6 236.726 103.839  19
   3  -5  -6 212.751 90.4087   3
  -3   5   6 138.964 88.4031  16
  -3   5   5 185.153 101.470   8
  -3   5   5 285.113 122.908  18
  -3   5   5 133.678 84.7735  17
  -3   5   5 91.4690 80.8053  19
   3  -5  -5 159.703 102.453   3
  -3   5   5 67.5794 71.8806  16
  -3   5   5 336.879 135.203   1
  -3   5   5 189.434 94.7370  21
  -3   5   4 1493.08 220.802   1
  -3   5   4 1315.12 190.535  21
  -3   5   4 1365.78 196.443  19
  -3   5   4 1288.32 187.206  17
  -3   5   4 1389.48 212.203  18
   3  -5  -4 1709.85 239.760   3
  -3   5   4 1499.58 194.340  16
  -3   5   4 1067.72 174.123   8
  -3   5   3 2449.56 270.752   1
  -3   5   3 2395.20 240.542  21
  -3   5   3 1862.55 237.673  18
   3  -5  -3 2023.91 246.578   3
  -3   5   3 1965.67 218.955  17
  -3   5   3 2353.26 233.739   8
  -3   5   3 1782.19 205.876  16
  -3   5   2 1131.46 190.681   1
  -3   5   2 922.421 155.254  21
  -3   5   2 979.476 144.946  10
  -3   5   2 1019.05 168.378  18
  -3   5   2 1067.77 169.875  17
  -3   5   2 636.176 123.938  16
   3  -5  -2 702.654 157.205   3
  -3   5   2 1161.58 160.868   8
  -3   5   1 1668.27 229.594   1
  -3   5   1 1582.27 194.769  21
   3  -5  -1 1457.01 176.368  20
  -3   5   1 1540.82 176.085  10
  -3   5   1 1053.38 165.084  18
  -3   5   1 1360.99 184.947  17
  -3   5   1 1556.81 175.563   8
  -3   5   1 1380.19 181.478  16
   3  -5  -1 1250.94 192.594   3
  -3   5   0 350.552 110.876   1
  -3   5   0 230.873 92.6368  21
  -3   5   0 353.027 93.7588  10
   3  -5   0 357.621 99.6029  20
  -3   5   0 243.627 87.0029  17
  -3   5   0 386.310 112.787  16
  -3   5   0 269.800 90.6067  18
   3  -5   0 291.820 104.877   3
  -3   5  -1 288.458 118.110   1
  -3   5  -1 368.502 91.8278  10
   3  -5   1 266.024 82.0689  20
  -3   5  -1 424.536 102.802  18
  -3   5  -1 422.985 117.554  17
  -3   5  -1 407.282 112.742  16
   3  -5   1 275.169 113.999   3
   3  -5   2 352.860 118.137   3
  -3   5  -2 290.462 107.054   1
   3  -5   2 365.779 73.7200   4
   3  -5   2 481.022 117.145  19
  -3   5  -2 408.936 100.988  10
  -3   5  -2 411.417 110.697  17
  -3   5  -2 304.510 87.0590  18
   3  -5   2 294.023 101.586  20
  -3   5  -2 495.550 122.596  16
   3  -5   3 1437.10 212.852   3
  -3   5  -3 1486.24 214.036   1
   3  -5   3 1447.40 171.063  13
   3  -5   3 1201.78 179.906  20
   3  -5   3 1291.46 185.709  19
  -3   5  -3 1164.19 137.660  18
  -3   5  -3 1316.77 165.824  10
  -3   5  -3 975.288 169.924  17
  -3   5  -3 1390.22 193.392  16
   3  -5   3 1490.95 154.965   4
   3  -5   4 429.397 131.756   3
   3  -5   4 345.703 101.928  19
  -3   5  -4 482.147 131.016   1
   3  -5   4 395.786 90.9492  13
   3  -5   4 527.284 106.663   4
   3  -5   4 637.893 125.826  11
   3  -5   4 481.868 126.022  20
  -3   5  -4 712.692 132.674  10
  -3   5  -4 575.466 136.774  17
  -3   5  -4 556.117 130.619  16
  -3   5  -5-3.84104 60.8377  10
   3  -5   5 17.5492 67.8364   3
   3  -5   5 74.4229 54.1407   4
   3  -5   5-74.4916 70.8596  13
   3  -5   5-36.8279 82.5784  19
   3  -5   5 76.6788 81.5177  20
  -3   5  -5-85.3731 102.962  17
  -3   5  -5-39.7259 71.6479   1
   3  -5   5-51.0041 55.8146  11
  -3   5  -5 62.6244 84.8861  16
   3  -5   6 1826.71 218.285   4
   3  -5   6 1797.91 242.372   3
   3  -5   6 1843.65 231.345  20
  -3   5  -6 1887.12 241.919   1
   3  -5   6 1600.12 190.350  11
  -3   5  -6 1842.83 215.633  10
  -3   5  -6 1794.89 242.058  17
  -3   5  -6 2160.44 261.833  16
   3  -5   6 1997.80 240.137  19
   3  -5   7-40.4656 98.7049   3
   3  -5   7 27.7382 61.6143  19
   3  -5   7 69.4949 67.2450  20
   3  -5   7 32.7389 62.6452  11
  -3   5  -7 4.98861 83.5025   1
  -3   5  -7 96.8375 78.5098  10
   3  -5   7-58.1293 85.1663   4
  -3   5  -7-63.9277 110.922  16
   3  -5   8 274.281 128.495  20
   3  -5   8 654.384 165.849  19
  -3   5  -8 621.609 143.163   1
  -3   5  -8 374.313 120.162  10
   3  -5   8 462.469 140.791   4
  -3   5  -8 640.443 178.094  16
   3  -5   9 19.2407 83.5193  19
   3  -5   9 86.3481 94.1565  20
  -3   5  -9-81.2670 110.736  10
   3  -5   9 81.5796 77.2423   4
  -3   5  -9 59.1000 96.7055  16
  -3   5 -10 483.683 149.420  10
   3  -4 -11 132.017 107.583   7
   3  -4 -11 355.011 146.782   3
   3  -4 -10 4347.75 422.773   7
  -3   4  10 5774.04 476.011  20
   3  -4 -10 5756.64 447.284   3
  -3   4  10 5489.44 453.294  19
  -3   4  10 5126.65 435.187  16
  -3   4  10 5071.83 466.595  18
  -3   4  10 5114.16 432.041  17
  -3   4  10 5393.54 448.508  21
  -3   4  10 5481.49 471.936   8
  -3   4   9-41.8635 95.7723  20
  -3   4   9-5.21306 99.6639  21
  -3   4   9 32.6535 85.5558  19
  -3   4   9 114.700 103.402  18
  -3   4   9 148.951 111.428  17
  -3   4   9-86.3382 114.665   8
   3  -4  -9 91.0531 100.898   3
  -3   4   9 178.118 101.428  16
  -3   4   8 7695.90 460.538   1
  -3   4   8 8156.70 515.930  21
   3  -4  -8 8986.17 534.349   3
  -3   4   8 7904.01 507.753  17
  -3   4   8 8402.11 526.441  19
  -3   4   8 9111.17 594.813  18
  -3   4   8 8145.40 510.425  16
  -3   4   8 9286.05 572.468   8
  -3   4   7 16.8518 59.5781  21
  -3   4   7 37.7090 72.5654   1
  -3   4   7-53.4898 80.5740  19
  -3   4   7 73.2120 111.130  18
  -3   4   7 19.0921 72.3731  17
   3  -4  -7 24.7478 75.9519   3
  -3   4   7-2.26781 75.8432  16
  -3   4   7 111.583 96.8133   8
  -3   4   6 1425.37 197.406   1
  -3   4   6 1372.94 192.559  21
  -3   4   6 1102.09 196.444  18
  -3   4   6 1295.96 191.169  17
  -3   4   6 1584.62 214.369  19
   3  -4  -6 1430.07 200.450   3
  -3   4   6 1172.97 175.356  16
  -3   4   6 1476.34 205.795   8
  -3   4   5 1493.63 199.201   1
  -3   4   5 1400.57 188.726  21
  -3   4   5 1609.75 225.108  18
  -3   4   5 1765.14 212.359  19
  -3   4   5 1366.81 186.120  17
   3  -4  -5 1833.28 228.645   3
  -3   4   5 1683.03 205.656  16
  -3   4   5 1704.19 203.945   8
  -3   4   4 8382.87 450.855  17
  -3   4   4 8040.30 444.666  21
  -3   4   4 7885.17 449.602  19
   3  -4  -4 7604.97 452.920   3
  -3   4   4 8287.55 489.750  18
  -3   4   4 7044.74 414.904  16
  -3   4   4 7951.10 438.906   8
  -3   4   4 8244.69 470.045   1
  -3   4   3 309.014 95.4657  21
  -3   4   3 311.879 103.955  10
  -3   4   3 499.996 118.550  18
  -3   4   3 514.292 111.684  17
   3  -4  -3 519.365 126.294   3
  -3   4   3 316.344 97.7518  16
  -3   4   3 335.972 94.4420   8
  -3   4   3 370.557 109.260   1
   3  -4  -2 560.713 109.679  20
  -3   4   2 623.878 117.343  10
  -3   4   2 490.034 113.650  21
  -3   4   2 675.374 129.863  18
  -3   4   2 605.031 121.874  17
  -3   4   2 575.946 117.967  16
   3  -4  -2 491.369 119.295   3
  -3   4   2 624.257 120.435   8
  -3   4   2 462.162 131.661   1
   3  -4  -1 34.4114 24.1566   6
   3  -4  -1 12.4247 70.9246  20
  -3   4   1 26.9842 66.4596  18
  -3   4   1-6.41477 65.4566  17
  -3   4   1 93.3614 61.3215   8
  -3   4   1 46.0884 64.5524  21
  -3   4   1 61.9133 56.9472  16
   3  -4  -1-24.4777 87.1237   3
  -3   4   1-30.2775 91.2688   1
  -3   4   1-23.1911 64.7230  10
  -3   4   0 3262.79 263.862  17
  -3   4   0 3285.61 266.160  21
   3  -4   0 2814.46 232.363  20
  -3   4   0 3094.47 236.887  10
   3  -4   0 3730.99 300.087   3
  -3   4   0 3161.75 249.121  18
  -3   4   0 2822.89 176.055   5
  -3   4   0 3319.99 261.615  16
  -3   4   0 3285.80 222.386   8
   3  -4   0 3390.80 164.145   4
  -3   4   0 3093.72 278.368   1
   3  -4   1 11770.4 504.981  20
  -3   4  -1 10853.5 472.923  10
   3  -4   1 10712.0 528.708   3
  -3   4  -1 9799.90 452.124  18
  -3   4  -1 10076.8 494.735  17
  -3   4  -1 10692.0 502.378  16
   3  -4   1 11368.9 384.215   4
  -3   4  -1 10526.9 537.543   1
   3  -4   2 3921.81 283.566  19
   3  -4   2 4030.09 284.517  20
  -3   4  -2 3634.12 259.111  10
   3  -4   2 3042.82 276.283   3
  -3   4  -2 3909.39 250.331  18
  -3   4  -2 3721.08 290.361  17
  -3   4  -2 3306.85 271.141  16
  -3   4  -2 3568.64 298.756   1
   3  -4   2 3505.00 212.186   4
   3  -4   3 250.007 103.942   3
   3  -4   3 248.180 67.3931  13
   3  -4   3 218.729 68.4396   4
   3  -4   3 15.0001 64.2575  19
  -3   4  -3 171.682 58.9074  18
  -3   4  -3 171.455 80.1195  17
  -3   4  -3 151.883 71.4204  10
  -3   4  -3 185.144 87.4624  16
   3  -4   3 110.734 83.8434  20
  -3   4  -3 185.630 81.5867   1
   3  -4   4 2314.11 203.931   4
   3  -4   4 2316.33 187.224  13
   3  -4   4 2008.86 215.577  20
   3  -4   4 2266.67 230.625  19
  -3   4  -4 2173.08 212.041  10
  -3   4  -4 2420.17 164.481  18
   3  -4   4 2294.85 243.794   3
   3  -4   4 2680.05 230.372  11
  -3   4  -4 2310.60 242.297  17
  -3   4  -4 2248.93 239.428  16
  -3   4  -4 2140.97 236.520   1
   3  -4   5 7461.88 409.295   4
  -3   4  -5 7599.00 448.796   1
  -3   4  -5 7730.89 422.985  10
   3  -4   5 7871.40 364.330  13
   3  -4   5 8420.66 467.571  19
   3  -4   5 7740.44 413.705  11
  -3   4  -5 7841.03 429.442   9
   3  -4   5 7262.05 445.789   3
  -3   4  -5 7309.66 448.879  16
   3  -4   5 7999.75 453.311  20
  -3   4  -5 7234.75 453.250  17
  -3   4  -6 909.085 154.728   1
   3  -4   6 808.188 154.654   3
   3  -4   6 987.968 126.119  13
   3  -4   6 1079.45 163.514   4
  -3   4  -6 872.104 150.694   9
  -3   4  -6 1011.11 155.725  10
   3  -4   6 1065.79 171.137  19
  -3   4  -6 866.210 163.059  16
   3  -4   6 924.888 146.642  11
   3  -4   6 947.672 169.430  20
   3  -4   7 50991.9 1517.42   4
  -3   4  -7 50321.9 1479.39   1
   3  -4   7 51682.0 1559.96  19
   3  -4   7 52667.4 1570.77  20
   3  -4   7 51644.2 1451.79  11
  -3   4  -7 50015.0 1463.25   9
  -3   4  -7 51424.3 1505.09  10
  -3   4  -7 52253.0 1592.32  16
  -3   4  -8 4619.95 362.536  10
   3  -4   8 4934.66 385.395   4
  -3   4  -8 4382.87 330.397   1
   3  -4   8 4600.00 329.270  11
   3  -4   8 4545.07 379.674  20
   3  -4   8 4385.86 374.153  19
  -3   4  -8 4094.43 323.132   9
  -3   4  -8 4616.09 391.761  16
  -3   4  -9 658.158 139.168   9
   3  -4   9 623.540 158.384   4
   3  -4   9 629.810 154.349  19
  -3   4  -9 699.289 163.502  10
   3  -4   9 821.246 148.740  11
   3  -4   9 623.945 157.618  20
  -3   4  -9 460.156 140.483  16
   3  -4  10 440.597 140.854  20
   3  -4  10 538.213 159.443   4
   3  -4  10 517.925 155.326  19
   3  -4  10 498.904 151.212  21
  -3   4 -10 372.671 123.893  10
  -3   4 -10 244.021 121.272  16
  -3   4 -11 1359.08 238.113  10
  -3   3  11 1542.84 264.455  20
   3  -3 -11 1148.27 225.782   7
  -3   3  11 1140.24 228.501  19
  -3   3  11 1503.01 259.890  18
  -3   3  11 1192.18 216.092  17
  -3   3  11 1495.17 246.153  16
  -3   3  11 1729.24 259.952  21
  -3   3  10 667.156 171.246  20
  -3   3  10 1006.51 194.941  19
  -3   3  10 575.204 157.882  21
  -3   3  10 701.241 183.192  18
  -3   3  10 880.229 168.142  17
   3  -3 -10 852.563 195.963   7
   3  -3 -10 539.692 126.042   3
  -3   3  10 930.027 185.790  16
  -3   3  10 951.503 196.583   8
   3  -3  -9 263.585 119.163   7
  -3   3   9 496.870 136.011  20
  -3   3   9 706.765 166.686  19
  -3   3   9 490.678 148.627  21
  -3   3   9 498.636 152.395  18
  -3   3   9 733.914 172.578  17
   3  -3  -9 648.940 145.002   3
  -3   3   9 575.643 155.044  16
  -3   3   9 440.560 143.318   8
  -3   3   8 14638.9 595.385   1
  -3   3   8 13136.4 655.881  21
   3  -3  -8 15203.2 664.547   3
  -3   3   8 13076.9 664.772  19
  -3   3   8 12946.6 688.248  18
  -3   3   8 13183.0 654.986  17
  -3   3   8 13499.0 656.480  16
  -3   3   8 13274.5 675.254   8
  -3   3   7 6063.25 361.961   1
  -3   3   7 5610.29 390.024  21
  -3   3   7 5921.82 408.643  19
   3  -3  -7 6294.57 397.876   3
  -3   3   7 5616.48 426.596  18
  -3   3   7 4988.34 373.326  17
  -3   3   7 5493.74 387.815  16
  -3   3   7 5603.97 399.236   8
  -3   3   6 375.841 116.458  18
  -3   3   6 129.362 78.1421  21
  -3   3   6 123.552 63.0612  17
  -3   3   6 191.472 46.2616   5
  -3   3   6 93.2914 76.0907  16
   3  -3  -6 95.4387 62.3188   3
  -3   3   6 128.068 73.0296  19
  -3   3   6 143.609 85.6059   8
  -3   3   6-18.5283 61.6450   1
  -3   3   5 72.0118 71.1728  21
  -3   3   5 19.6155 63.7158  17
  -3   3   5 211.180 90.4523  19
  -3   3   5 336.065 128.117  18
  -3   3   5 253.246 45.0239   5
   3  -3  -5 472.655 119.880   3
  -3   3   5 331.784 108.107  16
  -3   3   5 242.348 90.4020   1
  -3   3   5 236.389 93.7435   8
  -3   3   4 1041.12 175.762  18
  -3   3   4 1102.14 164.074  19
  -3   3   4 1301.85 94.6857   5
  -3   3   4 1127.12 155.100  17
  -3   3   4 1174.68 165.685  21
  -3   3   4 1143.10 156.891   1
   3  -3  -4 1187.59 163.934   3
  -3   3   4 1368.43 170.514  16
  -3   3   4 1180.11 94.8417   4
  -3   3   4 1176.49 155.370   8
  -3   3   3 113.905 61.1748  21
  -3   3   3 17.7185 24.8750   4
  -3   3   3-7.95833 26.9581   5
  -3   3   3-27.4672 48.0570  10
  -3   3   3-85.3157 96.5332  18
  -3   3   3-31.5226 61.7600  17
  -3   3   3-50.6983 79.2420   1
   3  -3  -3-28.3511 81.0735   3
  -3   3   3-16.4756 64.2562  16
  -3   3   3-52.2481 64.8488   8
  -3   3   2 405.921 55.5793   4
  -3   3   2 495.916 104.167  21
  -3   3   2 351.988 88.5319  10
  -3   3   2 594.833 125.746  18
  -3   3   2 476.522 116.886   1
  -3   3   2 418.080 93.3258  17
  -3   3   2 435.280 94.2899  16
   3  -3  -2 411.635 99.7839   3
  -3   3   2 542.622 98.2521   8
  -3   3   1 206.734 85.5967  18
  -3   3   1 167.486 77.4733  21
   3  -3  -1 314.521 47.7454   4
   3  -3  -1 307.835 79.2216  20
  -3   3   1 265.033 51.8899   4
  -3   3   1 357.919 86.2125  10
  -3   3   1 274.986 75.5704  17
  -3   3   1 325.979 93.3627   1
  -3   3   1 158.755 67.2881  16
   3  -3  -1 384.861 99.9911   3
  -3   3   1 340.517 77.6062   8
   3  -3   0 6491.21 365.211   3
   3  -3   0 6127.94 330.535  20
  -3   3   0 6111.56 326.264  10
  -3   3   0 6486.22 270.915   5
  -3   3   0 5913.86 335.166  18
  -3   3   0 5841.66 333.906  16
  -3   3   0 6687.20 359.131  17
  -3   3   0 5965.63 344.419  21
  -3   3   0 6573.83 295.213   8
   3  -3   0 6850.61 303.172   8
  -3   3   0 6351.70 373.000   1
   3  -3   0 6409.15 249.291   4
   3  -3   1 36.6686 34.6850   4
   3  -3   1-39.7837 58.0961  20
  -3   3  -1-38.7365 48.3852  10
  -3   3  -1-6.22472 30.3328   5
  -3   3  -1 48.8409 53.4075  18
  -3   3  -1 5.12551 70.5091   1
  -3   3  -1 69.7848 66.0211  16
  -3   3  -1 66.0163 64.9793  17
   3  -3   1-13.9242 36.1175   8
   3  -3   1-42.3602 75.4195   3
  -3   3  -2 7094.72 329.141  18
   3  -3   2 7010.95 366.411  19
  -3   3  -2 7006.55 351.646  10
   3  -3   2 7050.06 305.749   4
   3  -3   2 6518.30 370.267   3
  -3   3  -2 6562.91 367.634  17
   3  -3   2 6754.35 359.308  20
  -3   3  -2 6619.00 365.874  16
   3  -3   2 6139.54 264.282   8
  -3   3  -2 6319.87 374.057   1
   3  -3   3 534.701 120.577   3
   3  -3   3 598.156 85.5397  14
   3  -3   3 551.741 82.5772  13
   3  -3   3 690.002 102.382   4
   3  -3   3 603.816 118.493  20
  -3   3  -3 601.206 109.469  10
   3  -3   3 547.005 103.764  19
  -3   3  -3 770.226 101.149  18
  -3   3  -3 609.674 116.840  17
  -3   3  -3 470.638 107.892   1
  -3   3  -3 722.525 128.536  16
   3  -3   3 582.157 71.3325   8
   3  -3   4 2381.90 197.798   4
   3  -3   4 2210.87 162.844  14
   3  -3   4 2557.01 231.144  20
  -3   3  -4 2239.80 226.266  16
   3  -3   4 2412.58 167.622  13
  -3   3  -4 2182.24 202.792  10
  -3   3  -4 2465.29 159.701  18
   3  -3   4 2325.07 225.628   3
  -3   3  -4 2591.40 221.598   9
  -3   3  -4 2574.12 238.737  17
   3  -3   4 2342.60 144.168   8
   3  -3   4 2205.54 198.177  11
  -3   3  -4 2355.18 222.559   1
   3  -3   4 2235.03 213.154  19
   3  -3   5 255.607 111.449   3
   3  -3   5 32.3956 37.6702  14
   3  -3   5 84.0897 39.9883  13
   3  -3   5 69.7782 71.2225  19
  -3   3  -5-11.5504 59.2201  10
   3  -3   5 172.750 80.8532  11
   3  -3   5 46.2090 64.9164  20
  -3   3  -5 19.1658 65.3544   9
  -3   3  -5 6.61650 25.7633  18
   3  -3   5 35.9359 71.3929   4
  -3   3  -5 101.641 79.0596   1
  -3   3  -5 105.810 92.9807  16
  -3   3  -6 275.276 68.6434  14
   3  -3   6 251.371 94.3645   3
   3  -3   6 254.750 101.796  19
   3  -3   6 202.209 81.9149   4
   3  -3   6 222.074 104.027  20
   3  -3   6 327.526 91.9995  11
  -3   3  -6 332.144 92.5458  10
  -3   3  -6 252.913 88.9815   9
   3  -3   6 170.192 54.8268  13
  -3   3  -6 128.653 71.8814  16
  -3   3  -6 274.125 80.5899   1
   3  -3   7 2891.78 273.011  21
  -3   3  -7 2159.32 209.136   1
  -3   3  -7 2106.75 166.679  14
   3  -3   7 2029.65 236.656  19
   3  -3   7 2057.64 208.551  11
   3  -3   7 2367.48 253.104  20
  -3   3  -7 2060.34 242.519  16
  -3   3  -7 1743.80 207.075  10
  -3   3  -7 2090.90 217.067   9
   3  -3   7 1848.91 217.190   4
  -3   3  -8 861.519 143.978   1
   3  -3   8 970.505 162.740  21
   3  -3   8 950.818 179.320   4
   3  -3   8 986.891 180.435  19
   3  -3   8 872.261 141.194  11
   3  -3   8 749.365 154.601  20
  -3   3  -8 978.331 169.867  10
  -3   3  -8 812.303 141.170   9
  -3   3  -8 733.609 166.219  16
   3  -3   9 223.299 106.678   4
   3  -3   9 70.4580 86.3740  21
   3  -3   9 114.161 95.3359  19
   3  -3   9 41.0342 57.6738  11
   3  -3   9 111.716 108.937  20
  -3   3  -9 145.325 95.0780  10
  -3   3  -9 69.0338 79.8263   9
  -3   3  -9 119.117 101.180  16
   3  -3  10 288.655 115.681   4
  -3   3 -10 198.563 80.5850   9
  -3   3 -10 324.685 124.747  16
   3  -3  10 276.432 106.264  21
  -3   3 -10 465.524 131.813  10
   3  -3  10 275.675 111.129  20
   3  -3  10 453.667 107.461  11
   3  -3  10 577.683 153.833  19
   3  -3  11-62.1849 95.7968  19
   3  -3  11 96.1346 79.7033  11
   3  -3  11 150.900 119.868   4
  -3   3 -11 80.4190 82.0018  10
  -3   3 -11-108.648 92.4702   9
   3  -3  11 61.6147 102.834  21
  -3   3 -11-6.31264 86.1648  16
   3  -3  11 105.220 98.2788  20
   3  -2 -12-42.4509 94.0083   7
  -3   2  12 218.257 116.238  18
   3  -2 -11 1407.43 230.231   7
  -3   2  11 1590.00 249.148  21
  -3   2  11 1469.95 254.280  20
  -3   2  11 1304.90 232.449  18
  -3   2  11 1596.47 245.418  19
  -3   2  11 1828.25 267.665  17
  -3   2  11 1574.89 245.244  16
  -3   2  11 1624.63 258.795   8
   3  -2 -10 558.944 163.821   7
  -3   2  10 173.131 90.3921  21
   3  -2 -10 420.493 117.219   3
  -3   2  10 357.359 130.009  20
  -3   2  10 594.977 156.822  19
  -3   2  10 295.842 119.254  18
  -3   2  10 480.623 153.127  17
  -3   2  10 247.236 103.654  16
  -3   2  10 287.149 125.280   8
  -3   2   9 7856.09 510.758  19
   3  -2  -9 7198.58 491.019   7
  -3   2   9 8179.42 407.431   5
  -3   2   9 8621.33 537.903  20
   3  -2  -9 8247.43 452.063   3
  -3   2   9 8254.83 512.099  21
  -3   2   9 7957.70 513.869  18
  -3   2   9 7873.68 502.504  17
  -3   2   9 8076.10 507.535  16
  -3   2   9 8125.17 523.918   8
   3  -2  -8 2006.99 257.744   7
   3  -2  -8 1882.06 202.423   3
  -3   2   8 1915.25 246.275  18
  -3   2   8 2070.62 248.528  19
  -3   2   8 1983.12 182.268   5
  -3   2   8 2094.62 244.522  17
  -3   2   8 2258.84 194.763   1
  -3   2   8 1594.90 214.302  16
  -3   2   8 2309.32 256.164  21
  -3   2   8 2028.64 243.971   8
  -3   2   7 2505.85 259.945  17
  -3   2   7 2417.27 263.147  18
   3  -2  -7 2527.18 228.996   3
  -3   2   7 2622.77 193.894   5
  -3   2   7 2395.83 252.406  21
  -3   2   7 2805.59 276.140  19
  -3   2   7 2726.23 263.490  16
  -3   2   7 2769.22 262.037   8
  -3   2   7 2663.11 219.488   1
  -3   2   6 0.17587 75.8914  19
  -3   2   6 21.9347 67.6785  18
  -3   2   6-0.34170 69.8632  17
  -3   2   6 4.44049 35.0365   5
  -3   2   6 123.285 69.0505   1
   3  -2  -6-1.56796 63.9133   3
  -3   2   6-54.8228 70.3065  16
  -3   2   6 38.4391 69.5954  21
  -3   2   6-49.0366 92.1861   8
  -3   2   5 1903.06 202.058  21
  -3   2   5 1796.70 192.019  16
   3  -2  -5 1886.33 92.1598  12
   3  -2  -5 2274.03 204.422   3
  -3   2   5 2057.36 215.393  19
  -3   2   5 1891.52 215.507  18
  -3   2   5 2107.90 150.663   5
  -3   2   5 1919.45 204.969  17
  -3   2   5 1909.01 148.995   4
  -3   2   5 1942.88 185.800   1
  -3   2   5 1779.35 188.704   8
  -3   2   4 4287.35 297.351  21
   3  -2  -4 4234.39 185.558  12
  -3   2   4 4096.30 291.927  19
   3  -2  -4 4635.70 288.112   3
  -3   2   4 4377.00 315.541  18
  -3   2   4 4441.80 211.983   5
  -3   2   4 4340.16 293.352  17
  -3   2   4 4507.47 297.745  16
  -3   2   4 4177.60 278.396   8
  -3   2   4 4985.38 228.384   4
  -3   2   3 6195.77 344.638  21
  -3   2   3 5942.97 361.988  18
  -3   2   3 5990.65 330.353  10
  -3   2   3 6108.58 245.194   5
  -3   2   3 5779.81 331.713  17
   3  -2  -3 5677.58 320.648   3
  -3   2   3 6461.94 344.178  16
  -3   2   3 5927.10 313.706   8
  -3   2   3 6030.07 247.597   4
  -3   2   2 7964.09 370.729  10
  -3   2   2 7718.59 378.791  21
   3  -2  -2 7630.07 371.004   3
  -3   2   2 7580.71 374.489  17
  -3   2   2 7793.02 373.753  16
  -3   2   2 7603.33 338.819   8
  -3   2   2 7316.04 272.955   4
  -3   2   1 11232.8 463.696  21
   3  -2  -1 11529.7 449.311  20
   3  -2  -1 10489.4 290.801   6
   3  -2  -1 10472.7 453.072   3
  -3   2   1 11333.4 465.002  17
  -3   2   1 11506.1 450.521  10
  -3   2   1 11058.9 455.536  16
  -3   2   1 10581.0 393.559   8
   3  -2  -1 11383.9 352.915   4
  -3   2   1 11249.8 360.800   4
   3  -2   0 207.220 47.5564   4
   3  -2   0 223.285 72.6152  20
  -3   2   0 250.903 71.0760  10
  -3   2   0 268.816 78.8823  17
  -3   2   0 256.451 54.4100   4
  -3   2   0 147.468 63.6042  16
  -3   2   0 191.734 45.8576   8
   3  -2   0 236.866 88.0795   3
  -3   2  -1 1200.92 115.145   4
   3  -2   1 1365.32 120.994  14
   3  -2   1 1257.23 137.342  20
   3  -2   1 1195.20 137.011  19
  -3   2  -1 1100.63 131.971  10
  -3   2  -1 1420.74 156.237  17
  -3   2  -1 1479.71 153.732  16
  -3   2  -1 1444.50 103.876   8
   3  -2   1 1172.55 105.624   4
   3  -2   1 1292.40 149.429   3
   3  -2   2 4140.83 206.500  14
  -3   2  -2 4623.95 261.653  10
   3  -2   2 4230.05 258.972  20
   3  -2   2 4426.23 278.998   3
   3  -2   2 4382.51 263.106  19
  -3   2  -2 4357.70 265.790   9
  -3   2  -2 3766.38 256.662  17
  -3   2  -2 4378.03 272.263  16
   3  -2   2 3942.58 169.325   8
   3  -2   2 4472.11 228.631   4
   3  -2   3 1219.58 101.794  14
   3  -2   3 1110.61 148.628   3
   3  -2   3 1306.21 102.320  13
   3  -2   3 1211.82 142.807  20
  -3   2  -3 1136.62 134.012  10
   3  -2   3 1327.69 131.987   4
  -3   2  -3 1553.12 159.599   9
  -3   2  -3 1280.08 152.496  17
   3  -2   3 1410.39 154.834  19
   3  -2   3 1350.72 143.426  11
   3  -2   3 1096.08 78.9891   8
  -3   2  -3 1137.26 145.704  16
   3  -2   4 10758.3 437.634   4
   3  -2   4 10758.1 344.437  14
   3  -2   4 10520.9 459.533  20
   3  -2   4 10194.2 334.769  13
  -3   2  -4 9829.77 435.588  10
   3  -2   4 9854.77 448.173  19
   3  -2   4 10500.4 436.106  11
  -3   2  -4 9976.34 440.259   9
  -3   2  -4 9987.71 460.783  16
   3  -2   4 9728.56 299.784   8
   3  -2   4 10244.1 464.373   3
   3  -2   5 4396.52 284.080   4
  -3   2  -5 4364.97 197.731  14
   3  -2   5 3617.68 186.296  14
   3  -2   5 4218.48 194.913  13
   3  -2   5 4290.86 290.925  20
   3  -2   5 4185.03 287.450  19
  -3   2  -5 4753.75 295.795  10
   3  -2   5 4005.21 261.151  11
   3  -2   5 4201.04 290.163   3
  -3   2  -5 4852.72 292.137   9
  -3   2  -5 4060.66 291.485  16
   3  -2   5 3997.55 173.945   8
  -3   2  -5 4119.23 271.235   1
   3  -2   5 4331.57 228.417  15
   3  -2   6 3055.76 255.451   4
  -3   2  -6 3392.39 177.705  14
   3  -2   6 3268.63 265.577  21
   3  -2   6 3633.08 277.827  20
   3  -2   6 2828.03 228.242  11
   3  -2   6 3429.07 269.987  19
  -3   2  -6 2988.70 248.138  10
  -3   2  -6 2967.65 132.630  18
  -3   2  -6 2881.95 232.311   9
  -3   2  -6 3075.09 266.587  16
  -3   2  -6 3072.98 233.790   1
   3  -2   6 2924.58 176.130  15
  -3   2  -7 795.817 87.4149  14
   3  -2   7 802.850 145.562   4
   3  -2   7 617.288 112.039  11
   3  -2   7 657.733 128.576  20
   3  -2   7 698.781 139.916  19
  -3   2  -7 567.575 125.475  10
   3  -2   7 1038.70 162.338  21
  -3   2  -7 688.627 122.015   9
  -3   2  -7 690.498 119.943   1
  -3   2  -7 650.917 125.651  16
  -3   2  -8 186.532 77.1104   1
  -3   2  -8 178.940 53.7075  14
   3  -2   8 81.4182 69.0638  21
   3  -2   8 195.286 85.4162  19
   3  -2   8 49.9800 72.8061   4
   3  -2   8 184.337 95.2558  20
  -3   2  -8 178.672 77.5707   9
  -3   2  -8 130.296 74.4796  10
   3  -2   8 206.570 92.5207  11
  -3   2  -8 153.905 100.836  16
  -3   2  -9 227.843 90.0357   9
   3  -2   9 128.634 81.5688  20
  -3   2  -9 79.8639 55.3688   1
   3  -2   9-17.9285 85.1568  21
   3  -2   9 25.5081 62.6297  11
  -3   2  -9 63.7939 87.6921  10
   3  -2   9-38.3586 101.148   4
   3  -2   9 193.824 93.4534  19
  -3   2  -9 29.1485 65.3114  16
   3  -2  10 43.8765 89.0083  21
   3  -2  10 121.911 88.8645  19
   3  -2  10 27.1333 57.6136  11
   3  -2  10 186.329 115.892   4
  -3   2 -10 101.700 90.6109  10
   3  -2  10 63.5119 93.8176  20
  -3   2 -10-16.0762 67.3919   9
  -3   2 -10 12.0313 62.6504  16
  -3   2 -11 1804.95 219.177   9
   3  -2  11 2145.84 278.809  20
   3  -2  11 1780.08 222.481  11
   3  -2  11 2184.97 269.139  19
   3  -2  11 1923.73 271.597   4
  -3   2 -11 1947.92 257.963  10
   3  -2  11 1937.52 267.871  21
  -3   2 -11 1703.79 260.125  16
   3  -2  12-47.1562 83.5424  21
   3  -2  12-53.4508 110.310  20
   3  -2  12 0.29169 98.9520  19
  -3   2 -12-81.7055 100.759  10
  -3   2 -12-13.3017 92.7586   9
   3  -2  12-127.590 141.486   4
  -3   2 -12 5.20912 64.1182  16
   3  -2  12-352.933 116.465  11
   3  -1 -13 400.244 126.150   7
   3  -1 -12-9.41392 119.708   7
  -3   1  12 212.103 114.194  18
   3  -1 -11-32.0974 74.8334  15
  -3   1  11-69.2100 130.555  20
  -3   1  11-9.22216 77.1131  21
  -3   1  11-62.0899 117.889  19
  -3   1  11 98.7625 96.7711  18
  -3   1  11 286.057 135.312  17
  -3   1  11-44.5433 100.237  16
   3  -1 -11-81.4643 83.9732   7
  -3   1  11-111.845 121.505   8
  -3   1  11-135.976 101.543   5
   3  -1 -10 2063.87 249.558  15
  -3   1  10 2366.35 282.194  21
  -3   1  10 2096.54 275.426  20
  -3   1  10 2234.91 276.177  19
  -3   1  10 2240.21 229.291   5
  -3   1  10 1739.04 237.431  18
  -3   1  10 2276.25 278.314  17
  -3   1  10 2405.25 279.538  16
   3  -1 -10 2121.02 264.506   7
   3  -1  -9 769.875 161.957   7
  -3   1   9 866.279 174.124  21
  -3   1   9 735.141 171.647  20
  -3   1   9 543.424 142.215  19
  -3   1   9 623.316 138.983  18
  -3   1   9 876.398 176.862  17
  -3   1   9 622.119 125.480   5
   3  -1  -9 612.641 118.304   3
  -3   1   9 820.231 166.671  16
   3  -1  -8 12604.2 628.254   7
  -3   1   8 12952.1 643.005  19
  -3   1   8 13214.4 639.681  21
  -3   1   8 13874.9 662.907  20
   3  -1  -8 13948.6 552.860   3
  -3   1   8 13521.4 554.997   5
  -3   1   8 13746.2 648.370  18
  -3   1   8 13589.7 648.005  17
  -3   1   8 13739.3 647.774  16
  -3   1   8 13961.2 492.307   1
   3  -1  -7 4332.35 336.772   7
  -3   1   7 3903.41 311.289  21
  -3   1   7 4107.72 321.517  18
   3  -1  -7 4541.71 278.998   3
  -3   1   7 4702.94 282.073   5
  -3   1   7 3734.60 309.945  19
  -3   1   7 4390.35 330.801  17
  -3   1   7 4228.93 321.253  16
  -3   1   7 4232.59 249.404   1
   3  -1  -6-55.4374 97.9358   7
  -3   1   6 14.9309 19.9857   6
  -3   1   6-61.5452 82.0642  21
  -3   1   6 25.3502 79.9884  19
  -3   1   6 42.5815 78.1890  18
  -3   1   6 32.0793 68.7364  17
  -3   1   6-11.9856 45.2338   5
   3  -1  -6 33.9068 43.8532   3
  -3   1   6 88.5844 84.7848  16
   3  -1  -5 1287.81 140.696   3
  -3   1   5 1340.08 165.163  17
  -3   1   5 1283.47 70.6281   6
  -3   1   5 1392.13 175.578  19
  -3   1   5 1366.88 130.529   5
  -3   1   5 918.282 161.871  18
  -3   1   5 1429.36 168.268  16
  -3   1   5 1326.05 171.777  21
  -3   1   4 718.229 94.2109   4
   3  -1  -4 624.741 58.2720  12
  -3   1   4 497.574 107.533  21
  -3   1   4 572.350 120.288  19
  -3   1   4 497.805 107.744  17
  -3   1   4 525.393 75.6562   5
   3  -1  -4 550.903 95.9309   3
  -3   1   4 539.087 102.367  16
  -3   1   3 145.155 42.2295   4
   3  -1  -3 82.8837 33.3277  12
  -3   1   3 41.4152 56.8845  19
  -3   1   3 159.019 64.8185  17
  -3   1   3 109.709 59.8145  10
  -3   1   3 95.8873 41.5387   5
   3  -1  -3 115.393 55.9132   3
  -3   1   3 121.396 64.3256  21
  -3   1   3 130.061 67.2187  16
   3  -1  -2 32809.4 837.902  12
  -3   1   2 34114.6 943.771  10
   3  -1  -2 33281.3 917.433   3
  -3   1   2 31843.2 942.956  17
  -3   1   2 32439.5 949.441  21
  -3   1   2 33121.8 945.648  16
  -3   1   2 34130.5 896.760   8
  -3   1   2 35547.7 856.617   4
  -3   1   1 67044.5 1652.76  17
  -3   1   1 69279.4 1642.56  10
  -3   1   1 68396.7 1662.74  21
   3  -1  -1 68231.9 1628.91   3
   3  -1  -1 67144.9 1629.24  20
   3  -1  -1 66967.6 1437.80   6
  -3   1   1 66288.6 1644.49  16
   3  -1  -1 68724.8 1541.83   4
  -3   1   1 70228.8 1564.26   8
  -3   1   1 72148.3 1552.52   4
   3  -1   0 37.5420 38.9031   4
  -3   1   0 6.25166 34.6621   4
   3  -1   0-21.9187 59.3123  20
  -3   1   0-32.8961 67.4346  21
   3  -1   0-19.7929 32.4845   6
  -3   1   0-66.7564 59.8750  10
  -3   1   0 45.9121 60.3928  17
  -3   1   0-14.7658 58.9027  16
  -3   1   0 10.0877 27.3967   8
   3  -1   0 11.0791 63.1227   3
   3  -1   1 162.478 79.0361   3
  -3   1  -1 34.5125 41.9334   4
   3  -1   1 14.3169 38.6364   4
   3  -1   1-9.58386 55.1576  19
   3  -1   1 80.8570 44.2814   6
  -3   1  -1 11.3603 56.9803  10
  -3   1  -1-20.8339 61.3178   9
  -3   1  -1 41.8865 54.6746  17
   3  -1   1 53.3687 56.2711  20
  -3   1  -1 4.33305 59.5667  16
  -3   1  -1 49.2331 26.4828   8
   3  -1   2 253.214 89.7803   3
   3  -1   2 293.991 49.4121  14
  -3   1  -2 274.505 66.5004   4
   3  -1   2 255.516 59.3635   4
   3  -1   2 229.138 74.1585  19
  -3   1  -2 308.644 79.9008  10
   3  -1   2 197.076 69.2005  20
  -3   1  -2 246.810 77.4488   9
  -3   1  -2 184.284 64.0873  17
  -3   1  -2 272.737 81.9242  16
   3  -1   3 2704.93 186.862   4
   3  -1   3 2799.22 124.296  14
   3  -1   3 2951.38 124.808  13
   3  -1   3 3069.27 202.826  11
   3  -1   3 2976.31 207.236  20
   3  -1   3 2949.39 206.117  19
  -3   1  -3 2638.91 197.190  10
   3  -1   3 2641.79 207.493   3
  -3   1  -3 3260.69 215.140   9
  -3   1  -3 3395.34 226.558  17
  -3   1  -3 2727.12 204.773  16
   3  -1   4 2013.63 173.194   4
   3  -1   4 1749.23 90.7903  14
   3  -1   4 1854.85 169.905  19
   3  -1   4 1799.85 91.1071  13
   3  -1   4 1715.64 157.293  11
   3  -1   4 1754.62 166.567  20
   3  -1   4 1797.35 172.841   3
  -3   1  -4 1698.25 160.125   9
  -3   1  -4 1912.90 177.220  16
   3  -1   4 1597.48 70.6084   8
  -3   1  -4 1601.38 156.895  10
   3  -1   4 1580.11 130.390   7
   3  -1   5 43713.0 1093.50   7
   3  -1   5 44606.9 1222.24   4
  -3   1  -5 46083.9 1005.90  14
   3  -1   5 46882.3 1236.87  19
   3  -1   5 44720.5 1191.84  11
   3  -1   5 45875.7 1231.72  20
  -3   1  -5 45422.7 1054.76  18
  -3   1  -5 43897.5 1199.16   9
   3  -1   5 43927.1 1219.60  21
  -3   1  -5 46738.5 1253.43  16
   3  -1   5 44500.5 1060.69  15
  -3   1  -5 44931.7 1218.15  10
   3  -1   6 8.57034 19.1757  15
  -3   1  -6 10.0008 19.5692  14
   3  -1   6-70.0309 34.8976   7
   3  -1   6-31.5719 50.1153  21
   3  -1   6-44.1956 57.2734  11
  -3   1  -6-45.3667 56.2537  10
   3  -1   6-0.27575 61.7825  19
  -3   1  -6 38.7947 24.9175  18
   3  -1   6-75.0286 69.0003   4
   3  -1   6 12.8171 52.0821  20
  -3   1  -6-4.55445 60.0328   9
  -3   1  -6 6.01607 58.4254  16
   3  -1   7 4532.17 322.134   4
   3  -1   7 4548.85 219.863   7
  -3   1  -7 4981.23 206.086  14
   3  -1   7 5360.16 336.460  21
   3  -1   7 5134.64 329.740  19
   3  -1   7 4624.71 292.730  11
  -3   1  -7 4543.21 324.219  16
  -3   1  -7 4669.42 314.292  10
  -3   1  -7 4538.30 186.521  18
  -3   1  -7 4718.60 300.023   9
   3  -1   7 4898.60 326.295  20
   3  -1   7 4331.54 158.344  15
   3  -1   8 663.069 129.676  21
  -3   1  -8 666.433 78.6365  14
   3  -1   8 866.740 148.041  20
   3  -1   8 573.679 112.850  11
   3  -1   8 667.403 139.235  19
  -3   1  -8 783.476 152.915  10
   3  -1   8 602.821 139.152   4
  -3   1  -8 745.944 105.484   1
  -3   1  -8 682.453 129.880   9
  -3   1  -8 809.438 148.130  16
  -3   1  -9 982.697 162.967  10
  -3   1  -9 890.623 102.397  14
  -3   1  -9 740.376 152.493  16
   3  -1   9 880.104 156.354  21
   3  -1   9 726.523 144.528  20
   3  -1   9 657.299 145.874   4
   3  -1   9 843.726 163.502  19
  -3   1  -9 547.663 116.087   9
   3  -1   9 897.046 146.818  11
  -3   1  -9 511.571 87.7261   1
   3  -1  10 245.810 95.0165  11
   3  -1  10 404.646 113.623  21
   3  -1  10 406.540 132.476   4
  -3   1 -10 303.689 121.823  10
   3  -1  10 265.949 108.622  19
   3  -1  10 224.884 107.032  20
  -3   1 -10 271.714 105.391   9
  -3   1 -10 372.982 123.643  16
   3  -1  11 1360.76 215.617  21
   3  -1  11 1019.59 201.297   4
   3  -1  11 1345.94 210.781  20
   3  -1  11 1165.02 176.490  11
  -3   1 -11 1343.99 206.084  10
  -3   1 -11 1268.70 186.825   9
   3  -1  11 1365.66 215.268  19
  -3   1 -11 818.793 184.353  16
   3  -1  12 433.300 130.698  21
   3  -1  12 357.240 144.665   4
   3  -1  12 142.847 122.390  20
   3  -1  12 327.123 124.541  19
  -3   1 -12-40.0993 85.2332  10
   3  -1  12 264.105 96.5804  11
  -3   1 -12 257.075 101.253   9
  -3   1 -12 244.818 116.589  16
   3  -1  13 19.7439 115.274  11
  -3   1 -13 229.968 92.0236   9
   3   0 -13-6.39496 80.4053   7
  -3   0  13 143.913 99.4123   5
   3   0 -12 176.237 104.487   7
  -3   0  12 116.671 92.0594  18
  -3   0  12 220.923 102.285   5
   3   0 -11 117.151 99.2641  15
   3   0 -11 4.10562 88.7701   7
  -3   0  11 0.27784 93.6553  21
  -3   0  11 148.251 117.762  20
  -3   0  11 1.13193 98.7787  19
  -3   0  11 29.7525 89.4643  17
  -3   0  11-29.5261 65.4912   5
  -3   0  11-28.5811 85.5482  16
  -3   0  11-18.4097 88.2319  18
   3   0 -10 6856.90 465.407   7
  -3   0  10 7460.45 518.728  20
  -3   0  10 7870.22 524.073  19
  -3   0  10 7839.45 520.637  21
  -3   0  10 7813.56 463.681   5
  -3   0  10 8525.24 536.127  16
  -3   0  10 7050.92 458.735  18
  -3   0  10 7183.23 495.786  17
   3   0 -10 6448.88 432.755  15
   3   0  -9 132.712 89.9543  15
  -3   0   9 149.134 102.586  21
   3   0  -9 98.6662 92.1333   7
  -3   0   9 219.527 95.6721  18
  -3   0   9 300.994 107.930  19
  -3   0   9 198.485 95.1063   5
   3   0  -9 261.996 65.0666   3
  -3   0   9 218.180 105.785  20
  -3   0   9 246.312 94.6123  16
  -3   0   9 131.507 82.1483  17
   3   0  -8 386.343 120.392  15
  -3   0   8 483.966 136.962  21
  -3   0   8 469.689 124.841  20
  -3   0   8 316.338 106.816  19
  -3   0   8 344.697 106.471  18
  -3   0   8 193.397 93.8629  17
  -3   0   8 370.946 97.0166   5
  -3   0   8 399.564 118.147  16
   3   0  -8 578.420 94.0061   3
   3   0  -8 380.840 125.341   7
   3   0  -7 10091.1 515.703   7
  -3   0   7 9540.15 504.980  21
  -3   0   7 10778.1 543.205  20
   3   0  -7 10709.8 413.829   3
  -3   0   7 10460.0 533.018  19
  -3   0   7 10710.1 518.695  18
  -3   0   7 9795.75 509.049  17
  -3   0   7 11276.3 540.091  16
  -3   0   7 10099.4 462.576   5
   3   0  -6 3784.77 296.049   7
  -3   0   6 4314.42 305.393  21
   3   0  -6 4050.95 226.492   3
  -3   0   6 3977.91 297.131  19
  -3   0   6 3529.48 245.480   5
  -3   0   6 4002.42 291.885  17
  -3   0   6 4325.41 301.505  16
   3   0  -5 1972.57 147.622   3
  -3   0   5 1612.74 142.458   2
   3   0  -5 1714.03 193.091   7
  -3   0   5 1805.62 188.688  19
  -3   0   5 1886.86 165.934   5
  -3   0   5 1751.27 187.744  17
  -3   0   5 1964.82 192.818  21
  -3   0   5 1755.85 184.435  16
   3   0  -4 28657.6 901.948   7
  -3   0   4 30069.1 719.159   6
  -3   0   4 29697.6 900.090  21
  -3   0   4 30000.8 828.336   5
  -3   0   4 29251.7 795.172   3
  -3   0   4 30166.5 828.311   2
  -3   0   4 29870.3 910.282  19
   3   0  -4 29382.6 792.256   3
  -3   0   4 29680.1 899.086  17
  -3   0   4 29015.0 886.852  16
  -3   0   3 38.3995 40.2440   4
   3   0  -3 14.5219 25.7572  12
  -3   0   3-17.0130 71.1667  21
  -3   0   3 11.2681 19.3626   6
  -3   0   3 9.46819 67.5816  19
  -3   0   3 20.9338 32.9760   3
  -3   0   3 6.54180 59.8024  17
  -3   0   3 55.4277 42.3557   5
  -3   0   3-24.9557 55.1790  16
   3   0  -3-24.5883 49.1607   3
   3   0  -2 2018.91 142.455   3
   3   0  -2 1963.19 122.983  12
  -3   0   2 1854.31 93.9973   6
  -3   0   2 1831.89 166.029  21
  -3   0   2 1875.54 138.638   3
  -3   0   2 1601.30 154.475  10
   3   0  -2 1915.99 154.586   9
  -3   0   2 1766.05 132.796   5
  -3   0   2 2018.20 168.711  17
  -3   0   2 1959.65 166.033  16
  -3   0   2 1985.52 140.542   4
  -3   0   1 42062.0 1036.29  20
  -3   0   1 39814.3 1044.99  21
   3   0  -1 38965.4 897.077   6
   3   0  -1 39698.2 1022.60  20
  -3   0   1 40131.8 903.299   6
   3   0  -1 42232.0 1045.78  10
  -3   0   1 38832.4 1031.86  10
  -3   0   1 40017.3 1002.04   3
   3   0  -1 39557.0 994.659   3
   3   0  -1 41410.7 1034.62   9
  -3   0   1 39712.5 1040.35  17
   3   0  -1 41328.4 1054.32  17
   3   0  -1 39223.0 973.119  12
  -3   0   1 38986.2 1033.02  16
   3   0  -1 42076.5 1053.03  16
  -3   0   1 41607.1 992.614   4
   3   0   0 30812.5 807.716   9
   3   0   0 29367.9 776.759  12
  -3   0   0 27998.4 804.874  21
   3   0   0 30629.8 810.902  10
  -3   0   0 30839.9 804.858  20
  -3   0   0 29381.8 713.152   6
  -3   0   0 31512.9 812.007  19
  -3   0   0 28391.6 797.022  10
   3   0   0 29524.4 792.334  20
   3   0   0 28654.6 783.837   3
   3   0   0 30858.7 823.691  17
  -3   0   0 27974.9 796.522  16
   3   0   0 30256.6 816.300  16
  -3   0   0 30334.4 792.673   3
   3   0   0 28909.7 707.097   6
   3   0   0 29081.0 760.966   4
  -3   0   0 30916.8 772.532   4
  -3   0   0 29632.9 801.859   9
  -3   0   0 29411.0 809.239  17
  -3   0  -1 26495.4 746.710   9
   3   0   1 25655.5 681.849   6
  -3   0  -1 28371.9 752.281  20
   3   0   1 26604.0 737.642  20
  -3   0  -1 28315.4 752.227  19
  -3   0  -1 25336.4 737.675  10
   3   0   1 28424.6 759.090  10
   3   0   1 26278.4 746.537   3
  -3   0  -1 25931.7 748.283  17
   3   0   1 28693.7 773.467  17
  -3   0  -1 26318.4 746.746  16
   3   0   1 28292.1 765.468  16
  -3   0  -1 27941.9 753.257   3
   3   0   1 25733.3 710.402   4
   3   0   1 28733.5 757.871   9
  -3   0  -1 28991.1 734.005   4
  -3   0  -2 20316.3 594.512   4
   3   0   2 21178.2 613.775  10
   3   0   2 19040.7 588.093  11
   3   0   2 19045.7 587.640  20
  -3   0  -2 21036.6 605.311  20
   3   0   2 19277.0 563.619   6
   3   0   2 19429.2 593.244  19
  -3   0  -2 21011.5 605.438  19
  -3   0  -2 19245.4 595.323  10
  -3   0  -2 20767.5 613.747   3
   3   0   2 18655.5 601.881   3
  -3   0  -2 19407.7 597.027   9
  -3   0  -2 19729.3 606.528  17
   3   0   2 21937.1 616.902   9
  -3   0  -2 19692.9 602.987  16
   3   0   2 20620.6 616.778  16
   3   0   2 19095.6 576.322   4
  -3   0  -3 941.005 110.687   4
   3   0   3 816.259 121.502   3
   3   0   3 979.748 111.666  11
   3   0   3 859.773 109.596  20
   3   0   3 957.887 110.023  19
   3   0   3 900.409 107.261   6
  -3   0  -3 973.372 116.922   9
  -3   0  -3 868.358 110.573  10
  -3   0  -3 848.435 110.902  17
   3   0   3 860.870 108.352   4
  -3   0  -3 901.854 113.233  16
   3   0   4-42.1176 54.8475  19
   3   0   4-10.4106 21.1031   7
   3   0   4-16.4631 54.2180   4
   3   0   4-4.91227 69.3578   6
  -3   0  -4-6.82119 56.1745  10
   3   0   4-40.2596 50.5279  20
  -3   0  -4-1.87899 57.8970   9
  -3   0  -4-10.7683 51.9086  16
   3   0   4 64.3936 61.0702  11
   3   0   5 29813.0 674.305   7
   3   0   5 28455.9 845.467   4
   3   0   5 29483.7 838.839  19
   3   0   5 28829.1 835.605  20
   3   0   5 28910.4 834.360  21
   3   0   5 28604.2 821.645  11
  -3   0  -5 29253.5 846.948  10
  -3   0  -5 29171.5 730.013  18
  -3   0  -5 28125.1 823.677   9
  -3   0  -5 30000.2 855.905  16
   3   0   5 29792.0 648.363   8
   3   0   6-51.4336 63.3477  21
   3   0   6 8.88085 54.1001  20
  -3   0  -6 22.2126 17.7462  14
   3   0   6 15.3413 57.9915   4
   3   0   6 2.26110 19.8942   7
  -3   0  -6-0.45012 13.7848  13
   3   0   6 21.4457 50.1950  19
  -3   0  -6 50.5406 68.0668  10
   3   0   6-15.2983 49.5929  11
  -3   0  -6 8.25236 28.2077  18
  -3   0  -6-22.6013 56.9460   9
  -3   0  -6-31.5989 55.8509  16
   3   0   6 14.6465 30.9282   8
  -3   0  -7 546.920 60.6468  14
   3   0   7 479.350 104.749  21
   3   0   7 530.132 56.1011   7
   3   0   7 430.675 100.438   4
   3   0   7 485.051 109.283  20
   3   0   7 369.893 90.2676  11
  -3   0  -7 486.197 58.2813  13
  -3   0  -7 585.689 73.1747  18
  -3   0  -7 429.989 101.802  10
  -3   0  -7 466.855 96.5748   9
  -3   0  -7 659.730 123.918  16
   3   0   7 506.268 110.669  19
   3   0   7 639.016 77.4571   8
   3   0   8 15314.0 649.703   4
   3   0   8 14559.6 429.348   7
  -3   0  -8 17114.9 475.575  14
  -3   0  -8 14152.9 450.206  13
   3   0   8 15450.5 630.238  21
   3   0   8 15756.9 640.823  20
   3   0   8 15635.6 607.605  11
   3   0   8 15782.5 639.159  19
  -3   0  -8 16031.6 643.529  10
  -3   0  -8 14641.0 472.847  18
  -3   0  -8 15670.5 609.625   9
  -3   0  -8 16352.0 658.141  16
   3   0   8 15690.2 506.028   8
   3   0   9 2690.59 267.585   4
  -3   0  -9 2764.31 173.151  14
   3   0   9 2676.65 251.861  21
   3   0   9 2409.06 243.297  20
   3   0   9 2293.33 223.261  11
   3   0   9 2421.88 245.610  19
  -3   0  -9 2661.25 259.238  10
  -3   0  -9 2645.40 239.188   9
  -3   0  -9 2540.95 255.296  16
   3   0   9 2237.52 179.494   8
  -3   0 -10 68.1844 41.9935  14
   3   0  10 204.854 97.6758  21
   3   0  10 250.014 117.121  20
   3   0  10 45.4383 85.8318   4
   3   0  10 112.123 68.3309  19
  -3   0 -10 127.331 94.5980  10
  -3   0 -10 195.324 81.7955   9
   3   0  10 61.8103 69.0954  11
  -3   0 -10 159.076 99.4089  16
   3   0  10 76.6557 56.1035   8
   3   0  11 7319.66 497.715   4
   3   0  11 8054.64 495.362  21
  -3   0 -11 7254.87 448.690   9
   3   0  11 7065.60 473.546  20
   3   0  11 6719.34 433.709  11
   3   0  11 7535.03 505.280   6
   3   0  11 7725.50 490.334  19
  -3   0 -11 7898.49 497.412  10
  -3   0 -11 7908.34 507.314  16
   3   0  11 6641.34 372.315   8
   3   0  12 2.50576 76.4289  21
   3   0  12 52.8294 77.0564  20
   3   0  12 66.4478 81.2872  11
   3   0  12-56.6011 85.1871  19
   3   0  12-17.5296 105.527   6
   3   0  12-38.3921 83.8458   4
  -3   0 -12-24.1064 72.0808  10
  -3   0 -12 17.1664 77.8555   9
  -3   0 -12 23.8470 96.6307  16
   3   0  13 144.203 109.737  21
   3   0  13 274.190 126.127   4
   3   0  13 361.258 139.802  20
   3   0  13 444.729 131.093  11
   3   0  13 227.712 125.163  19
  -3   0 -13 303.793 125.627  10
  -3   0 -13 88.0542 84.7560   9
   3   0  13 207.422 98.2246   6
  -3   0 -13 215.011 105.412  16
   3   0  14 172.220 76.5488  11
  -3   0 -14 119.553 95.5971   9
   3   1 -13 3322.40 356.415   7
   3   1 -12-39.6751 130.826  14
   3   1 -12 65.6960 89.7494   7
  -3  -1  12 18.1079 85.4756   5
   3   1 -11-3.39584 74.6732  15
   3   1 -11 209.596 127.378  14
   3   1 -11 194.020 99.8711   7
  -3  -1  11 4.26567 82.0803  18
  -3  -1  11 105.175 119.664  20
  -3  -1  11-87.0903 113.329  19
  -3  -1  11 169.540 88.9398   5
  -3  -1  11-162.552 113.496  17
  -3  -1  11 179.204 105.435  21
   3   1 -10 1439.86 195.329  15
   3   1 -10 1270.68 193.506   7
  -3  -1  10 850.777 192.235  20
  -3  -1  10 1602.28 236.032  17
  -3  -1  10 1046.62 196.495  19
  -3  -1  10 1264.47 188.305  18
  -3  -1  10 1045.16 179.897   5
  -3  -1  10 1135.33 200.198  21
  -3  -1  10 1061.85 188.393  16
   3   1  -9 348.550 105.581  15
   3   1  -9 158.327 91.4009   7
  -3  -1   9 278.635 127.085  19
  -3  -1   9 338.344 128.179  21
  -3  -1   9 329.768 120.441  20
  -3  -1   9 222.122 108.261  17
  -3  -1   9 500.749 127.838   5
  -3  -1   9 246.243 83.9880  18
  -3  -1   9 370.296 130.893  16
   3   1  -8 766.869 147.476  15
   3   1  -8 951.817 156.624   7
  -3  -1   8 886.419 171.180  20
  -3  -1   8 704.063 153.783  19
  -3  -1   8 626.598 125.518  18
  -3  -1   8 846.159 162.072  17
  -3  -1   8 655.764 133.372   5
  -3  -1   8 997.593 170.917  21
   3   1  -8 843.606 94.2933   3
  -3  -1   8 810.375 152.027  16
   3   1  -7 1480.80 185.384  15
  -3  -1   7 1607.34 182.515   5
  -3  -1   7 1298.73 111.120   2
  -3  -1   7 1502.78 102.141  12
  -3  -1   7 1777.15 208.697  21
   3   1  -7 1304.60 174.890   7
  -3  -1   7 2045.42 227.941  20
   3   1  -7 1794.12 130.092   3
  -3  -1   7 1414.23 192.420  19
  -3  -1   7 1427.16 174.672  18
  -3  -1   7 1826.36 212.334  17
  -3  -1   7 1391.12 188.340  16
  -3  -1   6 3536.00 277.509  19
   3   1  -6 3477.35 271.424   7
  -3  -1   6 3892.51 284.954  21
  -3  -1   6 3622.94 166.380  12
  -3  -1   6 3272.75 180.545   2
   3   1  -6 3636.68 180.805   3
  -3  -1   6 3181.33 241.827   5
  -3  -1   6 3541.85 271.103  17
  -3  -1   6 3296.28 270.237  20
  -3  -1   6 3627.22 275.454  16
   3   1  -6 3646.51 269.212  15
   3   1  -5 52.1337 78.8238  15
  -3  -1   5 18.0309 63.5747  19
   3   1  -5 2.58885 74.3486   7
  -3  -1   5 12.8729 25.3021  12
  -3  -1   5 120.780 77.3261  21
  -3  -1   5 11.6057 59.9412  17
  -3  -1   5-17.3588 28.6626   2
  -3  -1   5 64.3710 54.0115   5
   3   1  -5 5.86285 28.3377   3
  -3  -1   5 56.6969 67.2151  16
   3   1  -4 30904.2 935.189   7
   3   1  -4 31655.8 768.584   3
  -3  -1   4 32417.9 783.221  12
  -3  -1   4 31816.2 929.126  21
  -3  -1   4 30901.8 931.751  19
  -3  -1   4 32008.1 819.276   2
   3   1  -4 30584.8 928.113  15
  -3  -1   4 30636.1 889.056   5
  -3  -1   4 31955.8 928.072  17
  -3  -1   4 32728.0 929.116  16
   3   1  -3-8.52055 71.8004   7
  -3  -1   3 41.9934 38.9772  12
   3   1  -3-11.6967 87.0744  15
  -3  -1   3-9.98560 57.9808  21
  -3  -1   3 8.71632 32.7138   6
  -3  -1   3 89.4848 63.2813  19
  -3  -1   3 56.5821 30.5664   3
  -3  -1   3 29.2969 59.2614  17
  -3  -1   3 42.0782 49.7991   5
  -3  -1   3 17.5698 61.4141  16
   3   1  -3 34.1865 32.2967   3
  -3  -1   2 520.180 80.7182   4
   3   1  -2 657.026 116.434   7
   3   1  -2 530.631 67.9020  12
   3   1  -2 614.416 92.3107  21
  -3  -1   2 532.897 81.0231  20
  -3  -1   2 625.859 71.2026   6
  -3  -1   2 621.093 97.1740  10
  -3  -1   2 600.854 98.9172  19
  -3  -1   2 615.099 98.1829  17
   3   1  -2 645.838 81.6059   9
   3   1  -2 637.189 95.1362  17
  -3  -1   2 618.093 78.1001  12
  -3  -1   2 593.587 62.2542   3
  -3  -1   2 551.738 88.6157  21
   3   1  -2 614.047 90.1504  10
  -3  -1   2 599.397 87.2617   5
  -3  -1   2 561.054 91.4484  16
   3   1  -2 578.887 85.9598  16
   3   1  -2 626.183 67.6337   3
   3   1  -1 579.499 69.0709   3
   3   1  -1 549.814 66.2459   6
  -3  -1   1 637.410 80.8710   4
  -3  -1   1 524.047 86.4451  21
   3   1  -1 564.138 69.1623  12
  -3  -1   1 555.581 67.8748   3
  -3  -1   1 618.572 91.6317  10
   3   1  -1 507.233 77.0711  10
   3   1  -1 707.246 93.4515  21
  -3  -1   1 567.189 84.0490  17
   3   1  -1 609.182 75.5431   9
   3   1  -1 523.108 82.0103  17
   3   1  -1 606.631 95.9367   7
  -3  -1   1 614.905 85.0945  20
  -3  -1   1 501.834 75.8259  12
  -3  -1   1 476.563 77.6273  16
   3   1  -1 623.878 87.3245  16
  -3  -1   1 614.600 67.9217   6
   3   1   0 2413.35 135.153   6
   3   1   0 2569.33 161.958   7
  -3  -1   0 2597.36 159.470  12
   3   1   0 2693.46 164.114  10
   3   1   0 2581.96 156.370  20
  -3  -1   0 2776.97 145.773   6
  -3  -1   0 2303.60 154.556  10
  -3  -1   0 2652.84 145.871   3
  -3  -1   0 2747.78 158.495  20
   3   1   0 2521.13 146.215   3
  -3  -1   0 2857.07 160.869   9
  -3  -1   0 2566.56 162.819  17
   3   1   0 2777.34 156.422   9
   3   1   0 2647.93 165.311  17
   3   1   0 2577.74 155.711  12
  -3  -1   0 2455.84 158.519  16
   3   1   0 2642.81 162.171  16
  -3  -1   0 2555.92 163.640  21
   3   1   0 2407.78 155.737   4
  -3  -1   0 2394.83 155.444   4
   3   1   1 108.788 48.7552  20
  -3  -1  -1 186.129 54.7000   3
   3   1   1 125.437 43.7873   4
   3   1   1 108.184 34.8004  14
  -3  -1  -1 86.6348 36.6185   4
   3   1   1 134.407 57.4383   3
  -3  -1  -1 196.497 49.2146  19
   3   1   1 133.340 51.6031  12
   3   1   1 105.112 48.4290  11
  -3  -1  -1 156.671 52.7493  20
   3   1   1 177.397 46.3547   6
  -3  -1  -1 161.444 41.3644   6
  -3  -1  -1 206.427 60.5190  10
   3   1   1 127.221 41.0323  10
   3   1   1 108.694 46.8581   7
  -3  -1  -1 191.508 54.3348   9
  -3  -1  -1 58.5782 44.9494  17
   3   1   1 103.471 45.7598  17
   3   1   1 154.958 42.5224   9
   3   1   1 164.744 37.1293  13
  -3  -1  -1 115.811 48.5082  16
   3   1   1 147.496 49.0255  16
   3   1   2 78986.4 1661.91  14
   3   1   2 77881.9 1725.73   7
   3   1   2 79833.9 1662.82  13
   3   1   2 81316.5 1828.05  12
   3   1   2 77190.7 1789.52  11
   3   1   2 77642.0 1778.18  20
   3   1   2 80406.1 1792.00   6
  -3  -1  -2 83615.5 1807.80   6
   3   1   2 77495.5 1777.75  19
  -3  -1  -2 79232.4 1800.30  10
   3   1   2 82481.6 1813.36  10
  -3  -1  -2 82470.4 1816.56   3
  -3  -1  -2 83635.3 1793.85  20
  -3  -1  -2 80612.8 1802.01   9
  -3  -1  -2 75261.2 1791.56  17
   3   1   2 85812.5 1815.56   9
  -3  -1  -2 83043.4 1791.54  19
  -3  -1  -2 77102.8 1788.57  16
   3   1   2 82335.6 1803.95  16
   3   1   2 75864.7 1795.39   4
   3   1   2 77147.6 1762.02  15
  -3  -1  -2 85340.5 1822.65   4
  -3  -1  -3 27904.8 744.143   4
  -3  -1  -3 25413.1 717.073  10
  -3  -1  -3 26957.9 724.589  11
  -3  -1  -3 26448.0 710.072  21
   3   1   3 26157.3 739.493  12
   3   1   3 24704.4 715.038  11
   3   1   3 24722.5 696.484  20
  -3  -1  -3 26813.5 712.519  20
   3   1   3 25914.7 723.082   6
   3   1   3 25203.1 699.468  19
  -3  -1  -3 27624.7 715.910  19
   3   1   3 27198.7 731.154  10
  -3  -1  -3 26575.3 740.192   3
  -3  -1  -3 26013.9 719.942   9
   3   1   3 27638.4 738.820   9
  -3  -1  -3 24567.6 703.442  16
   3   1   3 27463.5 728.362  16
  -3  -1  -3 25313.2 574.706   8
   3   1   3 24841.2 718.931   4
   3   1   3 25444.7 645.123  15
   3   1   4 7784.01 340.378   4
   3   1   4 7970.88 323.212  21
  -3  -1  -4 8537.70 332.944  21
   3   1   4 8054.29 337.099  11
   3   1   4 8071.65 324.257  20
  -3  -1  -4 8196.14 329.690  20
   3   1   4 8003.73 345.490   6
  -3  -1  -4 8212.56 338.054   9
   3   1   4 7911.83 322.773  19
  -3  -1  -4 8484.29 333.018  19
  -3  -1  -4 8338.40 341.815  10
  -3  -1  -4 8626.94 315.318  18
  -3  -1  -4 7960.95 330.761  16
   3   1   4 7811.76 227.165   8
   3   1   4 8430.69 243.998  15
   3   1   4 7037.04 202.531   7
   3   1   5 19.0442 11.2525  15
   3   1   5 32.7168 49.6364  20
   3   1   5 43.5581 46.3007  11
   3   1   5 93.5972 60.6970   4
   3   1   5 23.7036 46.1780  19
   3   1   5 64.4158 67.6645   6
  -3  -1  -5 118.159 41.5262  18
  -3  -1  -5 31.3318 51.6068  10
  -3  -1  -5 50.0888 63.9592   9
   3   1   5 86.2239 54.1209  21
  -3  -1  -5 31.9872 50.7851  16
   3   1   5 15.0436 23.6311   8
   3   1   6 1958.55 184.314   4
   3   1   6 1776.25 164.050  20
   3   1   6 1831.58 168.135  11
   3   1   6 2053.81 190.412   6
   3   1   6 1912.83 169.053  21
   3   1   6 2162.99 177.885  19
  -3  -1  -6 1666.67 165.346  10
  -3  -1  -6 1847.25 143.264  18
  -3  -1  -6 1780.92 170.778   9
  -3  -1  -6 1881.93 171.623  16
   3   1   6 2002.69 126.226   8
   3   1   7 45.6101 67.4932   6
   3   1   7 110.820 74.8422  11
   3   1   7 86.6915 52.7293  20
   3   1   7-13.9086 67.0800  21
   3   1   7 13.5020 57.7146  19
   3   1   7 33.0053 64.1861   4
  -3  -1  -7 77.9980 43.3338  18
  -3  -1  -7 74.2845 71.7696  10
  -3  -1  -7 148.883 66.7254   9
  -3  -1  -7-66.4952 68.2061  16
   3   1   7 61.0921 40.4329   8
   3   1   8 5334.52 347.142   4
   3   1   8 5823.83 343.709  20
   3   1   8 5175.68 324.290  11
   3   1   8 5708.09 363.026   6
   3   1   8 5635.07 337.982  19
  -3  -1  -8 5280.91 338.604  10
  -3  -1  -8 5532.65 334.167   9
  -3  -1  -8 5623.91 346.061  16
   3   1   8 5782.54 340.173  21
   3   1   8 5787.67 280.113   8
   3   1   9 9821.00 508.773   4
  -3  -1  -9 9164.99 369.519  14
   3   1   9 10724.2 510.175  20
  -3  -1  -9 8078.74 350.578  13
   3   1   9 10029.2 488.324  21
   3   1   9 9619.68 474.046  11
   3   1   9 9702.05 508.569   6
   3   1   9 8601.03 463.347  19
  -3  -1  -9 9753.92 495.553  10
  -3  -1  -9 9680.98 482.150   9
   3   1   9 10588.3 422.250   8
   3   1  10 558.542 133.336  20
  -3  -1 -10 639.246 98.3925  14
   3   1  10 609.012 144.513   4
   3   1  10 726.695 137.843  21
   3   1  10 725.453 151.370   6
   3   1  10 559.953 125.219  11
   3   1  10 545.633 133.109  19
  -3  -1 -10 587.285 133.910  10
  -3  -1 -10 373.329 109.363   9
   3   1  10 610.794 110.453   8
   3   1  11 1068.14 195.499   6
  -3  -1 -11 1055.73 133.823  14
   3   1  11 1141.02 179.044  21
   3   1  11 1298.03 206.902   4
   3   1  11 1081.08 182.944  20
   3   1  11 1171.34 186.597  11
   3   1  11 1189.27 187.071  19
  -3  -1 -11 1045.49 180.868  10
  -3  -1 -11 1160.91 176.062   9
   3   1  11 943.370 142.225   8
   3   1  12 188.811 85.0862  21
   3   1  12 29.8072 87.2308  20
   3   1  12 230.100 98.1277  11
   3   1  12 362.772 126.411  19
   3   1  12 92.4308 100.473   6
  -3  -1 -12 223.304 122.507  10
   3   1  12 105.746 94.9354   4
  -3  -1 -12 230.289 104.358   9
   3   1  12 354.008 94.5750   8
   3   1  13 1298.27 223.748  21
   3   1  13 2114.33 288.131   4
   3   1  13 2129.75 263.591  11
   3   1  13 2003.93 277.055  20
   3   1  13 2150.01 281.526  19
   3   1  13 2011.49 284.149   6
  -3  -1 -13 1849.71 265.990  10
  -3  -1 -13 1958.87 251.815   9
   3   1  14 1711.21 250.657  11
   3   1  14 1817.69 282.679   6
  -3  -1 -14 1412.70 227.268   9
   3   2 -13 158.679 92.5192   7
  -3  -2  12-39.1733 99.7297   5
   3   2 -12 64.8931 65.9982   7
   3   2 -11 122.791 113.515  14
  -3  -2  11 104.626 90.0260  21
   3   2 -11 128.883 85.8349   7
  -3  -2  11 47.9196 77.5294  20
  -3  -2  11 96.4771 68.5995  19
  -3  -2  11 116.608 85.3757  17
  -3  -2  11 70.4484 85.1259   5
   3   2 -10 585.722 122.356  15
   3   2 -10 841.373 183.157  14
   3   2 -10 528.015 140.633   7
  -3  -2  10 669.962 164.523  19
  -3  -2  10 921.963 180.146  21
  -3  -2  10 867.353 181.238  20
  -3  -2  10 784.048 139.668  18
  -3  -2  10 1103.60 202.932  17
  -3  -2  10 890.500 179.445   5
   3   2  -9-9.22994 65.6035  15
   3   2  -9-98.0501 113.120  14
   3   2  -9-29.4711 73.0234   7
  -3  -2   9 49.3756 73.6733   5
  -3  -2   9-2.90850 87.5310  21
  -3  -2   9 6.10877 89.1813  20
  -3  -2   9 12.7329 75.1802  19
  -3  -2   9 7.36126 57.5434  18
  -3  -2   9-19.0855 106.316  17
   3   2  -8 213.490 86.6241  15
   3   2  -8 257.910 120.093  14
   3   2  -8 200.968 96.2118   7
  -3  -2   8 100.652 45.9000  12
  -3  -2   8 199.061 93.6383  21
  -3  -2   8 191.486 96.7388  19
  -3  -2   8 358.654 106.253  17
  -3  -2   8 48.2323 66.2261  18
  -3  -2   8 237.274 93.0751   5
  -3  -2   8 177.708 99.0349  20
  -3  -2   8 65.5853 82.2809  16
   3   2  -7 1542.10 179.107  15
   3   2  -7 1587.19 206.491  14
   3   2  -7 1291.48 165.853   7
  -3  -2   7 1905.41 209.752   5
  -3  -2   7 1687.66 195.783  21
   3   2  -7 1560.63 91.1593   3
  -3  -2   7 1416.00 188.221  19
  -3  -2   7 1511.76 190.125  16
  -3  -2   7 1724.32 198.666  17
  -3  -2   7 1312.68 115.452   1
  -3  -2   7 1416.06 193.435  20
  -3  -2   6 530.967 116.235  21
   3   2  -6 514.005 105.533  15
  -3  -2   6 372.794 69.9470   1
   3   2  -6 553.570 121.488  14
   3   2  -6 520.625 116.501   7
  -3  -2   6 494.652 75.6846  12
  -3  -2   6 652.332 130.861  20
  -3  -2   6 606.947 118.037  17
   3   2  -6 488.288 44.8557   3
  -3  -2   6 459.561 118.694  19
   3   2  -6 482.615 79.1696  11
  -3  -2   6 475.374 49.1848   2
  -3  -2   6 552.884 115.322   5
  -3  -2   6 399.452 102.944  16
   3   2  -5 6969.77 371.128   7
  -3  -2   5 6310.09 354.273  19
   3   2  -5 6517.89 369.728  14
   3   2  -5 6182.61 269.257  11
  -3  -2   5 6553.38 353.451  21
  -3  -2   5 6676.74 231.228   2
  -3  -2   5 7082.45 286.115  12
   3   2  -5 6380.75 183.595   3
  -3  -2   5 7163.32 367.526   5
  -3  -2   5 6869.43 362.277  17
  -3  -2   5 6675.33 358.253  16
  -3  -2   5 6722.23 369.947  20
   3   2  -5 6387.89 347.697  15
   3   2  -4 6392.83 338.009   7
   3   2  -4 6103.19 334.154  14
  -3  -2   4 6822.69 335.243  21
  -3  -2   4 6499.81 270.059  12
  -3  -2   4 6300.91 333.561  20
  -3  -2   4 6795.91 340.025  19
   3   2  -4 6027.77 163.908   3
  -3  -2   4 6233.96 325.909   5
  -3  -2   4 6371.06 325.307  17
  -3  -2   4 6650.77 330.122  16
   3   2  -4 6000.36 327.607  15
   3   2  -3 14669.6 531.852   7
   3   2  -3 14773.2 530.736  14
  -3  -2   3 14936.6 485.130   6
   3   2  -3 13984.8 337.923   3
  -3  -2   3 14748.5 517.336  19
  -3  -2   3 15200.6 517.233  21
  -3  -2   3 14425.9 515.813   5
   3   2  -3 14951.6 433.800   9
  -3  -2   3 15229.5 520.053  17
  -3  -2   3 15010.9 462.856  12
  -3  -2   3 15312.7 518.833  16
   3   2  -3 15065.1 533.955  15
  -3  -2   2 16.8696 47.0555  21
   3   2  -2-9.63746 86.5466  15
  -3  -2   2 32.8317 48.4414  12
   3   2  -2 76.5150 63.3245  14
   3   2  -2 101.658 67.4433   7
   3   2  -2 164.194 64.9380  21
   3   2  -2 58.3414 45.0134  10
  -3  -2   2 72.5745 40.2382   6
   3   2  -2 110.020 55.6737  13
  -3  -2   2 86.0622 58.0638  19
  -3  -2   2 90.4950 56.9158  17
   3   2  -2 48.2023 43.5226  17
   3   2  -2 28.3019 33.1663   9
  -3  -2   2 101.374 22.0756   3
  -3  -2   2 41.4889 62.5090   5
  -3  -2   2 37.8144 49.0841  16
   3   2  -2 70.6753 46.7388  16
   3   2  -1 10024.9 375.739   7
  -3  -2   1 10858.3 395.172   7
   3   2  -1 9918.88 366.560  14
   3   2  -1 10800.6 377.651  13
  -3  -2   1 9966.17 356.408  21
   3   2  -1 10600.7 366.347  21
  -3  -2   1 10380.7 359.654  12
  -3  -2   1 9694.28 359.426  19
   3   2  -1 9942.77 350.293   6
  -3  -2   1 10525.8 359.791   6
  -3  -2   1 10622.5 356.333  20
   3   2  -1 10741.9 362.838  10
  -3  -2   1 9920.32 286.023   3
  -3  -2   1 9585.81 372.726   5
  -3  -2   1 9920.57 356.992  17
   3   2  -1 10797.2 367.579  17
   3   2  -1 10768.7 319.147   9
  -3  -2   1 9459.23 348.588  10
  -3  -2   1 10088.2 354.250  16
   3   2  -1 10555.5 362.534  16
  -3  -2   1 10122.3 380.121   4
   3   2  -1 9461.50 382.037  15
   3   2   0 1478.86 119.261   7
  -3  -2   0 1801.11 133.269   7
   3   2   0 1563.21 116.060  14
   3   2   0 1610.38 124.831  12
   3   2   0 1579.25 117.419  13
   3   2   0 1586.84 117.728  21
  -3  -2   0 1647.95 120.112  21
   3   2   0 1485.87 120.603   6
   3   2   0 1463.66 100.731  11
  -3  -2   0 1591.96 109.137  20
   3   2   0 1774.32 122.090  10
  -3  -2   0 1542.93 116.995  10
  -3  -2   0 1471.26 102.467   9
  -3  -2   0 1608.19 101.468   3
   3   2   0 1720.63 118.780  17
   3   2   0 1753.01 107.929   9
  -3  -2   0 1635.37 122.550   6
  -3  -2   0 1563.96 118.114  17
  -3  -2   0 1537.77 113.322  16
   3   2   0 1666.66 116.207  16
  -3  -2   0 1633.03 130.746  12
   3   2   0 1411.18 124.675   4
  -3  -2   0 1594.66 131.415   4
   3   2   0 1370.02 124.946  15
  -3  -2   0 1561.88 135.271  15
  -3  -2  -1 604.614 72.5217   7
   3   2   1 458.411 71.6742  15
  -3  -2  -1 707.066 86.3939  15
   3   2   1 599.841 87.2506   4
  -3  -2  -1 489.850 72.1967   6
   3   2   1 475.843 62.0005  14
   3   2   1 593.119 66.4994  20
  -3  -2  -1 533.240 65.0685  14
  -3  -2  -1 580.181 80.8981   4
   3   2   1 535.005 67.9780   7
  -3  -2  -1 513.440 65.7941  13
  -3  -2  -1 575.034 87.0711  12
   3   2   1 470.037 62.6959  11
  -3  -2  -1 565.672 63.6352  20
  -3  -2  -1 543.290 68.2106  21
  -3  -2  -1 551.144 63.1456  19
   3   2   1 575.821 79.8671   6
  -3  -2  -1 470.395 65.6654  10
   3   2   1 583.826 69.7014  10
   3   2   1 601.824 64.5267  13
  -3  -2  -1 542.848 66.4866  17
   3   2   1 600.813 69.9650  17
  -3  -2  -1 482.787 65.0040   9
   3   2   1 602.005 68.9434   9
   3   2   1 550.724 79.3705  12
  -3  -2  -1 625.433 71.1841  16
   3   2   1 503.042 62.8705  16
   3   2   2 17231.8 448.066   7
   3   2   2 16514.3 441.922  14
  -3  -2  -2 16526.9 450.879   7
  -3  -2  -2 17338.8 446.464  14
   3   2   2 16671.2 514.700   6
  -3  -2  -2 17799.7 449.579  13
  -3  -2  -2 17376.3 470.829  20
   3   2   2 18780.8 541.768  12
  -3  -2  -2 16737.2 525.328  12
  -3  -2  -2 17457.4 500.610  11
   3   2   2 16850.2 464.438  20
  -3  -2  -2 18188.1 529.117   6
   3   2   2 16545.9 464.559  19
  -3  -2  -2 17268.1 469.639  19
  -3  -2  -2 16031.5 484.111  10
   3   2   2 17693.9 499.587  10
  -3  -2  -2 15904.9 470.859  17
  -3  -2  -2 16405.0 490.354   9
   3   2   2 17692.6 509.413   9
  -3  -2  -2 16424.9 472.051  16
   3   2   2 17370.4 479.033  16
  -3  -2  -2 17172.1 456.653   8
   3   2   2 16033.8 491.408  11
   3   2   2 16780.9 515.152   4
  -3  -2  -2 17525.4 524.698   4
   3   2   2 16785.6 488.425  15
  -3  -2  -2 17350.0 497.750  15
  -3  -2  -3 10754.1 390.994   4
   3   2   3 11126.8 284.427   7
   3   2   3 10374.6 297.621  14
  -3  -2  -3 10436.1 296.848  14
  -3  -2  -3 10425.5 288.478   7
  -3  -2  -3 10704.7 298.756  13
  -3  -2  -3 10851.3 346.058  21
   3   2   3 10233.6 340.046  19
  -3  -2  -3 11329.1 402.308   6
   3   2   3 11584.5 405.264  12
  -3  -2  -3 10773.3 395.455  12
   3   2   3 10411.2 389.597   6
   3   2   3 10287.0 340.028  20
   3   2   3 10242.9 374.421  11
  -3  -2  -3 11026.0 349.044  20
  -3  -2  -3 10971.4 347.556  19
  -3  -2  -3 10273.9 362.048  10
   3   2   3 10705.6 369.651  10
  -3  -2  -3 10781.1 384.687  18
  -3  -2  -3 10501.8 375.754   9
   3   2   3 10955.8 385.148   9
  -3  -2  -3 10325.6 373.492  11
  -3  -2  -3 9984.65 344.816  16
   3   2   3 11025.0 356.365  16
  -3  -2  -3 11103.5 324.601   8
   3   2   3 10473.0 384.775   4
   3   2   3 10302.5 331.634  15
  -3  -2  -3 10838.5 341.073  15
  -3  -2  -4 26770.7 749.098   4
  -3  -2  -4 25571.7 602.611  14
   3   2   4 25879.2 737.396  12
   3   2   4 24789.6 735.391   6
   3   2   4 25002.6 719.721  11
   3   2   4 24851.2 675.868  21
   3   2   4 24925.2 676.151  20
  -3  -2  -4 25783.0 687.869  20
  -3  -2  -4 25304.5 680.442  21
  -3  -2  -4 26447.9 690.046  19
  -3  -2  -4 24944.0 705.201  10
   3   2   4 26550.8 719.873  10
  -3  -2  -4 26946.2 728.804  18
  -3  -2  -4 25567.6 727.947   9
  -3  -2  -4 23655.1 679.564  16
   3   2   4 24796.5 638.945   8
  -3  -2  -4 26688.8 645.651   8
   3   2   4 25778.8 621.718  15
  -3  -2  -4 23804.8 620.293  15
   3   2   4 24359.0 724.986   4
   3   2   4 25064.8 677.966  19
   3   2   5 1163.44 133.593   6
   3   2   5 933.286 107.634  20
  -3  -2  -5 1129.03 82.0042  14
  -3  -2  -5 1139.44 112.127  21
   3   2   5 810.225 99.5286  21
  -3  -2  -5 944.118 104.716  20
  -3  -2  -5 1315.56 120.677  19
   3   2   5 1015.38 109.417  19
   3   2   5 1199.42 130.999   4
  -3  -2  -5 1095.97 116.034  18
  -3  -2  -5 1017.53 118.742  10
  -3  -2  -5 1168.81 111.710  17
  -3  -2  -5 1034.65 112.990  16
  -3  -2  -5 1033.03 126.024   9
   3   2   5 963.573 123.436  11
   3   2   5 1035.54 95.1393   8
   3   2   5 1103.73 71.2900  15
  -3  -2  -5 1127.02 75.4695  15
   3   2   6 1322.30 131.787  20
   3   2   6 1206.71 126.909  21
   3   2   6 1288.11 147.814   4
   3   2   6 1155.96 122.435  19
   3   2   6 1073.40 132.041  11
   3   2   6 1009.79 135.809   6
   3   2   6 1326.33 128.707  18
  -3  -2  -6 1102.73 129.910  10
  -3  -2  -6 1234.82 137.885   9
  -3  -2  -6 1209.65 132.416  16
   3   2   6 1224.09 110.758   8
   3   2   7 2047.29 191.206   4
  -3  -2  -7 2073.72 148.750   1
   3   2   7 2107.82 179.698  21
   3   2   7 2100.52 179.819  20
   3   2   7 2139.28 200.002   6
   3   2   7 2281.37 186.086  19
  -3  -2  -7 2038.98 189.163  10
   3   2   7 2155.49 175.156  18
   3   2   7 1911.87 185.207  11
   3   2   7 2180.54 161.330   8
  -3  -2  -7 2693.24 215.739   9
   3   2   8 1404.91 159.162  21
   3   2   8 1365.64 158.031  20
   3   2   8 1289.64 162.173  11
   3   2   8 1502.20 165.446  19
   3   2   8 1264.70 169.704   6
  -3  -2  -8 1159.62 109.305   1
  -3  -2  -8 1303.23 160.374  10
   3   2   8 1503.84 173.490   4
  -3  -2  -8 1109.16 154.975   9
   3   2   8 1340.08 139.461   8
   3   2   8 1201.94 133.318  18
   3   2   9 3679.81 293.506   4
   3   2   9 4055.26 287.673  21
   3   2   9 3861.09 284.140  20
   3   2   9 3368.94 282.755   6
   3   2   9 3722.44 286.052  11
   3   2   9 3865.74 283.795  19
  -3  -2  -9 3550.22 287.926  10
   3   2   9 4231.88 265.441  18
  -3  -2  -9 4128.80 301.543   9
   3   2   9 3838.87 252.912   8
  -3  -2  -9 3330.90 180.339   1
   3   2  10 8800.46 499.781   4
   3   2  10 9056.12 478.581  21
   3   2  10 9742.54 499.892  20
   3   2  10 9613.87 519.706   6
   3   2  10 9856.66 505.422  11
   3   2  10 9354.13 485.174  19
  -3  -2 -10 9317.91 504.722  10
   3   2  10 10060.0 444.894  18
  -3  -2 -10 8747.21 486.302   9
   3   2  10 9212.39 440.732   8
   3   2  11-28.7266 83.7815  21
   3   2  11 89.0166 67.8246  11
   3   2  11 131.084 77.2339  18
   3   2  11 182.095 114.000   4
   3   2  11-49.5582 108.194  20
   3   2  11 90.6018 83.4699  19
  -3  -2 -11 170.919 87.9871  10
   3   2  11 29.8628 72.5208   6
  -3  -2 -11 98.4467 83.4338   9
   3   2  11-72.0245 76.6126   8
   3   2  12 205.161 106.522   4
   3   2  12 58.2003 83.6764  11
   3   2  12 77.7084 82.7811  19
   3   2  12 183.487 77.7847  21
   3   2  12 210.181 115.672  20
  -3  -2 -12 164.195 71.5283   2
   3   2  12 183.930 99.5161   6
   3   2  12 76.1902 62.7062  18
  -3  -2 -12 177.903 95.9787  10
  -3  -2 -12 132.144 91.5042   9
   3   2  12 148.182 74.5661   8
   3   2  13-21.7669 66.7111  21
   3   2  13 4.08687 97.3185   4
   3   2  13-76.9767 94.0009  19
   3   2  13 2.29212 64.9961  20
   3   2  13-129.012 114.894  11
   3   2  13 109.215 89.8001   6
  -3  -2 -13 61.8977 94.2415  10
  -3  -2 -13-8.09962 88.5572   9
   3   2  13 47.0546 52.3857   8
   3   2  14 336.314 161.198   4
   3   2  14 447.019 132.994  11
   3   2  14 248.306 135.500   6
   3   2  14 353.376 136.274  19
   3   2  14 117.437 93.9926  20
  -3  -2 -14 291.317 124.206   9
   3   2  14 301.636 113.868  21
   3   3 -12-12.2042 67.6355   7
   3   3 -11-33.4089 103.165  14
   3   3 -11 73.6106 66.0313   7
  -3  -3  11 29.2124 98.8435  21
  -3  -3  11-125.442 115.267  20
  -3  -3  11 3.46531 84.4732  19
  -3  -3  11 83.3714 76.4413  17
  -3  -3  11 98.5538 116.005   5
   3   3 -10 86.9094 55.0441  15
   3   3 -10 50.0046 96.8882  14
   3   3 -10 103.176 70.1577   7
  -3  -3  10-3.47070 98.5212  20
  -3  -3  10 83.0164 98.2244  19
  -3  -3  10-82.2528 96.7964  17
  -3  -3  10 226.813 114.172   5
  -3  -3  10-20.5791 99.9924  21
   3   3  -9 97.9103 64.9915  15
   3   3  -9 124.885 104.182  14
   3   3  -9 165.716 92.5016   7
  -3  -3   9 19.7638 101.043  21
  -3  -3   9 42.4930 79.6881  20
  -3  -3   9 128.344 95.0323  19
  -3  -3   9 65.7301 84.5785  17
  -3  -3   9 128.526 62.6805  18
  -3  -3   9 230.131 114.752   5
   3   3  -8 105.781 68.1093  15
   3   3  -8-5.90532 72.7961  14
   3   3  -8 127.826 88.7026   7
  -3  -3   8 259.873 94.5518  21
  -3  -3   8 206.142 107.472  20
  -3  -3   8 148.282 83.7109  19
  -3  -3   8 264.503 83.9121  18
  -3  -3   8 196.306 101.459  17
  -3  -3   8 414.896 122.760   5
   3   3  -8 191.921 61.2973   9
   3   3  -7 4680.64 337.156   7
   3   3  -7 4532.66 344.059  14
  -3  -3   7 4689.87 349.833  20
  -3  -3   7 4529.66 339.196   5
  -3  -3   7 4461.01 335.234  19
  -3  -3   7 4875.82 349.814  17
  -3  -3   7 4897.47 346.255  21
   3   3  -7 4725.92 230.833   9
   3   3  -7 4419.54 311.490  15
   3   3  -6 2179.45 219.945   7
   3   3  -6 2274.18 230.098  14
  -3  -3   6 2477.70 229.384  21
  -3  -3   6 2421.10 225.401  17
   3   3  -6 2298.16 138.741  11
  -3  -3   6 2301.56 229.382  20
  -3  -3   6 2032.16 156.929   1
  -3  -3   6 2370.33 228.542  19
  -3  -3   6 2248.74 226.008   5
  -3  -3   6 2498.18 233.967  16
   3   3  -6 2496.23 223.078  15
  -3  -3   5 1838.02 182.873  17
   3   3  -5 2103.18 205.201   7
   3   3  -5 2142.70 209.765  14
  -3  -3   5 1580.12 172.905  21
  -3  -3   5 2068.50 196.341  19
  -3  -3   5 2206.19 204.406  20
   3   3  -5 1854.14 111.830  11
  -3  -3   5 1850.03 78.9189   2
  -3  -3   5 1879.76 152.881   1
  -3  -3   5 2071.25 205.983   5
  -3  -3   5 2062.38 193.450  16
   3   3  -5 2046.43 197.095  15
   3   3  -4 6.24173 53.7989  15
   3   3  -4 28.1396 65.6735  14
  -3  -3   4 19.4574 35.7852   1
   3   3  -4 90.7493 63.1677   7
  -3  -3   4-6.76711 51.7951  20
  -3  -3   4 145.737 64.3672  19
   3   3  -4 35.4633 21.5697  11
  -3  -3   4-40.2049 53.8439  17
  -3  -3   4 37.9155 55.2397  21
  -3  -3   4 15.3690 59.2009   5
   3   3  -4-0.23377 18.1960   9
  -3  -3   4 23.4405 45.1520  16
   3   3  -3 16184.2 579.307   7
   3   3  -3 16139.0 581.921  14
  -3  -3   3 16224.0 543.524  21
  -3  -3   3 15722.7 572.848   5
  -3  -3   3 16443.6 557.629  20
   3   3  -3 16129.1 529.443  10
  -3  -3   3 15773.7 545.871  19
  -3  -3   3 16129.9 534.516   1
  -3  -3   3 16179.3 543.878  17
   3   3  -3 16333.7 406.196   9
  -3  -3   3 16361.2 545.778  16
   3   3  -3 16152.4 576.451  15
   3   3  -2 1618.99 154.126   7
   3   3  -2 1306.23 141.195  14
   3   3  -2 1562.60 130.491  21
  -3  -3   2 1801.33 138.818  21
  -3  -3   2 1623.94 142.633  20
   3   3  -2 1646.48 129.384  10
  -3  -3   2 1418.79 131.041  19
   3   3  -2 1724.24 139.377  19
  -3  -3   2 1536.96 142.261   1
  -3  -3   2 1491.48 129.596  17
   3   3  -2 1531.61 131.683  17
   3   3  -2 1610.71 79.7732   9
   3   3  -2 1461.78 75.7782  11
  -3  -3   2 1483.54 127.885  16
   3   3  -2 1504.87 127.988  16
  -3  -3   2 1437.00 147.193   5
   3   3  -2 1606.16 158.993  15
   3   3  -1 25950.9 736.796   7
  -3  -3   1 26936.6 754.029   7
   3   3  -1 25424.4 734.383  14
  -3  -3   1 26722.8 748.799  14
  -3  -3   1 24873.7 674.090  17
   3   3  -1 26755.8 744.385  13
  -3  -3   1 25746.5 741.766  13
  -3  -3   1 25475.7 676.580  21
  -3  -3   1 24320.3 715.542  12
  -3  -3   1 25770.6 737.280   6
   3   3  -1 25777.9 674.162  10
   3   3  -1 25652.7 595.318  11
  -3  -3   1 25300.9 736.637   5
  -3  -3   1 26699.0 747.370   1
  -3  -3   1 24263.1 596.306   9
   3   3  -1 26828.5 685.855  17
   3   3  -1 25622.9 598.046   9
   3   3  -1 26445.1 685.262  21
  -3  -3   1 25313.1 673.762  16
   3   3  -1 27021.6 683.651  16
  -3  -3   1 25501.6 680.950  19
   3   3  -1 25609.5 750.767  15
   3   3   0 9639.78 366.084   7
  -3  -3   0 10546.7 315.881  20
  -3  -3   0 10874.3 385.418   7
   3   3   0 10317.6 299.378  11
   3   3   0 10096.4 370.614  14
  -3  -3   0 10792.8 381.979  14
   3   3   0 9390.75 371.018   6
  -3  -3   0 11136.2 395.048   6
   3   3   0 10935.9 379.579  13
  -3  -3   0 10550.7 378.906  13
   3   3   0 9620.89 321.014  21
  -3  -3   0 9872.14 323.818  19
  -3  -3   0 10223.1 327.270  10
   3   3   0 10345.6 325.706  10
  -3  -3   0 9928.98 320.434  17
  -3  -3   0 10676.1 402.193   1
   3   3   0 10275.9 322.980  17
  -3  -3   0 10145.2 297.936   9
  -3  -3   0 10265.5 383.053  12
  -3  -3   0 9696.36 316.385  16
   3   3   0 10250.3 320.281  16
  -3  -3   0 10090.4 321.806  21
  -3  -3   0 10894.6 390.141   4
   3   3   0 10193.7 389.669  15
  -3  -3   0 10739.9 401.044  15
   3   3   0 10672.8 304.016   9
   3   3   1 13345.0 421.724   7
  -3  -3  -1 13976.0 430.370   7
   3   3   1 13278.1 425.831  14
  -3  -3  -1 13872.8 435.659  14
   3   3   1 14148.8 434.031  13
  -3  -3  -1 13802.0 431.624  13
  -3  -3  -1 13048.5 453.230  12
   3   3   1 13351.9 456.036   6
  -3  -3  -1 14356.7 465.686   6
  -3  -3  -1 13094.7 384.829  11
   3   3   1 13390.5 389.205  11
  -3  -3  -1 13159.6 360.304  19
  -3  -3  -1 12766.9 382.889  10
   3   3   1 13934.2 389.824  10
  -3  -3  -1 14404.4 465.530  18
  -3  -3  -1 13085.6 368.489  17
  -3  -3  -1 13947.4 475.293   1
   3   3   1 13208.7 367.532  17
  -3  -3  -1 13037.4 385.162   9
   3   3   1 13955.4 394.741   9
  -3  -3  -1 13061.9 365.738  16
   3   3   1 13573.8 368.500  16
  -3  -3  -1 12806.0 366.992  21
   3   3   1 13210.2 441.687   4
  -3  -3  -1 13367.5 360.644  20
  -3  -3  -1 14010.2 449.011   4
   3   3   1 12710.5 444.962  15
  -3  -3  -1 15098.8 469.433  15
   3   3   2 1402.48 105.410   7
  -3  -3  -2 1744.35 114.213   7
   3   3   2 1746.55 125.232  14
  -3  -3  -2 1602.56 117.660  14
  -3  -3  -2 1573.41 88.6406  21
  -3  -3  -2 1616.21 118.804  13
  -3  -3  -2 1652.16 90.1112  20
   3   3   2 1739.81 143.882  12
   3   3   2 1583.40 141.559   6
  -3  -3  -2 1567.34 136.977   6
   3   3   2 1611.29 89.6942  20
  -3  -3  -2 1713.07 118.258  11
  -3  -3  -2 1535.62 105.343  10
   3   3   2 1474.82 103.320  10
  -3  -3  -2 1662.48 144.166  12
  -3  -3  -2 1720.88 141.496  18
  -3  -3  -2 1610.33 88.8554  19
  -3  -3  -2 1569.34 139.106   1
  -3  -3  -2 1572.12 92.0541  17
  -3  -3  -2 1640.51 119.636   9
   3   3   2 1858.86 125.921   9
  -3  -3  -2 1605.66 91.2094  16
   3   3   2 1650.82 93.4417  16
  -3  -3  -2 1541.06 118.386   8
   3   3   2 1503.87 132.005   4
   3   3   2 1630.34 118.098  11
  -3  -3  -2 1827.06 137.374   4
   3   3   2 1475.43 126.112  15
  -3  -3  -2 1657.92 128.764  15
   3   3   3 4748.80 190.427   7
  -3  -3  -3 5169.92 194.194   7
   3   3   3 4980.59 216.843  14
  -3  -3  -3 5237.88 220.708  14
   3   3   3 4936.96 185.445  20
  -3  -3  -3 5135.67 218.915  13
  -3  -3  -3 4857.57 183.167  21
  -3  -3  -3 5053.47 256.554  12
   3   3   3 4994.10 253.834  12
  -3  -3  -3 5436.66 266.581   6
  -3  -3  -3 5182.42 239.583  11
  -3  -3  -3 5085.89 188.219  20
   3   3   3 5334.57 242.616  11
   3   3   3 4663.92 182.638  19
  -3  -3  -3 5001.05 186.275  19
  -3  -3  -3 4780.20 210.943  10
   3   3   3 5304.65 221.038  10
  -3  -3  -3 5368.08 265.553  18
  -3  -3  -3 5677.45 269.852   1
  -3  -3  -3 4746.08 187.443  17
  -3  -3  -3 4688.92 231.126   9
  -3  -3  -3 4999.00 189.075  16
   3   3   3 4876.14 257.141   6
  -3  -3  -3 5233.78 232.376   8
   3   3   3 4888.87 242.485   4
   3   3   3 5036.26 226.687  15
  -3  -3  -3 5113.59 232.088  15
  -3  -3  -3 5151.65 245.210   4
  -3  -3  -4 259.694 53.2163  15
  -3  -3  -4 206.342 49.0713  14
  -3  -3  -4 228.550 36.5995   7
   3   3   4 218.471 70.0865   4
   3   3   4 243.266 47.2491  21
  -3  -3  -4 218.896 43.0089  21
  -3  -3  -4 253.086 64.3677   4
  -3  -3  -4 193.516 56.2845   1
   3   3   4 189.167 44.2009  20
  -3  -3  -4 231.634 49.4797  20
   3   3   4 259.584 70.2102  11
   3   3   4 212.234 75.8335   6
   3   3   4 205.265 60.0554  12
   3   3   4 238.690 49.9566  19
  -3  -3  -4 209.553 44.7366  19
   3   3   4 109.783 64.6686  18
  -3  -3  -4 185.163 54.7337  10
  -3  -3  -4 232.203 77.7719  12
  -3  -3  -4 251.217 46.2003  17
  -3  -3  -4 202.561 67.5509   9
   3   3   4 186.192 53.9665   8
  -3  -3  -4 234.671 49.0383  16
  -3  -3  -4 273.235 57.9266   8
   3   3   4 219.488 51.2415  15
  -3  -3  -5 4952.06 160.679   7
  -3  -3  -5 5126.49 228.986  14
  -3  -3  -5 4497.97 252.697  12
  -3  -3  -5 5024.63 227.464  21
   3   3   5 5116.95 280.953   6
   3   3   5 4865.50 224.269  20
  -3  -3  -5 4666.25 225.249  20
   3   3   5 4890.49 271.141  11
   3   3   5 5297.65 229.480  19
  -3  -3  -5 5251.91 232.271  19
  -3  -3  -5 5115.40 252.745  10
   3   3   5 5014.30 225.481  21
   3   3   5 5139.31 275.377  18
  -3  -3  -5 5172.05 228.879  17
  -3  -3  -5 5018.76 272.806   9
  -3  -3  -5 4929.33 251.135   1
  -3  -3  -5 4815.85 227.126  16
   3   3   5 4879.32 244.185   8
  -3  -3  -5 5228.42 247.185   8
   3   3   5 5095.29 214.249  15
  -3  -3  -5 4883.47 208.923  15
   3   3   5 4784.04 262.392   4
  -3  -3  -6 4295.89 136.496   7
  -3  -3  -6 4661.14 226.434  14
   3   3   6 4506.17 231.293  21
  -3  -3  -6 4630.54 237.596  21
   3   3   6 4184.57 225.198  20
  -3  -3  -6 4593.97 240.405  20
   3   3   6 4944.83 281.451  11
   3   3   6 4683.55 248.307   8
   3   3   6 4452.99 229.980  19
  -3  -3  -6 4367.67 232.722  19
  -3  -3  -6 4825.03 261.490  10
  -3  -3  -6 4034.83 229.464   1
   3   3   6 4605.20 280.133   6
   3   3   6 4625.29 269.008  18
  -3  -3  -6 4550.69 239.040  17
  -3  -3  -6 4660.13 276.322   9
  -3  -3  -6 4569.17 237.924  16
  -3  -3  -6 4097.18 184.143  15
   3   3   6 4550.09 264.955   4
  -3  -3  -7 539.794 37.7448   7
  -3  -3  -7 461.897 37.1764   7
   3   3   7 708.340 101.993  21
   3   3   7 567.857 110.157   4
   3   3   7 611.845 109.100  18
   3   3   7 650.056 97.6263  20
   3   3   7 589.946 114.784  11
   3   3   7 583.735 116.156   6
  -3  -3  -7 557.164 101.914  10
   3   3   7 534.229 89.2588  19
  -3  -3  -7 416.106 74.6170   1
  -3  -3  -7 573.494 109.691   9
   3   3   7 721.433 103.959   8
  -3  -3  -7 563.457 61.1575  15
   3   3   8 24870.4 796.312   4
  -3  -3  -8 22842.9 509.243   7
   3   3   8 23967.1 770.403  18
   3   3   8 24719.8 750.717   8
   3   3   8 25074.3 814.072   6
  -3  -3  -8 22271.8 651.800   1
   3   3   8 24651.4 746.391  19
  -3  -3  -8 25586.2 797.214  10
  -3  -3  -8 24018.7 802.680   9
   3   3   8 24572.4 741.829  21
   3   3   8 23895.5 799.465  11
   3   3   8 24662.4 752.552  20
  -3  -3  -8 22706.2 556.101  15
   3   3   9 30138.0 970.802   4
  -3  -3  -9 27442.8 648.700   7
   3   3   9 30245.4 979.190   6
   3   3   9 30300.2 927.693  20
  -3  -3  -9 26703.2 765.393   1
   3   3   9 29320.2 908.380  21
   3   3   9 30089.0 919.577  19
  -3  -3  -9 30842.7 966.318  10
   3   3   9 30202.7 930.656  18
  -3  -3  -9 30337.9 980.059   9
   3   3   9 30432.0 917.951   8
   3   3   9 30021.6 975.065  11
   3   3  10 2104.53 227.371   4
   3   3  10 1942.88 211.631  21
   3   3  10 2178.36 238.817   6
   3   3  10 2208.96 239.495  11
   3   3  10 1731.41 198.206  20
   3   3  10 2069.06 217.214  19
  -3  -3 -10 1845.95 218.315  10
   3   3  10 2164.95 213.530  18
  -3  -3 -10 2213.64 237.839   9
   3   3  10 2243.91 220.628   8
   3   3  11 1144.07 166.874   8
   3   3  11 1201.47 196.346   6
  -3  -3 -11 855.670 142.275   2
   3   3  11 1227.44 175.324  21
   3   3  11 1066.74 170.817  20
   3   3  11 1332.15 194.462   4
   3   3  11 1016.54 174.667  11
   3   3  11 1409.18 185.757  19
  -3  -3 -11 1309.71 199.170  10
  -3  -3 -11 1332.55 196.908   9
   3   3  11 1201.72 164.862  18
   3   3  12 3307.99 320.851   4
  -3  -3 -12 3469.79 285.131   2
   3   3  12 3918.52 349.946   6
   3   3  12 3972.79 335.837  20
   3   3  12 3595.66 336.869  11
   3   3  12 3500.84 314.655  19
  -3  -3 -12 3732.84 341.365  10
   3   3  12 3785.65 302.764  18
  -3  -3 -12 3745.28 342.684   9
   3   3  12 3655.86 322.205  21
   3   3  12 3780.82 315.855   8
   3   3  13 583.224 156.045   4
   3   3  13 714.769 164.254  19
   3   3  13 258.377 116.656  21
   3   3  13 320.815 130.917  20
   3   3  13 892.157 171.152  11
   3   3  13 496.727 121.449  18
   3   3  13 553.043 152.711   6
  -3  -3 -13 484.812 148.008  10
  -3  -3 -13 334.514 110.904   9
   3   3  13 462.077 136.209   8
   3   3  14 6691.69 509.929   4
   3   3  14 7158.38 526.937   6
   3   3  14 6786.63 500.000  20
   3   3  14 6231.74 473.637  21
   3   3  14 6116.24 475.541  19
  -3  -3 -14 6574.18 510.100  10
  -3  -3 -14 6709.73 498.969   9
   3   3  14 5888.05 445.664   8
  -3  -4  11 855.438 189.780  21
   3   4 -11 462.329 158.804   7
   3   4 -11 845.257 184.050  14
  -3  -4  11 759.438 190.592  20
  -3  -4  11 788.982 182.137  19
  -3  -4  11 590.601 185.778  17
   3   4 -10 2589.59 289.900   7
   3   4 -10 2421.84 302.044  14
  -3  -4  10 2607.75 300.772  21
  -3  -4  10 2658.29 305.508  20
  -3  -4  10 2857.18 316.455  19
  -3  -4  10 3133.11 337.727   5
  -3  -4  10 2602.81 302.832  17
   3   4 -10 2704.35 269.034  15
  -3  -4   9 436.327 132.861  21
   3   4  -9 526.222 116.181  15
   3   4  -9 476.504 145.823  14
   3   4  -9 245.069 104.886   7
  -3  -4   9 478.810 147.677  20
  -3  -4   9 408.933 136.273  19
  -3  -4   9 472.278 126.621  17
  -3  -4   9 474.666 130.846   5
   3   4  -8 1340.25 182.582  15
   3   4  -8 1513.43 213.728  14
   3   4  -8 1599.68 215.527   7
  -3  -4   8 1783.85 224.504  21
  -3  -4   8 1526.11 218.731  20
  -3  -4   8 1495.59 210.218  19
  -3  -4   8 1973.54 238.715  17
  -3  -4   8 1791.06 240.102   5
   3   4  -7 9807.33 524.004   7
   3   4  -7 9559.88 537.003  14
  -3  -4   7 10762.0 535.172  21
  -3  -4   7 10493.6 533.578  19
  -3  -4   7 9821.67 539.169   5
  -3  -4   7 11281.1 545.948  17
  -3  -4   7 10571.5 541.537  20
   3   4  -7 10900.9 516.786  15
   3   4  -6 99198.7 2444.76   7
   3   4  -6 98589.2 2464.78  14
  -3  -4   6 96628.3 2455.24   5
  -3  -4   6 100033. 2413.01  21
  -3  -4   6 102424. 2426.81  19
  -3  -4   6 99479.6 2405.58  17
   3   4  -6 96343.2 2056.04   9
  -3  -4   6 98053.9 2425.40  20
   3   4  -6 103335. 2417.53  15
   3   4  -5 1640.84 195.656  14
   3   4  -5 1682.90 189.798   7
  -3  -4   5 2006.02 193.347  21
  -3  -4   5 1901.65 196.417  20
  -3  -4   5 1904.20 196.147  19
  -3  -4   5 1888.91 183.602  17
  -3  -4   5 1638.61 194.887   5
   3   4  -5 2127.55 205.286  15
   3   4  -4 3905.55 284.783   7
   3   4  -4 4050.93 288.398  14
  -3  -4   4 4290.35 163.453   2
  -3  -4   4 4313.64 270.555  20
  -3  -4   4 4074.80 286.914   5
  -3  -4   4 5095.46 284.993  17
  -3  -4   4 4079.94 260.197  19
  -3  -4   4 4266.49 263.022  21
   3   4  -4 4385.87 287.294  15
   3   4  -3 4743.04 292.674   7
   3   4  -3 4339.39 283.202  14
  -3  -4   3 4292.63 284.813  13
  -3  -4   3 4669.73 263.594  20
   3   4  -3 4738.76 240.132  10
  -3  -4   3 4294.56 249.020  19
  -3  -4   3 4666.65 254.808  21
  -3  -4   3 4748.73 290.724   5
  -3  -4   3 4687.72 253.285  17
  -3  -4   3 4647.65 251.000  16
   3   4  -3 4617.83 283.510  15
   3   4  -2 361.891 85.8174  15
   3   4  -2 273.813 75.3790  14
   3   4  -2 333.782 88.2986   7
   3   4  -2 405.951 72.1088  21
  -3  -4   2 460.035 37.8806   3
  -3  -4   2 371.526 66.0695  21
  -3  -4   2 527.448 79.5135  20
  -3  -4   2 524.475 78.8175  19
   3   4  -2 647.093 87.2726  19
   3   4  -2 463.038 67.4053  10
  -3  -4   2 294.340 86.6931  13
  -3  -4   2 524.714 82.0649  17
   3   4  -2 427.719 64.8445  17
  -3  -4   2 411.920 92.4236   5
  -3  -4   2 501.342 77.5800  16
   3   4  -2 546.859 77.6679  16
   3   4  -1 3800.04 117.658  11
   3   4  -1 4117.86 246.963   7
   3   4  -1 4386.01 199.092  21
   3   4  -1 4443.95 256.741  14
  -3  -4   1 4390.18 257.036  13
  -3  -4   1 4183.87 194.012  21
  -3  -4   1 4509.63 167.975   3
  -3  -4   1 4335.70 200.076  19
   3   4  -1 4138.57 181.038  10
   3   4  -1 4627.90 205.729  19
  -3  -4   1 4754.73 240.886  18
  -3  -4   1 4169.93 245.811   5
  -3  -4   1 4032.14 190.822  17
  -3  -4   1 3615.62 116.509   9
  -3  -4   1 4114.45 198.071  20
   3   4  -1 4387.56 197.098  17
  -3  -4   1 4239.91 194.556  16
   3   4  -1 4493.86 196.930  16
   3   4  -1 4364.77 262.201  15
  -3  -4   0 50928.3 1144.67  19
   3   4   0 49264.1 1269.90   7
   3   4   0 49663.4 1277.86  14
  -3  -4   0 51131.5 1148.26  20
  -3  -4   0 50993.5 1285.47  13
  -3  -4   0 51469.3 1142.39  21
   3   4   0 52219.0 1147.23  21
  -3  -4   0 50898.8 1115.38  11
   3   4   0 51236.0 1119.21  11
   3   4   0 51269.9 1136.54  10
  -3  -4   0 53440.3 1279.58  18
  -3  -4   0 50824.5 1140.76  17
  -3  -4   0 50583.9 1267.23   5
   3   4   0 52632.3 1146.10  17
  -3  -4   0 51384.3 1115.89   9
  -3  -4   0 49841.4 1138.81  16
   3   4   0 51380.1 1141.52  16
   3   4   0 50674.1 1299.10  15
   3   4   1 49587.0 1225.85   7
  -3  -4  -1 53715.5 1239.53   7
   3   4   1 49645.1 1242.70  14
   3   4   1 49059.4 1259.62   6
  -3  -4  -1 51400.4 1242.56  13
  -3  -4  -1 50073.0 1070.42  21
  -3  -4  -1 50123.9 1257.97  12
  -3  -4  -1 48316.2 1064.27  20
  -3  -4  -1 50251.9 1133.26  11
   3   4   1 50255.1 1135.79  11
  -3  -4  -1 50553.3 1097.90  10
   3   4   1 51657.3 1097.50  10
  -3  -4  -1 49183.7 1069.51  17
   3   4   1 49996.4 1072.79  17
  -3  -4  -1 49787.0 1133.51   9
  -3  -4  -1 49606.1 1073.87  19
  -3  -4  -1 48854.3 1068.86  16
   3   4   1 50402.4 1071.30  16
  -3  -4  -1 48811.6 1074.71  20
  -3  -4  -1 50991.6 1223.72   4
   3   4   1 48895.4 1257.73  15
   3   4   2 424.370 81.3424  15
   3   4   2 350.087 73.0295   4
   3   4   2 478.777 82.9163  14
   3   4   2 340.982 61.3847   7
  -3  -4  -2 436.033 77.6584  14
  -3  -4  -2 348.155 75.7598  12
  -3  -4  -2 507.513 74.9504   7
  -3  -4  -2 288.355 60.8712   4
  -3  -4  -2 331.292 74.4282  13
  -3  -4  -2 352.110 28.0819  21
  -3  -4  -2 317.701 27.8547  21
  -3  -4  -2 326.789 26.9989  20
   3   4   2 341.454 80.9011   6
  -3  -4  -2 491.964 68.7217  11
  -3  -4  -2 334.365 28.4731  19
  -3  -4  -2 395.374 47.1545  10
   3   4   2 371.466 62.1510  11
   3   4   2 396.318 48.8241  10
  -3  -4  -2 332.899 28.8255  17
  -3  -4  -2 314.482 27.6146  16
  -3  -4  -2 390.492 64.7302   9
  -3  -4  -2 361.771 27.7455  19
  -3  -4  -3 14981.9 445.428   7
   3   4   3 14506.6 477.029  14
  -3  -4  -3 16034.7 495.150  14
  -3  -4  -3 13571.3 333.777  21
  -3  -4  -3 14483.1 499.200  12
  -3  -4  -3 15012.4 466.155  11
  -3  -4  -3 13451.8 336.417  20
   3   4   3 13961.2 457.871  11
  -3  -4  -3 13210.7 334.286  19
  -3  -4  -3 14350.7 400.265  10
   3   4   3 14101.9 504.418  18
   3   4   3 13792.2 333.687  20
  -3  -4  -3 13180.0 332.964  17
  -3  -4  -3 14033.2 337.444  17
  -3  -4  -3 13607.3 457.240   9
   3   4   3 14332.4 507.563   6
  -3  -4  -3 13716.7 334.648  16
   3   4   3 14616.1 470.279   4
   3   4   3 13507.3 474.577  15
  -3  -4  -3 15411.1 494.003  15
  -3  -4  -3 14821.3 471.476   4
   3   4   3 14179.5 443.453   7
  -3  -4  -4 647.807 88.0931  15
  -3  -4  -4 746.909 80.2629   7
  -3  -4  -4 724.754 94.8466  14
   3   4   4 687.940 96.3678   4
  -3  -4  -4 622.248 56.9292  21
  -3  -4  -4 845.338 100.436   4
  -3  -4  -4 659.118 103.100  12
   3   4   4 718.222 59.7914  20
  -3  -4  -4 646.636 57.8411  20
   3   4   4 591.777 104.305   6
   3   4   4 637.710 98.2597  11
   3   4   4 734.497 61.1303  19
  -3  -4  -4 734.884 60.7748  19
   3   4   4 878.193 118.857  18
  -3  -4  -4 734.941 81.5694  10
  -3  -4  -4 691.216 57.9413  17
  -3  -4  -4 693.830 59.3598  16
  -3  -4  -4 676.952 99.0176   9
  -3  -4  -4 730.265 61.8373  16
   3   4   4 701.803 99.1748   8
   3   4   4 536.483 85.6062  15
  -3  -4  -5 24116.8 611.814   7
  -3  -4  -5 21303.7 690.346  12
  -3  -4  -5 22659.1 599.941  21
  -3  -4  -5 22262.2 596.600  17
   3   4   5 22775.1 594.008  21
   3   4   5 23543.1 598.214  19
   3   4   5 23008.5 745.140  18
   3   4   5 23057.9 733.377   6
   3   4   5 24039.1 600.926  20
  -3  -4  -5 22734.4 605.049  20
   3   4   5 22147.7 707.646  11
  -3  -4  -5 23283.3 604.628  19
  -3  -4  -5 22285.0 649.077  10
  -3  -4  -5 22151.2 709.226   9
  -3  -4  -5 22279.1 595.272  16
  -3  -4  -5 23055.7 603.358  16
   3   4   5 22819.8 706.946   8
   3   4   5 22604.3 687.477   4
  -3  -4  -5 23922.1 671.009  15
  -3  -4  -6 911.927 81.9884   7
   3   4   6 1211.04 107.115  21
   3   4   6 1040.52 122.924   4
  -3  -4  -6 997.585 102.661  20
   3   4   6 1039.56 137.291  11
   3   4   6 1054.61 138.107   6
   3   4   6 1005.98 98.0165  19
  -3  -4  -6 946.846 97.2408  21
  -3  -4  -6 990.451 98.6445  19
   3   4   6 1031.45 139.836  18
   3   4   6 1034.41 99.3754  20
  -3  -4  -6 976.261 111.295  10
  -3  -4  -6 1058.63 101.617  17
  -3  -4  -6 963.230 96.7332  16
  -3  -4  -6 1312.22 146.567   9
  -3  -4  -6 1122.35 124.799  12
   3   4   6 1150.39 131.291   8
  -3  -4  -6 971.587 102.340  15
   3   4   7 6841.29 299.414  21
  -3  -4  -7 6366.86 321.094  12
   3   4   7 6832.04 363.281   6
   3   4   7 6732.47 302.501  20
   3   4   7 5872.44 349.157  11
   3   4   7 6661.24 296.769  19
  -3  -4  -7 6686.58 332.538  10
   3   4   7 6431.69 363.451  18
  -3  -4  -7 6710.62 369.149   9
   3   4   7 6715.16 348.337   8
  -3  -4  -7 6231.16 276.070  15
   3   4   7 6099.57 327.934   4
  -3  -4  -7 6310.35 237.476   7
   3   4   8 44.2431 47.9125  21
  -3  -4  -8 86.5280 29.5047   7
   3   4   8 8.69998 52.1495   4
   3   4   8 82.5997 56.3294  20
   3   4   8 225.515 88.7486  11
   3   4   8 96.6500 68.9200   6
   3   4   8 102.226 64.8837  19
   3   4   8 104.864 78.3014  18
  -3  -4  -8 7.68983 52.3280  10
  -3  -4  -8 89.9572 39.3998  15
  -3  -4  -8 33.9197 80.5983   9
   3   4   8 87.7971 62.2962   8
   3   4   9 14201.4 596.159   4
   3   4   9 14823.3 562.690  21
  -3  -4  -9 13836.4 427.505   7
   3   4   9 14452.7 566.930  20
   3   4   9 14832.6 567.186  19
  -3  -4  -9 14543.7 602.008  10
   3   4   9 15536.0 636.938  18
   3   4   9 15437.3 570.867  17
  -3  -4  -9 15478.5 649.802   9
   3   4   9 14458.2 639.422  11
   3   4   9 15280.8 618.271   8
   3   4   9 14209.6 618.724   6
   3   4  10-13.4593 74.7465   4
   3   4  10 85.2001 63.1384  21
   3   4  10 54.3676 57.7257  20
   3   4  10 66.6519 84.7388  11
   3   4  10 77.8767 67.9073   6
  -3  -4 -10 16.2616 75.4186   2
   3   4  10 102.354 63.5249  19
   3   4  10 12.9391 78.7773  18
  -3  -4 -10 343.399 109.674  10
   3   4  10-91.8226 70.4586  17
  -3  -4 -10 38.8853 70.5938   9
   3   4  10 44.9170 53.5347   8
   3   4  11 3631.53 309.143   4
  -3  -4 -11 3612.33 311.683  10
   3   4  11 3327.40 282.834  21
  -3  -4 -11 3459.38 298.020   2
   3   4  11 2922.20 292.188   6
   3   4  11 3469.80 290.404  20
   3   4  11 3497.79 326.082  11
   3   4  11 3224.75 278.184  19
   3   4  11 3865.83 320.417  18
   3   4  11 3648.39 289.816  17
  -3  -4 -11 3433.03 317.056   9
   3   4  11 4154.31 327.227   8
   3   4  12 52.1000 59.3384  19
   3   4  12-27.9963 68.6077  21
   3   4  12 180.080 96.1012   4
   3   4  12 135.711 82.3851  20
   3   4  12 193.490 107.411  11
   3   4  12 141.249 92.6697   6
  -3  -4 -12 286.800 92.7277   2
   3   4  12 33.3724 76.4712  18
  -3  -4 -12-31.0410 93.9399  10
  -3  -4 -12 217.940 99.1678   9
   3   4  12 230.203 87.5466   8
   3   4  13 1232.56 197.408  21
   3   4  13 1222.14 209.948   4
   3   4  13 1616.29 225.389  20
   3   4  13 1062.30 191.215   6
   3   4  13 1283.27 195.498  18
  -3  -4 -13 1575.52 229.271  10
   3   4  13 1108.22 192.286  19
  -3  -4 -13 1015.83 195.297   9
  -3  -4 -13 1285.92 187.169   2
   3   4  13 1162.95 193.969   8
   3   4  14-85.1200 86.3893  21
   3   4  14-27.6020 106.834   4
   3   4  14 5.68443 96.2010  20
   3   4  14 78.0183 96.0902   6
   3   4  14 67.5898 71.2627  19
  -3  -4 -14-16.6050 75.3933  10
   3   4  14 0.26227 84.9532   8
   3   4  15 276.883 120.654   8
   3   5 -11 2031.79 279.666   7
   3   5 -10 14.4195 77.5977   7
   3   5 -10 19.0534 91.0270  14
  -3  -5  10 145.896 104.036  21
  -3  -5  10-22.9052 86.1627  20
  -3  -5  10 172.545 80.4697  19
  -3  -5  10 6.19871 73.0548  17
  -3  -5  10 122.602 93.4612   5
   3   5  -9 38.8548 59.5049  15
   3   5  -9-85.4912 86.9789   7
   3   5  -9 58.0330 81.3646  14
  -3  -5   9-18.9330 90.7260  20
  -3  -5   9 45.6795 80.5878  21
  -3  -5   9 56.8804 100.018  19
  -3  -5   9 51.0991 80.4779  17
  -3  -5   9-39.8726 82.5008   5
   3   5  -8 37.8827 68.3924  15
   3   5  -8-12.8318 89.1387  14
   3   5  -8 3.18279 71.1582   7
  -3  -5   8 161.964 88.4461  21
  -3  -5   8-45.0454 89.3420  20
  -3  -5   8 82.7764 61.1069  19
  -3  -5   8-40.9920 84.2271  17
  -3  -5   8 55.8722 75.1109   5
   3   5  -7 2505.71 268.125   7
   3   5  -7 2536.39 273.819  14
  -3  -5   7 2297.88 238.591  21
  -3  -5   7 2316.90 247.733  20
  -3  -5   7 2433.86 249.135  19
  -3  -5   7 2345.72 243.796  17
  -3  -5   7 2145.56 254.125   5
   3   5  -7 2164.04 236.316  15
   3   5  -6 1023.57 154.297  15
   3   5  -6 772.432 156.697  14
   3   5  -6 941.636 163.546   7
  -3  -5   6 732.557 135.459  21
  -3  -5   6 865.202 146.505  20
  -3  -5   6 958.872 149.222  19
  -3  -5   6 923.990 147.987  17
  -3  -5   6 901.005 161.395   5
   3   5  -5 9562.23 502.841   7
   3   5  -5 9532.16 505.091  14
  -3  -5   5 9738.06 457.373  21
  -3  -5   5 9318.18 457.926  20
  -3  -5   5 9551.06 457.775  19
  -3  -5   5 10455.1 519.505   5
  -3  -5   5 10202.9 465.915  17
   3   5  -5 10035.3 490.729  15
   3   5  -4 669.679 119.562  15
   3   5  -4 599.816 126.357  14
   3   5  -4 716.412 135.694   7
  -3  -5   4 480.772 126.293  13
  -3  -5   4 566.180 97.3301  21
  -3  -5   4 754.190 70.7051   2
  -3  -5   4 676.437 109.492  19
  -3  -5   4 596.277 104.522  20
  -3  -5   4 612.891 91.8110  18
  -3  -5   4 667.587 108.510  17
  -3  -5   4 539.883 119.428   5
   3   5  -3 8758.46 439.304   7
   3   5  -3 8452.11 435.709  14
  -3  -5   3 9379.05 325.307   2
  -3  -5   3 8341.82 439.129  13
  -3  -5   3 8723.04 368.049  21
  -3  -5   3 9005.08 381.528  20
   3   5  -3 8441.99 335.395  10
  -3  -5   3 8843.58 375.399  19
  -3  -5   3 8520.90 249.988   3
  -3  -5   3 8534.78 425.404   5
  -3  -5   3 9169.91 377.701  17
   3   5  -3 8337.38 427.588  15
   3   5  -2 7451.81 391.640   7
   3   5  -2 6856.74 379.899  14
   3   5  -2 7353.64 311.532  21
  -3  -5   2 8128.11 406.601  13
  -3  -5   2 7749.34 318.272  20
  -3  -5   2 8019.77 319.060  19
   3   5  -2 7532.23 281.182  10
   3   5  -2 7592.22 318.720  19
  -3  -5   2 8108.74 263.352   3
  -3  -5   2 7518.62 309.085   2
  -3  -5   2 7688.10 380.769   5
  -3  -5   2 7403.21 308.014  17
   3   5  -2 7835.05 316.959  17
   3   5  -2 7926.70 315.159  16
  -3  -5   2 8043.75 315.874  21
   3   5  -2 7643.92 397.253  15
   3   5  -1 136.911 77.7027  15
  -3  -5   1 131.741 38.1846  21
   3   5  -1 179.073 63.9491  14
   3   5  -1 199.431 76.7447   7
  -3  -5   1 76.8336 56.9613  13
   3   5  -1 147.020 39.1159  21
  -3  -5   1 215.918 57.8647   2
   3   5  -1 117.616 30.4825  10
  -3  -5   1 151.044 43.5807  20
  -3  -5   1 134.736 40.3561  17
   3   5  -1 124.580 37.3364  17
  -3  -5   1 179.939 42.9417  19
   3   5  -1 224.987 77.0121   1
  -3  -5   1 201.364 48.7715   3
  -3  -5   1 253.853 82.9796   5
   3   5  -1 192.138 44.2006  16
   3   5  -1 207.512 48.5211  19
   3   5   0 921.945 128.286  15
  -3  -5   0 988.229 128.487  13
   3   5   0 1076.11 136.726  14
   3   5   0 1005.46 130.522   7
  -3  -5   0 981.632 97.0858   3
  -3  -5   0 1017.94 71.4600  21
   3   5   0 970.485 136.292   1
  -3  -5   0 1013.56 69.2379  11
  -3  -5   0 1013.26 72.4279  20
  -3  -5   0 948.071 70.0913  19
   3   5   0 1001.21 58.5100  10
   3   5   0 990.600 72.3836  17
  -3  -5   0 1059.55 71.0959   9
   3   5   0 1042.04 73.4237  16
  -3  -5   0 1000.21 120.225   5
   3   5   0 1047.00 74.9471  21
  -3  -5   0 988.121 70.4069  17
   3   5   1 8.84168 63.2854   1
   3   5   1 36.6983 53.5290   7
   3   5   1-57.4079 67.5401  14
  -3  -5  -1 54.0512 46.0424  13
  -3  -5  -1-10.5685 24.5718  11
  -3  -5  -1-23.4447 46.3209   3
  -3  -5  -1 31.6238 28.2795   9
  -3  -5  -1 15.5517 38.4718   5
   3   5   1-24.8007 52.0010  15
   3   5   2 18116.9 613.285  14
  -3  -5  -2 18155.8 609.421  13
  -3  -5  -2 17975.2 613.099  12
   3   5   2 17868.4 619.277   6
  -3  -5  -2 18292.1 530.773  11
  -3  -5  -2 17233.8 409.845  10
   3   5   2 17660.5 635.166   1
  -3  -5  -2 18100.6 530.821   9
   3   5   2 18465.9 617.019  18
  -3  -5  -2 19013.5 567.299   4
   3   5   2 17987.9 619.114  15
   3   5   2 18393.8 597.392   7
   3   5   3 12732.7 495.006  14
  -3  -5  -3 12577.7 492.586  12
   3   5   3 12786.7 505.226   6
  -3  -5  -3 12768.6 447.418  11
   3   5   3 13486.8 459.543  11
  -3  -5  -3 13371.5 352.663  10
   3   5   3 13115.5 515.008  18
   3   5   3 13121.3 522.379   1
  -3  -5  -3 12866.1 453.869   9
   3   5   3 13739.1 460.320   4
   3   5   3 13035.1 503.813  15
  -3  -5  -3 14110.7 460.864   4
   3   5   3 13136.6 474.246   7
  -3  -5  -4 8837.12 352.682   4
  -3  -5  -4 9031.13 358.838   7
  -3  -5  -4 8782.49 390.361  12
   3   5   4 9031.69 382.875  11
  -3  -5  -4 8942.10 293.950  10
   3   5   4 9086.69 408.978   6
   3   5   4 8644.57 414.835  18
   3   5   4 8078.84 401.528   1
  -3  -5  -4 8829.47 376.779   9
   3   5   4 8644.46 403.611   8
   3   5   4 9154.06 356.837   4
   3   5   4 8495.46 387.054  15
  -3  -5  -5 4288.89 229.405   7
   3   5   5 4473.51 163.893  21
  -3  -5  -5 3978.72 253.734  12
  -3  -5  -5 4148.53 165.056  21
   3   5   5 4426.47 281.355   6
   3   5   5 4396.77 163.789  20
   3   5   5 4026.60 260.589  11
   3   5   5 4458.02 164.353  19
  -3  -5  -5 4383.47 168.525  19
  -3  -5  -5 4419.40 212.770  10
   3   5   5 4520.77 297.016  18
  -3  -5  -5 4080.18 163.836  17
   3   5   5 3894.73 266.441   1
  -3  -5  -5 4757.26 277.445   9
  -3  -5  -5 4196.73 164.013  16
  -3  -5  -5 4290.59 164.775  16
   3   5   5 4268.13 275.312   8
   3   5   5 4275.95 237.011   4
  -3  -5  -6 1237.49 116.990   7
   3   5   6 1144.18 93.6235  21
  -3  -5  -6 926.633 130.460  12
   3   5   6 1103.51 147.649  11
   3   5   6 1355.49 102.319  19
  -3  -5  -6 1106.05 95.1068  21
  -3  -5  -6 984.245 91.9286  19
  -3  -5  -6 1607.24 136.574  10
   3   5   6 1266.08 160.852  18
  -3  -5  -6 1042.43 92.9823  17
   3   5   6 1239.91 98.3881  20
  -3  -5  -6 1138.00 95.6935  16
  -3  -5  -6 1235.99 150.822   9
   3   5   6 1102.45 147.447   8
   3   5   6 1506.26 167.071   6
   3   5   6 1203.41 129.978   4
  -3  -5  -7 650.939 89.7861   7
   3   5   7 618.482 105.342   4
   3   5   7 863.835 145.118  18
   3   5   7 820.221 91.2716  21
  -3  -5  -7 612.382 107.653  12
   3   5   7 740.353 89.9239  20
   3   5   7 733.188 124.211   6
   3   5   7 611.638 117.641  11
  -3  -5  -7 754.020 135.535   2
   3   5   7 736.950 87.3101  19
  -3  -5  -7 620.405 86.6798  19
  -3  -5  -7 724.576 103.843  10
  -3  -5  -7 722.653 90.3882  17
  -3  -5  -7 728.805 90.7343  21
  -3  -5  -7 805.372 136.116   9
  -3  -5  -7 685.245 88.6774  16
   3   5   7 514.716 112.813   8
  -3  -5  -8 7050.74 360.231  10
  -3  -5  -8 6903.82 406.709   2
  -3  -5  -8 6065.92 326.702  12
   3   5   8 6800.05 316.617  20
   3   5   8 6877.50 407.107  11
   3   5   8 6234.03 302.544  19
   3   5   8 6034.83 391.625  18
   3   5   8 6549.56 306.567  21
  -3  -5  -8 6063.42 384.246   9
   3   5   8 5979.40 366.922   6
   3   5   8 6369.72 306.500  17
   3   5   8 6283.48 382.590   8
   3   5   8 6367.13 344.530   4
   3   5   9 2018.28 178.531  21
  -3  -5  -9 1527.86 198.671   2
   3   5   9 1832.64 171.737  20
   3   5   9 1723.11 217.152  11
   3   5   9 1964.97 179.140  19
  -3  -5  -9 1796.08 188.689  10
   3   5   9 2123.07 234.167  18
   3   5   9 2202.92 188.900  17
  -3  -5  -9 2077.98 230.191   9
   3   5   9 1655.22 195.259   6
   3   5   9 1960.09 216.864   8
   3   5   9 1719.51 184.905   4
   3   5  10 4904.32 350.767   6
   3   5  10 4731.36 300.963  21
   3   5  10 4487.94 301.551  20
   3   5  10 5069.93 365.752   8
   3   5  10 4840.20 309.108  19
  -3  -5 -10 4450.38 325.235  10
   3   5  10 4896.22 366.749  18
   3   5  10 4354.18 291.268  17
  -3  -5 -10 3892.15 335.790   9
  -3  -5 -10 4656.11 355.179   2
   3   5  10 4219.69 311.550   4
   3   5  11 1458.88 175.619  21
   3   5  11 1311.26 187.369   4
   3   5  11 1152.50 164.091  20
   3   5  11 1240.25 186.217   6
   3   5  11 1233.37 165.578  19
  -3  -5 -11 1183.07 182.149   2
   3   5  11 1370.17 202.095  18
  -3  -5 -11 1470.06 200.859  10
   3   5  11 1241.46 170.260  17
  -3  -5 -11 1840.34 238.997   9
   3   5  11 1100.52 188.481   8
   3   5  12 1608.69 202.439  21
   3   5  12 2142.45 231.920  20
   3   5  12 1667.92 236.072  18
   3   5  12 1374.59 211.484   6
   3   5  12 1625.66 204.604  19
  -3  -5 -12 1569.16 219.404   2
  -3  -5 -12 1872.53 239.930  10
   3   5  12 1804.14 215.088  17
  -3  -5 -12 2566.47 297.125   9
   3   5  12 1766.24 220.789   4
   3   5  12 1746.23 238.796   8
   3   5  13 25.6451 60.9284  19
   3   5  13 66.2072 74.3875  21
   3   5  13 52.9268 71.6116  20
   3   5  13 66.2751 78.7532   6
   3   5  13 55.4429 82.3041   4
   3   5  13 9.97198 83.4400  18
  -3  -5 -13-45.2702 78.0845   2
  -3  -5 -13 39.3195 72.9910  10
  -3  -5 -13 163.022 102.612   9
   3   5  13 30.4988 66.3452   8
   3   5  14-243.846 112.310   4
   3   5  14 15.9578 65.7730  21
   3   5  14-98.5744 78.6404  20
   3   5  14 118.754 96.0678   6
   3   5  14 61.9479 64.7654  19
   3   5  14-73.0671 76.2974  18
  -3  -5 -14-215.320 111.381  10
   3   5  14 111.353 80.5753   8
   3   6 -10 236.972 124.141   7
  -3  -6  10 484.634 156.724  20
  -3  -6  10 155.615 110.470  19
  -3  -6  10 254.943 118.587  17
  -3  -6  10 366.445 151.816  21
   3   6  -9 2790.09 322.514   7
   3   6  -9 3085.64 338.110  14
  -3  -6   9 3016.39 318.440  21
  -3  -6   9 3129.58 329.635  20
  -3  -6   9 3211.11 326.559  19
  -3  -6   9 2744.58 335.558   5
  -3  -6   9 2834.05 307.378  17
   3   6  -9 2590.01 279.190  15
   3   6  -8 45.8793 63.4001  15
   3   6  -8-60.3371 108.792   7
   3   6  -8 40.5217 85.1607  14
  -3  -6   8 114.583 74.5200  21
  -3  -6   8 3.88013 67.1029  20
  -3  -6   8 44.9036 71.7157  19
  -3  -6   8 169.781 88.8010  17
  -3  -6   8 166.118 93.8411   5
   3   6  -7 195.237 85.6323  15
   3   6  -7 320.741 117.508   7
   3   6  -7 32.0686 84.7477  14
  -3  -6   7 237.643 94.4445  20
  -3  -6   7 240.721 86.0942  19
  -3  -6   7 78.9195 60.3984  17
  -3  -6   7 156.315 77.7236  21
  -3  -6   7 221.926 113.532   5
   3   6  -6 144.619 67.7544  15
   3   6  -6 278.493 104.370   7
   3   6  -6 296.652 118.347  14
  -3  -6   6 288.141 116.541   5
  -3  -6   6 228.702 83.8892  21
  -3  -6   6 215.965 71.1275  20
  -3  -6   6 260.896 104.857  19
  -3  -6   6 158.902 79.7409  17
   3   6  -5 2595.75 269.284   7
   3   6  -5 2611.94 264.945  14
  -3  -6   5 2442.17 266.755  13
  -3  -6   5 2690.94 230.201  21
  -3  -6   5 2699.23 237.060  20
  -3  -6   5 2776.48 229.503  19
  -3  -6   5 2605.43 264.524   5
  -3  -6   5 2993.74 242.563  17
   3   6  -5 2739.15 262.127  15
   3   6  -4 3564.15 302.292   7
   3   6  -4 2734.78 268.348  14
  -3  -6   4 3418.68 155.027   3
  -3  -6   4 3346.89 242.686  20
  -3  -6   4 2973.95 287.588  13
  -3  -6   4 3607.09 247.659  21
  -3  -6   4 3230.36 240.319  19
  -3  -6   4 3648.35 188.788   2
  -3  -6   4 3676.54 294.348   5
  -3  -6   4 3492.23 243.896  17
   3   6  -4 3672.54 297.604  15
   3   6  -3 1868.26 213.925   7
   3   6  -3 2271.99 236.652  14
  -3  -6   3 2346.06 238.203  13
  -3  -6   3 2434.37 183.409  21
  -3  -6   3 2294.63 182.410  20
  -3  -6   3 2352.35 165.683   2
  -3  -6   3 2263.38 176.728  19
  -3  -6   3 2298.29 137.532   3
  -3  -6   3 2100.79 213.024   5
  -3  -6   3 2151.40 172.879  17
   3   6  -3 2091.10 213.894   1
   3   6  -3 2319.45 235.282  15
   3   6  -2 3000.97 261.045   7
   3   6  -2 3189.81 265.604  14
  -3  -6   2 2927.54 257.027  13
  -3  -6   2 3235.69 190.085  21
  -3  -6   2 3281.51 179.583   3
   3   6  -2 2837.84 182.765  21
  -3  -6   2 3533.31 201.234  20
  -3  -6   2 3003.89 185.315  19
   3   6  -2 2944.24 148.592  10
  -3  -6   2 3354.37 254.472   5
   3   6  -2 2889.15 246.400   1
   3   6  -2 3130.32 190.333  17
   3   6  -2 3004.02 187.494  16
  -3  -6   2 3182.26 206.401   2
   3   6  -2 3201.11 267.296  15
   3   6  -2 2880.64 190.412  19
   3   6  -1 4668.69 315.656   7
   3   6  -1 4568.14 314.618  14
  -3  -6   1 4283.53 302.914  13
  -3  -6   1 4728.81 206.047  21
  -3  -6   1 4558.23 266.044   2
  -3  -6   1 4522.97 205.062  20
  -3  -6   1 4745.06 206.319  19
  -3  -6   1 5126.33 244.942   3
   3   6  -1 4384.06 208.173  19
   3   6  -1 4447.47 147.092  10
   3   6  -1 4370.43 147.481  10
   3   6  -1 4580.30 207.733  21
   3   6  -1 4972.09 325.387   1
  -3  -6   1 5005.56 296.304   5
   3   6  -1 4224.39 200.900  17
   3   6  -1 4433.83 204.520  16
   3   6  -1 4640.22 318.077  15
  -3  -6   0 1418.39 85.2018  19
   3   6   0 1730.11 189.325  14
   3   6   0 1348.33 170.242   1
  -3  -6   0 1541.57 88.9119  20
   3   6   0 1559.14 92.0686  16
  -3  -6   0 1333.00 167.350  13
   3   6   0 1617.66 93.1246  21
  -3  -6   0 1352.91 149.320   2
  -3  -6   0 1435.66 93.6523  11
  -3  -6   0 1454.74 135.753   3
   3   6   0 1459.81 90.6484  19
  -3  -6   0 1427.44 147.157   5
   3   6   0 1567.47 92.3940  17
  -3  -6   0 1573.37 96.3210   9
  -3  -6   0 1586.75 89.4191  21
   3   6   0 1533.92 90.2662  16
   3   6   0 1581.17 182.982  15
   3   6   0 1550.28 179.629   7
   3   6   1 857.063 128.008   7
   3   6   1 725.634 124.424  14
  -3  -6  -1 698.460 120.968  13
  -3  -6  -1 829.631 85.7791  11
  -3  -6  -1 876.552 123.847   2
  -3  -6  -1 745.854 106.294   3
  -3  -6  -1 882.727 86.8305   9
  -3  -6  -1 795.853 107.675   5
   3   6   1 790.354 134.907  15
   3   6   1 643.079 130.203   1
   3   6   2 188.077 75.1144   7
   3   6   2 96.3545 66.5800  14
  -3  -6  -2 156.613 68.3618  13
  -3  -6  -2 220.315 51.5016  11
  -3  -6  -2 183.473 71.2279   2
  -3  -6  -2 189.147 57.2702   3
  -3  -6  -2 103.740 45.9194   5
   3   6   2 68.8168 66.5684   1
   3   6   2 142.728 62.3318  15
   3   6   2 224.524 73.0337  18
   3   6   3 139.609 87.9955   1
   3   6   3 11.1225 62.3581  14
  -3  -6  -3 86.2567 40.0135   4
   3   6   3 99.7513 69.4377   6
   3   6   3 196.137 87.6168  18
  -3  -6  -3 71.7098 62.9799   3
  -3  -6  -3 87.4351 51.9686   5
  -3  -6  -3 20.0203 58.7549   2
  -3  -6  -3 5.23271 58.8539  12
   3   6   3-34.3896 76.8742  15
   3   6   4 3169.94 242.407   6
  -3  -6  -4 2954.37 250.017   2
  -3  -6  -4 3401.15 244.795  12
  -3  -6  -4 3192.97 248.969   3
  -3  -6  -4 3179.08 134.261  10
   3   6   4 2814.60 243.352  18
   3   6   4 2955.70 250.383   1
   3   6   4 3494.55 202.679   4
  -3  -6  -4 2763.18 183.794   4
  -3  -6  -5 2663.42 239.795   2
   3   6   5 2260.81 211.945   6
  -3  -6  -5 2779.29 153.618  10
  -3  -6  -5 2348.32 204.665  12
   3   6   5 2784.50 247.925  18
   3   6   5 2327.37 223.631   1
   3   6   5 2664.02 237.019   8
   3   6   5 2824.85 186.735   4
   3   6   6 9321.62 278.240  21
  -3  -6  -6 8667.51 470.893   2
   3   6   6 8619.12 436.314   6
   3   6   6 9575.55 282.310  20
   3   6   6 9054.49 277.896  19
   3   6   6 8521.34 467.440  18
  -3  -6  -6 9780.72 360.554  10
   3   6   6 9222.89 457.504   1
  -3  -6  -6 8531.49 279.105  17
  -3  -6  -6 8506.88 279.786  21
  -3  -6  -6 8612.50 277.299  16
   3   6   6 8835.30 463.007   8
  -3  -6  -6 8548.77 412.090  12
   3   6   6 9212.89 377.601   4
   3   6   7 539.571 92.7604   4
   3   6   7 625.512 73.5504  21
   3   6   7 393.102 119.419  18
  -3  -6  -7 689.815 113.372  12
   3   6   7 607.455 73.7706  20
   3   6   7 536.953 111.435   6
   3   6   7 606.509 73.8021  19
  -3  -6  -7 478.040 114.206   2
   3   6   7 525.585 115.652   1
  -3  -6  -7 571.216 92.6977  10
   3   6   7 695.997 141.014   8
   3   6   8 1167.12 137.881   4
   3   6   8 1195.65 115.947  21
   3   6   8 1200.88 120.047  20
  -3  -6  -8 1215.54 149.502  12
   3   6   8 1157.66 164.210   6
   3   6   8 983.979 108.055  19
  -3  -6  -8 1184.90 177.814   2
   3   6   8 1016.54 177.008  18
   3   6   8 1294.14 121.338  17
  -3  -6  -8 1227.27 143.007  10
   3   6   8 1270.74 185.844   8
  -3  -6  -8 1295.12 183.492   9
   3   6   9 2891.26 204.768  21
  -3  -6  -9 3138.09 233.347  12
   3   6   9 2745.83 259.146   6
  -3  -6  -9 2534.82 270.335   2
   3   6   9 2737.34 203.399  20
   3   6   9 3243.86 217.173  19
  -3  -6  -9 3151.69 247.960  10
   3   6   9 2472.23 277.326  18
   3   6   9 3207.34 216.760  17
  -3  -6  -9 2893.05 280.615   9
   3   6   9 2712.40 224.137   4
   3   6   9 3338.82 306.520   8
   3   6  10 2943.79 273.324   6
  -3  -6 -10 2472.71 270.591   2
   3   6  10 2550.55 208.675  21
   3   6  10 2542.72 212.323  20
   3   6  10 2819.05 220.798  19
  -3  -6 -10 2527.94 242.960  10
   3   6  10 2331.01 273.708  18
   3   6  10 2865.13 223.113  17
  -3  -6 -10 2554.96 281.579   9
   3   6  10 2638.41 278.359   8
   3   6  10 2578.29 229.383   4
  -3  -6 -11 6236.19 440.889   2
   3   6  11 5030.82 378.739   6
  -3  -6 -11 5957.54 399.209  10
   3   6  11 6220.21 460.280  18
  -3  -6 -11 6365.20 456.043   9
   3   6  11 6051.34 446.893   8
   3   6  11 5570.62 367.186   4
   3   6  12 542.530 145.464   6
   3   6  12 497.476 135.364  18
  -3  -6 -12 615.818 142.958   2
  -3  -6 -12 470.096 121.106  10
  -3  -6 -12 525.702 148.678   9
   3   6  12 648.526 169.232   8
   3   6  13 74.5782 91.3557   6
   3   6  13-131.151 119.319  18
  -3  -6 -13-25.2702 70.0394  10
  -3  -6 -13 38.2716 80.9481   2
   3   6  13 127.350 102.493   8
  -3  -6 -14 114.314 85.1122  10
  -3  -7   9 2688.56 306.247  21
  -3  -7   9 3371.80 353.042  20
  -3  -7   9 3178.90 331.968  19
  -3  -7   8 154.568 85.5004  21
   3   7  -8 51.5491 97.6088   7
   3   7  -8 1.70535 88.5784  14
  -3  -7   8 34.5765 75.6750  20
  -3  -7   8 122.591 78.9128  19
  -3  -7   8-68.0148 116.005   5
   3   7  -8 70.6719 67.5847  15
   3   7  -7 3053.32 328.728   7
   3   7  -7 2802.22 316.042  14
  -3  -7   7 3224.52 303.978  20
  -3  -7   7 2464.51 262.243  19
  -3  -7   7 2833.84 321.363   5
  -3  -7   7 2356.81 258.215  21
   3   7  -7 2676.98 286.913  15
   3   7  -6 31.0298 88.9295   7
   3   7  -6 4.67972 92.1148  14
  -3  -7   6 83.4412 67.2186  21
  -3  -7   6 53.9885 62.7247  20
  -3  -7   6 99.6021 60.9900  19
  -3  -7   6 45.5921 70.1217   5
   3   7  -6 92.2579 79.3547  15
   3   7  -5 1324.62 212.656   7
   3   7  -5 1418.13 219.868  14
  -3  -7   5 1264.03 160.608  21
  -3  -7   5 1165.87 157.616  20
  -3  -7   5 1444.50 175.103  19
  -3  -7   5 1108.57 185.611   5
  -3  -7   5 1165.14 197.799  13
   3   7  -5 1032.50 187.140  15
   3   7  -4 678.425 157.265   7
   3   7  -4 561.814 142.298  14
  -3  -7   4 589.287 106.913  21
  -3  -7   4 509.740 130.667  13
  -3  -7   4 602.249 107.759  20
  -3  -7   4 667.032 112.825  19
  -3  -7   4 379.107 115.660   5
   3   7  -4 683.135 137.706   1
   3   7  -4 366.129 116.845  15
   3   7  -3 6522.94 438.575   7
   3   7  -3 7233.66 458.616  14
  -3  -7   3 6162.96 421.937  13
  -3  -7   3 6937.23 339.224  20
  -3  -7   3 7382.49 344.427  21
  -3  -7   3 7329.48 344.907   2
  -3  -7   3 7845.56 356.384  19
  -3  -7   3 7502.40 314.288   3
  -3  -7   3 7513.42 430.704   5
   3   7  -3 6439.63 412.588   1
   3   7  -3 7501.58 356.906  16
   3   7  -3 7079.98 441.138  15
  -3  -7   2 3715.66 223.233   3
   3   7  -2 3844.37 316.609  14
  -3  -7   2 3489.89 303.932  13
  -3  -7   2 3358.36 201.900  21
  -3  -7   2 3869.08 216.781  20
  -3  -7   2 3614.11 244.920   2
  -3  -7   2 3840.66 213.930  19
  -3  -7   2 3115.51 262.561   5
   3   7  -2 3606.09 302.627   1
   3   7  -2 3683.76 216.834  16
   3   7  -2 3279.08 298.877  15
   3   7  -2 3581.52 307.687   7
   3   7  -1 2147.92 235.369  14
  -3  -7   1 2121.69 227.706  13
  -3  -7   1 2185.04 138.603  21
  -3  -7   1 2362.39 143.217  20
  -3  -7   1 2456.35 209.601   2
  -3  -7   1 2460.34 191.183   3
  -3  -7   1 2129.52 200.470   5
   3   7  -1 2009.45 228.289   1
  -3  -7   1 2188.14 138.239  19
   3   7  -1 2191.40 144.037  16
   3   7  -1 2071.97 232.597  15
   3   7  -1 2245.50 237.069   7
   3   7   0 4.37146 75.2587   7
   3   7   0 78.7866 88.8910  14
  -3  -7   0-21.2457 16.9033  20
  -3  -7   0 17.8434 57.5800  13
  -3  -7   0 16.7979 19.6644  19
   3   7   0-20.7209 90.7097   1
  -3  -7   0 90.7155 81.0251   2
   3   7   0 5.25919 16.9018  17
  -3  -7   0-20.5091 74.1988   5
  -3  -7   0 84.5352 37.2001   9
   3   7   0-5.61587 19.7226  16
  -3  -7   0-14.4688 46.1224   3
   3   7   0 7.98412 76.9197  15
   3   7   1 6455.94 399.145  14
  -3  -7  -1 6302.25 391.454  13
  -3  -7  -1 6295.30 272.372  11
  -3  -7  -1 6774.35 352.727   3
   3   7   1 6775.19 415.482   1
  -3  -7  -1 6539.40 331.652   5
  -3  -7  -1 7142.68 387.009   2
   3   7   1 6358.61 359.201  18
   3   7   1 7030.00 417.522  15
   3   7   1 6241.68 389.124   7
   3   7   2 3522.89 289.409  14
  -3  -7  -2 3555.25 287.373  13
  -3  -7  -2 3794.58 290.354   2
  -3  -7  -2 3723.18 269.089   3
   3   7   2 2963.63 250.216  18
   3   7   2 3213.24 289.815   1
  -3  -7  -2 3728.64 231.859   5
   3   7   2 3726.15 299.641  15
   3   7   3 69074.7 1822.02  14
  -3  -7  -3 68120.3 1799.81  13
  -3  -7  -3 67433.7 1807.00   2
  -3  -7  -3 66946.4 1761.75   3
   3   7   3 66942.0 1787.40  18
   3   7   3 68992.7 1843.90   1
  -3  -7  -3 69239.5 1626.54   5
  -3  -7  -4 1816.17 212.706   2
  -3  -7  -4 1595.00 182.588  12
   3   7   4 1812.37 224.571   1
  -3  -7  -4 1737.90 141.018   5
   3   7   4 1554.64 180.587   6
  -3  -7  -4 1485.39 180.368   3
   3   7   4 1691.39 207.111  18
  -3  -7  -5 161.839 88.8825   3
  -3  -7  -5 46.7342 75.1918  12
   3   7   5 118.393 72.4359   6
   3   7   5-19.0478 80.3389  18
  -3  -7  -5 57.8393 74.0108   2
  -3  -7  -5 22.0213 19.4559  10
   3   7   5 58.1476 92.6383   1
  -3  -7  -5 66.2895 40.8374   5
  -3  -7  -6 10837.5 491.787  12
  -3  -7  -6 10009.7 544.556   2
   3   7   6 10340.5 503.870   6
  -3  -7  -6 10278.9 539.687   3
  -3  -7  -6 10696.0 368.760  10
   3   7   6 9700.19 536.842  18
   3   7   6 10988.2 547.593   1
   3   7   6 9926.52 537.522   8
   3   7   6 11022.6 414.127   4
   3   7   7 553.130 88.1369   4
  -3  -7  -7 806.455 134.024  12
   3   7   7 568.642 120.931   6
   3   7   7 392.403 103.304   1
   3   7   7 360.376 115.183  18
  -3  -7  -7 705.076 158.314   2
  -3  -7  -7 531.496 83.3881  10
  -3  -7  -7 399.298 124.594   3
   3   7   7 502.580 133.490   8
  -3  -7  -8 3037.96 302.703   2
  -3  -7  -8 3341.71 314.917   3
   3   7   8 2971.24 269.641   6
  -3  -7  -8 3014.02 221.038  10
   3   7   8 3286.20 318.961  18
   3   7   8 2879.93 272.726   1
   3   7   8 3197.60 305.876   8
  -3  -7  -8 3151.78 252.414  12
   3   7   8 3135.88 218.230   4
  -3  -7  -9 2486.77 283.690   2
  -3  -7  -9 2375.83 215.603  12
   3   7   9 2033.91 224.134   6
  -3  -7  -9 2180.76 202.477  10
   3   7   9 2379.59 281.580  18
  -3  -7  -9 2032.67 263.399   3
   3   7   9 2273.41 271.522   8
   3   7  10 799.147 150.663   6
   3   7  10 1066.67 195.043  18
  -3  -7 -10 907.170 175.955   2
  -3  -7 -10 1003.56 148.137  10
  -3  -7 -10 1013.55 193.209   3
  -3  -7 -10 872.680 166.834   9
   3   7  10 754.539 169.009   8
   3   7  11 1392.46 202.004   6
   3   7  11 1479.20 240.960  18
  -3  -7 -11 1325.86 220.482   2
  -3  -7 -11 1473.96 191.317  10
  -3  -7 -11 1490.11 245.416   3
  -3  -7 -11 1356.75 222.137   9
   3   7  11 1172.66 220.509   8
   3   7  12 201.905 112.735  18
  -3  -7 -12 668.423 173.426   2
  -3  -7 -12 644.285 175.570   3
  -3  -7 -12 244.603 127.379   9
   3   7  12 331.046 129.394   8
  -3  -7 -13 1662.58 265.107   2
   3   8  -8 49.8969 101.973  15
   3   8  -7 586.088 160.184   7
   3   8  -7 388.021 120.279  14
  -3  -8   7 240.087 124.868   5
   3   8  -7 497.129 141.869  15
   3   8  -6 57.3472 81.5279   7
   3   8  -6-113.244 101.834  14
  -3  -8   6-1.41959 95.0522  13
  -3  -8   6-55.9540 102.746   5
   3   8  -6-20.5097 66.7203  15
   3   8  -5 375.919 125.154   1
   3   8  -5 425.041 136.921   7
   3   8  -5 407.241 139.339  14
  -3  -8   5 626.488 171.567  13
  -3  -8   5 493.698 142.854   5
   3   8  -5 168.700 82.5278  15
   3   8  -4 22.7647 92.1789   7
   3   8  -4 227.900 127.295  14
  -3  -8   4 67.3789 110.451  13
  -3  -8   4 251.288 110.590   5
   3   8  -4 98.2866 83.8285   1
   3   8  -4 203.436 116.886  15
   3   8  -3 464.023 138.185   7
   3   8  -3 350.469 114.958  14
   3   8  -3 393.962 136.822   1
  -3  -8   3 366.460 135.575  13
  -3  -8   3 470.183 117.662   5
   3   8  -3 352.119 117.674  15
   3   8  -2 2172.73 265.241  14
  -3  -8   2 2284.19 264.269  13
  -3  -8   2 2786.06 232.380   2
  -3  -8   2 2288.88 195.317   3
  -3  -8   2 2392.24 234.440   5
   3   8  -2 2107.37 252.181   1
   3   8  -2 2109.38 258.896   7
   3   8  -2 2092.23 252.036  15
   3   8  -1 2603.83 278.125  14
  -3  -8   1 2892.95 291.693  13
  -3  -8   1 2303.02 225.449   2
  -3  -8   1 2985.07 229.521   3
  -3  -8   1 2596.20 235.144   5
   3   8  -1 2043.99 250.148   1
   3   8  -1 2210.57 261.682  15
   3   8  -1 2606.87 280.061   7
   3   8   0 698.083 157.316   7
   3   8   0 615.103 145.101  14
  -3  -8   0 694.078 148.421  13
   3   8   0 508.737 144.784   1
  -3  -8   0 451.589 102.157   2
  -3  -8   0 534.371 108.440   5
  -3  -8   0 430.239 95.7036   3
   3   8   0 573.838 142.898  15
   3   8   1 108.244 76.9040  14
  -3  -8  -1 70.8644 74.8291  13
   3   8   1 19.4333 51.0795  18
  -3  -8  -1-27.0893 63.6166   2
  -3  -8  -1-11.4978 47.9434   5
  -3  -8  -1-55.9034 58.0407   3
   3   8   1-86.7934 107.164   1
   3   8   2 424.804 120.367  14
  -3  -8  -2 424.460 123.181  13
   3   8   2 555.234 151.804   1
   3   8   2 278.696 96.3736  18
  -3  -8  -2 446.475 118.094   2
  -3  -8  -2 565.216 129.894   3
  -3  -8  -2 408.045 83.4651   5
  -3  -8  -3 2366.18 253.518  13
   3   8   3 1884.46 243.454   1
  -3  -8  -3 2410.27 242.997   3
  -3  -8  -3 2111.34 235.817   2
   3   8   3 2115.32 232.559  18
  -3  -8  -3 2399.74 179.246   5
  -3  -8  -4 2582.56 250.986  12
  -3  -8  -4 2554.37 272.261   2
  -3  -8  -4 3005.74 279.164   3
   3   8   4 3022.54 294.662   1
   3   8   4 2552.25 263.294  18
  -3  -8  -4 2810.57 184.243   5
  -3  -8  -5 87.9366 59.4756  12
   3   8   5 155.713 97.6867   1
   3   8   5 152.562 85.6082  18
  -3  -8  -5 147.673 90.7456   2
  -3  -8  -5 297.825 105.532   3
  -3  -8  -6 135.382 85.6207  12
   3   8   6 214.013 106.710   6
   3   8   6 26.8867 61.1542  18
  -3  -8  -6 220.064 94.9095   2
  -3  -8  -6 190.565 104.315   3
   3   8   6 128.076 83.0829   1
   3   8   7 785.132 169.481   1
  -3  -8  -7 874.566 143.329  12
   3   8   7 872.780 151.914   6
   3   8   7 978.743 186.742  18
  -3  -8  -7 1179.07 199.586   2
  -3  -8  -7 724.656 163.465   3
   3   8   7 875.812 187.486   8
   3   8   8 558.074 135.296   6
   3   8   8 676.083 171.758  18
  -3  -8  -8 709.940 163.055   2
  -3  -8  -8 790.313 178.167   3
   3   8   8 633.714 173.189   8
  -3  -8  -8 686.545 123.569  12
   3   8   8 428.487 131.083   1
   3   8   9 329.431 107.934   6
   3   8   9 277.547 122.963  18
  -3  -8  -9 107.590 87.7361   2
   3   8   9 183.453 92.6257   1
  -3  -8  -9 55.1877 88.3220   3
   3   8   9 145.367 97.4798   8
   3   8  10 1804.96 269.431  18
  -3  -8 -10 1809.78 260.400   2
  -3  -8 -10 1588.12 257.478   3
   3   8  10 1528.75 207.099   6
   3   8  10 2132.38 288.561   8
   3   8  11 47.9256 86.9557  18
  -3  -8 -11 74.5118 111.441   2
  -3  -8 -11 180.368 125.914   9
   3   8  11-75.1892 74.4345   8
  -3  -9   6 317.109 119.789   5
   3   9  -6 88.7191 104.792  15
   3   9  -5 1536.97 252.447  14
   3   9  -5 1383.18 225.995   1
  -3  -9   5 1427.34 248.034  13
  -3  -9   5 1165.93 206.991   5
   3   9  -5 1533.45 242.489  15
   3   9  -4 1388.89 244.933   7
   3   9  -4 1068.66 217.173  14
   3   9  -4 1511.46 234.920   1
  -3  -9   4 1374.19 230.728  13
  -3  -9   4 1011.29 193.532   5
   3   9  -4 1076.99 201.982  15
   3   9  -3 182.594 90.2451   7
   3   9  -3 13.7052 73.3223  14
   3   9  -3 145.947 130.413   1
  -3  -9   3 23.4573 113.591  13
  -3  -9   3 120.589 94.2722   5
   3   9  -2 894.262 188.581   7
   3   9  -2 695.994 177.335  14
  -3  -9   2 518.577 154.049  13
  -3  -9   2 759.530 148.943   5
   3   9  -2 312.707 102.822   1
   3   9  -1 9.20624 68.2614  14
  -3  -9   1 10.3248 79.3827  13
   3   9  -1-78.7791 82.2084   1
  -3  -9   1 39.5406 69.0088   5
  -3  -9   1-7.55681 54.0576   2
  -3  -9   1 41.1898 62.1943   3
   3   9   0 1227.96 209.870  14
   3   9   0 1392.80 224.130   1
  -3  -9   0 1266.01 210.263  13
  -3  -9   0 1165.27 158.216   5
  -3  -9   0 1304.60 188.116   2
  -3  -9   0 1204.43 167.170   3
   3   9   1 513.628 142.947  14
  -3  -9  -1 301.562 118.891  13
  -3  -9  -1 736.000 150.703   2
   3   9   1 677.710 166.515   1
  -3  -9  -1 551.772 126.919   3
   3   9   1 417.831 106.863  18
  -3  -9  -2 717.251 167.244  13
   3   9   2 668.247 141.657  18
  -3  -9  -2 634.667 144.661   2
   3   9   2 585.463 161.393   1
  -3  -9  -2 776.803 149.746   3
   3   9   3 1305.29 219.636   1
  -3  -9  -3 1633.22 231.935  13
   3   9   3 1243.26 192.689  18
  -3  -9  -3 1404.72 212.180   2
  -3  -9  -3 1721.22 218.067   3
   3   9   4 1672.38 227.789  18
  -3  -9  -4 1297.35 212.015  13
  -3  -9  -4 1341.45 196.093  12
   3   9   4 1442.15 234.798   1
  -3  -9  -4 1367.07 218.536   2
  -3  -9  -4 1413.38 210.353   3
  -3  -9  -5 188.442 98.8581  12
   3   9   5 111.226 98.0925   1
   3   9   5 379.077 128.798  18
  -3  -9  -5 94.7072 90.8296   2
  -3  -9  -5 326.250 118.975   3
  -3  -9  -6-34.2599 60.9839  12
   3   9   6 79.7970 90.8262  18
   3   9   6 70.5340 112.663   1
  -3  -9  -6 173.105 121.511   2
  -3  -9  -6-2.78295 67.2689   3
  -3  -9  -7 535.419 127.531  12
   3   9   7 663.098 162.455  18
  -3  -9  -7 823.315 191.506   2
   3   9   7 685.190 159.780   1
  -3  -9  -7 587.218 156.584   3
   3   9   8 78.8129 78.4117   6
   3   9   8 1.04733 116.667   1
   3   9   8-39.6963 94.6750  18
  -3  -9  -8 96.8062 83.0256   2
  -3  -9  -8 149.338 96.9096   3
   3   9   8 1.73027 78.6282   8
   3   9   9 488.842 155.410  18
  -3  -9  -9 416.828 168.180   2
  -3  -9  -9 745.552 201.409   3
   3   9   9 593.179 173.760   1
   3   9   9 456.385 159.128   8
   3   9  10 845.464 183.404   1
   3  10  -4 224.032 97.5796   1
   3  10  -3 593.912 157.197   1
   3  10  -2 91.6465 92.5311  14
   3  10  -2 270.976 133.752   1
   3  10  -1 1295.19 229.859  14
  -3 -10   1 1194.36 217.352  13
   3  10  -1 1150.70 210.175   1
   3  10   0 1169.05 216.066  14
  -3 -10   0 880.856 187.930  13
   3  10   0 1188.02 221.367   1
  -3 -10   0 901.328 169.990   2
  -3 -10  -1 2906.87 336.411  13
  -3 -10  -1 2714.14 300.242   2
   3  10   1 2964.41 347.529   1
  -3 -10  -1 2544.35 270.826   3
  -3 -10  -2 1352.86 232.365  13
   3  10   2 1414.82 243.630   1
   3  10   2 879.624 163.664  18
  -3 -10  -2 1144.71 200.596   2
  -3 -10  -2 784.982 164.992   3
  -3 -10  -3 76.6454 113.856  13
   3  10   3 42.4408 78.1902  18
   3  10   3 89.4355 99.1857   1
  -3 -10  -3 22.9039 82.3886   2
  -3 -10  -3 138.822 93.2011   3
  -3 -10  -4 1116.04 212.430  13
   3  10   4 1232.01 225.886   1
   3  10   4 999.761 191.291  18
  -3 -10  -4 1001.38 200.241   2
  -3 -10  -4 1042.54 193.018   3
  -3 -10  -5 1591.74 255.035  13
  -3 -10  -5 1373.55 213.995  12
   3  10   5 1824.59 282.523   1
   3  10   5 1089.59 205.202  18
  -3 -10  -5 1860.44 275.036   2
  -3 -10  -5 1482.89 236.781   3
  -3 -10  -6 0.22927 68.0805  12
   3  10   6-349.157 131.495  18
   3  10   6-17.0158 87.9062   1
  -3 -10  -6-79.3460 95.6281   3
  -3 -10  -6-106.145 101.194   2
  -3 -10  -7 3934.65 398.091   3
   3  10   7 3397.45 378.842  18
   3  10   7 4303.90 420.004   1
   3  10   8 505.741 164.916   1
   3  10   9 86.4216 101.830   1
  -3 -11  -1 5163.10 443.473   2
  -3 -11  -2 2160.72 301.128   2
  -3 -11  -2 2206.85 282.017   3
   3  11   3 561.589 144.428  18
  -3 -11  -3 788.417 182.603   3
   3  11   4 173.389 110.474  18
  -3 -11  -4-37.7383 99.7023  12
  -3 -11  -4-43.0758 104.546   3
  -3 -11  -5 146.017 96.3245  12
  -4   7   4 40.7160 82.7267  21
  -4   7   4 644.567 169.104  19
  -4   7   4 431.323 138.692  17
  -4   7   4 136.940 98.1516  16
  -4   7   3 1994.81 280.296  21
  -4   7   3 2899.83 349.334  18
  -4   7   3 2406.96 294.677  17
  -4   7   3 2552.30 301.972  16
  -4   7   2-29.2789 91.1126  21
  -4   7   2 283.995 128.052  18
  -4   7   2 170.680 101.348  17
  -4   7   2 106.678 65.0569  16
  -4   7   1 6649.64 491.720  21
  -4   7   1 6278.66 478.200  18
  -4   7   1 7509.39 513.182  17
  -4   7   1 6534.48 477.012  16
  -4   7   0 1731.53 250.770  21
   4  -7   0 1641.29 235.823  20
  -4   7   0 1803.78 254.581  17
  -4   7   0 1742.05 249.165  16
  -4   7  -1 941.228 193.044  21
   4  -7   1 1292.91 209.604  20
  -4   7  -1 1295.75 222.003  17
  -4   7  -1 736.212 169.376  16
  -4   7  -2 8.93400 81.9967  21
   4  -7   2-18.4207 76.1319  20
  -4   7  -2-0.27404 83.8380  17
  -4   7  -2 134.066 98.5719  16
   4  -7   3 2020.35 262.883  11
   4  -7   3 1677.60 245.290  20
  -4   7  -3 1765.91 266.428  17
  -4   7  -3 1936.50 276.165  16
  -4   6   7 615.178 171.581  21
  -4   6   7 835.182 196.105   1
  -4   6   7 605.485 155.420  19
  -4   6   7 330.853 130.032  17
  -4   6   7 291.490 119.602  16
  -4   6   6 7.29624 76.3008  21
  -4   6   6-36.6333 88.2942  17
  -4   6   6-62.5919 105.225   1
  -4   6   6-25.8229 73.4529  16
  -4   6   6 1.66204 62.0283  19
  -4   6   6 28.5153 72.5291   8
  -4   6   5 277.838 135.382   1
  -4   6   5-99.9939 110.106  21
  -4   6   5 94.5566 94.4521  18
  -4   6   5-112.863 124.131  17
  -4   6   5-4.52550 81.4976  19
  -4   6   5 148.007 92.8937  16
   4  -6  -5 56.7055 118.495   3
  -4   6   5-64.9985 67.9527   8
  -4   6   4 3595.32 384.974   1
  -4   6   4 2578.61 304.922  21
  -4   6   4 2923.11 319.388  19
   4  -6  -4 3585.73 387.544   3
  -4   6   4 2538.28 318.097  18
  -4   6   4 2654.46 308.412  17
  -4   6   4 2659.31 302.890  16
  -4   6   4 2606.53 290.592   8
  -4   6   3 478.381 153.714   1
  -4   6   3 446.280 142.200  18
  -4   6   3 415.841 131.799  17
  -4   6   3 223.998 106.216  16
  -4   6   3 510.168 137.488  21
  -4   6   3 400.941 118.707   8
   4  -6  -3 458.225 159.240   3
  -4   6   2 1336.50 238.477   1
  -4   6   2 818.028 166.489  21
  -4   6   2 888.557 160.377  10
  -4   6   2 763.827 175.638  18
  -4   6   2 924.293 180.130  17
  -4   6   2 710.607 158.435  16
  -4   6   2 1158.93 181.453   8
  -4   6   1 2337.80 301.518   1
  -4   6   1 2136.58 270.718  21
  -4   6   1 2181.62 240.439  10
  -4   6   1 2013.34 264.036  18
  -4   6   1 2812.93 303.206  17
   4  -6  -1 2128.31 250.545  20
  -4   6   1 2278.19 268.113  16
   4  -6  -1 2622.65 321.197   3
  -4   6   0 1638.56 262.775   1
  -4   6   0 1560.01 230.518  21
   4  -6   0 1540.08 214.631  20
  -4   6   0 1570.08 205.512  10
  -4   6   0 1377.93 207.536  18
  -4   6   0 1457.54 223.970  17
  -4   6   0 1807.01 244.171  16
   4  -6   1 296.644 134.930   3
  -4   6  -1 61.8562 92.5700   1
  -4   6  -1 103.237 77.3791  21
   4  -6   1 128.388 84.6663  20
  -4   6  -1 144.956 99.6658  17
  -4   6  -1 157.609 94.4004  10
  -4   6  -1 105.531 99.2472  16
  -4   6  -2 3117.99 354.130   1
   4  -6   2 2842.01 290.052  20
  -4   6  -2 2958.94 279.631  10
   4  -6   2 2869.48 335.323   3
  -4   6  -2 2782.30 303.995  17
  -4   6  -2 2817.01 304.060  16
   4  -6   3 919.678 197.608   3
  -4   6  -3 496.210 164.512   1
   4  -6   3 429.319 127.289  20
   4  -6   3 536.190 134.351  11
  -4   6  -3 318.671 100.478  10
  -4   6  -3 384.921 142.833  17
  -4   6  -3 434.799 129.896  16
   4  -6   4 1806.84 269.004   3
  -4   6  -4 1848.60 280.097   1
   4  -6   4 2250.53 261.181  11
   4  -6   4 2076.58 269.499  20
  -4   6  -4 1518.21 214.411  10
  -4   6  -4 1911.70 269.175  17
  -4   6  -4 1600.76 241.266  16
   4  -6   5 1428.52 206.214  11
   4  -6   5 1840.41 253.699  19
   4  -6   5 2155.51 297.198   3
   4  -6   5 1748.22 251.577  20
  -4   6  -5 1664.27 262.950   1
  -4   6  -5 1441.55 245.775  17
  -4   6  -5 1298.86 226.380  16
   4  -6   6 197.585 111.080   3
   4  -6   6 286.868 109.875  20
  -4   6  -6 424.340 145.740   1
   4  -6   6 489.334 130.407  11
   4  -6   6 392.660 138.952  19
  -4   6  -6 265.688 103.928  17
  -4   6  -6 640.360 175.214  16
  -4   6  -7-30.3615 91.0868   1
  -4   5   8 230.975 135.955  21
  -4   5   8-45.3667 127.326  19
  -4   5   8 83.7794 93.1996  17
  -4   5   8 182.510 95.3936  16
   4  -5  -8 251.006 110.699   3
  -4   5   8 103.698 100.143   8
  -4   5   7-2.33912 80.4006   1
  -4   5   7 135.814 105.911  21
  -4   5   7-30.2215 95.2326  19
  -4   5   7-137.658 104.143  18
  -4   5   7 101.661 77.7368  17
  -4   5   7 25.1981 79.2072  16
   4  -5  -7 95.8373 93.3024   3
  -4   5   7-29.7646 96.7896   8
  -4   5   6 589.307 151.678   1
  -4   5   6 635.252 158.518  18
  -4   5   6 648.545 154.113  17
  -4   5   6 538.339 153.214  19
  -4   5   6 609.762 154.898  21
  -4   5   6 616.499 151.976  16
   4  -5  -6 760.773 177.672   3
  -4   5   6 532.536 144.279   8
  -4   5   5 200.727 115.722   1
  -4   5   5 34.5743 76.1294  21
  -4   5   5-1.47803 77.0394  19
  -4   5   5 15.6225 96.3916  18
  -4   5   5-97.8558 102.365  17
  -4   5   5-15.8735 81.2836  16
   4  -5  -5-36.8490 92.1731   3
  -4   5   5 44.4543 71.7771   8
  -4   5   4 27.8285 100.448   1
  -4   5   4-71.7973 89.1575  21
  -4   5   4 141.547 98.6812  19
  -4   5   4-26.2558 88.8186  17
  -4   5   4 48.9059 66.0115  16
   4  -5  -4 3.07233 72.1976   3
  -4   5   4 2.70209 79.4077   8
  -4   5   4-33.6710 66.6706  18
  -4   5   3 535.041 162.409   1
  -4   5   3 734.400 168.139  18
  -4   5   3 625.516 154.444  17
  -4   5   3 607.415 142.839  21
  -4   5   3 601.342 145.267  16
  -4   5   3 476.841 115.939   8
   4  -5  -3 669.892 161.994   3
  -4   5   2 743.315 177.315   1
  -4   5   2 866.351 172.434  21
  -4   5   2 713.238 142.265  10
  -4   5   2 569.343 145.675  18
  -4   5   2 791.722 166.528  17
  -4   5   2 564.771 132.706  16
  -4   5   2 745.942 133.428   8
   4  -5  -2 1012.94 193.706   3
  -4   5   1 5666.77 449.360   1
   4  -5  -1 5534.08 386.501  20
  -4   5   1 5791.15 384.209  10
   4  -5  -1 6696.80 472.552   3
  -4   5   1 5365.95 402.693  18
  -4   5   1 6134.30 425.914  17
  -4   5   1 5600.46 405.263  16
  -4   5   1 5902.16 356.959   8
  -4   5   1 6485.96 437.650  21
  -4   5   0 45.6264 79.4871   1
  -4   5   0 139.569 85.6819  21
  -4   5   0 128.598 74.8096  10
   4  -5   0 71.6493 69.3020  20
  -4   5   0-54.6886 83.7395  18
  -4   5   0 225.323 105.029  17
  -4   5   0 13.3368 74.2854  16
   4  -5   0-78.7066 105.917   3
   4  -5   1 18.5627 100.088   3
  -4   5  -1 221.151 102.183   1
  -4   5  -1 168.568 81.0682  21
   4  -5   1 179.605 90.1970  20
  -4   5  -1 203.101 92.0697  10
  -4   5  -1 81.9376 62.4039  18
  -4   5  -1 189.064 105.070  17
  -4   5  -1 165.519 90.8103  16
   4  -5   2-21.5847 109.780   3
  -4   5  -2 98.5940 101.995   1
   4  -5   2 261.942 103.010  20
  -4   5  -2 107.577 80.3722  10
  -4   5  -2-16.8648 50.6080  18
  -4   5  -2-32.6487 87.4106  17
  -4   5  -2-63.3490 95.6838  16
   4  -5   3 64.0342 109.827   3
  -4   5  -3-76.3684 90.6642   1
   4  -5   3 66.0769 70.5207  11
   4  -5   3 13.1183 62.0120  13
  -4   5  -3 7.33986 66.9191  10
   4  -5   3-80.1680 71.5983  20
  -4   5  -3-52.1684 82.1401  17
  -4   5  -3-21.3309 85.7042  16
   4  -5   4-25.1691 85.6082   3
  -4   5  -4 175.440 109.836   1
   4  -5   4 37.8993 66.0421  11
   4  -5   4-20.0462 82.8596  20
   4  -5   4 161.175 79.4154  19
  -4   5  -4 84.0644 75.0754  10
  -4   5  -4-24.2989 83.6596  17
  -4   5  -4 39.1982 90.8881  16
  -4   5  -5 11884.1 659.263   1
   4  -5   5 12539.4 652.809  19
   4  -5   5 11987.7 603.094  11
   4  -5   5 12518.2 651.308  20
   4  -5   5 12200.6 677.767   3
  -4   5  -5 12481.8 678.858  17
  -4   5  -5 11966.5 653.207  16
  -4   5  -5 10733.2 576.718  10
   4  -5   6 2431.94 252.129   4
   4  -5   6 2356.78 298.605   3
  -4   5  -6 2605.56 295.599   1
   4  -5   6 2896.13 285.158  11
   4  -5   6 2419.96 286.698  19
  -4   5  -6 2220.95 257.686  10
   4  -5   6 2081.84 263.385  20
  -4   5  -6 2435.67 300.826  17
  -4   5  -6 2277.91 287.000  16
   4  -5   7 156.232 112.468   3
   4  -5   7-43.2072 85.4278   4
  -4   5  -7 283.691 114.154   1
   4  -5   7-90.8647 123.509  11
   4  -5   7 68.3367 85.7801  20
   4  -5   7 184.196 97.9267  19
  -4   5  -7 9.13625 79.6262  10
  -4   5  -7 98.9348 97.7813  17
  -4   5  -7 43.3463 93.4636  16
   4  -5   8 253.271 123.755   4
  -4   5  -8 294.157 104.064  10
   4  -5   9 281.845 117.465   4
  -4   5  -9 247.083 123.973  10
   4  -4 -10 269.334 112.780   3
  -4   4   9 5650.62 469.665  21
  -4   4   9 5016.78 449.947  19
   4  -4  -9 5051.13 430.941   3
  -4   4   9 4319.32 407.472  17
  -4   4   9 4608.31 416.609  16
  -4   4   9 4837.32 443.854   8
  -4   4   8 351.189 136.261  21
  -4   4   8 638.107 171.926  19
  -4   4   8 547.884 172.833  18
  -4   4   8 326.165 144.028  17
  -4   4   8 421.972 122.127   1
  -4   4   8 385.331 145.066  16
   4  -4  -8 163.264 105.761   3
  -4   4   8 524.005 150.715   8
  -4   4   7 237.427 103.861   1
  -4   4   7 79.4470 71.4576  21
  -4   4   7 65.2733 97.0786  19
  -4   4   7 174.093 123.002  18
  -4   4   7 91.0614 87.3385  17
  -4   4   7 114.502 96.7177  16
   4  -4  -7 88.8877 96.6855   3
  -4   4   7 348.655 124.137   8
  -4   4   6 39.3221 74.4608   1
  -4   4   6-11.9737 84.4861  21
  -4   4   6 129.033 80.9548  19
  -4   4   6 106.920 118.784  18
  -4   4   6-18.2440 107.363  17
  -4   4   6 123.557 91.0259  16
   4  -4  -6-62.0719 93.8465   3
  -4   4   6 51.0918 65.8214   8
  -4   4   5 2060.91 253.780   1
  -4   4   5 1896.02 242.422  21
  -4   4   5 2054.11 256.117  19
  -4   4   5 2306.77 284.572  18
  -4   4   5 2193.76 257.302  17
  -4   4   5 1969.50 243.434  16
   4  -4  -5 1987.58 246.076   3
  -4   4   5 2001.34 234.282   8
  -4   4   4 251.212 108.951  21
  -4   4   4 80.0500 75.8297  19
  -4   4   4 157.351 91.3465  18
  -4   4   4 204.502 101.727  17
  -4   4   4 85.1926 74.9156  16
   4  -4  -4 123.545 98.6841   3
  -4   4   4 193.313 90.3933   8
  -4   4   4 335.482 133.228   1
  -4   4   3 4822.48 366.054  21
  -4   4   3 5368.85 370.752  10
   4  -4  -3 5902.23 415.271   3
  -4   4   3 4985.31 389.150  18
  -4   4   3 4808.74 370.385  17
  -4   4   3 5692.83 389.958  16
  -4   4   3 6020.82 367.585   8
  -4   4   3 5541.26 411.395   1
  -4   4   2 605.099 139.689  18
  -4   4   2 354.740 115.622  21
  -4   4   2 501.711 115.513  10
  -4   4   2 627.333 140.775  17
  -4   4   2 560.837 125.699  16
  -4   4   2 613.747 154.361   1
  -4   4   2 566.575 111.773   8
   4  -4  -2 773.492 154.784   3
   4  -4  -1 5.68312 77.2775  20
  -4   4   1 185.882 94.6394  21
  -4   4   1 315.709 107.319  10
  -4   4   1 125.925 79.0637  17
  -4   4   1 120.575 96.5133   1
  -4   4   1 155.791 96.2160  16
  -4   4   1 132.162 83.1823  18
  -4   4   1 25.4925 46.9539   8
   4  -4  -1 79.5373 80.0961   3
  -4   4   0-78.9076 77.1484  21
   4  -4   0 64.7551 70.3159  20
   4  -4   0 42.3348 39.3802   6
  -4   4   0-68.7861 79.0058  10
  -4   4   0 94.3434 76.6097  18
  -4   4   0 0.18922 71.4189  17
  -4   4   0 24.6711 99.7420   1
  -4   4   0 4.26247 67.2513  16
  -4   4   0 18.2176 43.1684   8
   4  -4   0-69.8593 82.2951   3
   4  -4   1 859.920 164.365   3
   4  -4   1 1222.24 178.519  20
  -4   4  -1 1110.75 161.427  10
  -4   4  -1 1272.71 169.231  18
  -4   4  -1 691.513 148.814  17
  -4   4  -1 1241.18 193.643   1
  -4   4  -1 990.541 168.305  16
   4  -4   1 1232.16 121.403   4
   4  -4   2 1784.28 234.419   3
   4  -4   2 1972.05 223.234  20
  -4   4  -2 1936.85 213.379  10
  -4   4  -2 1807.47 191.074  18
  -4   4  -2 1485.96 204.788  17
  -4   4  -2 1801.68 238.052   1
  -4   4  -2 1924.20 227.670  16
   4  -4   2 1847.95 161.721   4
  -4   4  -3 4034.12 313.133  10
   4  -4   3 4934.48 286.535  13
   4  -4   3 4554.54 345.991  20
   4  -4   3 4556.16 343.370  19
  -4   4  -3 4555.73 289.048  18
   4  -4   3 4200.11 351.198   3
  -4   4  -3 4679.00 360.056  17
  -4   4  -3 4396.85 352.222  16
  -4   4  -3 4165.18 357.004   1
   4  -4   3 4441.88 276.568   4
   4  -4   4 215.534 86.5504   4
   4  -4   4-31.2241 75.5104  20
   4  -4   4 45.5545 90.4153   3
   4  -4   4 184.529 61.8879  13
   4  -4   4 193.743 104.442  19
  -4   4  -4 21.4690 61.3784  10
   4  -4   4 88.2566 67.6582  11
  -4   4  -4 131.809 75.6796  17
  -4   4  -4 74.4135 75.5660  16
  -4   4  -4 102.597 104.784   1
  -4   4  -5 31.7637 82.7050   1
   4  -4   5 59.0125 101.852   3
   4  -4   5 114.424 58.2687  11
   4  -4   5 87.7036 68.6399   4
   4  -4   5-1.89557 86.1961  19
   4  -4   5 66.5138 85.0137  20
  -4   4  -5 46.2523 66.2990  10
  -4   4  -5-87.2825 98.1280  17
  -4   4  -5 10.9217 75.4733  16
   4  -4   6 8797.59 484.703   4
  -4   4  -6 7804.03 492.609   1
   4  -4   6 9038.82 531.594  20
   4  -4   6 8305.74 480.219  11
   4  -4   6 8883.04 530.841  19
   4  -4   6 9190.06 553.659   3
  -4   4  -6 8796.54 505.759   9
  -4   4  -6 9169.06 560.520  17
  -4   4  -6 8668.12 497.512  10
  -4   4  -6 9409.77 556.172  16
   4  -4   7 2100.46 245.188   4
  -4   4  -7 1802.02 235.011   1
   4  -4   7 1760.08 246.131  19
   4  -4   7 1594.10 227.059  20
  -4   4  -7 1482.17 213.206  10
  -4   4  -7 1063.54 187.944   9
  -4   4  -7 1702.77 249.846  17
   4  -4   7 1581.31 202.844  11
  -4   4  -7 1563.94 236.089  16
  -4   4  -8 1171.58 197.737   1
   4  -4   8 1294.60 203.836   4
   4  -4   8 1432.28 231.996  20
   4  -4   8 1205.91 188.490  11
   4  -4   8 1613.19 241.477  19
  -4   4  -8 1179.73 201.507  10
  -4   4  -8 857.828 170.028   9
  -4   4  -8 1273.60 230.544  17
  -4   4  -8 1279.54 228.874  16
   4  -4   9 951.596 202.350  20
   4  -4   9 850.754 160.775  11
   4  -4   9 1015.94 199.985  19
   4  -4   9 987.292 188.770   4
  -4   4  -9 685.860 164.933  10
  -4   4  -9 541.269 133.074   9
  -4   4  -9 1284.73 230.547  16
   4  -4  10 304.449 126.310   4
  -4   4 -10 103.403 91.5430  10
  -4   3  10 265.060 128.297  20
   4  -3 -10 130.268 121.132   7
  -4   3  10 229.528 125.845  21
  -4   3  10 45.1715 116.949  19
  -4   3  10 207.417 114.200  17
  -4   3  10 267.226 120.722  16
   4  -3  -9 6608.97 528.088   7
  -4   3   9 7937.18 556.723  19
  -4   3   9 7637.59 562.793  18
  -4   3   9 8994.74 577.570  17
  -4   3   9 7418.20 531.856  21
  -4   3   9 7505.76 532.177  16
   4  -3  -9 7279.82 483.534   3
  -4   3   9 7875.48 551.427   8
  -4   3   8 8911.73 491.380   1
  -4   3   8 8790.70 558.005  21
  -4   3   8 7898.48 532.977  19
   4  -3  -8 8813.22 519.201   3
  -4   3   8 8007.20 570.021  18
  -4   3   8 7922.62 530.896  17
  -4   3   8 8524.33 545.805  16
  -4   3   8 7791.36 529.749   8
  -4   3   7 1291.54 183.387   1
  -4   3   7 1372.76 215.210  21
  -4   3   7 1783.94 251.078  19
  -4   3   7 1244.80 216.200  18
  -4   3   7 1240.97 208.148  17
   4  -3  -7 1260.02 184.713   3
  -4   3   7 1418.55 212.312  16
  -4   3   7 1538.93 223.473   8
  -4   3   6 8.97587 67.4031  21
  -4   3   6-40.3903 95.8434  19
  -4   3   6 74.2449 103.241  18
  -4   3   6-7.19314 75.0133  17
  -4   3   6-13.8693 86.0393  16
   4  -3  -6 53.4385 78.9995   3
  -4   3   6 20.0644 78.6526   1
  -4   3   6-3.91029 65.4277   8
  -4   3   5-9.41911 58.3122  21
  -4   3   5-24.6181 85.5828  19
  -4   3   5-45.9952 85.2980  18
  -4   3   5 15.5013 64.9695  17
  -4   3   5 17.0054 77.7605   1
  -4   3   5-3.78758 70.9529  16
   4  -3  -5 54.6777 74.0257   3
  -4   3   5-25.9484 61.0823   8
  -4   3   4 3644.25 313.352  21
  -4   3   4 3875.84 324.454  19
   4  -3  -4 3868.91 312.968   3
  -4   3   4 3502.75 326.397  18
  -4   3   4 3790.38 317.815  17
  -4   3   4 3653.82 306.064  16
  -4   3   4 3822.78 292.414   8
  -4   3   4 3748.98 315.974   1
  -4   3   3 5388.41 373.872  21
  -4   3   3 5766.05 372.985  10
   4  -3  -3 6559.94 403.322   3
  -4   3   3 5677.26 407.658  18
  -4   3   3 5586.47 251.170   5
  -4   3   3 5846.37 385.302  17
  -4   3   3 5998.77 387.153  16
  -4   3   3 5332.74 333.116   8
  -4   3   3 5745.57 389.345   1
  -4   3   2 1003.42 161.595  21
  -4   3   2 1192.21 164.377  10
  -4   3   2 1108.87 178.523  18
  -4   3   2 847.719 160.502   1
  -4   3   2 769.843 142.288  17
  -4   3   2 1019.95 163.283  16
   4  -3  -2 1072.42 170.397   3
  -4   3   2 930.618 130.016   8
  -4   3   1 623.882 132.148  21
   4  -3  -1 417.455 106.143  20
   4  -3  -1 502.044 50.7737   6
  -4   3   1 429.675 106.116  10
  -4   3   1 376.522 113.955  18
  -4   3   1 604.055 139.300   1
  -4   3   1 715.345 139.703  17
  -4   3   1 421.245 110.814  16
  -4   3   1 482.291 86.3904   8
   4  -3  -1 600.528 143.640   3
  -4   3   0 1887.27 156.920   4
  -4   3   0 2423.96 238.704  21
   4  -3   0 2028.85 204.132  20
   4  -3   0 2321.45 144.623   6
  -4   3   0 2350.36 218.153  10
   4  -3   0 2233.13 237.307   3
  -4   3   0 1856.50 204.394  18
  -4   3   0 1908.91 216.703  17
  -4   3   0 2124.95 238.476   1
  -4   3   0 2579.41 240.245  16
  -4   3   0 1991.79 164.003   8
   4  -3   0 2412.22 161.592   4
  -4   3  -1 3157.88 254.091  10
   4  -3   1 3221.57 278.791   3
  -4   3  -1 2893.02 244.879  18
  -4   3  -1 3086.40 271.183  17
   4  -3   1 3576.49 270.881  20
  -4   3  -1 2832.65 259.466  16
  -4   3  -1 2903.89 183.008   8
  -4   3  -1 3209.66 287.899   1
   4  -3   1 3175.88 200.239   4
   4  -3   2 60.0140 87.7061   3
   4  -3   2 14.2978 47.9018   4
   4  -3   2 6.61492 62.8611  20
  -4   3  -2 26.3676 56.6014  10
  -4   3  -2 17.5061 56.5339  18
  -4   3  -2 90.2190 78.9257   1
  -4   3  -2 33.6243 75.6661  17
  -4   3  -2 12.0099 70.6880  16
  -4   3  -3 4138.64 300.545  10
   4  -3   3 3813.34 286.725  11
   4  -3   3 4272.17 311.669  20
   4  -3   3 4332.59 316.065  19
  -4   3  -3 4140.46 266.087  18
   4  -3   3 3900.07 319.725   3
  -4   3  -3 4473.51 331.689  17
  -4   3  -3 3994.55 315.729  16
  -4   3  -3 4379.02 337.061   1
   4  -3   3 4093.59 262.246   4
   4  -3   4 23.1921 78.4266  19
   4  -3   4 11.2254 89.0313   3
  -4   3  -4 123.988 59.8348  18
   4  -3   4 165.407 57.2627  13
   4  -3   4 93.9022 81.8827  11
   4  -3   4 30.1551 75.5544  20
  -4   3  -4 99.5525 66.6822  10
  -4   3  -4 163.200 80.4990   9
   4  -3   4 112.948 64.6014   4
  -4   3  -4-26.5873 83.1958  17
  -4   3  -4-114.386 102.304   1
  -4   3  -4 114.138 86.9060  16
   4  -3   5-53.5943 91.7284   3
   4  -3   5 57.3816 34.5767  13
   4  -3   5 33.6419 61.0840  11
   4  -3   5 39.4000 58.6191  20
   4  -3   5 0.18693 61.2566  19
  -4   3  -5 86.6890 66.8507  10
  -4   3  -5 70.0752 48.2739  18
  -4   3  -5 124.583 72.6857   9
  -4   3  -5 154.660 87.3366  17
  -4   3  -5 55.6895 85.7621   1
   4  -3   5 34.6971 67.1298   4
  -4   3  -5 47.7166 70.8343  16
   4  -3   6 221.218 119.567   3
   4  -3   6 289.234 108.703   4
   4  -3   6 390.739 122.169  20
   4  -3   6 315.838 99.3515  11
   4  -3   6 210.274 101.599  19
  -4   3  -6 185.571 89.0730  10
  -4   3  -6 145.759 95.0112   9
  -4   3  -6 167.255 101.578  17
  -4   3  -6 149.060 88.6055   1
  -4   3  -6 232.815 106.007  16
   4  -3   7 1073.73 167.354  11
   4  -3   7 1138.87 187.951  19
   4  -3   7 1249.06 191.454  20
  -4   3  -7 1183.92 182.286  10
  -4   3  -7 1330.20 190.142   9
   4  -3   7 1609.90 203.799   4
  -4   3  -7 1203.97 198.783  16
  -4   3  -7 1309.58 189.739   1
  -4   3  -8 2092.22 230.999   1
   4  -3   8 2119.03 253.542   4
   4  -3   8 2322.63 281.374  20
   4  -3   8 2054.92 233.429  11
   4  -3   8 2022.17 256.594  19
  -4   3  -8 2458.56 270.607  10
  -4   3  -8 2410.31 254.657   9
  -4   3  -8 1935.43 261.075  16
   4  -3   9 2164.61 271.455   4
   4  -3   9 1908.30 235.043  11
   4  -3   9 2752.72 306.269  19
  -4   3  -9 2569.37 285.251  10
   4  -3   9 2433.12 292.489  20
  -4   3  -9 1960.51 240.544   9
  -4   3  -9 2516.92 300.756  16
   4  -3  10 437.186 143.900   4
   4  -3  10 404.113 137.423  20
   4  -3  10 511.465 128.539  11
  -4   3 -10 828.608 177.162  10
  -4   3 -10 526.677 133.952   9
  -4   3 -10 506.653 156.666  16
   4  -3  10 413.321 127.094  19
   4  -3  11 649.760 155.946  11
  -4   3 -11 706.389 183.624  10
  -4   3 -11 471.141 142.672   9
   4  -2 -10 612.896 174.341   7
  -4   2  10 504.433 156.033  20
  -4   2  10 253.465 84.6935  19
  -4   2  10 694.831 176.390  18
  -4   2  10 383.968 140.324  17
  -4   2  10 673.361 179.702  16
  -4   2  10 638.693 166.536  21
  -4   2  10 532.968 158.125   8
  -4   2   9-76.2118 117.397  21
   4  -2  -9 151.361 116.106   7
  -4   2   9-0.27748 94.3042  20
  -4   2   9-51.9743 93.1563  19
  -4   2   9-98.6567 114.630  18
  -4   2   9 189.295 105.915  17
   4  -2  -9 199.821 95.9359   3
  -4   2   9 81.6706 89.1707  16
  -4   2   9 68.3230 91.1814   8
  -4   2   8 805.168 171.592  21
  -4   2   8 628.049 156.436  19
   4  -2  -8 555.775 144.449   7
  -4   2   8 464.313 150.627  18
  -4   2   8 742.940 170.218  17
   4  -2  -8 554.849 126.529   3
  -4   2   8 616.474 157.459  16
  -4   2   8 822.864 142.892   1
  -4   2   8 693.526 154.375   8
  -4   2   7 295.350 105.549  21
  -4   2   7-14.3443 94.2217  19
  -4   2   7 203.385 110.319  18
  -4   2   7 216.808 109.353  17
  -4   2   7 291.525 74.3140   5
  -4   2   7 224.036 88.2853   1
   4  -2  -7 160.456 88.7049   3
  -4   2   7 284.843 117.581  16
  -4   2   7-50.3546 85.7210   8
  -4   2   6 202.840 101.769  18
  -4   2   6 171.997 94.4273  21
  -4   2   6 18.5124 68.6015  19
  -4   2   6 66.1930 68.3669  17
  -4   2   6 81.6722 85.3346   1
  -4   2   6 90.7514 51.8147   5
   4  -2  -6 141.799 91.6090   3
  -4   2   6 225.038 93.5605  16
  -4   2   6 101.392 85.4976   8
  -4   2   5 802.858 161.876  18
  -4   2   5 368.671 119.342  21
  -4   2   5 576.174 126.414  19
  -4   2   5 552.042 132.988  17
  -4   2   5 514.166 90.6489   5
  -4   2   5 439.453 113.955  16
   4  -2  -5 708.299 133.835   3
  -4   2   5 604.177 126.859   8
  -4   2   4 173.337 94.0572  21
  -4   2   4 62.6245 80.4258  19
  -4   2   4-25.4188 76.2691  18
  -4   2   4 1.58196 66.7117  17
  -4   2   4 58.5430 43.0105   5
  -4   2   4 25.0996 72.1633  16
   4  -2  -4 119.995 81.1790   3
  -4   2   4 135.991 80.4356   8
  -4   2   3 4959.66 341.146  21
   4  -2  -3 4500.30 242.117  12
  -4   2   3 4641.08 318.860  10
   4  -2  -3 4402.50 307.603   3
  -4   2   3 4863.73 244.794   5
  -4   2   3 4895.96 340.783  17
  -4   2   3 5072.16 338.055  16
  -4   2   3 4928.62 302.646   8
  -4   2   3 5224.21 251.881   4
  -4   2   2 1097.39 162.482  21
  -4   2   2 1316.57 176.470  17
  -4   2   2 1283.56 167.257  10
  -4   2   2 1465.78 148.465   8
  -4   2   2 1236.52 164.896  16
   4  -2  -2 1500.48 178.895   3
  -4   2   2 1253.44 117.948   4
   4  -2  -1 2.45337 30.7455   4
  -4   2   1-38.2571 56.5962  21
  -4   2   1 25.0510 35.2583   4
   4  -2  -1 128.635 70.9241  20
  -4   2   1 20.5307 54.7596  10
  -4   2   1 0.15101 71.5786  17
   4  -2  -1-4.27054 14.6659   6
  -4   2   1-13.8996 62.2857  16
  -4   2   1 56.2939 50.8985   8
   4  -2  -1 66.4839 69.9810   3
  -4   2   0 3108.01 194.147   4
   4  -2   0 3043.25 239.943  20
   4  -2   0 3170.13 161.296   6
  -4   2   0 2756.51 228.344  10
   4  -2   0 3106.66 251.391   3
  -4   2   0 2988.45 250.103  17
  -4   2   0 2902.11 244.221  16
  -4   2   0 3234.25 188.145   8
  -4   2   0 2944.49 249.630  21
   4  -2   0 2912.44 185.484   4
   4  -2   1 983.356 151.348   3
   4  -2   1 1275.67 115.933   6
   4  -2   1 1043.79 142.700  20
  -4   2  -1 1195.34 154.894  10
  -4   2  -1 983.913 145.199  17
  -4   2  -1 1278.24 104.173   8
  -4   2  -1 1203.02 154.397  16
   4  -2   1 1351.07 127.332   4
   4  -2   2 215.757 86.6850   3
   4  -2   2 420.924 72.5181  14
   4  -2   2 397.766 79.5082   4
   4  -2   2 253.201 91.4079  20
   4  -2   2 455.319 103.566  19
   4  -2   2 392.985 75.2098   6
  -4   2  -2 372.093 98.2601  10
  -4   2  -2 257.794 89.6650  17
  -4   2  -2 346.702 99.8235  16
   4  -2   3 69.7625 88.0115   3
   4  -2   3-26.6737 34.1886  14
   4  -2   3 38.4341 52.4652   4
   4  -2   3 61.0012 65.7556  20
   4  -2   3 57.9088 75.3296  19
  -4   2  -3-21.0587 70.0150  10
   4  -2   3-33.7970 64.5968  11
  -4   2  -3-31.4652 67.4608   9
  -4   2  -3 4.59157 69.5849  17
  -4   2  -3-94.6285 86.1302  16
   4  -2   4 758.855 79.4071  14
   4  -2   4 842.313 150.355   3
   4  -2   4 678.294 74.5186  13
   4  -2   4 854.369 127.496   4
   4  -2   4 797.619 133.573  11
   4  -2   4 520.224 118.012  20
   4  -2   4 640.096 132.932  19
  -4   2  -4 681.533 125.756  10
  -4   2  -4 789.423 137.369   9
  -4   2  -4 659.317 127.604  17
  -4   2  -4 808.016 143.952  16
   4  -2   5 206.718 106.746   3
   4  -2   5 134.374 38.2769  13
   4  -2   5 63.5544 66.9520   4
   4  -2   5 123.547 74.1963  20
   4  -2   5 45.6484 61.7933  11
  -4   2  -5 131.253 83.0867  10
  -4   2  -5 87.0271 76.1204   9
  -4   2  -5 131.396 68.0089  17
   4  -2   5 243.233 93.0775  19
  -4   2  -5 10.3379 64.7036  16
   4  -2   6 1138.96 163.740   4
   4  -2   6 1117.14 167.477  19
   4  -2   6 1096.68 156.846  11
   4  -2   6 1101.95 164.097  20
  -4   2  -6 923.579 147.940  10
  -4   2  -6 1100.83 165.957   9
  -4   2  -6 1021.35 176.900  16
   4  -2   7 563.264 129.722   4
   4  -2   7 725.142 154.020  20
   4  -2   7 785.913 141.710  11
   4  -2   7 754.876 147.268  19
  -4   2  -7 927.523 163.281  10
  -4   2  -7 687.099 134.839   9
  -4   2  -7 796.355 139.890   1
  -4   2  -7 617.935 137.321  16
   4  -2   8 584.283 151.761  20
   4  -2   8 374.258 112.985   4
   4  -2   8 580.818 126.595  11
   4  -2   8 507.729 143.471  19
  -4   2  -8 152.868 72.5645  10
  -4   2  -8 456.898 121.365   9
  -4   2  -8 291.907 93.7694   1
  -4   2  -8 446.758 137.560  16
   4  -2   9 450.228 127.889  20
   4  -2   9 593.846 146.546  21
   4  -2   9 419.697 113.625  11
   4  -2   9 527.468 139.198  19
  -4   2  -9 442.199 131.104  10
  -4   2  -9 409.645 119.922   9
   4  -2   9 610.417 172.181   4
  -4   2  -9 451.311 144.305  16
  -4   2  -9 417.536 98.5730   1
   4  -2  10 32.2372 103.098  20
   4  -2  10-45.3993 87.6154  21
   4  -2  10 2.28218 81.6330  11
   4  -2  10 46.7423 76.4328  19
  -4   2 -10-48.8643 89.6059  10
  -4   2 -10 50.8135 71.7292   9
   4  -2  10 30.9146 97.1768   4
  -4   2 -10-88.0434 97.2888  16
   4  -2  11 346.860 132.033  21
   4  -2  11 47.2691 90.2106   4
   4  -2  11 219.122 116.882  20
   4  -2  11 194.863 95.3437  19
  -4   2 -11 461.568 139.561  10
   4  -2  11 178.842 79.2620  11
  -4   2 -11 298.662 107.778   9
  -4   2 -11 38.1665 113.380  16
   4  -2  12 473.835 138.295  11
  -4   2 -12 359.256 125.943   9
   4  -1 -11-6.53447 90.1477  15
   4  -1 -11 165.560 111.202   7
  -4   1  11-148.061 113.527  18
   4  -1 -10 743.088 172.816  15
   4  -1 -10 785.703 181.391   7
  -4   1  10 561.027 160.516  21
  -4   1  10 481.088 158.414  20
  -4   1  10 644.553 173.811  19
  -4   1  10 490.409 150.212  18
  -4   1  10 572.192 163.688  17
  -4   1  10 830.085 185.779  16
  -4   1  10 520.985 152.065   8
   4  -1  -9 2432.19 297.745   7
  -4   1   9 3384.57 341.156  21
  -4   1   9 3499.70 357.232  19
  -4   1   9 3098.34 270.416   5
  -4   1   9 2981.69 325.539  18
  -4   1   9 3230.32 333.406  17
  -4   1   9 3305.15 336.011  16
  -4   1   9 3100.04 334.608  20
  -4   1   9 3187.55 329.774   8
   4  -1  -8-30.7821 96.7449   7
  -4   1   8 185.482 113.505  21
  -4   1   8-17.2349 91.8303  19
  -4   1   8 84.4327 86.3054  18
  -4   1   8 97.7629 87.5940  17
  -4   1   8 54.6311 50.2200   5
   4  -1  -8 180.932 80.1510   3
  -4   1   8 35.9104 111.366  16
  -4   1   7 1029.64 178.176  21
  -4   1   7 1064.51 182.729  19
   4  -1  -7 1069.65 193.911   7
  -4   1   7 898.478 175.260  18
  -4   1   7 1101.85 180.865  17
  -4   1   7 771.770 120.400   5
   4  -1  -7 1173.00 151.637   3
  -4   1   7 824.657 166.496  16
  -4   1   6 535.048 136.139  21
  -4   1   6 224.924 108.235  19
  -4   1   6 484.133 139.969  18
  -4   1   6 519.146 124.211  17
   4  -1  -6 432.092 144.111   7
  -4   1   6 388.029 81.8209   5
  -4   1   6 369.084 125.989  16
   4  -1  -6 408.117 103.172   3
  -4   1   5 1095.61 167.425  21
  -4   1   5 1000.61 165.603  19
  -4   1   5 1251.76 176.513  17
  -4   1   5 1178.76 131.474   5
  -4   1   5 1083.78 166.020  16
   4  -1  -5 1391.99 158.987   3
   4  -1  -4 3251.83 171.707  12
  -4   1   4 3691.43 292.394  19
   4  -1  -4 3575.87 248.712   3
  -4   1   4 3406.05 218.919   5
  -4   1   4 3606.57 286.204  17
  -4   1   4 3634.71 283.842  16
  -4   1   4 3241.36 272.352  21
   4  -1  -3 53.6480 32.9914  12
  -4   1   3 284.101 96.7003  21
  -4   1   3 168.607 71.5001  10
  -4   1   3 114.046 77.6449  17
  -4   1   3 119.330 54.2308   5
  -4   1   3 178.296 84.0446  16
   4  -1  -3 103.504 67.5940   3
  -4   1   3 129.618 65.5493   8
  -4   1   2 1669.11 180.298  21
   4  -1  -2 1790.81 148.465  12
  -4   1   2 1840.42 183.163  10
   4  -1  -2 1542.12 162.041   3
  -4   1   2 2030.29 203.025  17
  -4   1   2 1655.29 178.766  16
  -4   1   2 2019.38 167.218   8
   4  -1  -1 724.382 93.2203   4
  -4   1   1 738.737 93.6786   4
   4  -1  -1 486.419 98.7564  20
  -4   1   1 631.674 113.055  10
   4  -1  -1 677.544 56.1123   6
  -4   1   1 663.091 122.936  17
  -4   1   1 647.862 111.406  21
  -4   1   1 667.796 118.971  16
  -4   1   1 591.132 84.4045   8
   4  -1  -1 768.247 121.579   3
   4  -1   0 1209.11 144.983   3
   4  -1   0 1056.24 85.7633   6
  -4   1   0 884.258 103.185   4
   4  -1   0 1127.55 139.373  20
  -4   1   0 982.707 134.362  10
  -4   1   0 1070.02 141.800  17
  -4   1   0 1104.62 97.8953   8
  -4   1   0 1179.95 151.048  21
  -4   1   0 1101.51 142.249  16
   4  -1   0 990.421 108.096   4
   4  -1   1 2349.04 149.874   6
   4  -1   1 2232.95 190.444  20
  -4   1  -1 2191.64 195.652  10
   4  -1   1 2403.74 205.604   3
  -4   1  -1 2224.06 200.577  17
  -4   1  -1 2097.32 194.610  16
  -4   1  -1 2353.92 123.876   8
   4  -1   1 2239.84 165.675   4
   4  -1   2 169.231 83.1573   3
   4  -1   2 143.831 40.7422  14
   4  -1   2 172.584 53.9794   4
   4  -1   2 163.375 74.0021  20
   4  -1   2 265.679 73.3424  19
   4  -1   2 179.713 59.0571   6
  -4   1  -2 110.480 67.5931  10
  -4   1  -2 230.545 77.8999   9
  -4   1  -2 239.088 77.3657  17
  -4   1  -2 201.736 64.2667  16
   4  -1   3 1008.47 78.0866  14
  -4   1  -3 998.422 135.338  10
   4  -1   3 1099.77 153.416   3
   4  -1   3 974.353 125.172   4
   4  -1   3 833.711 125.759  11
   4  -1   3 926.897 134.544  20
   4  -1   3 850.696 115.534   6
   4  -1   3 875.023 128.073  19
  -4   1  -3 876.777 134.598   9
  -4   1  -3 1025.33 141.714  17
  -4   1  -3 1187.07 155.707  16
   4  -1   4 6655.08 204.337  14
   4  -1   4 6194.88 201.081  13
   4  -1   4 6745.40 355.540  11
   4  -1   4 6334.88 353.004  20
   4  -1   4 6432.77 342.536   6
   4  -1   4 6910.21 366.775  19
  -4   1  -4 5924.47 345.709  10
   4  -1   4 6545.40 370.741   3
  -4   1  -4 7325.81 375.929   9
  -4   1  -4 6654.60 373.463  17
  -4   1  -4 6438.40 365.918  16
   4  -1   4 6640.85 342.493   4
   4  -1   5 581.669 87.1802   7
   4  -1   5 554.289 110.256   4
   4  -1   5 591.314 122.445  20
   4  -1   5 672.148 120.963  11
   4  -1   5 811.771 127.621  19
  -4   1  -5 876.875 139.154  10
  -4   1  -5 646.463 118.196   9
  -4   1  -5 633.761 120.542  16
   4  -1   6 397.246 68.5307   7
   4  -1   6 415.442 106.372   4
   4  -1   6 410.702 105.675  20
   4  -1   6 365.864 94.0618  11
   4  -1   6 506.251 116.405  19
  -4   1  -6 500.708 71.0811  18
  -4   1  -6 577.974 120.216  10
  -4   1  -6 566.786 119.359   9
  -4   1  -6 435.202 116.479  16
   4  -1   6 618.496 76.5267  15
   4  -1   7 2261.16 234.667   4
   4  -1   7 1869.24 208.090  20
   4  -1   7 1828.85 203.515  11
   4  -1   7 2249.70 227.980  19
  -4   1  -7 2505.70 242.866  10
  -4   1  -7 2129.00 220.354   9
   4  -1   7 2014.59 98.5556   8
  -4   1  -7 1983.54 220.618  16
   4  -1   8 180.214 86.6218  21
   4  -1   8 40.7847 70.8445   4
   4  -1   8 104.897 72.3500  20
   4  -1   8 36.3844 69.6608  11
   4  -1   8 55.4862 82.2112  19
  -4   1  -8 79.3048 61.3247  10
  -4   1  -8 133.259 87.3931   9
  -4   1  -8-23.1524 69.6905  16
   4  -1   9 2201.56 255.542   4
   4  -1   9 2201.36 251.593  20
   4  -1   9 1812.70 212.512  11
   4  -1   9 1917.98 235.559  21
   4  -1   9 2016.87 241.444  19
  -4   1  -9 1943.90 235.585  10
  -4   1  -9 2016.90 225.403   9
  -4   1  -9 1824.30 183.143   1
  -4   1  -9 1877.68 241.512  16
   4  -1  10 42.7773 79.2758  21
   4  -1  10-3.91889 88.2421   4
   4  -1  10 60.9514 86.7094  20
   4  -1  10 40.1462 70.2941  11
   4  -1  10 26.6046 89.7722   6
   4  -1  10 19.1707 94.1957  19
  -4   1 -10 25.9599 88.0074  10
  -4   1 -10-1.01229 61.6381   9
  -4   1 -10 116.557 80.3583  16
   4  -1  11 883.853 178.759  21
   4  -1  11 695.125 175.176   4
   4  -1  11 585.723 161.348  20
   4  -1  11 720.950 160.567  11
   4  -1  11 954.242 187.284  19
   4  -1  11 825.275 178.919   6
  -4   1 -11 981.255 182.787  10
  -4   1 -11 784.326 153.242   9
  -4   1 -11 468.671 140.131  16
  -4   1 -12 2306.51 294.366  10
   4  -1  12 1879.21 247.537  11
   4  -1  12 1634.62 250.831  20
   4  -1  12 1671.96 259.840  19
   4  -1  12 1683.73 268.198   4
   4  -1  12 1944.34 290.751   6
   4  -1  12 1565.02 245.611  21
  -4   1 -12 2157.28 262.755   9
  -4   1 -12 2082.16 291.657  16
   4  -1  13 1467.95 233.394  11
  -4   1 -13 1507.25 235.614   9
  -4   0  12 276.650 116.669  18
   4   0 -11 656.857 168.494  15
   4   0 -11 468.106 143.806   7
  -4   0  11 1217.92 236.061  21
  -4   0  11 585.803 176.359  19
  -4   0  11 785.109 178.340  18
  -4   0  11 1017.10 218.830  17
  -4   0  11 715.524 166.396   5
  -4   0  11 1079.04 217.475  16
   4   0 -10 141.005 105.171  15
   4   0 -10 177.384 118.229   7
  -4   0  10 439.707 163.420  21
  -4   0  10 66.5254 98.3381  20
  -4   0  10 327.249 117.898  19
  -4   0  10 64.2861 98.5106  18
  -4   0  10 218.355 110.690  17
  -4   0  10 149.869 89.3291   5
  -4   0  10 201.455 131.044  16
   4   0  -9 289.023 119.350  15
  -4   0   9 438.105 142.987  21
  -4   0   9 542.582 167.998  20
  -4   0   9 572.634 151.410  19
  -4   0   9 204.498 96.6315  18
  -4   0   9 328.666 130.150  17
   4   0  -9 311.118 125.999   7
  -4   0   9 683.345 162.596  16
  -4   0   9 204.106 79.0039   5
   4   0  -8 621.906 157.412  15
   4   0  -8 689.739 159.194   7
  -4   0   8 780.228 174.153  20
  -4   0   8 686.505 158.357  19
  -4   0   8 412.525 121.915  21
  -4   0   8 816.112 163.004  18
  -4   0   8 842.374 171.053  17
  -4   0   8 819.290 144.975   5
   4   0  -8 496.749 93.9505   3
  -4   0   8 810.189 176.178  16
  -4   0   7-98.3626 88.9683  21
   4   0  -7-14.4909 85.8388   7
  -4   0   7 28.0995 77.2835  19
  -4   0   7 13.8986 78.1041  18
  -4   0   7 44.7329 89.6824  17
  -4   0   7-12.5687 52.4620   5
  -4   0   7-26.3851 71.1196  16
   4   0  -7 37.3310 50.1254   3
   4   0  -6 14730.8 679.830   7
  -4   0   6 15836.0 688.317  21
  -4   0   6 16637.8 705.492  19
   4   0  -6 16349.7 562.973   3
  -4   0   6 16259.4 611.218   5
  -4   0   6 16686.4 696.858  17
  -4   0   6 15790.7 679.693  16
   4   0  -5 17810.4 732.601   7
  -4   0   5 18262.2 720.971  21
  -4   0   5 18133.4 500.410   6
  -4   0   5 18818.5 736.094  19
   4   0  -5 19331.9 615.211   3
  -4   0   5 18634.4 644.862   5
  -4   0   5 18669.2 725.269  17
  -4   0   5 18844.8 720.319  16
  -4   0   4 162.402 34.8008   6
  -4   0   4 246.495 78.9038  19
  -4   0   4 184.587 82.7969  17
  -4   0   4 201.036 71.9443   5
  -4   0   4 226.898 92.2691  21
  -4   0   4 136.254 78.1574  16
   4   0  -4 160.017 90.7624   7
   4   0  -4 205.096 68.9225   3
  -4   0   3 7921.23 402.053  21
   4   0  -3 7204.05 289.817  12
  -4   0   3 7516.43 241.778   6
  -4   0   3 7676.76 393.082  10
  -4   0   3 7779.59 404.831  19
   4   0  -3 7953.90 343.306   3
  -4   0   3 7293.80 336.798   5
  -4   0   3 7822.64 400.022  17
  -4   0   3 7804.60 396.536  16
  -4   0   2 195.647 77.9068  21
  -4   0   2 289.604 42.6831   6
  -4   0   2 257.160 75.6041  10
  -4   0   2 232.920 68.5872  17
  -4   0   2 309.046 89.7133  16
   4   0  -2 246.539 57.3433  12
   4   0  -2 206.624 68.4093   3
   4   0  -1 24475.2 713.493  12
   4   0  -1 24647.4 617.318   6
  -4   0   1 25481.4 628.200   6
  -4   0   1 24784.1 778.658  10
  -4   0   1 24801.7 790.345  21
   4   0  -1 24698.8 733.983   3
  -4   0   1 25261.1 790.836  17
  -4   0   1 24339.0 778.922  16
  -4   0   0 107255. 2502.00  21
   4   0   0 108056. 2471.51  20
  -4   0   0 105370. 2481.76  10
   4   0   0 108739. 2333.83   6
   4   0   0 107951. 2455.14   3
  -4   0   0 109180. 2501.68  17
  -4   0   0 110049. 2497.50  16
   4   0   0 110948. 2427.03   4
   4   0   1 194362. 4100.64   6
   4   0   1 193718. 4201.22  20
  -4   0  -1 195563. 4221.11  10
   4   0   1 194503. 4209.26   3
  -4   0  -1 197605. 4226.94   9
  -4   0  -1 192424. 4228.81  17
  -4   0  -1 195146. 4226.88  16
  -4   0  -1 197733. 4017.91   8
   4   0   1 195436. 4162.26   4
   4   0   2 3123.93 215.224  20
   4   0   2 3007.47 214.877  19
   4   0   2 3161.66 218.078  11
   4   0   2 3164.34 194.359   6
  -4   0  -2 3048.48 216.399  10
   4   0   2 3264.14 229.367   3
  -4   0  -2 3314.49 226.999   9
  -4   0  -2 3174.47 223.902  17
  -4   0  -2 2998.69 217.423  16
  -4   0  -2 2675.44 94.0233   8
   4   0   2 2802.59 191.371   4
   4   0   3 51.4632 14.2493  14
   4   0   3 67.8335 67.3606   3
   4   0   3 115.916 54.2725   4
   4   0   3 62.5085 57.8139  11
   4   0   3 50.0870 55.7436  20
   4   0   3 104.890 65.5554  19
   4   0   3 80.9602 50.7087   6
  -4   0  -3 0.11356 54.4559  10
  -4   0  -3 36.1890 55.7528   9
  -4   0  -3 119.157 67.0609  17
  -4   0  -3 88.9413 60.5952  16
   4   0   4 5977.93 321.818  20
   4   0   4 5871.72 318.655  11
  -4   0  -4 5716.41 322.324  10
   4   0   4 5937.09 315.351   6
   4   0   4 6108.28 326.231  19
  -4   0  -4 6596.53 339.874   9
  -4   0  -4 6562.09 346.551  17
  -4   0  -4 7045.21 353.214  16
   4   0   4 5782.53 315.320   4
   4   0   5 290.226 51.9833   7
   4   0   5 323.669 93.6789  20
   4   0   5 374.692 93.2944   4
   4   0   5 462.298 95.1538  11
   4   0   5 410.815 102.371  19
   4   0   5 484.268 96.3460   6
  -4   0  -5 154.272 68.8603  10
  -4   0  -5 401.824 101.984   9
  -4   0  -5 270.001 88.4295  16
   4   0   6 7862.94 416.978   4
   4   0   6 7924.41 270.434   7
   4   0   6 7573.21 398.665  20
   4   0   6 7422.78 389.503  11
   4   0   6 7921.91 416.779   6
   4   0   6 7952.47 406.266  19
  -4   0  -6 7744.21 403.921  10
  -4   0  -6 7444.19 316.573  18
  -4   0  -6 8289.65 411.870   9
  -4   0  -6 8310.51 426.842  16
   4   0   7 23656.5 817.218   4
   4   0   7 22309.9 553.392   7
   4   0   7 23728.4 803.708  20
   4   0   7 22548.3 773.656  11
   4   0   7 23520.0 820.852   6
   4   0   7 23148.5 794.206  21
   4   0   7 23201.8 794.040  19
  -4   0  -7 21940.9 786.623  10
  -4   0  -7 21267.2 633.299  18
  -4   0  -7 22740.9 781.040   9
  -4   0  -7 23366.8 812.764  16
   4   0   7 23000.4 535.667   8
   4   0   7 20037.6 478.977  15
   4   0   7 19854.3 482.210  15
   4   0   8 5959.23 395.668   4
   4   0   8 6059.71 386.207  20
   4   0   8 6305.57 389.678  19
   4   0   8 5966.53 371.085  11
   4   0   8 6172.15 405.653   6
  -4   0  -8 6144.39 392.294  10
  -4   0  -8 6216.14 379.846   9
  -4   0  -8 5716.88 382.443  16
   4   0   8 6275.75 242.381   8
   4   0   8 6060.54 385.561  21
   4   0   9 188.693 94.8686   4
   4   0   9 362.087 115.549  20
   4   0   9 165.637 97.0491  21
   4   0   9 191.785 79.2524  11
   4   0   9 264.403 110.096  19
   4   0   9 249.006 116.173   6
  -4   0  -9 246.244 106.484  10
  -4   0  -9 216.541 98.0132   9
  -4   0  -9 137.162 85.1835  16
   4   0   9 206.275 49.8909   8
   4   0  10 2621.35 286.562   4
   4   0  10 2388.89 261.029  21
   4   0  10 2602.00 272.842  20
   4   0  10 2238.67 242.826  11
   4   0  10 2354.43 278.982   6
   4   0  10 2585.76 273.088  19
  -4   0 -10 2228.09 257.913  10
  -4   0 -10 2186.57 243.824   9
  -4   0 -10 2419.83 274.210  16
   4   0  11 178.783 82.3291  21
   4   0  11-71.3512 102.242   4
   4   0  11-37.6281 89.9445  20
   4   0  11-93.4039 101.544  19
   4   0  11-84.5521 93.2614   6
   4   0  11 10.6643 73.1372  11
  -4   0 -11-40.8812 94.1396  10
  -4   0 -11 33.5306 70.7334   9
  -4   0 -11 97.0936 91.6853  16
   4   0  12 1514.60 241.054   4
   4   0  12 1685.34 248.458  21
   4   0  12 1218.49 211.430  11
   4   0  12 842.870 184.718  19
   4   0  12 1074.30 221.376   6
  -4   0 -12 1019.16 196.270  10
   4   0  12 1383.99 226.084  20
  -4   0 -12 1150.02 197.264   9
  -4   0 -12 1547.82 240.279  16
   4   0  13-49.4653 90.5377  19
   4   0  13 73.5885 89.1774  21
   4   0  13 230.821 145.870  20
  -4   0 -13 19.5366 74.0279   9
  -4   0 -13 38.9860 73.7077  16
   4   0  13 64.3845 96.4138  11
   4   0  14 6224.13 483.652  11
  -4  -1  12 1038.16 204.561   5
   4   1 -11 1857.98 256.387  15
   4   1 -11 2295.70 318.996  14
   4   1 -11 2002.50 277.783   7
  -4  -1  11 2338.20 313.085  21
  -4  -1  11 2895.27 349.982  20
  -4  -1  11 2721.88 332.573  19
  -4  -1  11 2344.08 276.487  18
  -4  -1  11 3121.77 352.446  17
  -4  -1  11 2545.84 319.786  16
  -4  -1  11 2548.04 293.322   5
   4   1 -10 320.919 114.702  15
   4   1 -10 491.032 151.958   7
  -4  -1  10 498.153 151.021  21
  -4  -1  10 748.558 180.776  17
  -4  -1  10 426.246 157.902  20
  -4  -1  10 622.448 165.725  19
  -4  -1  10 522.242 148.198  18
  -4  -1  10 559.436 147.847   5
  -4  -1  10 546.045 156.056  16
   4   1  -9 3.03451 77.8628  15
   4   1  -9-42.7666 85.3471   7
  -4  -1   9-58.9970 97.4756  21
  -4  -1   9-129.898 107.776  20
  -4  -1   9-2.78989 88.6265  19
  -4  -1   9-7.05311 85.7289  18
  -4  -1   9 132.110 116.679  17
  -4  -1   9 95.4962 85.2282   5
  -4  -1   9-70.3879 88.8340  16
  -4  -1   8 548.651 143.620  21
   4   1  -8 594.990 150.168  15
   4   1  -8 882.697 163.860   7
  -4  -1   8 955.038 192.821  20
  -4  -1   8 844.717 175.273  19
  -4  -1   8 822.689 154.546  18
  -4  -1   8 769.994 160.188  17
  -4  -1   8 676.985 141.153   5
  -4  -1   8 846.793 166.268  16
   4   1  -7-85.6915 95.3653  15
   4   1  -7 122.931 108.329   7
  -4  -1   7 48.7284 74.7672  21
  -4  -1   7 52.4811 81.7276  20
  -4  -1   7-39.1256 79.3708  19
  -4  -1   7-7.34261 75.9884  17
  -4  -1   7 10.2000 71.7296   5
  -4  -1   7-14.5837 63.8991  16
   4   1  -7 18.6791 39.2472   3
   4   1  -6 789.493 150.815  15
  -4  -1   6 904.678 147.141  21
   4   1  -6 1057.44 165.490   7
  -4  -1   6 1058.04 92.5150  12
   4   1  -6 1048.20 106.029   3
  -4  -1   6 966.852 161.710  19
  -4  -1   6 638.610 128.582  17
  -4  -1   6 992.061 148.421   5
  -4  -1   6 1135.91 172.412  16
   4   1  -5 1369.73 184.070  15
   4   1  -5 1375.02 185.268   7
  -4  -1   5 1477.74 116.899  12
  -4  -1   5 1286.84 121.545   6
  -4  -1   5 1373.31 181.052  21
   4   1  -5 1637.66 125.653   3
  -4  -1   5 1602.83 189.049  19
  -4  -1   5 1661.06 190.580  17
  -4  -1   5 1422.06 167.707   5
  -4  -1   5 1350.07 178.686  16
   4   1  -4 165.776 84.6256  15
   4   1  -4 162.240 93.0518   7
  -4  -1   4 94.2780 77.2396  21
  -4  -1   4 142.554 48.5306  12
  -4  -1   4 174.732 45.6769   6
  -4  -1   4 141.293 81.0953  19
  -4  -1   4 111.215 41.8647   3
  -4  -1   4 0.71368 73.5896  17
  -4  -1   4 5.49070 47.4967   5
  -4  -1   4 160.772 75.7813  16
   4   1  -4 144.869 50.1906   3
  -4  -1   3 1271.03 103.951   6
  -4  -1   3 1229.77 113.375  12
   4   1  -3 1181.90 157.118   7
  -4  -1   3 1262.25 109.987   3
  -4  -1   3 1216.61 147.990  21
  -4  -1   3 1201.73 154.423  19
   4   1  -3 1332.96 115.740   3
  -4  -1   3 1194.01 149.650  17
  -4  -1   3 1288.74 138.827   5
  -4  -1   3 1139.68 142.501  16
   4   1  -2 494.392 74.5128   3
  -4  -1   2 581.909 70.4395   6
   4   1  -2 381.232 67.7342  12
  -4  -1   2 419.546 77.3566  12
   4   1  -2 424.788 101.410   7
  -4  -1   2 500.708 94.6141  10
  -4  -1   2 536.178 106.585  19
  -4  -1   2 334.569 88.3517  17
  -4  -1   2 535.232 101.139  21
  -4  -1   2 447.329 72.6418   3
  -4  -1   2 637.921 95.8033   5
  -4  -1   2 598.335 109.339  16
   4   1  -1 996.696 133.484   7
   4   1  -1 1015.73 108.079  12
   4   1  -1 1145.38 97.3323   6
  -4  -1   1 1043.59 131.189  21
  -4  -1   1 1294.66 104.221   6
  -4  -1   1 1134.30 137.385  10
   4   1  -1 1115.83 109.019   3
  -4  -1   1 1023.62 131.060  17
  -4  -1   1 930.172 101.979   3
  -4  -1   1 964.487 124.607  16
   4   1   0 4069.78 244.871   7
  -4  -1   0 4725.47 214.468   6
  -4  -1   0 4414.91 254.169  21
   4   1   0 4730.24 247.292  12
   4   1   0 4523.12 209.299   6
   4   1   0 3856.40 230.233  20
  -4  -1   0 3811.81 237.340  10
  -4  -1   0 4270.28 227.096   3
   4   1   0 4125.24 224.431   3
  -4  -1   0 4016.16 234.066   9
  -4  -1   0 4301.29 251.379  17
  -4  -1   0 3937.15 241.052  16
   4   1   0 4508.27 246.183   4
   4   1   1 13.8377 48.8052   4
   4   1   1-6.30867 58.8915   3
   4   1   1 9.93701 44.7232   6
  -4  -1  -1 77.8282 48.9587   6
   4   1   1 191.025 71.1109   7
  -4  -1  -1 1.24469 56.9255  10
  -4  -1  -1-61.2399 57.7959   9
  -4  -1  -1 19.6178 54.9787  17
  -4  -1  -1 6.04495 55.2206  21
   4   1   1-62.5323 58.2674  20
  -4  -1  -1 54.4111 59.8509  16
  -4  -1  -1-11.0373 55.4790   3
   4   1   2 9274.87 275.292  14
   4   1   2 9796.64 278.896  13
   4   1   2 8729.13 367.216  11
   4   1   2 9292.33 358.501   6
   4   1   2 8924.52 366.192  20
  -4  -1  -2 9077.24 381.505  10
  -4  -1  -2 8926.97 377.151   9
  -4  -1  -2 9594.97 368.464   6
  -4  -1  -2 8824.25 376.602  17
  -4  -1  -2 8711.59 372.404  16
   4   1   2 8988.11 373.474   4
   4   1   3 11010.7 428.728  11
   4   1   3 10333.1 411.120  20
   4   1   3 11768.1 430.778   6
   4   1   3 11026.1 421.802  19
  -4  -1  -3 10915.4 432.266  10
  -4  -1  -3 10909.2 427.739   9
  -4  -1  -3 10657.1 428.965  17
  -4  -1  -3 10772.0 426.313  16
   4   1   3 11024.6 432.879   4
   4   1   3 10371.2 378.581  15
   4   1   4 3834.54 238.242  11
   4   1   4 3597.86 227.000  20
   4   1   4 3961.07 247.132   6
   4   1   4 3462.24 223.961  19
  -4  -1  -4 3429.20 232.677  10
  -4  -1  -4 3794.80 243.558   9
  -4  -1  -4 3583.48 238.970  17
  -4  -1  -4 3400.48 229.042  16
   4   1   4 3395.28 233.142   4
   4   1   4 3505.41 181.775  15
   4   1   5 10279.7 425.821  20
   4   1   5 10461.5 439.334  11
   4   1   5 9886.91 438.381   6
  -4  -1  -5 10078.0 433.626  10
  -4  -1  -5 9523.29 426.699   9
   4   1   5 10229.1 423.560  19
  -4  -1  -5 9764.17 425.916  16
   4   1   5 9650.97 310.391  15
   4   1   5 9619.57 275.677   7
   4   1   5 9363.32 431.205   4
   4   1   6 983.865 144.764   4
   4   1   6 1106.57 138.519  21
   4   1   6 1048.15 136.262  20
   4   1   6 1098.30 142.286  11
   4   1   6 935.953 131.740  19
   4   1   6 774.693 129.121   6
  -4  -1  -6 1203.21 147.783  10
  -4  -1  -6 1188.02 150.971   9
   4   1   6 1177.72 75.3719   8
  -4  -1  -6 994.187 139.364  16
   4   1   6 1044.06 67.0868  15
   4   1   7 134.301 78.7414  21
   4   1   7 195.013 90.2661   4
   4   1   7 20.2201 57.7308  20
   4   1   7 230.690 85.8241  11
   4   1   7 118.777 68.8200  19
  -4  -1  -7 189.925 83.0026  10
  -4  -1  -7 184.685 81.5255   9
   4   1   7 325.172 107.803   6
  -4  -1  -7 107.269 88.6305  16
   4   1   7 97.4133 30.6809   8
   4   1   8 1913.33 216.929   4
  -4  -1  -8 2028.59 96.5191  14
   4   1   8 1903.12 203.277  20
   4   1   8 2350.04 224.373  19
  -4  -1  -8 1691.29 90.1976  13
   4   1   8 2097.45 214.015  11
   4   1   8 1996.93 220.451   6
  -4  -1  -8 1424.70 191.674  10
  -4  -1  -8 2074.74 213.413   9
   4   1   8 2091.38 211.734  21
  -4  -1  -8 1934.45 213.024  16
   4   1   8 1935.02 136.085   8
   4   1   9 496.450 124.779  20
   4   1   9 455.799 112.006  11
   4   1   9 457.354 114.722  19
   4   1   9 425.051 121.782   6
  -4  -1  -9 663.297 146.505  10
   4   1   9 641.035 139.073  21
   4   1   9 580.892 137.505   4
  -4  -1  -9 781.035 148.878   9
  -4  -1  -9 398.637 116.388  16
   4   1   9 475.632 78.8330   8
   4   1  10 5632.20 411.883   4
   4   1  10 5286.34 380.248  21
   4   1  10 5685.37 394.643  20
   4   1  10 5465.58 380.234  11
   4   1  10 5627.78 413.354   6
   4   1  10 5559.22 389.376  19
  -4  -1 -10 5684.90 406.130  10
  -4  -1 -10 5483.80 379.594   9
  -4  -1 -10 5971.29 412.376  16
   4   1  10 5592.23 292.318   8
   4   1  11 133.855 94.5669  21
   4   1  11-28.2903 85.3608  20
   4   1  11-113.796 88.3450  11
   4   1  11-58.2715 77.3316  19
   4   1  11 9.81418 85.6650   6
  -4  -1 -11 85.2949 82.7547  10
  -4  -1 -11 10.7668 78.5101   9
  -4  -1 -11 78.8586 75.1753  16
   4   1  12-53.9931 78.8584  21
   4   1  12 1.62445 103.285   4
   4   1  12 2.48786 81.5282  20
   4   1  12 19.9977 98.0987  11
   4   1  12-21.3562 92.1724  19
   4   1  12-67.2622 131.376   6
  -4  -1 -12 106.981 105.681  10
  -4  -1 -12-28.4880 82.0311   9
  -4  -1 -12-62.0861 111.991  16
   4   1  13-58.1777 83.9222  21
   4   1  13 114.555 112.368   4
   4   1  13 81.3937 85.3093  20
   4   1  13 22.4819 78.2550  11
   4   1  13 88.7765 100.127  19
  -4  -1 -13 93.7784 84.4934  10
   4   1  13 78.3589 114.496   6
  -4  -1 -13-52.9557 103.092   9
  -4  -1 -13-62.9462 116.806  16
  -4  -1 -14 1184.30 211.986   9
   4   1  14 938.533 192.254  11
   4   2 -11 102.235 71.6224  15
   4   2 -11 162.544 126.598  14
   4   2 -11 83.1497 80.9334   7
  -4  -2  11 66.1519 94.1486  21
  -4  -2  11-306.075 139.949  20
  -4  -2  11 53.5984 93.8209  19
  -4  -2  11-69.1353 91.3887  17
  -4  -2  11 124.105 107.504   5
   4   2 -10-87.4839 95.3373  15
   4   2 -10-52.6158 117.364  14
   4   2 -10 26.5041 73.4644   7
  -4  -2  10-68.9399 79.6409  21
  -4  -2  10 6.35043 106.156  20
  -4  -2  10 73.2303 85.4754  19
  -4  -2  10-68.9253 83.5433  18
  -4  -2  10-100.725 105.763  17
  -4  -2  10 64.1711 86.7242   5
  -4  -2  10-271.383 113.353  16
   4   2  -9-44.5223 79.1444  15
   4   2  -9-115.402 130.571  14
   4   2  -9-89.5590 92.3946   7
  -4  -2   9-73.6885 107.350  20
  -4  -2   9-101.257 119.233  19
  -4  -2   9 106.667 85.3541  18
  -4  -2   9 49.8981 86.0005  21
  -4  -2   9-108.184 107.224  17
  -4  -2   9 141.836 106.281   5
  -4  -2   9-12.0536 86.0961  16
   4   2  -8 840.694 156.418  15
   4   2  -8 1011.08 193.538  14
   4   2  -8 824.735 162.916   7
  -4  -2   8 658.885 150.505  21
  -4  -2   8 1089.90 198.231  20
  -4  -2   8 696.001 160.005  19
  -4  -2   8 1084.37 189.890  17
  -4  -2   8 864.778 159.110   5
  -4  -2   8 488.145 139.849  16
   4   2  -7 1504.81 199.592  15
   4   2  -7 2153.42 253.781  14
   4   2  -7 1692.72 215.237   7
  -4  -2   7 2279.54 248.350  21
  -4  -2   7 1907.87 148.084  12
  -4  -2   7 2149.85 251.017  20
  -4  -2   7 1589.28 215.915  19
  -4  -2   7 1979.14 225.041   5
  -4  -2   7 2048.40 233.081  17
  -4  -2   7 2182.01 244.295  16
   4   2  -6 1469.23 191.890  15
   4   2  -6 1717.33 213.151  14
   4   2  -6 1577.25 198.967   7
  -4  -2   6 1408.87 128.307  12
  -4  -2   6 1602.18 197.838  21
  -4  -2   6 1635.87 207.346  20
  -4  -2   6 1466.36 192.955  19
   4   2  -6 1549.61 90.5583   3
  -4  -2   6 1631.56 201.733  17
  -4  -2   6 1420.75 180.142   5
  -4  -2   6 1752.07 211.524  16
   4   2  -5 358.756 45.2351   3
   4   2  -5 515.175 124.964  15
   4   2  -5 294.220 100.674  14
   4   2  -5 529.301 122.782   7
  -4  -2   5 460.667 76.0835  12
  -4  -2   5 540.076 124.290  21
  -4  -2   5 416.296 105.901  19
  -4  -2   5 237.633 88.9331  17
  -4  -2   5 282.580 89.1546   5
  -4  -2   5 481.866 112.625  16
  -4  -2   5 362.589 68.0237   2
   4   2  -4 2766.36 237.804   7
   4   2  -4 2835.15 242.924  14
  -4  -2   4 2824.76 181.386  12
  -4  -2   4 2813.33 235.820  19
   4   2  -4 2967.85 131.797   3
  -4  -2   4 2841.46 227.842   5
   4   2  -4 2492.40 178.767   9
  -4  -2   4 3224.54 246.962  17
  -4  -2   4 3027.67 241.124  21
  -4  -2   4 2985.21 235.436  16
   4   2  -4 2509.00 228.649  15
   4   2  -3 154.372 79.6216  15
  -4  -2   3 212.360 70.1535  21
   4   2  -3 177.616 36.5308   3
   4   2  -3 161.626 75.3631  14
   4   2  -3 131.117 68.8938   7
  -4  -2   3 208.511 59.0141  12
  -4  -2   3 208.131 55.3725   6
  -4  -2   3 126.529 55.1833  19
  -4  -2   3 182.107 37.0282   3
  -4  -2   3 221.386 78.5251  17
   4   2  -3 154.349 50.0916   9
  -4  -2   3 108.719 62.6431   5
  -4  -2   3 93.1764 55.4469  16
   4   2  -2 988.311 135.129  15
   4   2  -2 1069.45 134.738  14
   4   2  -2 1116.61 139.036   7
  -4  -2   2 1029.31 116.070  12
  -4  -2   2 1165.22 135.288  21
   4   2  -2 1052.65 87.0298   3
  -4  -2   2 1234.86 138.243  10
  -4  -2   2 1399.32 150.322  19
  -4  -2   2 1132.34 87.0011   3
  -4  -2   2 1160.27 114.120   6
   4   2  -2 1150.80 110.055   9
  -4  -2   2 928.071 123.340  17
  -4  -2   2 1030.34 133.226   5
  -4  -2   2 1098.45 129.566  16
   4   2  -1 1029.66 141.638  15
   4   2  -1 1108.35 111.060   6
   4   2  -1 1081.22 122.416  14
   4   2  -1 1191.33 125.182  13
   4   2  -1 884.288 120.155   7
   4   2  -1 874.805 106.032  12
  -4  -2   1 1163.57 123.160  12
  -4  -2   1 1146.84 111.484   6
  -4  -2   1 986.003 119.929  21
  -4  -2   1 1234.92 99.4185   3
  -4  -2   1 974.884 119.201  10
   4   2  -1 1208.85 110.817   9
  -4  -2   1 1006.61 120.173  17
  -4  -2   1 1039.89 120.066  16
   4   2   0 2499.59 181.259   7
   4   2   0 2177.62 161.523  14
   4   2   0 2381.57 161.877   6
   4   2   0 2645.75 167.972  13
  -4  -2   0 2448.94 175.998  21
  -4  -2   0 2246.41 173.656  12
   4   2   0 2376.51 158.820  11
  -4  -2   0 2866.05 174.409   6
  -4  -2   0 2462.96 166.539  20
  -4  -2   0 2517.73 178.443  10
  -4  -2   0 2447.25 152.689   3
  -4  -2   0 2120.91 155.463   9
  -4  -2   0 2739.62 182.797  17
   4   2   0 2608.62 179.011  17
   4   2   0 2525.91 162.615   9
   4   2   0 2182.92 168.798  12
  -4  -2   0 2466.99 172.223  16
   4   2   0 2708.63 178.555  16
   4   2   0 2514.64 187.667   4
   4   2   0 2294.33 188.495  15
   4   2   1 2564.94 167.219   7
   4   2   1 2674.95 154.277  14
   4   2   1 2755.80 155.198  13
  -4  -2  -1 2467.05 174.615  21
  -4  -2  -1 2347.02 183.886  12
   4   2   1 2423.95 168.290   6
   4   2   1 2725.16 173.841  11
   4   2   1 2596.04 165.556  20
  -4  -2  -1 2911.46 183.997   6
  -4  -2  -1 2836.03 173.580  19
  -4  -2  -1 2813.30 184.506  10
   4   2   1 2724.15 180.331  10
  -4  -2  -1 2805.23 174.154   3
  -4  -2  -1 2409.57 165.457   9
  -4  -2  -1 2525.92 175.972  17
   4   2   1 2900.36 186.386  17
   4   2   1 2640.15 170.313   9
  -4  -2  -1 2734.64 177.913  16
   4   2   1 2450.65 170.228  16
  -4  -2  -1 2517.94 164.929  20
   4   2   1 2630.07 185.752   4
   4   2   1 2815.64 193.462  15
   4   2   2 594.527 92.3158  15
   4   2   2 675.179 68.3595  14
  -4  -2  -2 617.492 90.3548  10
  -4  -2  -2 726.684 104.054   3
   4   2   2 603.455 105.246   4
   4   2   2 725.487 67.1913  13
  -4  -2  -2 485.988 107.692  12
   4   2   2 669.501 87.1333  20
  -4  -2  -2 612.216 86.0852  20
   4   2   2 604.631 93.3719  11
   4   2   2 523.073 83.4612   6
  -4  -2  -2 770.269 104.880   6
  -4  -2  -2 645.581 86.3029  19
   4   2   2 659.910 90.8488  10
   4   2   2 553.121 74.9998   7
  -4  -2  -2 570.275 87.4572  17
  -4  -2  -2 645.766 92.4044   9
   4   2   2 628.252 89.1303   9
  -4  -2  -2 625.012 92.8201  16
   4   2   2 654.212 88.4712  16
  -4  -2  -3 2633.12 168.924  21
   4   2   3 2498.55 132.153   7
   4   2   3 2438.90 112.896  14
   4   2   3 2450.22 183.829   6
   4   2   3 2418.79 163.776  20
   4   2   3 2603.49 182.149  11
  -4  -2  -3 2347.18 161.750  20
  -4  -2  -3 2452.60 165.451  19
  -4  -2  -3 2338.52 173.495  10
  -4  -2  -3 2342.47 169.908  17
  -4  -2  -3 2381.12 178.411   9
   4   2   3 2219.39 158.980  19
  -4  -2  -3 2560.71 174.178  16
   4   2   3 2633.36 178.145  16
  -4  -2  -3 2365.18 120.965   8
   4   2   3 2260.83 180.037   4
   4   2   3 2446.73 158.418  15
   4   2   4 4872.43 164.729   7
  -4  -2  -4 4336.13 148.650  14
  -4  -2  -4 4778.64 153.471  13
   4   2   4 4815.95 275.570   6
   4   2   4 4774.15 244.401  20
   4   2   4 4691.59 264.538  11
   4   2   4 4185.53 231.426  19
  -4  -2  -4 4966.35 265.510  10
  -4  -2  -4 4811.21 255.717  17
  -4  -2  -4 5164.51 273.768   9
  -4  -2  -4 4929.43 255.316  16
  -4  -2  -4 4912.79 184.070   8
   4   2   4 5084.87 281.965   4
   4   2   4 4344.61 204.901  15
  -4  -2  -5 788.236 48.4303  14
  -4  -2  -5 839.791 50.2539  13
   4   2   5 833.579 112.080  20
   4   2   5 858.521 120.052  11
   4   2   5 1031.35 138.024   6
  -4  -2  -5 985.594 123.934  10
   4   2   5 933.427 129.941   4
  -4  -2  -5 959.418 126.328   9
   4   2   5 858.441 109.167  19
  -4  -2  -5 923.114 114.115  16
   4   2   5 979.880 82.0543  15
  -4  -2  -6 3808.12 132.829  14
   4   2   6 3438.74 230.518  21
   4   2   6 3507.39 233.944  20
   4   2   6 3269.01 251.879   6
   4   2   6 3959.45 263.064  11
   4   2   6 3795.92 240.923  19
  -4  -2  -6 3825.86 256.292  10
  -4  -2  -6 3800.78 260.624   9
  -4  -2  -6 3774.14 247.857  16
   4   2   6 3685.81 178.813   8
   4   2   6 3811.81 147.692  15
   4   2   6 3730.20 266.036   4
   4   2   7 1532.41 176.177   4
  -4  -2  -7 1228.91 80.6923  14
   4   2   7 1416.41 154.159  21
   4   2   7 1142.97 148.032  11
   4   2   7 1265.09 162.494   6
   4   2   7 1385.98 152.295  19
  -4  -2  -7 1129.45 154.920  10
   4   2   7 1150.39 142.194  20
  -4  -2  -7 1281.04 163.606   9
   4   2   7 1264.71 110.756   8
  -4  -2  -7 1390.75 158.967  16
  -4  -2  -8 174.141 39.6433  14
   4   2   8 138.841 66.2470  21
   4   2   8 186.840 83.6801   4
  -4  -2  -8 300.908 98.2281  10
   4   2   8 175.168 76.8927  20
   4   2   8 248.255 92.2230  11
   4   2   8 324.995 95.6306   6
   4   2   8 180.601 74.3514  19
  -4  -2  -8 190.128 86.3889   9
  -4  -2  -8 170.289 79.6193  16
   4   2   8 347.006 69.1746   8
   4   2   9 1595.54 189.933  21
   4   2   9 2152.21 215.422  20
   4   2   9 2250.69 241.531   6
   4   2   9 2224.37 218.897  19
  -4  -2  -9 2017.26 222.432  10
   4   2   9 1682.34 202.296  11
  -4  -2  -9 1916.04 211.965   9
  -4  -2  -9 1787.14 205.211  16
   4   2   9 1943.56 162.638   8
   4   2   9 1978.77 223.624   4
   4   2  10 163.542 92.7639  21
   4   2  10 174.048 101.374   4
   4   2  10 188.944 111.683   6
   4   2  10 94.9580 73.7085  20
   4   2  10 87.9146 67.9428  11
   4   2  10 150.819 90.8643  19
  -4  -2 -10 94.6845 80.2989  10
  -4  -2 -10 114.288 73.8932   9
  -4  -2 -10 12.7166 62.3604  16
   4   2  10 74.2305 46.6154   8
   4   2  11 649.812 145.503  21
   4   2  11 681.153 153.957   4
   4   2  11 449.166 119.458  20
   4   2  11 439.765 126.108  11
   4   2  11 712.052 169.127   6
   4   2  11 499.785 122.634  19
  -4  -2 -11 853.953 170.491  10
  -4  -2 -11 763.800 161.392   9
  -4  -2 -11 599.876 138.463  16
   4   2  11 640.239 113.507   8
   4   2  12 4.99114 57.3039  21
   4   2  12 36.0127 93.1226   4
   4   2  12-44.2424 73.1506  20
   4   2  12 63.2583 79.7295  11
   4   2  12 71.4821 76.9240  19
   4   2  12-54.1818 101.452   6
  -4  -2 -12 71.8323 88.0256  10
  -4  -2 -12 1.40530 97.5675   9
  -4  -2 -12 50.5510 78.7688  16
   4   2  13 2980.32 341.119   4
   4   2  13 2401.37 284.659  21
   4   2  13 2694.19 329.486   6
   4   2  13 2406.31 286.465  20
   4   2  13 2365.12 287.391  11
   4   2  13 1983.63 268.047  19
  -4  -2 -13 2563.02 302.527  10
  -4  -2 -13 2134.10 274.494   9
  -4  -2 -13 2001.26 269.899  16
   4   2  14-126.683 102.120  20
   4   2  14 42.9570 69.6476  21
   4   2  14-25.0365 80.7136  19
  -4  -2 -14-23.0246 117.542   9
  -4  -2 -14 23.4886 76.5765  16
   4   3 -11-32.7501 73.1834   7
  -4  -3  11-36.8838 93.6640   5
   4   3 -10 124.872 73.6931  15
   4   3 -10 122.534 95.7268  14
   4   3 -10 164.707 102.886   7
  -4  -3  10 18.7791 84.6558  21
  -4  -3  10 89.0330 84.4295  20
  -4  -3  10 397.932 127.683  19
  -4  -3  10 365.876 146.134  17
  -4  -3  10 408.402 153.374   5
   4   3  -9 666.853 139.682  15
   4   3  -9 521.587 140.780  14
  -4  -3   9 342.955 121.680  21
   4   3  -9 467.419 125.794   7
  -4  -3   9 473.099 153.760  20
  -4  -3   9 578.224 156.572  19
  -4  -3   9 399.678 105.136  18
  -4  -3   9 623.143 150.132  17
  -4  -3   9 309.049 125.504   5
   4   3  -8 11890.0 611.973   7
   4   3  -8 11924.5 640.622  14
  -4  -3   8 11866.6 618.581  21
  -4  -3   8 10949.1 611.365  20
  -4  -3   8 11840.8 622.955  19
  -4  -3   8 11070.7 599.959   5
  -4  -3   8 11685.3 613.520  17
  -4  -3   8 11004.4 596.383  16
   4   3  -8 10585.0 560.035  15
   4   3  -7 13114.4 626.396   7
   4   3  -7 12080.1 620.637  14
  -4  -3   7 12078.5 605.201  21
  -4  -3   7 13264.5 493.914  12
  -4  -3   7 12376.8 626.955  20
  -4  -3   7 12926.0 620.062   5
  -4  -3   7 13207.3 626.112  17
  -4  -3   7 12569.2 611.390  16
  -4  -3   7 12695.5 625.468  19
   4   3  -7 13104.3 606.159  15
   4   3  -6 2214.38 239.573   7
   4   3  -6 2814.41 271.842  14
  -4  -3   6 2546.91 252.064  21
  -4  -3   6 2824.79 203.006  12
  -4  -3   6 2467.26 251.991  20
  -4  -3   6 2664.40 253.658  19
  -4  -3   6 2819.13 263.705   5
  -4  -3   6 2226.90 233.709  17
  -4  -3   6 2185.31 226.106  16
   4   3  -6 2636.98 248.697  15
   4   3  -5 1255.99 164.813  15
   4   3  -5 1325.64 182.109  14
   4   3  -5 1139.57 166.156   7
  -4  -3   5 1207.16 135.204  12
  -4  -3   5 1367.70 172.495  21
   4   3  -5 1029.82 99.4222  11
  -4  -3   5 1227.36 167.261  20
  -4  -3   5 1322.25 172.093  19
   4   3  -5 898.692 98.9097   9
  -4  -3   5 1311.29 166.314  17
  -4  -3   5 1170.65 165.957   5
  -4  -3   5 1124.03 151.487  16
   4   3  -4 1906.49 198.246   7
   4   3  -4 1859.52 197.991  14
  -4  -3   4 1931.57 184.664  21
  -4  -3   4 1866.72 161.404  12
  -4  -3   4 1813.43 195.625  20
  -4  -3   4 2384.13 213.627  19
  -4  -3   4 1941.52 194.605   5
  -4  -3   4 1960.53 190.840  17
   4   3  -4 1814.77 127.936   9
  -4  -3   4 1899.88 184.475  16
   4   3  -4 2091.42 207.554  15
   4   3  -3 604.447 113.742  15
   4   3  -3 602.525 116.652  14
   4   3  -3 614.878 116.077   7
  -4  -3   3 468.664 85.3114  12
  -4  -3   3 550.700 99.2552  21
  -4  -3   3 603.646 106.758  19
  -4  -3   3 598.401 102.009  17
   4   3  -3 579.269 67.1636   9
  -4  -3   3 633.810 116.192   5
  -4  -3   3 511.855 92.9864  16
   4   3  -2 27626.5 839.089   7
   4   3  -2 27977.2 833.591  14
  -4  -3   2 26688.3 789.381  21
  -4  -3   2 27444.9 790.273  12
  -4  -3   2 26939.4 619.260   3
  -4  -3   2 27425.3 804.000  19
  -4  -3   2 26748.3 827.672   5
  -4  -3   2 27173.9 792.588  17
   4   3  -2 27072.6 688.878   9
  -4  -3   2 27746.0 793.912  16
   4   3  -2 25815.5 836.799  15
   4   3  -1 16156.0 561.251   7
   4   3  -1 15592.0 543.867  14
  -4  -3   1 16348.0 527.353  21
   4   3  -1 16279.3 527.901  21
   4   3  -1 16092.4 457.941  11
  -4  -3   1 15855.2 505.804  20
  -4  -3   1 15031.4 533.849  12
  -4  -3   1 15765.4 521.818  10
   4   3  -1 16152.2 522.338  10
  -4  -3   1 16919.3 537.923  19
  -4  -3   1 15651.4 427.582   3
  -4  -3   1 15606.6 561.605   5
  -4  -3   1 16155.4 524.425  17
   4   3  -1 16185.0 525.504  17
   4   3  -1 16444.1 462.452   9
  -4  -3   1 15202.0 510.756  16
   4   3  -1 16275.4 524.073  16
   4   3  -1 15544.9 573.320  15
   4   3   0 18016.8 574.692   7
   4   3   0 18022.2 564.778  14
   4   3   0 18595.6 569.585  13
  -4  -3   0 18005.8 543.901  21
   4   3   0 17217.5 569.386   6
  -4  -3   0 18047.0 529.312  20
   4   3   0 17179.0 501.866  11
  -4  -3   0 17545.8 545.978  10
  -4  -3   0 17792.9 548.847  19
   4   3   0 18578.2 553.001  10
  -4  -3   0 16837.7 576.669  12
  -4  -3   0 17386.2 496.191   3
  -4  -3   0 16948.7 536.449  17
  -4  -3   0 17612.2 509.621   9
   4   3   0 17954.2 543.791  17
   4   3   0 18276.4 512.278   9
  -4  -3   0 17689.2 538.682  16
   4   3   0 18004.8 540.412  16
   4   3   0 18473.8 608.012  15
   4   3   1 821.965 112.937  15
   4   3   1 935.849 121.668   4
   4   3   1 707.639 91.3349  14
  -4  -3  -1 891.799 100.302  14
   4   3   1 859.948 96.8029  13
   4   3   1 861.874 100.075   7
  -4  -3  -1 820.383 99.3012   7
  -4  -3  -1 715.617 99.9247  13
  -4  -3  -1 817.644 92.7215  21
  -4  -3  -1 927.953 89.8784  20
   4   3   1 850.435 91.8061  11
   4   3   1 827.273 109.315   6
  -4  -3  -1 989.392 92.5226  19
  -4  -3  -1 720.142 90.3537  10
   4   3   1 767.937 92.9827  10
  -4  -3  -1 661.668 102.683  12
   4   3   1 1023.56 99.1883   9
  -4  -3  -1 745.783 90.8408  17
  -4  -3  -1 748.560 90.0220   9
   4   3   1 749.746 88.4690  17
  -4  -3  -1 908.824 94.9147  16
   4   3   1 757.533 87.2160  16
   4   3   2 2257.22 145.039   7
   4   3   2 2414.12 150.404  14
  -4  -3  -2 2596.43 161.207   7
  -4  -3  -2 2387.26 150.159  14
   4   3   2 2174.19 142.581  13
  -4  -3  -2 2263.56 146.237  13
  -4  -3  -2 2283.16 186.841  12
   4   3   2 2254.21 175.358   6
   4   3   2 2356.26 142.648  20
  -4  -3  -2 2449.90 143.900  20
  -4  -3  -2 2442.52 143.784  19
  -4  -3  -2 2407.99 161.771  10
   4   3   2 2677.42 167.019  10
  -4  -3  -2 2319.34 147.541  17
  -4  -3  -2 2397.18 161.287   9
   4   3   2 2527.91 162.979   9
  -4  -3  -2 2489.12 153.581  21
  -4  -3  -2 2039.71 149.275  11
   4   3   2 2173.72 152.845  11
  -4  -3  -2 2421.91 148.724  16
   4   3   2 2685.12 155.274  16
   4   3   2 2235.30 176.162   4
   4   3   2 2332.73 169.442  15
  -4  -3  -2 2421.98 178.928  15
   4   3   3 5533.77 214.875   7
   4   3   3 5258.81 218.559  14
  -4  -3  -3 5422.56 220.772   7
  -4  -3  -3 5411.48 222.229  14
  -4  -3  -3 5240.01 219.465  13
   4   3   3 5246.86 281.917   6
   4   3   3 4946.14 221.622  20
  -4  -3  -3 5067.42 224.038  20
   4   3   3 5059.84 257.101  11
  -4  -3  -3 5225.28 288.556  12
   4   3   3 5013.36 222.893  19
  -4  -3  -3 5045.84 222.131  19
   4   3   3 5120.94 249.477  10
  -4  -3  -3 5316.16 227.221  21
  -4  -3  -3 5044.50 230.996  17
  -4  -3  -3 4785.10 253.072   9
  -4  -3  -3 5302.26 253.872  10
  -4  -3  -3 5105.42 231.191  16
   4   3   3 5041.45 230.053  16
  -4  -3  -3 5362.62 234.585   8
   4   3   3 5154.94 277.678   4
   4   3   3 4796.90 244.836  15
  -4  -3  -3 5069.10 253.938  15
   4   3   4 20635.6 506.936   7
   4   3   4 20309.0 543.391  14
  -4  -3  -4 20473.2 541.934  14
  -4  -3  -4 19409.5 509.700   7
  -4  -3  -4 20948.9 542.878  13
  -4  -3  -4 20449.8 580.324  21
  -4  -3  -4 19697.2 659.108  12
   4   3   4 19585.5 573.331  20
   4   3   4 19888.9 636.510  11
  -4  -3  -4 20368.2 582.625  20
   4   3   4 19266.2 571.998  19
  -4  -3  -4 20892.5 583.612  19
  -4  -3  -4 20859.3 622.724  10
  -4  -3  -4 19264.0 582.017  17
  -4  -3  -4 19473.2 631.478   9
  -4  -3  -4 20036.7 584.841  16
  -4  -3  -4 20537.2 577.079   8
   4   3   4 20243.0 666.393   6
   4   3   4 20147.7 653.770   4
   4   3   4 19349.7 577.658  15
  -4  -3  -4 19822.7 589.184  15
  -4  -3  -5 5470.90 220.031  14
  -4  -3  -5 5919.15 224.656  13
  -4  -3  -5 6019.71 269.179  21
  -4  -3  -5 5729.66 313.545  12
   4   3   5 5681.58 321.599   6
   4   3   5 5139.33 253.834  20
   4   3   5 5333.93 296.944  11
  -4  -3  -5 5210.13 259.043  20
  -4  -3  -5 5483.54 284.067  10
   4   3   5 6153.33 273.176  19
  -4  -3  -5 5666.94 264.662  19
  -4  -3  -5 5742.09 267.097  17
  -4  -3  -5 6138.44 311.950   9
  -4  -3  -5 6115.75 279.040  16
   4   3   5 5984.47 256.950   8
  -4  -3  -5 5879.32 254.186   8
   4   3   5 5376.48 233.762  15
   4   3   5 5594.24 307.746   4
  -4  -3  -5 5605.55 244.021  15
  -4  -3  -6 29.3886 35.3884  15
  -4  -3  -6-10.2415 32.3710  14
   4   3   6 26.0411 51.9983   4
   4   3   6 62.1798 40.6927  21
   4   3   6 23.5704 39.9698  20
   4   3   6 76.6147 58.5824  11
   4   3   6 12.1014 56.7979   6
   4   3   6 19.3910 36.5700  19
  -4  -3  -6 86.7887 54.5328  10
  -4  -3  -6-7.27764 65.6865   9
   4   3   6 27.7095 31.3371   8
  -4  -3  -6 26.1856 51.5076  16
  -4  -3  -6 128.147 45.4664   8
   4   3   6 52.5083 29.2946  15
  -4  -3  -7 2425.24 151.005  14
   4   3   7 2664.31 199.022  21
   4   3   7 2911.02 242.256   6
   4   3   7 2677.38 199.764  20
   4   3   7 2683.77 229.165  11
   4   3   7 2698.49 201.089  19
  -4  -3  -7 2984.41 229.351  10
  -4  -3  -7 2808.90 232.564   9
  -4  -3  -7 2674.84 204.356  16
   4   3   7 2718.47 186.362   8
  -4  -3  -7 2288.36 124.529  15
   4   3   7 2523.85 221.265   4
   4   3   8 15423.3 635.945   4
   4   3   8 15945.5 587.768  21
  -4  -3  -8 14797.5 480.740  14
   4   3   8 15595.8 651.483   6
   4   3   8 15668.3 585.978  20
   4   3   8 14406.9 614.506  11
   4   3   8 15820.6 585.713  19
  -4  -3  -8 14984.8 612.110  10
  -4  -3  -8 15908.2 637.608   9
  -4  -3  -8 15162.6 591.273  16
   4   3   8 16101.1 551.253   8
   4   3   9 13250.5 602.364   4
   4   3   9 12969.3 548.129  21
   4   3   9 13919.9 621.467   6
   4   3   9 12587.9 546.386  20
   4   3   9 12688.9 591.621  11
   4   3   9 13603.0 559.403  19
  -4  -3  -9 12960.3 584.479  10
   4   3   9 13778.8 562.789  18
  -4  -3  -9 13485.3 604.502   9
  -4  -3  -9 12971.3 561.448  16
   4   3   9 12769.6 509.662   8
   4   3  10 21880.2 868.153   4
   4   3  10 22537.8 822.244  21
   4   3  10 23946.7 907.883   6
   4   3  10 23267.5 836.130  20
   4   3  10 23387.6 881.860  11
   4   3  10 23220.4 829.497  19
  -4  -3 -10 22535.1 861.050  10
   4   3  10 22957.9 810.616  18
  -4  -3 -10 23687.1 884.569   9
  -4  -3 -10 24148.9 860.006  16
   4   3  10 23300.9 782.125   8
   4   3  11 562.342 140.188   6
   4   3  11 405.910 108.525  21
   4   3  11 474.332 122.294   4
   4   3  11 440.518 117.517  20
   4   3  11 440.945 132.623  11
   4   3  11 568.166 118.298  19
   4   3  11 352.677 103.957  18
  -4  -3 -11 413.371 113.594  10
  -4  -3 -11 555.719 130.599   9
   4   3  11 507.856 107.176   8
  -4  -3 -11 453.772 124.092  16
   4   3  12 15.4060 57.2356  21
   4   3  12 49.8061 81.3477   4
   4   3  12-18.1465 81.0130  20
   4   3  12-45.3142 116.861  11
   4   3  12-57.2854 103.409   6
   4   3  12-3.61918 66.1025  19
   4   3  12-232.518 91.7632  18
  -4  -3 -12 64.0841 68.7076  10
  -4  -3 -12 51.8415 91.1497   9
  -4  -3 -12-18.9786 85.3962  16
   4   3  12 98.8595 82.0218   8
   4   3  13 5129.87 430.908   4
   4   3  13 4959.23 404.592  21
   4   3  13 5112.19 437.634   6
   4   3  13 5109.83 427.382  11
   4   3  13 4193.60 372.148  19
  -4  -3 -13 4376.55 397.031  10
  -4  -3 -13 5177.89 428.798   9
   4   3  13 5482.81 423.565  20
  -4  -3 -13 4060.88 374.806  16
   4   3  14 2089.55 273.052  21
   4   3  14 1969.39 282.874   4
   4   3  14 1745.07 265.786  20
   4   3  14 1869.76 282.693   6
   4   3  14 1171.27 212.302  19
  -4  -3 -14 1700.86 252.908  16
   4   4 -10 1316.03 200.231  15
   4   4 -10 1154.05 224.729  14
   4   4 -10 879.769 176.016   7
  -4  -4  10 968.478 204.206  21
  -4  -4  10 1041.34 212.436  20
  -4  -4  10 1347.10 231.663  19
  -4  -4  10 1208.82 221.446  17
  -4  -4  10 884.403 189.897   5
   4   4  -9 952.723 167.733  15
   4   4  -9 839.252 178.653  14
   4   4  -9 687.014 154.839   7
  -4  -4   9 864.939 183.958  21
  -4  -4   9 797.543 186.913  20
  -4  -4   9 1078.08 205.752  19
  -4  -4   9 690.229 159.937  17
  -4  -4   9 831.693 180.938   5
   4   4  -8 1134.20 174.880  15
   4   4  -8 932.142 188.213  14
   4   4  -8 762.278 164.543   7
  -4  -4   8 855.088 166.216  20
  -4  -4   8 938.127 167.776  19
  -4  -4   8 726.821 159.518  17
  -4  -4   8 1254.05 206.643   5
  -4  -4   8 894.933 172.465  21
   4   4  -7 3238.05 299.775   7
   4   4  -7 3003.28 301.930  14
  -4  -4   7 3292.37 307.259  20
  -4  -4   7 3469.20 311.595  19
  -4  -4   7 3435.16 305.285  21
  -4  -4   7 3012.26 296.183   5
  -4  -4   7 3026.18 291.243  17
   4   4  -7 3070.14 287.518  15
   4   4  -6 477.723 131.054  15
   4   4  -6 350.400 111.661  14
   4   4  -6 553.037 140.722   7
  -4  -4   6 505.609 118.504  21
  -4  -4   6 627.340 147.549  20
  -4  -4   6 307.235 106.784  19
  -4  -4   6 306.467 110.977  17
  -4  -4   6 623.395 151.617   5
  -4  -4   6 539.674 140.093  16
   4   4  -5 10461.4 523.196   7
   4   4  -5 9996.50 516.181  14
  -4  -4   5 10008.4 484.167  21
  -4  -4   5 10867.2 510.117  20
  -4  -4   5 9723.67 479.452  19
  -4  -4   5 10110.3 512.255   5
  -4  -4   5 10260.5 488.700  17
  -4  -4   5 10528.2 490.645  16
   4   4  -5 10208.1 509.666  15
   4   4  -4 348.416 97.9047  15
   4   4  -4 389.974 112.124  14
   4   4  -4 243.359 90.4276   7
  -4  -4   4 162.342 64.3366  12
  -4  -4   4 152.806 73.9040  20
   4   4  -4 216.284 30.7720  11
  -4  -4   4 260.221 79.1340  19
  -4  -4   4 318.042 87.0720  21
  -4  -4   4 266.336 77.3682  17
   4   4  -4 275.276 34.9615   9
  -4  -4   4 107.906 79.2692   5
  -4  -4   4 285.074 85.2167  16
   4   4  -3-50.5659 71.3682  15
   4   4  -3 7.08578 63.8940  14
   4   4  -3-6.27947 61.9880   7
  -4  -4   3 11.0303 55.6173  12
   4   4  -3 21.2474 13.1431  11
  -4  -4   3 69.1328 61.7955  20
  -4  -4   3 17.8493 48.0333  19
  -4  -4   3-20.9796 46.7013  21
  -4  -4   3 17.1348 50.8612  17
   4   4  -3 28.5822 16.5696   9
  -4  -4   3 36.3325 59.8751   5
  -4  -4   3-18.5147 60.8060  16
   4   4  -2 5962.24 335.902   7
   4   4  -2 6014.26 335.542  14
  -4  -4   2 6442.73 327.116  12
   4   4  -2 6041.82 195.954  11
  -4  -4   2 6230.61 306.542  20
  -4  -4   2 6230.72 301.478  19
  -4  -4   2 6013.04 337.980   5
  -4  -4   2 6153.20 295.392  17
   4   4  -2 6068.95 197.329   9
  -4  -4   2 6907.19 308.950  16
  -4  -4   2 6041.39 294.255  21
   4   4  -2 5979.58 343.283  15
   4   4  -1 6911.42 348.598   7
   4   4  -1 7627.11 362.841  14
  -4  -4   1 7154.67 358.212  13
  -4  -4   1 7424.41 308.523  21
  -4  -4   1 7250.65 351.346  12
   4   4  -1 7164.02 306.038  21
  -4  -4   1 7497.05 298.076  20
   4   4  -1 7495.04 239.953  11
  -4  -4   1 7456.17 314.050  19
   4   4  -1 7517.42 305.361  10
  -4  -4   1 7202.36 238.892   3
  -4  -4   1 7117.90 358.333   5
  -4  -4   1 7433.70 306.581  17
   4   4  -1 7752.77 312.757  17
   4   4  -1 7501.94 241.382   9
  -4  -4   1 7594.23 308.700  16
   4   4  -1 7573.02 307.777  16
   4   4  -1 6637.81 356.798  15
   4   4   0 954.044 128.396  15
   4   4   0 873.678 116.369  14
   4   4   0 634.930 99.4158   7
  -4  -4   0 826.957 112.189  13
  -4  -4   0 689.344 107.124  12
   4   4   0 706.038 81.0669  21
  -4  -4   0 704.348 77.3927  20
   4   4   0 776.612 74.2133  11
   4   4   0 923.243 122.974   6
   4   4   0 935.359 92.9029  10
  -4  -4   0 785.861 88.1346  10
  -4  -4   0 778.539 87.7135  19
  -4  -4   0 752.828 73.2105   9
   4   4   0 710.739 71.1694   9
  -4  -4   0 803.643 85.5310  17
   4   4   0 725.167 82.2194  17
  -4  -4   0 923.098 91.3028  16
   4   4   0 759.560 82.0631  16
  -4  -4   0 858.237 88.5195  21
  -4  -4   0 702.604 108.861   5
   4   4   1 4817.76 255.042   7
   4   4   1 4725.89 254.413  14
  -4  -4  -1 4935.55 262.042  13
  -4  -4  -1 4797.89 205.197  21
  -4  -4  -1 4698.02 273.885  12
   4   4   1 4750.66 275.111   6
  -4  -4  -1 4708.23 197.391  20
   4   4   1 4725.49 212.705  11
  -4  -4  -1 4593.02 195.641  19
  -4  -4  -1 4947.40 220.546  10
  -4  -4  -1 4857.08 209.809  19
   4   4   1 4682.92 214.167  10
  -4  -4  -1 5010.53 207.260  17
   4   4   1 5260.91 210.637  17
  -4  -4  -1 4676.46 210.543   9
   4   4   1 5134.95 220.759   9
  -4  -4  -1 4825.95 204.208  16
   4   4   1 5036.55 206.505  16
   4   4   1 4543.71 263.805   4
  -4  -4  -1 4685.73 210.320  11
   4   4   1 5359.01 289.133  15
   4   4   2 4190.31 220.952   7
  -4  -4  -2 4154.72 179.607  21
  -4  -4  -2 4230.84 222.856   7
   4   4   2 4184.12 230.636  14
  -4  -4  -2 4193.85 229.644  14
  -4  -4  -2 4056.57 228.427  13
  -4  -4  -2 4205.58 209.983  11
  -4  -4  -2 4166.88 260.198  12
   4   4   2 4204.81 261.059   6
  -4  -4  -2 4145.61 172.677  20
   4   4   2 4187.04 213.652  11
  -4  -4  -2 4190.22 173.050  19
  -4  -4  -2 4177.59 200.073  10
   4   4   2 4201.35 201.318  10
  -4  -4  -2 4320.44 180.957  17
  -4  -4  -2 4155.31 211.370   9
   4   4   2 4306.92 217.380   9
  -4  -4  -2 4229.26 178.091  16
   4   4   2 4290.55 178.870  16
   4   4   2 4223.14 248.113   4
   4   4   2 3872.09 239.928  15
   4   4   3 11064.4 375.890   7
  -4  -4  -3 10302.6 368.207   7
   4   4   3 10806.4 393.204  14
  -4  -4  -3 11286.6 401.863  14
  -4  -4  -3 10895.8 393.307  13
  -4  -4  -3 11107.9 451.115  12
   4   4   3 10695.6 449.032   6
   4   4   3 10857.6 326.679  20
  -4  -4  -3 10634.4 325.571  20
   4   4   3 10917.6 403.335  11
  -4  -4  -3 10483.6 322.570  19
   4   4   3 10940.4 375.579  10
  -4  -4  -3 10897.3 334.570  17
  -4  -4  -3 10978.9 402.192   9
  -4  -4  -3 10765.0 325.155  21
  -4  -4  -3 10807.9 332.490  16
  -4  -4  -3 10440.1 367.382  10
   4   4   3 11118.6 335.769  16
   4   4   3 10762.0 428.486   4
   4   4   3 10746.6 416.280  15
   4   4   4 22162.7 644.869  14
  -4  -4  -4 22043.3 595.306   7
  -4  -4  -4 22432.5 645.705  14
  -4  -4  -4 22367.3 644.004  13
  -4  -4  -4 22166.4 582.305  21
  -4  -4  -4 21987.8 718.280  12
   4   4   4 22617.5 735.243   6
   4   4   4 22881.6 586.311  20
  -4  -4  -4 21522.5 585.335  20
   4   4   4 21938.9 685.316  11
   4   4   4 23095.2 588.618  19
  -4  -4  -4 21550.3 581.886  19
  -4  -4  -4 22539.9 642.751  10
   4   4   4 21971.7 643.500  10
  -4  -4  -4 21794.8 579.907  17
  -4  -4  -4 22749.1 595.298  17
  -4  -4  -4 21686.8 684.715   9
  -4  -4  -4 22237.1 589.765  16
   4   4   4 22141.5 704.298   4
   4   4   4 22486.8 665.314  15
  -4  -4  -4 22069.7 668.690  15
   4   4   4 23214.2 605.207   7
  -4  -4  -5 5627.49 211.512   7
  -4  -4  -5 5532.46 259.840  14
  -4  -4  -5 5484.42 236.800  21
   4   4   5 6492.22 348.011   6
  -4  -4  -5 5659.68 276.314  10
   4   4   5 5575.01 237.038  20
  -4  -4  -5 5408.59 240.183  20
   4   4   5 5235.11 295.661  11
  -4  -4  -5 5294.96 304.054  12
   4   4   5 6191.99 247.538  19
  -4  -4  -5 5356.63 235.882  19
  -4  -4  -5 5600.51 238.942  17
  -4  -4  -5 5464.92 303.707   9
  -4  -4  -5 6033.88 250.419  16
   4   4   5 5551.83 304.511   4
   4   4   5 5567.01 266.232  15
  -4  -4  -5 5302.79 262.108  15
  -4  -4  -6 5742.81 190.994   7
  -4  -4  -6 5272.44 260.380  14
  -4  -4  -6 5293.16 254.906  21
   4   4   6 5981.84 264.753  21
  -4  -4  -6 5112.23 307.653  12
   4   4   6 5574.61 334.231   6
   4   4   6 5450.12 255.042  20
  -4  -4  -6 5335.80 260.716  20
   4   4   6 4969.75 304.658  11
   4   4   6 5641.20 258.345  19
  -4  -4  -6 5555.33 261.095  19
  -4  -4  -6 5355.70 287.892  10
   4   4   6 5759.47 332.989  18
  -4  -4  -6 5401.84 256.727  17
  -4  -4  -6 5861.57 329.741   9
  -4  -4  -6 5597.62 264.181  16
   4   4   6 5361.98 287.086   8
   4   4   6 6397.88 274.382  15
   4   4   6 5556.14 316.439   4
  -4  -4  -6 5472.67 256.481  15
  -4  -4  -7 4.99857 26.2893  15
   4   4   7-17.6479 48.3228  19
  -4  -4  -7 19.3016 12.5770   7
   4   4   7-0.95547 53.3327   4
   4   4   7 4.72129 38.3926  21
   4   4   7-0.65808 45.4196  20
   4   4   7-18.2936 60.5371  11
   4   4   7 8.29261 65.4977   6
   4   4   7 58.1164 67.5068  18
  -4  -4  -7-17.7456 60.6687  10
  -4  -4  -7-29.9523 67.3992   9
   4   4   7 43.5418 52.3471   8
  -4  -4  -7 34.0383 51.0549  16
  -4  -4  -8 81.3155 36.6044  15
   4   4   8 22.4405 65.5837   4
   4   4   8 161.499 55.2215  21
   4   4   8 111.309 60.5777  20
   4   4   8 157.901 82.8554  11
   4   4   8 50.1676 71.0637   6
   4   4   8 172.260 68.1384  19
   4   4   8 25.3636 63.9747  18
  -4  -4  -8 199.446 87.6939  10
  -4  -4  -8 185.228 86.9715   9
   4   4   8 99.6228 61.6812   8
  -4  -4  -8 155.262 72.1670  16
   4   4   9 587.584 132.629   4
   4   4   9 537.593 105.313  21
   4   4   9 479.329 97.8650  20
   4   4   9 354.490 115.831  11
   4   4   9 661.378 140.901   6
   4   4   9 750.998 120.441  19
   4   4   9 391.512 104.854  18
  -4  -4  -9 663.551 132.543  10
  -4  -4  -9 588.075 142.264   9
   4   4   9 779.094 137.782   8
  -4  -4  -9 625.217 113.905  16
   4   4  10 5503.97 336.510  21
   4   4  10 5010.33 373.712   6
   4   4  10 4825.82 321.010  20
   4   4  10 5024.13 372.763  11
   4   4  10 4789.24 319.372  19
  -4  -4 -10 5251.47 360.844  10
   4   4  10 4852.61 346.386  18
  -4  -4 -10 5086.66 376.177   9
  -4  -4 -10 4766.53 324.920  16
   4   4  10 5075.70 335.231   8
   4   4  10 4961.47 361.812   4
   4   4  11 1670.45 223.694   4
   4   4  11 1182.89 171.945  20
   4   4  11 1488.89 218.732  11
   4   4  11 1552.59 222.071   6
   4   4  11 1226.85 174.190  19
   4   4  11 1572.55 202.146  18
  -4  -4 -11 1558.77 211.311  10
  -4  -4 -11 1755.37 226.711   9
   4   4  11 1468.42 185.203  21
   4   4  11 1813.55 207.680   8
  -4  -4 -11 1569.96 199.134  16
   4   4  12 281.250 95.7594  21
   4   4  12 320.767 103.968   4
   4   4  12 353.104 119.092  20
   4   4  12 244.161 116.721  11
   4   4  12 85.6323 82.2904   6
   4   4  12 243.257 86.8357  19
   4   4  12 274.576 93.3362  18
  -4  -4 -12 263.702 109.487  10
  -4  -4 -12 324.948 114.155   2
  -4  -4 -12 340.562 128.305   9
   4   4  12 242.307 97.0101   8
  -4  -4 -12 171.027 83.0793  16
   4   4  13 215.710 112.443   4
   4   4  13 167.936 101.894  21
   4   4  13 124.621 97.2595  20
   4   4  13 218.972 104.503  11
   4   4  13 36.4401 92.8715   6
   4   4  13 151.704 91.4850  19
  -4  -4 -13-30.4721 83.4582   2
   4   4  13-4.99720 73.7006  18
  -4  -4 -13 296.391 126.885  10
  -4  -4 -13 236.586 129.132   9
   4   4  13 146.400 86.6271   8
  -4  -4 -13-14.3287 98.7466  16
   4   4  14-87.6429 110.303   4
   4   4  14-85.6743 69.7742  21
   4   4  14 26.3389 77.4472  20
   4   4  14 83.6920 78.4244   6
   4   4  14-121.223 88.3630  19
  -4  -4 -14 52.2736 79.3808  10
  -4  -4 -14 68.4638 78.1227  16
   4   5 -10 3496.52 367.711   7
  -4  -5  10 3390.65 358.095  21
  -4  -5  10 4118.03 399.234  20
  -4  -5  10 3596.14 370.935  19
  -4  -5  10 3190.05 350.655  17
   4   5 -10 2892.76 307.513  15
   4   5  -9 325.686 119.609  15
   4   5  -9 9.35169 93.3813  14
   4   5  -9 179.505 105.920   7
  -4  -5   9 285.331 113.559  21
  -4  -5   9 351.802 129.080  19
  -4  -5   9 163.700 99.6135  17
  -4  -5   9 30.4783 81.7516   5
  -4  -5   9 304.777 123.400  20
   4   5  -8 1545.03 213.611  15
   4   5  -8 1860.17 254.395  14
   4   5  -8 1742.97 239.690   7
  -4  -5   8 1683.19 220.450  21
  -4  -5   8 1681.91 231.625  20
  -4  -5   8 1811.69 234.958  19
  -4  -5   8 1276.83 203.231  17
  -4  -5   8 2193.41 279.531   5
   4   5  -7 856.078 161.241  15
   4   5  -7 1053.95 192.067  14
   4   5  -7 918.558 176.015   7
  -4  -5   7 1258.24 181.991  21
  -4  -5   7 1199.06 191.397  20
  -4  -5   7 1150.51 184.241  19
  -4  -5   7 954.586 164.631  17
  -4  -5   7 1339.14 215.202   5
   4   5  -6 1110.49 174.121  15
   4   5  -6 1048.96 183.547  14
   4   5  -6 1401.48 200.068   7
  -4  -5   6 1252.84 175.390  21
  -4  -5   6 1110.65 173.861  20
  -4  -5   6 1148.19 169.268  19
  -4  -5   6 914.054 148.381  17
  -4  -5   6 1186.88 194.561   5
   4   5  -5 150.708 76.6382  15
   4   5  -5 237.238 104.852  14
   4   5  -5 209.085 98.1731   7
  -4  -5   5 136.809 86.9272  20
  -4  -5   5 173.614 87.9728  19
  -4  -5   5 158.373 75.9703  21
  -4  -5   5 194.230 76.7098  17
  -4  -5   5 80.0062 69.5568   5
   4   5  -4 22249.6 826.698   7
   4   5  -4 22152.1 830.886  14
  -4  -5   4 23179.1 606.473   2
  -4  -5   4 23230.2 760.891  21
  -4  -5   4 22291.8 765.257  20
  -4  -5   4 22117.1 755.822  19
  -4  -5   4 21300.3 813.386   5
  -4  -5   4 21310.5 742.920  17
   4   5  -4 22295.0 820.471  15
   4   5  -3 4625.68 324.141   7
   4   5  -3 4964.50 335.388  14
  -4  -5   3 4778.82 334.736  13
  -4  -5   3 4493.92 272.500  21
  -4  -5   3 5263.45 298.883  20
  -4  -5   3 5312.64 293.050  19
  -4  -5   3 4994.04 331.146   5
  -4  -5   3 5458.53 292.163  17
  -4  -5   3 5089.47 282.932  16
   4   5  -3 4835.41 332.796  15
   4   5  -2 719.237 130.842  15
   4   5  -2 722.476 132.173  14
   4   5  -2 1238.78 157.180   7
  -4  -5   2 806.987 139.984  13
  -4  -5   2 929.917 110.327  21
  -4  -5   2 1084.81 122.745  20
  -4  -5   2 1087.94 118.180  19
  -4  -5   2 820.065 54.7770   3
   4   5  -2 844.541 98.0887  10
  -4  -5   2 1008.84 113.967  17
  -4  -5   2 1001.78 114.735  16
  -4  -5   2 964.324 147.193   5
   4   5  -1 276.812 88.8126  15
   4   5  -1 341.711 93.8864  14
   4   5  -1 315.336 82.4895   7
  -4  -5   1 329.767 97.5105  13
  -4  -5   1 330.848 63.6756  21
   4   5  -1 351.322 32.9505  11
  -4  -5   1 419.263 68.5385  20
  -4  -5   1 391.379 72.4191  19
   4   5  -1 363.127 59.8572  10
  -4  -5   1 434.051 96.6155  12
  -4  -5   1 403.006 53.4338   3
  -4  -5   1 316.734 63.0544  17
   4   5  -1 359.113 60.6447  17
   4   5  -1 374.249 62.5934  21
  -4  -5   1 403.610 96.6452   5
  -4  -5   1 382.048 66.2035  16
   4   5  -1 428.865 66.9198  16
   4   5   0 1659.93 164.435   7
   4   5   0 1429.71 160.785  14
  -4  -5   0 1239.64 148.357  13
  -4  -5   0 1718.80 114.955  21
   4   5   0 1571.69 111.874  21
  -4  -5   0 1571.55 106.382  20
   4   5   0 1579.99 96.3789  11
  -4  -5   0 1419.24 108.215  20
  -4  -5   0 1461.97 165.421  12
  -4  -5   0 1610.37 113.537  19
   4   5   0 1554.13 107.912  10
  -4  -5   0 1717.09 113.967  17
   4   5   0 1697.54 114.219  17
  -4  -5   0 1674.73 96.4773   9
  -4  -5   0 1611.82 109.004  16
   4   5   0 1413.61 104.669  16
  -4  -5   0 1308.62 151.964   5
   4   5   0 1568.45 171.885  15
   4   5   1 93.4507 65.8133  15
   4   5   1 79.9337 49.1292  14
   4   5   1 75.9686 46.7743   7
  -4  -5  -1 85.8417 50.2489  13
  -4  -5  -1 68.5305 59.8373  12
  -4  -5  -1 65.8188 25.8088  21
  -4  -5  -1 73.3088 21.3589  20
  -4  -5  -1 53.3634 28.3296  11
  -4  -5  -1 37.9068 25.2063  20
   4   5   1 53.8633 29.0965  11
  -4  -5  -1 78.5427 23.0450  19
  -4  -5  -1 79.8243 26.9756  19
  -4  -5  -1 63.2020 29.2215  10
   4   5   1 47.5524 26.1255  10
  -4  -5  -1 86.4379 27.2223  17
   4   5   1 67.0201 24.0451  17
   4   5   1 89.3554 66.7246   6
  -4  -5  -1 89.0363 34.3511   9
  -4  -5  -1 29.8911 17.7412  16
  -4  -5  -1 51.3643 53.9993   5
   4   5   1 47.2935 22.1918  16
   4   5   2 15522.9 543.987   7
   4   5   2 16615.7 576.474  14
  -4  -5  -2 15944.1 563.945  13
  -4  -5  -2 15641.9 384.229  21
  -4  -5  -2 15510.4 387.800  21
  -4  -5  -2 15795.7 590.490  12
   4   5   2 15519.3 591.611   6
  -4  -5  -2 14945.2 481.622  11
  -4  -5  -2 16102.1 386.127  20
   4   5   2 16507.8 499.767  11
  -4  -5  -2 15697.6 384.051  19
  -4  -5  -2 16431.1 447.083  10
  -4  -5  -2 15919.0 391.689  19
   4   5   2 16607.4 448.249  10
  -4  -5  -2 15669.8 386.502  17
  -4  -5  -2 16762.7 498.879   9
  -4  -5  -2 16083.5 387.494  16
   4   5   2 15705.5 388.610  16
   4   5   2 15961.4 558.834   4
   4   5   2 16048.7 589.736  15
   4   5   3 7349.54 351.186  14
  -4  -5  -3 8038.76 361.706  13
  -4  -5  -3 7398.89 204.635  21
  -4  -5  -3 7670.44 209.240  21
  -4  -5  -3 7263.02 371.106  12
   4   5   3 7769.09 391.161   6
  -4  -5  -3 7266.50 204.889  20
   4   5   3 7530.15 328.280  11
  -4  -5  -3 7256.28 203.640  19
  -4  -5  -3 7605.77 210.822  19
  -4  -5  -3 8271.52 281.508  10
   4   5   3 7812.27 277.736  10
  -4  -5  -3 7569.28 204.308  17
  -4  -5  -3 7306.32 207.353  17
  -4  -5  -3 7725.83 325.921   9
  -4  -5  -3 7477.60 206.126  16
   4   5   3 7758.70 354.415   4
   4   5   3 8212.90 377.009  15
   4   5   3 8000.17 336.214   7
  -4  -5  -4 894.523 98.1622   7
   4   5   4 774.356 97.7738   7
   4   5   4 598.762 96.7073  14
   4   5   4 724.988 110.796   4
  -4  -5  -4 597.815 96.5287  13
  -4  -5  -4 701.186 53.8736  21
  -4  -5  -4 669.190 116.824  12
   4   5   4 665.180 51.5458  20
  -4  -5  -4 631.749 53.1106  20
   4   5   4 685.625 116.862   6
   4   5   4 658.911 100.470  11
  -4  -5  -4 621.919 51.9962  19
  -4  -5  -4 799.083 84.3438  10
  -4  -5  -4 707.146 54.2347  17
  -4  -5  -4 800.788 58.6526  17
  -4  -5  -4 765.374 56.6272  16
  -4  -5  -4 808.102 107.527   9
   4   5   4 717.893 108.944  15
   4   5   5 468.397 103.323   4
  -4  -5  -5 498.220 70.3556   7
  -4  -5  -5 405.851 93.5093  12
   4   5   5 519.699 97.5309  11
   4   5   5 513.654 56.6338  20
   4   5   5 500.210 98.8809   6
  -4  -5  -5 468.613 55.1681  20
   4   5   5 519.684 55.9164  19
  -4  -5  -5 510.890 58.0304  19
   4   5   5 509.732 109.313  18
  -4  -5  -5 541.198 76.3753  10
  -4  -5  -5 606.951 63.3766  17
  -4  -5  -5 401.045 49.7460  17
  -4  -5  -5 466.086 100.961   9
  -4  -5  -5 539.749 60.1367  16
  -4  -5  -5 509.421 56.7688  16
  -4  -5  -5 449.049 53.2112  21
   4   5   5 501.197 89.5134  15
  -4  -5  -6 55.1344 33.6913   7
   4   5   6 7.76375 56.0610   4
   4   5   6-6.38316 30.1728  19
  -4  -5  -6 33.2699 37.6310  10
  -4  -5  -6 18.5676 28.7343  20
   4   5   6 48.9474 64.3042   6
   4   5   6 6.50102 67.4502  11
  -4  -5  -6-5.43650 58.6161  12
  -4  -5  -6 18.3033 27.9451  19
   4   5   6 19.2684 70.1712  18
  -4  -5  -6-12.9979 31.3734  17
  -4  -5  -6 10.0963 25.3003  21
   4   5   6 29.3268 30.9254  20
  -4  -5  -6 6.81785 54.4292   9
  -4  -5  -6-2.84084 27.9769  16
   4   5   6 10.4264 55.3037   8
  -4  -5  -6 57.5989 32.2323  16
  -4  -5  -7 10037.8 340.572   7
   4   5   7 10987.7 386.597  21
  -4  -5  -7 9804.71 463.591  12
   4   5   7 10652.4 511.485   6
   4   5   7 11374.7 393.624  20
  -4  -5  -7 9918.68 387.881  20
   4   5   7 11553.6 513.850  11
   4   5   7 10775.6 385.729  19
  -4  -5  -7 9801.15 384.046  19
  -4  -5  -7 11218.7 450.377  10
   4   5   7 11665.3 531.464  18
  -4  -5  -7 10463.3 387.265  17
  -4  -5  -7 11513.4 511.205   9
  -4  -5  -7 10263.9 383.507  16
  -4  -5  -7 10172.2 384.562  21
  -4  -5  -7 11189.8 398.205  16
   4   5   7 10582.3 478.390   8
   4   5   7 10286.5 465.899   4
   4   5   8 92.1013 65.6514   4
   4   5   8 60.2133 45.6484  21
  -4  -5  -8 32.1166 78.4964  12
   4   5   8 115.826 53.5830  20
   4   5   8 99.6076 73.7035  11
   4   5   8 103.398 70.0285   6
   4   5   8 121.938 54.9028  19
   4   5   8-44.9816 74.9006  18
  -4  -5  -8 85.1225 62.7914  10
  -4  -5  -8 156.513 80.5976   9
   4   5   8 70.8899 59.1566   8
  -4  -5  -8-2.74119 46.8333  16
   4   5   9 76.6983 66.5041   4
   4   5   9 194.766 59.9925  21
   4   5   9 82.0185 48.2119  20
   4   5   9 96.1454 82.6121  11
   4   5   9 219.454 86.7484   6
   4   5   9 205.112 67.4127  19
   4   5   9 130.998 90.1616  18
  -4  -5  -9 111.313 66.2230  10
  -4  -5  -9 228.827 98.4251   9
   4   5   9 117.036 84.5479   8
  -4  -5  -9 259.556 76.1823  16
   4   5  10 4892.10 308.944  20
   4   5  10 4918.12 380.531  11
   4   5  10 5159.39 314.156  19
  -4  -5 -10 4734.43 338.985  10
   4   5  10 5115.66 374.341  18
   4   5  10 5074.33 312.042  21
  -4  -5 -10 5045.19 378.343   9
   4   5  10 4837.51 370.709   6
  -4  -5 -10 4719.30 310.324  16
   4   5  10 5216.29 359.840   8
   4   5  10 4912.32 350.399   4
   4   5  11 473.117 121.300   4
   4   5  11 352.095 100.224  21
   4   5  11 519.742 116.333  20
   4   5  11 645.743 158.467  11
   4   5  11 569.362 140.369   6
  -4  -5 -11 592.125 136.518   2
   4   5  11 539.157 111.580  19
   4   5  11 369.857 108.513  18
  -4  -5 -11 629.811 142.242  10
  -4  -5 -11 298.901 120.945   9
   4   5  11 637.366 134.140   8
  -4  -5 -11 625.242 125.676  16
   4   5  12-11.9708 66.5462   4
   4   5  12 3.10101 56.2804  21
   4   5  12-8.60585 68.6878  20
   4   5  12-46.6000 94.6389  11
   4   5  12-29.6703 97.9440   6
   4   5  12-9.95306 65.0882  19
  -4  -5 -12 20.0256 85.1477   2
   4   5  12-249.365 100.917  18
  -4  -5 -12 113.249 87.5137  10
  -4  -5 -12-15.0369 72.0955   9
   4   5  12-10.2532 79.8036   8
   4   5  13 49.1058 94.5739   4
   4   5  13 73.0972 82.4603  21
   4   5  13 30.2439 79.1005  20
   4   5  13-12.9751 99.6642   6
   4   5  13 143.942 89.6055  19
  -4  -5 -13 20.9023 67.0182   2
   4   5  13 92.3417 80.8267  18
  -4  -5 -13-92.1958 90.3850  10
  -4  -5 -13-36.3822 93.0098   9
   4   5  13 243.659 113.095   8
   4   5  14 106.334 90.9731   4
   4   5  14 498.484 146.942  18
   4   5  14 407.919 134.909   6
  -4  -5 -14 81.4409 93.9022  10
   4   5  14 261.288 93.8048   8
   4   6  -9 1721.70 244.788  15
   4   6  -9 2184.05 290.232   7
   4   6  -9 2653.37 326.908  14
  -4  -6   9 1889.08 254.640  21
  -4  -6   9 2078.80 270.917  20
  -4  -6   9 2100.97 274.440  19
  -4  -6   9 2102.34 273.831  17
   4   6  -8 609.400 143.695  15
   4   6  -8 727.872 187.723  14
   4   6  -8 386.105 134.277   7
  -4  -6   8 444.868 134.421  21
  -4  -6   8 659.610 148.846  20
  -4  -6   8 510.726 147.504  19
  -4  -6   8 603.339 146.350  17
  -4  -6   8 732.864 179.963   5
   4   6  -7 369.383 115.384  15
   4   6  -7 299.470 120.977  14
   4   6  -7 300.899 119.513   7
  -4  -6   7 192.838 92.7299  21
  -4  -6   7 330.438 107.637  20
  -4  -6   7 133.314 76.4999  19
  -4  -6   7 210.324 93.9585  17
  -4  -6   7 151.994 93.4224   5
   4   6  -6 250.639 110.483  15
   4   6  -6 8.68943 76.1509  14
   4   6  -6 90.2265 101.861   7
  -4  -6   6 91.5557 70.6964  21
  -4  -6   6 125.117 85.2049  20
  -4  -6   6 135.069 66.3414  19
  -4  -6   6 157.007 75.2202  17
  -4  -6   6 41.6739 78.2619   5
   4   6  -5 1180.92 187.609  15
   4   6  -5 1329.57 198.280  14
   4   6  -5 1124.66 187.549   7
  -4  -6   5 1092.40 149.572  21
  -4  -6   5 1434.13 183.089  20
  -4  -6   5 1202.17 165.228  19
  -4  -6   5 1417.05 173.202  17
  -4  -6   5 1162.31 189.080   5
   4   6  -4 1983.37 225.733  15
   4   6  -4 2007.16 233.699   7
   4   6  -4 1676.42 215.382  14
  -4  -6   4 2054.91 191.768  21
  -4  -6   4 1788.01 129.885   2
  -4  -6   4 2149.93 199.312  20
  -4  -6   4 2168.87 199.153  19
  -4  -6   4 2013.19 189.480  17
  -4  -6   4 1536.89 225.689  13
  -4  -6   4 1978.04 229.993   5
   4   6  -3 12039.6 587.611   7
   4   6  -3 12425.7 595.727  14
  -4  -6   3 12537.7 611.380  13
  -4  -6   3 13139.5 457.106   2
  -4  -6   3 12923.3 504.186  20
  -4  -6   3 13652.6 504.493  21
  -4  -6   3 13283.0 503.372  19
  -4  -6   3 12682.0 587.202   5
  -4  -6   3 14269.4 513.867  17
   4   6  -3 13759.9 619.148  15
   4   6  -2 2658.27 248.173   7
   4   6  -2 2646.58 246.443  14
  -4  -6   2 2768.62 262.421  13
  -4  -6   2 2628.42 191.217   2
  -4  -6   2 3017.49 196.672  20
  -4  -6   2 2999.51 193.811  19
   4   6  -2 2523.30 161.555  10
  -4  -6   2 2933.82 143.063   3
  -4  -6   2 3236.19 265.179   5
  -4  -6   2 2990.69 192.216  17
  -4  -6   2 2734.38 183.704  21
   4   6  -2 2886.88 259.340  15
   4   6  -1 10840.5 510.931   7
   4   6  -1 10804.6 512.661  14
  -4  -6   1 11514.7 505.370   5
  -4  -6   1 9528.40 491.920  13
  -4  -6   1 11142.7 448.374   2
  -4  -6   1 11603.4 379.845  21
   4   6  -1 10722.7 375.817  21
  -4  -6   1 11577.6 387.812  20
  -4  -6   1 11280.5 376.752   3
  -4  -6   1 11448.7 383.039  19
   4   6  -1 10729.7 341.565  10
  -4  -6   1 11705.1 381.855  17
   4   6  -1 10199.3 369.019  17
   4   6  -1 10565.5 371.558  16
   4   6  -1 10728.0 523.714  15
  -4  -6   0 143.712 81.0177  13
   4   6   0 69.9147 79.4669  15
   4   6   0-1.05362 64.4605  14
   4   6   0-35.5268 75.3768   7
   4   6   0 51.0802 26.3120  21
  -4  -6   0 43.0158 26.0364  21
  -4  -6   0 74.8775 27.9238  20
  -4  -6   0 37.4005 20.4299  11
  -4  -6   0 102.047 31.8339  20
  -4  -6   0 55.1548 23.9568  19
   4   6   0 18.8329 15.0750  10
  -4  -6   0 95.2089 28.6409  17
  -4  -6   0 29.3124 35.2373   3
   4   6   0 60.7159 23.3475  17
  -4  -6   0 42.8225 19.4254   9
  -4  -6   0 72.7062 64.9384   5
   4   6   0 19.1024 22.6630  16
   4   6   1 6299.62 348.681   7
   4   6   1 6128.55 353.213  14
  -4  -6  -1 6167.16 351.034  13
  -4  -6  -1 6178.32 167.743  21
  -4  -6  -1 6347.63 362.336  12
  -4  -6  -1 6190.46 240.691  11
  -4  -6  -1 5590.53 164.774  20
  -4  -6  -1 5932.77 169.444  20
  -4  -6  -1 4856.23 160.000  19
  -4  -6  -1 5929.56 166.436  19
   4   6   1 6073.81 182.999  10
  -4  -6  -1 6561.32 342.748   5
   4   6   1 5812.23 169.562  17
  -4  -6  -1 6247.96 242.808   9
   4   6   1 6214.58 170.112  16
   4   6   1 5449.66 343.603  15
  -4  -6  -1 6653.77 307.591   3
   4   6   2 9147.74 440.344  14
  -4  -6  -2 9342.24 435.880  13
   4   6   2 9321.85 453.249   6
  -4  -6  -2 8125.97 329.238  11
  -4  -6  -2 9271.77 409.431   5
  -4  -6  -2 9444.71 348.188   9
  -4  -6  -2 9174.78 447.372  12
   4   6   2 9245.29 449.335  15
   4   6   2 9283.50 422.129   7
   4   6   3 4570.93 294.940  14
  -4  -6  -3 4455.43 290.171  13
  -4  -6  -3 4476.90 299.427  12
   4   6   3 4551.26 308.302   6
   4   6   3 5016.01 263.031  11
  -4  -6  -3 4823.69 174.708  10
  -4  -6  -3 4651.63 252.166   9
   4   6   3 4890.62 278.069   4
   4   6   3 4733.98 306.643  15
   4   6   3 4658.67 278.093   7
   4   6   4 10285.4 463.572  14
  -4  -6  -4 9660.63 445.535  13
  -4  -6  -4 9862.33 465.896  12
  -4  -6  -4 10656.0 329.606  10
   4   6   4 10540.2 492.872   6
   4   6   4 10108.5 488.267  18
  -4  -6  -4 9431.52 414.341   9
   4   6   4 10267.9 429.256   4
   4   6   4 10688.2 436.026  11
   4   6   4 10026.2 464.657  15
   4   6   4 10091.4 427.424   7
  -4  -6  -5 880.760 139.498  12
   4   6   5 1097.03 157.196   6
   4   6   5 1190.17 146.789  11
  -4  -6  -5 1109.23 101.226  10
   4   6   5 919.210 154.314  18
  -4  -6  -5 972.822 135.686   9
   4   6   5 1252.41 140.897   4
   4   6   5 971.787 135.352  15
   4   6   6 129.197 63.8340   4
  -4  -6  -6 224.996 87.0967  12
  -4  -6  -6 199.015 33.6315  21
   4   6   6 229.385 35.0293  20
   4   6   6 226.138 84.8973   6
   4   6   6 159.854 72.4164  11
   4   6   6 227.630 36.4901  19
  -4  -6  -6 213.679 35.5062  19
   4   6   6 194.587 78.0212  18
  -4  -6  -6 226.079 57.2038  10
  -4  -6  -6 216.308 37.8187  17
  -4  -6  -6 246.345 38.0005  17
  -4  -6  -6 260.758 90.4339   9
  -4  -6  -6 170.058 33.6011  16
   4   6   6 274.370 92.2920   8
  -4  -6  -6 254.293 38.6682  16
   4   6   7 660.233 111.292   4
   4   6   7 750.095 77.0976  21
  -4  -6  -7 840.496 136.983  12
   4   6   7 822.850 80.6278  20
   4   6   7 1044.80 161.675   6
   4   6   7 859.204 82.4207  19
   4   6   7 829.045 145.111  11
   4   6   7 947.447 166.776  18
  -4  -6  -7 863.453 113.863  10
  -4  -6  -7 760.044 139.457   9
   4   6   7 676.777 128.133   8
  -4  -6  -7 729.612 81.2374  16
   4   6   8 912.294 137.610   4
  -4  -6  -8 1079.48 154.296  12
   4   6   8 1026.31 105.138  21
   4   6   8 731.615 141.142   6
   4   6   8 958.592 158.309  11
  -4  -6  -8 748.636 150.458   2
   4   6   8 823.559 93.0931  19
   4   6   8 881.450 99.9653  20
   4   6   8 936.975 162.563  18
  -4  -6  -8 881.681 125.449  10
  -4  -6  -8 878.839 153.248   9
  -4  -6  -8 1001.32 107.009  16
   4   6   8 857.778 149.970   8
   4   6   9 596.437 123.914   4
   4   6   9 523.090 86.3998  21
  -4  -6  -9 488.538 118.334  12
   4   6   9 593.355 95.5051  20
   4   6   9 485.526 125.409   6
   4   6   9 566.503 132.315  11
   4   6   9 416.041 82.1537  19
  -4  -6  -9 546.477 141.756   2
   4   6   9 502.940 131.453  18
  -4  -6  -9 482.427 103.010  10
  -4  -6  -9 401.593 117.966   9
   4   6   9 694.538 142.773   8
  -4  -6  -9 510.586 92.0722  16
   4   6  10 630.097 130.132   4
   4   6  10 409.643 124.438   6
   4   6  10 546.909 144.509  11
  -4  -6 -10 548.476 141.239   2
   4   6  10 613.191 146.617  18
  -4  -6 -10 471.772 112.188  10
  -4  -6 -10 600.742 145.584   9
   4   6  10 592.252 139.294   8
   4   6  11 59.4157 77.1144   4
   4   6  11 15.6869 86.1105   6
  -4  -6 -11 30.2763 102.476   2
   4   6  11 35.0548 75.1551  18
  -4  -6 -11-51.1545 79.1199  10
  -4  -6 -11-51.9970 105.303   9
   4   6  11-6.30526 77.5904   8
   4   6  12 3040.10 321.598   6
  -4  -6 -12 2837.23 287.449  10
   4   6  12 2647.89 301.834  18
  -4  -6 -12 3771.10 362.903   9
   4   6  12 2925.15 310.404   8
  -4  -6 -12 3426.13 337.870   2
   4   6  12 2977.08 290.435   4
   4   6  13 111.001 81.8476   4
   4   6  13 52.2291 73.5738   6
   4   6  13 41.0559 64.9110  18
  -4  -6 -13-15.8351 71.2150   2
  -4  -6 -13-75.5541 78.2454  10
   4   6  13-48.4583 79.8882   8
   4   6  14 3349.08 356.669   6
  -4  -6 -14 3048.69 339.231   2
   4   6  14 3280.17 357.785  18
  -4  -6 -14 2806.64 324.884  10
   4   6  14 2705.45 322.645   8
  -4  -7   9 2306.68 289.416  21
  -4  -7   9 1854.98 268.526  20
  -4  -7   9 2538.89 308.483  19
  -4  -7   9 1620.42 245.537  17
   4   7  -9 1790.95 257.904  15
   4   7  -8 90.9695 91.8021  15
   4   7  -8 54.2082 80.1049   7
   4   7  -8 156.242 116.774  14
  -4  -7   8 18.1514 66.9778  21
  -4  -7   8 162.614 93.8546  20
  -4  -7   8 230.829 96.1157  17
   4   7  -7 8514.23 566.470   7
   4   7  -7 7546.04 538.475  14
  -4  -7   7 7404.52 466.135  21
  -4  -7   7 8289.76 501.118  20
  -4  -7   7 7670.07 474.035  19
  -4  -7   7 7364.48 534.513   5
  -4  -7   7 7090.16 459.905  17
   4   7  -7 7850.93 516.413  15
   4   7  -6 1224.17 200.322  15
   4   7  -6 1672.25 250.632   7
   4   7  -6 1407.16 228.456  14
  -4  -7   6 1789.37 208.385  21
  -4  -7   6 1591.65 202.768  20
  -4  -7   6 1486.39 195.321  19
  -4  -7   6 1452.11 195.836  17
  -4  -7   6 1888.86 262.311   5
   4   7  -5 779.120 164.471  15
   4   7  -5 1093.68 200.587   7
   4   7  -5 1136.83 198.150  14
  -4  -7   5 872.981 138.856  21
  -4  -7   5 917.239 141.579  20
  -4  -7   5 934.526 142.453  19
  -4  -7   5 971.704 147.955  17
  -4  -7   5 953.151 178.835   5
   4   7  -4-34.2282 94.9811  15
   4   7  -4 66.2667 76.7343   7
   4   7  -4 126.974 88.1928  14
  -4  -7   4-68.4411 114.020  13
  -4  -7   4-219.682 74.1514  21
  -4  -7   4 10.7603 61.7411  20
  -4  -7   4 63.1003 67.7877  19
  -4  -7   4 0.79954 47.6159  17
  -4  -7   4-62.7697 74.4808   5
   4   7  -3 902.982 165.136  15
   4   7  -3 731.508 158.547   7
   4   7  -3 912.054 176.233  14
  -4  -7   3 1195.20 133.408  21
  -4  -7   3 1120.18 194.421  13
  -4  -7   3 947.251 128.955  20
  -4  -7   3 1110.10 129.537  19
  -4  -7   3 1058.63 124.864   2
  -4  -7   3 1060.83 125.630  17
  -4  -7   3 946.031 164.768   5
   4   7  -2 7026.36 444.813   7
   4   7  -2 7310.80 454.977  14
  -4  -7   2 7003.40 446.694  13
  -4  -7   2 7440.97 318.050  21
  -4  -7   2 7301.95 359.190   2
  -4  -7   2 7659.69 327.158  20
  -4  -7   2 7075.29 313.891  19
  -4  -7   2 7800.21 300.082   3
  -4  -7   2 7384.66 429.800   5
   4   7  -2 7574.49 461.892  15
   4   7  -1 1405.95 190.681   7
   4   7  -1 1129.91 176.164  14
  -4  -7   1 1490.92 114.127  21
  -4  -7   1 1094.98 180.303  13
  -4  -7   1 1464.72 160.748   2
  -4  -7   1 1636.76 121.392  20
  -4  -7   1 1574.17 116.551  19
  -4  -7   1 1673.35 143.330   3
  -4  -7   1 1287.77 172.054   5
   4   7  -1 1383.65 192.499  15
   4   7   0 3350.72 286.411  14
  -4  -7   0 3105.97 277.923  13
  -4  -7   0 3757.83 147.847  21
  -4  -7   0 3621.40 264.353   2
  -4  -7   0 3573.33 146.315  20
  -4  -7   0 3645.00 228.736   3
  -4  -7   0 3673.36 146.434  19
  -4  -7   0 3386.08 266.194   5
  -4  -7   0 3605.14 147.257   9
   4   7   0 3663.28 150.790  16
   4   7   0 2957.85 275.308  15
   4   7   0 3296.62 285.641   7
   4   7   1 2036.83 227.948   1
   4   7   1 2101.94 224.239  14
  -4  -7  -1 1806.00 206.871  13
  -4  -7  -1 2292.20 215.917   2
  -4  -7  -1 2589.65 199.531   3
  -4  -7  -1 2446.63 209.393   5
  -4  -7  -1 2520.71 149.071   9
   4   7   1 2298.33 237.483  15
   4   7   1 2209.96 227.990   7
   4   7   2 56849.7 1543.76  14
  -4  -7  -2 54477.7 1521.90  13
  -4  -7  -2 54788.5 1507.40   2
  -4  -7  -2 54350.8 1524.33  12
  -4  -7  -2 51402.1 1314.85  11
  -4  -7  -2 55207.4 1447.99   3
  -4  -7  -2 55169.3 1436.95   5
   4   7   2 54734.8 1567.26   1
  -4  -7  -2 57184.7 1338.38   9
   4   7   2 57546.3 1569.63  15
   4   7   2 54734.1 1508.12   7
   4   7   3 1670.67 182.018   7
   4   7   3 1774.39 201.335  14
  -4  -7  -3 1419.17 183.157  13
  -4  -7  -3 1128.00 162.311  12
   4   7   3 1406.76 183.672   6
  -4  -7  -3 1482.87 185.636   2
   4   7   3 1424.62 185.648  18
  -4  -7  -3 1875.66 175.183   5
  -4  -7  -3 1348.56 164.561   3
  -4  -7  -3 1698.79 153.857   9
   4   7   3 1489.04 204.824   1
   4   7   3 1566.98 193.605  15
  -4  -7  -4 13115.3 576.911  13
  -4  -7  -4 14057.6 617.469   2
  -4  -7  -4 13149.4 577.205  12
   4   7   4 12759.7 581.928   6
  -4  -7  -4 12847.2 565.318   3
  -4  -7  -4 12936.9 320.261  10
   4   7   4 14341.2 619.355  18
  -4  -7  -4 13638.0 522.026   9
   4   7   4 13567.6 593.910  15
   4   7   5 133.183 55.4192   4
  -4  -7  -5 161.350 85.8569  12
  -4  -7  -5 170.984 85.1693   2
   4   7   5 71.2983 81.8761  18
  -4  -7  -5 123.063 34.2927  10
  -4  -7  -5 128.314 72.5617   9
   4   7   5 113.769 72.1000   6
  -4  -7  -6 7046.34 447.988   2
  -4  -7  -6 7564.17 421.055  12
   4   7   6 7342.72 435.731   6
  -4  -7  -6 7600.45 300.068  10
   4   7   6 7244.95 451.770  18
  -4  -7  -6 7365.94 409.038   9
   4   7   6 7903.07 376.359   4
   4   7   7 144.746 62.2821   4
   4   7   7-2.23983 75.0003   6
  -4  -7  -7 146.641 95.8969   2
   4   7   7 95.5214 89.9470  18
  -4  -7  -7 111.476 55.3129  10
  -4  -7  -7 155.011 81.2285   9
  -4  -7  -7 72.2326 81.0512  12
   4   7   7 108.450 74.1489   8
  -4  -7  -8 13982.9 686.656   2
  -4  -7  -8 13375.2 595.190  12
   4   7   8 13929.3 646.395   6
  -4  -7  -8 15059.5 544.148  10
   4   7   8 14884.3 705.580  18
  -4  -7  -8 14395.6 651.420   9
   4   7   8 14473.7 675.224   8
   4   7   8 13438.9 561.167   4
   4   7   9 63.6316 58.9604   4
  -4  -7  -9 119.173 83.5676  12
   4   7   9 7.23660 73.2409   6
  -4  -7  -9 87.1530 92.6911   2
   4   7   9 86.3407 86.9050  18
  -4  -7  -9 49.8974 46.2383  10
  -4  -7  -9-37.6779 70.9804   9
   4   7   9 146.113 93.0577   8
   4   7  10-34.6276 77.0531   4
  -4  -7 -10-287.751 99.5146  12
   4   7  10-29.1112 79.0424  18
   4   7  10 64.0973 74.0205   6
  -4  -7 -10-1.25294 102.885   2
  -4  -7 -10 62.6314 70.9224  10
  -4  -7 -10-409.292 133.076   9
   4   7  10 36.0288 77.9692   8
   4   7  11-49.6319 84.8904   6
  -4  -7 -11 139.021 109.047   2
   4   7  11 33.8080 87.1289  18
  -4  -7 -11 36.0200 67.0326  10
  -4  -7 -11 79.4549 96.9972   9
   4   7  11 113.683 100.314   8
   4   7  12-57.1132 103.630   6
   4   7  12-91.6300 90.3639  18
  -4  -7 -12 15.9209 115.547   2
  -4  -7 -12 23.6990 75.8863  10
  -4  -7 -12 64.9962 88.9368   9
   4   7  12-78.3407 94.5517   8
   4   7  13 6630.83 494.935   6
   4   7  13 6357.54 510.759   8
   4   8  -8 1054.56 216.655  15
   4   8  -7 443.785 148.609  15
   4   8  -6 1952.32 282.826   7
   4   8  -6 2133.89 286.066  14
  -4  -8   6 1862.98 270.007   5
   4   8  -6 1871.12 270.509  15
   4   8  -5 381.513 141.554  14
  -4  -8   5 357.749 145.957  13
  -4  -8   5 406.526 125.935   5
   4   8  -5 352.273 130.570  15
   4   8  -4 41.7755 91.8496   7
   4   8  -4 24.7016 81.3458  14
  -4  -8   4 103.535 106.993  13
  -4  -8   4 78.7897 93.6173   5
   4   8  -4 37.4974 67.6826  15
   4   8  -3 1081.64 192.128   7
   4   8  -3 1036.17 188.271  14
  -4  -8   3 676.207 165.926  13
  -4  -8   3 1223.49 186.786   5
   4   8  -3 1031.80 184.920  15
   4   8  -2 1204.26 197.014   7
   4   8  -2 1108.43 184.498  14
  -4  -8   2 994.107 173.684  13
  -4  -8   2 1128.59 148.516   2
  -4  -8   2 1269.12 185.579   5
   4   8  -2 1307.06 210.377  15
   4   8  -1 4079.93 348.925  14
  -4  -8   1 4169.44 349.651  13
  -4  -8   1 3937.57 290.164   2
  -4  -8   1 4012.13 252.043   3
  -4  -8   1 4034.07 309.239   5
   4   8  -1 3764.68 337.181   1
   4   8  -1 4217.20 353.469  15
   4   8  -1 3777.08 338.069   7
   4   8   0 156.229 105.478   7
   4   8   0 113.402 99.8574  14
  -4  -8   0 115.081 77.0548  13
   4   8   0 213.520 101.121   1
  -4  -8   0 248.142 85.1710   2
  -4  -8   0 269.295 90.8156   5
  -4  -8   0 131.189 53.2728   3
   4   8   0 137.285 86.5696  15
   4   8   1 757.592 149.201   7
   4   8   1 610.948 141.899  14
  -4  -8  -1 409.058 115.492  13
   4   8   1 517.758 150.470   1
  -4  -8  -1 673.090 134.277   2
  -4  -8  -1 835.886 131.304   3
  -4  -8  -1 752.120 124.874   5
   4   8   1 674.716 143.491  15
   4   8   2 578.144 137.757   7
   4   8   2 578.943 139.961  14
   4   8   2 799.115 158.380   1
  -4  -8  -2 666.000 145.508  13
  -4  -8  -2 616.533 130.133  12
  -4  -8  -2 730.360 140.600   2
  -4  -8  -2 579.374 113.088   3
  -4  -8  -2 719.980 120.128   5
  -4  -8  -2 667.996 97.4299   9
   4   8   2 399.688 114.002  15
   4   8   3 186.401 84.7391  14
  -4  -8  -3 633.398 133.777  13
   4   8   3 273.156 111.095   1
  -4  -8  -3 341.957 107.062  12
   4   8   3 299.271 93.9249  18
  -4  -8  -3 310.524 107.016   2
  -4  -8  -3 277.115 92.8396   3
  -4  -8  -3 383.707 83.0742   5
  -4  -8  -3 508.636 95.8894   9
   4   8   3 438.326 121.908  15
  -4  -8  -4 392.293 110.398  13
  -4  -8  -4 559.814 123.529  12
   4   8   4 430.701 120.085   6
   4   8   4 307.216 115.838   1
  -4  -8  -4 600.405 132.846   2
   4   8   4 507.546 143.124  18
  -4  -8  -4 648.504 134.674   3
  -4  -8  -4 521.351 110.125   9
  -4  -8  -4 600.309 101.980   5
  -4  -8  -5 1397.59 195.140  13
   4   8   5 2154.68 237.518   6
  -4  -8  -5 2178.78 243.014   3
   4   8   5 1782.97 239.573   1
  -4  -8  -5 1825.72 227.846   2
   4   8   5 2050.40 235.119  18
  -4  -8  -5 1534.33 155.708   5
  -4  -8  -5 1716.24 188.579   9
  -4  -8  -5 1866.89 217.403  12
  -4  -8  -6 3356.21 288.935  12
  -4  -8  -6 3207.87 321.349   2
   4   8   6 3228.65 293.776   6
  -4  -8  -6 3192.89 302.953   3
   4   8   6 3189.03 307.783  18
   4   8   6 3313.94 315.387   1
  -4  -8  -6 3102.79 272.642   9
  -4  -8  -7 3151.68 276.757  12
  -4  -8  -7 3392.13 332.622   2
   4   8   7 3246.35 295.776   6
   4   8   7 3240.87 322.050  18
  -4  -8  -7 2708.48 265.815   9
  -4  -8  -7 2973.62 303.407   3
  -4  -8  -8 95.1480 70.3286  12
   4   8   8 339.533 109.060   6
   4   8   8 133.784 91.9001  18
  -4  -8  -8 37.0411 80.8906   2
  -4  -8  -8 57.7555 84.6303   3
  -4  -8  -8 169.415 92.1581   9
   4   8   8 261.895 115.696   8
   4   8   9-5.96846 76.1510   6
  -4  -8  -9 9.20204 70.6915  12
   4   8   9-26.8630 104.830  18
  -4  -8  -9-120.395 106.195   2
  -4  -8  -9 110.014 115.794   3
  -4  -8  -9 47.6950 78.0317   9
   4   8   9-315.170 122.086   8
   4   8  10 57.7124 83.5889   6
   4   8  10 11.1545 67.0241  18
  -4  -8 -10 207.083 116.413   2
  -4  -8 -10-9.15197 109.083   3
  -4  -8 -10 214.412 104.621   9
   4   8  10 84.2068 90.9462   8
   4   8  11 719.969 171.177   6
   4   8  11 826.743 195.531  18
  -4  -8 -11 1269.72 234.271   2
  -4  -8 -11 889.509 198.879   3
  -4  -8 -11 799.124 181.566   9
   4   8  11 972.999 215.070   8
   4   8  12 966.275 194.751   6
  -4  -9   5 55.7002 92.5510   5
   4   9  -5-50.8877 108.264  15
   4   9  -4 937.456 199.287   7
   4   9  -4 717.246 179.403  14
  -4  -9   4 819.181 197.129  13
  -4  -9   4 720.446 168.264   5
   4   9  -4 884.597 193.508  15
  -4  -9   3 3943.28 387.268  13
  -4  -9   3 4338.51 365.559   5
   4   9  -3 4652.96 408.697  15
   4   9  -3 4451.33 411.442   7
   4   9  -2 384.733 145.414   7
   4   9  -2 411.190 132.821  14
  -4  -9   2 604.893 162.764  13
   4   9  -2 593.613 159.481   1
  -4  -9   2 466.351 125.683   5
   4   9  -2 462.045 146.125  15
   4   9  -1 1177.25 210.639   1
   4   9  -1 1238.60 215.378   7
   4   9  -1 970.730 194.767  14
  -4  -9   1 1376.49 216.354  13
  -4  -9   1 1214.75 170.195   2
  -4  -9   1 1065.71 172.565   5
   4   9  -1 1085.41 197.322  15
   4   9   0 103.309 76.6477   7
   4   9   0 104.500 94.0764  14
   4   9   0 78.5951 101.475   1
  -4  -9   0 50.9907 75.6871  13
  -4  -9   0-49.7034 74.1076   2
  -4  -9   0 92.1262 83.7564   5
  -4  -9   0-60.7652 68.0135   3
   4   9   0 93.4857 85.5337  15
   4   9   1 793.993 168.242   7
   4   9   1 814.194 171.278  14
  -4  -9  -1 656.791 151.496  13
  -4  -9  -1 780.736 155.790   2
  -4  -9  -1 643.155 120.196   5
  -4  -9  -1 657.537 120.478   3
   4   9   1 660.371 161.699   1
   4   9   1 754.497 177.305  15
   4   9   2 1401.82 215.403  14
  -4  -9  -2 1084.74 189.274  13
  -4  -9  -2 1401.07 205.409   2
   4   9   2 1614.47 237.736   1
  -4  -9  -2 1256.84 175.840   3
  -4  -9  -2 1224.65 154.360   5
   4   9   3 3574.63 337.947  14
  -4  -9  -3 3547.94 331.023  13
  -4  -9  -3 3883.62 338.026   2
  -4  -9  -3 3703.54 329.898  12
  -4  -9  -3 3315.14 297.070   3
   4   9   3 3381.25 314.328  18
   4   9   3 3892.51 366.098   1
  -4  -9  -4 212.939 98.4836  13
  -4  -9  -4-21.6234 76.3031  12
   4   9   4-42.0758 84.0131  18
  -4  -9  -4 115.574 96.9723   2
  -4  -9  -4 16.5402 74.0653   3
  -4  -9  -4 39.8255 53.0396   9
   4   9   4 35.8614 85.3352   1
  -4  -9  -5 2987.56 306.387  13
  -4  -9  -5 2950.69 312.122   2
  -4  -9  -5 3017.33 298.767   3
   4   9   5 2412.48 279.352  18
   4   9   5 3297.06 336.678   1
  -4  -9  -5 2795.26 252.863   9
  -4  -9  -5 3202.70 302.216  12
  -4  -9  -6 767.965 157.364  12
   4   9   6 697.569 154.271   6
   4   9   6 908.968 178.725  18
  -4  -9  -6 1101.15 198.157   2
  -4  -9  -6 980.004 178.660   3
   4   9   6 895.151 183.546   1
  -4  -9  -6 874.663 151.868   9
  -4  -9  -7 65.2586 74.5019  12
   4   9   7 208.346 92.5280   6
   4   9   7 158.591 100.840   1
   4   9   7 77.9615 76.1436  18
  -4  -9  -7 160.210 101.612   2
  -4  -9  -7 178.206 73.2551   3
  -4  -9  -7 27.4122 83.2169   9
  -4  -9  -8 24.4728 75.0955  12
   4   9   8-0.22865 68.2181   6
   4   9   8 37.9472 89.8945  18
  -4  -9  -8-58.0675 82.6978   2
  -4  -9  -8-64.2982 102.293   3
  -4  -9  -8 33.6546 89.2723   9
   4   9   9 262.448 99.6152   6
   4   9   9 86.3944 99.0696  18
  -4  -9  -9 290.929 112.458   2
  -4  -9  -9 298.445 140.701   3
  -4  -9  -9 220.837 111.842   9
   4   9   9-15.9528 85.7300   8
   4   9  10-204.996 99.9847   6
  -4  -9 -10-24.4104 105.634   9
   4   9  10-71.6799 89.3553   8
  -4 -10   4 1998.83 277.168   5
  -4 -10   3 204.879 106.955   5
   4  10  -2 5228.69 463.725  14
  -4 -10   2 5153.26 399.126   5
   4  10  -2 5310.93 469.162   1
   4  10  -2 5212.71 471.701   7
   4  10  -1 413.235 151.019   7
   4  10  -1 323.420 126.522  14
  -4 -10   1 654.354 162.150  13
   4  10  -1 671.255 174.118   1
   4  10   0 7970.68 558.968  14
  -4 -10   0 7737.30 545.060  13
   4  10   0 7436.68 549.493   1
  -4 -10   0 7189.84 474.342   2
   4  10   1 952.550 208.593  14
  -4 -10  -1 897.982 199.925  13
   4  10   1 916.948 206.676   1
  -4 -10  -1 1108.93 192.836   2
   4  10   2 658.189 164.335  14
  -4 -10  -2 570.461 158.067  13
   4  10   2 590.768 172.202   1
  -4 -10  -2 656.237 159.032   2
  -4 -10  -2 655.510 138.337   3
  -4 -10  -3 4486.78 401.636  13
  -4 -10  -3 3733.16 356.309  12
  -4 -10  -3 4141.19 375.001   2
  -4 -10  -3 4793.87 379.683   3
   4  10   3 3387.41 373.495   1
  -4 -10  -4 1964.76 264.464  13
  -4 -10  -4 1747.92 251.481  12
   4  10   4 1492.82 251.474   1
   4  10   4 1692.17 249.785  18
  -4 -10  -4 1417.41 228.351   2
  -4 -10  -4 1600.61 224.962   3
  -4 -10  -5 4675.53 413.311  13
  -4 -10  -5 3813.82 353.721  12
  -4 -10  -5 4236.14 404.412   2
  -4 -10  -5 3847.10 365.475   3
   4  10   5 4629.49 404.428  18
   4  10   5 4443.22 419.827   1
   4  10   6 113.919 85.8254   1
  -4 -10  -6 297.699 110.759  13
  -4 -10  -6 287.230 113.585  12
   4  10   6 200.286 108.020  18
  -4 -10  -6 386.086 154.869   2
  -4 -10  -6 573.381 163.371   3
  -4 -10  -6 26.7655 59.4535   9
   4  10   7-33.5426 106.431   1
  -4 -10  -7 47.3506 92.3190  12
   4  10   7 83.7886 83.1514  18
  -4 -10  -7 1.86541 94.2051   2
  -4 -10  -7-76.0202 97.9086   3
  -4 -10  -7-32.5567 84.5813   9
  -4 -10  -8 69.0961 73.0272   3
   4  10   8 291.049 137.283   1
  -4 -10  -8 78.0165 86.1085   9
  -4 -10  -9-276.238 120.241   9
  -4 -11  -1 2108.39 279.283   2
  -4 -11  -2 1283.77 227.705   2
  -4 -11  -3 1480.82 239.403   2
  -4 -11  -3 949.451 185.712   3
  -4 -11  -4 1086.65 205.824  12
   4  11   4 876.176 188.707  18
  -4 -11  -4 805.801 174.749   3
  -4 -11  -5 20.9242 92.2739  12
  -4 -11  -5 170.287 85.3372   3
  -4 -11  -6 654.544 151.170  12
  -5   6   3 636.766 178.690  21
  -5   6   3 835.933 196.506  18
  -5   6   3 819.058 193.709  17
  -5   6   3 1016.67 209.417  16
  -5   6   2 347.906 115.273  10
  -5   6   2 52.6997 98.5891  18
  -5   6   2 82.8841 101.184  17
  -5   6   2 343.035 146.957  21
  -5   6   2 82.7804 119.278  16
  -5   6   1 53.1827 88.9729  21
  -5   6   1-67.0073 120.206  10
  -5   6   1-16.5598 62.9918  18
  -5   6   1-52.8679 115.814  17
  -5   6   1 28.7911 97.6179  16
  -5   6   0 69.1420 86.4144  10
  -5   6   0 181.552 111.628  17
  -5   6   0 64.8469 95.5698  21
   5  -6   0 190.918 72.4178  20
  -5   6   0 270.285 137.289  16
  -5   6  -1 67.7691 82.9814  21
   5  -6   1 42.5720 81.7638  20
  -5   6  -1 1.91836 78.4514  10
  -5   6  -1 62.1030 96.8380  17
  -5   6  -1-4.20449 75.5675  16
  -5   6  -2 599.471 172.901  21
   5  -6   2 479.670 146.870  20
  -5   6  -2 275.218 119.319  17
  -5   6  -2 477.784 168.850  16
   5  -6   3 914.284 188.498  11
  -5   6  -3 722.960 189.489  17
  -5   6  -3 811.341 185.764  16
   5  -6   4 898.970 189.153  11
  -5   5   7 169.781 116.052   1
  -5   5   6 67.1714 99.6209   1
  -5   5   6-260.523 126.128  21
  -5   5   6 275.666 135.965  19
  -5   5   6-343.602 136.020  17
  -5   5   6-23.8235 94.9727  16
  -5   5   6 21.2083 80.5743   8
  -5   5   5 29.2826 132.257   1
  -5   5   5 404.203 144.876  21
  -5   5   5 357.464 145.958  19
  -5   5   5 465.481 161.173  17
  -5   5   5 360.910 131.185  16
  -5   5   5 108.062 83.1039   8
   5  -5  -5 82.5792 118.021   3
  -5   5   4 315.393 134.470   1
  -5   5   4 21.7289 98.6360  19
  -5   5   4 57.7836 70.0602  18
  -5   5   4 423.195 108.431  17
  -5   5   4 198.350 90.4707  21
  -5   5   4 134.718 112.731  16
  -5   5   4 236.520 104.075   8
   5  -5  -4 266.094 141.556   3
  -5   5   3 124.089 103.530   1
  -5   5   3 338.302 136.093  21
  -5   5   3 61.3696 77.8276  18
  -5   5   3 20.1805 78.5553  17
  -5   5   3 56.3309 84.8135  16
   5  -5  -3 344.188 142.240   3
  -5   5   2 2496.93 321.035   1
  -5   5   2 2063.67 273.271  21
  -5   5   2 1728.35 239.459  10
  -5   5   2 1422.15 242.216  18
  -5   5   2 2218.96 289.413  17
  -5   5   2 1470.46 224.805  16
   5  -5  -2 2292.28 300.635   3
  -5   5   1 1228.20 230.133   1
  -5   5   1 938.350 185.670  21
   5  -5  -1 776.596 160.264  20
  -5   5   1 864.172 164.871  10
  -5   5   1 582.500 145.058  18
  -5   5   1 870.838 180.898  17
  -5   5   1 792.934 176.606  16
   5  -5  -1 886.987 186.619   3
   5  -5   0 68.5617 99.1845   3
  -5   5   0 47.6497 126.234   1
  -5   5   0 144.749 110.267  21
  -5   5   0 73.3666 72.8599  10
   5  -5   0-45.9738 76.5703  20
  -5   5   0-174.956 100.142  18
  -5   5   0 76.9405 106.900  17
  -5   5   0-111.519 119.345  16
  -5   5  -1 90.7811 96.0957   1
   5  -5   1-61.0685 110.160   3
  -5   5  -1-2.62533 94.5210  21
   5  -5   1 52.6619 90.2762  20
  -5   5  -1-35.7587 67.3138  10
  -5   5  -1-236.225 101.514  18
  -5   5  -1-7.48474 87.6300  17
  -5   5  -1-50.3069 112.104  16
  -5   5  -2 147.864 99.8644   1
   5  -5   2-46.9070 95.9215   3
  -5   5  -2-61.1293 90.1716  21
   5  -5   2-28.7866 102.094  20
  -5   5  -2 10.7071 65.5869  10
  -5   5  -2 53.4324 91.3543  17
  -5   5  -2-9.75571 95.9620  16
  -5   5  -3 474.808 156.069   1
   5  -5   3 828.941 200.090   3
   5  -5   3 886.139 170.542  20
   5  -5   3 387.843 101.597  11
  -5   5  -3 791.879 158.627  10
  -5   5  -3 595.443 165.933  17
  -5   5  -3 429.804 138.511  16
  -5   5  -4 197.725 138.120   1
   5  -5   4 182.674 115.908   3
   5  -5   4 80.6780 98.5318  20
  -5   5  -4 61.8876 84.2615  10
  -5   5  -4 115.425 86.9364  17
  -5   5  -4-50.1864 102.248  16
   5  -5   4 116.661 76.0493  11
  -5   5  -5 367.403 157.905   1
   5  -5   5 210.379 132.683   3
   5  -5   5 88.0900 88.5164  20
   5  -5   5 107.926 89.9663  11
   5  -5   5 45.5089 83.9004  19
  -5   5  -5 115.835 95.5073  10
  -5   5  -5 102.407 124.073  17
  -5   5  -5-66.7700 89.3270  16
  -5   5  -6 772.226 189.671   1
   5  -5   6 999.383 193.776  11
  -5   5  -6 599.008 158.317  10
  -5   5  -7 184.762 128.494   1
  -5   5  -7 64.4793 73.6232  10
   5  -4  -8 4617.12 420.724   3
  -5   4   7 588.247 165.264   1
  -5   4   7 1110.13 213.930  21
  -5   4   7 610.085 178.327  19
  -5   4   7 766.840 191.656  17
  -5   4   7 623.452 170.292  16
   5  -4  -7 618.590 177.023   3
  -5   4   7 826.400 177.400   8
  -5   4   6 531.826 145.694   1
  -5   4   6 393.291 156.539  21
  -5   4   6 438.989 155.799  19
  -5   4   6 403.884 147.679  18
  -5   4   6 590.659 163.879  17
  -5   4   6 727.120 175.516  16
   5  -4  -6 743.907 188.063   3
  -5   4   6 363.787 118.804   8
  -5   4   5 98.7386 89.1736  21
  -5   4   5 28.0555 87.0598  19
  -5   4   5 35.5238 109.847  18
  -5   4   5-1.84631 82.0815  17
  -5   4   5 52.6233 89.8997  16
   5  -4  -5 177.082 113.232   3
  -5   4   5 13.2884 64.2658   8
  -5   4   5-114.944 112.816   1
  -5   4   4 2980.23 323.777  21
  -5   4   4 2760.39 315.160  19
   5  -4  -4 3342.53 340.263   3
  -5   4   4 3208.65 355.734  18
  -5   4   4 3075.96 321.474  17
  -5   4   4 3223.76 325.919  16
  -5   4   4 2923.11 283.676   8
  -5   4   4 3172.54 331.162   1
  -5   4   3 5.63097 62.7931  10
  -5   4   3 87.8661 84.1268  21
  -5   4   3-37.6022 86.6553  17
  -5   4   3 51.4617 94.3820  16
  -5   4   3 197.667 117.716   1
  -5   4   3 26.3080 58.2544   8
   5  -4  -3-49.0334 134.823   3
  -5   4   2 585.165 138.208  10
  -5   4   2 371.842 142.779  18
  -5   4   2 132.509 79.9873  17
  -5   4   2 375.372 136.881  21
  -5   4   2 366.100 144.646   1
  -5   4   2 368.674 106.041  16
  -5   4   2 259.719 89.2665   8
   5  -4  -2 397.398 141.747   3
  -5   4   1 172.125 113.210  21
   5  -4  -1 317.802 107.674  20
  -5   4   1 187.756 89.3448  10
  -5   4   1 186.841 95.5570  18
  -5   4   1 279.200 102.447  17
  -5   4   1 110.356 101.811   1
  -5   4   1 229.810 108.567  16
   5  -4  -1 217.438 98.5667   3
   5  -4   0 197.871 118.786   3
  -5   4   0 137.618 99.5705  21
   5  -4   0 193.085 92.5727  20
  -5   4   0 111.897 95.8134  10
  -5   4   0 9.64744 71.3354  18
  -5   4   0 100.287 80.0524  17
  -5   4   0 253.631 148.650   1
  -5   4   0 81.7260 93.7732  16
  -5   4  -1 5816.42 432.323  21
   5  -4   1 5886.63 408.984  20
  -5   4  -1 5399.38 386.442  10
  -5   4  -1 4238.31 350.189  18
   5  -4   1 4861.12 410.503   3
  -5   4  -1 5838.72 428.253  17
  -5   4  -1 4787.25 389.912  16
  -5   4  -1 5452.45 439.305   1
   5  -4   2 2642.15 302.817   3
   5  -4   2 2858.52 286.530  20
  -5   4  -2 3268.88 299.007  10
  -5   4  -2 2350.91 246.808  18
  -5   4  -2 3377.71 327.812  17
  -5   4  -2 3211.58 317.199  16
  -5   4  -2 3214.61 333.306   1
   5  -4   3 211.397 92.5446   3
   5  -4   3-9.49740 95.9472  11
   5  -4   3 326.990 107.149  20
   5  -4   3 316.970 91.0431   6
  -5   4  -3 175.606 90.1007  10
  -5   4  -3 184.522 67.8951  18
  -5   4  -3 122.639 101.181  17
  -5   4  -3 142.449 115.612   1
  -5   4  -3 182.745 101.278  16
   5  -4   4 1596.80 242.547   3
   5  -4   4 1526.69 181.116   4
   5  -4   4 1707.68 235.637  20
   5  -4   4 1794.01 231.423  11
   5  -4   4 1822.56 242.600  19
  -5   4  -4 1438.09 204.443  10
  -5   4  -4 1532.21 226.969  17
  -5   4  -4 2155.88 269.533   1
  -5   4  -4 1450.06 225.462  16
   5  -4   5 1969.01 269.940   3
   5  -4   5 1686.43 195.202   4
   5  -4   5 1913.21 256.018  20
   5  -4   5 1357.95 208.153  11
   5  -4   5 1656.64 226.628  19
  -5   4  -5 1293.04 205.050  10
  -5   4  -5 1682.49 247.922  17
  -5   4  -5 1559.62 237.745  16
  -5   4  -5 1827.00 264.651   1
  -5   4  -6 1197.39 210.366   1
   5  -4   6 1571.80 245.278   3
   5  -4   6 1280.29 182.934   4
   5  -4   6 1545.86 229.508  20
   5  -4   6 1650.13 228.473  11
   5  -4   6 854.353 189.788  19
  -5   4  -6 1276.75 206.771  10
  -5   4  -6 1134.17 206.638  17
  -5   4  -6 1429.21 230.867  16
  -5   4  -7 20805.6 910.028   1
   5  -4   7 21455.1 945.506  20
   5  -4   7 20318.2 874.216  11
   5  -4   7 20534.9 934.505  19
  -5   4  -7 20962.8 912.454  10
  -5   4  -7 21219.2 982.045  17
  -5   4  -7 20875.3 960.495  16
   5  -4   7 20464.6 855.529   4
  -5   4  -8 8712.54 554.225   1
   5  -4   8 8354.91 529.585  11
  -5   4  -8 7808.11 542.349  10
  -5   4  -8 8386.95 552.958   9
   5  -4   8 7440.16 509.637   4
   5  -4   9 142.192 94.4314   4
  -5   4  -9-32.1849 93.6793   9
  -5   3   8 3180.31 358.254  21
   5  -3  -8 2889.40 371.793   7
   5  -3  -8 3266.01 334.411   3
  -5   3   8 2824.60 344.615  19
  -5   3   8 3460.57 377.200  17
  -5   3   8 3612.26 367.750  16
  -5   3   8 2553.75 316.903   8
  -5   3   7 5102.29 436.286  21
  -5   3   7 5574.30 463.993  19
   5  -3  -7 5172.92 410.302   3
  -5   3   7 4974.82 456.831  18
  -5   3   7 6139.28 474.343  17
  -5   3   7 5288.87 447.586  16
  -5   3   7 5705.14 450.247   8
  -5   3   7 5321.95 413.455   1
  -5   3   6 73.4733 88.4880  21
  -5   3   6 133.870 95.7956  19
  -5   3   6 25.8736 103.426  18
  -5   3   6-78.3597 72.2249  17
  -5   3   6 72.6016 100.449  16
  -5   3   6 173.968 89.5878   1
   5  -3  -6 24.2744 72.6550   3
  -5   3   6 83.7084 81.3331   8
  -5   3   5-5.89889 70.6364  21
  -5   3   5 14.6493 90.0354  19
  -5   3   5-86.7256 108.803  18
  -5   3   5 147.111 86.2716  17
  -5   3   5 144.102 111.089   1
  -5   3   5 27.2746 81.3598  16
   5  -3  -5 47.8722 82.5921   3
  -5   3   5 25.8639 74.7377   8
  -5   3   4 229.082 82.7757  19
  -5   3   4 707.922 174.326  18
  -5   3   4 401.506 137.842  17
  -5   3   4 450.100 123.611  21
  -5   3   4 715.399 169.152   1
  -5   3   4 454.276 140.565  16
   5  -3  -4 444.231 126.552   3
  -5   3   4 554.859 128.811   8
  -5   3   3 331.066 127.708  21
  -5   3   3 156.354 103.040  10
  -5   3   3 134.085 104.256  18
  -5   3   3 183.431 93.6803   1
  -5   3   3 97.9232 97.0830  17
  -5   3   3 146.613 88.0773  16
  -5   3   3 65.8655 52.3589   8
   5  -3  -3 330.631 115.567   3
  -5   3   2 571.731 135.008  10
  -5   3   2 491.363 135.350  18
  -5   3   2 389.510 135.906   1
  -5   3   2 318.492 115.513  17
  -5   3   2 670.943 150.486  21
  -5   3   2 423.146 128.976  16
  -5   3   2 391.917 96.1110   8
   5  -3  -2 399.411 128.729   3
  -5   3   1 7.41379 81.6036  21
   5  -3  -1-68.2651 83.3668  20
  -5   3   1 59.7909 69.9483  10
  -5   3   1 16.5356 98.5512  18
  -5   3   1 104.318 80.4783  17
  -5   3   1 44.6323 75.1063  16
  -5   3   1 34.7320 47.6058   8
   5  -3  -1-25.3678 82.3676   3
   5  -3   0 911.020 170.668   3
   5  -3   0 394.413 81.9359   4
  -5   3   0 538.854 144.122  21
   5  -3   0 458.698 129.284  20
  -5   3   0 475.118 122.790  10
  -5   3   0 326.475 125.815  18
  -5   3   0 556.330 140.628  17
  -5   3   0 340.416 111.347  16
  -5   3   0 524.467 90.4179   8
   5  -3   1 420.156 125.501   3
   5  -3   1 740.712 109.100   4
  -5   3  -1 602.254 137.214  21
   5  -3   1 760.604 99.6873   6
  -5   3  -1 930.896 161.809  10
  -5   3  -1 508.359 129.703  18
   5  -3   1 701.021 141.115  20
  -5   3  -1 725.984 153.709  17
  -5   3  -1 618.228 145.246  16
   5  -3   2 2648.17 257.886  20
   5  -3   2 2464.23 197.509   6
  -5   3  -2 2614.55 255.995  10
   5  -3   2 2340.37 269.038   3
  -5   3  -2 2393.37 266.262  17
  -5   3  -2 3245.79 300.308  16
   5  -3   2 2882.09 219.553   4
   5  -3   3 1.75964 94.4481   3
   5  -3   3-57.8751 99.0991  20
   5  -3   3 4.68985 55.7491   4
   5  -3   3-52.4861 90.7839  11
   5  -3   3 44.2481 56.5758   6
  -5   3  -3-55.5557 73.6883  10
  -5   3  -3 111.308 90.6274   1
  -5   3  -3-2.15231 84.7590  17
  -5   3  -3-54.2632 87.7097  16
   5  -3   4 967.850 189.899   3
   5  -3   4 592.701 109.677   4
   5  -3   4 810.921 159.326  11
   5  -3   4 1100.79 178.689  19
   5  -3   4 838.939 145.606   6
  -5   3  -4 596.577 138.356  10
  -5   3  -4 782.405 162.097   1
   5  -3   4 727.531 150.109  20
  -5   3  -4 694.457 155.570  17
  -5   3  -4 600.976 158.473  16
   5  -3   5 164.178 120.981   3
   5  -3   5 113.353 76.4040   4
   5  -3   5 60.1117 88.9396  20
   5  -3   5-87.8288 93.8505  11
   5  -3   5 82.3531 91.6478  19
   5  -3   5 106.804 83.9319   6
  -5   3  -5 45.8942 63.1003  10
  -5   3  -5-70.6248 98.8737   9
  -5   3  -5 107.981 92.9187  17
  -5   3  -5-79.3097 98.1117   1
  -5   3  -5-13.8925 113.576  16
   5  -3   6 139.365 97.0828   3
   5  -3   6 165.764 104.291  19
   5  -3   6 182.555 88.8609   4
   5  -3   6-79.1244 93.1836  20
   5  -3   6 288.905 106.028  11
  -5   3  -6 161.402 91.2540  10
  -5   3  -6 368.017 128.474   9
  -5   3  -6 186.761 125.849  17
  -5   3  -6-2.24633 95.3012   1
  -5   3  -6 196.328 89.7823  16
   5  -3   7 473.073 123.870   4
   5  -3   7 862.245 185.139  20
   5  -3   7 521.781 155.297  19
  -5   3  -7 398.709 123.177  10
  -5   3  -7 548.634 148.904   9
  -5   3  -7 416.150 149.500  17
  -5   3  -7 328.428 119.094   1
  -5   3  -7 810.200 181.971  16
   5  -3   7 652.384 149.906  11
   5  -3   8 1684.42 236.942   4
   5  -3   8 1880.64 263.215  20
   5  -3   8 1522.63 236.045  19
   5  -3   8 1303.57 201.458  11
  -5   3  -8 1440.58 224.409  10
  -5   3  -8 1519.89 225.946   9
  -5   3  -8 1617.58 253.059  17
  -5   3  -8 2088.25 276.710  16
  -5   3  -8 1476.19 215.705   1
   5  -3   9 98.6779 91.6002   4
   5  -3   9 16.1747 99.6930  20
   5  -3   9 204.890 97.5733  11
   5  -3   9 67.5059 90.5133  19
  -5   3  -9-55.5761 113.831  10
  -5   3  -9 208.714 92.0796   9
  -5   3  -9 223.406 106.797  17
  -5   3  -9 79.3883 111.513  16
   5  -3  10 129.540 113.923   4
   5  -3  10-39.1125 91.4210  11
  -5   3 -10 172.048 112.048  10
  -5   3 -10 70.3257 63.6512   9
   5  -3  11-559.213 153.117  11
  -5   3 -11 28.1153 82.9931   9
   5  -2  -9 2075.39 305.100   7
  -5   2   9 2015.61 285.325  21
  -5   2   9 2170.19 303.809  19
  -5   2   9 2170.84 310.982  18
  -5   2   9 2158.56 294.853  17
  -5   2   9 1956.81 289.380  16
  -5   2   9 2028.25 286.324   8
   5  -2  -8 1364.91 241.100   7
  -5   2   8 1836.39 262.437  21
  -5   2   8 1866.98 276.910  19
  -5   2   8 1588.32 255.101  18
  -5   2   8 1913.60 269.580  17
  -5   2   8 1608.43 242.528  16
   5  -2  -8 1793.28 228.207   3
  -5   2   8 1958.35 265.299   8
  -5   2   7 1207.61 212.514  21
  -5   2   7 1699.10 257.541  19
  -5   2   7 1514.98 260.577  18
  -5   2   7 1515.27 237.498  17
  -5   2   7 1670.37 219.126   1
  -5   2   7 1613.02 241.929  16
   5  -2  -7 1422.52 244.238   7
   5  -2  -7 1377.82 198.290   3
  -5   2   7 1491.52 225.432   8
  -5   2   6 483.912 139.773  21
  -5   2   6 317.122 121.501  19
  -5   2   6 136.575 111.193  18
  -5   2   6 368.870 127.477  17
  -5   2   6 94.3291 74.9596   1
  -5   2   6 335.890 120.520  16
   5  -2  -6 467.300 121.542   3
  -5   2   6 257.316 115.476   8
  -5   2   5-24.2632 82.0968  21
  -5   2   5 80.6938 107.799  19
  -5   2   5-25.9131 80.5535  18
  -5   2   5-100.518 117.515  17
  -5   2   5-64.6094 108.789  16
   5  -2  -5-29.9702 84.1305   3
  -5   2   5 3.05341 63.6896   8
  -5   2   4 3617.75 326.940  21
  -5   2   4 2807.33 295.207  19
   5  -2  -4 3013.44 277.936   3
  -5   2   4 3239.11 333.265  18
  -5   2   4 3537.04 232.600   5
  -5   2   4 3642.61 324.659  17
  -5   2   4 3923.86 332.584  16
  -5   2   4 3298.52 273.367   8
  -5   2   3 424.087 134.123  21
  -5   2   3 176.640 98.1900  10
  -5   2   3 250.776 120.454  17
  -5   2   3 227.068 67.5921   5
  -5   2   3 289.713 113.595  16
  -5   2   3 168.496 73.5347   8
   5  -2  -3 185.391 86.2347   3
  -5   2   2 1946.59 231.305  21
  -5   2   2 1927.06 224.424  10
  -5   2   2 1861.60 226.165  17
  -5   2   2 1772.15 178.882   8
  -5   2   2 1954.21 226.313  16
   5  -2  -2 1905.72 217.565   3
  -5   2   1 3841.44 322.586  21
   5  -2  -1 4035.46 306.535  20
  -5   2   1 3615.78 297.067  10
   5  -2  -1 3865.49 309.784   3
  -5   2   1 3684.59 311.049  17
  -5   2   1 3248.99 290.870  16
  -5   2   1 4032.20 246.778   8
   5  -2   0 256.622 101.643   3
   5  -2   0 393.482 79.8338   4
  -5   2   0 501.580 127.881  21
   5  -2   0 429.107 114.434  20
   5  -2   0 422.654 62.5264   6
  -5   2   0 201.456 95.7144  10
  -5   2   0 510.574 131.410  17
  -5   2   0 407.057 117.642  16
  -5   2   0 356.975 68.3986   8
   5  -2   1 1248.31 186.591   3
  -5   2  -1 987.671 165.301  21
   5  -2   1 1375.17 126.537   6
   5  -2   1 1341.96 181.092  20
  -5   2  -1 1199.46 174.761  10
  -5   2  -1 1258.36 187.863  17
  -5   2  -1 1392.81 113.976   8
  -5   2  -1 1253.82 182.061  16
   5  -2   1 1383.05 148.801   4
   5  -2   2 374.021 120.468   3
   5  -2   2 429.795 88.1996   4
   5  -2   2 583.149 127.057  20
   5  -2   2 710.487 104.750   6
  -5   2  -2 653.397 135.522  10
  -5   2  -2 592.681 128.908  17
  -5   2  -2 563.842 131.490  16
   5  -2   3 2082.76 240.244   3
   5  -2   3 2043.28 190.555   6
   5  -2   3 1724.69 204.854  11
   5  -2   3 2022.52 222.169  19
  -5   2  -3 2036.95 220.860  10
   5  -2   3 2111.23 230.264  20
  -5   2  -3 2222.07 241.764  17
  -5   2  -3 2395.88 249.954  16
   5  -2   3 2186.39 197.189   4
   5  -2   4 1396.63 210.187   3
   5  -2   4 1248.55 159.090   4
   5  -2   4 1613.50 198.839  11
   5  -2   4 1170.44 173.653  19
   5  -2   4 1436.13 170.031   6
  -5   2  -4 1531.70 195.668  10
   5  -2   4 1444.42 197.790  20
  -5   2  -4 1487.71 199.457   9
  -5   2  -4 1148.06 183.493  17
  -5   2  -4 1514.68 201.663  16
   5  -2   5 5353.31 364.819  11
   5  -2   5 5607.45 390.757  20
   5  -2   5 5305.77 351.727   6
   5  -2   5 5012.84 365.772  19
  -5   2  -5 5086.06 364.147  10
   5  -2   5 5514.43 399.702   3
  -5   2  -5 4875.25 363.657   9
  -5   2  -5 5032.67 380.292  17
  -5   2  -5 4519.33 359.970  16
   5  -2   5 5295.49 343.185   4
   5  -2   6 650.490 131.155   4
   5  -2   6 592.808 128.315  11
   5  -2   6 474.080 132.173  19
   5  -2   6 774.853 150.372   6
   5  -2   6 594.095 130.666  20
  -5   2  -6 593.938 138.893  10
  -5   2  -6 618.731 144.272   9
  -5   2  -6 648.623 153.276  17
  -5   2  -6 933.274 170.232  16
   5  -2   7-12.6255 69.6834   4
   5  -2   7-92.1687 92.6362  20
   5  -2   7 63.5041 80.7816  11
   5  -2   7 383.595 130.256  19
   5  -2   7 78.9993 92.5317   6
  -5   2  -7 60.9284 90.7881  10
  -5   2  -7-48.9647 93.2993   1
  -5   2  -7 73.0998 98.0972   9
  -5   2  -7 21.4225 85.6122  17
  -5   2  -7 41.4626 90.5767  16
   5  -2   8 171.489 80.3267   4
   5  -2   8 377.064 138.010  20
   5  -2   8 274.725 105.352  11
   5  -2   8 515.395 136.144  19
   5  -2   8 412.488 140.599   6
  -5   2  -8 193.356 108.615  10
  -5   2  -8 314.876 111.771   9
  -5   2  -8 353.114 128.212  17
  -5   2  -8 316.383 114.032   1
  -5   2  -8 357.506 135.756  16
   5  -2   9 4.14205 98.8180  20
   5  -2   9 12.7244 90.0653  11
   5  -2   9 29.7312 87.2235  19
   5  -2   9-49.0321 94.8620   6
   5  -2   9-7.92449 87.2346   4
  -5   2  -9-123.825 119.283  10
  -5   2  -9 5.12286 80.7902   9
  -5   2  -9-88.9068 68.5638   1
  -5   2  -9 52.6129 115.420  16
   5  -2  10 155.621 81.4464   4
   5  -2  10 182.678 108.534  20
   5  -2  10-98.0021 86.4544  11
   5  -2  10-29.1616 103.497  19
   5  -2  10 106.840 93.2027   6
  -5   2 -10 146.276 99.5769  10
  -5   2 -10 10.5970 74.8641   9
  -5   2 -10-65.8709 107.385  16
   5  -2  11 1545.51 231.204  11
  -5   2 -11 1444.62 238.072   9
   5  -2  12 194.177 94.2296  11
  -5   2 -12 265.109 124.721   9
   5  -1 -10 822.540 204.103  15
  -5   1  10 1036.83 234.081  18
   5  -1  -9-27.8297 113.916   7
  -5   1   9-97.3721 155.889  21
  -5   1   9 251.868 146.969  20
  -5   1   9 105.351 111.824  19
  -5   1   9 58.3824 111.466  18
  -5   1   9 27.4337 89.7819  17
  -5   1   9 16.2259 88.1893  16
  -5   1   9 222.741 115.452   8
   5  -1  -8 4904.40 435.274   7
  -5   1   8 5040.17 424.427  21
  -5   1   8 5075.31 438.934  19
  -5   1   8 3946.00 399.295  18
  -5   1   8 5668.76 451.598  17
  -5   1   8 4959.47 426.763  16
  -5   1   8 5039.33 419.312   8
   5  -1  -7 4835.07 426.476   7
  -5   1   7 5880.25 443.823  21
  -5   1   7 5239.90 430.341  19
   5  -1  -7 4879.58 336.864   3
  -5   1   7 5340.83 439.973  18
  -5   1   7 4921.08 325.486   5
  -5   1   7 5067.27 413.080  17
  -5   1   7 5551.01 426.004  16
  -5   1   7 5556.39 413.404   8
   5  -1  -6-17.0023 99.1364   7
  -5   1   6 133.000 108.069  21
  -5   1   6 132.576 99.6879  19
  -5   1   6-100.947 95.7093  18
  -5   1   6 117.228 95.4343  17
  -5   1   6-28.3325 49.0792   5
  -5   1   6 78.5410 90.7493  16
   5  -1  -6 66.3415 65.3321   3
  -5   1   6 84.5710 72.9636   8
   5  -1  -5 11.3497 110.100   7
  -5   1   5 165.204 98.9563  21
  -5   1   5 67.8935 77.5434  19
  -5   1   5 163.640 107.049  17
  -5   1   5 106.355 66.0728   5
  -5   1   5 84.3919 81.9136  16
   5  -1  -5 82.1190 65.8867   3
  -5   1   5 112.335 69.0888   8
  -5   1   4 318.608 116.266  21
  -5   1   4 329.273 125.781  19
  -5   1   4 373.648 121.091  17
  -5   1   4 234.713 74.0883   5
  -5   1   4 53.5127 84.2276  16
   5  -1  -4 180.491 74.2673   3
  -5   1   4 236.749 99.4766   8
  -5   1   3-13.1458 81.2491  21
  -5   1   3-50.4449 89.2060  10
  -5   1   3-11.5349 67.3164  17
  -5   1   3 22.8107 49.8098   5
  -5   1   3 62.3972 76.8600  16
   5  -1  -3-40.5672 73.7671   3
  -5   1   3 10.1034 57.7091   8
  -5   1   2 2706.11 257.121  21
  -5   1   2 2983.35 265.643  10
   5  -1  -2 2906.86 246.249   3
  -5   1   2 2944.33 269.511  17
  -5   1   2 3243.53 272.434  16
  -5   1   2 2457.20 200.783   8
  -5   1   1 41244.4 1251.29  21
   5  -1  -1 40840.9 1216.67  20
   5  -1  -1 41123.2 945.312   6
  -5   1   1 40388.1 1223.73  10
   5  -1  -1 41763.4 1205.53   3
  -5   1   1 40905.3 1244.59  17
  -5   1   1 42091.1 1248.14  16
  -5   1   1 41794.1 1090.09   8
  -5   1   0 2189.12 229.449  21
   5  -1   0 2476.27 147.900   6
   5  -1   0 2138.19 209.771  20
  -5   1   0 1841.51 202.716  10
   5  -1   0 2189.90 214.883   3
  -5   1   0 2444.82 231.144  17
  -5   1   0 2572.00 240.518  16
  -5   1   0 2400.30 161.816   8
   5  -1   0 2491.65 191.203   4
   5  -1   1 230.745 93.1520   3
   5  -1   1 369.972 86.6066   4
  -5   1  -1 349.790 104.159  21
   5  -1   1 323.761 98.7611  20
   5  -1   1 204.622 58.3629   6
  -5   1  -1 114.366 77.5217  10
  -5   1  -1 175.648 89.2570  17
  -5   1  -1 432.684 109.103  16
  -5   1  -1 329.739 51.2191   8
   5  -1   2 159.201 49.1975  14
   5  -1   2 276.500 106.558   3
   5  -1   2 209.674 71.0790   4
   5  -1   2 105.157 81.7548  20
   5  -1   2 130.989 64.3327   6
  -5   1  -2 96.4804 77.9532  10
  -5   1  -2 61.7416 67.5040   9
  -5   1  -2 183.047 93.7770  17
  -5   1  -2 157.298 27.5209   8
  -5   1  -2 158.906 94.1140  16
   5  -1   3 383.560 57.8874  14
   5  -1   3 419.223 115.806   3
   5  -1   3 433.036 93.5786   4
   5  -1   3 496.125 113.142  11
   5  -1   3 272.053 89.4867  20
   5  -1   3 348.505 98.5619  19
   5  -1   3 328.873 84.7842   6
  -5   1  -3 328.022 90.1299  10
  -5   1  -3 419.037 104.350   9
  -5   1  -3 316.306 96.1687  17
  -5   1  -3 341.907 105.412  16
   5  -1   4 264.678 109.418   3
   5  -1   4 231.572 81.2431   4
   5  -1   4 279.188 37.2114  13
   5  -1   4 384.270 108.243  20
   5  -1   4 150.219 75.5869  11
   5  -1   4 448.462 124.966  19
   5  -1   4 266.864 94.6099   6
  -5   1  -4 215.659 93.7771  10
  -5   1  -4 329.039 109.054   9
  -5   1  -4 287.671 97.0633  17
  -5   1  -4 261.715 96.8032  16
   5  -1   5 19826.2 751.924  11
   5  -1   5 19641.5 759.612  20
   5  -1   5 19186.9 726.419   6
   5  -1   5 19602.4 760.956  19
  -5   1  -5 19939.6 766.967  10
  -5   1  -5 20198.0 771.542   9
  -5   1  -5 19928.5 788.764  17
  -5   1  -5 21047.7 797.344  16
   5  -1   5 19622.7 734.747   4
   5  -1   6 3487.81 300.466  20
   5  -1   6 3259.10 279.071  11
   5  -1   6 3487.80 294.871   6
   5  -1   6 3108.44 281.164  19
  -5   1  -6 3553.57 302.084  10
  -5   1  -6 3432.02 289.479   9
  -5   1  -6 3009.68 291.367  17
  -5   1  -6 3965.58 325.990  16
   5  -1   6 3928.73 300.241   4
   5  -1   7 2982.19 275.680  11
   5  -1   7 3299.69 296.963  20
   5  -1   7 3070.39 290.605   6
   5  -1   7 3278.76 298.855  19
  -5   1  -7 2758.05 274.498  10
  -5   1  -7 3056.57 282.945   9
  -5   1  -7 3377.08 317.998  17
  -5   1  -7 3220.47 304.293  16
   5  -1   7 2979.51 276.769   4
   5  -1   8 12.5464 89.1174  20
   5  -1   8 56.2605 66.8122  11
   5  -1   8 193.052 96.6069  19
   5  -1   8 111.467 97.7890   6
  -5   1  -8-63.9610 97.4089  10
   5  -1   8-43.7549 74.2055   4
  -5   1  -8-14.4286 73.2620   9
  -5   1  -8 57.3569 82.3993  16
   5  -1   9 112.457 97.9766  20
   5  -1   9 201.966 78.9878  11
   5  -1   9 148.983 98.4743  19
   5  -1   9-7.31069 101.640   6
  -5   1  -9 203.298 107.421  10
  -5   1  -9 198.125 112.831   9
  -5   1  -9 159.791 106.523  16
   5  -1   9 112.692 89.4089   4
   5  -1  10 396.547 144.453  20
   5  -1  10 263.238 114.948   4
   5  -1  10 12.9227 76.8132  11
   5  -1  10 325.680 134.680  19
   5  -1  10 221.102 92.7432   6
  -5   1 -10 160.588 97.5344  10
  -5   1 -10 265.531 114.335   9
  -5   1 -10 274.914 140.019  16
   5  -1  11 1272.97 224.404   4
   5  -1  11 887.717 190.881  20
   5  -1  11 912.184 182.880  11
   5  -1  11 1133.53 208.810  19
   5  -1  11 1080.28 210.143   6
  -5   1 -11 1266.85 223.275  10
  -5   1 -11 933.385 195.139   9
  -5   1 -11 1174.98 218.395  16
   5  -1  12 260.832 125.971  11
  -5   1 -12-64.7249 122.309   9
   5   0 -11 29.2394 95.6973  15
  -5   0  11-10.9050 91.9366  18
   5   0 -10 2352.02 307.928  15
   5   0 -10 2776.17 331.282   7
  -5   0  10 2352.76 306.232  18
   5   0  -9 699.800 187.914  15
   5   0  -9 558.609 181.519   7
  -5   0   9 621.600 166.696  21
  -5   0   9 397.237 151.307  20
  -5   0   9 705.669 178.912  19
  -5   0   9 530.748 151.564  18
  -5   0   9 587.771 165.324  17
  -5   0   9 725.407 144.810   5
  -5   0   9 646.364 168.575  16
   5   0  -8 1285.60 217.837  15
   5   0  -8 1620.65 253.560   7
  -5   0   8 1616.45 236.140  21
  -5   0   8 1693.74 248.134  20
  -5   0   8 1986.21 272.747  19
  -5   0   8 1299.77 217.293  18
  -5   0   8 2078.40 271.610  17
  -5   0   8 1531.48 193.054   5
  -5   0   8 1614.81 242.095  16
   5   0  -7 4898.89 410.191   7
  -5   0   7 4964.22 404.692  21
  -5   0   7 5246.77 419.739  19
  -5   0   7 5280.33 416.068  18
  -5   0   7 5249.19 351.733   5
  -5   0   7 5121.61 404.222  17
  -5   0   7 5242.69 407.893  16
   5   0  -6 328.032 129.331   7
  -5   0   6 233.321 93.2979  21
  -5   0   6 248.507 100.534  19
  -5   0   6 177.214 105.656  17
  -5   0   6 234.724 88.5637   5
  -5   0   6 125.805 82.9826  16
   5   0  -6 196.359 60.4953   3
   5   0  -5 684.087 163.694   7
  -5   0   5 684.960 152.612  21
  -5   0   5 534.119 137.639  19
  -5   0   5 864.819 161.456  17
  -5   0   5 697.270 126.870   5
  -5   0   5 491.056 129.785  16
   5   0  -5 713.825 118.211   3
   5   0  -4 10491.7 572.037   7
  -5   0   4 12751.3 595.239  21
  -5   0   4 11864.4 584.543  19
   5   0  -4 12327.7 497.401   3
  -5   0   4 12517.5 510.757   5
  -5   0   4 11314.9 563.659  17
  -5   0   4 12700.7 590.257  16
   5   0  -3 836.415 166.168   7
  -5   0   3 915.994 164.561  21
  -5   0   3 1054.12 80.0963   6
  -5   0   3 1054.69 163.116  10
  -5   0   3 1128.24 183.856  19
  -5   0   3 1083.73 167.317  17
  -5   0   3 1219.17 143.981   5
  -5   0   3 1257.82 172.258  16
   5   0  -3 1013.19 134.094   3
  -5   0   2 1634.03 197.486  21
  -5   0   2 1499.41 102.605   6
  -5   0   2 1750.40 197.161  10
   5   0  -2 1523.80 159.815   3
  -5   0   2 1381.75 182.029  17
  -5   0   2 1710.53 195.468  16
  -5   0   1 4764.19 325.402  21
   5   0  -1 4772.29 207.860   6
  -5   0   1 4694.13 315.558  10
   5   0  -1 4886.31 292.583   3
  -5   0   1 5001.90 327.708  17
  -5   0   1 4941.24 323.389  16
  -5   0   0 15205.5 628.132  21
   5   0   0 16677.2 496.777   6
   5   0   0 15504.9 603.437  20
  -5   0   0 15752.0 622.873  10
   5   0   0 16489.3 606.604   3
  -5   0   0 16944.3 646.973  17
  -5   0   0 16588.9 636.061  16
   5   0   0 15964.5 568.579   4
   5   0   1 1460.56 166.865   3
   5   0   1 1333.95 144.988   4
  -5   0  -1 1678.06 187.624  21
   5   0   1 1592.48 131.849   6
   5   0   1 1655.89 175.859  20
  -5   0  -1 1178.26 158.619  10
  -5   0  -1 1661.33 182.298   9
  -5   0  -1 1510.88 174.913  17
  -5   0  -1 1445.51 103.726   8
  -5   0  -1 1464.48 173.675  16
   5   0   2 8678.30 415.173  11
   5   0   2 8431.31 412.089  20
   5   0   2 8802.39 363.423   6
  -5   0  -2 8247.00 416.303  10
   5   0   2 7770.53 414.297   3
  -5   0  -2 8164.66 419.874   9
  -5   0  -2 8029.11 417.601  17
  -5   0  -2 8806.75 429.753  16
  -5   0  -2 8044.03 232.529   8
   5   0   2 9023.63 397.812   4
   5   0   3 10.0413 17.4077  14
   5   0   3 93.7126 64.6534   4
   5   0   3 45.8402 71.5038   3
   5   0   3-29.9527 53.2520  20
   5   0   3 11.2249 58.5527  11
   5   0   3-1.55135 48.0119   6
   5   0   3-37.9768 65.4669  19
  -5   0  -3 34.0164 64.1802  10
  -5   0  -3-45.3568 73.5888   9
  -5   0  -3 35.8953 60.9541  17
  -5   0  -3-5.70107 61.4399  16
   5   0   4 385.308 95.8513   4
   5   0   4 304.704 87.3618  11
   5   0   4 355.427 101.046  19
   5   0   4 357.133 83.2048   6
  -5   0  -4 338.382 95.1651  10
  -5   0  -4 369.205 104.490   9
  -5   0  -4 353.859 113.266  17
   5   0   4 325.339 96.2636  20
  -5   0  -4 298.254 90.3536  16
   5   0   5 7797.09 416.005  11
   5   0   5 7380.96 407.640  20
   5   0   5 7866.05 409.106   6
   5   0   5 7407.28 413.267  19
  -5   0  -5 7707.82 422.544  10
  -5   0  -5 7395.78 416.198   9
  -5   0  -5 7990.25 439.982  17
  -5   0  -5 7573.53 422.133  16
   5   0   5 7406.31 402.933   4
   5   0   5 7572.27 318.963   7
   5   0   6 1595.23 192.007   4
   5   0   6 1790.82 204.539  20
   5   0   6 1539.49 187.123  11
   5   0   6 1506.29 187.129  19
   5   0   6 1663.20 194.542   6
  -5   0  -6 1372.58 185.196  10
  -5   0  -6 1447.45 179.980   9
  -5   0  -6 1631.94 201.258  17
  -5   0  -6 1344.24 180.237  16
   5   0   7 2344.28 235.637  11
   5   0   7 3164.10 277.901  20
   5   0   7 3008.37 273.081   6
   5   0   7 3122.46 273.516  19
  -5   0  -7 2707.15 259.373  10
  -5   0  -7 2819.48 260.405   9
  -5   0  -7 2663.88 262.382  16
   5   0   7 2892.38 156.998  15
   5   0   7 2587.69 257.595   4
   5   0   8 8472.11 499.812   4
   5   0   8 8956.51 502.568  20
   5   0   8 9240.83 497.691  11
   5   0   8 8965.81 511.959   6
   5   0   8 9103.42 505.739  19
  -5   0  -8 9042.55 507.193  10
  -5   0  -8 8933.14 496.692   9
  -5   0  -8 9322.52 525.023  16
   5   0   9-52.0148 98.4512   4
   5   0   9-20.2848 74.5843  20
   5   0   9 65.5315 71.2376  11
   5   0   9 41.3187 77.8490  19
   5   0   9 43.3535 87.2966   6
  -5   0  -9 45.1008 84.4802  10
  -5   0  -9 73.1029 89.8476   9
  -5   0  -9-78.2934 99.9533  16
   5   0  10 1243.86 209.513   4
   5   0  10 1223.50 198.848  20
   5   0  10 763.934 148.905  11
   5   0  10 886.167 174.785  19
   5   0  10 1221.49 210.961   6
  -5   0 -10 1274.35 211.126  10
  -5   0 -10 1287.54 197.600   9
   5   0  10 1152.99 194.562  21
  -5   0 -10 918.780 185.566  16
   5   0  11 6402.32 486.210   4
   5   0  11 5496.40 435.320  21
   5   0  11 5601.88 446.147  20
   5   0  11 5493.97 419.808  11
   5   0  11 5493.89 458.459   6
   5   0  11 5558.10 440.008  19
  -5   0 -11 5246.51 432.508  10
  -5   0 -11 5148.97 413.157   9
  -5   0 -11 5552.43 449.413  16
   5   0  12 476.840 154.730  21
   5   0  12 648.325 162.520   4
   5   0  12 343.738 114.126  20
   5   0  12 348.785 122.264  11
   5   0  12 790.699 184.045  19
   5   0  12 497.780 168.866   6
  -5   0 -12 868.818 195.069  10
  -5   0 -12 261.679 115.070   9
  -5   0 -12 470.190 144.344  16
   5   0  13 0.83061 106.520  11
  -5   0 -13 95.8117 107.561   9
   5   1 -11 222.439 125.158  15
  -5  -1  11-68.9417 118.621  18
  -5  -1  11 43.0438 68.9866   5
   5   1 -10 576.541 156.741  15
   5   1 -10 623.912 180.845  14
   5   1 -10 643.772 169.437   7
  -5  -1  10 1211.30 224.399  21
  -5  -1  10 692.579 180.874  20
  -5  -1  10 660.314 176.798  19
  -5  -1  10 740.274 172.077  18
  -5  -1  10 1189.17 221.427  17
  -5  -1  10 659.563 153.970   5
  -5  -1  10 1227.40 228.241  16
   5   1  -9 561.706 166.812  15
   5   1  -9 497.953 144.896   7
  -5  -1   9 486.686 151.962  20
  -5  -1   9 534.171 146.101  19
  -5  -1   9 696.838 174.660  21
  -5  -1   9 496.193 153.966  18
  -5  -1   9 582.361 165.657  17
  -5  -1   9 577.018 145.420   5
  -5  -1   9 651.820 179.301  16
   5   1  -8 0.48811 86.4901  15
   5   1  -8 115.846 87.7509   7
  -5  -1   8 77.9433 75.2747  21
  -5  -1   8 302.874 146.612  20
  -5  -1   8 83.7030 88.2076  19
  -5  -1   8 73.1951 85.4148  18
  -5  -1   8-33.2542 96.0652  17
  -5  -1   8-27.0032 79.4717   5
  -5  -1   8 255.991 125.690  16
   5   1  -7 489.172 146.242  15
   5   1  -7 774.779 167.010   7
  -5  -1   7 1004.07 181.277  21
  -5  -1   7 1117.58 193.369  19
  -5  -1   7 968.088 182.225  17
  -5  -1   7 604.264 134.823   5
  -5  -1   7 898.861 174.257  16
   5   1  -6 248.318 105.736  15
   5   1  -6 88.9646 99.0374   7
  -5  -1   6 80.5069 89.5849  21
  -5  -1   6 371.190 123.129  19
  -5  -1   6 233.088 106.384  17
  -5  -1   6 192.789 84.1129   5
  -5  -1   6 227.270 105.061  16
   5   1  -6 230.325 68.3677   3
   5   1  -5 926.071 188.267  15
   5   1  -5 1112.07 184.957   7
  -5  -1   5 688.661 143.683  21
  -5  -1   5 1098.99 169.670  19
  -5  -1   5 1105.98 170.932  17
  -5  -1   5 834.307 135.463   5
  -5  -1   5 747.852 143.760  16
   5   1  -5 960.691 112.757   3
   5   1  -4 8730.81 484.625   7
  -5  -1   4 9035.82 481.772  21
  -5  -1   4 8310.66 327.691   6
  -5  -1   4 9140.53 490.352  19
   5   1  -4 8719.35 364.308   3
  -5  -1   4 9281.18 442.492   5
  -5  -1   4 9143.86 481.986  17
  -5  -1   4 8556.27 463.839  16
   5   1  -4 8219.79 477.676  15
   5   1  -3 612.684 95.1154   3
   5   1  -3 704.856 144.252   7
  -5  -1   3 635.547 131.094  21
  -5  -1   3 713.317 84.0073   6
  -5  -1   3 509.065 121.568  10
  -5  -1   3 682.512 129.614  19
  -5  -1   3 499.244 118.334  17
  -5  -1   3 707.863 118.002   5
  -5  -1   3 716.488 136.965  16
   5   1  -2-21.2113 44.5951   3
   5   1  -2-59.8504 88.5952   7
  -5  -1   2 55.8369 63.9963  21
  -5  -1   2-19.8386 33.5403   6
  -5  -1   2 83.2858 76.0123  10
  -5  -1   2-17.5591 59.1140  17
  -5  -1   2 3.20056 59.7217   5
  -5  -1   2-58.5998 61.0213  16
   5   1  -1 1977.16 198.881   7
  -5  -1   1 1769.31 186.489  21
   5   1  -1 1632.63 124.826   6
  -5  -1   1 1527.51 126.556   6
  -5  -1   1 1603.15 175.293  10
   5   1  -1 1791.79 161.301   3
  -5  -1   1 1725.69 180.222  17
  -5  -1   1 1767.12 186.262  16
   5   1   0 1167.48 136.978   4
   5   1   0 694.245 124.605   7
   5   1   0 1191.57 111.030   6
  -5  -1   0 1160.23 152.363  21
  -5  -1   0 1018.55 106.597   6
  -5  -1   0 1041.04 139.271  10
   5   1   0 1293.62 141.369   3
   5   1   0 1094.25 137.404  20
  -5  -1   0 1130.52 145.256  17
  -5  -1   0 1186.02 148.037  16
   5   1   1 39.3481 46.5476   4
   5   1   1 195.770 78.4329   3
   5   1   1-11.9429 68.6082   7
  -5  -1  -1-8.19225 65.4789  21
   5   1   1 119.122 74.0547  20
   5   1   1 54.7971 40.6633   6
  -5  -1  -1 124.458 54.8191   6
  -5  -1  -1 150.460 63.6403  10
  -5  -1  -1 22.7256 50.9116   9
  -5  -1  -1 36.4120 58.1438  17
  -5  -1  -1 82.9193 55.2667  16
   5   1   2 10534.8 333.876  14
   5   1   2 10284.7 332.668  13
   5   1   2 10210.3 439.523  11
   5   1   2 11247.3 422.195   6
   5   1   2 10862.4 450.532  20
  -5  -1  -2 10150.1 452.872  10
  -5  -1  -2 9547.20 436.320   9
  -5  -1  -2 10028.4 455.413  17
  -5  -1  -2 9888.92 447.090  16
   5   1   2 10574.4 445.645   4
   5   1   3 16498.7 401.183  14
   5   1   3 15472.4 398.745  13
   5   1   3 15437.9 583.677  11
   5   1   3 15862.7 581.925  20
   5   1   3 16104.3 569.356   6
   5   1   3 16057.6 588.164  19
  -5  -1  -3 15983.6 599.943  10
  -5  -1  -3 16445.6 604.961   9
  -5  -1  -3 16062.7 605.522  17
  -5  -1  -3 16278.1 604.102  16
   5   1   3 16226.5 594.000   4
   5   1   4 1969.27 191.167  11
   5   1   4 1507.63 166.503  20
   5   1   4 1642.73 167.797   6
   5   1   4 1703.57 173.494  19
  -5  -1  -4 1790.91 188.106  10
  -5  -1  -4 1769.70 182.558   9
  -5  -1  -4 1874.18 187.619  17
  -5  -1  -4 1808.25 184.261  16
   5   1   4 2043.51 193.216   4
   5   1   4 1963.28 158.330  15
   5   1   5 1434.07 168.894   4
   5   1   5 1134.73 148.491  20
   5   1   5 1266.59 153.461  11
   5   1   5 1479.58 170.657   6
   5   1   5 1248.24 152.311  19
  -5  -1  -5 989.269 141.862  10
  -5  -1  -5 1140.08 157.142   9
  -5  -1  -5 787.356 133.618  17
  -5  -1  -5 1112.55 149.512  16
   5   1   5 1292.92 119.906  15
   5   1   6 462.114 65.5305  15
   5   1   6 547.378 117.211   4
   5   1   6 486.966 60.5679   7
   5   1   6 509.642 107.194  20
   5   1   6 662.608 126.341  11
   5   1   6 547.166 123.526   6
   5   1   6 599.126 120.958  19
  -5  -1  -6 515.218 107.475  10
  -5  -1  -6 488.201 110.713   9
  -5  -1  -6 622.992 128.024  17
  -5  -1  -6 553.175 114.211  16
   5   1   6 498.422 54.0810   7
   5   1   7 21.8043 17.1046  15
   5   1   7-1.56100 66.5689   4
   5   1   7 70.2803 82.8492  20
   5   1   7 131.705 90.3013  11
   5   1   7-49.6859 77.2778  19
   5   1   7-39.4628 80.8440   6
  -5  -1  -7 28.2356 68.4248  10
  -5  -1  -7 128.273 88.9876   9
  -5  -1  -7 43.7097 68.9333  16
   5   1   8 1604.82 207.842   4
   5   1   8 1590.11 201.257  20
   5   1   8 1419.96 187.133  11
   5   1   8 1599.12 195.852  19
   5   1   8 1631.73 217.814   6
  -5  -1  -8 1564.53 204.016  10
  -5  -1  -8 1611.44 204.949   9
  -5  -1  -8 1103.87 170.666  16
   5   1   9 7214.23 464.243   4
   5   1   9 7280.81 446.675  21
   5   1   9 7337.00 448.520  20
   5   1   9 7215.35 445.310  11
   5   1   9 6782.52 452.854   6
   5   1   9 7116.65 441.125  19
  -5  -1  -9 6507.73 431.908  10
  -5  -1  -9 7845.25 462.099   9
  -5  -1  -9 6691.31 441.351  16
   5   1  10 2096.32 248.080  21
   5   1  10 2059.51 260.050   4
   5   1  10 2200.49 278.562   6
   5   1  10 2016.99 242.474  20
   5   1  10 1956.11 241.061  11
   5   1  10 2259.63 257.674  19
  -5  -1 -10 1856.24 239.642  10
  -5  -1 -10 1749.53 223.792   9
  -5  -1 -10 2037.79 250.913  16
   5   1  11 1158.76 196.850  21
   5   1  11 1039.21 195.988   4
   5   1  11 1070.81 190.105  20
   5   1  11 508.745 143.947  11
   5   1  11 782.556 165.576  19
   5   1  11 1215.19 228.900   6
  -5  -1 -11 967.174 188.749  10
  -5  -1 -11 1155.42 193.423   9
  -5  -1 -11 438.295 148.707  16
   5   1  12 0.51944 111.856  21
   5   1  12 30.7099 94.9656   4
   5   1  12-68.5287 111.763  20
   5   1  12 35.8250 86.6024  11
   5   1  12-90.9418 99.3181  19
   5   1  12 24.5109 116.436   6
  -5  -1 -12 87.7818 93.0518  10
  -5  -1 -12 50.8796 69.1076   9
  -5  -1 -12 95.4285 98.9611  16
   5   1  13 184.172 114.955  21
   5   1  13 71.8146 75.8504  20
   5   1  13 209.698 105.579  11
   5   1  13 276.533 119.767  19
  -5  -1 -13 361.992 149.792   9
  -5  -1 -13 364.490 138.738  16
   5   2 -11 34.2279 95.6044  15
  -5  -2  11 85.6513 89.5752   5
   5   2 -10 94.8866 106.076  15
   5   2 -10 202.856 113.725  14
   5   2 -10 7.79188 96.2210   7
  -5  -2  10 73.7262 119.447  20
  -5  -2  10-43.6846 82.8820  19
  -5  -2  10-39.8025 106.084  21
  -5  -2  10 281.575 123.137  18
  -5  -2  10 153.097 120.356  17
  -5  -2  10 89.9954 74.5876   5
  -5  -2  10 140.370 101.899  16
   5   2  -9 9.50355 94.8292  15
   5   2  -9 119.201 121.779  14
   5   2  -9 181.184 115.909   7
  -5  -2   9 117.490 95.4031  21
  -5  -2   9 31.5080 107.855  20
  -5  -2   9-49.8405 87.7990  19
  -5  -2   9-59.7006 81.1694  18
  -5  -2   9 14.2749 104.603  17
  -5  -2   9 20.7080 69.9365   5
  -5  -2   9 66.3688 96.2670  16
   5   2  -8 133.970 92.1165  15
  -5  -2   8 70.4246 84.8084  21
   5   2  -8 129.687 112.806  14
   5   2  -8 125.889 80.8804   7
  -5  -2   8-2.86846 104.104  20
  -5  -2   8 190.284 127.430  19
  -5  -2   8 50.0150 95.6054  17
  -5  -2   8 49.3251 76.2443   5
  -5  -2   8-42.6430 98.4734  16
   5   2  -7 186.575 106.835  15
   5   2  -7 92.0328 99.3964  14
   5   2  -7-20.0387 90.9551   7
  -5  -2   7 5.81232 75.3077  21
  -5  -2   7 75.4816 70.3619  20
  -5  -2   7 73.9710 76.0735  19
  -5  -2   7-11.8302 73.8741  17
  -5  -2   7-72.4000 81.9088   5
   5   2  -6 1176.34 198.284  15
   5   2  -6 1340.59 201.897  14
   5   2  -6 1181.42 191.010   7
  -5  -2   6 1334.14 197.206  21
  -5  -2   6 1019.86 118.604  12
  -5  -2   6 1229.80 201.000  19
  -5  -2   6 1362.08 195.200  17
  -5  -2   6 1385.34 189.720   5
  -5  -2   6 1202.55 185.356  16
   5   2  -5 2510.49 262.000   7
   5   2  -5 2111.28 237.939  14
  -5  -2   5 2691.99 267.997  21
  -5  -2   5 2634.85 186.823  12
  -5  -2   5 2738.49 263.536  19
   5   2  -5 2426.76 143.373   3
  -5  -2   5 2593.18 243.821   5
  -5  -2   5 2502.45 249.983  17
  -5  -2   5 2675.52 252.612  16
   5   2  -5 2295.49 246.813  15
   5   2  -4 49.4901 89.9309  15
   5   2  -4-12.4773 36.6081   3
   5   2  -4-90.1780 89.4590  14
   5   2  -4-80.6709 90.3392   7
  -5  -2   4-66.6198 54.7683  12
  -5  -2   4 4.74932 70.3022  19
  -5  -2   4-8.46245 24.6987   3
  -5  -2   4 62.7991 62.7106  17
  -5  -2   4-26.9520 73.5880  21
  -5  -2   4 63.4618 78.3618   5
  -5  -2   4 40.1832 77.0959  16
   5   2  -3 3321.62 272.188   7
   5   2  -3 3645.39 271.924  14
  -5  -2   3 3342.64 270.069  21
  -5  -2   3 3356.27 219.183  12
  -5  -2   3 3167.19 264.151  19
   5   2  -3 3439.23 188.907   3
  -5  -2   3 3276.57 255.157   5
  -5  -2   3 3419.52 266.422  17
  -5  -2   3 3789.95 277.945  16
  -5  -2   3 3155.86 177.778   3
   5   2  -3 3570.71 292.863  15
  -5  -2   2 611.194 103.521  12
   5   2  -2 600.654 133.924  15
   5   2  -2 624.484 85.1410   3
   5   2  -2 683.697 113.931  14
   5   2  -2 634.715 120.314   7
  -5  -2   2 603.552 113.447  21
  -5  -2   2 698.481 127.442  10
  -5  -2   2 517.583 107.628  19
  -5  -2   2 513.993 103.972  17
  -5  -2   2 437.464 71.5818   3
  -5  -2   2 593.102 108.854   5
  -5  -2   2 778.703 126.012  16
   5   2  -1 1781.55 187.706   7
   5   2  -1 1844.55 168.802  14
   5   2  -1 2009.33 157.252   6
  -5  -2   1 1998.12 177.075  12
  -5  -2   1 2177.03 194.062  10
  -5  -2   1 1854.96 147.187   3
  -5  -2   1 1884.49 180.889  17
  -5  -2   1 1871.31 184.626  21
  -5  -2   1 1799.37 178.825  16
   5   2  -1 2105.29 210.596  15
   5   2   0 34.7367 63.1334  15
   5   2   0 87.0617 54.6323   4
   5   2   0 40.8091 43.7825  14
   5   2   0 23.5888 60.0746   7
  -5  -2   0-14.7788 58.9040  12
   5   2   0-20.3661 42.8973   6
  -5  -2   0-53.2678 56.9573  10
  -5  -2   0 33.2481 42.4277   9
  -5  -2   0 70.1227 48.5993  17
  -5  -2   0 83.5825 58.8490  21
  -5  -2   0-22.6078 54.5696  16
  -5  -2   0 3.34991 36.1195   3
   5   2   1 46.4868 69.0867  15
   5   2   1 16.4904 55.4369   4
   5   2   1 35.9331 40.5419  14
   5   2   1 0.90783 48.0018   7
   5   2   1-5.99321 36.7583  13
  -5  -2  -1 34.6749 45.4884  21
   5   2   1 3.87647 46.2038  20
   5   2   1 18.9479 49.5242  11
   5   2   1 11.4181 53.2618   6
  -5  -2  -1 30.0760 55.5647  10
  -5  -2  -1 70.5748 57.5139   9
  -5  -2  -1 39.9666 48.5951  17
  -5  -2  -1 30.6593 57.4401  16
   5   2   2 5472.98 290.575   6
   5   2   2 5533.65 270.331   7
   5   2   2 6007.83 237.534  14
   5   2   2 6008.24 237.293  13
  -5  -2  -2 5817.28 311.875  21
   5   2   2 5551.30 294.821  11
   5   2   2 5440.59 287.562  20
  -5  -2  -2 5811.74 313.922  10
  -5  -2  -2 5559.13 300.810   9
  -5  -2  -2 6082.44 312.127  17
  -5  -2  -2 5597.50 297.869  16
   5   2   2 6002.68 322.993   4
   5   2   2 5403.51 296.104  15
   5   2   3 3866.83 201.962   7
   5   2   3 3825.60 155.888  14
   5   2   3 3667.27 152.800  13
   5   2   3 3614.14 239.916   6
   5   2   3 3702.19 233.215  20
   5   2   3 3643.52 239.649  11
  -5  -2  -3 3415.24 240.193  10
  -5  -2  -3 3900.90 253.155   9
  -5  -2  -3 3406.09 234.534  17
  -5  -2  -3 3720.78 239.328  16
  -5  -2  -3 3357.77 151.263   8
   5   2   3 3553.52 248.202   4
   5   2   3 3412.35 219.477  15
   5   2   4 14687.0 368.388  14
   5   2   4 16000.2 458.509   7
   5   2   4 16929.6 600.395   6
   5   2   4 16061.3 561.057  20
   5   2   4 15687.6 580.799  11
   5   2   4 15897.5 561.302  19
  -5  -2  -4 16494.8 593.512  10
  -5  -2  -4 17203.2 599.998   9
  -5  -2  -4 16124.2 580.362  17
  -5  -2  -4 16368.6 576.658  16
  -5  -2  -4 15758.2 405.689   8
   5   2   4 16027.6 599.122   4
   5   2   4 14940.4 508.988  15
   5   2   5 1.39218 36.9613  15
   5   2   5 19.1840 18.4432   7
   5   2   5 154.459 73.9017   4
   5   2   5 21.6480 54.1501  20
   5   2   5 36.5923 63.3832  11
   5   2   5 1.92926 53.1377   6
   5   2   5 39.4323 52.1583  19
  -5  -2  -5 32.2014 59.9310  10
  -5  -2  -5 33.9507 51.5728  17
  -5  -2  -5-20.7466 80.7300   9
  -5  -2  -5 82.9472 62.8151  16
   5   2   6 1469.24 182.128   4
   5   2   6 1997.95 188.222  20
   5   2   6 1958.27 206.608   6
   5   2   6 2003.29 198.472  11
   5   2   6 1715.07 176.573  19
  -5  -2  -6 1784.50 192.917  10
  -5  -2  -6 1607.64 185.667   9
  -5  -2  -6 1665.28 176.344  16
   5   2   6 1594.50 114.512  15
   5   2   7 375.963 110.997   4
   5   2   7 523.481 108.613  20
   5   2   7 518.817 115.975  11
   5   2   7 598.056 130.012   6
   5   2   7 496.716 108.808  19
  -5  -2  -7 366.524 104.039  10
  -5  -2  -7 396.833 103.437   9
  -5  -2  -7 316.422 85.1043  16
   5   2   7 459.468 49.3110  15
   5   2   8 3331.86 271.614  20
   5   2   8 3917.79 317.767   6
   5   2   8 4073.44 308.418  11
   5   2   8 3638.71 284.909  19
  -5  -2  -8 3465.81 287.414  10
  -5  -2  -8 3952.75 309.009   9
  -5  -2  -8 3551.79 287.742  16
   5   2   8 3449.77 178.345   8
   5   2   8 3621.26 303.145   4
   5   2   9 1453.70 209.864   4
   5   2   9 1292.77 181.445  21
   5   2   9 1624.81 203.949  20
   5   2   9 1249.17 186.409  11
   5   2   9 1414.82 206.494   6
   5   2   9 1429.14 189.665  19
  -5  -2  -9 1255.09 180.785  10
  -5  -2  -9 1413.55 193.470   9
   5   2   9 1402.67 123.585   8
  -5  -2  -9 1360.90 188.434  16
   5   2  10 7748.64 491.818   4
   5   2  10 7369.13 447.757  21
   5   2  10 6822.20 435.684  20
   5   2  10 7511.50 489.105   6
   5   2  10 7228.87 459.005  11
   5   2  10 8021.37 465.087  19
  -5  -2 -10 7697.16 480.647  10
  -5  -2 -10 7132.32 458.765   9
  -5  -2 -10 7322.61 460.458  16
   5   2  11 394.956 121.296  21
   5   2  11 281.277 101.416  20
   5   2  11 552.075 132.619  11
   5   2  11 399.876 124.927   6
   5   2  11 376.400 136.594  19
  -5  -2 -11 364.915 135.160  10
  -5  -2 -11 265.066 97.8280   9
   5   2  11 205.524 113.524   4
  -5  -2 -11 211.944 98.4258  16
   5   2  12 35.5932 94.9467   4
   5   2  12 145.638 101.372  21
   5   2  12-14.5895 86.3135  20
   5   2  12 156.815 102.788  11
   5   2  12 38.0683 86.6086   6
   5   2  12-23.3156 86.2204  19
  -5  -2 -12 64.0249 84.7645  10
  -5  -2 -12 137.524 86.8125   9
  -5  -2 -12-72.2878 96.5503  16
   5   2  13 181.416 89.4324  21
   5   2  13-67.1707 118.109   4
   5   2  13 118.892 100.611  20
   5   2  13-91.0843 118.259  11
   5   2  13-16.2746 125.064   6
   5   2  13 116.194 109.409  19
  -5  -2 -13-103.405 123.804  10
  -5  -2 -13 41.0815 102.491   9
  -5  -2 -13 2.23757 79.2329  16
   5   3 -11 20.1952 71.7951  15
   5   3 -10 190.032 120.887  15
   5   3 -10 159.837 112.793   7
  -5  -3  10-21.1783 84.4533  21
  -5  -3  10-3.81681 108.196  20
  -5  -3  10-36.3359 110.368  19
  -5  -3  10 6.97039 95.3688  17
  -5  -3  10 23.1082 81.0224   5
  -5  -3  10-62.3145 116.063  16
   5   3  -9 211.660 112.484  15
   5   3  -9-107.243 115.496  14
   5   3  -9 214.217 119.768   7
  -5  -3   9-35.3241 98.2137  21
  -5  -3   9 57.2583 95.7165  20
  -5  -3   9 83.5020 89.8233  19
  -5  -3   9 1.75617 107.372  18
  -5  -3   9 99.9074 96.9887  17
  -5  -3   9 242.398 114.525   5
  -5  -3   9 116.410 121.981  16
   5   3  -8 248.899 111.227  15
   5   3  -8 213.001 127.501  14
   5   3  -8 159.610 103.896   7
  -5  -3   8 32.7863 89.6032  21
  -5  -3   8 217.102 117.815  20
  -5  -3   8 119.352 111.887  19
  -5  -3   8 359.047 120.943  17
  -5  -3   8 229.138 105.274   5
  -5  -3   8 222.074 127.384  16
   5   3  -7 730.490 168.620  15
   5   3  -7 1016.55 192.587  14
   5   3  -7 1110.38 196.243   7
  -5  -3   7 1056.82 191.527  20
  -5  -3   7 1074.61 196.435  19
  -5  -3   7 890.806 170.044  21
  -5  -3   7 986.518 183.878  17
  -5  -3   7 1136.12 188.896   5
  -5  -3   7 955.324 168.873  16
   5   3  -6 4343.86 355.444   7
   5   3  -6 4624.21 366.971  14
  -5  -3   6 4297.31 341.023  21
  -5  -3   6 5007.86 284.121  12
  -5  -3   6 4402.47 356.669  20
  -5  -3   6 4457.95 356.301  19
  -5  -3   6 4840.29 361.620   5
  -5  -3   6 4440.66 347.503  17
  -5  -3   6 4581.72 351.276  16
   5   3  -6 4604.91 356.222  15
   5   3  -5 408.334 119.164  15
   5   3  -5 502.083 132.292  14
   5   3  -5 347.099 109.551   7
  -5  -3   5 354.069 111.950  21
  -5  -3   5 536.431 122.438  20
  -5  -3   5 536.141 97.3577  12
  -5  -3   5 445.752 120.969  19
  -5  -3   5 451.784 126.025  17
  -5  -3   5 503.626 119.389   5
  -5  -3   5 636.948 134.610  16
   5   3  -4 508.927 134.716  15
   5   3  -4 506.422 117.347  14
   5   3  -4 514.703 126.273   7
  -5  -3   4 736.335 113.857  12
  -5  -3   4 666.611 125.614  19
  -5  -3   4 527.298 117.467  17
  -5  -3   4 709.679 131.873   5
  -5  -3   4 693.592 133.003  16
  -5  -3   4 559.627 116.864  21
   5   3  -3 5138.11 338.233   7
   5   3  -3 4732.27 323.025  14
  -5  -3   3 5738.15 338.044  21
  -5  -3   3 5238.63 188.652   3
  -5  -3   3 5121.27 328.920  19
  -5  -3   3 5609.32 347.870   5
  -5  -3   3 5521.45 333.659  17
   5   3  -3 4898.02 251.845   9
  -5  -3   3 5319.23 294.973  12
  -5  -3   3 5148.13 323.699  16
   5   3  -3 4514.94 330.720  15
   5   3  -2 5338.31 329.089   7
   5   3  -2 5327.79 317.712  14
  -5  -3   2 5407.68 314.684  21
  -5  -3   2 5003.59 288.196  12
  -5  -3   2 5552.76 320.785  19
  -5  -3   2 4953.47 205.382   3
  -5  -3   2 4797.47 311.652   5
  -5  -3   2 5173.66 306.608  17
   5   3  -2 4965.81 248.452   9
  -5  -3   2 5390.13 308.087  16
   5   3  -2 5138.11 335.252  15
   5   3  -1 8012.81 393.196   7
   5   3  -1 7796.80 372.544  14
  -5  -3   1 8556.28 384.933  21
   5   3  -1 7071.94 343.020   6
  -5  -3   1 8154.05 378.265  12
   5   3  -1 7958.26 322.799  11
  -5  -3   1 7964.11 378.408  10
  -5  -3   1 8015.66 382.742  19
  -5  -3   1 7747.73 293.204   3
  -5  -3   1 7608.49 388.746   5
  -5  -3   1 8593.17 384.883  17
   5   3  -1 7872.17 325.691   9
  -5  -3   1 8026.54 371.521  16
   5   3  -1 7589.95 404.636  15
  -5  -3   0 656.324 85.4903   3
   5   3   0 507.170 105.041  15
   5   3   0 527.814 89.2689  14
   5   3   0 765.515 115.106   7
  -5  -3   0 702.175 113.331  12
  -5  -3   0 627.507 99.2617  21
   5   3   0 693.747 105.362   6
   5   3   0 678.250 90.9513  11
  -5  -3   0 664.286 104.023  10
  -5  -3   0 599.242 96.2547   9
  -5  -3   0 492.401 89.2946  17
  -5  -3   0 633.530 96.4398  16
  -5  -3  -1 8475.28 364.227  21
   5   3   1 7935.48 353.223   7
   5   3   1 8226.94 339.208  14
   5   3   1 8181.25 371.865   6
   5   3   1 8098.51 336.775  13
  -5  -3  -1 8037.47 386.138  12
   5   3   1 8252.87 346.929  11
  -5  -3  -1 7780.10 359.284  10
  -5  -3  -1 7877.54 336.632   3
  -5  -3  -1 8732.25 357.888   9
  -5  -3  -1 8718.39 366.309  17
  -5  -3  -1 8626.37 361.544  16
   5   3   1 8305.20 391.465   4
   5   3   1 8022.45 384.659  15
   5   3   2 368.170 88.7505  15
   5   3   2 311.088 88.0169   4
   5   3   2 344.037 63.2781  14
   5   3   2 344.289 70.3321   7
   5   3   2 240.717 51.7422  13
  -5  -3  -2 390.032 78.3617  21
   5   3   2 369.536 76.3041  20
   5   3   2 382.931 73.4491  11
   5   3   2 215.841 65.8242   6
  -5  -3  -2 337.235 76.4861  10
  -5  -3  -2 360.232 72.4011  17
  -5  -3  -2 318.851 83.5807   9
  -5  -3  -2 348.962 99.8405  12
  -5  -3  -2 350.994 73.4996  16
   5   3   3 3633.22 193.657   7
   5   3   3 3756.87 182.118  14
  -5  -3  -3 3462.34 258.546  12
   5   3   3 3446.38 210.302  20
   5   3   3 3816.08 239.427  11
   5   3   3 3903.68 257.184   6
  -5  -3  -3 3640.27 233.484  10
  -5  -3  -3 3702.66 223.767  17
  -5  -3  -3 3911.64 241.399   9
  -5  -3  -3 4103.51 230.419  16
  -5  -3  -3 3649.67 189.796   8
   5   3   3 3324.24 242.341   4
   5   3   3 3474.62 226.868  15
   5   3   4 40.9501 37.3869  15
   5   3   4 38.9438 23.3401  14
   5   3   4 35.3474 54.7435   4
  -5  -3  -4 44.0442 29.2710  14
   5   3   4 117.101 37.0428   7
  -5  -3  -4 82.2262 39.3589  13
  -5  -3  -4-39.1708 79.3261  12
   5   3   4 94.8782 57.9955  20
   5   3   4 132.545 46.6059  11
   5   3   4 131.382 67.8921   6
   5   3   4 98.1761 54.3384  19
  -5  -3  -4 76.7748 49.9535  10
  -5  -3  -4 20.7315 48.0964  17
  -5  -3  -4 129.431 70.2348   9
  -5  -3  -4 16.9027 45.3257  16
  -5  -3  -4 81.2649 32.7335   8
   5   3   5 3141.53 130.020   7
  -5  -3  -5 2725.91 135.098  14
  -5  -3  -5 3407.40 146.473  13
   5   3   5 2881.70 202.943  20
   5   3   5 3088.24 232.737  11
   5   3   5 2946.53 206.291  19
  -5  -3  -5 2878.95 219.775  10
   5   3   5 3254.65 250.694   6
  -5  -3  -5 3373.64 226.206  17
  -5  -3  -5 2970.32 232.312   9
  -5  -3  -5 3066.54 213.462  16
  -5  -3  -5 2938.77 165.610   8
   5   3   5 3118.46 243.112   4
   5   3   5 3165.87 189.386  15
  -5  -3  -6 1941.36 104.402  14
  -5  -3  -6 2204.57 110.194  13
   5   3   6 2193.37 211.695   6
   5   3   6 1910.98 173.608  20
   5   3   6 1896.14 194.380  11
   5   3   6 1949.09 176.151  19
  -5  -3  -6 2147.96 196.248  10
  -5  -3  -6 2097.74 200.858   9
  -5  -3  -6 1821.59 173.010  16
  -5  -3  -6 1805.93 131.594   8
   5   3   6 2122.39 140.520  15
   5   3   6 1854.15 193.820   4
  -5  -3  -7 1186.15 80.4175  14
  -5  -3  -7 1355.41 83.8356  13
   5   3   7 1253.28 176.254   4
   5   3   7 1409.61 155.606  20
   5   3   7 1438.84 176.687  11
   5   3   7 1487.87 185.766   6
   5   3   7 1124.37 141.707  19
  -5  -3  -7 1393.72 171.235  10
  -5  -3  -7 1346.40 173.613   9
   5   3   7 1468.12 123.680   8
  -5  -3  -7 1191.23 146.829  16
   5   3   7 1077.16 91.3475  15
  -5  -3  -8 4451.49 175.695  13
   5   3   8 3862.90 278.389  21
   5   3   8 5079.86 357.668   6
   5   3   8 3992.44 282.856  20
   5   3   8 4593.98 330.675  11
   5   3   8 3699.19 271.294  19
  -5  -3  -8 4307.31 311.683  10
  -5  -3  -8 4371.51 323.976   9
  -5  -3  -8 4336.03 303.118  16
   5   3   8 4581.99 240.306   8
   5   3   8 4204.06 322.989   4
   5   3   9 34259.7 1081.25  21
   5   3   9 37448.8 1203.80   6
   5   3   9 35829.6 1098.46  20
   5   3   9 34467.4 1147.04  11
   5   3   9 33579.1 1074.97  19
  -5  -3  -9 35484.4 1147.03  10
  -5  -3  -9 36725.4 1166.59   9
  -5  -3  -9 36526.8 1117.81  16
   5   3   9 35523.8 974.356   8
   5   3   9 36227.4 1172.33   4
   5   3  10 75.1733 84.2274   4
   5   3  10-27.8739 80.5375  21
   5   3  10 42.9955 63.6832  20
   5   3  10 10.8967 95.1197  11
   5   3  10 47.6419 84.5960   6
   5   3  10 75.0363 64.1535  19
  -5  -3 -10 96.5914 87.3019  10
  -5  -3 -10 169.782 100.988   9
   5   3  10 26.9089 41.9012   8
  -5  -3 -10-21.2523 91.3667  16
   5   3  11 2450.80 257.915  21
   5   3  11 2669.62 308.790   6
   5   3  11 2862.92 298.644  11
   5   3  11 2249.71 247.677  20
   5   3  11 2471.21 256.498  19
  -5  -3 -11 2376.19 268.549  10
  -5  -3 -11 2581.10 288.777   9
  -5  -3 -11 1968.27 238.473  16
   5   3  11 2477.33 287.516   4
   5   3  12 952.882 195.057   4
   5   3  12 1167.72 189.697  21
   5   3  12 782.802 165.158  20
   5   3  12 1096.59 201.805  11
   5   3  12 965.627 194.210   6
   5   3  12 617.261 148.932  19
  -5  -3 -12 745.915 169.428  10
  -5  -3 -12 888.731 187.505   9
  -5  -3 -12 1272.07 200.712  16
   5   3  13 2050.73 290.076   4
   5   3  13 1705.22 245.262  21
   5   3  13 1760.20 245.437  20
   5   3  13 2205.47 284.942  11
   5   3  13 1812.11 273.939   6
   5   3  13 2022.09 267.055  19
  -5  -3 -13 2037.58 284.052  10
  -5  -3 -13 1679.01 249.766   9
  -5  -3 -13 1755.45 254.794  16
   5   3  14 2497.86 311.037  21
   5   3  14 2674.27 317.397  20
   5   3  14 2607.01 311.445  19
  -5  -3 -14 2396.60 301.560  16
   5   4 -10 600.947 154.501  15
   5   4  -9 781.058 162.233  15
   5   4  -9 885.780 211.819  14
   5   4  -9 1558.75 255.092   7
  -5  -4   9 889.426 189.439  21
  -5  -4   9 1195.64 218.918  20
  -5  -4   9 698.822 181.388  19
  -5  -4   9 1022.16 197.306  17
  -5  -4   9 1326.84 230.159   5
   5   4  -8 669.418 169.782  15
   5   4  -8 869.886 194.611  14
   5   4  -8 661.640 161.637   7
  -5  -4   8 546.527 146.756  21
  -5  -4   8 790.824 169.062  20
  -5  -4   8 392.327 123.640  19
  -5  -4   8 605.977 155.142  17
  -5  -4   8 741.895 164.866   5
  -5  -4   8 769.414 179.194  16
   5   4  -7 157.864 82.5121  15
   5   4  -7 191.353 122.090  14
   5   4  -7 123.228 100.706   7
  -5  -4   7 210.854 67.0579  12
  -5  -4   7 118.193 78.5357  21
  -5  -4   7 277.185 107.145  20
  -5  -4   7 158.067 102.414  19
  -5  -4   7 224.988 102.744  17
  -5  -4   7 199.571 118.721   5
  -5  -4   7 156.217 82.2555  16
   5   4  -6 57009.3 1676.47   7
   5   4  -6 55078.0 1677.25  14
  -5  -4   6 56432.2 1637.70  21
  -5  -4   6 58075.6 1512.59  12
  -5  -4   6 56699.5 1655.56  20
  -5  -4   6 57384.6 1646.66  19
  -5  -4   6 60700.0 1694.87   5
  -5  -4   6 55524.4 1622.46  17
  -5  -4   6 56762.5 1630.41  16
   5   4  -6 54616.8 1651.05  15
   5   4  -5 15157.8 677.133   7
   5   4  -5 14532.6 667.706  14
  -5  -4   5 14843.5 636.494  21
  -5  -4   5 13925.5 567.294  12
  -5  -4   5 13834.7 632.069  20
  -5  -4   5 14268.3 631.621  19
  -5  -4   5 14619.5 664.512   5
  -5  -4   5 15011.6 638.633  17
  -5  -4   5 14632.4 629.223  16
   5   4  -5 13647.4 648.480  15
   5   4  -4 3491.22 291.601   7
   5   4  -4 3233.48 286.048  14
  -5  -4   4 3201.50 262.293  21
  -5  -4   4 3374.31 246.867  12
  -5  -4   4 2945.59 259.455  20
  -5  -4   4 3518.88 279.493  19
  -5  -4   4 3142.98 280.534   5
  -5  -4   4 3506.30 273.861  17
  -5  -4   4 3316.29 261.689  16
   5   4  -4 3386.51 296.916  15
   5   4  -3 1624.29 193.671  15
   5   4  -3 1305.52 171.360  14
   5   4  -3 1338.36 176.330   7
  -5  -4   3 1183.34 149.655  12
  -5  -4   3 1231.03 152.595  21
   5   4  -3 1588.38 112.208  11
  -5  -4   3 1482.44 171.320  19
  -5  -4   3 1554.57 171.639  17
   5   4  -3 1409.94 108.073   9
  -5  -4   3 1423.84 183.561   5
  -5  -4   3 1176.49 151.062  16
   5   4  -2 131.807 75.2156  15
   5   4  -2-33.3056 71.3214  14
   5   4  -2 61.4467 60.9970   7
  -5  -4   2 85.4002 61.0365  12
  -5  -4   2 40.9523 45.4834  21
   5   4  -2 32.1703 30.9260  11
  -5  -4   2 95.6321 70.3414  19
  -5  -4   2 69.1900 54.7842  17
   5   4  -2 57.9836 37.0737   9
  -5  -4   2 53.8660 69.1234   5
  -5  -4   2 45.6122 18.7385   3
  -5  -4   2 37.1739 51.0848  16
   5   4  -1 1182.09 159.979  15
   5   4  -1 1270.47 150.850  14
   5   4  -1 1284.17 156.732   7
  -5  -4   1 1422.33 142.558  21
  -5  -4   1 1236.76 148.694  12
   5   4  -1 1332.69 109.312  11
  -5  -4   1 1389.70 143.542  10
  -5  -4   1 1338.58 142.543  19
  -5  -4   1 1303.12 97.0337   3
  -5  -4   1 1194.66 133.449  17
   5   4  -1 1385.62 113.081   9
  -5  -4   1 1343.67 139.744  16
  -5  -4   1 1051.65 150.606   5
  -5  -4   0 9045.69 415.994  12
   5   4   0 8550.62 395.533   7
   5   4   0 8348.24 383.786  14
  -5  -4   0 8499.18 359.541  21
   5   4   0 8560.03 400.037   6
   5   4   0 8771.38 325.785  11
  -5  -4   0 7990.69 355.822  10
  -5  -4   0 8635.50 366.733  19
  -5  -4   0 7897.28 310.449   3
  -5  -4   0 8385.84 329.124   9
  -5  -4   0 9125.69 366.735  17
   5   4   0 8380.63 324.007   9
  -5  -4   0 8547.74 354.168  16
   5   4   0 8426.79 420.230  15
   5   4   1 20312.0 650.833   7
   5   4   1 19920.5 642.446  14
  -5  -4  -1 20052.1 649.444  13
  -5  -4  -1 19838.6 607.650  21
  -5  -4  -1 19877.3 694.136  12
   5   4   1 20395.5 687.890   6
  -5  -4  -1 19367.1 588.433  20
   5   4   1 19496.8 593.678  11
  -5  -4  -1 20422.6 627.950  10
  -5  -4  -1 19300.1 589.028  19
  -5  -4  -1 19572.4 603.240   3
  -5  -4  -1 20945.3 613.953  17
  -5  -4  -1 19661.8 595.578   9
   5   4   1 19529.1 603.130  17
   5   4   1 20577.8 606.273   9
  -5  -4  -1 20513.1 606.056  16
   5   4   1 19767.4 600.384  16
   5   4   1 20081.6 692.528   4
   5   4   1 19944.7 693.513  15
   5   4   2 3879.72 223.891   7
   5   4   2 3818.99 222.581  14
  -5  -4  -2 3800.77 224.976  13
  -5  -4  -2 3763.86 211.627  21
  -5  -4  -2 3667.10 262.820  12
   5   4   2 4013.21 267.072   6
  -5  -4  -2 3468.89 192.683  20
   5   4   2 3830.83 224.978  11
  -5  -4  -2 3879.38 200.970  19
  -5  -4  -2 3728.49 221.932  10
  -5  -4  -2 4019.78 213.772  17
  -5  -4  -2 3474.29 213.535   9
   5   4   2 3808.82 210.154  17
  -5  -4  -2 3699.69 204.730  16
   5   4   2 3732.16 205.359  16
   5   4   2 3791.91 258.734   4
   5   4   2 3594.61 248.264  15
   5   4   3 2069.57 147.565   7
   5   4   3 2049.66 154.133  14
  -5  -4  -3 1815.10 146.842   7
  -5  -4  -3 1958.07 151.127  14
  -5  -4  -3 2007.75 151.788  13
  -5  -4  -3 1750.68 133.010  21
  -5  -4  -3 2139.65 151.487  21
  -5  -4  -3 1804.41 189.726  12
   5   4   3 1724.34 184.120   6
   5   4   3 1807.88 134.211  20
  -5  -4  -3 1922.68 139.170  20
   5   4   3 2072.04 170.723  11
  -5  -4  -3 1906.88 137.013  19
  -5  -4  -3 1879.88 156.220  10
  -5  -4  -3 1853.82 141.831  17
  -5  -4  -3 2241.47 176.572   9
  -5  -4  -3 2008.07 147.134  16
   5   4   3 1874.50 141.690  16
   5   4   3 1921.26 188.431   4
   5   4   3 1953.51 175.646  15
   5   4   4 5186.93 225.867   7
   5   4   4 4969.31 239.717  14
  -5  -4  -4 5028.96 231.439   7
  -5  -4  -4 4667.75 235.201  14
  -5  -4  -4 4979.73 239.133  13
  -5  -4  -4 4888.11 237.334  21
  -5  -4  -4 4656.15 307.840  12
   5   4   4 5618.97 327.710   6
   5   4   4 5224.09 243.725  20
  -5  -4  -4 4585.13 231.945  20
   5   4   4 4892.57 283.102  11
  -5  -4  -4 4686.61 233.533  19
  -5  -4  -4 4853.51 269.046  10
  -5  -4  -4 5255.97 252.293  17
  -5  -4  -4 5173.08 290.538   9
  -5  -4  -4 5136.68 246.792  16
   5   4   4 4889.73 246.750  16
   5   4   4 5255.47 312.535   4
   5   4   4 5415.41 282.822  15
  -5  -4  -5 7381.02 301.270  14
  -5  -4  -5 7356.05 268.528   7
  -5  -4  -5 8115.59 309.317  13
  -5  -4  -5 7365.99 316.263  21
  -5  -4  -5 7805.37 406.746  12
   5   4   5 7873.10 415.692   6
   5   4   5 7960.55 326.524  20
  -5  -4  -5 7238.07 318.178  20
   5   4   5 8007.82 388.239  11
   5   4   5 7803.50 327.228  19
  -5  -4  -5 7439.09 319.162  19
  -5  -4  -5 8262.56 372.248  10
  -5  -4  -5 7666.19 331.320  17
  -5  -4  -5 7681.99 384.009   9
  -5  -4  -5 8391.27 339.243  16
   5   4   5 7860.21 398.887   4
   5   4   5 7639.45 335.436  15
   5   4   5 7823.34 266.986   7
  -5  -4  -6 3284.49 185.361  14
  -5  -4  -6 3494.08 189.714  13
  -5  -4  -6 3438.15 273.476  12
   5   4   6 4053.26 294.412   6
   5   4   6 3552.05 220.214  20
   5   4   6 3280.00 254.707  11
   5   4   6 3859.27 227.450  19
  -5  -4  -6 3483.27 242.280  10
  -5  -4  -6 4030.91 237.989  17
  -5  -4  -6 3917.98 280.628   9
  -5  -4  -6 3693.50 227.000  16
   5   4   6 3985.95 218.600  15
   5   4   6 3885.06 277.415   4
  -5  -4  -6 3367.25 210.572  15
  -5  -4  -7 1942.00 141.685  14
  -5  -4  -7 2017.30 141.585  13
   5   4   7 2710.60 249.075   6
   5   4   7 2318.48 184.996  20
   5   4   7 1995.86 206.925  11
   5   4   7 2164.37 181.250  19
  -5  -4  -7 2092.86 198.509  10
  -5  -4  -7 2192.81 221.332   9
  -5  -4  -7 2121.15 182.382  16
   5   4   7 2001.99 170.600   8
   5   4   7 2116.10 148.197  15
   5   4   7 2083.46 216.650   4
  -5  -4  -7 1826.77 143.377  15
   5   4   8 857.680 151.026   4
   5   4   8 885.748 124.251  21
   5   4   8 911.861 126.894  20
   5   4   8 744.017 143.237  11
   5   4   8 894.259 159.711   6
   5   4   8 934.522 129.914  19
  -5  -4  -8 1060.28 152.425  10
  -5  -4  -8 1173.63 162.004   9
   5   4   8 1220.10 134.539   8
  -5  -4  -8 1021.89 139.365  16
   5   4   9 9293.89 445.423  21
   5   4   9 9779.42 533.171   6
   5   4   9 10012.7 464.568  20
   5   4   9 9667.29 513.774  11
   5   4   9 9108.85 445.646  19
  -5  -4  -9 9268.36 483.882  10
  -5  -4  -9 8773.68 497.823   9
  -5  -4  -9 9572.43 463.254  16
   5   4   9 9679.51 431.793   8
   5   4   9 8864.56 496.197   4
   5   4  10 1679.07 218.823   4
   5   4  10 1587.68 185.191  21
   5   4  10 1398.36 185.829  20
   5   4  10 1693.26 226.247  11
   5   4  10 1433.01 215.330   6
   5   4  10 1319.17 172.464  19
  -5  -4 -10 1767.42 220.003  10
  -5  -4 -10 1349.18 209.016   9
   5   4  10 1358.51 158.824   8
  -5  -4 -10 1606.53 193.312  16
   5   4  11 2902.42 268.139  21
   5   4  11 2991.00 315.930   6
   5   4  11 2927.25 272.338  20
   5   4  11 3383.18 321.622  11
   5   4  11 2845.19 265.722  19
  -5  -4 -11 2829.21 283.381  10
  -5  -4 -11 3276.88 327.125   9
  -5  -4 -11 3343.93 293.762  16
   5   4  11 3157.74 259.575   8
   5   4  11 2761.31 297.687   4
   5   4  12 40.9577 87.3096   4
   5   4  12-46.3939 76.6526  21
   5   4  12 87.5591 65.5519  20
   5   4  12 12.3996 91.9203  11
   5   4  12 50.3189 107.368   6
   5   4  12 27.8794 70.0254  19
  -5  -4 -12 97.8939 89.4220  10
  -5  -4 -12 78.5824 115.378   9
  -5  -4 -12 22.4011 69.8622  16
   5   4  13 703.049 162.661   4
   5   4  13 657.485 144.049  21
   5   4  13 683.087 154.563  20
   5   4  13 1142.35 211.295  11
   5   4  13 992.301 204.412   6
   5   4  13 661.088 150.425  19
  -5  -4 -13 760.270 178.569  10
  -5  -4 -13 886.968 193.911   9
  -5  -4 -13 549.324 138.837  16
   5   4  14-35.8351 102.510  21
   5   4  14 44.9566 104.535  20
   5   4  14 239.287 100.495  19
  -5  -4 -14 84.1295 101.789  16
   5   5 -10-513.384 154.928  15
   5   5  -9 125.206 101.130  15
   5   5  -9-124.321 109.994  14
   5   5  -9-102.205 130.089   7
  -5  -5   9 3.83656 74.5483  21
  -5  -5   9-40.6444 111.978  20
  -5  -5   9-85.9046 95.2955  19
  -5  -5   9-47.3169 75.7485  17
  -5  -5   9 97.4059 98.7841   5
   5   5  -8 59.3411 76.7435  15
   5   5  -8 36.5120 76.8884  14
   5   5  -8 54.1568 91.8350   7
  -5  -5   8 69.8346 81.7104  21
  -5  -5   8 278.014 121.197  20
  -5  -5   8 0.99984 71.9665  19
  -5  -5   8 183.381 109.172  17
  -5  -5   8-102.701 103.460   5
   5   5  -7 1223.53 202.345  15
   5   5  -7 1622.55 239.841  14
   5   5  -7 1396.35 217.710   7
  -5  -5   7 1469.81 183.366  12
  -5  -5   7 1439.37 205.925  21
  -5  -5   7 1277.19 204.581  20
  -5  -5   7 1170.83 191.790  19
  -5  -5   7 1506.36 209.004  17
  -5  -5   7 1851.99 252.218   5
   5   5  -6 140.482 84.5386  15
   5   5  -6 237.079 113.340  14
   5   5  -6 124.998 93.8442   7
  -5  -5   6 124.281 65.1470  12
  -5  -5   6 265.209 110.270  21
  -5  -5   6 256.487 99.2236  20
  -5  -5   6 179.449 116.633  19
  -5  -5   6 51.3827 84.4458  17
  -5  -5   6 94.0240 83.5948   5
  -5  -5   6 336.290 108.406  16
   5   5  -5 6509.74 434.513   7
   5   5  -5 6190.85 427.633  14
  -5  -5   5 5992.71 382.781  21
  -5  -5   5 5918.23 372.247  12
  -5  -5   5 5696.04 386.077  20
  -5  -5   5 6384.78 399.588  19
  -5  -5   5 6557.20 436.094   5
  -5  -5   5 6144.78 383.057  17
  -5  -5   5 6206.87 390.734  16
   5   5  -5 6367.63 427.755  15
   5   5  -4 563.002 133.943  15
   5   5  -4 496.095 126.324  14
   5   5  -4 652.126 144.865   7
  -5  -5   4 466.928 104.360  12
  -5  -5   4 499.826 113.169  20
  -5  -5   4 558.063 115.549  21
  -5  -5   4 625.588 126.743  19
  -5  -5   4 415.885 102.723  17
  -5  -5   4 507.508 132.265   5
  -5  -5   4 589.904 120.174  16
   5   5  -3 4449.35 331.859   7
   5   5  -3 4815.12 343.911  14
  -5  -5   3 5499.88 315.923  21
  -5  -5   3 5236.34 333.992  12
   5   5  -3 4702.47 150.117  11
  -5  -5   3 5594.34 330.976  20
  -5  -5   3 5322.59 319.699  19
  -5  -5   3 5140.06 355.359   5
  -5  -5   3 5296.55 313.950  17
  -5  -5   3 5055.74 304.694  16
   5   5  -3 5337.50 368.491  15
   5   5  -2 429.755 112.509  15
   5   5  -2 420.424 109.491  14
   5   5  -2 308.033 89.8912   7
  -5  -5   2 458.565 103.104  12
  -5  -5   2 280.955 74.3085  21
   5   5  -2 409.542 45.2735  11
  -5  -5   2 361.858 87.4698  20
  -5  -5   2 499.336 100.586  19
  -5  -5   2 327.653 77.4550  17
   5   5  -2 368.767 44.2842   9
  -5  -5   2 188.423 68.7326   5
  -5  -5   2 538.842 94.7000  16
   5   5  -1 2206.77 209.762   7
   5   5  -1 2432.94 224.499  14
  -5  -5   1 2005.32 208.345  13
  -5  -5   1 2192.42 172.146  21
  -5  -5   1 2108.40 206.891  12
   5   5  -1 2289.33 124.792  11
  -5  -5   1 2053.75 167.532  19
  -5  -5   1 2169.18 124.566   3
  -5  -5   1 2299.37 222.160   5
  -5  -5   1 2211.12 170.861  17
   5   5  -1 2245.57 125.607   9
  -5  -5   1 2269.49 170.671  16
   5   5  -1 2298.91 226.042  15
   5   5   0 1143.64 162.404  15
   5   5   0 976.495 137.491  14
   5   5   0 782.152 125.998   7
  -5  -5   0 1065.91 140.528  13
  -5  -5   0 1246.47 117.087  21
  -5  -5   0 1060.04 152.582  12
   5   5   0 1041.06 94.0760  11
  -5  -5   0 782.691 93.8535  20
  -5  -5   0 1189.50 118.318  10
  -5  -5   0 1044.84 109.846  19
   5   5   0 1194.85 116.964  10
  -5  -5   0 1025.94 106.794  17
  -5  -5   0 1061.28 97.5706   9
   5   5   0 1059.51 95.1073   9
   5   5   0 966.712 104.824  17
  -5  -5   0 1166.60 115.710  16
   5   5   0 1098.80 111.900  16
  -5  -5   0 1265.74 164.114   5
   5   5   1 336.643 93.6317  15
   5   5   1 458.524 98.4330  14
   5   5   1 313.302 83.2720   7
  -5  -5  -1 387.619 60.9601  20
  -5  -5  -1 437.436 99.5994  13
  -5  -5  -1 269.621 90.1226  12
  -5  -5  -1 506.107 73.2762  21
   5   5   1 325.695 94.2908   6
   5   5   1 503.001 71.9803  11
  -5  -5  -1 316.354 56.9695  19
  -5  -5  -1 408.872 67.3275  19
  -5  -5  -1 406.660 68.3694  10
   5   5   1 352.734 66.1625  10
  -5  -5  -1 335.611 62.9352  17
  -5  -5  -1 491.212 73.7338   9
   5   5   1 315.214 59.2950  17
   5   5   1 423.925 68.5540   9
  -5  -5  -1 315.204 58.8334  16
   5   5   1 440.559 67.9866  16
   5   5   2 10567.1 424.331   7
   5   5   2 9992.64 428.020  14
  -5  -5  -2 10289.5 431.456  13
  -5  -5  -2 10323.7 345.340  21
  -5  -5  -2 9724.32 463.765  12
   5   5   2 10139.2 472.370   6
  -5  -5  -2 9577.00 325.796  20
   5   5   2 10095.4 383.503  11
  -5  -5  -2 9242.69 322.038  19
  -5  -5  -2 10301.5 376.638  10
  -5  -5  -2 10437.3 350.800  19
   5   5   2 10081.8 372.593  10
  -5  -5  -2 10581.1 345.293  17
  -5  -5  -2 9751.86 376.689   9
  -5  -5  -2 10507.8 342.180  16
   5   5   2 10120.1 339.182  16
   5   5   2 9514.92 444.880   4
   5   5   2 9759.52 452.768  15
   5   5   3 17.1365 58.8191  15
   5   5   3 129.691 75.2720   4
   5   5   3 13.2096 44.8353  14
   5   5   3 43.8359 40.9450   7
  -5  -5  -3 55.0514 53.4223  13
  -5  -5  -3 112.402 35.8379  21
  -5  -5  -3 55.0411 67.0137  12
  -5  -5  -3 77.9390 34.0806  21
  -5  -5  -3 70.9462 29.0731  20
   5   5   3 96.2737 73.3770   6
   5   5   3 121.842 58.5475  11
  -5  -5  -3 83.1718 31.0538  19
  -5  -5  -3 106.730 50.1209  10
   5   5   3 38.2249 32.0180  10
  -5  -5  -3 91.4791 33.6592  17
  -5  -5  -3 145.767 53.4411   9
  -5  -5  -3 73.9136 33.8599  16
   5   5   3 79.8446 32.1000  16
   5   5   4 18663.3 580.028   7
   5   5   4 19326.5 621.457  14
  -5  -5  -4 17786.9 573.109   7
  -5  -5  -4 18776.6 613.749  13
  -5  -5  -4 17698.7 513.983  21
  -5  -5  -4 19344.4 536.729  21
  -5  -5  -4 18591.8 696.871  12
   5   5   4 19731.9 717.107   6
   5   5   4 19482.3 523.069  20
  -5  -5  -4 17548.5 515.924  20
   5   5   4 19805.2 647.440  11
  -5  -5  -4 17492.7 512.983  19
  -5  -5  -4 19921.1 599.861  10
  -5  -5  -4 19573.2 534.375  17
  -5  -5  -4 19899.7 645.754   9
  -5  -5  -4 19715.9 532.648  16
   5   5   4 19160.5 676.708   4
   5   5   4 18780.4 650.049  15
   5   5   5 810.513 115.245  15
   5   5   5 995.810 141.598   4
  -5  -5  -5 716.371 85.7998   7
  -5  -5  -5 811.903 112.134  13
  -5  -5  -5 716.776 78.4561  21
   5   5   5 1045.83 94.2428  20
  -5  -5  -5 752.421 83.7844  20
   5   5   5 845.670 138.481   6
   5   5   5 877.820 129.009  11
   5   5   5 785.951 86.3938  19
  -5  -5  -5 841.351 85.5189  19
  -5  -5  -5 956.200 117.001  10
  -5  -5  -5 847.798 84.7631  17
  -5  -5  -5 982.072 95.5510  17
  -5  -5  -5 989.858 153.155  12
  -5  -5  -5 805.399 121.046   9
  -5  -5  -5 914.133 93.1173  16
   5   5   5 896.418 93.6377   7
  -5  -5  -6 1071.43 96.3457   7
   5   5   6 1340.30 167.036   4
  -5  -5  -6 1551.48 144.446  13
  -5  -5  -6 1354.62 118.485  21
   5   5   6 1492.19 123.332  20
  -5  -5  -6 1384.29 123.881  20
  -5  -5  -6 1317.68 175.574  12
   5   5   6 1257.36 157.283  11
   5   5   6 1245.18 178.997   6
   5   5   6 1531.08 125.240  19
  -5  -5  -6 1290.28 117.338  19
  -5  -5  -6 1543.91 150.620  10
  -5  -5  -6 1276.04 116.017  17
  -5  -5  -6 1465.57 125.842  17
  -5  -5  -6 1594.54 176.563   9
  -5  -5  -6 1515.10 128.570  16
   5   5   6 1287.47 138.196  15
   5   5   7-9.01614 58.5667   4
  -5  -5  -7 88.4518 73.7517  12
   5   5   7-33.5629 51.4518  20
   5   5   7-66.3449 64.4055  11
   5   5   7-21.9414 77.5349   6
   5   5   7-22.8715 52.4613  19
  -5  -5  -7-45.4469 58.7055  10
  -5  -5  -7-22.4387 75.0313   9
  -5  -5  -7 1.68295 44.8868  16
   5   5   7 4.61240 37.8632  15
   5   5   8 5857.60 395.709   6
   5   5   8 5930.26 305.986  20
   5   5   8 6136.64 388.674  11
   5   5   8 5552.98 298.170  19
  -5  -5  -8 5996.35 351.313  10
  -5  -5  -8 6167.76 386.792   9
  -5  -5  -8 5822.99 309.416  16
   5   5   8 5765.78 340.861   8
   5   5   8 5861.11 373.210   4
   5   5   9 43.9297 65.6249   4
   5   5   9 37.1917 44.3160  21
   5   5   9-12.1812 54.7442  20
   5   5   9 52.0021 75.8879  11
   5   5   9-60.0281 86.7383   6
   5   5   9-39.2774 53.4309  19
  -5  -5  -9-182.303 81.3299  10
  -5  -5  -9 192.217 107.361   9
   5   5   9-8.02368 59.7071   8
  -5  -5  -9 92.8204 60.0911  16
   5   5  10 7071.37 382.383  21
   5   5  10 7098.60 471.132   6
   5   5  10 6223.55 364.347  20
   5   5  10 7857.55 486.533  11
   5   5  10 6563.50 374.073  19
  -5  -5 -10 7315.11 438.434  10
  -5  -5 -10 7312.06 471.314   9
  -5  -5 -10 7072.16 392.299  16
   5   5  10 6563.73 394.606   8
   5   5  10 7197.68 449.132   4
   5   5  11-89.2929 78.3135   4
   5   5  11-60.6265 76.9003  21
   5   5  11 65.9034 57.4064  20
   5   5  11 50.6202 89.7526  11
   5   5  11 34.9561 95.2224   6
   5   5  11-51.9307 56.9765  19
   5   5  11-22.1661 85.0494  18
  -5  -5 -11-41.4191 64.3437  10
  -5  -5 -11 152.556 110.622   9
   5   5  11 63.6352 58.0312   8
  -5  -5 -11-23.9384 61.7900  16
   5   5  12 2051.98 229.184  21
   5   5  12 2394.15 249.165  20
   5   5  12 2710.34 309.882  11
   5   5  12 2145.90 233.599  19
   5   5  12 1644.37 250.501   6
  -5  -5 -12 2765.61 294.859  10
  -5  -5 -12 2567.38 305.623   9
  -5  -5 -12 2150.03 242.157  16
   5   5  12 1697.70 216.052   8
   5   5  12 2441.14 288.996   4
   5   5  13 19.9343 82.8752   4
   5   5  13-89.5127 102.985  21
   5   5  13 104.219 80.7447  20
   5   5  13 69.2006 92.0115  11
   5   5  13 145.177 114.563   6
  -5  -5 -13-19.9394 80.1315   2
   5   5  13 63.3579 74.6389  19
  -5  -5 -13 3.37522 72.0944  10
  -5  -5 -13 197.003 129.307   9
  -5  -5 -13 69.4888 57.9923  16
   5   5  14-29.9470 84.8366   4
  -5  -5 -14 57.8055 81.7425   2
   5   6  -9 915.418 187.536  15
  -5  -6   9 582.131 177.275  20
  -5  -6   9 859.961 186.988  19
  -5  -6   9 891.184 195.088  17
   5   6  -8 722.166 163.322  15
   5   6  -8 929.111 197.792  14
   5   6  -8 643.322 175.625   7
  -5  -6   8 848.033 173.128  21
  -5  -6   8 542.443 147.814  20
  -5  -6   8 655.269 148.748  19
  -5  -6   8 874.293 183.142  17
  -5  -6   8 959.941 204.840   5
   5   6  -7 757.695 174.615  15
   5   6  -7 817.159 189.002  14
   5   6  -7 545.372 152.539   7
  -5  -6   7 751.167 146.718  12
  -5  -6   7 616.568 140.241  21
  -5  -6   7 825.442 164.421  20
  -5  -6   7 466.697 133.417  19
  -5  -6   7 719.918 153.788  17
  -5  -6   7 599.601 154.480   5
   5   6  -6 389.044 135.856  15
   5   6  -6 444.578 122.499  14
   5   6  -6 209.698 117.498   7
  -5  -6   6 374.858 109.905  12
  -5  -6   6 360.325 111.780  21
  -5  -6   6 478.176 128.941  20
  -5  -6   6 390.020 109.542  19
  -5  -6   6 452.189 120.265  17
  -5  -6   6 286.200 106.134   5
   5   6  -5 1398.07 209.048  15
   5   6  -5 1552.78 222.117  14
   5   6  -5 1528.99 222.381   7
  -5  -6   5 1737.18 212.737  12
  -5  -6   5 1189.57 169.008  21
  -5  -6   5 1505.00 187.461  20
  -5  -6   5 1640.02 198.195  19
  -5  -6   5 1593.10 196.773  17
  -5  -6   5 1895.36 243.902   5
   5   6  -4 807.097 163.502  15
   5   6  -4 638.801 143.661  14
   5   6  -4 576.150 150.416   7
  -5  -6   4 771.657 140.669  12
  -5  -6   4 625.802 119.220  21
  -5  -6   4 555.882 116.865  19
  -5  -6   4 617.913 116.428  17
  -5  -6   4 722.681 152.009   5
  -5  -6   4 590.222 110.017  20
   5   6  -3 198.164 96.0345  15
   5   6  -3 63.8258 82.3859  14
   5   6  -3 35.3494 68.2283   7
  -5  -6   3 190.583 93.5170  12
  -5  -6   3 89.2379 68.1147  21
  -5  -6   3 103.034 61.1760  20
  -5  -6   3 113.225 59.9689  19
  -5  -6   3 36.3848 58.2984  17
  -5  -6   3 168.626 106.305   5
   5   6  -2 4638.11 340.300   7
   5   6  -2 4784.91 346.023  14
  -5  -6   2 4406.44 339.810  13
  -5  -6   2 4999.98 276.091  21
  -5  -6   2 4317.75 320.414  12
  -5  -6   2 4506.16 273.013  20
  -5  -6   2 4887.40 277.771  19
  -5  -6   2 4900.71 349.202   5
  -5  -6   2 4973.78 277.190  17
  -5  -6   2 5170.45 279.820  16
   5   6  -2 4972.40 359.860  15
   5   6  -1 1333.93 188.494  15
   5   6  -1 1616.92 194.798  14
   5   6  -1 1457.90 180.597   7
  -5  -6   1 1357.97 129.730  21
  -5  -6   1 1161.08 172.309  13
  -5  -6   1 1313.71 180.360  12
  -5  -6   1 1189.36 117.072  20
  -5  -6   1 1482.45 137.002  20
  -5  -6   1 1499.30 109.456   3
  -5  -6   1 1387.58 130.934  19
   5   6  -1 1442.39 126.668  10
  -5  -6   1 1533.33 136.727  17
   5   6  -1 1344.10 128.839  17
  -5  -6   1 1603.64 135.401  16
   5   6  -1 1276.10 123.819  16
  -5  -6   1 1550.37 187.932   5
   5   6   0 2637.07 234.034   7
   5   6   0 2800.61 248.745  14
  -5  -6   0 2619.09 238.671  13
  -5  -6   0 2848.82 166.919  21
  -5  -6   0 2451.70 232.205  12
  -5  -6   0 2654.16 156.210  20
  -5  -6   0 2945.49 175.176  20
  -5  -6   0 2852.27 176.396   3
   5   6   0 2858.47 143.510  11
  -5  -6   0 2767.33 166.871  19
   5   6   0 2458.65 157.608  10
  -5  -6   0 2713.42 243.081   5
  -5  -6   0 2584.87 161.048  17
  -5  -6   0 2821.27 141.741   9
   5   6   0 2446.41 157.620  17
  -5  -6   0 2865.92 166.563  16
   5   6   0 2546.07 158.180  16
   5   6   0 2531.42 240.274  15
   5   6   1 1363.66 180.574  15
   5   6   1 1503.99 175.872  14
   5   6   1 1327.76 161.980   7
  -5  -6  -1 1420.92 167.752  13
  -5  -6  -1 1559.56 104.448  21
  -5  -6  -1 1129.20 162.968  12
  -5  -6  -1 1343.11 110.813  11
  -5  -6  -1 1126.42 87.3135  20
  -5  -6  -1 1593.85 108.713  20
   5   6   1 1232.39 109.245  11
   5   6   1 1230.62 171.312   6
  -5  -6  -1 1291.21 92.7351  19
  -5  -6  -1 1463.03 102.596  19
   5   6   1 1230.42 103.648  10
  -5  -6  -1 1256.89 93.9333  17
   5   6   1 1357.36 98.5919  17
  -5  -6  -1 1334.81 110.474   9
  -5  -6  -1 1478.17 101.001  16
   5   6   1 1177.00 91.3536  16
  -5  -6  -1 1404.34 175.273   5
   5   6   2 77.9284 75.9657  15
   5   6   2 19.9089 61.6483  14
   5   6   2 83.1098 49.1026   7
  -5  -6  -2 83.5512 62.0234  13
  -5  -6  -2 78.6054 21.0051  21
  -5  -6  -2 79.5074 69.7011  12
  -5  -6  -2 68.5607 20.5992  21
   5   6   2 123.193 77.4147   6
  -5  -6  -2 44.0366 36.7659  11
  -5  -6  -2 71.6901 24.9760  20
   5   6   2 41.3250 37.3526  11
  -5  -6  -2 92.1909 23.8647  20
  -5  -6  -2 76.2015 22.0511  19
  -5  -6  -2 95.0296 26.2270  19
  -5  -6  -2 153.102 51.1599  10
   5   6   2 104.614 33.0877  10
  -5  -6  -2 71.0489 21.7030  17
  -5  -6  -2 75.4177 43.8854   9
  -5  -6  -2 121.696 30.7882  16
   5   6   2 78.9391 23.3515  16
   5   6   3 353.443 93.4735  15
   5   6   3 331.880 93.0640   4
   5   6   3 371.641 99.5207  14
   5   6   3 258.200 67.3196   7
  -5  -6  -3 230.204 78.3408  13
  -5  -6  -3 279.319 31.0595  21
  -5  -6  -3 360.199 102.624  12
  -5  -6  -3 309.588 32.6528  21
   5   6   3 256.963 87.6709   6
  -5  -6  -3 292.977 31.8244  20
   5   6   3 406.534 80.7413  11
  -5  -6  -3 295.610 31.3103  19
  -5  -6  -3 296.752 33.5589  19
  -5  -6  -3 236.356 52.5093  10
   5   6   3 242.144 48.2476  10
  -5  -6  -3 296.182 31.8207  17
  -5  -6  -3 273.906 30.0056  17
  -5  -6  -3 306.522 69.2850   9
  -5  -6  -3 272.553 29.6977  16
   5   6   4 1589.42 168.128  14
   5   6   4 1359.18 164.131   4
  -5  -6  -4 1406.19 158.289  13
  -5  -6  -4 1504.84 73.3790  21
  -5  -6  -4 1461.67 74.5016  21
  -5  -6  -4 1649.40 193.927  12
  -5  -6  -4 1458.92 75.3390  20
   5   6   4 1546.13 159.160  11
   5   6   4 1526.91 186.266   6
  -5  -6  -4 1415.69 72.4645  19
  -5  -6  -4 1394.96 74.3328  19
  -5  -6  -4 1508.59 122.648  10
  -5  -6  -4 1421.16 71.1631  17
  -5  -6  -4 1424.23 73.3141  17
  -5  -6  -4 1700.59 161.859   9
  -5  -6  -4 1468.94 73.4688  16
   5   6   4 1562.31 174.271  15
   5   6   4 1308.24 143.421   7
  -5  -6  -5 7481.61 378.511  13
  -5  -6  -5 6950.36 407.710  12
   5   6   5 8533.11 456.526   6
   5   6   5 7613.96 236.587  20
   5   6   5 7825.40 392.435  11
  -5  -6  -5 7781.38 244.414  21
  -5  -6  -5 8298.43 334.240  10
  -5  -6  -5 7150.12 234.962  17
  -5  -6  -5 7946.07 244.370  17
  -5  -6  -5 7951.44 393.103   9
  -5  -6  -5 7322.28 235.311  16
  -5  -6  -5 7875.99 242.018  16
   5   6   5 7642.20 401.095   4
   5   6   5 7250.07 385.590  15
   5   6   5 7885.86 345.916   7
  -5  -6  -6 4229.22 272.686  13
  -5  -6  -6 3510.90 287.953  12
   5   6   6 3362.46 291.911   6
   5   6   6 4101.43 178.110  20
   5   6   6 3982.54 290.837  11
   5   6   6 3874.02 175.738  19
  -5  -6  -6 4215.92 244.184  10
  -5  -6  -6 4370.86 188.031  17
  -5  -6  -6 4082.45 291.344   9
  -5  -6  -6 4193.04 183.625  16
   5   6   6 3589.76 273.382   4
   5   6   6 4039.66 274.207  15
   5   6   7 5431.03 378.742   6
  -5  -6  -7 5206.68 352.391  12
   5   6   7 5774.95 244.985  20
   5   6   7 5592.53 361.903  11
   5   6   7 5819.27 247.035  19
  -5  -6  -7 5605.83 306.875  10
  -5  -6  -7 5281.16 244.769  17
  -5  -6  -7 5206.74 351.452   9
  -5  -6  -7 5809.23 252.021  16
   5   6   7 5369.09 345.366   4
  -5  -6  -8 2068.28 225.841  12
   5   6   8 2068.76 155.073  20
   5   6   8 2221.26 237.529  11
   5   6   8 1902.91 232.593   6
   5   6   8 2268.58 164.346  19
  -5  -6  -8 1760.80 180.643  10
   5   6   8 1954.32 232.008  18
  -5  -6  -8 2235.27 235.245   9
  -5  -6  -8 2112.22 161.526  16
   5   6   8 1995.11 211.921   8
   5   6   8 2015.02 213.557   4
   5   6   9 801.466 148.514   4
   5   6   9 613.631 145.821   6
   5   6   9 697.263 147.762  11
   5   6   9 580.312 137.784  18
  -5  -6  -9 894.918 142.773  10
  -5  -6  -9 934.512 166.262   9
   5   6   9 734.952 138.341   8
  -5  -6  -9 792.387 113.547  16
   5   6  10 2783.78 290.051  11
   5   6  10 2177.22 257.571   6
  -5  -6 -10 2223.38 231.083  10
   5   6  10 2693.68 288.590  18
  -5  -6 -10 2324.77 268.111   9
   5   6  10 2150.49 230.990   8
   5   6  10 2345.17 251.607   4
   5   6  11 5290.67 422.936   6
   5   6  11 5235.15 422.597  11
  -5  -6 -11 5054.44 372.382  10
   5   6  11 5234.40 414.247  18
  -5  -6 -11 4570.45 392.194   9
   5   6  11 5189.02 382.633   8
   5   6  11 4888.30 379.002   4
   5   6  12 2152.45 264.578   4
   5   6  12 2598.96 307.240   6
  -5  -6 -12 2355.56 286.279   2
   5   6  12 2915.54 316.115  18
  -5  -6 -12 2165.85 258.636  10
  -5  -6 -12 2790.64 317.247   9
   5   6  12 2656.40 286.691   8
   5   6  12 3148.73 339.441  11
   5   6  13-70.6022 79.8509   4
   5   6  13 97.3051 86.7609   6
  -5  -6 -13-1.36399 70.4205   2
   5   6  13 16.4092 83.9889  18
  -5  -6 -13 21.5832 70.6765  10
   5   6  13 71.2520 80.3743   8
   5   6  14 290.616 129.472   4
  -5  -6 -14 159.802 109.524   2
   5   6  14-82.7744 89.0865  18
  -5  -6 -14 140.420 80.6589  10
  -5  -7   9 1827.03 262.340  21
  -5  -7   9 1844.32 274.158  20
  -5  -7   9 1434.04 236.563  19
  -5  -7   9 1988.44 277.338  17
   5   7  -8 1173.68 211.282  15
  -5  -7   8 1266.95 207.888  21
  -5  -7   8 1416.67 222.544  20
  -5  -7   8 1758.78 249.507  19
  -5  -7   8 1065.86 190.521  17
   5   7  -7 970.427 202.246  15
   5   7  -7 988.231 206.133  14
   5   7  -7 1160.23 224.293   7
  -5  -7   7 1252.24 199.103  21
  -5  -7   7 1182.62 194.530  20
  -5  -7   7 1071.74 183.542  19
  -5  -7   7 1116.68 189.981  17
  -5  -7   7 1639.06 261.091   5
   5   7  -6 318.339 123.631  15
   5   7  -6 272.086 117.287  14
  -5  -7   6 265.651 87.8588  21
  -5  -7   6 474.362 116.134  20
  -5  -7   6 412.419 116.365  19
  -5  -7   6 138.050 86.7751  17
  -5  -7   6 404.222 157.666   5
   5   7  -5 859.526 174.011  15
   5   7  -5 1145.36 215.283  14
   5   7  -5 902.946 184.120   7
  -5  -7   5 882.848 145.515  21
  -5  -7   5 1121.05 162.294  20
  -5  -7   5 977.822 159.052  19
  -5  -7   5 992.717 159.112  17
  -5  -7   5 954.385 190.210   5
   5   7  -4 147.668 108.014  15
   5   7  -4 78.2325 66.8279  14
   5   7  -4 79.7897 80.4687   7
  -5  -7   4 135.385 77.6742  21
  -5  -7   4 213.225 86.4948  20
  -5  -7   4 46.7682 49.2915  19
  -5  -7   4 66.4727 57.1699  17
  -5  -7   4-1.36952 92.1480   5
   5   7  -3 5329.50 402.376   7
   5   7  -3 5474.85 406.379  14
  -5  -7   3 4581.54 391.066  13
  -5  -7   3 5608.00 313.405  21
  -5  -7   3 5323.26 312.904  20
  -5  -7   3 5194.53 304.061  19
  -5  -7   3 5070.00 381.483   5
  -5  -7   3 5305.26 303.725  17
   5   7  -3 5095.69 397.085  15
   5   7  -2 4687.74 362.412   7
   5   7  -2 5214.98 381.740  14
  -5  -7   2 4648.72 367.699  13
  -5  -7   2 4666.11 286.061   2
  -5  -7   2 4509.94 255.749  21
  -5  -7   2 4310.79 342.946  12
  -5  -7   2 4531.02 262.727  20
  -5  -7   2 4632.21 262.074  19
  -5  -7   2 4722.81 354.119   5
  -5  -7   2 4836.39 263.986  17
   5   7  -2 4723.22 371.425  15
   5   7  -1 2022.32 242.439  15
   5   7  -1 2070.66 232.431   7
   5   7  -1 1927.22 233.609  14
  -5  -7   1 2034.88 192.276   2
  -5  -7   1 1955.55 142.904  21
  -5  -7   1 1883.83 228.547  13
  -5  -7   1 2055.27 232.944  12
  -5  -7   1 1825.08 143.143  20
  -5  -7   1 2042.14 142.340   3
  -5  -7   1 1788.67 140.781  19
  -5  -7   1 2066.57 226.854   5
  -5  -7   1 2205.13 152.732  17
   5   7   0 106.044 101.091  15
   5   7   0 14.7773 84.4747  14
   5   7   0 35.8060 75.1876   7
  -5  -7   0 42.0281 83.5167  13
  -5  -7   0-22.7754 30.5736  21
  -5  -7   0 111.709 82.1834  12
  -5  -7   0 93.1603 36.5857  20
  -5  -7   0 14.1989 28.9887  19
  -5  -7   0 1.58423 24.8711  17
  -5  -7   0 17.1072 47.6454   3
  -5  -7   0 194.090 103.084   5
   5   7   1 3181.73 266.960   7
   5   7   1 2976.70 266.208  14
  -5  -7  -1 2280.76 234.170  13
  -5  -7  -1 2825.21 267.304  12
  -5  -7  -1 2741.30 202.635   3
  -5  -7  -1 2681.17 240.582   5
  -5  -7  -1 2871.22 159.311   9
   5   7   1 2381.51 247.315  15
   5   7   2 723.931 133.119   7
   5   7   2 918.825 147.646  14
  -5  -7  -2 906.335 148.518  13
  -5  -7  -2 826.341 153.548  12
   5   7   2 953.414 161.821   6
  -5  -7  -2 943.283 130.516   3
  -5  -7  -2 894.625 103.368   9
  -5  -7  -2 1087.18 154.748   5
   5   7   2 1036.74 160.778  15
   5   7   3 52080.9 1468.68  14
  -5  -7  -3 50903.4 1448.76  13
  -5  -7  -3 50666.6 1490.07  12
   5   7   3 50653.2 1502.63   6
   5   7   3 53647.2 1343.11  11
  -5  -7  -3 53064.3 1169.55  10
  -5  -7  -3 52598.9 1432.11   5
  -5  -7  -3 54000.8 1334.19   9
   5   7   3 51532.6 1492.01  15
   5   7   3 52393.7 1433.87   7
   5   7   4 12339.8 559.498  14
  -5  -7  -4 11806.6 543.298  13
  -5  -7  -4 12773.0 588.622  12
   5   7   4 12123.2 589.725   6
   5   7   4 13353.7 519.936  11
  -5  -7  -4 13324.0 388.962  10
  -5  -7  -4 13151.5 512.044   9
   5   7   4 11805.1 525.854   4
   5   7   4 12184.5 569.763  15
   5   7   4 13379.4 538.803   7
   5   7   5 123.160 69.3265   4
  -5  -7  -5 137.370 67.4393  13
  -5  -7  -5 60.8188 62.7657  12
   5   7   5 160.253 71.3446  11
  -5  -7  -5 241.652 50.5134  10
  -5  -7  -5 151.447 69.2769   9
   5   7   5 255.836 90.1623   6
   5   7   5 55.5817 64.3146  15
  -5  -7  -6 7589.81 410.126  13
  -5  -7  -6 6751.69 419.954  12
   5   7   6 7972.26 468.382   6
   5   7   6 7206.95 409.987  11
  -5  -7  -6 7624.12 318.491  10
   5   7   6 7563.19 465.672  18
  -5  -7  -6 7374.64 406.551   9
   5   7   6 7131.64 396.388   4
   5   7   6 6807.18 399.153  15
  -5  -7  -7 2585.12 256.286  12
   5   7   7 2879.59 277.809   6
   5   7   7 2651.47 254.668  11
  -5  -7  -7 2929.00 205.013  10
   5   7   7 3015.88 293.971  18
  -5  -7  -7 2817.91 259.276   9
   5   7   7 2386.34 227.945   4
   5   7   8 1227.58 169.852   4
  -5  -7  -8 1365.76 185.563  12
   5   7   8 1051.14 180.664   6
   5   7   8 975.894 170.192  11
  -5  -7  -8 1433.44 158.345  10
   5   7   8 1112.79 187.931  18
  -5  -7  -8 1182.64 177.683   9
  -5  -7  -9 2658.85 296.414   2
  -5  -7  -9 2287.16 249.776  12
   5   7   9 2629.13 285.290   6
   5   7   9 2816.44 289.260  11
  -5  -7  -9 2576.00 227.792  10
   5   7   9 2429.91 283.554  18
  -5  -7  -9 2472.41 261.126   9
   5   7   9 2668.51 274.950   8
   5   7   9 2682.18 252.895   4
   5   7  10 786.039 146.023   4
   5   7  10 719.457 165.607   6
   5   7  10 827.895 172.361  11
  -5  -7 -10 913.182 178.994   2
   5   7  10 800.318 180.341  18
  -5  -7 -10 943.892 149.566  10
  -5  -7 -10 831.564 175.686   9
   5   7  10 738.018 154.835   8
   5   7  11 1893.70 224.378   4
   5   7  11 2059.06 269.597   6
  -5  -7 -11 2185.03 286.055   2
   5   7  11 2192.92 279.841  18
  -5  -7 -11 1876.14 221.574  10
  -5  -7 -11 2246.14 282.116   9
   5   7  11 2047.06 258.468   8
   5   7  12-49.0521 67.1550   4
   5   7  12 39.5816 81.3452   6
  -5  -7 -12-262.389 125.457   2
   5   7  12 134.639 115.063  18
  -5  -7 -12 32.0427 68.5248  10
  -5  -7 -12-12.7698 79.4324   9
   5   7  12-278.254 124.266   8
   5   7  13 1488.98 249.568   6
   5   7  13 1656.97 250.520   8
   5   8  -7 53.8277 94.3091  15
   5   8  -6 228.815 107.230  15
   5   8  -6 236.255 114.246   7
   5   8  -6 429.869 138.635  14
  -5  -8   6 462.808 142.221   5
   5   8  -5 199.025 118.230  15
   5   8  -5 225.264 103.004   7
   5   8  -5 71.9395 111.795  14
  -5  -8   5 38.7230 80.1321   5
   5   8  -4-26.4550 108.370  15
   5   8  -4-50.7181 94.5917   7
   5   8  -4-31.4357 101.261  14
  -5  -8   4 171.102 93.0287  13
  -5  -8   4 18.6151 82.2684   5
   5   8  -3 59.0174 104.716  15
   5   8  -3-29.7014 109.388   7
   5   8  -3 0.25261 63.7014  14
  -5  -8   3 48.7781 91.7789  13
  -5  -8   3 66.6137 98.1034   5
   5   8  -2 2429.92 274.817   7
   5   8  -2 2788.97 300.255  14
  -5  -8   2 2800.24 305.397  13
  -5  -8   2 2421.25 213.990   2
  -5  -8   2 2862.59 284.237   5
   5   8  -2 2774.59 304.251  15
   5   8  -1 256.506 111.110   7
   5   8  -1 209.205 103.477  14
  -5  -8   1 405.700 126.247  13
  -5  -8   1 77.0500 81.5904  12
  -5  -8   1 298.344 95.0174   2
  -5  -8   1 414.398 116.249   5
   5   8  -1 489.460 136.144  15
   5   8   0 1042.22 176.449   7
   5   8   0 1163.56 186.540  14
  -5  -8   0 1053.05 187.009  13
  -5  -8   0 1217.73 186.005  12
  -5  -8   0 1062.16 162.546   2
  -5  -8   0 1239.89 136.878   3
  -5  -8   0 1074.77 167.021   5
   5   8   0 821.847 171.079  15
   5   8   1 0.39482 65.6709   7
   5   8   1-23.2839 63.9132  14
  -5  -8  -1 77.5567 68.0329  13
  -5  -8  -1 6.49647 77.8209  12
  -5  -8  -1-57.3492 53.7517   2
  -5  -8  -1-21.4496 48.4102   3
  -5  -8  -1-15.1376 56.5171   5
   5   8   1 42.4734 78.8765  15
   5   8   2 575.332 129.841   7
   5   8   2 364.316 118.723  14
  -5  -8  -2 261.198 103.616  13
  -5  -8  -2 726.794 152.911  12
  -5  -8  -2 459.474 117.081   2
  -5  -8  -2 671.673 118.741   3
  -5  -8  -2 562.400 83.1584   9
  -5  -8  -2 531.915 115.740   5
   5   8   2 400.063 122.015  15
   5   8   3 791.673 147.952   7
   5   8   3 886.612 159.649  14
  -5  -8  -3 588.126 126.201  13
  -5  -8  -3 819.992 157.154  12
  -5  -8  -3 764.087 142.113   2
  -5  -8  -3 874.390 137.928   3
  -5  -8  -3 1126.09 128.066   9
  -5  -8  -3 721.325 126.237   5
   5   8   3 738.815 160.789  15
   5   8   4 2446.93 256.215  14
  -5  -8  -4 2283.14 239.478  13
  -5  -8  -4 2238.81 243.906  12
   5   8   4 2295.73 253.893   6
  -5  -8  -4 2349.13 233.375   3
  -5  -8  -4 1831.00 230.801   2
  -5  -8  -4 2526.05 224.885   5
  -5  -8  -4 2418.03 204.443   9
   5   8   4 1927.55 228.764  15
  -5  -8  -5 337.929 108.091  13
  -5  -8  -5 559.725 136.170  12
   5   8   5 419.354 126.684   6
  -5  -8  -5 447.289 130.186   2
  -5  -8  -5 261.501 96.0906   3
  -5  -8  -5 351.716 100.387   9
   5   8   5 406.050 115.767  15
   5   8   6 661.913 125.351   4
  -5  -8  -6 746.611 146.871  13
   5   8   6 764.575 155.182   6
  -5  -8  -6 470.502 142.523   2
  -5  -8  -6 670.270 140.786  12
   5   8   6 761.450 166.347  18
  -5  -8  -6 610.880 121.130   9
   5   8   7 598.482 114.252   4
  -5  -8  -7 523.429 125.234  13
  -5  -8  -7 702.418 143.066  12
   5   8   7 605.131 148.679   6
  -5  -8  -7 480.309 139.727   2
   5   8   7 595.336 144.121  18
  -5  -8  -7 465.679 123.036   9
   5   8   8 136.824 74.7210   4
  -5  -8  -8-54.9582 91.7165  12
   5   8   8 20.2089 75.2124   6
  -5  -8  -8 134.553 103.261   2
   5   8   8-8.34122 80.1254  18
  -5  -8  -8-12.5109 73.9059   9
   5   8   9 1206.50 165.548   4
  -5  -8  -9 1136.75 177.546  12
   5   8   9 1135.00 201.294   6
  -5  -8  -9 1025.57 201.024   2
   5   8   9 1011.33 201.412  18
  -5  -8  -9 1085.74 183.911   9
   5   8  10 866.998 189.308   6
  -5  -8 -10 1142.78 216.239   2
   5   8  10 931.461 198.576  18
  -5  -8 -10 1094.18 203.482   9
  -5  -8 -10 772.457 148.020  12
   5   8  10 889.635 189.360   8
   5   8  11 12.3331 84.6632   6
  -5  -8 -11 125.103 105.884   2
   5   8  11 107.200 96.8877  18
  -5  -8 -11 255.214 155.280   9
   5   8  11 159.849 103.198   8
   5   8  12-362.644 134.437   6
   5   8  12 9.27025 63.1291   8
  -5  -9   5 355.403 124.752   5
   5   9  -5 329.459 143.905  15
   5   9  -4 2578.12 322.418   7
   5   9  -4 2307.34 314.152  14
  -5  -9   4 3027.15 360.256  13
  -5  -9   4 2856.71 324.845   5
   5   9  -4 2406.72 310.337  15
   5   9  -3-45.1188 88.1827   7
   5   9  -3 143.628 106.350  14
  -5  -9   3 1.45676 101.028  13
  -5  -9   3 165.978 97.3505   5
   5   9  -3-59.5547 103.829  15
   5   9  -2 221.411 117.566   7
   5   9  -2 324.117 136.665  14
  -5  -9   2 156.020 103.092  13
  -5  -9   2 346.799 119.360   5
   5   9  -2 302.524 135.547  15
   5   9  -1 296.408 125.949   7
   5   9  -1 387.185 127.531  14
  -5  -9   1 372.277 123.371  13
  -5  -9   1 395.220 102.761   2
  -5  -9   1 131.467 76.3310   5
   5   9  -1 295.652 121.908  15
   5   9   0 633.067 158.988   7
   5   9   0 508.967 149.829  14
  -5  -9   0 646.057 144.873  13
  -5  -9   0 592.915 148.957  12
  -5  -9   0 473.972 110.206   2
  -5  -9   0 534.516 124.427   5
   5   9   0 655.223 163.732  15
   5   9   1 1700.03 243.445  14
  -5  -9  -1 1537.35 230.024  13
  -5  -9  -1 1972.61 251.205  12
  -5  -9  -1 2006.08 200.526   3
  -5  -9  -1 1761.05 222.215   2
  -5  -9  -1 1778.34 214.261   5
   5   9   1 2218.78 265.809   7
   5   9   1 1899.15 256.318  15
   5   9   2 231.823 101.249   7
   5   9   2 313.948 137.574  14
  -5  -9  -2 218.047 104.662  13
  -5  -9  -2 112.222 89.9276  12
  -5  -9  -2 247.919 102.355   2
  -5  -9  -2 219.261 84.5851   3
  -5  -9  -2-43.2646 77.9767   5
   5   9   2 138.742 81.5495  15
   5   9   3 111.784 87.5060  14
  -5  -9  -3 302.843 104.082  13
  -5  -9  -3 220.949 84.9182  12
  -5  -9  -3 251.064 98.1817   2
  -5  -9  -3 426.785 116.493   3
  -5  -9  -3 220.873 84.3574   5
   5   9   3 337.875 137.979  15
  -5  -9  -4 3260.40 311.232  13
  -5  -9  -4 2480.20 273.707  12
  -5  -9  -4 2861.48 296.985   2
  -5  -9  -4 2481.65 257.206   3
  -5  -9  -4 2619.51 233.057   5
  -5  -9  -4 2685.65 222.713   9
  -5  -9  -5 40.6658 63.1098  13
  -5  -9  -5-12.4078 90.8197  12
   5   9   5 94.8832 80.6313   6
  -5  -9  -5 101.628 71.6052   2
  -5  -9  -5 60.3486 55.6899   3
  -5  -9  -5 128.372 58.4462   9
  -5  -9  -5 199.184 77.8275   5
  -5  -9  -6 59.0025 68.5023  13
  -5  -9  -6 83.5781 75.3552  12
   5   9   6 30.1818 80.1528   6
  -5  -9  -6 2.08630 71.1363   2
   5   9   6 95.5010 81.4693  18
  -5  -9  -6-18.0026 78.1672   3
  -5  -9  -6 79.7278 70.0214   9
  -5  -9  -7 493.645 129.236  13
  -5  -9  -7 718.923 155.890  12
   5   9   7 371.839 123.307   6
  -5  -9  -7 543.523 167.627   2
   5   9   7 532.380 151.741  18
  -5  -9  -7 598.976 159.241   3
  -5  -9  -7 353.958 110.714   9
  -5  -9  -8 140.640 92.5950  12
   5   9   8 119.750 90.3348   6
  -5  -9  -8 236.946 99.4644   2
   5   9   8 92.5206 84.3039  18
  -5  -9  -8 169.425 116.274   3
  -5  -9  -8 11.8419 66.9279   9
  -5  -9  -9 82.5231 77.1176  12
   5   9   9 136.470 99.8235   6
   5   9   9 357.225 146.602  18
  -5  -9  -9 271.305 132.975   2
  -5  -9  -9 182.934 108.817   3
  -5  -9  -9 47.8562 77.3189   9
   5   9  10 1199.11 223.656   6
  -5  -9 -10 1424.32 233.689   9
   5   9  11 402.951 136.496   6
  -5 -10   3-41.0631 114.665   5
  -5 -10   2 1353.28 215.129   5
   5  10  -1 289.082 126.573   7
   5  10  -1 610.086 165.478  14
  -5 -10   1 826.577 195.500  13
  -5 -10   1 621.631 146.033   5
   5  10  -1 786.171 190.690  15
   5  10   0 896.939 191.634   7
   5  10   0 446.175 152.419  14
  -5 -10   0 834.546 195.703  13
  -5 -10   0 896.684 195.757  12
  -5 -10   0 696.319 148.171   2
  -5 -10   0 840.717 160.576   5
   5  10   0 838.552 187.025  15
   5  10   1 4166.00 398.686  14
  -5 -10  -1 3828.59 379.138  13
  -5 -10  -1 3606.90 367.783  12
  -5 -10  -1 3680.75 337.644   2
  -5 -10  -1 4048.44 325.990   5
   5  10   1 4073.14 395.346  15
   5  10   1 3859.75 377.819   7
   5  10   2 155.944 106.840  14
  -5 -10  -2 55.0698 89.6397  13
  -5 -10  -2 116.972 103.682  12
  -5 -10  -2 96.9510 74.2077   2
   5  10   3 645.051 159.653  14
  -5 -10  -3 586.271 156.203  13
  -5 -10  -3 659.892 148.591  12
  -5 -10  -3 854.612 179.214   2
  -5 -10  -3 806.005 153.877   3
  -5 -10  -4 1675.10 249.136  13
  -5 -10  -4 1687.38 243.242  12
  -5 -10  -4 1597.00 237.958   2
  -5 -10  -4 1515.14 214.311   3
  -5 -10  -5 553.538 143.964  13
  -5 -10  -5 484.444 144.779  12
  -5 -10  -5 404.464 149.808   2
  -5 -10  -5 332.166 117.275   3
  -5 -10  -6 459.435 139.673  13
  -5 -10  -6 478.243 145.249  12
   5  10   6 123.641 85.6331  18
  -5 -10  -6 447.243 144.791   2
  -5 -10  -6 643.998 159.620   3
  -5 -10  -7 2375.05 294.613  13
  -5 -10  -7 2249.56 276.797  12
  -5 -10  -7 3201.84 360.398   2
   5  10   7 2354.18 289.319   6
  -5 -10  -7 2906.99 332.021   3
   5  10   7 2340.52 309.338  18
  -5 -10  -7 2548.67 273.570   9
  -5 -10  -8 1342.79 224.080  13
  -5 -10  -8 888.064 175.715  12
   5  10   8 1224.90 217.890   6
  -5 -10  -8 1459.34 242.356   3
  -5 -10  -8 1072.03 188.631   9
   5  10   9 47.5185 60.9249   6
  -5 -10  -9 111.496 91.6657   9
   5  10  10 5013.35 437.025   6
  -5 -11  -1 1311.97 216.153   2
  -5 -11  -2 6016.42 476.022   2
  -5 -11  -3 155.595 106.208   2
  -5 -11  -4 229.408 138.202   2
  -5 -11  -4-93.5252 89.9435   3
  -5 -11  -5 115.701 86.0608  12
  -5 -11  -5 236.423 112.096   3
  -5 -11  -6 701.151 174.349  12
  -5 -11  -6 1507.83 233.346   3
  -5 -11  -7 11533.5 674.531  12
  -6   5   2-54.4891 101.909  10
  -6   5   2 27.3584 110.398  18
  -6   5   1 2376.32 291.945  10
  -6   5   1 2407.83 310.311  18
  -6   5   0 337.210 127.218  10
  -6   5   0 326.482 135.274  18
  -6   5  -1-31.5569 75.9431  10
  -6   5  -2 27.3127 84.5826  10
  -6   5  -3 136.801 95.5329  10
  -6   5  -4-12.4155 98.2917  10
   6  -4  -5 112.205 95.3539   3
  -6   4   5 558.185 180.165   1
  -6   4   4 321.442 131.910  21
  -6   4   4 150.980 107.254  19
  -6   4   4-116.165 144.086  18
  -6   4   4 94.7882 98.8525  17
  -6   4   4 341.597 133.840  16
  -6   4   4-8.29435 112.037   1
   6  -4  -4 182.543 110.506   3
  -6   4   3 2565.89 314.765  21
  -6   4   3 2430.59 317.388  18
  -6   4   3 2244.05 294.434  17
  -6   4   3 2222.86 295.856  16
  -6   4   3 2667.59 339.181   1
   6  -4  -3 2786.47 326.665   3
   6  -4  -2-33.8559 107.772   3
  -6   4   2-118.618 113.083  21
  -6   4   2-114.501 101.589  10
  -6   4   2 39.6862 105.233  18
  -6   4   2-97.0657 89.1899  17
  -6   4   2-346.165 146.023   1
  -6   4   2 101.618 108.228  16
   6  -4  -1-110.024 142.467   3
  -6   4   1 67.5906 109.134  21
  -6   4   1-52.9890 107.756  10
  -6   4   1-59.6259 81.3912  18
  -6   4   1 29.7842 102.538  17
  -6   4   1 132.388 129.297   1
  -6   4   1-5.45027 108.819  16
   6  -4   0 376.591 164.512   3
  -6   4   0 9.54595 87.5909  21
   6  -4   0 369.845 131.333  20
  -6   4   0 200.582 103.946  10
  -6   4   0 335.454 121.210  18
  -6   4   0 211.710 101.836  17
  -6   4   0 504.678 179.245   1
  -6   4   0 140.807 88.6063  16
   6  -4   1 991.146 193.223   3
  -6   4  -1 951.697 201.653  21
   6  -4   1 1151.67 207.417  20
  -6   4  -1 1084.19 195.714  10
  -6   4  -1 765.481 165.307  18
  -6   4  -1 1010.05 208.704  17
  -6   4  -1 1071.43 228.275   1
  -6   4  -1 773.527 179.650  16
   6  -4   2 37.4875 95.2979   3
   6  -4   2 277.217 108.902  20
  -6   4  -2 46.4882 90.9751  10
  -6   4  -2 24.9194 61.0732  18
  -6   4  -2 123.426 103.254  17
  -6   4  -2-23.9494 107.743   1
  -6   4  -2 164.226 123.117  16
   6  -4   3 1999.05 290.014   3
  -6   4  -3 2950.17 341.750  21
   6  -4   3 2356.79 292.487  20
   6  -4   3 2200.08 279.858  11
  -6   4  -3 2009.88 265.919  10
  -6   4  -3 2729.42 327.466  17
  -6   4  -3 2804.49 350.943   1
  -6   4  -3 2651.15 312.264  16
   6  -4   4-47.9971 105.481   3
   6  -4   4-57.2378 73.5122  11
  -6   4  -4 204.644 113.713  10
  -6   4  -4 65.3580 84.1490  17
   6  -4   4 126.664 88.9916  20
  -6   4  -4 11.8352 96.3788   1
  -6   4  -4 214.248 126.223  16
   6  -4   5 560.668 160.381  20
   6  -4   5 870.292 182.444  11
  -6   4  -5 519.999 154.209  10
  -6   4  -5 453.918 161.010  17
  -6   4  -5 646.723 195.424  16
  -6   4  -5 478.540 164.958   1
   6  -4   6 2454.03 301.874  11
  -6   4  -6 2438.01 302.645  10
  -6   4  -6 2248.03 309.422   1
  -6   4  -7 2149.82 303.115   1
  -6   3   7-54.6641 120.218   1
  -6   3   7 50.2403 91.1514   8
   6  -3  -7 202.413 130.475   3
  -6   3   6 431.556 146.005  21
  -6   3   6 62.9596 130.578  19
  -6   3   6 188.876 122.871  17
  -6   3   6 234.732 116.166  16
  -6   3   6 32.4891 115.409   1
  -6   3   6 134.829 102.624   8
   6  -3  -6 158.837 116.331   3
  -6   3   5 117.388 107.608  21
  -6   3   5-37.8100 107.774  19
  -6   3   5 201.072 144.332  18
  -6   3   5 347.468 152.126  17
  -6   3   5 35.2368 97.1021   1
  -6   3   5-150.922 164.428  16
  -6   3   5 86.7199 82.0378   8
   6  -3  -5 105.523 82.2049   3
  -6   3   4 799.508 185.222  21
  -6   3   4 1020.78 204.601  19
  -6   3   4 729.488 190.204  18
  -6   3   4 772.703 180.546  17
  -6   3   4 996.814 203.934   1
  -6   3   4 740.769 177.741  16
  -6   3   4 863.903 164.831   8
   6  -3  -4 611.021 163.570   3
  -6   3   3 2474.97 299.775  21
  -6   3   3 2528.86 294.889  10
  -6   3   3 2572.31 319.571  18
  -6   3   3 2326.25 295.718  17
  -6   3   3 2854.95 320.235  16
  -6   3   3 2642.71 319.139   1
   6  -3  -3 2527.12 294.965   3
   6  -3  -2 1270.43 216.183   3
  -6   3   2 1329.60 224.255  21
  -6   3   2 1017.14 180.862  10
  -6   3   2 1072.51 220.489  18
  -6   3   2 1285.89 232.654   1
  -6   3   2 1130.38 201.180  17
  -6   3   2 1212.70 205.463  16
   6  -3  -1 122.954 121.972   3
  -6   3   1 80.0990 94.3802  21
  -6   3   1 6.57816 76.6714  10
  -6   3   1 55.5841 108.427  18
  -6   3   1-30.4143 100.031   1
  -6   3   1-3.54076 80.5346  17
  -6   3   1-129.981 102.191  16
   6  -3   0 849.722 183.889   3
  -6   3   0 1154.14 207.924  21
   6  -3   0 619.180 156.626  20
  -6   3   0 1184.42 199.247  10
  -6   3   0 613.179 166.294  18
  -6   3   0 731.661 167.581  17
  -6   3   0 849.558 189.099  16
   6  -3   1 191.221 128.712   3
  -6   3  -1 72.1552 91.6896  21
   6  -3   1 245.444 109.971  20
  -6   3  -1 83.7151 89.7777  10
  -6   3  -1 298.104 108.210  18
  -6   3  -1 96.6329 92.3812  17
  -6   3  -1 506.401 150.446  16
   6  -3   2 227.115 131.230   3
  -6   3  -2 357.682 131.923  21
   6  -3   2 208.934 114.451  20
  -6   3  -2 40.0122 69.7738  10
  -6   3  -2 455.106 148.545  17
  -6   3  -2 324.637 120.099  16
   6  -3   3 1423.49 224.123   3
   6  -3   3 1332.80 167.314   4
   6  -3   3 937.733 174.678  20
   6  -3   3 1207.76 195.182  11
  -6   3  -3 1271.80 202.454  10
  -6   3  -3 1547.59 242.628   1
  -6   3  -3 1083.57 200.629  17
  -6   3  -3 1145.95 209.682  16
   6  -3   4 214.633 122.487   3
   6  -3   4 99.3466 70.0958   4
   6  -3   4 130.297 94.7631  11
   6  -3   4 124.983 95.8930  20
   6  -3   4 74.6746 61.3145   6
  -6   3  -4 101.485 71.6933  10
  -6   3  -4 152.928 116.469   1
  -6   3  -4 145.051 93.2041  17
  -6   3  -4 156.959 108.386  16
   6  -3   5 35.3777 88.3204   3
   6  -3   5 9.77558 48.6271   4
   6  -3   5 74.3942 89.0695  20
   6  -3   5-38.5723 87.4299  11
   6  -3   5 66.8638 64.3607  19
   6  -3   5 31.5355 67.9570   6
  -6   3  -5 57.9570 65.6171  10
  -6   3  -5 112.024 105.406   1
  -6   3  -5 7.39674 71.9400  17
  -6   3  -5-21.7893 95.4408  16
   6  -3   6 32.6468 60.3895   4
   6  -3   6 77.4191 114.108  20
   6  -3   6 48.6283 84.6572  11
   6  -3   6 194.622 102.430  19
   6  -3   6 121.809 80.5819   6
  -6   3  -6 78.4369 87.1793  10
  -6   3  -6 131.148 110.893  17
  -6   3  -6-73.6475 114.779   1
  -6   3  -6-20.0361 86.1505  16
   6  -3   7 900.332 175.949   4
   6  -3   7 1085.72 212.169  20
   6  -3   7 890.460 176.976  11
   6  -3   7 463.919 142.291  19
   6  -3   7 632.246 157.814   6
  -6   3  -7 675.684 162.094  10
  -6   3  -7 1224.14 218.886   9
  -6   3  -7 1282.70 238.382  17
  -6   3  -7 765.246 177.540   1
  -6   3  -7 1008.63 209.198  16
   6  -3   8 509.754 150.295   4
   6  -3   8 392.244 140.826  11
   6  -3   8 312.079 124.606   6
  -6   3  -8 88.0282 94.5608  10
  -6   3  -8 226.229 105.128   9
  -6   3  -8 206.013 110.060   1
   6  -3   9 1040.74 202.144   4
  -6   2   8 156.492 114.983   8
  -6   2   7-42.8129 107.617  21
  -6   2   7 35.4184 92.0701  19
  -6   2   7-58.7281 108.818  17
  -6   2   7 177.035 110.955   1
  -6   2   7 221.273 132.408  16
  -6   2   7 84.4769 87.1760   8
   6  -2  -6 6.17698 117.501   7
  -6   2   6 181.663 126.239  21
  -6   2   6 340.592 147.355  19
  -6   2   6-177.171 172.568  18
  -6   2   6-43.8322 122.485  17
  -6   2   6 52.7270 91.3817   1
  -6   2   6 200.533 133.925  16
  -6   2   6 177.785 91.3750   8
   6  -2  -6 163.142 109.927   3
  -6   2   5 157.518 106.921  21
  -6   2   5 61.6204 121.801  19
  -6   2   5-19.7220 97.6106  18
  -6   2   5 111.241 96.9245  17
  -6   2   5 6.63026 98.2846  16
  -6   2   5 201.005 101.300   8
   6  -2  -5 134.640 105.840   3
  -6   2   4-66.5007 73.4432  21
  -6   2   4 113.012 76.4604  19
  -6   2   4 159.855 100.586  18
  -6   2   4 174.612 81.4606  17
  -6   2   4 40.9417 83.5697  16
  -6   2   4 229.704 98.1212   8
   6  -2  -4 117.711 91.6325   3
   6  -2  -3 1773.14 235.408   3
  -6   2   3 1816.97 247.412  21
  -6   2   3 1800.39 243.410  10
  -6   2   3 1851.43 252.190  17
  -6   2   3 1997.53 213.044   8
  -6   2   3 1988.07 257.032  16
   6  -2  -2 4.43923 80.7689   3
  -6   2   2-36.0326 93.7965  21
  -6   2   2 36.3730 75.3230  10
  -6   2   2 36.3752 75.1270  17
  -6   2   2 79.4950 108.116  16
  -6   2   2 122.446 70.8026   8
   6  -2  -1 923.223 183.620   3
  -6   2   1 854.202 178.126  21
  -6   2   1 814.602 165.638  10
  -6   2   1 377.162 122.652  17
  -6   2   1 645.068 144.235  16
  -6   2   1 661.889 109.205   8
   6  -2   0 1106.97 190.474   3
   6  -2   0 1290.90 155.286   4
  -6   2   0 1350.58 207.706  21
   6  -2   0 1240.75 187.334  20
  -6   2   0 918.654 169.269  10
  -6   2   0 941.540 186.185  17
  -6   2   0 1266.97 208.641  16
   6  -2   1 337.755 124.263   3
   6  -2   1 281.902 87.5198   4
  -6   2  -1 147.010 98.2848  21
   6  -2   1 294.844 120.479  20
  -6   2  -1 226.024 89.6421  10
  -6   2  -1 189.858 110.964  17
  -6   2  -1 203.290 120.626  16
   6  -2   2 165.933 96.9642   3
   6  -2   2 158.624 74.6615   4
  -6   2  -2 249.096 101.242  21
   6  -2   2 228.039 118.123  20
   6  -2   2 204.668 69.4674   6
  -6   2  -2 139.493 95.3078  10
  -6   2  -2 113.014 81.1756  17
  -6   2  -2 176.784 117.645  16
   6  -2   3 312.243 123.102  20
   6  -2   3 270.300 110.647   3
   6  -2   3 268.592 91.5081   4
   6  -2   3 434.663 131.900  11
   6  -2   3 267.623 82.9510   6
  -6   2  -3 286.540 100.245  10
  -6   2  -3 168.204 86.2637  17
  -6   2  -3 506.058 126.710  16
   6  -2   4 46.1251 95.0790   3
   6  -2   4 397.264 110.109   4
   6  -2   4 237.121 107.084  20
   6  -2   4 177.376 104.904  11
   6  -2   4 338.568 96.3875   6
  -6   2  -4 193.919 94.3766  10
  -6   2  -4 268.994 110.650  17
  -6   2  -4 197.244 112.660  16
   6  -2   5 192.829 107.244   3
   6  -2   5 139.204 89.9384   4
   6  -2   5 293.011 125.623  20
   6  -2   5 292.438 129.531  11
   6  -2   5 311.504 117.296  19
   6  -2   5 383.952 110.053   6
  -6   2  -5 129.194 87.9084  10
  -6   2  -5 246.835 110.594   9
  -6   2  -5 286.748 125.400  17
  -6   2  -5 403.669 150.289  16
   6  -2   6 366.054 111.749   4
   6  -2   6 438.331 124.773  20
   6  -2   6 753.725 163.643  11
   6  -2   6 354.470 121.735  19
   6  -2   6 660.940 144.432   6
  -6   2  -6 425.379 133.773  10
  -6   2  -6 597.816 149.354   9
  -6   2  -6 537.414 157.090  17
  -6   2  -6 359.928 129.444  16
   6  -2   7 192.101 87.5761   4
   6  -2   7 167.474 100.862  20
   6  -2   7 29.2698 96.4527  11
   6  -2   7 254.461 97.5974  19
   6  -2   7 155.149 84.3914   6
  -6   2  -7 175.460 108.719  10
  -6   2  -7 175.870 90.1761   9
  -6   2  -7 222.894 118.623  17
  -6   2  -7 11.5567 89.0723  16
   6  -2   8 112.199 92.2643   4
   6  -2   8 138.932 92.5035  20
   6  -2   8 13.0047 81.7352  11
   6  -2   8 21.9575 79.7570  19
   6  -2   8-22.5363 96.5469   6
  -6   2  -8 93.9002 69.4598  10
  -6   2  -8-27.9346 87.1906   9
  -6   2  -8-22.7873 83.0229   1
  -6   2  -8 2.03640 96.7333  17
  -6   2  -8-160.939 117.035  16
   6  -2   9 289.337 126.377  20
   6  -2   9 237.463 113.347   4
   6  -2   9 404.712 115.353  11
   6  -2   9 386.032 133.585  19
   6  -2   9 497.565 156.154   6
  -6   2  -9 395.399 144.041  10
  -6   2  -9 347.943 131.895   9
  -6   2  -9 631.512 196.471  17
  -6   2  -9 452.528 133.851   1
  -6   2  -9 167.481 95.1002  16
   6  -2  10-10.2137 89.1076   4
   6  -2  10 11.7159 76.5215  11
  -6   2 -10 120.682 75.7957   9
  -6   1   8 834.622 197.734  18
  -6   1   8 1101.86 217.664   8
   6  -1  -7 700.491 187.171   7
  -6   1   7 868.227 192.522  21
  -6   1   7 1180.22 227.949  19
  -6   1   7 906.953 204.104  18
  -6   1   7 784.646 187.242  17
  -6   1   7 868.829 195.255  16
  -6   1   7 1308.26 220.113   8
   6  -1  -6 133.192 109.003   7
  -6   1   6 143.674 107.861  21
  -6   1   6 207.319 119.127  19
  -6   1   6 264.777 136.385  18
  -6   1   6 386.460 110.547  17
  -6   1   6 278.598 100.650  16
   6  -1  -6 244.558 98.5554   3
  -6   1   6 155.225 89.2684   8
   6  -1  -5-95.3862 144.207   7
  -6   1   5 158.281 77.3334  21
  -6   1   5 70.3971 110.382  19
  -6   1   5 154.527 98.2016  17
  -6   1   5 259.284 87.9325   5
  -6   1   5 206.215 115.123  16
  -6   1   5 43.4524 84.7144   8
   6  -1  -5 215.469 95.8867   3
   6  -1  -4 54.9741 109.815   7
  -6   1   4 184.068 105.621  21
  -6   1   4 236.590 141.612  19
  -6   1   4 52.2592 96.2632  17
  -6   1   4 52.4272 65.9035   5
  -6   1   4 116.475 91.2926  16
  -6   1   4 74.1587 68.4176   8
   6  -1  -4 68.4423 70.3008   3
   6  -1  -3 412.347 115.491   3
  -6   1   3 652.318 159.008  21
  -6   1   3 436.819 127.880  10
  -6   1   3 458.871 133.690  17
  -6   1   3 386.660 97.2182   5
  -6   1   3 519.602 135.107  16
  -6   1   3 483.833 109.364   8
   6  -1  -2 1023.27 164.295   3
  -6   1   2 913.206 174.044  21
  -6   1   2 620.995 143.030  10
  -6   1   2 1037.31 188.175  17
  -6   1   2 823.036 163.377  16
  -6   1   2 962.683 132.758   8
   6  -1  -1 110.332 77.6391   3
  -6   1   1 255.117 108.001  21
  -6   1   1 477.105 130.963  10
  -6   1   1 311.403 119.482  17
  -6   1   1 315.838 106.940  16
  -6   1   1 412.906 82.4856   8
   6  -1   0 38.6225 75.2108   3
   6  -1   0-6.49860 55.3001   4
  -6   1   0-26.7521 85.0502  21
   6  -1   0 35.7577 74.3279  20
   6  -1   0 0.63466 28.4798   6
  -6   1   0-58.6663 78.2049  10
  -6   1   0-11.2505 86.4634  17
  -6   1   0-32.2482 86.6718  16
  -6   1   0-14.1088 32.0032   8
   6  -1   1 1548.80 210.609   3
   6  -1   1 1475.51 136.049   6
  -6   1  -1 1483.93 208.364  21
   6  -1   1 1029.28 167.979  20
  -6   1  -1 1485.56 199.802  10
  -6   1  -1 1345.07 207.956  17
  -6   1  -1 1619.19 214.635  16
   6  -1   1 1481.92 166.047   4
   6  -1   2 11.3384 93.9289   3
   6  -1   2 35.4043 59.8649   4
  -6   1  -2 192.289 107.630  21
   6  -1   2-2.94197 87.1030  11
   6  -1   2 20.0272 68.1043  20
   6  -1   2 37.5685 41.1066   6
  -6   1  -2 134.983 88.0228  10
  -6   1  -2 152.980 93.6545  17
  -6   1  -2 5.14666 69.8445  16
   6  -1   3 62.5974 64.3744   4
   6  -1   3 101.187 101.217   3
   6  -1   3 86.7710 88.6098  20
   6  -1   3 8.59736 72.6082  11
   6  -1   3 63.7337 51.1053   6
  -6   1  -3 41.3445 77.6676  10
  -6   1  -3-13.5279 75.0010   9
  -6   1  -3 106.327 98.1385  17
  -6   1  -3 15.5222 73.4331  16
   6  -1   4 2709.49 263.243  11
   6  -1   4 2599.52 263.229  20
   6  -1   4 2990.76 245.733   6
   6  -1   4 2528.27 266.130  19
  -6   1  -4 3045.58 289.215  10
   6  -1   4 2695.02 293.338   3
  -6   1  -4 2642.58 273.795   9
  -6   1  -4 2997.86 291.857  17
  -6   1  -4 3437.49 312.766  16
   6  -1   4 2814.36 252.379   4
   6  -1   5 98.5521 80.5532   4
   6  -1   5 67.3019 68.0924  20
   6  -1   5 234.077 101.573  11
   6  -1   5 192.500 96.2640  19
   6  -1   5 48.8457 60.8114   6
  -6   1  -5-27.8320 76.4554  10
  -6   1  -5 194.176 101.295   9
  -6   1  -5 150.100 81.6885  17
  -6   1  -5 48.3570 75.1081  16
   6  -1   6-37.9645 78.8871   4
   6  -1   6-28.3101 77.0804  20
   6  -1   6 129.612 104.336  11
   6  -1   6 274.429 107.805  19
   6  -1   6-81.1981 74.6278   6
  -6   1  -6-62.0360 106.860  10
  -6   1  -6 37.7146 75.8894   9
  -6   1  -6 13.2874 69.1937  17
  -6   1  -6-32.4286 93.5087  16
   6  -1   7 1941.53 237.142   4
   6  -1   7 2400.83 265.106   6
   6  -1   7 2363.10 277.772  20
   6  -1   7 2188.01 253.831  11
   6  -1   7 2617.42 286.569  19
  -6   1  -7 2096.65 257.724  10
  -6   1  -7 2625.31 288.246   9
  -6   1  -7 2066.30 269.965  17
  -6   1  -7 2061.33 264.691  16
   6  -1   8 6.50832 86.5015   4
   6  -1   8 13.1602 80.1278  20
   6  -1   8-132.428 100.592  11
   6  -1   8-24.4892 93.2234  19
   6  -1   8-77.6306 96.3826   6
  -6   1  -8 31.8658 79.4546  10
  -6   1  -8-71.0665 107.268   9
  -6   1  -8 23.1141 91.0074  17
  -6   1  -8 25.2898 96.4883  16
   6  -1   9 1339.55 222.992   4
   6  -1   9 1357.49 223.975  20
   6  -1   9 1289.17 209.082  11
   6  -1   9 1117.95 202.857  19
   6  -1   9 981.379 194.882   6
  -6   1  -9 1268.28 217.508  10
  -6   1  -9 1186.26 209.034   9
  -6   1  -9 1395.74 231.722  16
   6  -1  10 304.030 133.350   4
   6  -1  10 234.619 117.327  20
   6  -1  10 402.230 140.247  11
   6  -1  10 358.721 121.209  19
   6  -1  10 221.377 94.7230   6
  -6   1 -10 310.200 129.277  10
  -6   1 -10 243.007 130.178   9
  -6   1 -10 480.740 159.017  17
  -6   1 -10 261.852 89.9939  16
   6  -1  11 272.951 112.758  11
  -6   1 -11 376.900 142.512   9
   6   0  -9 188.893 129.703  15
  -6   0   9 108.035 109.880  18
   6   0  -8 312.351 138.669  15
   6   0  -8 313.088 143.142   7
  -6   0   8 342.614 123.103  21
  -6   0   8 673.169 174.683  19
  -6   0   8 496.291 173.208  18
  -6   0   8 659.069 182.834  17
  -6   0   8 211.830 106.247  16
   6   0  -7 212.601 116.231  15
   6   0  -7 288.929 135.137   7
  -6   0   7 294.027 122.974  21
  -6   0   7 215.392 115.761  19
  -6   0   7 304.048 144.082  18
  -6   0   7 387.961 132.787  17
  -6   0   7 428.709 118.958   5
  -6   0   7 459.194 161.350  16
   6   0  -6 3648.07 373.491   7
  -6   0   6 3299.88 339.807  21
  -6   0   6 3368.12 343.633  19
  -6   0   6 3251.60 279.227   5
  -6   0   6 2953.42 322.572  17
  -6   0   6 3209.05 331.988  16
   6   0  -5 11660.5 658.020   7
  -6   0   5 12788.2 671.191  21
  -6   0   5 13794.6 706.268  19
   6   0  -5 13425.1 564.970   3
  -6   0   5 11518.5 547.726   5
  -6   0   5 12874.3 670.894  17
  -6   0   5 12570.9 657.207  16
   6   0  -4 1245.10 169.173   3
   6   0  -4 1269.35 218.443   7
  -6   0   4 1090.99 190.640  21
  -6   0   4 1427.38 217.805  19
  -6   0   4 1481.75 220.736  17
  -6   0   4 1007.32 146.937   5
  -6   0   4 1378.53 202.550  16
   6   0  -3 898.129 144.894   3
   6   0  -3 756.084 177.852   7
  -6   0   3 918.552 170.568  21
  -6   0   3 1058.60 176.983  10
  -6   0   3 997.489 183.681  19
  -6   0   3 940.356 171.623  17
  -6   0   3 954.090 143.681   5
  -6   0   3 1086.16 196.371  16
   6   0  -2 1793.38 240.781   7
  -6   0   2 2016.64 234.399  10
   6   0  -2 2090.54 215.221   3
  -6   0   2 2184.55 241.635  17
  -6   0   2 2514.52 256.357  16
  -6   0   2 1996.79 232.091  21
  -6   0   1 10773.0 549.746  21
   6   0  -1 9850.89 344.790   6
  -6   0   1 9720.99 517.780  10
   6   0  -1 9698.47 486.025   3
  -6   0   1 9774.94 525.845  17
  -6   0   1 9489.98 512.222  16
  -6   0   1 10463.3 425.168   8
  -6   0   0 5757.60 393.916  21
   6   0   0 5987.33 374.613  20
  -6   0   0 5533.33 374.272  10
   6   0   0 5742.31 357.742   3
  -6   0   0 5780.15 389.897  17
  -6   0   0 5958.55 385.976  16
   6   0   0 6003.46 345.793   4
  -6   0   0 5859.05 278.338   8
   6   0   0 5468.42 261.857   6
  -6   0  -1 96962.5 2470.90  21
   6   0   1 99374.3 2247.04   6
   6   0   1 96495.4 2419.36  20
  -6   0  -1 98443.6 2453.25  10
   6   0   1 95516.5 2421.36   3
  -6   0  -1 99824.7 2479.34  17
  -6   0  -1 97480.1 2457.76  16
  -6   0  -1 100191. 2156.80   8
   6   0   1 98929.2 2364.11   4
   6   0   2 1370.65 168.854   4
   6   0   2 1065.22 167.678   3
  -6   0  -2 1019.17 174.454  21
   6   0   2 1106.08 159.394  20
   6   0   2 967.716 124.736   6
  -6   0  -2 1257.36 175.531  10
  -6   0  -2 1359.49 185.651   9
  -6   0  -2 1569.54 201.180  17
   6   0   2 1196.10 170.975  11
  -6   0  -2 1303.60 78.6473   8
  -6   0  -2 1497.40 197.588  16
   6   0   3 797.735 139.789   4
   6   0   3 1212.71 182.752   3
   6   0   3 1036.86 162.741  20
   6   0   3 711.780 136.929  11
   6   0   3 1160.04 145.811   6
  -6   0  -3 928.285 156.963  10
  -6   0  -3 863.244 153.060   9
  -6   0  -3 1592.46 205.181  17
  -6   0  -3 1149.10 173.817  16
   6   0   4 2011.83 216.494  11
   6   0   4 1946.52 214.767  20
   6   0   4 2185.30 207.195   6
   6   0   4 2114.02 224.066  19
  -6   0  -4 1991.15 224.497  10
  -6   0  -4 2023.42 229.754   9
  -6   0  -4 2035.65 231.819  17
  -6   0  -4 2055.48 230.852  16
   6   0   4 2107.98 214.232   4
   6   0   5 432.253 109.548   4
   6   0   5 285.037 98.9746  20
   6   0   5 404.394 112.733  11
   6   0   5 599.377 122.018   6
   6   0   5 501.042 121.748  19
  -6   0  -5 458.918 126.235  10
  -6   0  -5 527.609 124.872   9
  -6   0  -5 342.215 110.897  17
  -6   0  -5 336.775 94.0516  16
   6   0   6 878.944 156.361   4
   6   0   6 989.038 171.806  20
   6   0   6 1216.68 183.177  11
   6   0   6 996.277 168.225  19
   6   0   6 904.979 152.279   6
  -6   0  -6 933.568 161.120  10
  -6   0  -6 1166.98 178.751   9
  -6   0  -6 1181.06 197.311  17
  -6   0  -6 1218.79 188.328  16
   6   0   7 10312.2 552.796  20
   6   0   7 9353.24 527.682  11
   6   0   7 10633.8 559.750   6
   6   0   7 9931.35 545.137  19
  -6   0  -7 10236.1 560.278  10
  -6   0  -7 10246.1 558.050   9
  -6   0  -7 10541.5 580.244  17
  -6   0  -7 9481.18 548.024  16
   6   0   7 9750.89 537.419   4
   6   0   8 6691.33 450.312  20
   6   0   8 5970.04 422.136  11
   6   0   8 6310.00 440.823   6
   6   0   8 6474.81 445.090  19
  -6   0  -8 6515.91 449.374  10
  -6   0  -8 6297.41 440.373   9
  -6   0  -8 5789.08 437.918  17
  -6   0  -8 6467.08 451.431  16
   6   0   8 6436.19 445.753   4
   6   0   9 33.1550 110.375   4
   6   0   9 25.7259 87.8037  20
   6   0   9-26.7341 82.6826  11
   6   0   9 49.6031 89.3781  19
   6   0   9 27.8071 78.3875   6
  -6   0  -9 221.996 117.708  10
  -6   0  -9 159.963 118.391   9
  -6   0  -9 199.521 98.0745  17
  -6   0  -9 49.9852 80.6673  16
   6   0  10 1179.49 216.709   4
   6   0  10 1500.57 237.887  20
   6   0  10 1520.49 218.142  11
   6   0  10 1706.18 248.757  19
   6   0  10 1535.15 243.996   6
  -6   0 -10 1831.47 256.181  10
  -6   0 -10 1775.43 250.155   9
  -6   0 -10 1828.41 266.101  16
   6   0  11 227.110 113.473   4
   6   0  11 396.872 147.455  20
   6   0  11 361.652 130.622  11
   6   0  11 194.587 127.109  19
   6   0  11 345.828 127.397   6
  -6   0 -11 336.699 130.989  10
  -6   0 -11-52.2070 112.283   9
  -6   0 -11 162.756 127.275  16
   6   1  -9 42.4927 105.917  15
  -6  -1   9 75.0920 90.0425  18
  -6  -1   9 85.3385 80.0036   5
   6   1  -8 684.261 196.797  15
   6   1  -8 503.788 146.702   7
  -6  -1   8 211.828 134.330  21
  -6  -1   8 515.122 175.726  20
  -6  -1   8 471.634 158.069  19
  -6  -1   8 300.806 135.060  18
  -6  -1   8 467.702 158.942  17
  -6  -1   8 512.291 131.541   5
  -6  -1   8 247.926 135.021  16
   6   1  -7-36.4797 92.5273  15
   6   1  -7 126.045 104.047   7
  -6  -1   7 158.876 111.948  21
  -6  -1   7 74.8701 110.732  19
  -6  -1   7 58.8830 89.8298  17
  -6  -1   7 123.662 88.0517   5
  -6  -1   7 191.901 108.002  16
   6   1  -6 50.4944 110.227  15
   6   1  -6 162.084 127.652   7
  -6  -1   6-26.6478 95.1893  21
  -6  -1   6 54.8702 72.6330  19
  -6  -1   6 112.782 72.0451  17
  -6  -1   6-5.90036 69.8593   5
  -6  -1   6 237.330 113.129  16
   6   1  -5 1517.18 230.264  15
   6   1  -5 1641.20 225.849   7
  -6  -1   5 1912.37 241.795  21
  -6  -1   5 1459.21 221.026  19
   6   1  -5 1777.62 173.731   3
  -6  -1   5 1597.97 218.801  17
  -6  -1   5 1432.15 185.182   5
  -6  -1   5 1745.16 229.914  16
   6   1  -4 11.9753 97.4178  15
   6   1  -4 50.9575 63.3979   3
   6   1  -4-59.8733 94.8688   7
  -6  -1   4-3.58256 83.5446  21
  -6  -1   4-53.2491 72.9945  19
  -6  -1   4 5.85831 90.6124  17
  -6  -1   4-47.5007 53.3284   5
  -6  -1   4 18.8368 83.9146  16
   6   1  -3 63.1554 60.1015   3
   6   1  -3 29.8869 93.5941   7
  -6  -1   3 50.9039 89.8977  21
  -6  -1   3 110.043 90.8960  10
  -6  -1   3-0.80742 74.9858  19
  -6  -1   3-1.17065 81.5870  17
  -6  -1   3 49.8494 56.6477   5
  -6  -1   3 207.669 99.6463  16
   6   1  -2 20.3939 60.2629   3
   6   1  -2-41.2917 83.8207   7
  -6  -1   2-153.338 96.3241  21
  -6  -1   2-9.40490 71.3732  10
  -6  -1   2 20.6961 75.3015  17
  -6  -1   2-18.6832 70.3223   5
  -6  -1   2 14.3259 75.1481  16
   6   1  -1 53.9848 62.5390   3
   6   1  -1-131.332 107.198   7
  -6  -1   1 89.8669 71.9643  21
   6   1  -1 69.5812 39.0264   6
  -6  -1   1 65.7613 44.5962   6
  -6  -1   1 92.4716 71.4266  10
  -6  -1   1 31.9551 63.6740  17
  -6  -1   1 54.0295 67.5350  16
   6   1   0 1272.07 160.131   4
   6   1   0 1494.14 175.604   3
   6   1   0 1164.91 168.416   7
   6   1   0 1283.94 126.653   6
   6   1   0 1242.72 163.516  20
  -6  -1   0 1231.75 168.897  10
  -6  -1   0 1310.79 181.163  17
  -6  -1   0 1383.43 181.301  21
  -6  -1   0 1228.76 165.569  16
   6   1   1 597.731 116.426   4
   6   1   1 435.492 84.0121  14
   6   1   1 556.878 116.441   3
   6   1   1 570.031 93.1568  13
   6   1   1 574.799 119.039   7
  -6  -1  -1 482.703 122.831  21
   6   1   1 514.834 115.266  20
   6   1   1 572.320 118.575  11
   6   1   1 688.984 102.209   6
  -6  -1  -1 755.399 138.410  10
  -6  -1  -1 639.269 120.554   9
  -6  -1  -1 550.857 120.629  17
  -6  -1  -1 738.786 133.562  16
   6   1   2 3066.67 244.932   7
   6   1   2 3623.72 195.030  14
   6   1   2 3161.77 183.484  13
  -6  -1  -2 3446.35 283.641  21
   6   1   2 3677.71 242.013   6
   6   1   2 3846.19 282.977  11
   6   1   2 4013.26 287.475  20
  -6  -1  -2 4185.22 302.599  10
  -6  -1  -2 3860.50 290.513   9
  -6  -1  -2 3845.47 293.825  17
  -6  -1  -2 3900.67 291.173  16
   6   1   2 3523.19 267.826   4
   6   1   3 182.174 68.1804   4
   6   1   3 168.240 35.7872  14
   6   1   3 93.9763 28.2623  13
   6   1   3 230.117 81.2962   7
   6   1   3 154.841 67.1966  20
   6   1   3 304.445 100.714  11
   6   1   3 150.093 70.4387   6
  -6  -1  -3 101.705 67.8983  10
  -6  -1  -3 191.913 100.789   9
  -6  -1  -3 168.409 86.8916  17
  -6  -1  -3 165.721 71.5314  16
   6   1   4 5818.72 305.687   7
   6   1   4 6256.18 379.380  11
   6   1   4 5726.69 356.561  20
   6   1   4 6512.49 359.650   6
   6   1   4 6650.67 383.528  19
  -6  -1  -4 6687.55 397.610  10
  -6  -1  -4 6122.93 379.245   9
  -6  -1  -4 5526.93 367.659  17
  -6  -1  -4 5754.82 369.989  16
   6   1   4 6021.27 366.419   4
   6   1   4 5436.11 316.506  15
   6   1   5 1377.88 138.371   7
   6   1   5 1814.11 205.501   4
   6   1   5 2019.35 218.418  11
   6   1   5 2094.36 217.161   6
   6   1   5 1610.29 191.788  20
   6   1   5 2001.22 213.516  19
  -6  -1  -5 2187.12 232.042  10
  -6  -1  -5 2026.93 219.528  17
  -6  -1  -5 2058.04 219.890   9
  -6  -1  -5 2087.14 220.684  16
   6   1   5 1587.29 159.914  15
   6   1   6 53.0784 48.9882  15
   6   1   6 3.43445 69.4096   4
   6   1   6-28.7328 41.7794   7
   6   1   6 118.111 84.1561  20
   6   1   6 62.5166 72.5778  11
   6   1   6 25.6801 64.2312   6
   6   1   6 75.6862 71.6591  19
  -6  -1  -6 99.7403 78.7928  10
  -6  -1  -6 112.292 91.0900   9
  -6  -1  -6 24.0145 75.4936  17
  -6  -1  -6-3.65011 75.2852  16
   6   1   7-4.11898 88.2591   4
   6   1   7 46.6978 69.1342  20
   6   1   7 28.4544 59.4383  11
   6   1   7-6.80444 83.6193   6
   6   1   7-7.38868 58.9766  19
  -6  -1  -7-48.7726 68.1886  10
  -6  -1  -7 158.784 89.9356   9
  -6  -1  -7-0.39700 61.7794  17
  -6  -1  -7 52.0521 65.2154  16
   6   1   8 395.963 137.335   4
   6   1   8 375.368 120.186  20
   6   1   8 156.217 94.0912  11
   6   1   8 112.161 68.5734   6
   6   1   8 223.523 91.1520  19
  -6  -1  -8 72.6891 93.8244  10
  -6  -1  -8 333.752 116.032   9
  -6  -1  -8 59.9673 89.1442  17
  -6  -1  -8 113.565 82.8680  16
   6   1   9 2716.28 287.037  20
   6   1   9 2899.17 296.015  11
   6   1   9 2672.29 304.957   6
   6   1   9 3120.00 303.820  19
  -6  -1  -9 2817.59 298.153  10
  -6  -1  -9 2476.74 275.994   9
  -6  -1  -9 2816.74 299.902  16
   6   1   9 2811.44 295.144   4
   6   1  10 2692.80 290.294  20
   6   1  10 1918.54 250.061  11
   6   1  10 2505.42 280.500  19
   6   1  10 2223.00 282.677   6
  -6  -1 -10 2769.00 305.161  10
  -6  -1 -10 2338.66 276.325   9
  -6  -1 -10 1900.76 254.403  16
   6   1  10 2551.20 311.515   4
   6   1  11 619.424 180.268   4
   6   1  11 741.659 179.714  20
   6   1  11 298.587 117.108  11
   6   1  11 394.587 135.011   6
   6   1  11 891.485 190.582  19
  -6  -1 -11 777.010 183.112  10
  -6  -1 -11 522.921 149.814   9
  -6  -1 -11 547.675 161.316  16
   6   1  12-197.337 111.390  20
   6   1  12-123.669 96.4569  11
   6   1  12 43.6409 89.5954  19
  -6  -1 -12-50.4637 104.388   9
  -6  -1 -12 72.1668 100.577  16
  -6  -2  10 103.184 112.026  18
  -6  -2  10 198.621 110.670   5
   6   2  -9 8.50174 81.6862  15
  -6  -2   9-3.10393 82.2680  18
  -6  -2   9 31.3987 77.6747   5
   6   2  -8-18.8835 81.0786  15
   6   2  -8 115.397 104.523  14
   6   2  -8 98.6216 108.938   7
  -6  -2   8-35.4265 88.2489  21
  -6  -2   8 10.9427 96.8155  20
  -6  -2   8 46.9513 83.6829  19
  -6  -2   8 45.7551 89.4822   5
  -6  -2   8-202.374 117.257  16
   6   2  -7 1678.53 258.021  15
   6   2  -7 1832.74 262.374  14
   6   2  -7 1537.46 239.015   7
  -6  -2   7 1663.58 243.352  21
  -6  -2   7 1304.59 225.935  20
  -6  -2   7 2050.83 267.071  19
  -6  -2   7 1629.82 242.609  17
  -6  -2   7 1243.85 203.819   5
  -6  -2   7 1864.71 255.838  16
   6   2  -6 12.0676 104.469  15
   6   2  -6 30.6540 110.727  14
   6   2  -6 224.784 120.262   7
  -6  -2   6 59.8687 85.9741  21
  -6  -2   6 274.813 127.027  19
  -6  -2   6 160.767 87.1253  17
  -6  -2   6 103.334 75.2445   5
  -6  -2   6-1.61761 93.9224  16
   6   2  -5 118.787 118.321  15
   6   2  -5 56.2320 79.1938  14
   6   2  -5 20.3020 90.9159   7
  -6  -2   5-5.18134 91.4990  21
  -6  -2   5 59.3251 86.6211  19
  -6  -2   5 26.1850 86.3944  17
  -6  -2   5 84.2228 75.4006   5
  -6  -2   5 67.1031 86.2096  16
   6   2  -4 814.053 178.280  15
   6   2  -4 1003.59 116.653   3
   6   2  -4 979.680 169.717  14
   6   2  -4 1195.05 194.174   7
  -6  -2   4 1219.27 182.323  21
  -6  -2   4 1422.33 203.195  19
  -6  -2   4 1273.25 189.082  17
  -6  -2   4 1049.03 162.259   5
  -6  -2   4 1306.16 191.313  16
   6   2  -3 219.098 109.225  15
   6   2  -3-34.0852 52.6231   3
   6   2  -3-19.3856 76.4553  14
   6   2  -3-14.3303 80.0405   7
  -6  -2   3-26.8493 75.1655  21
  -6  -2   3-30.6070 78.3825  19
  -6  -2   3-38.2371 90.1075  17
  -6  -2   3-5.62695 67.4376   5
  -6  -2   3 16.8243 68.5046  16
   6   2  -2-38.2729 80.2277  15
   6   2  -2 9.58182 77.0877  14
   6   2  -2 25.9916 43.3926   3
   6   2  -2 123.020 95.3055   7
  -6  -2   2 60.2579 77.7590  21
  -6  -2   2 4.06129 73.0407  10
  -6  -2   2-13.6995 64.8769  19
  -6  -2   2 86.4013 74.3306  17
  -6  -2   2 70.7121 72.5152   5
  -6  -2   2 85.0406 65.7945  16
   6   2  -1 923.941 163.970  15
   6   2  -1 676.726 115.922  14
   6   2  -1 795.260 144.523   7
  -6  -2   1 734.130 131.166  21
   6   2  -1 1052.44 124.432   6
  -6  -2   1 955.660 152.654  10
  -6  -2   1 888.408 155.885  17
  -6  -2   1 976.341 146.588  16
   6   2   0 258.399 112.768  15
   6   2   0 270.876 85.6794   4
   6   2   0 206.502 71.7097  14
   6   2   0 102.475 71.4059   7
  -6  -2   0 139.923 70.3264  21
   6   2   0 313.676 92.7409  11
   6   2   0 182.145 62.0331   6
  -6  -2   0 141.276 74.6390  10
  -6  -2   0 182.675 78.2977  17
  -6  -2   0 322.920 95.0379  16
   6   2   1 106.534 78.7702  15
   6   2   1 54.4878 63.3475   4
   6   2   1 119.260 52.9038  14
   6   2   1 95.4875 72.8591   7
  -6  -2  -1 67.7888 65.9552  21
   6   2   1 76.9096 50.9017  20
   6   2   1 44.0974 57.5237  11
   6   2   1 80.6631 47.5763   6
  -6  -2  -1 124.241 86.5965  10
  -6  -2  -1 41.6770 57.1445   9
  -6  -2  -1-47.8225 59.1279  17
  -6  -2  -1-8.16109 60.7737  16
   6   2   2 1133.61 159.625  15
   6   2   2 1143.17 107.799  14
   6   2   2 1254.01 165.141   4
   6   2   2 1129.20 106.229  13
   6   2   2 1300.87 147.135   7
  -6  -2  -2 1292.42 164.518  21
   6   2   2 1222.90 151.538  20
   6   2   2 1295.62 161.164  11
   6   2   2 1071.07 136.392   6
  -6  -2  -2 1140.56 159.601  10
  -6  -2  -2 1553.30 180.631  17
  -6  -2  -2 1170.67 155.106   9
  -6  -2  -2 1446.32 171.253  16
   6   2   3 1489.71 167.617  15
   6   2   3 1545.77 105.293  14
   6   2   3 1567.07 104.983  13
   6   2   3 1117.22 125.163   7
   6   2   3 1606.85 181.302  11
   6   2   3 1446.22 161.652  20
  -6  -2  -3 1429.69 175.942  10
  -6  -2  -3 1633.87 184.984   9
  -6  -2  -3 1581.10 176.911  17
  -6  -2  -3 1485.72 96.2140   8
   6   2   3 1672.33 170.898   6
  -6  -2  -3 1467.02 169.997  16
   6   2   3 1899.49 194.923   4
   6   2   4 734.363 118.427  15
   6   2   4 794.605 49.6024  14
   6   2   4 802.315 134.559   4
   6   2   4 828.213 101.244   7
   6   2   4 751.379 126.941  20
   6   2   4 931.781 141.233  11
   6   2   4 834.316 139.619   6
  -6  -2  -4 864.395 142.831  10
  -6  -2  -4 895.726 140.869   9
  -6  -2  -4 656.049 132.542  17
  -6  -2  -4 732.159 51.2098   8
  -6  -2  -4 883.869 137.568  16
   6   2   5 185.900 64.9442  15
   6   2   5 95.9204 70.3496   4
   6   2   5 340.801 63.7843   7
   6   2   5 147.148 61.7126  20
   6   2   5 229.414 90.9795  11
   6   2   5 112.296 82.6895   6
   6   2   5 86.3576 56.1872  19
  -6  -2  -5 295.915 104.038  10
  -6  -2  -5 74.9450 72.1914   9
  -6  -2  -5 129.290 78.9580  17
  -6  -2  -5 144.805 68.8908  16
   6   2   6 1170.76 85.0687   7
   6   2   6 1652.37 201.246   4
   6   2   6 1599.06 188.491  20
   6   2   6 1155.53 167.910  11
   6   2   6 1196.78 171.094   6
   6   2   6 1097.15 160.285  19
  -6  -2  -6 1641.19 197.307  10
  -6  -2  -6 1371.58 182.026   9
  -6  -2  -6 1543.23 185.533  17
  -6  -2  -6 1803.65 201.221  16
   6   2   6 1100.65 116.446  15
   6   2   7 1599.79 209.757   4
   6   2   7 1914.03 207.940  20
   6   2   7 2035.68 229.067   6
   6   2   7 2001.03 224.619  11
   6   2   7 1826.94 204.102  19
  -6  -2  -7 1982.41 225.857  10
  -6  -2  -7 1926.28 225.158   9
  -6  -2  -7 1604.14 205.484  17
  -6  -2  -7 1676.71 206.268  16
   6   2   7 1888.43 132.132  15
   6   2   8 453.285 135.425   4
   6   2   8 356.833 107.448  20
   6   2   8 243.308 103.551  11
   6   2   8 403.103 131.914   6
   6   2   8 269.331 100.148  19
  -6  -2  -8 238.445 98.6578  10
  -6  -2  -8 463.333 124.168   9
  -6  -2  -8 93.4900 73.9608  17
  -6  -2  -8 321.290 105.077  16
   6   2   9 207.252 106.190   4
   6   2   9 387.455 115.231  20
   6   2   9 232.473 114.874  11
   6   2   9 331.689 135.189   6
   6   2   9 287.250 103.525  19
  -6  -2  -9 267.590 110.500  10
  -6  -2  -9 178.943 110.746   9
  -6  -2  -9 199.792 94.1763  16
   6   2  10 126.696 81.2381   4
   6   2  10 114.098 70.3981  20
   6   2  10 266.632 107.239  11
   6   2  10 219.521 105.217   6
   6   2  10 54.6802 80.6980  19
  -6  -2 -10 145.807 95.9914  10
  -6  -2 -10 184.190 99.1805   9
  -6  -2 -10 198.168 89.7889  16
   6   2  11 426.881 144.986   4
   6   2  11 260.052 99.4941  20
   6   2  11 260.515 115.323  11
   6   2  11 458.841 134.136   6
   6   2  11 283.604 112.916  19
  -6  -2 -11 328.311 126.269  10
  -6  -2 -11 224.440 101.525   9
  -6  -2 -11 265.014 103.908  16
   6   2  12 290.029 118.722   4
   6   2  12 557.587 154.167  20
   6   2  12 720.611 173.521  11
   6   2  12 543.718 171.061   6
   6   2  12 268.370 111.806  19
  -6  -2 -12 305.695 125.833  10
  -6  -2 -12 428.985 132.645   9
  -6  -2 -12 474.505 142.123  16
   6   2  13 1241.29 216.669  21
   6   2  13 1405.49 239.310  20
   6   2  13 1352.22 229.123  19
  -6  -2 -13 1683.20 258.193  16
   6   3  -9 204.919 116.721  15
  -6  -3   9 14.3278 112.188  21
  -6  -3   9-72.3885 92.1154  20
  -6  -3   9-3.42703 134.435  19
  -6  -3   9 68.4147 87.2597  17
  -6  -3   9-169.510 108.631   5
  -6  -3   9-110.492 94.8475  16
   6   3  -8 3380.79 360.887   7
   6   3  -8 4238.19 408.836  14
  -6  -3   8 4483.20 404.915  21
  -6  -3   8 4024.95 395.265  20
  -6  -3   8 3551.00 366.276  19
  -6  -3   8 3651.95 356.179   5
  -6  -3   8 3646.84 363.192  17
  -6  -3   8 4208.74 394.422  16
   6   3  -8 3491.01 361.797  15
   6   3  -7 15002.8 767.519   7
   6   3  -7 15602.4 781.886  14
  -6  -3   7 16318.4 779.142  21
  -6  -3   7 15611.6 783.866  20
  -6  -3   7 15348.5 770.069  19
  -6  -3   7 14864.8 735.670   5
  -6  -3   7 16541.6 780.985  17
  -6  -3   7 16580.2 780.885  16
   6   3  -7 13685.9 740.836  15
   6   3  -6 46.0138 103.001  15
   6   3  -6 119.048 118.225  14
   6   3  -6 13.5131 85.0099   7
  -6  -3   6 63.0880 86.0263  21
  -6  -3   6-95.9829 87.3925  20
  -6  -3   6 188.091 116.562  19
  -6  -3   6-0.68037 90.2009  17
  -6  -3   6 67.2079 73.6090   5
  -6  -3   6 52.2652 77.6324  16
   6   3  -5 2183.17 265.277  15
   6   3  -5 2673.12 286.923   7
   6   3  -5 2504.64 274.316  14
  -6  -3   5 2520.33 269.145  21
  -6  -3   5 2427.73 208.148  12
  -6  -3   5 2838.94 287.622  19
  -6  -3   5 2527.93 266.988   5
  -6  -3   5 2797.89 282.025  17
  -6  -3   5 2546.98 267.787  16
   6   3  -4 107.341 87.9151  15
   6   3  -4 200.280 100.171  14
   6   3  -4 78.2776 76.9264   7
  -6  -3   4 11.8845 85.3022  21
  -6  -3   4 254.828 89.6761  12
  -6  -3   4 122.060 92.9415  19
  -6  -3   4 56.6113 66.3212  17
  -6  -3   4 324.010 106.350   5
  -6  -3   4 349.863 110.788  16
   6   3  -3 1011.11 172.394  15
   6   3  -3 1031.98 163.531  14
   6   3  -3 1106.13 176.918   7
  -6  -3   3 1223.72 178.075  21
  -6  -3   3 1087.01 146.515  12
  -6  -3   3 1131.66 174.626  19
  -6  -3   3 1219.49 170.011  17
  -6  -3   3 1100.33 171.557   5
  -6  -3   3 1041.01 158.861  16
   6   3  -2 4360.54 327.651   7
   6   3  -2 4711.07 317.763  14
  -6  -3   2 4215.80 306.172  21
  -6  -3   2 4458.20 292.174  12
  -6  -3   2 4771.79 324.445  10
  -6  -3   2 4450.48 319.782  19
  -6  -3   2 4130.80 217.698   3
  -6  -3   2 4350.65 315.527   5
  -6  -3   2 4468.83 314.996  17
  -6  -3   2 4605.11 315.039  16
   6   3  -2 3956.94 322.202  15
   6   3  -1 14746.9 605.124   7
   6   3  -1 15006.1 577.266  14
  -6  -3   1 15039.6 605.025  21
   6   3  -1 14656.7 546.554   6
  -6  -3   1 14536.9 581.377  12
   6   3  -1 14127.6 530.741  11
  -6  -3   1 14877.5 603.321  10
  -6  -3   1 15187.4 611.271  19
  -6  -3   1 13503.2 485.431   3
  -6  -3   1 15296.0 606.275  17
  -6  -3   1 15297.7 598.783  16
   6   3  -1 13515.6 622.322  15
   6   3   0 1752.09 205.237  15
   6   3   0 2394.66 210.899   7
   6   3   0 2147.91 188.111  14
  -6  -3   0 2200.65 205.424  21
  -6  -3   0 2102.91 205.844  12
   6   3   0 2130.76 189.072   6
   6   3   0 2028.62 174.784  11
  -6  -3   0 2360.09 217.772  10
  -6  -3   0 2102.93 190.875   9
  -6  -3   0 2540.42 218.216  17
  -6  -3   0 2276.15 207.342  16
   6   3   1 270.814 87.7062  15
   6   3   1 300.813 95.3700   4
   6   3   1 289.961 70.9436  14
   6   3   1 390.544 101.385   7
  -6  -3  -1 351.884 84.9142  21
  -6  -3  -1 240.315 79.6873  12
   6   3   1 250.235 77.6831  11
   6   3   1 361.069 86.4104   6
  -6  -3  -1 179.235 69.8374  10
  -6  -3  -1 422.613 89.6622   9
  -6  -3  -1 439.200 101.767  17
  -6  -3  -1 358.600 96.1717  16
   6   3   2 543.635 109.396  15
   6   3   2 452.613 101.511   4
   6   3   2 408.633 70.9253  14
   6   3   2 548.340 89.6481   7
   6   3   2 374.765 68.1141  13
  -6  -3  -2 551.567 107.574  21
  -6  -3  -2 680.940 134.125  12
   6   3   2 610.032 100.435  20
   6   3   2 486.231 97.3770  11
   6   3   2 501.812 97.7693   6
  -6  -3  -2 327.301 80.6286  10
  -6  -3  -2 626.901 109.638  17
  -6  -3  -2 378.295 86.7463   9
  -6  -3  -2 541.754 104.626  16
   6   3   3 361.677 88.9461  15
   6   3   3 398.619 111.375   4
   6   3   3 471.286 64.6160  14
   6   3   3 377.898 78.6390   7
   6   3   3 321.880 56.3496  13
  -6  -3  -3 480.686 102.457  21
   6   3   3 453.579 89.9928  20
   6   3   3 368.543 85.6086  11
   6   3   3 401.338 95.7111   6
  -6  -3  -3 435.860 105.161  10
  -6  -3  -3 376.099 84.9245  17
  -6  -3  -3 451.975 103.220   9
  -6  -3  -3 452.293 92.8148  16
  -6  -3  -3 415.538 63.2587   8
   6   3   4 10618.3 369.770   7
   6   3   4 10118.1 318.202  14
   6   3   4 9380.06 422.019  20
   6   3   4 9922.58 462.937  11
   6   3   4 10341.9 481.303   6
  -6  -3  -4 9362.13 454.572  10
  -6  -3  -4 10531.6 471.325   9
  -6  -3  -4 9933.76 450.163  17
  -6  -3  -4 9219.59 430.870  16
  -6  -3  -4 9325.53 330.694   8
   6   3   4 10453.9 492.166   4
   6   3   4 8999.50 407.986  15
   6   3   5 5497.60 219.607   7
   6   3   5 4882.93 333.807   6
   6   3   5 5242.80 305.962  20
   6   3   5 5508.17 339.952  11
   6   3   5 4743.05 293.999  19
  -6  -3  -5 5042.48 327.893  10
  -6  -3  -5 5351.93 337.734   9
  -6  -3  -5 4714.29 306.380  17
  -6  -3  -5 5120.90 309.664  16
  -6  -3  -5 4726.56 206.632   8
   6   3   5 5025.75 344.016   4
   6   3   5 5065.66 276.615  15
   6   3   6 48.5343 40.9392  15
   6   3   6 86.0646 19.1036   7
   6   3   6 65.2683 74.9663   4
   6   3   6 53.3227 63.3407  20
   6   3   6 122.425 81.0889  11
   6   3   6-0.86627 59.1329   6
   6   3   6 141.575 69.8591  19
  -6  -3  -6 94.6924 77.8528  10
  -6  -3  -6 49.1283 54.1853  17
  -6  -3  -6 43.2469 71.1500   9
  -6  -3  -6 133.805 71.9827  16
   6   3   7 60.5462 30.5703  15
   6   3   7 101.513 95.1336   4
   6   3   7 104.535 59.2775  20
   6   3   7 24.2555 72.3059  11
   6   3   7-37.3911 81.5080   6
   6   3   7 61.4865 56.8219  19
  -6  -3  -7 15.0399 69.0330  10
  -6  -3  -7 32.1663 54.0375  17
  -6  -3  -7 86.7094 72.7098   9
  -6  -3  -7 84.4065 62.7187  16
   6   3   8 14719.9 682.368   6
   6   3   8 13721.9 599.511  20
   6   3   8 15307.4 670.219  11
   6   3   8 13941.2 602.263  19
  -6  -3  -8 13999.5 642.158  10
  -6  -3  -8 14572.3 628.866  17
  -6  -3  -8 15659.6 681.815   9
  -6  -3  -8 14955.1 633.661  16
   6   3   8 14893.7 678.705   4
   6   3   9 548.064 132.766   4
   6   3   9 620.958 135.069  20
   6   3   9 845.697 166.538  11
   6   3   9 808.785 178.746   6
   6   3   9 473.016 114.263  19
  -6  -3  -9 715.951 149.717  10
  -6  -3  -9 632.734 152.655   9
  -6  -3  -9 672.630 134.021  16
   6   3  10 20173.0 884.872   6
   6   3  10 20050.4 804.640  20
   6   3  10 21655.6 882.016  11
   6   3  10 20938.1 818.804  19
  -6  -3 -10 20969.5 861.008  10
  -6  -3 -10 20468.4 866.662   9
  -6  -3 -10 18621.9 800.401  16
   6   3  10 21288.5 893.455   4
   6   3  11 1519.42 237.325   4
   6   3  11 2344.22 276.458  11
   6   3  11 1678.89 227.276  20
   6   3  11 1713.70 251.354   6
   6   3  11 1905.75 237.396  19
  -6  -3 -11 1551.51 231.644  10
  -6  -3 -11 1474.56 226.706   9
  -6  -3 -11 2108.13 255.002  16
   6   3  12-7.08202 91.9532   4
   6   3  12-314.261 114.473  21
   6   3  12 20.5310 73.9557  20
   6   3  12 5.96744 93.8800  11
   6   3  12 324.004 150.710   6
   6   3  12-47.5659 69.4838  19
  -6  -3 -12 169.599 97.4242  10
  -6  -3 -12 192.910 109.871   9
  -6  -3 -12 48.6004 78.2785  16
   6   3  13 1468.43 230.231  21
   6   3  13 1070.51 209.183  20
   6   3  13 1713.70 246.021  19
  -6  -3 -13 1314.28 218.756  16
   6   4  -9 290.276 140.912  15
  -6  -4   9 691.332 179.852  21
  -6  -4   9 448.099 148.075  17
  -6  -4   9 210.327 103.745  16
   6   4  -8-26.1779 92.6953  15
   6   4  -8 182.553 142.407  14
   6   4  -8 184.889 116.032   7
  -6  -4   8 127.853 83.0857  21
  -6  -4   8 214.544 146.384  20
  -6  -4   8 250.150 129.746  19
  -6  -4   8 121.749 116.532  17
  -6  -4   8 52.5323 82.8430   5
  -6  -4   8 57.4763 84.9712  16
   6   4  -7 1454.79 240.159  15
   6   4  -7 1491.85 237.831  14
   6   4  -7 1781.04 259.293   7
  -6  -4   7 1930.54 259.878  21
  -6  -4   7 2305.40 287.562  20
  -6  -4   7 1788.74 251.434  19
  -6  -4   7 1838.94 252.868  17
  -6  -4   7 2162.52 270.766   5
  -6  -4   7 1478.14 221.772  16
   6   4  -6 103.045 91.7264  15
   6   4  -6-41.5575 103.916  14
   6   4  -6-55.2936 99.9943   7
  -6  -4   6-89.1431 107.236  21
  -6  -4   6-12.0497 64.2303  12
  -6  -4   6 118.239 98.2164  20
  -6  -4   6 0.45969 80.2146  19
  -6  -4   6-12.0031 86.9271  17
  -6  -4   6 78.4209 91.4549   5
  -6  -4   6-66.8568 90.1989  16
   6   4  -5 4028.64 349.797   7
   6   4  -5 3824.77 344.156  14
  -6  -4   5 4292.08 341.983  21
  -6  -4   5 4236.40 295.204  12
  -6  -4   5 4459.81 357.509  20
  -6  -4   5 3694.36 328.105  19
  -6  -4   5 4696.37 372.573   5
  -6  -4   5 4344.08 346.344  17
  -6  -4   5 4193.38 334.455  16
   6   4  -5 3691.52 343.280  15
   6   4  -4 839.566 165.563  15
   6   4  -4 793.241 164.391  14
   6   4  -4 796.847 148.594   7
  -6  -4   4 1058.69 167.127  21
  -6  -4   4 1011.57 148.696  12
  -6  -4   4 758.443 149.194  19
  -6  -4   4 1063.90 163.150  17
  -6  -4   4 766.435 155.477   5
  -6  -4   4 1021.88 153.384  16
   6   4  -3-57.2103 83.6394  15
   6   4  -3 5.82480 72.7991  14
   6   4  -3 149.351 108.135   7
  -6  -4   3 0.81810 69.0316  21
  -6  -4   3-53.5960 66.4757  12
   6   4  -3-64.7357 48.5407  11
  -6  -4   3 7.89014 59.6323  19
  -6  -4   3 38.4486 73.1866  17
  -6  -4   3 111.869 92.5302   5
  -6  -4   3-75.7798 75.5278  16
   6   4  -2 1836.37 200.256  14
   6   4  -2 1385.20 186.261   7
  -6  -4   2 1973.71 200.885  21
  -6  -4   2 1690.98 188.808  12
   6   4  -2 1735.03 148.584  11
  -6  -4   2 1629.60 187.626  19
  -6  -4   2 2054.51 203.833  17
  -6  -4   2 1763.49 188.869  16
  -6  -4   2 1691.53 205.612   5
   6   4  -2 1825.43 224.116  15
   6   4  -1 4321.58 305.269   7
   6   4  -1 4235.10 291.060  14
  -6  -4   1 3936.74 273.503  21
  -6  -4   1 3948.67 290.602  12
   6   4  -1 3805.64 225.703  11
  -6  -4   1 4076.46 279.321  10
  -6  -4   1 3997.97 280.799  19
  -6  -4   1 3737.59 200.844   3
  -6  -4   1 3692.31 297.073   5
  -6  -4   1 4093.29 276.937  17
  -6  -4   1 4072.11 272.720  16
   6   4  -1 4083.94 316.614  15
  -6  -4   0-17.4243 40.5504   3
   6   4   0-45.1823 66.7067  15
   6   4   0 26.3631 52.8650  14
   6   4   0-32.8282 59.9584   7
  -6  -4   0-122.774 88.7222  12
  -6  -4   0-46.4819 59.4599  21
   6   4   0 22.6779 53.0405   6
   6   4   0-25.1990 48.9934  11
  -6  -4   0-1.03981 53.9128  10
  -6  -4   0-27.3775 47.6229  19
  -6  -4   0-8.27984 43.6838   9
  -6  -4   0-44.5640 59.5044  17
  -6  -4   0-21.9910 53.2605  16
   6   4   1-6.30856 68.3545  15
   6   4   1-20.7619 58.6594   4
   6   4   1 10.2822 51.6895  14
   6   4   1-21.5416 50.8202   7
  -6  -4  -1 134.797 89.2315  12
  -6  -4  -1-5.93659 56.5068  21
   6   4   1-4.03378 62.4825   6
   6   4   1 126.650 63.5343  11
  -6  -4  -1 38.8546 52.2028  10
  -6  -4  -1 27.1747 56.7792  17
  -6  -4  -1 104.035 55.7374   9
  -6  -4  -1 40.8642 52.7093  16
   6   4   2 4403.06 262.203   7
   6   4   2 4407.40 250.497  14
  -6  -4  -2 4236.05 259.266  21
  -6  -4  -2 3860.94 292.461  12
   6   4   2 4332.03 294.084   6
   6   4   2 3984.76 254.471  11
  -6  -4  -2 4171.62 271.251  10
  -6  -4  -2 4528.74 266.384  17
  -6  -4  -2 4121.12 258.094   9
  -6  -4  -2 4152.25 254.110  16
   6   4   2 4164.00 298.693   4
   6   4   2 4269.48 290.176  15
   6   4   3 3227.04 207.419   7
   6   4   3 3440.19 206.314  14
  -6  -4  -3 3735.25 238.924  21
  -6  -4  -3 3107.33 268.382  12
   6   4   3 3428.51 265.916   6
   6   4   3 3400.31 218.797  20
   6   4   3 3096.35 230.214  11
  -6  -4  -3 3556.54 246.459  10
  -6  -4  -3 3522.26 231.142  17
  -6  -4  -3 3345.75 239.474   9
  -6  -4  -3 3201.62 224.268  16
   6   4   3 3579.15 276.747   4
   6   4   3 3023.34 237.827  15
   6   4   4 1173.72 144.360  15
   6   4   4 1559.41 129.389   7
   6   4   4 1403.45 121.511  14
  -6  -4  -4 1222.62 116.425  14
   6   4   4 1267.66 171.630   4
  -6  -4  -4 1188.13 114.149  13
  -6  -4  -4 1147.92 171.944  12
   6   4   4 1293.45 135.557  20
   6   4   4 1300.11 157.312  11
   6   4   4 1314.63 168.943   6
  -6  -4  -4 1108.35 143.889  10
  -6  -4  -4 1373.73 142.165  17
  -6  -4  -4 1388.82 158.767   9
  -6  -4  -4 1345.13 142.457  16
   6   4   5 9801.43 326.490   7
  -6  -4  -5 8311.43 323.553  14
  -6  -4  -5 9200.83 334.844  13
   6   4   5 9288.04 478.202   6
   6   4   5 9231.64 397.688  20
   6   4   5 9769.39 460.011  11
   6   4   5 9447.16 403.143  19
  -6  -4  -5 10197.4 456.623  10
  -6  -4  -5 9656.17 418.144  17
  -6  -4  -5 9052.65 447.232   9
  -6  -4  -5 9003.28 403.620  16
  -6  -4  -5 8901.96 359.987   8
   6   4   5 9020.28 469.340   4
   6   4   5 9261.22 404.863  15
   6   4   6 1446.91 188.662   4
  -6  -4  -6 1485.95 112.030  13
   6   4   6 1471.97 153.025  20
   6   4   6 1353.95 176.444  11
   6   4   6 1650.80 164.532  19
   6   4   6 1448.61 195.286   6
  -6  -4  -6 1637.62 183.415  10
  -6  -4  -6 1566.58 168.574  17
  -6  -4  -6 1710.90 191.553   9
  -6  -4  -6 1473.40 157.927  16
   6   4   6 1592.40 149.708  15
   6   4   6 1452.35 88.9031   7
   6   4   7-4.78215 35.1665  15
   6   4   7 161.284 93.0618   4
  -6  -4  -7 15.2497 22.5857  13
   6   4   7 8.11472 51.9117  20
   6   4   7 69.6970 71.0798  11
   6   4   7-90.4699 86.1900   6
   6   4   7-23.9621 60.6491  19
  -6  -4  -7 34.9945 68.0618  10
  -6  -4  -7 25.6147 55.8453  17
  -6  -4  -7-11.4145 73.4337   9
  -6  -4  -7-20.6791 49.3715  16
   6   4   8-36.9225 91.6365   4
   6   4   8 82.0194 63.1623  20
   6   4   8 194.354 93.6426  11
   6   4   8 140.263 99.7387   6
   6   4   8 128.217 69.0487  19
  -6  -4  -8 242.591 86.8303  10
  -6  -4  -8 121.523 68.4342  17
  -6  -4  -8 54.3474 80.6696   9
  -6  -4  -8 262.391 101.566  16
   6   4   9 505.124 130.972   4
   6   4   9 487.817 109.675  20
   6   4   9 591.331 129.364  11
   6   4   9 538.454 133.717   6
   6   4   9 573.620 118.756  19
  -6  -4  -9 312.281 102.433  10
  -6  -4  -9 361.527 120.302   9
  -6  -4  -9 456.157 106.221  16
   6   4  10 1941.79 247.234   4
   6   4  10 1766.85 207.131  20
   6   4  10 2031.76 254.292  11
   6   4  10 2017.51 221.765  19
   6   4  10 1786.12 246.321   6
  -6  -4 -10 1926.29 237.657  10
  -6  -4 -10 2279.49 268.821   9
  -6  -4 -10 1807.73 215.767  16
   6   4  11 1540.26 228.763   4
   6   4  11 1406.70 197.228  20
   6   4  11 1589.04 230.121  11
   6   4  11 2063.96 271.858   6
   6   4  11 1505.60 201.586  19
  -6  -4 -11 1578.74 229.432  10
  -6  -4 -11 1762.57 243.127   9
  -6  -4 -11 1691.91 216.199  16
   6   4  12 276.343 115.654   4
   6   4  12 494.121 127.888  21
   6   4  12 370.065 117.421  20
   6   4  12 699.392 170.938  11
   6   4  12 296.320 123.723   6
   6   4  12 232.278 97.5858  19
  -6  -4 -12 377.921 131.414  10
  -6  -4 -12 202.971 119.148   9
  -6  -4 -12 316.120 127.650  16
   6   4  13 472.661 169.430   4
   6   4  13 371.131 117.139  21
   6   4  13 292.834 116.970  20
   6   4  13 246.714 111.537  19
  -6  -4 -13 339.905 122.788  10
  -6  -4 -13 307.453 110.905  16
   6   4  14-69.1669 97.5200  21
   6   4  14-121.218 138.977  20
   6   4  14 169.311 81.3358  19
  -6  -4 -14-108.236 115.755  16
   6   5  -9 247.939 112.887  15
   6   5  -8 525.162 150.495  15
   6   5  -8 924.586 203.750  14
   6   5  -8 897.848 200.593   7
  -6  -5   8 522.747 150.763  21
  -6  -5   8 668.513 176.360  20
  -6  -5   8 822.085 186.038  19
  -6  -5   8 839.432 181.610  17
  -6  -5   8 666.008 169.422   5
   6   5  -7 12.3278 82.6035  15
   6   5  -7-50.5296 91.2077  14
   6   5  -7-69.1101 91.7024   7
  -6  -5   7-18.8715 80.3241  21
  -6  -5   7-321.602 124.244  20
  -6  -5   7-6.24645 87.4076  19
  -6  -5   7 10.7841 83.4506  17
  -6  -5   7 34.4199 78.3015   5
  -6  -5   7-22.0017 69.8885  16
   6   5  -6 1985.63 265.224  15
   6   5  -6 2105.63 268.028  14
   6   5  -6 2228.99 277.349   7
  -6  -5   6 2065.72 223.073  12
  -6  -5   6 1822.09 243.151  20
  -6  -5   6 1836.91 237.250  19
  -6  -5   6 2148.39 254.843  21
  -6  -5   6 1987.66 247.695  17
  -6  -5   6 1802.93 246.525   5
  -6  -5   6 1903.36 239.635  16
   6   5  -5 65.4779 85.8844  15
   6   5  -5-2.12560 87.1129  14
   6   5  -5 137.306 94.8248   7
  -6  -5   5-26.5446 74.2089  21
  -6  -5   5 26.7165 76.8356  12
  -6  -5   5 14.0798 78.4552  20
  -6  -5   5 112.292 81.9640  19
  -6  -5   5-9.41020 71.0709  17
  -6  -5   5-0.23326 79.4288   5
  -6  -5   5 155.656 95.3223  16
   6   5  -4 8437.68 507.193   7
   6   5  -4 7302.31 474.006  14
  -6  -5   4 8171.07 451.190  21
  -6  -5   4 8473.37 454.114  12
  -6  -5   4 7790.11 457.630  20
  -6  -5   4 7261.85 440.205  19
  -6  -5   4 7420.91 479.066   5
  -6  -5   4 6963.33 425.358  17
  -6  -5   4 8115.30 450.809  16
   6   5  -4 8176.56 507.791  15
   6   5  -3 5087.15 372.697   7
   6   5  -3 4997.48 367.810  14
  -6  -5   3 5011.52 333.935  21
  -6  -5   3 4900.92 339.156  12
  -6  -5   3 5701.72 365.208  20
  -6  -5   3 5413.74 350.071  19
  -6  -5   3 6140.72 407.443   5
  -6  -5   3 5336.21 341.957  17
  -6  -5   3 5331.08 336.980  16
   6   5  -3 5326.89 393.000  15
   6   5  -2 648.563 142.652  15
   6   5  -2 757.294 144.446  14
   6   5  -2 610.731 130.044   7
  -6  -5   2 441.830 113.381  12
  -6  -5   2 489.371 104.228  21
   6   5  -2 673.255 80.6067  11
  -6  -5   2 727.823 121.145  19
  -6  -5   2 582.363 114.986  17
  -6  -5   2 488.361 127.683   5
  -6  -5   2 542.320 105.733  16
   6   5  -1 137.576 87.5759  15
   6   5  -1 64.0466 64.9997  14
   6   5  -1 135.400 66.9724   7
  -6  -5   1 170.676 89.8072  12
  -6  -5   1 70.1835 41.5835  21
   6   5  -1 69.4892 41.7698  11
  -6  -5   1 190.568 73.9582  19
  -6  -5   1 172.086 66.2597  17
  -6  -5   1 132.306 84.5938   5
  -6  -5   1 94.8203 59.2007  16
   6   5   0 833.570 142.467  15
  -6  -5   0 772.426 95.6343   3
   6   5   0 1033.95 145.899  14
   6   5   0 914.046 145.365   7
  -6  -5   0 1071.73 158.003  12
  -6  -5   0 998.624 128.350  21
   6   5   0 1111.12 117.857  11
   6   5   0 789.019 136.245   6
  -6  -5   0 908.458 125.220  10
  -6  -5   0 889.927 120.017  19
  -6  -5   0 1084.20 115.070   9
  -6  -5   0 963.672 123.428  17
  -6  -5   0 864.035 112.347  16
  -6  -5   0 676.816 140.132   5
   6   5   1 17.7801 53.4330  15
   6   5   1-20.9325 50.3004  14
   6   5   1-29.0541 56.1548   7
  -6  -5  -1-29.5787 76.6588  13
  -6  -5  -1 122.616 72.1999  12
  -6  -5  -1 52.9286 46.8497  21
   6   5   1 35.2489 71.5083   6
   6   5   1 35.3047 41.0988  11
  -6  -5  -1-8.72628 45.0112  19
  -6  -5  -1-88.2685 57.3050  10
  -6  -5  -1 38.8180 41.7093  17
  -6  -5  -1-11.0653 41.9354   9
  -6  -5  -1 118.989 56.5745  16
   6   5   2 4623.61 281.172   7
   6   5   2 4565.56 280.669  14
  -6  -5  -2 4425.94 282.939  13
  -6  -5  -2 4409.99 249.701  21
  -6  -5  -2 4646.44 330.021  12
   6   5   2 5063.63 330.923   6
   6   5   2 4897.61 270.865  11
  -6  -5  -2 4562.72 269.916  10
  -6  -5  -2 4800.98 256.644  17
  -6  -5  -2 4796.44 269.118   9
  -6  -5  -2 4737.98 251.542  16
   6   5   2 4800.30 324.365   4
   6   5   2 4298.68 305.873  15
   6   5   3 7580.73 352.117   7
   6   5   3 7714.82 362.320  14
  -6  -5  -3 7972.09 372.744  13
  -6  -5  -3 7342.84 315.265  21
  -6  -5  -3 7525.04 332.790  21
  -6  -5  -3 7944.70 438.305  12
   6   5   3 7826.33 430.283   6
  -6  -5  -3 7221.69 313.958  20
   6   5   3 8014.08 373.794  11
  -6  -5  -3 7614.67 318.800  19
  -6  -5  -3 8695.64 378.768  10
  -6  -5  -3 7852.85 336.271  17
  -6  -5  -3 8218.69 378.292   9
  -6  -5  -3 8074.35 336.790  16
   6   5   3 6832.36 315.292  16
   6   5   3 7474.59 419.937   4
   6   5   3 7421.21 399.410  15
   6   5   4 134.667 68.0370  15
   6   5   4 140.474 58.1197  14
   6   5   4 57.0353 59.3474   4
   6   5   4 66.1317 38.1272   7
  -6  -5  -4 114.447 53.5519  13
  -6  -5  -4 121.819 53.3341  21
  -6  -5  -4 47.6792 74.7689  12
  -6  -5  -4 100.695 46.1070  21
   6   5   4 58.5230 39.7737  20
  -6  -5  -4 87.3394 43.9188  20
   6   5   4 12.3453 60.4955   6
   6   5   4 191.852 84.2566  11
  -6  -5  -4 78.3384 43.6425  19
  -6  -5  -4 118.462 59.4825  10
  -6  -5  -4 153.992 55.3307  17
  -6  -5  -4 109.910 55.4514   9
  -6  -5  -4 58.3243 45.3546  16
   6   5   5 101.953 58.0172  15
   6   5   5 77.6375 39.0436  14
   6   5   5 71.1123 44.3623   7
   6   5   5 42.3381 59.5992   4
  -6  -5  -5-12.2626 40.9816  13
  -6  -5  -5 107.642 49.5041   7
  -6  -5  -5 127.381 85.1562  12
   6   5   5 5.13173 37.5723  20
   6   5   5 138.695 93.2989   6
   6   5   5-63.4201 76.9617  11
  -6  -5  -5 46.3660 55.8650  10
  -6  -5  -5 63.9876 56.7180  17
  -6  -5  -5 19.4908 58.6330   9
  -6  -5  -5 115.782 47.2010  16
   6   5   6 534.912 95.3154  15
   6   5   6 657.712 128.224   4
  -6  -5  -6 593.328 90.4174  13
  -6  -5  -6 763.935 156.839  12
   6   5   6 579.317 89.1843  20
   6   5   6 702.345 131.535  11
   6   5   6 592.056 136.841   6
   6   5   6 753.949 100.712  19
  -6  -5  -6 574.884 107.999  10
  -6  -5  -6 727.270 103.171  17
  -6  -5  -6 681.143 132.068   9
  -6  -5  -6 570.604 90.8270  16
   6   5   6 677.305 75.2086   7
  -6  -5  -7 4503.34 241.669  13
   6   5   7 5295.93 379.150   6
   6   5   7 4938.16 274.786  20
   6   5   7 4840.81 342.380  11
   6   5   7 4544.35 268.219  19
  -6  -5  -7 5340.36 329.676  10
  -6  -5  -7 4738.19 282.177  17
  -6  -5  -7 4744.03 339.330   9
  -6  -5  -7 4445.06 271.226  16
   6   5   7 4373.27 333.000   4
   6   5   7 4099.98 254.475  15
  -6  -5  -8 2077.68 155.441  13
   6   5   8 2087.49 186.756  20
   6   5   8 2131.64 242.083  11
   6   5   8 2010.08 182.269  19
   6   5   8 1756.75 220.619   6
  -6  -5  -8 2169.60 220.804  10
  -6  -5  -8 2043.96 190.759  17
  -6  -5  -8 1800.49 221.743   9
  -6  -5  -8 2064.29 190.875  16
   6   5   8 1905.24 160.674  15
   6   5   8 2173.72 238.506   4
   6   5   9-31.1931 67.8507   4
   6   5   9 13.3680 46.5577  20
   6   5   9-74.7279 102.490  11
   6   5   9 132.097 105.325   6
   6   5   9-23.6675 45.5103  19
  -6  -5  -9-16.5930 63.6670  10
  -6  -5  -9 12.1383 91.0234   9
  -6  -5  -9 8.25434 59.9893  16
   6   5  10 5784.09 439.231   6
   6   5  10 4869.22 333.213  20
   6   5  10 5440.86 417.294  11
   6   5  10 5391.20 345.826  19
  -6  -5 -10 5165.79 381.250  10
  -6  -5 -10 5511.76 419.820   9
  -6  -5 -10 5178.96 346.811  16
   6   5  10 5430.67 339.745   8
   6   5  10 6083.41 430.786   4
   6   5  11-44.7105 89.5604   4
   6   5  11 23.1566 65.0418  20
   6   5  11 103.005 96.5821  11
   6   5  11 34.5064 86.6922   6
   6   5  11 157.357 83.9362  19
  -6  -5 -11 130.713 95.1330  10
  -6  -5 -11 16.3338 88.5231   9
  -6  -5 -11-2.21712 56.2066  16
   6   5  12 200.619 113.787   4
   6   5  12 288.252 101.767  21
   6   5  12 74.7833 78.0153  20
   6   5  12 333.854 146.904  11
   6   5  12 187.529 105.955   6
   6   5  12 73.6783 71.2143  19
  -6  -5 -12 48.5359 75.7190  10
  -6  -5 -12 224.487 127.920   9
  -6  -5 -12-33.6008 89.6012  16
   6   5  13-4.91474 71.8167   4
  -6  -5 -13-50.3510 79.6828  10
   6   6  -8-2.66309 73.3066  15
  -6  -6   8 125.656 113.380  21
  -6  -6   8 231.569 114.949  20
  -6  -6   8-9.88240 87.7639  19
  -6  -6   8 8.38790 64.9313  17
   6   6  -7 119.377 80.2717  15
   6   6  -7 175.945 128.837  14
   6   6  -7 572.505 169.654   7
  -6  -6   7 180.206 81.2767  21
  -6  -6   7 512.203 158.796  20
  -6  -6   7 293.569 116.691  19
  -6  -6   7 212.242 109.233  17
  -6  -6   7 382.576 140.900   5
   6   6  -6 73.1700 80.6812  15
   6   6  -6-70.3574 92.8950  14
   6   6  -6 26.6842 92.0188   7
  -6  -6   6 20.6449 79.9093  21
  -6  -6   6 15.5829 81.3500  12
  -6  -6   6 27.6654 56.3549  20
  -6  -6   6 84.8885 93.9855  19
  -6  -6   6-43.3459 73.3917  17
  -6  -6   6 121.694 106.216   5
   6   6  -5 351.100 134.097  15
   6   6  -5 444.913 139.127  14
   6   6  -5 553.475 164.862   7
  -6  -6   5 488.778 125.154  12
  -6  -6   5 534.223 131.549  21
  -6  -6   5 610.682 136.764  20
  -6  -6   5 892.458 161.761  19
  -6  -6   5 643.426 135.559  17
  -6  -6   5 535.345 151.372   5
  -6  -6   5 530.179 131.861  16
   6   6  -4 1100.46 199.237  15
   6   6  -4 1080.20 188.591  14
   6   6  -4 1107.05 194.458   7
  -6  -6   4 925.441 158.832  12
  -6  -6   4 898.048 148.160  21
  -6  -6   4 1406.74 187.483  20
  -6  -6   4 1096.88 165.267  19
  -6  -6   4 1014.54 160.345  17
  -6  -6   4 909.256 180.135   5
  -6  -6   4 1184.53 171.246  16
   6   6  -3 4364.72 352.415   7
   6   6  -3 4668.30 367.921  14
  -6  -6   3 4658.64 308.261  21
  -6  -6   3 4222.29 329.862  12
  -6  -6   3 4034.62 301.552  20
  -6  -6   3 4744.30 317.962  19
  -6  -6   3 4512.39 366.293   5
  -6  -6   3 4332.55 300.248  17
  -6  -6   3 4327.90 300.842  16
   6   6  -3 4594.76 374.745  15
   6   6  -2 6629.08 426.821   7
   6   6  -2 5945.23 405.646  14
  -6  -6   2 6167.39 343.198  21
  -6  -6   2 6078.71 398.949  12
  -6  -6   2 6115.30 352.380  20
  -6  -6   2 6435.90 357.248  19
  -6  -6   2 6017.21 412.875   5
  -6  -6   2 5865.30 333.136  17
  -6  -6   2 6164.71 339.316  16
   6   6  -2 5858.63 417.226  15
   6   6  -1 3286.78 283.800   7
   6   6  -1 3484.96 292.987  14
  -6  -6   1 3548.17 237.261  21
  -6  -6   1 3273.02 286.273  12
  -6  -6   1 3251.64 232.581  20
  -6  -6   1 3551.30 241.717  19
  -6  -6   1 3111.95 285.270   5
  -6  -6   1 3112.56 219.809  17
  -6  -6   1 3220.65 226.018  16
   6   6  -1 3400.95 303.755  15
   6   6   0 629.727 137.551  15
   6   6   0 459.486 115.968  14
   6   6   0 582.197 122.731   7
  -6  -6   0 567.053 130.347  13
  -6  -6   0 701.519 149.684  12
  -6  -6   0 707.081 97.9608  21
   6   6   0 547.968 74.7139  11
  -6  -6   0 507.353 86.0194  19
  -6  -6   0 695.828 98.9265  17
  -6  -6   0 525.406 73.2715   9
  -6  -6   0 645.741 95.7686  16
  -6  -6   0 518.666 134.972   5
   6   6   1 1705.92 203.135  15
   6   6   1 1697.10 183.098   7
   6   6   1 1831.98 198.071  14
  -6  -6  -1 1442.39 180.328  13
  -6  -6  -1 1727.31 142.262  21
  -6  -6  -1 1514.94 200.814  12
   6   6   1 1738.92 143.401  11
   6   6   1 1376.16 190.492   6
  -6  -6  -1 1666.53 150.967  10
  -6  -6  -1 1939.54 153.117  19
  -6  -6  -1 1549.17 132.775  17
  -6  -6  -1 1519.19 134.483   9
  -6  -6  -1 1782.67 142.124  16
  -6  -6  -1 1386.58 186.048   5
   6   6   2 12989.2 544.850   7
   6   6   2 13874.4 567.764  14
  -6  -6  -2 13275.0 560.795  13
  -6  -6  -2 13247.8 442.736  21
  -6  -6  -2 13142.2 606.276  12
   6   6   2 12998.9 601.075   6
   6   6   2 13890.9 494.756  11
  -6  -6  -2 13550.3 487.934  10
  -6  -6  -2 13636.1 450.896  19
  -6  -6  -2 13897.8 448.105  17
  -6  -6  -2 13745.2 488.177   9
  -6  -6  -2 13835.8 441.801  16
   6   6   2 12912.5 591.610  15
   6   6   3 1729.13 195.336  15
   6   6   3 1565.63 167.108   7
   6   6   3 1482.94 168.003  14
   6   6   3 1549.58 189.913   4
  -6  -6  -3 1626.62 175.291  13
  -6  -6  -3 1686.46 124.726  21
  -6  -6  -3 1525.34 198.952  12
   6   6   3 1464.72 156.109  11
   6   6   3 1476.91 195.432   6
  -6  -6  -3 1334.80 135.261  10
  -6  -6  -3 1614.62 125.591  19
  -6  -6  -3 1658.23 123.653  17
  -6  -6  -3 1505.27 155.294   9
  -6  -6  -3 2009.10 134.575  16
   6   6   4 9083.75 400.177   7
   6   6   4 8766.33 418.341  14
  -6  -6  -4 9069.57 424.394  13
  -6  -6  -4 9514.10 331.872  21
  -6  -6  -4 8843.10 487.043  12
   6   6   4 9096.64 497.636   6
   6   6   4 8740.75 418.126  11
  -6  -6  -4 9001.37 383.508  10
  -6  -6  -4 9632.85 332.576  17
  -6  -6  -4 9353.10 426.880   9
  -6  -6  -4 9186.12 324.462  16
   6   6   4 8929.02 466.305   4
   6   6   4 8570.68 449.197  15
   6   6   5 37.2915 64.7766  15
   6   6   5-0.88044 57.5611  14
   6   6   5 146.782 53.6052   7
   6   6   5 35.8556 61.6824   4
  -6  -6  -5-22.4065 52.7149  13
  -6  -6  -5-18.5982 83.3010  12
  -6  -6  -5-38.2263 28.9833  21
   6   6   5-6.57416 30.5067  20
   6   6   5 91.1790 83.8241   6
   6   6   5 67.6687 65.4479  11
  -6  -6  -5 24.7469 41.3961  10
  -6  -6  -5 6.19040 32.4681  17
  -6  -6  -5-2.54163 65.1720   9
  -6  -6  -5 7.99687 33.1740  16
   6   6   6 1099.68 163.750   4
  -6  -6  -6 1147.21 140.860  13
  -6  -6  -6 747.012 156.451  12
   6   6   6 1034.25 101.184  20
   6   6   6 955.947 159.693   6
   6   6   6 797.477 137.237  11
  -6  -6  -6 930.066 126.207  10
  -6  -6  -6 1205.00 114.296  17
  -6  -6  -6 1103.70 155.853   9
  -6  -6  -6 1147.56 108.601  16
   6   6   6 1027.13 141.661  15
   6   6   7 402.856 118.583   4
  -6  -6  -7 406.465 85.0218  13
  -6  -6  -7 240.000 106.932  12
   6   6   7 381.747 66.9742  20
   6   6   7 351.764 114.028   6
   6   6   7 608.568 129.327  11
   6   6   7 311.241 64.2441  19
  -6  -6  -7 447.467 99.1759  10
  -6  -6  -7 359.619 66.4178  17
  -6  -6  -7 428.402 112.355   9
  -6  -6  -7 382.314 76.4205  16
   6   6   7 442.979 91.5635  15
  -6  -6  -8 2088.88 185.546  13
   6   6   8 2973.07 298.353   6
   6   6   8 2823.93 279.426  11
  -6  -6  -8 2289.12 251.883  12
  -6  -6  -8 2624.54 232.349  10
  -6  -6  -8 2585.22 197.415  17
  -6  -6  -8 2549.10 264.822   9
   6   6   8 2498.08 260.756   4
   6   6   9 68.4833 79.5768   4
   6   6   9 25.9497 67.9088   6
   6   6   9 26.0116 71.7851  11
  -6  -6  -9 164.647 77.5764  10
  -6  -6  -9 36.4893 73.4583   9
   6   6  10-55.0918 104.313   4
   6   6  10-11.2046 67.7866   6
   6   6  10 142.623 88.2841  11
  -6  -6 -10 111.760 81.2876  10
  -6  -6 -10-4.68614 82.6070   9
   6   6  10-24.7465 61.1314   8
   6   6  11 88.9971 91.0815   4
   6   6  11 121.670 114.203   6
   6   6  11 241.885 130.252  11
  -6  -6 -11 94.5923 102.414  10
  -6  -6 -11-67.4378 116.509   9
   6   6  11 395.147 107.587   8
   6   6  12 1808.93 256.504   4
   6   6  12 1728.08 264.367   6
   6   6  12 2098.88 285.378  11
  -6  -6 -12 1720.86 237.927  10
  -6  -6 -12 2132.75 287.221   9
   6   6  13 805.510 180.581   4
  -6  -6 -13 713.265 166.547  10
  -6  -7   7 3874.23 355.360  21
  -6  -7   7 4055.55 361.773  12
  -6  -7   7 3854.23 364.340  20
  -6  -7   7 3507.58 343.892  19
  -6  -7   7 3808.53 353.243  17
   6   7  -7 4745.96 433.278  15
   6   7  -6 48.7704 107.271  15
   6   7  -6 67.9062 89.8441  14
   6   7  -6-67.1021 89.3383   7
  -6  -7   6-20.7151 89.8269  21
  -6  -7   6-64.3026 90.6254  12
  -6  -7   6 39.3379 73.7997  20
  -6  -7   6 1.74022 67.8764  19
  -6  -7   6 44.3875 72.7008  17
  -6  -7   6-45.9230 103.427   5
   6   7  -5 1975.74 272.526  15
   6   7  -5 1644.30 245.774  14
   6   7  -5 1996.45 275.341   7
  -6  -7   5 1988.23 226.154  21
  -6  -7   5 1451.74 215.284  12
  -6  -7   5 1910.08 229.296  20
  -6  -7   5 1552.63 205.522  19
  -6  -7   5 1845.20 216.116  17
  -6  -7   5 1591.13 245.325   5
   6   7  -4-49.4798 95.5130  15
   6   7  -4 51.2714 78.0192  14
   6   7  -4-8.11672 92.8893   7
  -6  -7   4 56.6999 79.5781  12
  -6  -7   4 61.5449 64.7400  21
  -6  -7   4-81.1943 74.1465  20
  -6  -7   4-50.5326 58.0389  19
  -6  -7   4-34.7317 54.9148  17
  -6  -7   4 54.5399 94.3362   5
   6   7  -3 2222.23 263.063   7
   6   7  -3 2408.19 279.264  14
  -6  -7   3 2458.13 219.876  21
  -6  -7   3 1960.08 237.337  12
  -6  -7   3 1986.99 204.954  20
  -6  -7   3 2346.88 212.581  19
  -6  -7   3 1879.60 193.654  17
  -6  -7   3 2244.41 267.269   5
   6   7  -3 2223.59 275.765  15
   6   7  -2 2264.21 269.897  15
   6   7  -2 2449.32 272.234  14
   6   7  -2 2142.85 254.436   7
  -6  -7   2 2327.90 198.682  21
  -6  -7   2 2199.76 254.719  12
  -6  -7   2 2412.75 205.378  20
  -6  -7   2 2253.94 195.744  19
  -6  -7   2 2238.06 198.160  17
  -6  -7   2 2200.28 259.799   5
   6   7  -1 4603.46 360.968   7
   6   7  -1 4441.77 351.937  14
  -6  -7   1 4118.99 349.240  13
  -6  -7   1 4850.50 265.244  21
  -6  -7   1 4427.55 352.869  12
  -6  -7   1 4910.15 274.235  20
  -6  -7   1 4921.85 270.207  19
  -6  -7   1 5298.10 385.705   5
  -6  -7   1 4635.19 259.483  17
   6   7  -1 4367.07 368.864  15
   6   7   0 1999.79 235.026  15
   6   7   0 2464.52 253.475   7
   6   7   0 2217.26 238.493  14
  -6  -7   0 2190.78 244.546  13
  -6  -7   0 2706.99 272.167  12
  -6  -7   0 2523.94 172.940   3
  -6  -7   0 2354.86 250.304   5
   6   7   1 480.500 119.642  15
   6   7   1 219.186 96.9360  14
   6   7   1 385.484 87.8553   7
  -6  -7  -1 181.038 81.7970  13
  -6  -7  -1 361.189 105.783  12
   6   7   1 484.973 74.4058  11
  -6  -7  -1 284.093 60.7564   9
  -6  -7  -1 322.361 89.3298   5
   6   7   2 32894.2 1056.56   7
   6   7   2 33402.5 1080.60  14
  -6  -7  -2 32157.4 1069.73  13
  -6  -7  -2 31619.5 1111.74  12
   6   7   2 34012.4 1140.15   6
   6   7   2 35740.6 937.706  11
  -6  -7  -2 34117.2 884.503  10
  -6  -7  -2 33037.8 1090.76   5
  -6  -7  -2 35489.4 927.072   9
   6   7   2 32878.0 1114.25  15
   6   7   3 12493.8 549.315   7
   6   7   3 13125.7 584.766  14
  -6  -7  -3 13652.2 589.898  13
  -6  -7  -3 12207.0 610.118  12
   6   7   3 13178.0 635.367   6
   6   7   3 13246.3 507.039  11
  -6  -7  -3 13433.3 448.429  10
  -6  -7  -3 13750.8 506.340   9
   6   7   3 13197.3 613.780  15
   6   7   4 8198.03 434.406  14
  -6  -7  -4 7375.09 414.474  13
  -6  -7  -4 8290.19 481.485  12
   6   7   4 7775.95 474.121   6
   6   7   4 7552.87 387.824  11
  -6  -7  -4 7983.82 329.065  10
  -6  -7  -4 8156.62 391.328   9
   6   7   4 7684.09 435.619   4
   6   7   4 8215.54 457.667  15
   6   7   4 7925.13 401.522   7
   6   7   5 783.928 151.647   4
   6   7   5 708.014 109.497   7
   6   7   5 736.726 129.665  14
  -6  -7  -5 610.106 121.022  13
  -6  -7  -5 691.232 147.924  12
   6   7   5 697.670 153.511   6
   6   7   5 640.571 119.163  11
  -6  -7  -5 740.973 103.864  10
  -6  -7  -5 934.048 140.799   9
   6   7   5 758.311 131.589  15
  -6  -7  -6 4888.33 320.636  13
  -6  -7  -6 4011.59 340.746  12
   6   7   6 4972.01 380.680   6
   6   7   6 5062.81 340.224  11
  -6  -7  -6 4536.84 263.841  10
  -6  -7  -6 4474.75 317.237   9
   6   7   6 4760.29 337.912   4
   6   7   6 4547.92 325.489  15
   6   7   7 1654.74 200.969   4
  -6  -7  -7 1758.82 187.741  13
  -6  -7  -7 1522.17 216.331  12
   6   7   7 1700.51 232.212   6
   6   7   7 1737.26 205.327  11
  -6  -7  -7 1948.42 178.277  10
  -6  -7  -7 1582.00 198.911   9
   6   7   7 1324.06 170.940  15
  -6  -7  -8 7873.76 422.928  13
  -6  -7  -8 7684.45 480.748  12
   6   7   8 8829.63 536.992   6
   6   7   8 8520.40 497.397  11
  -6  -7  -8 8699.20 424.055  10
  -6  -7  -8 8034.75 479.404   9
   6   7   8 8232.92 475.378   4
   6   7   9 1811.05 223.854   4
  -6  -7  -9 1966.07 199.133  13
  -6  -7  -9 1703.90 227.372  12
   6   7   9 1765.45 246.191   6
   6   7   9 1761.56 234.420  11
  -6  -7  -9 2079.11 208.239  10
  -6  -7  -9 1590.34 221.784   9
   6   7  10 16.0343 64.9599   4
   6   7  10 197.651 94.2704   6
   6   7  10 201.611 111.451  11
  -6  -7 -10 45.7584 59.3102  10
  -6  -7 -10 87.3153 90.3317   9
   6   7  11 500.472 146.359   4
   6   7  11 232.710 102.400   6
   6   7  11 283.292 123.659  11
  -6  -7 -11 243.890 103.338  10
  -6  -7 -11 478.731 147.426   9
   6   7  11 445.509 127.878   8
   6   7  12 230.573 82.2023   4
   6   7  12 489.914 164.123   6
  -6  -7 -12 330.686 137.231   2
  -6  -7 -12 390.666 123.064  10
   6   7  12 351.805 133.938   8
   6   7  13 3150.01 342.268   4
  -6  -8   7 334.904 111.821  12
  -6  -8   6 1521.98 235.987  12
   6   8  -5 384.192 124.252  15
   6   8  -5 690.595 173.931  14
   6   8  -5 648.023 172.712   7
  -6  -8   5 635.358 168.192  12
  -6  -8   5 975.058 191.888   5
   6   8  -4 14.6975 77.9180  15
   6   8  -4 286.663 134.464  14
   6   8  -4 273.481 126.819   7
  -6  -8   4 352.703 120.867  12
  -6  -8   4 192.223 121.620   5
   6   8  -3 333.142 149.137  15
   6   8  -3 333.311 139.207  14
   6   8  -3 612.734 168.559   7
  -6  -8   3 334.322 104.359  12
  -6  -8   3 357.520 135.741   5
   6   8  -2 175.751 105.224  15
   6   8  -2-35.1761 87.4126  14
   6   8  -2-26.6290 77.2325   7
  -6  -8   2-40.1667 83.0680  13
  -6  -8   2-51.4729 91.6680  12
  -6  -8   2-275.453 116.228   5
   6   8  -1 4133.70 361.737   7
   6   8  -1 3922.47 353.153  14
  -6  -8   1 4009.56 357.734  13
  -6  -8   1 4052.22 301.351   2
  -6  -8   1 3600.66 338.546  12
  -6  -8   1 3812.17 338.048   5
   6   8  -1 4336.63 374.403  15
   6   8   0 40.3935 103.882  15
   6   8   0-44.4003 80.0326  14
   6   8   0 0.21582 87.6751   7
  -6  -8   0-74.3081 108.038  13
  -6  -8   0-37.3601 95.5866  12
  -6  -8   0 60.6992 69.8778   2
  -6  -8   0 68.2477 89.9116   5
   6   8   1 515.130 136.370  15
   6   8   1 600.077 147.553  14
   6   8   1 502.460 122.477   7
  -6  -8  -1 381.732 124.108  13
  -6  -8  -1 455.005 130.612  12
  -6  -8  -1 585.834 103.032   3
  -6  -8  -1 579.532 133.662   5
   6   8   2 982.436 178.184  14
   6   8   2 618.818 136.889   7
  -6  -8  -2 854.427 156.198  13
  -6  -8  -2 933.827 178.681  12
  -6  -8  -2 786.309 123.516   3
  -6  -8  -2 976.031 170.163   5
   6   8   2 825.950 169.478  15
   6   8   3 22.0707 54.3297   7
   6   8   3 52.6740 78.3174  14
  -6  -8  -3 37.9236 67.4242  13
  -6  -8  -3-76.6257 97.3711  12
   6   8   3 108.091 92.0249   6
  -6  -8  -3 196.476 79.7937   3
  -6  -8  -3 149.031 61.5732   9
  -6  -8  -3 145.797 77.2737   5
   6   8   3 253.142 123.277  15
   6   8   4 5.98789 72.7335   7
   6   8   4-69.2145 70.5608  14
  -6  -8  -4 68.4343 70.0318  13
  -6  -8  -4 130.353 85.3927  12
   6   8   4 3.83640 67.0001   6
   6   8   4-31.8660 60.3661  11
  -6  -8  -4 64.3920 45.9064   9
  -6  -8  -4 11.1078 59.9327   5
   6   8   4 29.9890 73.4932  15
   6   8   5 646.592 128.110   4
  -6  -8  -5 671.627 137.354  13
   6   8   5 1013.08 175.867   6
   6   8   5 825.781 136.405  11
  -6  -8  -5 805.100 156.703  12
  -6  -8  -5 737.111 125.778   9
   6   8   5 1074.77 177.939  15
   6   8   6 1168.97 174.575   4
  -6  -8  -6 1207.09 176.522  13
  -6  -8  -6 1306.75 200.528  12
   6   8   6 1452.74 217.419   6
   6   8   6 1571.41 188.554  11
  -6  -8  -6 1199.48 168.403   9
   6   8   6 1051.49 169.522  15
  -6  -8  -7 3663.94 307.236  13
  -6  -8  -7 3646.15 333.929  12
   6   8   7 3895.66 356.785   6
   6   8   7 4178.33 334.757  11
  -6  -8  -7 4019.15 320.193   9
   6   8   7 4009.61 318.032   4
   6   8   8 68.9011 64.8420   4
  -6  -8  -8 176.494 79.5627  13
  -6  -8  -8-73.5494 91.0815  12
   6   8   8 75.7307 107.712   6
   6   8   8 33.4284 67.3903  11
  -6  -8  -8 72.4575 65.0946   9
   6   8   9-158.687 84.6752   4
  -6  -8  -9 89.9884 67.6550  13
  -6  -8  -9 130.251 96.6882  12
   6   8   9 107.705 76.5556   6
   6   8   9-49.0138 116.559  11
  -6  -8  -9 115.058 104.368   2
  -6  -8  -9 171.118 95.9882   9
   6   8  10 70.1166 72.7188   4
  -6  -8 -10 34.3082 79.5975  12
   6   8  10-88.6710 140.860   6
   6   8  10 163.412 111.990  11
  -6  -8 -10 8.47823 89.2020   2
  -6  -8 -10 102.678 97.8742   9
   6   8  11 862.284 159.159   4
   6   8  11 733.401 181.963   6
  -6  -8 -11 529.625 166.387   2
  -6  -8 -11 439.290 142.428   9
   6   8  12 973.370 197.561   8
  -6  -9   4 1196.34 220.360  12
  -6  -9   4 829.358 195.574   5
   6   9  -3 671.242 184.235   7
   6   9  -3 956.193 206.298  14
  -6  -9   3 867.724 196.776  13
  -6  -9   3 997.754 193.418  12
  -6  -9   3 1046.10 214.940   5
   6   9  -3 1027.59 219.122  15
   6   9  -2 3007.05 336.644   7
   6   9  -2 2618.67 315.418  14
  -6  -9   2 2401.69 305.890  13
  -6  -9   2 2761.45 319.079  12
  -6  -9   2 2637.07 300.271   5
   6   9  -2 2489.18 309.557  15
   6   9  -1 705.341 167.914   7
   6   9  -1 468.494 147.931  14
  -6  -9   1 472.711 155.290  13
  -6  -9   1 605.719 147.395  12
  -6  -9   1 487.311 145.626   5
   6   9  -1 730.083 176.976  15
   6   9   0 258.895 113.446   7
   6   9   0 61.3079 76.3328  14
  -6  -9   0 143.090 97.4957  13
  -6  -9   0 89.9133 95.2978  12
  -6  -9   0 163.482 84.4495   2
  -6  -9   0 258.152 108.267   5
   6   9   0 365.619 143.096  15
   6   9   1 126.475 79.0809   7
   6   9   1 8.40408 83.1478  14
  -6  -9  -1 39.6382 94.9502  13
  -6  -9  -1-38.9541 110.946  12
  -6  -9  -1 5.39945 69.1748   2
  -6  -9  -1-2.31624 72.6436   5
   6   9   1 161.544 95.2611  15
   6   9   2 2494.10 280.311  14
  -6  -9  -2 2072.13 258.398  13
  -6  -9  -2 2394.29 277.947  12
  -6  -9  -2 2230.84 218.831   3
  -6  -9  -2 1950.10 240.065   2
  -6  -9  -2 2376.19 251.812   5
   6   9   2 2523.63 293.492  15
   6   9   2 2251.11 261.281   7
   6   9   3 940.337 169.119   7
   6   9   3 1036.93 185.862  14
  -6  -9  -3 749.215 154.683  13
  -6  -9  -3 978.473 179.212  12
  -6  -9  -3 712.537 156.111   2
  -6  -9  -3 1065.02 161.812   3
  -6  -9  -3 1067.74 170.099   5
   6   9   3 1040.83 192.974  15
   6   9   4 1566.27 208.569   7
   6   9   4 1608.19 219.004  14
  -6  -9  -4 1360.72 209.779  13
  -6  -9  -4 1317.46 209.711  12
   6   9   4 1717.86 241.346   6
  -6  -9  -4 1209.01 205.214   2
  -6  -9  -4 1432.33 195.805   3
  -6  -9  -4 1402.40 192.165   5
   6   9   4 1748.14 243.503  15
  -6  -9  -5 1280.62 195.741  13
  -6  -9  -5 2115.73 262.918  12
  -6  -9  -5 2200.23 246.653   3
   6   9   5 1944.39 254.776   6
  -6  -9  -5 1727.54 246.160   2
  -6  -9  -5 1752.11 207.218   5
  -6  -9  -5 1659.45 188.849   9
   6   9   5 1371.43 218.772  15
  -6  -9  -6 882.521 163.837  13
  -6  -9  -6 1342.93 217.712  12
   6   9   6 965.535 196.592   6
  -6  -9  -6 1463.86 232.545   2
  -6  -9  -6 1300.09 200.250   3
  -6  -9  -6 1247.33 172.433   9
   6   9   7 340.803 96.0107   4
  -6  -9  -7 388.701 113.922  13
  -6  -9  -7 348.277 121.552  12
   6   9   7 427.074 135.359   6
  -6  -9  -7 740.570 180.794   2
  -6  -9  -7 315.290 112.869   3
  -6  -9  -7 395.881 112.202   9
  -6  -9  -8 55.1395 77.3229  13
  -6  -9  -8-7.82270 72.8286  12
   6   9   8 70.6064 83.4988   6
  -6  -9  -8-42.2025 109.592   2
  -6  -9  -8 108.812 81.4678   9
  -6  -9  -9 494.954 129.931  13
  -6  -9  -9-13.4799 117.018  12
   6   9   9 376.533 131.342   6
  -6  -9  -9 540.648 170.458   2
  -6  -9  -9 379.137 119.594   9
  -6  -9 -10-108.747 76.7816  13
  -6  -9 -10-22.5989 94.8708  12
   6   9  10-75.4701 104.386   6
  -6  -9 -10 158.210 94.1655   9
  -6 -10   2 4257.16 397.772   5
   6  10  -1 539.132 163.043   7
   6  10  -1 418.311 154.624  14
  -6 -10   1 335.022 110.047   5
   6  10   0 9328.35 611.630  14
  -6 -10   0 8562.97 589.627  13
  -6 -10   0 8740.62 590.661  12
  -6 -10   0 7925.30 523.616   5
   6  10   0 9091.72 614.512  15
   6  10   0 8056.72 565.126   7
   6  10   1 56.6861 75.7510   7
   6  10   1 53.4235 88.5773  14
  -6 -10  -1 87.7096 83.1543  13
  -6 -10  -1 5.73854 87.5738  12
  -6 -10  -1 137.278 85.1943   2
  -6 -10  -1 115.989 90.7329   5
   6  10   1 90.5591 111.078  15
   6  10   2 3417.88 357.825  14
  -6 -10  -2 3083.39 338.159  13
  -6 -10  -2 3444.38 361.982  12
  -6 -10  -2 3116.15 325.198   2
  -6 -10  -2 3307.22 308.188   5
   6  10   2 3349.23 363.765  15
   6  10   2 2864.94 319.984   7
   6  10   3 2399.98 296.466  14
  -6 -10  -3 1920.52 269.438  13
  -6 -10  -3 1782.63 261.269  12
  -6 -10  -3 1931.92 265.636   2
  -6 -10  -3 1944.91 232.745   5
   6  10   3 2295.96 294.458  15
   6  10   4 2233.42 283.242  14
  -6 -10  -4 2034.29 264.631  13
  -6 -10  -4 2831.86 320.315  12
  -6 -10  -4 1826.66 232.400   3
  -6 -10  -4 2434.51 298.767   2
   6  10   4 2115.21 285.993  15
  -6 -10  -5 4189.05 380.562  13
  -6 -10  -5 4100.65 394.587   2
  -6 -10  -5 4430.09 404.583  12
  -6 -10  -5 4476.69 375.733   3
  -6 -10  -6 1716.31 245.345  13
  -6 -10  -6 1838.94 265.696  12
   6  10   6 1585.30 249.094   6
  -6 -10  -6 1681.57 256.683   2
  -6 -10  -6 1683.17 241.651   3
  -6 -10  -7 214.312 107.457  13
  -6 -10  -7 201.169 116.397  12
   6  10   7-60.5912 84.8339   6
  -6 -10  -7 179.471 111.869   2
  -6 -10  -7 48.8394 80.5630   3
  -6 -10  -8 104.739 78.5866  13
  -6 -10  -8-24.3838 82.0441  12
   6  10   8 238.715 120.021   6
  -6 -10  -8 116.754 96.3546   9
  -6 -10  -9 53.1670 78.6336  13
  -6 -10  -9 129.379 105.931  12
   6  10   9 56.5430 105.001   6
  -6 -10  -9 29.3185 74.9813   9
  -6 -10 -10 673.343 160.314  13
  -6 -11  -2 1532.64 241.637   2
  -6 -11  -3 1044.21 210.820   2
  -6 -11  -4 1699.84 258.322   2
  -6 -11  -5 458.139 128.189   3
  -6 -11  -6 199.729 91.3978   3
  -7   4   0 105.049 100.427  18
  -7   4  -1 1151.24 215.715  18
   7  -3  -4 256.744 137.782   3
   7  -3  -3 140.270 109.228   3
   7  -3  -2 34.4823 143.507   3
  -7   3   2 272.885 140.893  10
  -7   3   2 159.209 122.757  18
  -7   3   2 16.3177 95.1343   1
   7  -3  -1-115.278 148.080   3
  -7   3   1 41.2310 79.4012  21
  -7   3   1-29.3289 97.2731  10
  -7   3   1-54.5792 80.3671  18
  -7   3   1-30.3045 116.463   1
  -7   3   1 113.558 104.478  17
  -7   3   1 193.986 114.450  16
   7  -3   0 33.0964 111.825   3
  -7   3   0-6.65664 92.8349  21
   7  -3   0-114.354 117.021  20
  -7   3   0-250.734 116.669  10
  -7   3   0-25.3992 94.2244  18
  -7   3   0-19.0926 121.787   1
  -7   3   0-27.1823 92.5178  17
  -7   3   0-62.3174 90.5174  16
   7  -3   1 412.405 144.653   3
  -7   3  -1 530.913 173.375  21
   7  -3   1 574.494 159.630  20
  -7   3  -1 236.770 123.634  10
  -7   3  -1 219.817 130.618  18
  -7   3  -1 522.592 186.813   1
  -7   3  -1 412.439 137.969  17
  -7   3  -1 529.823 161.739  16
   7  -3   2 1051.81 221.664   3
  -7   3  -2 1026.93 211.081  21
   7  -3   2 595.814 168.306  20
   7  -3   2 1144.18 213.547  11
  -7   3  -2 652.589 163.452  10
  -7   3  -2 517.373 159.228  18
  -7   3  -2 1192.63 237.752   1
  -7   3  -2 587.750 167.767  17
  -7   3  -2 672.007 181.714  16
   7  -3   3-1.53293 100.531   3
  -7   3  -3 209.118 129.249  21
   7  -3   3 228.953 126.007  20
   7  -3   3 20.6641 84.0228  11
  -7   3  -3 104.769 117.975  10
  -7   3  -3 254.590 156.426   1
  -7   3  -3 127.966 130.339  17
  -7   3  -3-88.0479 119.202  16
   7  -3   4 368.586 133.015  11
  -7   3  -4 216.863 125.090  10
  -7   3  -4 248.680 121.110   1
  -7   3  -5 14.6378 103.287  10
  -7   3  -5-8.89727 127.707   1
  -7   2   6 339.927 143.769   1
   7  -2  -5-107.884 97.7670   3
  -7   2   5 108.533 107.752   1
   7  -2  -4 1043.00 201.729   3
  -7   2   4 1092.96 225.772  21
  -7   2   4 1158.37 239.060  19
  -7   2   4 976.114 223.044  18
  -7   2   4 1111.60 227.664  17
  -7   2   4 1207.98 221.961  16
   7  -2  -3 234.110 130.993   3
  -7   2   3-1.47820 122.415  21
  -7   2   3 219.267 109.701  10
  -7   2   3 470.578 167.381  19
  -7   2   3-67.9819 115.190  18
  -7   2   3 118.971 96.4408  17
  -7   2   3 116.370 105.647  16
   7  -2  -2 483.639 151.287   3
  -7   2   2 417.577 159.623  21
  -7   2   2 413.496 126.331  10
  -7   2   2 383.968 133.864  17
  -7   2   2 487.560 150.360  16
   7  -2  -1 1119.87 204.722   3
  -7   2   1 1100.84 210.791  21
  -7   2   1 1008.16 204.218  10
  -7   2   1 902.505 194.416  17
  -7   2   1 921.217 184.446  16
   7  -2   0 457.062 148.106   3
  -7   2   0 840.171 189.873  21
   7  -2   0 884.553 179.794  20
  -7   2   0 721.597 171.021  10
  -7   2   0 879.434 189.662  17
  -7   2   0 699.011 158.438  16
   7  -2   1 404.920 139.243   3
  -7   2  -1 436.994 129.264  21
   7  -2   1 493.027 149.957  20
  -7   2  -1 394.493 127.845  10
  -7   2  -1 399.954 123.466  17
  -7   2  -1 64.9158 80.5324  16
   7  -2   2-4.04451 66.6854   4
   7  -2   2-83.5638 137.921   3
  -7   2  -2-31.4346 89.3475  21
   7  -2   2-54.3894 85.7601  20
   7  -2   2-8.89239 92.0131  11
  -7   2  -2-31.7377 91.8549  10
  -7   2  -2 88.0548 91.4765  17
  -7   2  -2 65.7980 107.462  16
   7  -2   3 1019.93 166.065   4
   7  -2   3 1578.45 259.363   3
  -7   2  -3 1337.00 227.010  21
   7  -2   3 1342.61 212.378  20
   7  -2   3 1383.17 222.191  11
  -7   2  -3 766.026 171.606  10
  -7   2  -3 1013.46 192.826  17
  -7   2  -3 1189.22 209.209  16
   7  -2   4 43.3469 72.5005   4
   7  -2   4-16.0713 97.8948   3
   7  -2   4-11.2207 84.5036  20
   7  -2   4 83.7409 91.4409  11
  -7   2  -4-20.1651 89.1277  10
  -7   2  -4-67.9397 119.207  17
  -7   2  -4 1.09512 95.0674  16
   7  -2   5 3471.23 346.142  11
   7  -2   5 3661.06 359.503  20
  -7   2  -5 3986.05 374.397  10
  -7   2  -5 2628.10 328.113  17
  -7   2  -5 3150.13 344.441  16
   7  -2   5 3165.94 302.505   4
   7  -2   6-112.511 78.3530   4
   7  -2   6 28.3478 110.476  20
   7  -2   6 101.053 89.5688  11
   7  -2   6 178.439 127.195  19
   7  -2   6-71.2310 77.0442   6
  -7   2  -6-74.1616 104.010  10
  -7   2  -6-46.7818 75.1521   9
  -7   2  -6 323.465 146.327  17
  -7   2  -6 12.9387 98.2226  16
   7  -2   7 16.0754 93.9832   4
   7  -2   7 86.6491 99.7392  11
   7  -2   7 89.7848 72.5257   6
  -7   2  -7-23.7866 110.123  10
  -7   2  -7 137.588 110.544   9
   7  -2   8 132.247 94.4347   4
   7  -2   8 265.748 120.313   6
  -7   2  -8 175.986 104.187   1
  -7   1   7 3615.65 368.187   8
  -7   1   6 231.760 101.402   8
   7  -1  -5-146.683 153.524   7
  -7   1   5-7.83240 137.312  21
  -7   1   5 256.719 143.943  19
  -7   1   5-34.4826 107.265  17
  -7   1   5 70.3822 110.875  16
  -7   1   5-42.5747 74.5842   8
   7  -1  -4 63.3034 77.8222   3
   7  -1  -4 51.5938 115.640   7
  -7   1   4 55.8472 91.7233  21
  -7   1   4 157.306 128.535  19
  -7   1   4 334.692 148.830  17
  -7   1   4 134.630 109.028  16
  -7   1   4 257.902 102.547   8
   7  -1  -3-21.6729 71.7577   3
   7  -1  -3 146.119 131.708   7
  -7   1   3 84.6601 95.6144  21
  -7   1   3-55.0297 93.6145  10
  -7   1   3-3.92191 110.884  19
  -7   1   3 77.6574 95.8219  17
  -7   1   3-134.387 113.385  16
  -7   1   3 8.87925 68.7354   8
   7  -1  -2 60.9164 81.0010   3
  -7   1   2 225.793 126.988  21
  -7   1   2 15.8906 94.3878  10
  -7   1   2 162.321 106.816  17
  -7   1   2-12.1865 66.2891   5
  -7   1   2 145.413 109.868  16
  -7   1   1 19318.8 871.128  21
  -7   1   1 19232.5 856.622  10
   7  -1  -1 17974.1 797.667   3
  -7   1   1 18664.9 857.924  17
  -7   1   1 18075.5 837.199  16
  -7   1   0 7637.23 519.242  21
   7  -1   0 6774.06 463.851  20
  -7   1   0 7511.82 498.563  10
   7  -1   0 7534.29 485.614   3
  -7   1   0 6978.14 488.146  17
  -7   1   0 7202.86 491.608  16
   7  -1   1 217.133 78.7983   4
   7  -1   1 348.580 128.976   3
  -7   1  -1 429.859 150.975  21
   7  -1   1 284.989 118.017  20
  -7   1  -1 325.851 133.562  10
  -7   1  -1 388.593 119.871  17
  -7   1  -1 373.011 135.277  16
   7  -1   2 38.1397 56.2626   4
   7  -1   2-49.1033 100.678   3
  -7   1  -2-18.7020 117.840  21
   7  -1   2 54.3058 79.5049  20
   7  -1   2 32.9329 86.9029  11
  -7   1  -2 81.6238 86.1601  10
  -7   1  -2 104.369 97.3992  17
  -7   1  -2 21.3504 94.0716  16
   7  -1   3 37.1945 51.2886   4
   7  -1   3-1.45765 87.3544   3
  -7   1  -3 76.0009 75.9266  21
   7  -1   3-33.2875 81.5802  20
   7  -1   3-52.0653 103.770  11
   7  -1   3 41.7394 62.3870   6
  -7   1  -3-18.0732 83.1705  10
  -7   1  -3-117.073 115.398  17
  -7   1  -3-15.4842 90.4997  16
   7  -1   4 960.571 159.928   4
   7  -1   4 1078.15 210.049   3
   7  -1   4 1012.33 182.959  20
   7  -1   4 1148.61 191.470  11
   7  -1   4 1088.86 160.534   6
  -7   1  -4 793.004 170.155  10
  -7   1  -4 965.447 189.726   9
  -7   1  -4 719.382 174.606  17
  -7   1  -4 800.585 171.220  16
   7  -1   5 5659.90 433.609  11
   7  -1   5 6005.19 440.201  20
   7  -1   5 5511.74 376.034   6
  -7   1  -5 5312.80 419.415  10
  -7   1  -5 6002.44 456.993   9
  -7   1  -5 5164.16 431.763  17
  -7   1  -5 5575.75 440.381  16
   7  -1   5 5389.82 385.798   4
   7  -1   6 7722.00 509.414  11
   7  -1   6 7960.98 526.898  20
   7  -1   6 6601.46 444.597   6
   7  -1   6 8066.88 528.026  19
  -7   1  -6 7419.69 517.236  10
  -7   1  -6 7313.52 512.581   9
  -7   1  -6 7645.50 533.274  17
  -7   1  -6 7338.57 521.686  16
   7  -1   6 6931.66 462.707   4
   7  -1   7 466.329 138.607   4
   7  -1   7 309.481 125.130  20
   7  -1   7 621.693 160.088  11
   7  -1   7 583.528 165.423  19
   7  -1   7 344.330 118.832   6
  -7   1  -7 322.745 116.891  10
  -7   1  -7 661.396 171.269   9
  -7   1  -7 484.558 144.639  17
  -7   1  -7 310.732 128.830  16
   7  -1   8 413.742 141.463   4
   7  -1   8 290.349 106.928  20
   7  -1   8 321.614 124.182  11
   7  -1   8 368.983 145.581  19
   7  -1   8 176.076 87.7256   6
  -7   1  -8 313.289 132.602  10
  -7   1  -8 533.142 150.791   9
  -7   1  -8 357.815 133.826  17
  -7   1  -8 487.631 163.045  16
   7  -1   9 61.8976 80.0745   4
   7  -1   9 139.894 122.902  11
   7  -1   9 0.84855 103.209   6
  -7   1  -9-29.1025 81.2482   9
  -7   0   7 789.835 180.503   8
   7   0  -6 363.586 180.495  15
   7   0  -6 368.020 144.006   7
  -7   0   6 619.091 154.394  21
  -7   0   6 513.030 146.943  19
  -7   0   6 509.571 147.478  17
  -7   0   6 435.019 160.128  16
  -7   0   6 384.827 131.524   8
   7   0  -5 1781.23 274.359   7
  -7   0   5 2276.23 298.052  21
  -7   0   5 2101.21 290.905  19
  -7   0   5 2238.73 292.908  17
  -7   0   5 1724.73 214.934   5
  -7   0   5 2051.79 281.899  16
  -7   0   5 1632.01 224.612   8
   7   0  -4 2483.17 306.808   7
  -7   0   4 2859.99 319.968  21
  -7   0   4 2441.71 302.501  19
   7   0  -4 2272.21 242.409   3
  -7   0   4 2759.41 315.821  17
  -7   0   4 1930.23 221.226   5
  -7   0   4 2004.04 267.239  16
  -7   0   4 2201.99 241.379   8
   7   0  -3 1641.55 206.531   3
   7   0  -3 1070.18 207.372   7
  -7   0   3 1138.66 207.680  21
  -7   0   3 1432.88 225.005  10
  -7   0   3 1252.71 217.486  19
  -7   0   3 1466.76 225.419  17
  -7   0   3 1168.33 174.273   5
  -7   0   3 1788.25 249.563  16
  -7   0   3 1066.40 155.453   8
   7   0  -2 635.797 139.219   3
   7   0  -2 570.683 158.877   7
  -7   0   2 658.662 149.203  21
  -7   0   2 491.954 144.717  10
  -7   0   2 330.560 115.736  17
  -7   0   2 610.106 131.426   5
  -7   0   2 472.519 138.201  16
  -7   0   2 452.642 98.2967   8
   7   0  -1 404.810 135.741   3
   7   0  -1 503.643 151.325   7
  -7   0   1 630.199 161.968  21
  -7   0   1 346.745 131.798  10
  -7   0   1 270.818 116.190  17
  -7   0   1 153.706 112.266  16
  -7   0   1 364.836 82.5756   8
  -7   0   0 4362.82 369.110  21
  -7   0   0 4114.06 356.772  10
   7   0   0 3864.21 330.495   3
  -7   0   0 4325.85 365.660  17
  -7   0   0 4581.09 373.193  16
   7   0   1 35.3993 58.0361   4
   7   0   1-95.2688 105.128   3
  -7   0  -1-59.2852 120.494  21
   7   0   1-89.3161 77.6659  20
   7   0   1 6.28395 43.9307   6
  -7   0  -1 117.047 86.0026  10
  -7   0  -1-11.5834 98.2250  17
  -7   0  -1 59.5360 91.8733  16
   7   0   2 1734.54 202.253   4
   7   0   2 1094.91 190.200   3
  -7   0  -2 1392.73 207.117  21
   7   0   2 1217.80 187.947  20
   7   0   2 1308.66 196.472  11
   7   0   2 1229.66 141.331   6
  -7   0  -2 1570.88 219.405  10
  -7   0  -2 1404.80 209.030  17
  -7   0  -2 1658.09 226.184  16
   7   0   3 184.376 70.8347   4
   7   0   3 265.478 107.146   3
  -7   0  -3 92.7891 84.6385  21
   7   0   3 166.271 94.4008  20
   7   0   3 127.235 103.791  11
   7   0   3 212.019 72.4214   6
  -7   0  -3 165.258 89.2104  10
  -7   0  -3 251.984 99.7783   9
  -7   0  -3 128.912 83.7948  17
  -7   0  -3 102.057 86.7118  16
   7   0   4 346.653 112.400   4
   7   0   4 292.199 105.011  20
   7   0   4 253.867 95.8692  11
   7   0   4 327.497 96.1456   6
  -7   0  -4 200.229 90.2113  10
  -7   0  -4 207.988 102.809   9
  -7   0  -4 433.883 133.865  17
  -7   0  -4 418.965 129.885  16
   7   0   5 1043.17 176.520   4
   7   0   5 1033.87 182.755  20
   7   0   5 895.846 169.964  11
   7   0   5 994.259 158.672   6
  -7   0  -5 960.700 184.998  10
  -7   0  -5 903.807 175.307   9
  -7   0  -5 965.615 192.987  17
  -7   0  -5 549.931 140.632  16
   7   0   6 3187.15 313.635  20
   7   0   6 2732.55 285.313  11
   7   0   6 2205.38 247.364   6
   7   0   6 2877.86 299.397  19
  -7   0  -6 2787.26 298.912  10
  -7   0  -6 2585.15 291.548   9
  -7   0  -6 2589.06 293.889  17
  -7   0  -6 2563.49 288.450  16
   7   0   6 2646.39 276.304   4
   7   0   7 1914.66 256.050   4
   7   0   7 2488.64 283.606  11
   7   0   7 2018.72 259.525  20
   7   0   7 2333.70 272.670  19
   7   0   7 2129.57 255.064   6
  -7   0  -7 2021.09 265.009  10
  -7   0  -7 2748.34 309.990  17
  -7   0  -7 2331.48 285.039   9
  -7   0  -7 1876.97 258.319  16
   7   0   8 1462.22 228.693   4
   7   0   8 1475.31 230.257  20
   7   0   8 1295.30 213.041  11
   7   0   8 1227.60 208.853   6
   7   0   8 1450.16 231.266  19
  -7   0  -8 2043.18 266.682  10
  -7   0  -8 1474.58 231.898   9
  -7   0  -8 1904.05 260.304  17
  -7   0  -8 1518.62 238.295  16
   7   0   9 1366.82 235.738   4
   7   0   9 1338.29 225.461  20
   7   0   9 1121.54 201.009  11
   7   0   9 1332.93 226.215   6
   7   0   9 1307.25 228.482  19
  -7   0  -9 1561.77 245.360  10
  -7   0  -9 1820.64 262.770   9
  -7   0  -9 1505.09 241.526  17
  -7   0  -9 1404.30 236.198  16
   7   0  10 1218.23 218.020   4
   7   0  10 1507.21 239.236  20
   7   0  10 1082.60 213.872  11
   7   0  10 1249.15 228.582   6
   7   0  10 1414.28 244.310  19
  -7   0 -10 1259.95 226.814   9
  -7   0 -10 1155.16 238.683  17
  -7   0 -10 1452.60 245.617  16
   7   1  -7-12.7516 106.553  15
   7   1  -7-80.7895 100.814   7
  -7  -1   7 171.556 133.776  21
  -7  -1   7 244.765 134.541  19
  -7  -1   7 38.7192 96.0783  17
  -7  -1   7 7.14006 69.2361   5
  -7  -1   7 45.2182 92.4811  16
   7   1  -6 43.4835 93.6288  15
   7   1  -6 78.6680 118.705   7
  -7  -1   6 68.3734 82.1076  21
  -7  -1   6 65.6869 81.2451  19
  -7  -1   6 75.0901 94.9379  17
  -7  -1   6 105.594 90.6892   5
  -7  -1   6-26.0059 86.6043  16
   7   1  -5 864.001 218.355  15
   7   1  -5 1085.08 213.530   7
  -7  -1   5 1149.38 205.676  21
  -7  -1   5 1167.49 220.611  19
  -7  -1   5 1344.16 232.939  17
  -7  -1   5 1046.53 188.100   5
  -7  -1   5 1444.58 227.467  16
   7   1  -4 2172.64 296.013  15
   7   1  -4 2426.87 290.434   7
  -7  -1   4 2692.44 302.776  21
  -7  -1   4 2778.27 323.265  19
  -7  -1   4 2517.93 257.061   5
  -7  -1   4 3353.00 336.921  17
  -7  -1   4 3282.51 332.033  16
   7   1  -3 1309.50 227.514  15
   7   1  -3 1636.12 189.618   3
   7   1  -3 1910.19 262.962   7
  -7  -1   3 2016.55 260.492  21
  -7  -1   3 2188.49 266.654  10
  -7  -1   3 1644.56 239.669  19
  -7  -1   3 1846.95 246.545  17
  -7  -1   3 1599.08 201.246   5
  -7  -1   3 2175.28 258.609  16
   7   1  -2 117.408 119.768  15
   7   1  -2 132.784 69.4045   3
   7   1  -2 162.638 95.4854   7
  -7  -1   2 190.325 101.158  21
  -7  -1   2 186.657 86.6111  10
  -7  -1   2 139.838 108.693  19
  -7  -1   2 87.9222 77.3896  17
  -7  -1   2 203.895 104.520   5
  -7  -1   2-16.8074 88.4200  16
   7   1  -1 1141.04 198.602   7
   7   1  -1 1636.04 145.962   6
  -7  -1   1 1723.63 235.583  21
  -7  -1   1 1609.27 214.644  10
   7   1  -1 1976.03 216.728   3
  -7  -1   1 1671.91 224.655  17
  -7  -1   1 1770.73 225.285  16
   7   1   0 63.2113 77.9334   3
   7   1   0 143.065 78.3662  14
   7   1   0-57.5322 106.926   7
  -7  -1   0 65.6065 66.2779  21
   7   1   0-14.8754 49.8974   6
  -7  -1   0 169.401 94.7707  10
  -7  -1   0 189.867 99.7389  17
  -7  -1   0 77.3617 83.2242  16
   7   1   1 93.1032 66.3379   4
   7   1   1-0.65421 51.0028  14
   7   1   1 47.9058 65.7056   3
   7   1   1 170.478 91.4273   7
  -7  -1  -1-31.6023 68.6240  21
   7   1   1 92.9154 84.4582  20
   7   1   1 5.90031 82.0314  11
   7   1   1 60.6784 52.5532   6
  -7  -1  -1 104.171 97.0590  10
  -7  -1  -1 62.9278 67.8537  17
  -7  -1  -1-0.19811 73.7071  16
   7   1   2 834.056 153.341  15
   7   1   2 1194.49 121.882  14
   7   1   2 1368.29 174.767   4
   7   1   2 962.492 160.147   7
  -7  -1  -2 1012.18 181.901  21
   7   1   2 1064.29 159.365  20
   7   1   2 989.863 161.697  11
   7   1   2 1104.43 139.972   6
  -7  -1  -2 938.565 173.905  10
  -7  -1  -2 1205.14 182.509   9
  -7  -1  -2 1290.56 193.497  17
  -7  -1  -2 1005.14 175.555  16
   7   1   3 6635.55 382.935   7
  -7  -1  -3 6628.29 443.510  21
   7   1   3 7612.48 399.492   6
   7   1   3 7047.33 433.820  11
   7   1   3 7693.78 446.142  20
  -7  -1  -3 7356.68 451.809  10
  -7  -1  -3 7319.01 456.570   9
  -7  -1  -3 7686.72 462.865  17
  -7  -1  -3 6634.95 432.347  16
   7   1   3 7764.12 440.340   4
   7   1   3 6165.56 393.963  15
   7   1   4 849.978 140.714  15
   7   1   4 976.787 170.253   4
   7   1   4 730.641 129.684   7
   7   1   4 796.063 150.314  20
   7   1   4 1008.43 163.810  11
   7   1   4 785.524 132.033   6
  -7  -1  -4 795.544 148.787  10
  -7  -1  -4 1014.23 173.847   9
  -7  -1  -4 747.972 158.077  17
  -7  -1  -4 802.059 162.053  16
   7   1   5 449.988 102.795  15
   7   1   5 610.756 136.480   4
   7   1   5 569.720 108.392   7
   7   1   5 700.529 146.098  20
   7   1   5 729.810 157.635  11
   7   1   5 546.360 127.552   6
  -7  -1  -5 675.233 149.277  10
  -7  -1  -5 537.678 139.547   9
  -7  -1  -5 809.751 165.590  17
  -7  -1  -5 577.604 142.090  16
   7   1   6-55.9986 60.5987  15
   7   1   6-15.5324 74.1591   4
   7   1   6 26.9168 78.2442  20
   7   1   6-74.1048 93.2570  11
   7   1   6 171.251 95.8085   6
   7   1   6-55.8040 75.5998  19
  -7  -1  -6-243.780 108.695  10
  -7  -1  -6-12.0684 91.2116   9
  -7  -1  -6-37.4511 72.1946  17
  -7  -1  -6 37.8099 83.1067  16
   7   1   7 116.621 92.9933   4
   7   1   7-9.64868 76.2569  20
   7   1   7-45.8530 100.585  11
   7   1   7 78.3712 87.1618   6
   7   1   7-224.990 96.5922  19
  -7  -1  -7-49.3411 79.5749  10
  -7  -1  -7 52.3390 95.5337   9
  -7  -1  -7 6.74666 64.2640  17
  -7  -1  -7 3.87321 75.0199  16
   7   1   8 436.936 144.519   4
   7   1   8 169.927 97.2097  20
   7   1   8 127.463 80.4293  11
   7   1   8 101.485 106.418   6
   7   1   8 209.854 102.215  19
  -7  -1  -8 320.272 126.601  10
  -7  -1  -8 80.3602 84.0013  17
  -7  -1  -8 206.876 105.595  16
   7   1   9 2157.35 268.611  20
   7   1   9 2574.19 294.522  11
   7   1   9 3114.41 321.490  19
   7   1   9 2336.78 289.281   6
  -7  -1  -9 3025.89 326.259  10
  -7  -1  -9 2863.20 317.228  17
  -7  -1  -9 1988.51 271.615   9
  -7  -1  -9 2427.55 294.332  16
   7   1   9 2518.52 298.234   4
   7   1  10 2244.25 290.348   4
   7   1  10 1719.08 245.122  20
   7   1  10 2267.51 280.485  11
   7   1  10 2637.04 305.311  19
   7   1  10 1973.77 278.870   6
  -7  -1 -10 2638.22 316.687  10
  -7  -1 -10 2054.72 277.129   9
  -7  -1 -10 1949.63 271.113  17
  -7  -1 -10 2121.42 281.625  16
   7   1  11 388.291 129.062  20
   7   1  11 176.957 97.3167  19
  -7  -1 -11 299.922 127.791  17
  -7  -1 -11 127.122 89.3984  16
  -7  -2   9-485.459 156.474   5
  -7  -2   8 134.818 89.2246   5
   7   2  -7 490.350 174.433  15
   7   2  -7 128.245 125.942  14
   7   2  -7 139.576 100.035   7
  -7  -2   7 247.814 125.162  21
  -7  -2   7 380.789 123.559  19
  -7  -2   7 137.907 101.809  17
  -7  -2   7 177.190 91.9697   5
  -7  -2   7 182.364 110.982  16
   7   2  -6 346.304 143.339  15
   7   2  -6 480.184 150.444  14
   7   2  -6 655.233 169.141   7
  -7  -2   6 384.029 136.700  21
  -7  -2   6 495.809 150.932  19
  -7  -2   6 410.540 140.466  17
  -7  -2   6 555.432 152.142   5
  -7  -2   6 466.312 153.710  16
   7   2  -5 76.4649 113.216  15
   7   2  -5 301.877 133.470  14
   7   2  -5 276.706 130.293   7
  -7  -2   5 306.936 123.178  21
  -7  -2   5 339.412 132.733  19
  -7  -2   5 184.975 95.5943  17
  -7  -2   5 185.772 95.4403   5
  -7  -2   5 567.206 154.268  16
   7   2  -4 557.273 167.861  15
   7   2  -4 385.922 127.588  14
   7   2  -4 578.016 146.987   7
  -7  -2   4 510.424 148.825  21
  -7  -2   4 602.492 146.130  19
  -7  -2   4 455.844 140.755  17
  -7  -2   4 699.545 144.237   5
  -7  -2   4 507.328 137.137  16
   7   2  -3 321.529 134.962  15
   7   2  -3 382.957 124.054  14
   7   2  -3 283.568 85.9353   3
   7   2  -3 427.005 125.353   7
  -7  -2   3 411.178 146.875  21
  -7  -2   3 650.454 157.619  19
  -7  -2   3 275.397 108.361  17
  -7  -2   3 243.543 101.457   5
  -7  -2   3 582.897 143.846  16
   7   2  -2 460.586 146.413  15
   7   2  -2 328.410 115.501  14
   7   2  -2 637.667 149.240   7
  -7  -2   2 637.553 142.664  21
  -7  -2   2 908.224 167.667  10
  -7  -2   2 379.211 124.282  19
  -7  -2   2 661.811 152.376  17
  -7  -2   2 812.028 157.791   5
  -7  -2   2 605.929 135.891  16
   7   2  -1 131.278 85.6380  15
   7   2  -1 103.447 68.5409  14
   7   2  -1 108.828 82.4723   7
  -7  -2   1 202.116 89.8474  21
   7   2  -1 160.814 63.4326   6
  -7  -2   1 161.434 96.3968  10
  -7  -2   1 129.049 85.3521  17
  -7  -2   1 217.392 96.7016  16
   7   2   0 69.4075 80.7560  15
   7   2   0 110.048 72.4720  14
   7   2   0 189.520 90.6076   7
  -7  -2   0 235.034 98.3939  21
   7   2   0 339.981 97.0190  11
   7   2   0 274.307 78.7904   6
  -7  -2   0 72.8715 67.4601  10
  -7  -2   0 191.755 96.8546  17
  -7  -2   0 260.274 93.0407  16
   7   2   1 352.068 120.038  15
   7   2   1 135.586 70.1693   4
   7   2   1 324.700 82.9389  14
   7   2   1 198.217 91.2099   7
  -7  -2  -1 196.573 93.8117  21
   7   2   1 159.458 73.8119  20
   7   2   1 208.138 89.1024  11
   7   2   1 166.614 63.0947   6
  -7  -2  -1 221.506 102.650  10
  -7  -2  -1 92.6712 83.2073  17
  -7  -2  -1 311.861 99.2402  16
   7   2   2 1725.72 208.058  15
   7   2   2 1552.65 135.717  14
   7   2   2 1514.70 190.713   4
   7   2   2 1660.17 177.747   6
   7   2   2 1216.62 165.185   7
  -7  -2  -2 1454.29 192.770  21
   7   2   2 1643.05 198.029  20
   7   2   2 1348.34 178.453  11
  -7  -2  -2 1279.15 183.745  10
  -7  -2  -2 1220.60 181.173   9
  -7  -2  -2 1287.42 184.891  17
  -7  -2  -2 1714.02 204.804  16
   7   2   3 771.745 138.658  15
   7   2   3 834.991 85.4290  14
   7   2   3 796.228 135.274   4
   7   2   3 907.276 128.169   7
  -7  -2  -3 816.480 153.674  21
   7   2   3 663.506 130.478  20
   7   2   3 647.634 127.352  11
   7   2   3 955.666 139.675   6
  -7  -2  -3 948.812 152.596  10
  -7  -2  -3 654.049 134.825   9
  -7  -2  -3 877.464 156.175  17
  -7  -2  -3 768.015 148.833  16
   7   2   4 3402.03 231.298   7
   7   2   4 3446.14 273.650   6
   7   2   4 3209.53 272.101  20
   7   2   4 3233.57 277.660  11
  -7  -2  -4 3635.76 303.533  10
  -7  -2  -4 3138.36 285.447   9
  -7  -2  -4 3324.26 291.419  17
  -7  -2  -4 2760.31 264.273  16
   7   2   4 3731.99 305.469   4
   7   2   4 2827.57 242.714  15
   7   2   5 676.023 113.498  15
   7   2   5 858.289 159.499   4
   7   2   5 763.251 103.839   7
   7   2   5 1106.42 165.138  20
   7   2   5 707.308 139.172  11
   7   2   5 836.145 140.841   6
  -7  -2  -5 680.426 138.962  10
  -7  -2  -5 624.027 143.089   9
  -7  -2  -5 650.467 136.346  17
  -7  -2  -5 696.366 145.184  16
   7   2   6 402.552 90.4810  15
   7   2   6 431.603 128.434   4
   7   2   6 253.307 101.455  20
   7   2   6 403.644 118.311  11
   7   2   6 528.413 141.102   6
   7   2   6 411.025 109.364  19
  -7  -2  -6 223.113 92.1208  10
  -7  -2  -6 430.200 113.867   9
  -7  -2  -6 445.708 128.600  17
  -7  -2  -6 423.891 116.131  16
   7   2   7 135.177 85.8323   4
   7   2   7 7.51720 61.8292  20
   7   2   7-41.1443 85.0161  11
   7   2   7-23.3615 78.3842   6
   7   2   7 9.13944 65.8927  19
  -7  -2  -7 0.42940 72.9982  10
  -7  -2  -7 49.5386 77.2456   9
  -7  -2  -7 2.09101 71.6222  17
  -7  -2  -7 7.98478 75.6924  16
   7   2   8 2627.88 271.895  20
   7   2   8 2770.06 298.725   6
   7   2   8 2598.47 284.408  11
   7   2   8 2755.26 275.057  19
  -7  -2  -8 2485.36 284.333  10
  -7  -2  -8 2966.57 304.382   9
  -7  -2  -8 2607.55 280.513  17
  -7  -2  -8 2209.70 259.078  16
   7   2   8 2611.57 287.041   4
   7   2   9 1306.37 219.365   4
   7   2   9 966.363 179.272  20
   7   2   9 1554.24 223.760  11
   7   2   9 1479.79 231.819   6
   7   2   9 1384.00 214.782  19
  -7  -2  -9 1266.89 212.040  10
  -7  -2  -9 1858.28 304.456  17
  -7  -2  -9 1387.46 228.966   9
  -7  -2  -9 684.822 143.605  16
   7   2  10 2886.34 306.298  20
   7   2  10 2658.86 308.869  11
   7   2  10 2660.63 296.813  19
   7   2  10 2534.37 305.338   6
  -7  -2 -10 3059.28 329.795  10
  -7  -2 -10 2396.00 297.218   9
  -7  -2 -10 2328.92 280.598  17
  -7  -2 -10 2468.71 289.888  16
   7   2  10 2789.96 320.001   4
   7   2  11 755.386 196.082   4
   7   2  11 832.756 178.413  20
   7   2  11 1223.62 222.353  11
   7   2  11 718.401 191.185   6
   7   2  11 656.542 170.553  19
  -7  -2 -11 1008.36 202.856  10
  -7  -2 -11 712.316 180.283   9
  -7  -2 -11 1091.03 203.229  17
  -7  -2 -11 682.960 165.084  16
   7   2  12-62.0898 87.8778  20
   7   2  12 34.6640 107.502  19
  -7  -2 -12 11.5249 74.9211  16
  -7  -3   8-40.9912 116.347   5
   7   3  -7 97.8857 102.338  15
   7   3  -7 91.1001 124.328  14
   7   3  -7-28.4455 112.550   7
  -7  -3   7 24.0710 90.7542  21
  -7  -3   7-122.116 107.529  20
  -7  -3   7 132.288 119.088  19
  -7  -3   7 11.4265 109.964  17
  -7  -3   7-45.0381 98.2397   5
  -7  -3   7 2.83743 95.3136  16
   7   3  -6 2956.71 347.435   7
   7   3  -6 3580.31 364.275  14
  -7  -3   6 3383.61 343.475  21
  -7  -3   6 3718.71 369.402  19
  -7  -3   6 4044.83 366.693   5
  -7  -3   6 3731.81 360.289  17
  -7  -3   6 3253.81 335.254  16
   7   3  -6 3163.13 353.540  15
   7   3  -5 65.4017 100.660  15
   7   3  -5-188.135 109.829  14
   7   3  -5 78.6360 103.571   7
  -7  -3   5-90.4876 89.5797  21
  -7  -3   5-29.6118 87.6002  19
  -7  -3   5 96.2584 100.720  17
  -7  -3   5 58.5139 71.9777   5
  -7  -3   5-214.886 115.466  16
   7   3  -4 762.376 182.739  15
   7   3  -4 504.782 133.828  14
   7   3  -4 729.346 161.532   7
  -7  -3   4 667.925 150.374  21
  -7  -3   4 792.894 131.334  12
  -7  -3   4 892.314 174.590  19
  -7  -3   4 1106.20 186.633  17
  -7  -3   4 1018.47 185.824   5
  -7  -3   4 731.092 160.558  16
   7   3  -3 598.964 144.329  15
   7   3  -3 501.113 129.966  14
   7   3  -3 594.584 142.396   7
  -7  -3   3 480.236 131.856  21
  -7  -3   3 647.790 121.839  12
  -7  -3   3 564.366 146.902  19
  -7  -3   3 373.922 115.266  17
  -7  -3   3 637.535 138.297   5
  -7  -3   3 618.701 147.229  16
   7   3  -2 2953.40 288.584   7
   7   3  -2 3476.28 290.611  14
  -7  -3   2 2982.14 287.385  21
  -7  -3   2 3524.03 280.764  12
  -7  -3   2 3468.97 305.770  10
  -7  -3   2 3671.39 322.894  19
  -7  -3   2 3788.15 314.550   5
  -7  -3   2 3562.12 310.750  17
  -7  -3   2 3466.43 300.466  16
   7   3  -2 2749.52 295.784  15
   7   3  -1 785.158 163.826  15
   7   3  -1 1003.50 152.857  14
   7   3  -1 1279.35 183.863   7
  -7  -3   1 1162.56 170.370  21
   7   3  -1 770.262 125.931  11
  -7  -3   1 1347.49 188.167  10
  -7  -3   1 1175.99 186.233  19
  -7  -3   1 712.312 145.153  17
  -7  -3   1 909.650 156.587  16
   7   3   0 1153.49 185.632  15
   7   3   0 1149.31 149.893  14
   7   3   0 741.794 132.988   7
  -7  -3   0 1157.12 171.953  21
   7   3   0 1031.71 138.885   6
   7   3   0 936.126 139.624  11
  -7  -3   0 1136.18 171.605  10
  -7  -3   0 952.143 156.274  17
  -7  -3   0 1073.77 162.173  16
   7   3   1 1792.24 217.640  15
   7   3   1 2241.42 221.762   7
   7   3   1 2235.74 188.162  14
  -7  -3  -1 2142.98 225.143  21
   7   3   1 2534.72 218.354   6
   7   3   1 2195.94 213.938  11
  -7  -3  -1 2346.41 236.805  10
  -7  -3  -1 2388.71 224.657   9
  -7  -3  -1 2438.89 234.946  17
  -7  -3  -1 2304.50 228.768  16
   7   3   1 2071.35 230.344   4
   7   3   2 36.9875 70.4737  15
   7   3   2 141.324 64.2706   4
   7   3   2 163.287 54.8738  14
   7   3   2 212.434 87.5690   7
  -7  -3  -2 171.423 80.8533  21
   7   3   2 228.535 81.2923  20
   7   3   2 143.429 80.2982  11
   7   3   2 175.429 79.8798   6
  -7  -3  -2 209.461 94.8245  10
  -7  -3  -2 132.313 80.8569   9
  -7  -3  -2 138.257 84.5405  17
  -7  -3  -2 124.851 72.8176  16
   7   3   3 1726.30 195.199  15
   7   3   3 1800.84 171.627   7
   7   3   3 2083.25 146.200  14
  -7  -3  -3 2046.00 212.997  21
   7   3   3 1938.45 210.547   6
   7   3   3 1989.75 207.632  11
   7   3   3 1703.60 187.872  20
  -7  -3  -3 2054.38 218.304  10
  -7  -3  -3 2177.34 219.125  17
  -7  -3  -3 1679.30 199.416   9
  -7  -3  -3 1582.79 187.891  16
   7   3   3 1978.73 220.685   4
   7   3   4 911.558 137.786  15
   7   3   4 1147.37 128.030   7
   7   3   4 993.303 165.105   4
   7   3   4 1008.08 153.180  20
   7   3   4 832.574 151.127  11
   7   3   4 1074.37 153.003   6
  -7  -3  -4 1110.90 164.961  10
  -7  -3  -4 858.662 147.644   9
  -7  -3  -4 1211.61 169.929  17
  -7  -3  -4 953.785 152.589  16
   7   3   5 741.438 118.722  15
   7   3   5 733.165 140.723   4
   7   3   5 615.213 83.6948   7
   7   3   5 738.823 132.425  20
   7   3   5 562.966 123.569  11
   7   3   5 788.735 147.485   6
  -7  -3  -5 807.021 159.369  10
  -7  -3  -5 747.098 140.679   9
  -7  -3  -5 657.976 127.847  17
  -7  -3  -5 636.673 127.827  16
   7   3   6 2136.42 244.283   4
   7   3   6 1663.66 194.990  20
   7   3   6 1821.63 223.395  11
   7   3   6 2025.16 214.993  19
   7   3   6 1854.43 223.774   6
  -7  -3  -6 1661.17 209.200  10
  -7  -3  -6 1576.91 197.653  17
  -7  -3  -6 1708.67 215.809   9
  -7  -3  -6 2009.70 217.898  16
   7   3   6 2279.33 187.969  15
   7   3   7 238.723 102.297   4
   7   3   7 7.06399 68.3932  20
   7   3   7 183.761 89.8419  11
   7   3   7 177.359 92.9912   6
   7   3   7 169.105 86.2446  19
  -7  -3  -7 297.821 115.490  10
  -7  -3  -7 235.632 103.969  17
  -7  -3  -7 117.441 99.0885   9
  -7  -3  -7 386.698 119.158  16
   7   3   8 186.841 110.045   4
   7   3   8 112.707 81.2910  20
   7   3   8-84.1311 99.7235  11
   7   3   8 61.9125 105.973   6
   7   3   8-64.8990 77.4834  19
  -7  -3  -8-24.5795 84.2386  10
  -7  -3  -8 75.2580 93.0127  17
  -7  -3  -8-22.7655 68.8439   9
  -7  -3  -8 62.4083 79.1680  16
   7   3   9 20447.4 901.859   6
   7   3   9 21198.0 839.782  20
   7   3   9 21816.2 905.287  11
   7   3   9 20353.0 829.615  19
  -7  -3  -9 20406.5 875.274  10
  -7  -3  -9 22094.2 905.563   9
  -7  -3  -9 20964.9 855.536  17
  -7  -3  -9 21577.7 860.300  16
   7   3   9 20827.9 900.623   4
   7   3  10 2641.15 280.919  20
   7   3  10 2979.79 317.105  11
   7   3  10 3045.70 302.096  19
   7   3  10 2582.78 311.432   6
  -7  -3 -10 2909.36 317.153  10
  -7  -3 -10 3393.95 346.304   9
  -7  -3 -10 2976.06 306.584  17
  -7  -3 -10 2999.43 305.898  16
   7   3  10 3018.30 329.668   4
   7   3  11 2201.68 294.720   4
   7   3  11 1557.96 228.632  20
   7   3  11 1911.46 261.405  11
   7   3  11 1704.08 267.580   6
   7   3  11 1822.50 247.046  19
  -7  -3 -11 1301.30 230.405  10
  -7  -3 -11 1207.74 219.691   9
  -7  -3 -11 1841.07 248.395  16
   7   3  12 92.6047 99.8047  20
   7   3  12 95.8280 72.1238  19
  -7  -3 -12 13.8096 87.1059  16
   7   4  -7 352.152 145.290  15
   7   4  -7 463.636 131.135  14
   7   4  -7 256.770 115.002   7
  -7  -4   7 670.471 181.004  21
  -7  -4   7 421.948 154.810  20
  -7  -4   7 317.496 135.134  19
  -7  -4   7 486.529 167.617  17
  -7  -4   7 536.403 159.187   5
  -7  -4   7 718.938 175.341  16
   7   4  -6 18271.0 883.221   7
   7   4  -6 19214.6 893.097  14
  -7  -4   6 18950.7 863.249  21
  -7  -4   6 18617.9 877.161  20
  -7  -4   6 18479.4 864.223  19
  -7  -4   6 19387.8 875.269   5
  -7  -4   6 19036.9 858.593  17
  -7  -4   6 18439.7 848.277  16
   7   4  -6 17176.4 864.293  15
   7   4  -5 22957.8 964.973   7
   7   4  -5 22158.3 946.182  14
  -7  -4   5 21742.2 912.093  21
  -7  -4   5 22803.0 939.295  19
  -7  -4   5 24574.2 969.007   5
  -7  -4   5 22092.2 915.837  17
  -7  -4   5 21668.4 909.038  16
   7   4  -5 22027.4 966.620  15
   7   4  -4 672.532 162.309  15
   7   4  -4 897.637 176.947  14
   7   4  -4 817.354 166.949   7
  -7  -4   4 501.459 134.156  21
  -7  -4   4 528.212 119.590  12
  -7  -4   4 731.430 161.775  19
  -7  -4   4 642.948 145.239  17
  -7  -4   4 965.063 173.798   5
  -7  -4   4 835.399 159.617  16
   7   4  -3 254.559 111.739  15
   7   4  -3 395.371 120.786  14
   7   4  -3 309.752 121.911   7
  -7  -4   3 153.657 90.3362  21
  -7  -4   3 101.784 73.3787  12
   7   4  -3 201.092 74.5570  11
  -7  -4   3 168.741 80.3633  19
  -7  -4   3 41.2851 67.8590  17
  -7  -4   3 36.8825 75.3210   5
  -7  -4   3 164.527 91.6551  16
   7   4  -2 280.975 112.837  15
   7   4  -2 143.739 68.6369  14
   7   4  -2 357.821 115.006   7
  -7  -4   2 3.83065 82.8727  21
  -7  -4   2 362.501 121.490  12
   7   4  -2 331.430 85.3558  11
  -7  -4   2 303.519 96.8263  19
  -7  -4   2 115.451 89.3208  17
  -7  -4   2 391.738 125.605   5
  -7  -4   2 201.292 95.0401  16
   7   4  -1 462.711 127.498  15
   7   4  -1 326.652 103.209  14
   7   4  -1 280.820 98.1026   7
  -7  -4   1 362.679 100.267  21
  -7  -4   1 298.745 96.9401  12
   7   4  -1 340.523 77.4480  11
  -7  -4   1 379.434 101.026  10
  -7  -4   1 182.391 83.6466  19
  -7  -4   1 582.418 120.372  17
  -7  -4   1 466.334 120.520   5
  -7  -4   1 412.444 110.464  16
   7   4   0 1718.71 216.626  15
   7   4   0 1867.91 191.727  14
   7   4   0 1519.21 186.949   7
   7   4   0 1760.37 193.877   6
  -7  -4   0 1667.65 194.413  21
  -7  -4   0 1705.88 211.535  12
   7   4   0 1701.04 173.362  11
  -7  -4   0 1912.37 209.829  19
  -7  -4   0 1587.05 193.918  10
  -7  -4   0 1472.87 180.561  17
  -7  -4   0 1737.93 195.066  16
   7   4   1 9052.39 447.411   7
   7   4   1 8660.21 410.619  14
  -7  -4  -1 8943.36 451.422  21
  -7  -4  -1 8467.24 472.823  12
   7   4   1 9096.12 459.071   6
   7   4   1 8617.28 418.111  11
  -7  -4  -1 9321.70 467.096  10
  -7  -4  -1 9185.37 437.557   9
  -7  -4  -1 8742.81 444.904  17
  -7  -4  -1 8868.28 441.998  16
   7   4   1 8259.46 475.836  15
   7   4   2 2817.10 226.739   7
   7   4   2 2908.19 209.847  14
  -7  -4  -2 3060.30 250.336  21
  -7  -4  -2 2525.27 261.256  12
   7   4   2 2901.70 254.613   6
   7   4   2 2826.44 231.627  11
  -7  -4  -2 3209.29 261.342  10
  -7  -4  -2 2567.12 229.249   9
  -7  -4  -2 2563.05 226.832  17
  -7  -4  -2 2843.92 234.431  16
   7   4   2 3351.95 285.457   4
   7   4   2 2981.53 264.674  15
   7   4   3 84.9825 58.7190  15
   7   4   3 103.990 86.0401   4
   7   4   3 103.825 53.9711  14
   7   4   3 127.425 52.8661   7
  -7  -4  -3 110.393 64.8085  21
  -7  -4  -3 88.0067 94.3837  12
   7   4   3 53.0233 64.2137  20
   7   4   3 95.3590 72.5325  11
   7   4   3 98.8203 87.7212   6
  -7  -4  -3 11.9633 69.3425  10
  -7  -4  -3 173.005 84.5233  17
  -7  -4  -3 90.8131 63.3429   9
  -7  -4  -3 187.033 74.2149  16
   7   4   4 3597.35 219.338   7
   7   4   4 3342.57 192.375  14
  -7  -4  -4 3355.72 259.180  21
   7   4   4 3542.42 292.466   6
   7   4   4 2957.02 236.195  20
   7   4   4 3101.28 265.729  11
  -7  -4  -4 3296.29 273.302  10
  -7  -4  -4 3246.69 268.233   9
  -7  -4  -4 3342.24 258.575  17
  -7  -4  -4 2971.70 243.327  16
   7   4   4 3857.11 312.893   4
   7   4   4 2789.27 239.729  15
   7   4   5 548.888 113.952  15
   7   4   5 588.701 131.960   4
   7   4   5 457.544 73.7859   7
   7   4   5 544.394 116.360  20
   7   4   5 610.085 133.605  11
   7   4   5 523.572 124.205   6
  -7  -4  -5 357.591 94.9436  10
  -7  -4  -5 461.605 101.326  17
  -7  -4  -5 611.073 130.311   9
  -7  -4  -5 535.644 98.0995  16
   7   4   6 2419.19 261.193   6
   7   4   6 2203.01 209.895  20
   7   4   6 3040.55 277.245  11
  -7  -4  -6 2226.57 234.368  10
  -7  -4  -6 2305.47 220.137  17
  -7  -4  -6 2607.04 260.339   9
  -7  -4  -6 2678.23 234.338  16
   7   4   6 2350.03 259.708   4
   7   4   6 2803.01 215.777  15
   7   4   7 278.881 74.8240  15
   7   4   7 62.7248 89.5268   4
   7   4   7 186.237 83.3098  20
   7   4   7 224.673 83.4068  11
   7   4   7 388.881 136.811   6
   7   4   7 73.2641 55.9007  19
  -7  -4  -7 282.390 96.3446  10
  -7  -4  -7 214.089 83.6545  17
  -7  -4  -7 148.022 91.1946   9
  -7  -4  -7 193.642 73.0827  16
   7   4   8 1664.37 222.422   4
   7   4   8 1399.11 181.700  20
   7   4   8 1849.27 232.621  11
   7   4   8 1413.43 212.920   6
   7   4   8 1390.58 182.208  19
  -7  -4  -8 1700.48 219.620  10
  -7  -4  -8 1471.42 193.345  17
  -7  -4  -8 1924.54 237.888   9
  -7  -4  -8 1690.88 201.192  16
   7   4   9 2604.78 295.684   6
   7   4   9 2338.18 238.673  20
   7   4   9 2511.91 280.389  11
   7   4   9 2318.46 240.535  19
  -7  -4  -9 2485.38 270.961  10
  -7  -4  -9 2706.03 271.944  17
  -7  -4  -9 2713.86 293.377   9
  -7  -4  -9 2645.15 261.430  16
   7   4   9 3133.97 322.699   4
   7   4  10 5404.68 441.484   6
   7   4  10 4514.60 345.572  20
   7   4  10 5293.48 424.160  11
   7   4  10 4202.95 336.791  19
  -7  -4 -10 4214.12 368.679  10
  -7  -4 -10 4750.99 368.859  17
  -7  -4 -10 4651.46 396.782   9
  -7  -4 -10 4299.97 347.632  16
   7   4  10 5087.62 419.657   4
   7   4  11 1397.48 232.020   4
   7   4  11 1332.46 199.921  20
   7   4  11 1357.04 227.318  11
   7   4  11 971.824 204.762   6
   7   4  11 1146.05 184.069  19
  -7  -4 -11 1267.56 217.767  10
  -7  -4 -11 1503.31 241.833   9
  -7  -4 -11 1313.20 200.912  16
   7   4  12 202.753 124.706   4
   7   4  12 12.7465 82.3392  20
   7   4  12-41.0119 63.8133  19
  -7  -4 -12-11.4210 78.8868  10
  -7  -4 -12-6.66948 88.2420  16
   7   4  13 133.572 79.8598  20
   7   4  13 233.033 116.858  19
  -7  -4 -13 41.3974 83.7175  16
   7   5  -7 257.978 110.750  15
  -7  -5   7 392.426 128.377  21
  -7  -5   7 296.405 121.694  20
  -7  -5   7 377.580 138.368  19
  -7  -5   7 207.794 109.569  17
  -7  -5   7 358.534 137.415   5
  -7  -5   7 112.502 96.0289  16
   7   5  -6 1008.67 195.352  15
   7   5  -6 1180.98 230.941  14
   7   5  -6 1373.51 229.052   7
  -7  -5   6 969.798 192.856  21
  -7  -5   6 1144.68 210.765  20
  -7  -5   6 1151.74 200.806  19
  -7  -5   6 1085.02 192.839  17
  -7  -5   6 1127.08 215.638   5
  -7  -5   6 621.764 160.318  16
   7   5  -5 1792.68 257.655  15
   7   5  -5 1588.19 244.242  14
   7   5  -5 1545.93 237.291   7
  -7  -5   5 1655.21 229.758  21
  -7  -5   5 1607.72 204.635  12
  -7  -5   5 1645.11 235.739  20
  -7  -5   5 1878.94 239.811  19
  -7  -5   5 1808.62 233.573  17
  -7  -5   5 1922.39 267.702   5
  -7  -5   5 1636.04 223.500  16
   7   5  -4 2645.55 294.251   7
   7   5  -4 2837.55 295.339  14
  -7  -5   4 2486.40 262.422  21
  -7  -5   4 2259.44 242.087  12
  -7  -5   4 2649.22 274.992  20
  -7  -5   4 2090.18 242.115  19
  -7  -5   4 2612.84 297.317   5
  -7  -5   4 2173.21 244.308  17
  -7  -5   4 2445.19 259.399  16
   7   5  -4 2392.57 289.704  15
   7   5  -3 1988.00 259.748  15
   7   5  -3 1867.96 234.077  14
   7   5  -3 1893.11 247.148   7
  -7  -5   3 1667.95 209.823  21
  -7  -5   3 1788.89 216.263  12
  -7  -5   3 1475.74 204.468  19
  -7  -5   3 2322.48 268.000   5
  -7  -5   3 1949.05 224.439  17
  -7  -5   3 1910.08 214.803  16
   7   5  -2 662.261 164.169  15
   7   5  -2 788.624 145.491  14
   7   5  -2 489.150 130.845   7
  -7  -5   2 786.872 142.782  21
  -7  -5   2 634.459 145.355  12
  -7  -5   2 670.731 136.616  19
  -7  -5   2 832.090 144.011  17
  -7  -5   2 393.892 134.886   5
  -7  -5   2 654.592 126.804  16
   7   5  -1 1199.57 197.368  15
   7   5  -1 1229.12 178.153  14
   7   5  -1 1342.56 185.691   7
  -7  -5   1 1572.28 188.776  21
  -7  -5   1 1215.11 180.214  12
   7   5  -1 1195.24 130.924  11
  -7  -5   1 1571.68 185.619  19
  -7  -5   1 1647.73 184.920  17
  -7  -5   1 1638.53 213.821   5
  -7  -5   1 1547.97 175.022  16
   7   5   0 360.076 117.794  15
   7   5   0 435.885 119.014  14
   7   5   0 470.945 100.642   7
  -7  -5   0 628.824 118.858  21
  -7  -5   0 473.729 120.910  12
   7   5   0 575.268 121.749   6
   7   5   0 582.062 100.039  11
  -7  -5   0 372.336 109.667  10
  -7  -5   0 696.712 126.674  19
  -7  -5   0 529.193 113.171  17
  -7  -5   0 613.413 115.191  16
  -7  -5   0 796.089 159.896   5
   7   5   1 96.2261 76.4138  15
   7   5   1 132.982 64.1721  14
   7   5   1 212.728 87.6955   7
  -7  -5  -1 105.403 88.4114  12
  -7  -5  -1 323.656 100.297  21
   7   5   1 149.438 85.5449   6
   7   5   1 128.890 61.3701  11
  -7  -5  -1 306.487 96.4435  10
  -7  -5  -1 207.645 78.0356  19
  -7  -5  -1 250.314 87.0216  17
  -7  -5  -1 70.2040 51.2430   9
  -7  -5  -1 135.060 60.7255  16
   7   5   2 2411.80 212.719   7
   7   5   2 2209.80 197.557  14
  -7  -5  -2 2305.01 201.906  21
  -7  -5  -2 2160.94 248.825  12
   7   5   2 2104.97 224.232   6
   7   5   2 2413.32 207.645  11
  -7  -5  -2 2311.64 212.323  10
  -7  -5  -2 2176.90 195.982  17
  -7  -5  -2 2191.91 201.415   9
  -7  -5  -2 2153.72 195.656  16
   7   5   2 2502.79 247.945   4
   7   5   2 1996.60 220.433  15
   7   5   3 2791.10 216.120   7
   7   5   3 2446.12 198.460  14
  -7  -5  -3 2714.79 216.657  21
   7   5   3 2411.93 247.734   6
  -7  -5  -3 2113.21 247.880  12
   7   5   3 2658.17 226.572  11
  -7  -5  -3 2901.95 242.183  10
  -7  -5  -3 2688.26 216.696  17
  -7  -5  -3 2518.77 221.145   9
  -7  -5  -3 2696.71 213.102  16
   7   5   3 2896.18 275.460   4
   7   5   3 2732.01 250.999  15
   7   5   4 12969.9 482.826   7
   7   5   4 12627.2 476.500  14
  -7  -5  -4 12697.7 513.823  21
  -7  -5  -4 12082.3 602.822  12
   7   5   4 12073.3 588.933   6
   7   5   4 12372.0 486.115  20
   7   5   4 12427.2 545.320  11
  -7  -5  -4 12699.8 541.391  10
  -7  -5  -4 12249.6 502.520  17
  -7  -5  -4 11636.3 531.640   9
  -7  -5  -4 13008.0 510.026  16
   7   5   4 13192.3 611.464   4
   7   5   4 11976.7 546.445  15
   7   5   5 327.824 94.5288  15
   7   5   5 345.406 70.3532  14
   7   5   5 341.934 102.439   4
   7   5   5 279.975 61.9245   7
  -7  -5  -5 348.999 85.1564  13
  -7  -5  -5 360.361 140.500  12
  -7  -5  -5 437.542 92.0026  21
   7   5   5 412.363 85.0028  20
   7   5   5 355.195 104.027  11
   7   5   5 452.333 120.654   6
  -7  -5  -5 411.135 104.393  10
  -7  -5  -5 398.435 90.5595  17
  -7  -5  -5 329.784 110.545   9
  -7  -5  -5 316.925 81.3045  16
   7   5   6 633.941 110.736  15
   7   5   6 980.153 169.402   4
   7   5   6 554.833 102.300  20
   7   5   6 662.789 141.960  11
   7   5   6 507.002 125.986   6
  -7  -5  -6 545.989 123.622  10
  -7  -5  -6 718.386 117.873  17
  -7  -5  -6 676.866 136.738   9
  -7  -5  -6 596.014 107.683  16
   7   5   7 130.784 58.7910  15
   7   5   7 142.111 87.4069   4
   7   5   7 76.5765 53.5465  20
   7   5   7 27.7499 80.9903  11
   7   5   7 161.297 105.096   6
   7   5   7 185.972 66.6350  19
  -7  -5  -7 120.453 68.8551  10
  -7  -5  -7 78.8551 54.6905  17
  -7  -5  -7 112.070 81.7962   9
  -7  -5  -7 176.958 68.8001  16
   7   5   8 1990.78 195.847  20
   7   5   8 1797.88 234.217  11
   7   5   8 1452.21 225.357   6
   7   5   8 1578.09 175.820  19
  -7  -5  -8 1702.06 213.347  10
  -7  -5  -8 1634.16 189.856  17
  -7  -5  -8 1582.44 217.107   9
  -7  -5  -8 1752.26 189.972  16
   7   5   8 2157.59 255.406   4
   7   5   9 2035.56 254.624   4
   7   5   9 2454.65 289.280   6
   7   5   9 1986.95 209.573  20
   7   5   9 1966.42 249.653  11
   7   5   9 2051.16 212.114  19
  -7  -5  -9 1754.69 222.031  10
  -7  -5  -9 1473.92 186.661  17
  -7  -5  -9 1888.77 240.971   9
  -7  -5  -9 1940.34 209.563  16
   7   5  10 3664.83 368.733   6
   7   5  10 3459.42 291.126  20
   7   5  10 4108.65 370.591  11
   7   5  10 3739.37 300.708  19
  -7  -5 -10 3667.22 332.041  10
  -7  -5 -10 3606.90 311.846  17
  -7  -5 -10 4134.98 375.223   9
  -7  -5 -10 3875.61 316.875  16
   7   5  10 4122.02 371.592   4
   7   5  11 1265.12 223.382   4
   7   5  11 921.360 161.234  20
   7   5  11 1300.29 216.589  11
   7   5  11 1149.38 215.194   6
   7   5  11 1005.21 168.413  19
  -7  -5 -11 1508.77 227.116  10
  -7  -5 -11 1233.44 191.079  17
  -7  -5 -11 1297.93 219.751   9
  -7  -5 -11 1363.72 191.140  16
   7   5  12 1330.88 229.547   4
  -7  -5 -12 1060.08 199.798  10
  -7  -6   7 411.897 124.253  21
  -7  -6   7 596.952 153.271  20
  -7  -6   7 549.704 161.055  19
  -7  -6   7 565.263 148.033  17
  -7  -6   7 409.332 134.025  16
   7   6  -6 179.352 109.609  15
   7   6  -6 69.2616 84.4828  14
   7   6  -6 345.226 148.130   7
  -7  -6   6-73.1030 103.554  21
  -7  -6   6 62.4709 76.0578  20
  -7  -6   6 67.1021 90.2243  19
  -7  -6   6-18.8367 73.5614  17
  -7  -6   6 112.413 122.429   5
  -7  -6   6 4.88007 72.0761  16
   7   6  -5 388.397 138.492  15
   7   6  -5 287.861 115.575  14
   7   6  -5 444.799 136.652   7
  -7  -6   5 519.087 127.055  21
  -7  -6   5 464.486 127.120  12
  -7  -6   5 608.934 152.356  20
  -7  -6   5 465.704 128.421  19
  -7  -6   5 325.974 111.463  17
  -7  -6   5 286.213 129.048   5
  -7  -6   5 387.655 126.042  16
   7   6  -4-106.703 119.325  15
   7   6  -4 39.5668 79.4326  14
   7   6  -4 9.50080 82.2670   7
  -7  -6   4-37.2168 79.1003  21
  -7  -6   4 91.8968 86.9486  12
  -7  -6   4 43.3969 78.0436  20
  -7  -6   4 42.7215 69.2899  19
  -7  -6   4 162.706 87.9897  17
  -7  -6   4 45.0895 84.2748   5
  -7  -6   4 33.0156 66.5700  16
   7   6  -3 2073.66 269.112  15
   7   6  -3 1311.14 203.227  14
   7   6  -3 1538.09 228.848   7
  -7  -6   3 1862.21 208.268  21
  -7  -6   3 1340.05 203.851  12
  -7  -6   3 1536.43 205.095  20
  -7  -6   3 1278.26 178.693  19
  -7  -6   3 1578.50 195.158  17
  -7  -6   3 1707.86 246.110   5
  -7  -6   3 1522.66 190.264  16
   7   6  -2 2372.60 266.682   7
   7   6  -2 2346.10 262.621  14
  -7  -6   2 2294.37 227.226  21
  -7  -6   2 2736.02 274.557  12
  -7  -6   2 1931.87 215.619  20
  -7  -6   2 2375.61 231.504  19
  -7  -6   2 2482.91 281.033   5
  -7  -6   2 2579.76 233.855  17
  -7  -6   2 2220.68 220.154  16
   7   6  -2 2378.82 285.482  15
   7   6  -1-10.2700 80.8995  15
   7   6  -1-60.9747 60.5522  14
   7   6  -1 30.7431 70.7994   7
  -7  -6   1 116.894 75.3320  21
  -7  -6   1 92.8573 97.2399  12
  -7  -6   1-25.3150 63.1392  19
  -7  -6   1 114.621 63.9362  17
  -7  -6   1 48.4839 102.026   5
  -7  -6   1 9.36272 63.4430  16
   7   6   0 2055.36 247.240  15
   7   6   0 2339.42 241.091   7
   7   6   0 2395.84 236.629  14
  -7  -6   0 2097.41 190.739  21
  -7  -6   0 2429.46 258.808  12
   7   6   0 2370.22 177.610  11
  -7  -6   0 2286.70 205.783  19
  -7  -6   0 2144.50 249.191   5
  -7  -6   0 2163.82 197.647  17
  -7  -6   0 2363.30 198.918  16
   7   6   1 1738.75 220.896  15
   7   6   1 1860.75 206.455   7
   7   6   1 1763.64 203.003  14
  -7  -6  -1 1739.43 172.424  21
  -7  -6  -1 1641.39 218.852  12
   7   6   1 2213.88 182.169  11
   7   6   1 1775.87 216.803   6
  -7  -6  -1 2204.95 204.832  10
  -7  -6  -1 2001.37 185.911  19
  -7  -6  -1 2250.34 251.219   5
  -7  -6  -1 2211.40 189.817  17
  -7  -6  -1 1894.22 170.325   9
  -7  -6  -1 2268.85 185.115  16
   7   6   2 208.842 90.3984  15
   7   6   2 171.681 81.9629  14
   7   6   2 151.048 64.2254   7
  -7  -6  -2 152.066 84.7823  13
  -7  -6  -2 240.088 106.348  12
  -7  -6  -2 287.288 77.0159  21
   7   6   2 148.063 72.6977   6
   7   6   2 192.305 74.0510  11
  -7  -6  -2 289.155 75.7028  19
  -7  -6  -2 200.473 63.1145  10
  -7  -6  -2 205.129 68.1583  17
  -7  -6  -2 251.056 76.8924   9
  -7  -6  -2 201.521 64.2428  16
   7   6   3 963.662 160.053  15
   7   6   3 958.017 169.631   4
   7   6   3 916.936 136.818  14
   7   6   3 777.007 130.789   7
  -7  -6  -3 956.818 142.041  13
  -7  -6  -3 672.907 162.623  12
  -7  -6  -3 814.720 112.949  21
   7   6   3 788.724 151.716   6
   7   6   3 583.558 112.444  11
  -7  -6  -3 935.908 136.450  10
  -7  -6  -3 890.902 113.775  17
  -7  -6  -3 921.277 138.510   9
  -7  -6  -3 968.071 119.275  16
   7   6   4 136.522 69.5648  15
   7   6   4 27.6166 88.3283   4
   7   6   4 199.117 75.1840  14
   7   6   4 130.496 53.7171   7
  -7  -6  -4 65.0087 55.0329  13
  -7  -6  -4 47.9316 88.7406  12
  -7  -6  -4 69.0300 36.6195  21
   7   6   4 172.939 103.670   6
   7   6   4 63.3948 63.9225  11
  -7  -6  -4 69.6563 63.5363  10
  -7  -6  -4 45.6444 41.6021  17
  -7  -6  -4 104.639 69.7373   9
  -7  -6  -4 87.3542 47.1719  16
   7   6   5 8429.75 375.375   7
   7   6   5 8511.50 403.185  14
  -7  -6  -5 8341.39 400.552  13
  -7  -6  -5 9032.36 383.592  21
  -7  -6  -5 8548.52 505.218  12
   7   6   5 8820.03 514.153   6
   7   6   5 8960.97 367.696  20
   7   6   5 8671.05 456.895  11
  -7  -6  -5 8820.68 429.321  10
  -7  -6  -5 8901.15 377.667  17
  -7  -6  -5 8899.37 457.222   9
  -7  -6  -5 9155.35 380.149  16
   7   6   5 9005.02 503.429   4
   7   6   5 8012.80 439.896  15
   7   6   6 70.9875 46.4083  15
   7   6   6 70.1440 99.2132   4
  -7  -6  -6 69.8873 55.8979  13
  -7  -6  -6 168.108 118.742  12
  -7  -6  -6 59.3337 36.9104  21
   7   6   6 70.0808 43.4863  20
   7   6   6 124.188 99.3302   6
   7   6   6-5.31166 70.0435  11
  -7  -6  -6 14.3611 44.8772  10
  -7  -6  -6-12.4992 45.2511  17
  -7  -6  -6-28.3287 73.7201   9
  -7  -6  -6 33.6533 46.0114  16
  -7  -6  -7 9457.56 547.270  12
   7   6   7 10493.2 586.690   6
   7   6   7 9411.59 518.937  11
  -7  -6  -7 9852.04 486.412  10
  -7  -6  -7 10061.3 532.463   9
   7   6   7 9691.65 541.512   4
   7   6   7 9680.88 461.554  15
   7   6   8 480.732 144.228   4
   7   6   8 652.835 159.412   6
   7   6   8 840.196 170.513  11
  -7  -6  -8 672.852 131.985  10
  -7  -6  -8 666.910 153.858   9
   7   6   9-47.2277 78.9805   4
   7   6   9-7.64053 83.2682  11
   7   6   9-11.7606 91.8207   6
  -7  -6  -9 99.5456 84.9802  10
  -7  -6  -9-5.46963 74.8927   9
   7   6  10 1177.88 203.758   4
   7   6  10 1554.50 234.366  11
   7   6  10 1373.64 234.011   6
  -7  -6 -10 1331.87 200.561  10
  -7  -6 -10 1542.58 232.675   9
   7   6  11 2531.57 304.144   4
   7   6  11 2965.77 344.011   6
   7   6  11 2616.87 311.558  11
  -7  -6 -11 2718.11 292.443  10
  -7  -6 -11 2704.87 318.954   9
  -7  -6 -12 3669.79 356.894  10
   7   6  12 4605.76 418.654   4
  -7  -6 -13-171.436 106.809  10
   7   7  -5 165.678 96.4929  15
   7   7  -5 205.543 112.433  14
   7   7  -5 437.133 150.474   7
  -7  -7   5 403.779 125.981  12
  -7  -7   5 366.747 146.854   5
   7   7  -4 34.9198 78.5827  15
   7   7  -4 15.9352 91.6200  14
   7   7  -4-36.9966 77.4580   7
  -7  -7   4 27.9558 87.8491  12
  -7  -7   4-172.162 107.871   5
   7   7  -3 1872.51 258.027  15
   7   7  -3 2069.09 275.075   7
   7   7  -3 2194.67 279.667  14
  -7  -7   3 2128.96 258.316  12
  -7  -7   3 1917.13 270.579   5
   7   7  -2 5350.16 417.324   7
   7   7  -2 5274.43 413.907  14
  -7  -7   2 5833.28 424.536  12
  -7  -7   2 5525.42 432.103   5
   7   7  -2 5359.10 437.043  15
   7   7  -1 1582.01 226.602  15
   7   7  -1 1418.55 209.411  14
   7   7  -1 1837.28 231.036   7
  -7  -7   1 2368.03 270.397  12
  -7  -7   1 1610.78 232.521   5
   7   7   0 593.723 155.913  15
   7   7   0 268.752 105.332  14
   7   7   0 258.966 90.2874   7
  -7  -7   0 302.717 122.377  12
  -7  -7   0 212.519 108.117   5
   7   7   1 358.457 125.775  15
   7   7   1 396.879 109.111  14
   7   7   1 327.262 107.254   7
  -7  -7  -1 117.991 74.5083  13
  -7  -7  -1 229.895 120.638  12
  -7  -7  -1 343.595 124.584   5
   7   7   2 4448.39 322.752   7
   7   7   2 4303.52 321.510  14
  -7  -7  -2 3642.50 305.570  13
  -7  -7  -2 3799.72 342.996  12
   7   7   2 4387.82 359.784   6
   7   7   2 4662.06 269.990  11
  -7  -7  -2 4224.43 261.057  10
  -7  -7  -2 4758.08 359.724   5
  -7  -7  -2 4318.13 258.826   9
   7   7   2 3972.62 338.209  15
   7   7   3 16938.0 673.227   7
   7   7   3 17028.0 691.541  14
  -7  -7  -3 15946.9 675.762  13
  -7  -7  -3 17063.3 769.721  12
   7   7   3 18455.0 788.041   6
   7   7   3 18407.5 641.880  11
  -7  -7  -3 17325.5 603.248  10
  -7  -7  -3 17630.5 628.936   9
   7   7   3 17376.2 745.898  15
   7   7   4 24505.3 813.416   7
   7   7   4 23071.8 829.358  14
  -7  -7  -4 23413.1 834.258  13
  -7  -7  -4 22145.3 914.464  12
   7   7   4 23756.7 947.251   6
   7   7   4 25039.0 820.018  11
  -7  -7  -4 23819.2 758.570  10
  -7  -7  -4 24066.8 805.520   9
   7   7   4 25177.1 920.871   4
   7   7   4 22928.8 881.562  15
   7   7   5 7.57532 64.8942  15
   7   7   5-51.6717 78.3119   4
   7   7   5-36.5761 74.0165  14
   7   7   5-15.1153 48.3671   7
  -7  -7  -5 91.0983 67.9789  13
  -7  -7  -5-0.67595 89.6652  12
   7   7   5-33.1018 105.568   6
   7   7   5 30.1028 59.2800  11
  -7  -7  -5-54.2493 51.7312  10
  -7  -7  -5 52.4373 61.3061   9
  -7  -7  -6 3460.15 261.904  13
  -7  -7  -6 3018.13 304.532  12
   7   7   6 3092.16 310.443   6
   7   7   6 3140.74 279.615  11
  -7  -7  -6 3032.36 235.691  10
  -7  -7  -6 2653.82 257.339   9
   7   7   6 3196.25 298.681   4
   7   7   6 2947.39 264.950  15
  -7  -7  -7 3487.17 262.803  13
  -7  -7  -7 3323.55 329.515  12
   7   7   7 3882.95 359.404   6
   7   7   7 3770.59 318.047  11
  -7  -7  -7 3838.89 277.892  10
  -7  -7  -7 4409.03 337.692   9
   7   7   7 3925.92 334.579   4
   7   7   7 3526.44 286.691  15
   7   7   8 263.764 98.4616   4
  -7  -7  -8 351.243 137.020  12
   7   7   8 228.270 109.813   6
   7   7   8 107.425 85.3836  11
  -7  -7  -8 117.529 66.3851  10
  -7  -7  -8 277.004 111.726   9
   7   7   8 96.8753 71.1861  15
   7   7   9 2135.52 258.911   4
   7   7   9 2325.37 273.669  11
   7   7   9 1986.75 269.930   6
  -7  -7  -9 1935.38 219.222  10
  -7  -7  -9 2289.52 273.905   9
   7   7  10 591.537 146.940   4
   7   7  10 574.758 150.407   6
   7   7  10 663.469 163.285  11
  -7  -7 -10 614.007 135.888  10
  -7  -7 -10 278.805 110.394   9
   7   7  11 1634.96 242.819   4
   7   7  11 2081.25 297.468   6
   7   7  11 1593.55 252.121  11
  -7  -7 -11 1635.96 221.102  10
  -7  -7 -11 1587.62 244.792   9
   7   7  12 97.3496 99.3973   4
  -7  -8   6 124.773 78.9035  12
  -7  -8   5 27.6642 95.6669  12
   7   8  -4-107.129 102.836  15
   7   8  -4-19.5549 98.3554  14
   7   8  -4-40.3470 78.1219   7
  -7  -8   4 42.9334 93.6633  12
  -7  -8   4 80.5957 103.695   5
   7   8  -3 41.5525 86.3217  15
   7   8  -3 95.2453 67.3162  14
   7   8  -3-40.9699 92.3142   7
  -7  -8   3-15.5692 83.6231  12
  -7  -8   3-13.4402 81.2771   5
   7   8  -2 1047.21 209.025  15
   7   8  -2 1215.40 213.408  14
   7   8  -2 1273.52 212.967   7
  -7  -8   2 771.015 174.342  12
  -7  -8   2 846.903 187.039   5
   7   8  -1 86.6137 93.8902  15
   7   8  -1 120.898 90.5383  14
   7   8  -1-51.5687 74.3715   7
  -7  -8   1 152.657 105.024  13
  -7  -8   1 31.4497 80.4464  12
   7   8   0 844.599 179.546  15
   7   8   0 1146.64 192.779  14
   7   8   0 1027.16 186.362   7
  -7  -8   0 678.849 153.770  13
  -7  -8   0 1038.82 193.320  12
  -7  -8   0 891.287 172.100   5
   7   8   1-27.1409 87.9718  15
   7   8   1 8.37834 83.3558  14
   7   8   1 49.0226 70.5997   7
  -7  -8  -1 115.234 86.0775  13
  -7  -8  -1 101.842 77.8069  12
  -7  -8  -1-21.2292 77.8139   5
   7   8   2 186.094 100.436  15
   7   8   2 202.234 100.642  14
   7   8   2 90.0696 73.2808   7
  -7  -8  -2 75.1791 77.9831  13
  -7  -8  -2 90.7548 95.9848  12
  -7  -8  -2 331.847 114.652   5
   7   8   3 427.700 137.801  15
   7   8   3 173.508 86.2334  14
   7   8   3 413.745 117.212   7
  -7  -8  -3 222.891 101.605  13
  -7  -8  -3 299.821 118.972  12
   7   8   3 291.432 115.318   6
  -7  -8  -3 373.094 118.505   5
   7   8   4 1473.16 197.954  14
   7   8   4 1227.09 166.953   7
  -7  -8  -4 1276.38 182.773  13
  -7  -8  -4 1342.59 214.267  12
   7   8   4 1251.40 211.723   6
   7   8   4 1308.27 163.975  11
  -7  -8  -4 1565.58 175.839   9
   7   8   4 1105.41 180.415  15
   7   8   5 302.467 109.186   4
   7   8   5 135.326 57.4465   7
   7   8   5 305.987 97.0101  14
  -7  -8  -5 295.073 94.4696  13
  -7  -8  -5 255.384 102.855  12
   7   8   5 337.016 129.817   6
   7   8   5 430.379 111.465  11
  -7  -8  -5 274.736 77.7151   9
   7   8   5 192.362 89.3252  15
   7   8   6 636.664 149.680   4
  -7  -8  -6 510.148 111.929  13
  -7  -8  -6 779.697 171.887  12
   7   8   6 535.654 150.251   6
   7   8   6 775.778 146.919  11
  -7  -8  -6 889.856 147.035   9
   7   8   6 586.844 133.444  15
   7   8   7 19.7105 97.1060   4
  -7  -8  -7-212.254 85.4453  13
  -7  -8  -7-83.7266 88.6688  12
   7   8   7 17.0198 93.4963   6
   7   8   7-291.830 98.8103  11
  -7  -8  -7 198.296 102.476   9
   7   8   7 0.39637 70.4294  15
   7   8   8 449.548 127.993   4
  -7  -8  -8 309.770 116.963  12
   7   8   8 501.320 136.303   6
   7   8   8 277.484 111.348  11
  -7  -8  -8 262.452 103.948   9
   7   8   9 1041.70 186.232   4
  -7  -8  -9 999.153 201.760  12
   7   8   9 862.465 184.195   6
   7   8   9 822.170 176.455  11
  -7  -8  -9 954.129 187.472   9
   7   8  10 294.863 117.760   4
   7   8  10 291.326 130.727   6
   7   8  10 119.889 103.302  11
  -7  -8 -10 409.302 133.556   9
   7   8  11 13.9154 91.7765   4
   7   8  12-359.418 130.298   4
  -7  -9   3-97.8408 105.168  12
  -7  -9   3 146.951 106.278   5
   7   9  -2 23.8227 91.5131  15
   7   9  -2 14.7935 84.6799  14
   7   9  -2 17.5497 87.2270   7
  -7  -9   2 51.9746 65.7078  12
  -7  -9   2 46.8105 64.9561   5
   7   9  -1 294.833 140.850  15
   7   9  -1 189.119 102.814  14
   7   9  -1 347.195 144.161   7
  -7  -9   1 352.854 122.431  13
  -7  -9   1 241.431 116.003  12
  -7  -9   1 407.799 134.513   5
   7   9   0 0.85829 89.5979  15
   7   9   0 35.3767 74.8814  14
  -7  -9   0-4.58994 95.9519  13
  -7  -9   0-52.4454 93.4812  12
  -7  -9   0-7.64334 60.9067   2
  -7  -9   0 37.8714 98.5011   5
   7   9   1 1433.46 234.643  15
   7   9   1 1319.53 211.369   7
   7   9   1 1563.28 230.591  14
  -7  -9  -1 1094.21 195.223  13
  -7  -9  -1 1461.72 238.676  12
  -7  -9  -1 1482.69 212.918   2
  -7  -9  -1 982.554 188.883   5
   7   9   2 111.473 84.1525  14
   7   9   2 12.7289 80.4430   7
  -7  -9  -2 161.842 78.6341  13
  -7  -9  -2 154.895 110.218  12
  -7  -9  -2 87.1520 85.3853   5
   7   9   2 152.267 92.6052  15
   7   9   3-20.3094 75.4116   7
   7   9   3 92.0011 87.0947  14
  -7  -9  -3-49.7033 82.7783  13
  -7  -9  -3-54.6878 107.141  12
  -7  -9  -3 55.9232 79.3953   5
   7   9   3 157.918 115.024  15
   7   9   4 2925.08 303.135  14
  -7  -9  -4 2525.63 273.861  13
  -7  -9  -4 3067.00 329.328  12
   7   9   4 2851.59 317.369   6
  -7  -9  -4 2614.30 261.259   3
  -7  -9  -4 2837.64 288.650   5
   7   9   4 2558.48 294.169  15
   7   9   4 2744.16 269.352   7
   7   9   5-32.5016 58.3293   7
   7   9   5-19.6351 88.8050  14
  -7  -9  -5 165.642 102.899  13
  -7  -9  -5 57.7160 85.3258  12
   7   9   5-38.5550 85.3663   6
  -7  -9  -5 29.7577 61.9622   5
   7   9   5-129.515 102.090  15
  -7  -9  -6 162.177 102.683  13
  -7  -9  -6-72.0095 93.3601  12
   7   9   6 39.6098 78.5695   6
   7   9   6-72.8105 77.9797  11
  -7  -9  -6 42.4799 55.3737   9
   7   9   6 43.2983 63.1831  15
   7   9   7 306.029 110.783   4
  -7  -9  -7 56.1886 73.1033  13
  -7  -9  -7 29.6664 77.5305  12
   7   9   7 100.638 93.0448   6
   7   9   7 60.6450 74.8978  11
  -7  -9  -7 99.3514 89.6228   9
   7   9   7 80.2378 66.9648  15
   7   9   8 404.062 115.600   4
  -7  -9  -8 264.493 99.1772  13
  -7  -9  -8 511.470 145.137  12
   7   9   8 320.660 117.811   6
   7   9   8 162.296 83.6109  11
  -7  -9  -8 281.922 102.291   9
   7   9   9 188.968 86.1440   4
  -7  -9  -9 136.134 93.9919  12
   7   9   9-7.06453 115.401   6
   7   9   9 17.6620 74.6762  11
  -7  -9  -9-22.8913 89.3406   9
  -7  -9 -10 1871.38 267.458  12
  -7  -9 -10 1397.26 232.301   9
  -7 -10   1 220.679 94.5851   5
   7  10   0 364.386 125.476   7
  -7 -10   0 285.805 126.958  13
  -7 -10   0 502.378 157.329   5
   7  10   1 3269.13 352.667  14
  -7 -10  -1 2961.01 341.574  13
  -7 -10  -1 3091.97 316.813   2
  -7 -10  -1 2508.89 294.391   5
   7  10   1 3025.49 333.713   7
   7  10   1 2907.75 337.685  15
   7  10   2 361.200 124.731   7
   7  10   2 602.627 157.885  14
  -7 -10  -2 558.745 150.747  13
  -7 -10  -2 774.397 184.763  12
  -7 -10  -2 514.137 144.548   2
  -7 -10  -2 673.981 156.707   5
   7  10   2 691.455 177.365  15
   7  10   3 1307.16 206.350   7
   7  10   3 1507.23 242.985  14
  -7 -10  -3 1593.92 238.440  13
  -7 -10  -3 1584.96 256.188  12
  -7 -10  -3 1140.34 202.289   2
  -7 -10  -3 1258.20 199.695   5
   7  10   3 1210.81 222.779  15
   7  10   4 404.775 120.301   7
   7  10   4 570.910 159.087  14
  -7 -10  -4 531.994 143.992  13
  -7 -10  -4 586.517 163.177  12
  -7 -10  -4 1015.20 197.990   2
  -7 -10  -4 408.118 119.147   5
   7  10   4 565.780 143.171  15
  -7 -10  -5 37.4176 77.8142  13
  -7 -10  -5-50.6214 108.806  12
  -7 -10  -5-82.2250 66.3648   2
  -7 -10  -5 220.853 82.7573   3
  -7 -10  -5 98.4680 73.8080   5
   7  10   5 47.7788 77.1800  15
  -7 -10  -6 1475.96 223.008  13
  -7 -10  -6 1450.21 242.696  12
   7  10   6 1260.74 235.893   6
  -7 -10  -6 1367.46 248.541   2
  -7 -10  -6 914.307 188.744   3
  -7 -10  -7 652.356 162.546  13
  -7 -10  -7 511.562 145.770  12
  -7 -10  -7 624.663 156.612   3
  -7 -10  -8 2268.72 279.727  13
  -7 -10  -8 1666.82 262.471  12
  -7 -10  -8 2235.01 294.241   3
  -7 -10  -9-68.7042 113.677   9
  -7 -11   0 1871.49 270.654   5
  -7 -11  -2 5543.10 459.147   2
  -7 -11  -3 362.094 134.728   2
  -8   3  -1 55.0083 93.4820  18
   8  -2  -2 512.364 161.186   3
   8  -2  -1 668.825 182.644   3
   8  -2   0 155.895 114.458   3
   8  -2   1-32.9253 98.2390   3
   8  -1  -3 367.737 145.996   3
   8  -1  -3 73.5980 114.421   7
   8  -1  -2 392.656 135.251   3
   8  -1  -2 270.693 153.707   7
  -8   1   2 171.445 107.435  10
   8  -1  -1 21.5408 85.1555   3
   8  -1  -1-92.1030 146.326   7
  -8   1   1 201.745 120.905  21
  -8   1   1-17.8180 103.891  10
  -8   1   1-18.4558 86.6895  17
  -8   1   1 110.952 127.954  16
   8  -1   0 36.5271 90.4658   3
  -8   1   0 361.973 149.021  21
  -8   1   0 162.599 93.0214  10
  -8   1   0 66.2276 100.384  17
  -8   1   0 240.123 136.386  16
   8  -1   1 426.274 112.576   4
   8  -1   1 617.726 171.795   3
  -8   1  -1 509.458 160.000  21
   8  -1   1 427.721 139.727  20
   8  -1   1 758.815 168.067  11
  -8   1  -1 535.047 162.573  10
  -8   1  -1 522.460 149.698  17
  -8   1  -1 459.285 143.786  16
   8  -1   2 49.0186 67.2382   4
   8  -1   2-12.5144 102.261   3
  -8   1  -2 22.0372 90.6491  21
   8  -1   2-15.1790 90.5084  20
   8  -1   2-39.8878 79.0464  11
  -8   1  -2 53.4580 81.6912  10
  -8   1  -2 259.437 141.516  17
  -8   1  -2-33.8694 104.032  16
   8  -1   3 358.049 113.062   4
   8  -1   3 413.614 147.310   3
  -8   1  -3 371.842 140.979  21
   8  -1   3 407.944 133.638  20
   8  -1   3 554.101 172.595  11
  -8   1  -3 265.706 132.590  10
  -8   1  -3 442.765 152.801  17
  -8   1  -3 217.787 99.2264  16
   8  -1   4 414.379 121.191   4
  -8   1  -4 685.359 188.426  21
   8  -1   4 878.595 184.568  20
  -8   1  -4 980.908 208.078  10
  -8   1  -4 915.639 204.110  17
  -8   1  -4 936.890 196.728  16
   8  -1   5 33.0883 71.2853   4
   8  -1   5 15.3411 99.3139  11
  -8   1  -5 168.209 94.4743  10
  -8   1  -5-13.4366 94.1277  17
  -8   1  -5 10.7642 96.3895  16
   8  -1   6 10.1204 83.9315   4
   8  -1   7 1210.66 215.770   4
   8  -1   7 1177.60 207.188   6
   8  -1   8-81.8858 102.704   6
   8   0  -4 1307.66 250.154   7
   8   0  -3-65.6780 93.1441   3
   8   0  -3-37.8882 109.071   7
  -8   0   3-76.8864 103.502  21
  -8   0   3-58.5919 75.0708  10
  -8   0   3 64.8782 99.0217  19
  -8   0   3 97.8684 122.156  17
  -8   0   3-214.307 93.8284   5
  -8   0   3 86.0552 110.620  16
   8   0  -2 906.410 186.704   3
   8   0  -2 990.257 209.221   7
  -8   0   2 1248.35 232.003  21
  -8   0   2 1339.93 227.864  10
  -8   0   2 1046.49 216.256  17
  -8   0   2 770.669 149.559   5
  -8   0   2 1032.96 206.116  16
   8   0  -1 1581.91 233.869   3
   8   0  -1 1378.46 243.370   7
  -8   0   1 1634.45 255.275  21
  -8   0   1 2077.57 283.534  10
  -8   0   1 1943.39 276.302  17
  -8   0   1 1521.74 240.163  16
   8   0   0 460.042 146.809   3
   8   0   0 334.384 126.448   7
  -8   0   0 363.299 150.637  21
  -8   0   0 403.495 144.447  10
  -8   0   0 501.208 151.721  17
  -8   0   0 371.817 146.608  16
  -8   0  -1 35582.7 1308.73  21
   8   0   1 35944.7 1266.50  11
   8   0   1 39514.7 1312.48  20
  -8   0  -1 36663.4 1307.35  10
   8   0   1 35058.7 1258.93   3
  -8   0  -1 36442.6 1319.64  17
  -8   0  -1 38324.2 1329.81  16
   8   0   1 35967.8 1183.23   4
   8   0   2 5351.51 413.139   7
  -8   0  -2 6307.87 486.929  21
   8   0   2 6893.02 476.825  11
   8   0   2 7150.52 485.687  20
  -8   0  -2 6596.93 484.960  10
   8   0   2 6812.21 482.591   3
  -8   0  -2 6345.35 485.241  17
  -8   0  -2 6694.36 487.130  16
   8   0   2 5805.28 412.149   4
   8   0   3 665.047 144.041   4
   8   0   3 814.432 166.076   7
  -8   0  -3 888.827 181.819  21
   8   0   3 637.090 159.170  20
   8   0   3 717.544 169.226  11
  -8   0  -3 771.035 177.529  10
  -8   0  -3 880.599 193.910  17
  -8   0  -3 973.079 196.211  16
   8   0   4 538.047 138.892   4
  -8   0  -4 388.261 137.000  21
   8   0   4 623.302 148.111  20
   8   0   4 996.815 194.349  11
   8   0   4 558.872 124.503   6
  -8   0  -4 557.661 150.048  10
  -8   0  -4 724.654 177.765   9
  -8   0  -4 461.864 153.775  17
  -8   0  -4 630.635 162.273  16
   8   0   5 531.914 141.637   4
   8   0   5 385.916 124.017  20
   8   0   5 271.606 107.201  11
   8   0   5 630.718 141.285   6
  -8   0  -5 463.994 152.887  10
  -8   0  -5 175.843 102.438   9
  -8   0  -5 406.887 148.477  17
  -8   0  -5 432.252 143.912  16
   8   0   6 78.0118 61.9358   4
   8   0   6 195.236 113.452  20
   8   0   6 239.735 124.104  11
   8   0   6-44.7990 84.3675   6
  -8   0  -6 51.2710 70.9324  10
  -8   0  -6 73.3923 96.9897   9
  -8   0  -6 116.074 97.3122  17
  -8   0  -6 69.2135 104.519  16
   8   0   7 2774.16 315.283   4
   8   0   7 3068.10 341.323  20
   8   0   7 2498.91 293.015   6
   8   0   7 2880.91 322.364  11
   8   0   7 3103.03 339.491  19
  -8   0  -7 3229.86 351.155  10
  -8   0  -7 3198.20 356.495   9
  -8   0  -7 2906.26 337.960  17
  -8   0  -7 2496.05 317.971  16
   8   0   8 3272.54 340.422   6
   8   0   8 3539.70 363.809   4
   8   0   9 407.948 136.426   6
   8   1  -6 71.5496 105.724  14
   8   1  -5 641.460 182.396  14
  -8  -1   5 496.315 140.757   5
   8   1  -4 76.8201 124.804  15
   8   1  -4 89.8375 96.8895  14
   8   1  -4 372.857 160.962   7
  -8  -1   4 398.799 139.039  21
  -8  -1   4 342.033 151.286  19
  -8  -1   4 472.627 155.366  17
  -8  -1   4 224.664 92.3112   5
  -8  -1   4 376.089 141.437  16
   8   1  -3 71.1948 120.414  15
   8   1  -3-371.929 126.495  14
   8   1  -3-30.6169 109.623   7
  -8  -1   3 98.2112 89.5195  21
  -8  -1   3-503.415 164.868  19
  -8  -1   3 0.28089 97.3962  17
  -8  -1   3 41.9370 70.6139   5
  -8  -1   3-98.3763 96.1630  16
   8   1  -2 11.9622 95.1775  15
   8   1  -2-42.1046 64.5912   3
   8   1  -2-14.9890 72.8314  14
   8   1  -2-54.1530 120.144   7
  -8  -1   2-8.93003 84.0707  21
  -8  -1   2-21.5123 103.781  10
  -8  -1   2-43.7752 124.260  19
  -8  -1   2-14.2118 68.8758  17
  -8  -1   2-51.0940 68.8251   5
  -8  -1   2-14.9561 70.1746  16
   8   1  -1-72.9778 141.112  15
   8   1  -1 77.1846 75.6578  14
   8   1  -1-72.7965 90.8407   3
   8   1  -1-13.3923 108.825   7
  -8  -1   1 17.4631 80.1841  21
  -8  -1   1-44.9781 97.8519  10
  -8  -1   1 47.2257 92.5700  17
  -8  -1   1 185.679 98.3050  16
   8   1   0 167.911 108.941  15
   8   1   0 266.391 99.5208   3
   8   1   0 126.660 102.335   7
  -8  -1   0 229.998 110.777  21
   8   1   0 55.5385 74.9486  11
  -8  -1   0 133.267 74.7952  10
  -8  -1   0 317.865 135.365  17
  -8  -1   0 185.121 96.9273  16
   8   1   1 859.238 178.939  15
   8   1   1 685.450 141.441   4
   8   1   1 701.791 160.883   7
  -8  -1  -1 779.869 175.647  21
   8   1   1 922.819 182.418  20
   8   1   1 857.010 162.912  11
  -8  -1  -1 647.347 160.178  10
  -8  -1  -1 520.786 152.925  17
  -8  -1  -1 518.876 145.495  16
   8   1   2 127.164 94.5257  15
   8   1   2 307.114 97.1468   4
   8   1   2 241.563 102.515   7
  -8  -1  -2 418.463 138.812  21
   8   1   2 343.718 119.087  20
   8   1   2 528.199 130.110  11
   8   1   2 394.668 93.4991   6
  -8  -1  -2 462.664 150.002  10
  -8  -1  -2 416.234 143.265  17
  -8  -1  -2 384.371 131.374  16
   8   1   3 483.651 139.854  15
   8   1   3 586.898 144.094   4
   8   1   3 532.184 130.314   7
  -8  -1  -3 687.136 160.280  21
   8   1   3 464.384 129.209  20
   8   1   3 770.153 168.359  11
   8   1   3 404.696 102.887   6
  -8  -1  -3 516.993 147.701  10
  -8  -1  -3 897.444 190.906   9
  -8  -1  -3 707.490 158.933  17
  -8  -1  -3 566.226 136.658  16
   8   1   4 1917.21 228.796  15
   8   1   4 2281.76 234.207   7
  -8  -1  -4 2553.55 292.266  21
   8   1   4 2494.72 245.599   6
   8   1   4 2553.53 278.216  20
   8   1   4 2854.64 298.454  11
  -8  -1  -4 3018.77 314.741  10
  -8  -1  -4 2496.57 291.648   9
  -8  -1  -4 2685.58 300.368  17
  -8  -1  -4 3208.24 319.790  16
   8   1   4 2396.13 267.117   4
   8   1   5-4.31838 81.2697  15
   8   1   5-151.473 92.6196   4
   8   1   5-143.376 106.218  20
   8   1   5-24.2327 94.0127  11
   8   1   5-44.9982 77.4052   6
  -8  -1  -5 96.8722 108.168  10
  -8  -1  -5 68.7658 89.3987   9
  -8  -1  -5 37.9162 85.0927  17
  -8  -1  -5-155.421 118.471  16
   8   1   6 6.42167 86.3587   4
   8   1   6 166.325 106.403  20
   8   1   6-33.1533 103.625  11
   8   1   6 72.0339 71.3274   6
  -8  -1  -6-5.92846 84.3547  10
  -8  -1  -6-8.60875 101.492   9
  -8  -1  -6 101.101 110.969  17
  -8  -1  -6 80.0645 95.5443  16
   8   1   7 195.605 115.555   4
   8   1   7 105.520 104.599  20
   8   1   7 66.5874 93.0949  11
   8   1   7 11.7904 67.1146   6
   8   1   7 31.8851 93.1990  19
  -8  -1  -7-94.7026 122.416  10
  -8  -1  -7 95.0381 104.902   9
  -8  -1  -7 12.1377 73.7436  17
  -8  -1  -7 59.8284 82.4352  16
   8   1   8-126.138 141.342   4
   8   1   8-77.7063 123.760  20
   8   1   8 21.7899 94.1206  11
   8   1   8-82.5134 96.7323   6
   8   1   8 38.5840 93.3115  19
  -8  -1  -8 128.288 97.4037  10
  -8  -1  -8 105.164 108.861   9
  -8  -1  -8 355.089 150.462  17
  -8  -1  -8-86.8565 125.861  16
   8   1   9 1834.91 266.257   4
   8   1   9 1702.53 252.599  20
   8   1   9 1733.91 259.154   6
   8   1   9 1773.12 259.731  19
  -8  -1  -9 1624.43 256.658  17
  -8  -1  -9 1753.40 266.974  16
  -8  -2   7 345.699 124.670   5
   8   2  -6 211.954 102.091  14
  -8  -2   6-1.04158 115.031   5
   8   2  -5 299.566 168.278  15
   8   2  -5 114.182 79.7133  14
   8   2  -5-78.9175 133.801   7
  -8  -2   5 251.792 148.363  21
  -8  -2   5 288.499 133.650  19
  -8  -2   5-50.3475 151.137  17
  -8  -2   5 80.9150 68.7359   5
  -8  -2   5 338.695 141.393  16
   8   2  -4 441.398 168.336  15
   8   2  -4 335.458 122.228  14
   8   2  -4 379.961 153.394   7
  -8  -2   4 230.023 122.777  21
  -8  -2   4 324.312 135.514  19
  -8  -2   4 357.231 137.151  17
  -8  -2   4 335.132 115.195   5
  -8  -2   4 394.312 149.249  16
   8   2  -3 40.3111 116.402  15
   8   2  -3 84.6312 89.9963  14
   8   2  -3 37.0092 92.4499   7
  -8  -2   3-25.4484 82.4869  21
  -8  -2   3 56.3655 73.6514  19
  -8  -2   3-55.8988 106.027  17
  -8  -2   3-4.51509 99.9845   5
  -8  -2   3 67.0641 105.698  16
   8   2  -2 132.925 113.495  15
   8   2  -2 258.115 99.6498  14
   8   2  -2 132.350 122.355   7
  -8  -2   2 11.8609 88.1576  21
  -8  -2   2 13.5095 95.9927  10
  -8  -2   2 84.1359 89.9124  19
  -8  -2   2 27.5208 93.3046  17
  -8  -2   2 50.1154 79.4633   5
  -8  -2   2-138.312 89.4233  16
   8   2  -1 211.589 128.262  15
   8   2  -1 167.861 85.6927  14
   8   2  -1 201.465 97.8653   7
  -8  -2   1 52.1844 73.5927  21
   8   2  -1 242.888 101.799  11
  -8  -2   1 205.610 113.914  10
  -8  -2   1 293.635 115.589  17
  -8  -2   1 126.041 94.9811  16
   8   2   0 103.714 107.052  15
   8   2   0 40.9776 60.5580  14
   8   2   0 115.480 87.5892   7
  -8  -2   0 40.5358 79.8876  21
   8   2   0 66.2765 60.3226   6
   8   2   0-69.9214 81.1684  11
  -8  -2   0-10.7151 92.2436  10
  -8  -2   0 98.1890 76.0012  17
  -8  -2   0-88.3542 78.9817  16
   8   2   1-123.322 107.455  15
   8   2   1-47.9165 76.5601   4
   8   2   1 73.7497 74.4907   7
  -8  -2  -1 130.147 82.6097  21
   8   2   1 8.86051 66.8124  11
   8   2   1 33.4306 65.1627   6
  -8  -2  -1-26.8396 74.4558  10
  -8  -2  -1 118.182 96.2476  17
  -8  -2  -1 31.6653 72.5482  16
   8   2   2 787.056 159.365  15
   8   2   2 800.330 150.095   4
   8   2   2 547.769 128.780   7
  -8  -2  -2 946.962 178.992  21
   8   2   2 803.635 158.064  20
   8   2   2 850.451 163.993  11
   8   2   2 726.433 123.009   6
  -8  -2  -2 973.442 176.860  10
  -8  -2  -2 677.032 152.946   9
  -8  -2  -2 671.886 157.035  17
  -8  -2  -2 673.024 147.401  16
   8   2   3 185.609 88.8472  15
   8   2   3 191.892 96.0557   4
   8   2   3 210.781 83.7079   7
  -8  -2  -3 196.006 97.5923  21
   8   2   3 189.083 84.2055  20
   8   2   3 92.7470 77.7161  11
   8   2   3 223.315 91.1719   6
  -8  -2  -3 191.899 95.5362  10
  -8  -2  -3 163.311 108.440   9
  -8  -2  -3 230.818 97.6168  17
  -8  -2  -3 178.852 90.8914  16
   8   2   4-28.1490 90.0820  15
   8   2   4 215.214 108.799   4
   8   2   4-11.0573 48.7783   7
  -8  -2  -4-22.1928 88.5544  21
   8   2   4-52.6158 67.6105  20
   8   2   4 103.943 81.6118  11
   8   2   4 71.5986 56.1510   6
  -8  -2  -4-19.9952 84.6753  10
  -8  -2  -4 89.2294 101.751   9
  -8  -2  -4 85.4697 75.9847  17
  -8  -2  -4 12.3947 69.0225  16
   8   2   5-23.5034 72.7946  15
   8   2   5 20.7881 84.6947   4
   8   2   5-0.20722 65.0922  20
   8   2   5-62.6956 74.8043  11
   8   2   5 44.1913 70.9064   6
  -8  -2  -5 41.3074 68.8680  10
  -8  -2  -5 157.750 116.726   9
  -8  -2  -5-19.0473 77.9467  17
  -8  -2  -5 24.8570 73.4669  16
   8   2   6 200.897 107.040   4
   8   2   6 273.782 105.070  20
   8   2   6 89.9040 83.6666  11
   8   2   6 118.514 87.2200   6
  -8  -2  -6 146.983 93.4397  10
  -8  -2  -6 87.5203 88.2014   9
  -8  -2  -6 38.6235 70.6298  17
  -8  -2  -6-9.86258 79.5046  16
   8   2   7 994.282 197.199   4
   8   2   7 914.859 180.586  20
   8   2   7 1396.82 227.442  11
   8   2   7 1427.16 209.749   6
   8   2   7 1146.27 197.716  19
  -8  -2  -7 1037.86 189.465  10
  -8  -2  -7 1368.77 213.834   9
  -8  -2  -7 909.320 180.330  17
  -8  -2  -7 945.733 175.793  16
   8   2   8 736.800 174.595   4
   8   2   8 694.137 158.391  20
   8   2   8 971.691 195.241  11
   8   2   8 712.484 163.161   6
   8   2   8 685.496 167.820  19
  -8  -2  -8 1151.27 204.982  10
  -8  -2  -8 795.863 182.762   9
  -8  -2  -8 949.037 190.775  17
  -8  -2  -8 859.772 190.098  16
   8   2   9 233.521 110.261   4
   8   2   9 92.9867 90.0528  20
   8   2   9 122.302 103.925  11
   8   2   9-210.079 109.941   6
   8   2   9 76.4810 102.813  19
  -8  -2  -9 58.1614 89.7246  10
  -8  -2  -9 45.9903 109.335   9
  -8  -2  -9 41.5280 74.2299  17
  -8  -2  -9-51.6316 101.314  16
   8   2  10-86.1939 78.1039  20
   8   2  10 61.9613 82.7409   6
   8   2  10 64.0534 89.0851  19
  -8  -2 -10 122.550 112.889  17
  -8  -2 -10-67.7121 121.340  16
   8   3  -6 1095.03 227.485  14
  -8  -3   6 1009.53 218.834  21
  -8  -3   6 964.653 225.317  17
  -8  -3   6 1001.57 207.693   5
  -8  -3   6 1075.48 212.453  16
   8   3  -5 1642.95 272.260  15
   8   3  -5 1985.38 275.294  14
   8   3  -5 1917.76 275.678   7
  -8  -3   5 1896.43 266.209  21
  -8  -3   5 2181.60 302.782  19
  -8  -3   5 2189.50 296.187  17
  -8  -3   5 2271.38 282.462   5
  -8  -3   5 2243.79 286.265  16
   8   3  -4 179.351 131.551  15
   8   3  -4-67.9250 94.2998  14
   8   3  -4 133.497 106.080   7
  -8  -3   4 105.667 80.9197  21
  -8  -3   4-9.53235 102.394  19
  -8  -3   4-109.481 117.669  17
  -8  -3   4 118.531 90.2555   5
  -8  -3   4 5.43841 80.4917  16
   8   3  -3 401.597 134.900  15
   8   3  -3 410.166 131.012  14
   8   3  -3 548.058 159.496   7
  -8  -3   3 455.086 130.118  21
  -8  -3   3 493.560 139.564  19
  -8  -3   3 603.747 160.937  17
  -8  -3   3 588.470 144.935   5
  -8  -3   3 244.159 120.104  16
   8   3  -2 357.418 140.166  15
   8   3  -2 113.025 81.4793  14
   8   3  -2 116.117 104.841   7
  -8  -3   2 207.742 111.824  21
   8   3  -2 227.070 87.7375  11
  -8  -3   2 187.790 120.057  10
  -8  -3   2 40.2609 98.1078  19
  -8  -3   2-5.39265 102.721  17
  -8  -3   2 189.327 98.8363   5
  -8  -3   2 78.6373 88.9220  16
   8   3  -1 9963.01 556.326   7
   8   3  -1 10118.7 509.483  14
  -8  -3   1 10167.6 572.112  21
   8   3  -1 9961.29 505.577  11
  -8  -3   1 9637.41 562.862  10
  -8  -3   1 9129.21 554.504  19
  -8  -3   1 9646.41 552.321   5
  -8  -3   1 10248.6 570.437  17
  -8  -3   1 9592.17 544.535  16
   8   3  -1 8600.23 561.747  15
   8   3   0 202.079 117.094  15
   8   3   0 75.9508 69.7084  14
   8   3   0 133.365 88.5256   7
  -8  -3   0 47.0013 92.3162  21
   8   3   0 124.820 70.9270   6
   8   3   0 96.5909 67.7343  11
  -8  -3   0 76.4713 94.2096  10
  -8  -3   0 45.4471 83.8847  17
  -8  -3   0 56.0764 83.7997  16
   8   3   1 921.415 172.542  15
   8   3   1 890.973 126.861  14
   8   3   1 781.589 145.885   7
  -8  -3  -1 983.289 162.578  21
   8   3   1 953.855 158.293  11
   8   3   1 897.221 145.203   6
  -8  -3  -1 878.771 168.189  10
  -8  -3  -1 646.906 146.121  17
  -8  -3  -1 1146.96 183.951  16
   8   3   2-5.14833 68.2854  15
   8   3   2-11.3009 76.3166   4
   8   3   2 48.3973 66.8747   7
  -8  -3  -2-75.9005 89.9519  21
   8   3   2-13.2066 75.6980  20
   8   3   2 27.6941 72.6575  11
   8   3   2 39.4797 54.3085   6
  -8  -3  -2 0.83651 73.5316  10
  -8  -3  -2-49.6736 70.3287   9
  -8  -3  -2-28.9819 80.3605  17
  -8  -3  -2-17.3417 75.8678  16
   8   3   3 35.9930 73.9371  15
   8   3   3-6.55648 67.8987   4
   8   3   3 77.0934 61.1915   7
  -8  -3  -3 59.7061 79.6983  21
   8   3   3 104.471 91.5756  20
   8   3   3 98.9123 87.8831  11
   8   3   3-53.0065 62.4803   6
  -8  -3  -3 72.9608 68.6037  10
  -8  -3  -3 109.647 74.0224   9
  -8  -3  -3 257.966 113.457  17
  -8  -3  -3 146.887 89.3038  16
   8   3   4 1900.35 219.204  15
   8   3   4 2161.23 199.517   7
  -8  -3  -4 2266.19 253.437  21
   8   3   4 2705.80 261.716   6
   8   3   4 2282.38 239.911  20
   8   3   4 2374.57 253.836  11
  -8  -3  -4 2650.61 275.527  10
  -8  -3  -4 2523.89 262.477   9
  -8  -3  -4 2269.67 249.390  17
  -8  -3  -4 2448.22 254.619  16
   8   3   4 2366.52 261.973   4
   8   3   5 3155.04 295.271   6
   8   3   5 2842.20 271.121  20
   8   3   5 3449.23 313.459  11
  -8  -3  -5 3273.85 311.822  10
  -8  -3  -5 3385.59 319.093   9
  -8  -3  -5 3511.05 313.649  17
  -8  -3  -5 3045.53 291.512  16
   8   3   5 3521.23 323.011   4
   8   3   5 3051.65 257.325  15
   8   3   6 81.2759 57.1637  15
   8   3   6-76.9582 103.553   4
   8   3   6 7.15799 53.6700  20
   8   3   6-54.3128 78.5771  11
   8   3   6-48.8783 82.4675   6
  -8  -3  -6 60.5941 86.4670  10
  -8  -3  -6 18.0116 64.0546   9
  -8  -3  -6 69.5241 85.9345  17
  -8  -3  -6-27.0412 62.1896  16
   8   3   7 45.5999 85.1483   4
   8   3   7 81.3944 69.6229  20
   8   3   7 116.202 77.7026  11
   8   3   7 62.6361 84.6311  19
  -8  -3  -7 19.9119 73.7183  10
  -8  -3  -7 334.469 113.583   9
  -8  -3  -7 51.8951 80.2420  17
  -8  -3  -7 119.524 95.7364  16
   8   3   8 8012.10 524.783   6
   8   3   8 7381.08 470.804  20
   8   3   8 7471.74 506.493  11
   8   3   8 7299.05 469.301  19
  -8  -3  -8 6819.41 483.919  10
  -8  -3  -8 8371.00 536.166   9
  -8  -3  -8 6781.87 468.894  17
  -8  -3  -8 6910.72 470.222  16
   8   3   8 7002.38 502.039   4
   8   3   9 1346.67 231.076   4
   8   3   9 902.837 174.064  20
   8   3   9 1115.43 210.822  11
   8   3   9 1070.38 199.767   6
   8   3   9 960.699 181.707  19
  -8  -3  -9 841.376 181.616  10
  -8  -3  -9 1293.57 232.334   9
  -8  -3  -9 1342.08 229.457  17
  -8  -3  -9 1179.13 199.756  16
   8   3  10 8972.77 603.831   6
   8   3  10 9115.18 566.257  20
   8   3  10 10243.3 632.747  11
   8   3  10 9069.67 566.817  19
  -8  -3 -10 9381.15 603.653  10
  -8  -3 -10 8003.87 569.584   9
  -8  -3 -10 8340.74 557.287  17
  -8  -3 -10 9630.02 586.480  16
   8   3  10 9962.46 632.933   4
   8   3  11 3368.65 342.221  20
   8   3  11 2876.22 324.603  19
  -8  -3 -11 2789.28 326.837  17
  -8  -3 -11 2597.08 310.188  16
   8   4  -6 244.887 128.090  14
  -8  -4   6 200.667 114.888  21
  -8  -4   6-35.5167 116.255  20
  -8  -4   6 64.4104 81.3669  19
  -8  -4   6-40.0477 83.7012  17
  -8  -4   6 206.504 111.261   5
  -8  -4   6-44.4314 91.8276  16
   8   4  -5 569.513 170.005  15
   8   4  -5 1274.59 218.723  14
   8   4  -5 1118.40 215.427   7
  -8  -4   5 954.477 187.441  21
  -8  -4   5 1008.08 200.649  19
  -8  -4   5 1160.04 199.642  17
  -8  -4   5 1470.76 239.032   5
  -8  -4   5 659.651 167.184  16
   8   4  -4 427.252 153.810  15
   8   4  -4 232.419 107.416  14
   8   4  -4 380.906 131.640   7
  -8  -4   4 604.023 159.104  21
  -8  -4   4 393.524 131.327  19
  -8  -4   4 474.094 133.039  17
  -8  -4   4 361.349 126.827   5
  -8  -4   4 355.763 122.147  16
   8   4  -3 60.5650 79.7642  15
   8   4  -3 89.0897 83.8570  14
   8   4  -3 143.679 91.0745   7
  -8  -4   3-24.7106 77.9329  21
  -8  -4   3 34.5842 101.360  12
  -8  -4   3 41.2923 82.8214  19
  -8  -4   3 43.0118 75.1371  17
  -8  -4   3-34.4033 105.929   5
  -8  -4   3-41.5378 100.102  16
   8   4  -2 163.635 97.8736  15
   8   4  -2 226.318 97.8283  14
   8   4  -2 240.229 105.379   7
  -8  -4   2 132.537 98.1360  21
  -8  -4   2 341.589 125.955  12
   8   4  -2 264.291 86.5347  11
  -8  -4   2 413.058 133.564  19
  -8  -4   2 186.144 104.278  17
  -8  -4   2 198.116 108.840   5
  -8  -4   2 311.404 112.107  16
   8   4  -1 1844.12 254.079  15
   8   4  -1 2125.41 251.697   7
   8   4  -1 1684.06 206.241  14
  -8  -4   1 1516.91 208.159  21
  -8  -4   1 1527.87 218.270  12
   8   4  -1 1356.56 167.835  11
  -8  -4   1 2131.56 249.215  10
  -8  -4   1 1901.72 237.878  19
  -8  -4   1 1555.12 213.046  17
  -8  -4   1 1894.23 241.265   5
  -8  -4   1 1596.40 212.499  16
   8   4   0-130.407 103.661  15
   8   4   0 33.8282 64.6878  14
   8   4   0-11.5431 77.8307   7
  -8  -4   0-14.6358 80.7093  21
   8   4   0 57.0575 53.6335   6
   8   4   0 84.5181 49.0948  11
  -8  -4   0 112.359 83.8324  10
  -8  -4   0 97.0556 67.8009  19
  -8  -4   0 112.409 86.8943  17
  -8  -4   0 46.9568 60.7430  16
   8   4   1 755.332 149.971  15
   8   4   1 657.968 115.049  14
   8   4   1 872.324 150.475   7
  -8  -4  -1 687.872 138.329  21
   8   4   1 691.464 134.490   6
   8   4   1 828.933 138.693  11
  -8  -4  -1 708.361 147.542  10
  -8  -4  -1 869.618 144.070   9
  -8  -4  -1 802.570 154.089  17
  -8  -4  -1 656.559 137.063  16
   8   4   2 2800.19 250.868   7
   8   4   2 3095.71 227.195  14
  -8  -4  -2 2963.46 276.476  21
   8   4   2 3427.62 288.034   6
   8   4   2 3376.14 282.251  11
  -8  -4  -2 3292.44 299.214  10
  -8  -4  -2 3012.26 274.541   9
  -8  -4  -2 3544.44 294.328  17
  -8  -4  -2 3041.53 272.262  16
   8   4   2 3702.18 332.483   4
   8   4   2 2828.26 280.399  15
   8   4   3 51.3891 90.0211  15
   8   4   3 48.8183 84.7707   4
   8   4   3 48.9913 54.6746   7
  -8  -4  -3-7.83584 65.4590  21
   8   4   3 111.558 76.7938  20
   8   4   3 1.94415 67.5595  11
   8   4   3-6.95044 63.6228   6
  -8  -4  -3-43.5205 79.1586  10
  -8  -4  -3-46.6292 73.9146   9
  -8  -4  -3-48.8514 84.2611  17
  -8  -4  -3-16.8800 65.5896  16
   8   4   4 59.5815 79.7172  15
   8   4   4 303.943 117.150   4
   8   4   4-3.40478 52.8800   7
  -8  -4  -4 27.6037 60.6924  21
   8   4   4 129.864 78.5939  20
   8   4   4 156.109 98.0920  11
   8   4   4 170.431 83.2042   6
  -8  -4  -4 75.0542 73.4201  10
  -8  -4  -4 5.38805 70.1816  17
  -8  -4  -4 31.4524 68.8511   9
  -8  -4  -4 175.070 87.7881  16
  -8  -4  -5 4862.08 357.115  21
   8   4   5 4979.43 376.173   6
   8   4   5 4476.90 329.723  20
   8   4   5 5149.53 374.320  11
  -8  -4  -5 5007.12 372.613  10
  -8  -4  -5 5213.50 381.298   9
  -8  -4  -5 5014.62 355.160  17
  -8  -4  -5 5176.01 354.422  16
   8   4   5 5766.38 417.932   4
   8   4   5 4865.93 331.481  15
   8   4   6-66.0423 73.2114  15
   8   4   6-46.0279 84.2335   4
   8   4   6 8.96409 61.3321  20
   8   4   6-35.3444 75.1350  11
   8   4   6 59.5152 83.5440   6
  -8  -4  -6 64.4201 77.5021  10
  -8  -4  -6-221.381 90.8406  17
  -8  -4  -6 33.6155 72.6243   9
  -8  -4  -6 136.682 81.4552  16
   8   4   7 40.8380 95.9890   4
   8   4   7 52.1170 55.1715  20
   8   4   7 143.329 120.657  11
   8   4   7-48.3173 79.2687   6
  -8  -4  -7 4.81818 71.4234  10
  -8  -4  -7 0.19641 60.8631  17
  -8  -4  -7 48.1040 85.8241   9
  -8  -4  -7-14.8173 62.0984  16
   8   4   8-23.9567 86.5144   4
   8   4   8 13.4144 60.0436  20
   8   4   8-75.4850 110.313  11
   8   4   8-86.7441 117.239   6
   8   4   8-9.48708 57.1371  19
  -8  -4  -8-59.8798 100.909  10
  -8  -4  -8 15.7914 84.5151  17
  -8  -4  -8-44.3527 69.6565   9
  -8  -4  -8 94.7684 65.5610  16
   8   4   9 501.969 166.017   4
   8   4   9 474.098 126.591  20
   8   4   9 447.483 158.273  11
   8   4   9 446.989 144.541   6
   8   4   9 249.997 106.190  19
  -8  -4  -9 517.173 140.787  10
  -8  -4  -9 390.785 117.415  17
  -8  -4  -9 359.522 123.143   9
  -8  -4  -9 602.933 140.181  16
   8   4  10 829.831 188.055   4
   8   4  10 591.314 139.279  20
   8   4  10 872.090 187.726  11
   8   4  10 650.744 172.725   6
   8   4  10 683.139 149.609  19
  -8  -4 -10 628.162 145.594  10
  -8  -4 -10 501.404 129.243  17
  -8  -4 -10 588.804 164.249   9
  -8  -4 -10 635.801 152.749  16
   8   4  11 1090.32 191.208  20
   8   4  11 861.491 173.388  19
  -8  -4 -11 1018.27 202.208  10
  -8  -4 -11 756.067 172.626  17
  -8  -4 -11 910.719 188.154  16
   8   4  12 275.958 123.917  20
   8   4  12 252.038 102.496  19
  -8  -4 -12 194.226 99.7598  17
  -8  -4 -12-4.34124 100.569  16
  -8  -5   6 1459.30 236.951  21
  -8  -5   6 922.688 203.382  20
  -8  -5   6 1421.78 246.310  19
  -8  -5   6 1215.78 229.071  17
  -8  -5   6 1179.06 223.429  16
   8   5  -5 249.025 137.949  15
   8   5  -5 43.6902 75.1293  14
   8   5  -5 245.781 127.811   7
  -8  -5   5 63.0117 76.4413  21
  -8  -5   5-65.8193 102.922  20
  -8  -5   5 32.0805 92.0075  19
  -8  -5   5 51.8221 89.5462  17
  -8  -5   5 322.591 142.188   5
  -8  -5   5-182.378 104.050  16
   8   5  -4 2212.96 307.003  15
   8   5  -4 1768.13 260.023  14
   8   5  -4 2422.54 301.056   7
  -8  -5   4 1690.32 239.049  21
  -8  -5   4 1641.54 214.900  12
  -8  -5   4 2165.18 272.481  19
  -8  -5   4 2581.40 305.571   5
  -8  -5   4 1777.82 238.898  17
  -8  -5   4 2074.08 261.056  16
   8   5  -3 5799.37 449.137   7
   8   5  -3 6260.59 451.025  14
  -8  -5   3 5066.29 397.489  21
  -8  -5   3 5509.96 399.016  12
  -8  -5   3 4754.53 396.432  19
  -8  -5   3 5400.37 439.177   5
  -8  -5   3 5533.54 406.531  17
  -8  -5   3 5226.36 397.157  16
   8   5  -3 5860.41 470.338  15
   8   5  -2 178.686 97.6072  15
   8   5  -2 256.225 107.625  14
   8   5  -2 230.080 109.441   7
  -8  -5   2 156.582 92.4054  21
  -8  -5   2 291.931 117.174  12
  -8  -5   2 190.890 95.5746  19
  -8  -5   2 49.0894 87.3873  17
  -8  -5   2 281.094 131.279   5
  -8  -5   2 85.0983 65.2041  16
   8   5  -1 12.7536 98.4926  15
   8   5  -1 134.941 81.5401  14
   8   5  -1 361.924 106.737   7
  -8  -5   1 51.8107 59.7475  21
  -8  -5   1 311.289 122.643  12
  -8  -5   1 39.5072 70.3040  10
  -8  -5   1 434.626 120.030  19
  -8  -5   1 223.405 79.1088  17
  -8  -5   1 283.042 106.453   5
  -8  -5   1 166.543 75.3456  16
   8   5   0 10.8596 83.2571  15
   8   5   0 267.007 97.6950  14
   8   5   0 207.817 102.521   7
  -8  -5   0 521.650 119.791  21
  -8  -5   0-13.0187 92.4472  12
   8   5   0 70.8526 52.5414  11
  -8  -5   0 338.867 108.731  10
  -8  -5   0 171.911 73.0612  19
  -8  -5   0 194.393 80.9409  17
  -8  -5   0 112.849 64.0965  16
  -8  -5   0 207.933 112.156   5
   8   5   1 40.0985 78.4958  15
   8   5   1 32.4500 63.5353  14
   8   5   1 115.718 74.0914   7
  -8  -5  -1 41.1129 60.3360  21
  -8  -5  -1-33.0979 99.8787  12
   8   5   1-25.7918 68.8622   6
   8   5   1 25.7101 48.1232  11
  -8  -5  -1-167.789 83.5417  10
  -8  -5  -1 10.0473 67.7560  19
  -8  -5  -1-68.1768 60.8175   9
  -8  -5  -1 84.9428 81.4875  17
  -8  -5  -1 48.3242 56.4911  16
   8   5   2 553.580 136.983  15
   8   5   2 589.733 111.043  14
   8   5   2 504.712 105.019   7
  -8  -5  -2 566.085 120.761  21
  -8  -5  -2 660.663 168.142  12
   8   5   2 613.230 120.913   6
   8   5   2 511.628 113.964  11
  -8  -5  -2 451.288 118.702  10
  -8  -5  -2 566.383 119.394  17
  -8  -5  -2 514.134 112.186   9
  -8  -5  -2 494.770 109.361  16
   8   5   3 5528.70 335.606   7
   8   5   3 5272.39 306.462  14
  -8  -5  -3 5474.45 355.727  21
  -8  -5  -3 5402.20 412.379  12
   8   5   3 6000.37 407.804   6
   8   5   3 5015.53 348.935  11
  -8  -5  -3 5752.62 379.498  10
  -8  -5  -3 5125.21 353.584   9
  -8  -5  -3 5544.99 354.212  17
  -8  -5  -3 5858.57 358.931  16
   8   5   3 6097.78 428.961   4
   8   5   3 5133.12 377.154  15
   8   5   4 202.468 93.7827  15
   8   5   4 134.817 87.3830   4
   8   5   4 188.192 60.0408   7
  -8  -5  -4 65.2343 56.7486  21
   8   5   4 225.971 89.7163  20
   8   5   4 135.282 83.2374   6
   8   5   4 109.012 86.5184  11
  -8  -5  -4 218.633 90.3563  10
  -8  -5  -4 159.275 84.9656  17
  -8  -5  -4 150.225 77.2438   9
  -8  -5  -4 383.054 113.426  16
   8   5   5 481.200 116.003  15
   8   5   5 711.875 158.051   4
  -8  -5  -5 371.801 100.069  21
   8   5   5 359.204 90.7450  20
   8   5   5 528.152 131.068  11
   8   5   5 555.080 146.442   6
  -8  -5  -5 537.729 126.778  10
  -8  -5  -5 616.744 118.703  17
  -8  -5  -5 624.629 138.791   9
  -8  -5  -5 508.522 111.234  16
   8   5   6 389.612 94.6036  15
   8   5   6 393.827 131.746   4
  -8  -5  -6 424.993 108.421  21
   8   5   6 556.256 111.444  20
   8   5   6 234.765 92.1067  11
   8   5   6 312.625 115.798   6
  -8  -5  -6 386.637 112.513  10
  -8  -5  -6 456.958 101.975  17
  -8  -5  -6 345.965 118.625   9
  -8  -5  -6 357.804 99.2611  16
   8   5   7 550.689 152.790   4
   8   5   7 429.728 109.005  20
   8   5   7 309.557 99.2782  11
   8   5   7 238.392 112.221   6
  -8  -5  -7 339.262 110.972  10
  -8  -5  -7 355.718 101.065  17
  -8  -5  -7 349.101 111.244   9
  -8  -5  -7 481.989 107.101  16
   8   5   8 2719.69 251.915  20
   8   5   8 3119.79 315.575  11
   8   5   8 2540.91 246.068  19
   8   5   8 2373.74 288.786   6
  -8  -5  -8 2570.68 276.803  10
  -8  -5  -8 3024.82 273.184  17
  -8  -5  -8 2976.31 306.282   9
  -8  -5  -8 2171.80 237.754  16
   8   5   8 3086.38 323.923   4
   8   5   9 0.53428 86.1540   4
   8   5   9-0.54562 60.6406  20
   8   5   9-20.5695 92.7571  11
   8   5   9 171.301 98.9666   6
   8   5   9-34.7074 68.8763  19
  -8  -5  -9-30.6864 65.0904  10
  -8  -5  -9 20.0735 49.6793  17
  -8  -5  -9 54.8396 94.8166   9
  -8  -5  -9-19.0867 59.0963  16
   8   5  10 2621.40 319.024   4
   8   5  10 3070.68 349.528   6
   8   5  10 2226.45 245.097  20
   8   5  10 2887.94 326.432  11
   8   5  10 2083.13 236.438  19
  -8  -5 -10 2695.90 305.782  10
  -8  -5 -10 2372.83 266.070  17
  -8  -5 -10 2501.79 308.298   9
  -8  -5 -10 2999.89 290.605  16
  -8  -5 -11 33.8990 103.314  10
  -8  -6   6-303.519 128.242  21
  -8  -6   6 187.147 123.431  20
  -8  -6   6 91.9488 56.5993  19
  -8  -6   6-2.76355 72.1376  17
  -8  -6   6-123.320 130.892  16
   8   6  -5 353.212 148.150  14
  -8  -6   5 138.158 97.4896  21
  -8  -6   5 347.546 121.401  20
  -8  -6   5 262.884 113.526  19
  -8  -6   5 246.887 111.071  17
  -8  -6   5 156.460 83.2696  16
   8   6  -4 891.236 193.572  15
   8   6  -4 777.404 181.716  14
   8   6  -4 694.547 166.538   7
  -8  -6   4 693.821 143.851  21
  -8  -6   4 659.707 143.507  12
  -8  -6   4 594.166 130.127  20
  -8  -6   4 359.051 126.017  19
  -8  -6   4 751.837 169.442  17
  -8  -6   4 705.762 171.276   5
  -8  -6   4 726.892 162.960  16
   8   6  -3 1340.26 235.908  15
   8   6  -3 1283.34 210.767  14
   8   6  -3 1393.05 233.059   7
  -8  -6   3 1416.31 206.186  21
  -8  -6   3 1430.31 214.350  12
  -8  -6   3 1574.03 223.653  20
  -8  -6   3 1468.53 209.662  19
  -8  -6   3 1042.32 175.170  17
  -8  -6   3 1404.84 226.532   5
  -8  -6   3 1283.70 197.284  16
   8   6  -2 4793.74 397.828   7
   8   6  -2 4412.43 373.131  14
  -8  -6   2 4406.47 344.158  21
  -8  -6   2 4893.72 389.174  12
  -8  -6   2 4966.67 372.612  19
  -8  -6   2 4616.39 403.989   5
  -8  -6   2 4914.07 355.979  17
  -8  -6   2 4428.99 340.086  16
   8   6  -2 4792.23 416.662  15
   8   6  -1 307.301 130.172  15
   8   6  -1 374.962 114.360  14
   8   6  -1 356.928 109.069   7
  -8  -6   1 389.651 102.534  21
  -8  -6   1 469.530 134.968  12
  -8  -6   1 457.906 124.619  19
  -8  -6   1 384.530 106.730  17
  -8  -6   1 314.325 143.063   5
  -8  -6   1 231.730 80.4650  16
   8   6   0 904.708 183.261  15
   8   6   0 604.954 136.589  14
   8   6   0 1061.00 177.520   7
  -8  -6   0 810.445 136.530  21
  -8  -6   0 717.786 155.098  12
  -8  -6   0 950.900 154.567  10
  -8  -6   0 630.918 123.650  19
  -8  -6   0 848.040 140.624  17
  -8  -6   0 709.408 175.488   5
  -8  -6   0 975.058 147.800  16
   8   6   1 12.3638 83.0208  15
   8   6   1 32.4915 61.9344  14
   8   6   1 59.6096 76.2171   7
  -8  -6  -1 18.4909 67.4237  21
  -8  -6  -1 74.1506 98.7935  12
   8   6   1 125.055 94.6698   6
   8   6   1 73.9205 50.3883  11
  -8  -6  -1 119.586 70.1991  10
  -8  -6  -1 98.7642 75.5922  19
  -8  -6  -1 99.1767 79.4577  17
  -8  -6  -1-11.1936 49.8847   9
  -8  -6  -1 47.8160 58.7780  16
  -8  -6  -1 165.381 104.689   5
   8   6   2 10385.6 511.175   7
   8   6   2 10353.8 501.391  14
  -8  -6  -2 10626.3 485.620  21
  -8  -6  -2 10201.8 585.064  12
   8   6   2 9864.86 555.948   6
   8   6   2 10196.8 479.072  11
  -8  -6  -2 11214.1 528.416  10
  -8  -6  -2 10174.4 487.510  19
  -8  -6  -2 10289.6 478.025  17
  -8  -6  -2 9909.59 481.363   9
  -8  -6  -2 10511.3 480.069  16
   8   6   2 10589.1 574.890  15
   8   6   3 1487.84 210.123  15
   8   6   3 2068.80 255.876   4
   8   6   3 1523.08 177.301  14
   8   6   3 1495.18 175.626   7
  -8  -6  -3 1628.43 174.984  21
  -8  -6  -3 1372.60 219.087  12
   8   6   3 1628.42 188.374  11
   8   6   3 1603.61 216.463   6
  -8  -6  -3 1869.79 205.405  10
  -8  -6  -3 1568.33 185.573   9
  -8  -6  -3 1540.66 169.738  17
  -8  -6  -3 1846.16 183.192  16
   8   6   4 2413.53 212.234   7
   8   6   4 2545.13 215.802  14
  -8  -6  -4 2767.95 226.239  21
  -8  -6  -4 2620.94 289.857  12
   8   6   4 2728.97 284.292   6
   8   6   4 3036.51 265.151  11
  -8  -6  -4 2670.63 252.018  10
  -8  -6  -4 2636.80 218.342  17
  -8  -6  -4 2702.11 251.570   9
  -8  -6  -4 2757.73 225.429  16
   8   6   4 3158.36 308.295   4
   8   6   4 2615.39 266.747  15
   8   6   5 1044.95 163.286  15
   8   6   5 1045.16 189.460   4
  -8  -6  -5 835.326 182.203  12
   8   6   5 1119.68 195.102   6
   8   6   5 1174.29 177.661  11
  -8  -6  -5 952.354 160.429  10
  -8  -6  -5 1233.75 183.857   9
   8   6   6 565.397 124.689  15
   8   6   6 812.276 163.338   4
  -8  -6  -6 824.295 185.359  12
   8   6   6 754.060 171.093   6
   8   6   6 717.073 156.821  11
  -8  -6  -6 889.923 155.601  10
  -8  -6  -6 742.478 144.702   9
   8   6   7 186.087 82.0114  15
   8   6   7 242.739 103.339   4
   8   6   7 229.622 133.369   6
   8   6   7-36.4157 69.5644  11
  -8  -6  -7 232.118 98.2102  10
  -8  -6  -7 115.808 74.8122   9
   8   6   8 2516.21 286.169  11
   8   6   8 2144.02 281.288   6
  -8  -6  -8 2192.59 248.217  10
  -8  -6  -8 2261.72 267.244   9
   8   6   8 2727.27 304.197   4
   8   6   9 240.943 125.809   4
   8   6   9 7.07165 77.8081  11
   8   6   9 100.611 98.9286   6
  -8  -6  -9 35.0849 74.1110  10
  -8  -6  -9 47.1967 86.6285   9
   8   6  10 158.447 117.622   4
   8   6  10-358.629 133.775  11
   8   6  10 18.2913 91.3197   6
  -8  -6 -10 5.40821 84.7907  10
  -8  -6 -10-492.926 151.843   9
  -8  -6 -11 176.874 92.6714  10
  -8  -6 -12 803.385 189.861  10
   8   7  -4-108.661 107.950  14
  -8  -7   4 106.324 104.396  12
   8   7  -3 1738.20 265.166  15
   8   7  -3 1502.65 243.150  14
   8   7  -3 1956.13 274.904   7
  -8  -7   3 1411.10 225.408  12
  -8  -7   3 1139.86 218.388   5
   8   7  -2 2.60351 68.4847  15
   8   7  -2-32.2093 71.6486  14
   8   7  -2 23.9912 91.5796   7
  -8  -7   2 176.722 108.519  12
  -8  -7   2-2.21922 92.1294   5
   8   7  -1 5006.70 405.306   7
   8   7  -1 4591.29 384.890  14
  -8  -7   1 5204.77 421.733  12
  -8  -7   1 5260.31 432.657   5
   8   7  -1 4963.70 431.350  15
   8   7   0 229.435 109.698  15
   8   7   0 171.339 92.2070  14
   8   7   0 179.184 69.3824   7
  -8  -7   0 39.6002 77.1876   5
   8   7   1 3013.35 284.705   7
   8   7   1 2227.43 247.756  14
  -8  -7  -1 2486.38 293.222  12
  -8  -7  -1 2362.74 226.673  10
  -8  -7  -1 2550.25 289.693   5
   8   7   1 2719.95 296.823  15
   8   7   2 9550.49 508.164   7
   8   7   2 9031.01 500.240  14
   8   7   2 9619.29 568.306   6
  -8  -7  -2 8889.21 559.055  12
  -8  -7  -2 9895.15 475.093  10
  -8  -7  -2 9731.86 576.477   5
   8   7   2 10123.7 579.147  15
   8   7   3 18873.7 733.012   7
   8   7   3 17960.5 726.245  14
  -8  -7  -3 17032.1 722.413  13
  -8  -7  -3 18827.5 842.476  12
   8   7   3 18574.4 829.309   6
   8   7   3 19189.7 699.428  11
  -8  -7  -3 18673.8 698.441  10
  -8  -7  -3 19445.0 703.333   9
   8   7   3 17739.0 792.694  15
   8   7   4 1064.74 177.939  15
   8   7   4 982.040 174.558   4
   8   7   4 926.825 145.922  14
   8   7   4 1089.64 153.482   7
  -8  -7  -4 1073.78 158.884  13
  -8  -7  -4 1111.46 204.059  12
   8   7   4 1089.74 206.667   6
   8   7   4 1161.84 164.889  11
  -8  -7  -4 984.900 142.815  10
  -8  -7  -4 1078.44 158.268   9
   8   7   5 1826.19 227.136  15
   8   7   5 1676.17 190.035  14
   8   7   5 1948.39 255.869   4
  -8  -7  -5 2025.81 207.781  13
  -8  -7  -5 2048.18 264.785  12
   8   7   5 2314.78 274.618   6
   8   7   5 1650.74 203.546  11
  -8  -7  -5 1977.67 208.029  10
  -8  -7  -5 1737.31 208.026   9
   8   7   6 812.361 149.730  15
   8   7   6 1291.13 203.624   4
  -8  -7  -6 1426.75 219.065  12
   8   7   6 991.374 208.568   6
   8   7   6 875.136 151.890  11
  -8  -7  -6 1126.78 163.702  10
  -8  -7  -6 874.540 155.519   9
  -8  -7  -7 3174.38 338.087  12
   8   7   7 3103.32 335.354   6
   8   7   7 3177.66 307.081  11
  -8  -7  -7 2513.21 246.173  10
  -8  -7  -7 2852.63 287.748   9
   8   7   7 3267.51 320.273   4
   8   7   7 2928.13 265.845  15
   8   7   8 1653.91 243.068   4
   8   7   8 2176.89 259.707  11
   8   7   8 1975.80 281.272   6
  -8  -7  -8 1736.29 214.655  10
  -8  -7  -8 1574.55 223.558   9
   8   7   9 3836.54 392.887   6
   8   7   9 3813.84 356.362  11
  -8  -7  -9 2994.01 288.591  10
  -8  -7  -9 3269.65 330.011   9
   8   7   9 3842.34 364.659   4
   8   7  10 28.4081 89.9941   4
   8   7  10 25.9125 88.0268  11
  -8  -7 -10 96.1011 64.1789  10
  -8  -7 -10 78.9301 104.807   9
  -8  -8   4-375.231 143.843  12
   8   8  -3 47.3725 94.6462  14
  -8  -8   3 344.827 138.226  12
   8   8  -2 205.410 112.240  15
   8   8  -2 119.859 80.2812  14
   8   8  -2 202.472 123.704   7
  -8  -8   2 164.962 114.037  12
  -8  -8   2 143.205 120.895   5
   8   8  -1 1722.52 263.088  15
   8   8  -1 2147.42 277.036  14
   8   8  -1 1697.17 247.529   7
  -8  -8   1 1405.08 230.946  12
  -8  -8   1 1844.51 269.186   5
   8   8   0 171.839 105.042  15
   8   8   0-69.0112 91.3259  14
   8   8   0 47.1927 84.4047   7
  -8  -8   0-27.6368 105.135  12
  -8  -8   0-65.7108 123.837   5
   8   8   1 301.804 128.000  15
   8   8   1-74.0797 86.2465  14
   8   8   1 139.916 90.1951   7
  -8  -8  -1 79.2619 89.0287  12
  -8  -8  -1 76.1910 99.6087   5
   8   8   2 1196.27 210.436  15
   8   8   2 1137.63 186.144  14
   8   8   2 1351.73 191.355   7
  -8  -8  -2 1195.53 194.677  13
  -8  -8  -2 1433.22 228.100  12
  -8  -8  -2 1052.05 189.277   5
   8   8   3-53.4801 75.8700  15
   8   8   3-13.1726 73.0538  14
   8   8   3-87.9960 92.5611   7
  -8  -8  -3-77.1146 101.783  13
  -8  -8  -3-15.4651 107.656  12
   8   8   3 313.525 142.413   6
  -8  -8  -3-24.7210 100.776   5
   8   8   4 28.4338 67.0601  15
   8   8   4-7.42168 63.0816  14
   8   8   4-2.65006 60.6830   7
  -8  -8  -4 9.51872 68.1330  13
  -8  -8  -4-1.87450 85.3147  12
   8   8   4-82.8340 77.0602   6
   8   8   5 441.975 125.585  15
   8   8   5 160.872 81.1186   4
   8   8   5 240.024 87.9737  14
  -8  -8  -5 447.227 104.172  13
  -8  -8  -5 280.000 137.584  12
   8   8   5 582.725 156.831   6
   8   8   5 355.947 98.8826  11
  -8  -8  -5 219.650 81.2108   9
   8   8   6 227.684 110.750   4
  -8  -8  -6 129.899 100.542  12
   8   8   6 288.037 130.457   6
   8   8   6 248.656 99.8892  11
  -8  -8  -6 155.168 86.6584   9
   8   8   6 241.836 106.336  15
   8   8   7 2328.05 285.322   4
  -8  -8  -7 2938.10 328.094  12
   8   8   7 2784.67 283.485  11
   8   8   7 2118.28 286.239   6
  -8  -8  -7 2509.76 266.584   9
   8   8   7 2436.27 264.845  15
   8   8   8 356.023 128.938   4
  -8  -8  -8 364.627 157.842  12
   8   8   8 380.944 138.353   6
   8   8   8 312.641 123.603  11
  -8  -8  -8 380.978 133.432   9
   8   8   9-36.2794 79.0080   4
   8   8   9 95.0727 80.9521  11
  -8  -8  -9 50.3783 74.9923   9
   8   8  10-132.163 118.252   4
   8   8  10 1.69695 98.1516  11
   8   9  -1 2.34881 79.1618  14
   8   9  -1-80.7001 102.119   7
  -8  -9   1 182.225 100.748  12
  -8  -9   1 26.8599 89.4359   5
   8   9   0 190.770 98.8799  15
   8   9   0 146.131 84.1684  14
   8   9   0 82.3422 98.8622   7
  -8  -9   0 117.762 92.4670  12
  -8  -9   0-25.8668 122.280   5
   8   9   1 125.795 103.959  14
   8   9   1 62.9832 85.8907   7
  -8  -9  -1 92.1978 96.3115  13
  -8  -9  -1 301.406 144.212  12
  -8  -9  -1-61.8772 107.978   5
   8   9   2 994.388 199.204  15
   8   9   2 806.008 173.371  14
   8   9   2 1179.69 202.336   7
  -8  -9  -2 1022.74 188.555  13
  -8  -9  -2 1659.59 260.296  12
  -8  -9  -2 1017.70 189.922   5
   8   9   3-13.1848 79.3832  15
   8   9   3 78.4084 79.6199  14
   8   9   3-56.4291 73.0268   7
  -8  -9  -3-81.4394 86.3615  13
  -8  -9  -3-17.9437 98.4787  12
  -8  -9  -3-74.1594 92.7729   5
   8   9   4 2092.29 240.494   7
   8   9   4 2043.72 256.147  14
  -8  -9  -4 2260.99 263.704  13
  -8  -9  -4 2291.80 304.361  12
   8   9   4 2432.13 310.005   6
  -8  -9  -4 1896.50 259.915   5
   8   9   4 2511.94 304.351  15
   8   9   5 300.057 114.082  14
  -8  -9  -5 47.1688 75.8049  13
  -8  -9  -5 392.184 157.486  12
   8   9   5 317.943 124.617   6
   8   9   5 272.424 125.204  15
  -8  -9  -6 1300.60 191.012  13
  -8  -9  -6 921.510 202.260  12
   8   9   6 964.143 205.758   6
   8   9   6 890.558 176.697  15
   8   9   7 359.625 123.924   4
  -8  -9  -7 489.707 160.325  12
   8   9   7 171.784 105.654   6
  -8  -9  -7 555.529 129.899   9
   8   9   7 634.833 153.810  15
   8   9   8 139.207 108.769   4
  -8  -9  -8-77.5551 105.754  12
   8   9   8 10.4518 91.6395  11
  -8  -9  -8 39.7656 73.6190   9
   8   9   9 413.111 125.884   4
   8   9   9 256.251 115.694  11
  -8  -9  -9 51.0512 103.963   9
   8   9  10 11.6518 74.3003   4
   8  10   1 2199.69 298.790   7
   8  10   1 1943.66 282.364  14
  -8 -10  -1 2280.60 305.706  13
  -8 -10  -1 1980.34 282.195   5
   8  10   2 1979.20 267.455   7
   8  10   2 2581.48 313.971  14
  -8 -10  -2 2544.22 315.001  13
  -8 -10  -2 2328.60 293.113   2
  -8 -10  -2 2561.53 314.021   5
   8  10   3 71.5736 70.5437   7
   8  10   3 78.9880 78.5392  14
  -8 -10  -3 220.099 115.082   2
  -8 -10  -3 50.3275 85.9544   5
   8  10   3-9.56690 111.562  15
   8  10   4 1504.97 239.856  14
  -8 -10  -4 1419.06 223.512  13
  -8 -10  -4 1776.43 270.077   2
  -8 -10  -4 907.632 186.430   5
   8  10   4 1850.61 278.132  15
   8  10   5 2865.16 319.481  14
  -8 -10  -5 2782.53 307.861  13
  -8 -10  -5 3073.09 328.998   5
   8  10   5 2841.62 332.909  15
  -8 -10  -6 3429.78 335.926  13
  -8 -10  -6 3893.76 359.796   3
  -8 -10  -6 2823.67 307.330   5
   8  10   6 3285.60 359.586  15
   8  10   7 88.9352 91.9589  15
   8  11   3 568.127 155.902   7
   9  -1   1 150.491 140.701   7
   9   0  -1-40.9242 130.109   3
   9   0  -1 12.2777 116.784   7
   9   0   0 1045.42 224.760  15
   9   0   0 1331.97 236.120   3
   9   0   0 1173.19 222.234   7
   9   0   1 29.7311 106.784  15
   9   0   1 48.4701 112.584   7
   9   0   2 252.067 132.729  15
   9   0   2 508.884 144.237   4
   9   0   2 208.102 119.347   7
   9   0   3 17.6345 96.1964  15
   9   0   3 61.5361 74.5867   4
   9   0   4 2.75808 92.8091   4
   9   0   5 161.284 101.661   4
   9   0   6 1423.80 234.266   4
   9   1  -4 163.565 101.798  14
  -9  -1   3 1710.40 238.255   5
   9   1  -2 295.097 146.921   7
  -9  -1   2 132.111 92.7877   5
   9   1  -1 369.864 153.283  15
   9   1  -1 556.988 165.169   7
  -9  -1   1 626.528 181.598  21
   9   1  -1 445.753 139.714  11
  -9  -1   1 283.758 124.274  17
  -9  -1   1 417.533 135.031   5
  -9  -1   1 532.125 159.374  16
   9   1   0 230.329 123.097  15
   9   1   0-13.2976 107.903   7
  -9  -1   0 10.9023 89.7643  21
   9   1   0 263.255 127.184  11
  -9  -1   0 192.465 129.398  10
  -9  -1   0-110.867 117.550  17
  -9  -1   0 60.6549 107.173  16
   9   1   1-147.698 110.654  15
   9   1   1-239.550 114.892   7
  -9  -1  -1-34.7928 74.4057  21
   9   1   1-115.353 131.975  11
  -9  -1  -1-330.421 140.619  10
  -9  -1  -1-38.2023 99.1296  17
  -9  -1  -1 47.1821 84.8678  16
   9   1   2 38.5237 91.7395  15
   9   1   2-76.7036 94.9818   4
   9   1   2 6.69490 80.6022   7
  -9  -1  -2-19.2158 102.610  21
   9   1   2-376.878 139.826  20
   9   1   2 86.8733 113.863  11
  -9  -1  -2-15.0793 90.0180  10
  -9  -1  -2-80.4493 109.761  17
  -9  -1  -2 29.6472 104.130  16
   9   1   3 2633.69 301.865  15
  -9  -1  -3 2391.79 313.873  21
   9   1   3 2880.67 317.990  20
   9   1   3 3182.86 337.518  11
  -9  -1  -3 3120.43 346.403  10
  -9  -1  -3 2747.28 334.658  17
  -9  -1  -3 3057.78 342.619  16
   9   1   3 3134.09 323.027   4
   9   1   4 496.973 152.563  15
   9   1   4 585.018 143.534   4
  -9  -1  -4 667.993 173.605  21
   9   1   4 851.958 181.146  20
   9   1   4 732.051 178.987  11
  -9  -1  -4 396.827 136.632  10
  -9  -1  -4 543.912 149.203  17
  -9  -1  -4 270.565 133.666  16
   9   1   5 90.2877 92.7580   4
  -9  -1  -5 83.7927 100.436  21
   9   1   5 224.117 116.047  20
   9   1   5 57.5957 77.6736  11
  -9  -1  -5 33.2167 99.1532  10
  -9  -1  -5 327.179 150.795   9
  -9  -1  -5 205.212 114.316  17
  -9  -1  -5 1.74310 91.4123  16
   9   1   6 186.412 96.7656   4
   9   1   6-0.55633 89.7377  20
   9   1   6 15.0729 66.7444   6
  -9  -1  -6-82.3788 113.125  17
  -9  -1  -6 99.6870 106.572  16
   9   1   7 78.5760 107.226   4
   9   1   7-19.0492 74.4699   6
   9   1   8-2.80596 105.195   6
  -9  -2   5 132.734 91.1348   5
   9   2  -4 333.561 121.692  14
  -9  -2   4 380.215 140.464   5
   9   2  -3-27.5308 80.8846  14
   9   2  -3 95.5212 94.0627   7
  -9  -2   3-102.844 122.522   5
   9   2  -2 93.4091 119.312  15
   9   2  -2-50.4062 116.325   7
  -9  -2   2-51.0260 81.2485  21
   9   2  -2-66.1411 109.935  11
  -9  -2   2 81.7430 101.485  10
  -9  -2   2-0.61655 78.2411  19
  -9  -2   2 175.998 119.332  17
  -9  -2   2 138.806 92.0130   5
  -9  -2   2-3.20494 78.7343  16
   9   2  -1-69.7675 123.336  15
   9   2  -1 35.5756 103.811   7
  -9  -2   1-20.5367 101.523  21
   9   2  -1 12.4254 88.9163  11
  -9  -2   1 128.628 115.133  10
  -9  -2   1-144.087 130.773  19
  -9  -2   1-90.2338 110.224  17
  -9  -2   1-45.9894 82.0945   5
  -9  -2   1-124.973 110.194  16
   9   2   0 132.643 97.9818  15
   9   2   0-25.3238 113.888   7
  -9  -2   0 320.281 142.635  21
   9   2   0 49.8038 65.9240  11
  -9  -2   0 193.592 118.787  10
  -9  -2   0 53.8079 85.3147  17
  -9  -2   0 141.812 120.471  16
   9   2   1 158.330 111.999  15
   9   2   1 396.438 133.324   7
  -9  -2  -1 60.7775 88.8867  21
   9   2   1 150.725 83.8541  11
  -9  -2  -1 64.5457 99.1995  10
  -9  -2  -1 207.659 125.953  17
  -9  -2  -1 182.766 88.4901  16
   9   2   2 105.984 92.6919  15
   9   2   2 368.266 116.089   4
   9   2   2 173.040 83.0419   7
  -9  -2  -2 285.451 110.210  21
   9   2   2 301.091 122.973  11
  -9  -2  -2 45.5606 79.9517  10
  -9  -2  -2 401.023 116.988  17
  -9  -2  -2 119.822 86.1811  16
   9   2   3 569.670 155.204  15
   9   2   3 289.155 112.038   4
  -9  -2  -3 559.761 165.770  21
   9   2   3 508.347 138.396  20
   9   2   3 436.627 144.511  11
  -9  -2  -3 568.753 154.072  10
  -9  -2  -3 400.229 141.502  17
  -9  -2  -3 561.332 156.578  16
   9   2   4 326.422 124.813  15
   9   2   4 443.313 137.461   4
  -9  -2  -4 305.066 109.442  21
   9   2   4 604.474 154.046  20
   9   2   4 844.812 179.348  11
   9   2   4 513.056 129.502   6
  -9  -2  -4 649.167 162.233  10
  -9  -2  -4 312.714 146.975   9
  -9  -2  -4 178.334 103.299  17
  -9  -2  -4 647.333 179.424  16
   9   2   5 527.533 143.612   4
  -9  -2  -5 604.083 163.607  21
   9   2   5 472.587 148.715  20
   9   2   5 795.510 180.156  11
   9   2   5 349.283 120.873   6
  -9  -2  -5 428.513 152.136  10
  -9  -2  -5 604.154 158.067   9
  -9  -2  -5 575.416 150.844  17
  -9  -2  -5 720.391 168.579  16
   9   2   6-3.49572 109.530   4
   9   2   6 90.5422 70.0277  20
   9   2   6-48.2450 89.8908  11
   9   2   6 251.173 106.138   6
  -9  -2  -6 23.4833 80.2453  10
  -9  -2  -6-24.8573 83.8916   9
  -9  -2  -6 96.9821 110.098  17
  -9  -2  -6 6.76434 76.3533  16
   9   2   7 92.0774 119.552   4
   9   2   7 473.111 146.523  20
   9   2   7 240.275 113.606  11
   9   2   7 251.499 113.836   6
  -9  -2  -7-52.9298 107.489  10
  -9  -2  -7 312.824 158.305   9
  -9  -2  -7 107.051 88.1555  17
  -9  -2  -7 137.543 105.253  16
   9   2   8 917.792 186.625  20
   9   2   8 794.973 183.310   6
  -9  -2  -8 772.879 188.715  17
  -9  -2  -8 416.385 132.775  16
   9   3  -4 314.953 116.652  14
  -9  -3   4 315.410 133.228   5
   9   3  -3-110.639 102.581  14
   9   3  -3-47.9065 85.6529   7
  -9  -3   3-91.1340 120.703  21
  -9  -3   3-2.72320 84.7436  19
  -9  -3   3 0.29309 88.4431  17
  -9  -3   3-18.4423 95.1489   5
  -9  -3   3 30.7101 85.8823  16
   9   3  -2 1085.73 220.420  15
   9   3  -2 894.957 164.411  14
   9   3  -2 1121.94 209.561   7
  -9  -3   2 1081.94 218.393  21
   9   3  -2 1145.28 188.706  11
  -9  -3   2 1364.09 232.010  10
  -9  -3   2 1247.58 225.914  19
  -9  -3   2 1554.23 245.589  17
  -9  -3   2 1321.29 223.529   5
  -9  -3   2 1540.88 238.437  16
   9   3  -1 12.8435 100.289  15
   9   3  -1 212.045 125.361   7
  -9  -3   1-51.9670 96.2391  21
   9   3  -1 78.7487 79.0340  11
  -9  -3   1 216.113 107.322  10
  -9  -3   1-45.0279 114.700  19
  -9  -3   1 105.940 105.140  17
  -9  -3   1 63.4141 90.7597   5
  -9  -3   1-3.13352 86.0353  16
   9   3   0 451.529 129.862  15
   9   3   0 485.017 128.032   7
  -9  -3   0 950.519 192.995  21
   9   3   0 772.238 158.643  11
  -9  -3   0 645.496 157.043  10
  -9  -3   0 800.434 175.558  17
  -9  -3   0 682.159 165.433  16
   9   3   1 590.785 157.091  15
   9   3   1 571.819 134.498   7
  -9  -3  -1 1080.66 198.656  21
   9   3   1 732.172 164.063  11
  -9  -3  -1 1169.11 215.527  10
  -9  -3  -1 774.710 170.328  17
  -9  -3  -1 972.999 180.874  16
   9   3   2-80.5309 96.3428  15
   9   3   2 71.7183 90.7502   4
   9   3   2 6.10722 70.8902   7
  -9  -3  -2 116.073 67.0798  21
   9   3   2 58.2397 77.6725  11
   9   3   2 70.3584 58.7638   6
  -9  -3  -2 46.9681 96.7720  10
  -9  -3  -2-28.3554 85.1165  17
  -9  -3  -2-32.7829 92.3786  16
   9   3   3 422.026 130.391  15
   9   3   3 634.931 156.440   4
   9   3   3 501.890 118.950   7
  -9  -3  -3 622.903 170.452  21
   9   3   3 386.568 115.458  20
   9   3   3 541.692 137.461  11
   9   3   3 692.609 141.976   6
  -9  -3  -3 668.088 162.105  10
  -9  -3  -3 613.691 149.095   9
  -9  -3  -3 525.195 155.704  17
  -9  -3  -3 579.822 139.856  16
   9   3   4 1112.47 183.486  15
   9   3   4 1385.77 222.829   4
  -9  -3  -4 1340.17 221.305  21
   9   3   4 1102.20 183.677  20
   9   3   4 1419.72 222.065  11
   9   3   4 1159.49 184.371   6
  -9  -3  -4 1316.85 214.531  10
  -9  -3  -4 1124.09 210.379   9
  -9  -3  -4 1102.49 198.365  17
  -9  -3  -4 1296.90 207.087  16
   9   3   5-103.659 86.7334  15
   9   3   5-3.35953 83.8640   4
  -9  -3  -5-9.00884 72.6533  21
   9   3   5-126.840 117.364  20
   9   3   5-312.130 123.685  11
   9   3   5-51.7551 76.0081   6
  -9  -3  -5-26.0842 104.837  10
  -9  -3  -5 4.09353 91.1310   9
  -9  -3  -5-15.2150 109.758  17
  -9  -3  -5 14.1814 80.6459  16
   9   3   6 780.592 190.282   4
  -9  -3  -6 608.275 158.158  21
   9   3   6 1128.84 192.269  20
   9   3   6 1111.10 201.069  11
   9   3   6 1062.10 193.867   6
  -9  -3  -6 880.436 185.706  10
  -9  -3  -6 1222.39 214.981   9
  -9  -3  -6 699.990 155.369  17
  -9  -3  -6 1075.97 193.430  16
   9   3   7 115.255 102.460   4
   9   3   7-29.4972 71.0106  20
   9   3   7 146.497 119.343  11
   9   3   7 27.4086 100.191   6
  -9  -3  -7-78.0926 103.136  10
  -9  -3  -7 96.4439 83.9232   9
  -9  -3  -7 113.207 96.6443  17
  -9  -3  -7 18.2613 84.2211  16
   9   3   8 171.407 93.0167   4
   9   3   8 81.6315 93.5245  20
   9   3   8 481.841 156.087  11
   9   3   8 268.765 112.496   6
  -9  -3  -8 474.512 145.840  10
  -9  -3  -8 163.459 109.720   9
  -9  -3  -8 424.402 139.677  17
  -9  -3  -8 93.3528 84.3578  16
   9   3   9 5709.59 480.653   6
   9   3   9 6446.57 481.650  20
   9   3   9 5936.34 468.280  19
  -9  -3  -9 5944.14 479.955  17
  -9  -3  -9 5301.47 450.231  16
   9   4  -4-60.7154 122.381  14
  -9  -4   4 51.6368 77.0685  21
  -9  -4   4 189.734 113.733  19
  -9  -4   4 61.8417 103.341  17
  -9  -4   4 19.0607 92.6116  16
   9   4  -3-46.3319 118.496  15
   9   4  -3 83.7225 83.3251  14
   9   4  -3 22.6127 80.1471   7
  -9  -4   3 30.8631 65.9108  21
  -9  -4   3-120.378 95.3144  19
  -9  -4   3-11.0467 109.017  17
  -9  -4   3-8.76824 86.2984   5
  -9  -4   3 44.1899 81.6183  16
   9   4  -2 262.912 123.860  15
   9   4  -2 314.117 114.597  14
   9   4  -2 214.663 110.582   7
  -9  -4   2 565.393 154.730  21
  -9  -4   2 611.897 169.247  19
  -9  -4   2 688.263 169.418  17
  -9  -4   2 467.843 143.667   5
  -9  -4   2 474.396 146.744  16
   9   4  -1 28.9155 91.8838  15
   9   4  -1 108.360 86.6398  14
   9   4  -1 88.1259 86.7234   7
  -9  -4   1 80.5075 78.3746  21
   9   4  -1 143.948 86.7046  11
  -9  -4   1 120.221 86.9237  10
  -9  -4   1-1.28995 105.172  19
  -9  -4   1 30.6613 90.5217  17
  -9  -4   1 146.461 82.1245   5
  -9  -4   1 114.816 87.3353  16
   9   4   0 197.615 105.281  15
   9   4   0 141.186 81.4554   7
  -9  -4   0 399.537 134.064  21
   9   4   0 142.658 73.7072  11
  -9  -4   0 191.277 99.3262  10
  -9  -4   0 427.009 133.033  19
  -9  -4   0 412.298 132.782  17
  -9  -4   0 257.030 104.312  16
   9   4   1 3711.56 323.094   7
  -9  -4  -1 3507.99 334.912  21
   9   4   1 4161.32 329.747   6
   9   4   1 3866.92 325.292  11
  -9  -4  -1 4289.24 374.975  10
  -9  -4  -1 4308.95 363.560  17
  -9  -4  -1 4605.39 370.585  16
   9   4   1 3955.95 374.344  15
   9   4   2 2206.40 270.365  15
   9   4   2 2424.08 250.042   7
  -9  -4  -2 2489.16 276.931  21
   9   4   2 2564.55 264.264   6
   9   4   2 2269.77 253.858  11
  -9  -4  -2 2459.25 282.579  10
  -9  -4  -2 2636.29 279.253   9
  -9  -4  -2 2123.19 257.910  17
   9   4   2 2865.16 313.370   4
  -9  -4  -2 2114.84 254.721  16
   9   4   3 9.73895 73.4169  15
   9   4   3 28.0509 70.3207   4
   9   4   3-36.5883 57.5717   7
  -9  -4  -3 8.26220 93.6254  21
   9   4   3 142.191 108.164  11
   9   4   3-10.0330 73.7349   6
  -9  -4  -3-123.485 95.6266  10
  -9  -4  -3 8.24430 70.3288   9
  -9  -4  -3 7.71437 73.1242  17
  -9  -4  -3 87.1392 76.6201  16
   9   4   4 853.318 161.991  15
   9   4   4 1238.36 210.512   4
  -9  -4  -4 1263.09 200.551  21
   9   4   4 969.920 179.110  20
   9   4   4 1234.20 195.064  11
   9   4   4 1130.55 193.627   6
  -9  -4  -4 1150.39 195.110  10
  -9  -4  -4 1219.79 200.505   9
  -9  -4  -4 1119.47 187.437  17
  -9  -4  -4 1262.39 202.110  16
   9   4   5-33.9716 72.3111  15
   9   4   5-138.970 100.836   4
  -9  -4  -5 17.8430 88.6836  21
   9   4   5 10.7503 67.1691  20
   9   4   5 161.259 92.8182  11
   9   4   5 56.0194 83.7463   6
  -9  -4  -5 84.2599 86.8160  10
  -9  -4  -5-61.0193 104.790   9
  -9  -4  -5-25.2970 78.2453  17
  -9  -4  -5 37.7905 77.5807  16
   9   4   6 731.254 179.584   4
  -9  -4  -6 466.705 124.973  21
   9   4   6 721.193 148.836  20
   9   4   6 1150.09 202.202  11
   9   4   6 697.905 154.453   6
  -9  -4  -6 875.904 182.691  10
  -9  -4  -6 706.880 163.520   9
  -9  -4  -6 726.746 163.596  17
  -9  -4  -6 902.686 163.467  16
   9   4   7-80.8756 87.2593   4
   9   4   7-231.444 102.340  20
   9   4   7 59.2017 79.9663  11
   9   4   7-28.7029 69.7657   6
  -9  -4  -7 33.9006 89.5267  10
  -9  -4  -7-30.3707 79.3424   9
  -9  -4  -7 30.3470 69.9231  17
  -9  -4  -7 31.5206 78.6132  16
   9   4   8 1146.66 210.970   4
   9   4   8 909.642 172.500  20
   9   4   8 874.125 182.755  11
   9   4   8 996.994 202.963   6
  -9  -4  -8 1213.58 209.987  10
  -9  -4  -8 1039.68 208.413   9
  -9  -4  -8 686.262 163.856  17
  -9  -4  -8 1126.95 198.612  16
   9   4   9-24.8111 90.5459  20
   9   4   9 181.016 111.853   6
  -9  -4  -9 110.017 98.9758  10
  -9  -4  -9 205.121 131.204  17
  -9  -4  -9 162.831 87.0195  16
   9   4  10 3423.29 342.352  20
   9   4  10 3351.98 339.712  19
  -9  -4 -10 3391.87 350.358  17
  -9  -4 -10 3507.83 355.580  16
   9   4  11 119.900 110.720  20
   9   4  11 204.735 113.763  19
  -9  -4 -11-13.2733 104.439  17
  -9  -4 -11-47.4794 147.727  16
   9   5  -4 2464.49 307.636  14
  -9  -5   4 1680.01 259.354  21
  -9  -5   4 2196.27 297.073  19
  -9  -5   4 2893.81 328.877  17
  -9  -5   4 2280.12 292.173  16
   9   5  -3-53.2067 106.062  14
   9   5  -3 11.2959 94.0568   7
  -9  -5   3 93.9667 75.7976  21
  -9  -5   3 14.0034 97.5146  19
  -9  -5   3-343.716 131.354  17
  -9  -5   3-54.1674 108.233   5
  -9  -5   3-73.7032 85.9117  16
   9   5  -2 1920.87 286.945  15
   9   5  -2 1786.13 237.737  14
   9   5  -2 1748.00 261.204   7
  -9  -5   2 1480.63 225.986  21
  -9  -5   2 1927.14 258.571  12
  -9  -5   2 1454.69 229.160  19
  -9  -5   2 2012.51 258.781  17
  -9  -5   2 1937.22 275.437   5
  -9  -5   2 1647.76 228.797  16
   9   5  -1-3.75972 100.432  15
   9   5  -1 300.335 108.653  14
   9   5  -1 376.014 138.307   7
  -9  -5   1 264.060 107.804  21
  -9  -5   1 301.509 135.469  12
  -9  -5   1 173.989 85.2468  19
  -9  -5   1 379.690 128.424  17
  -9  -5   1 514.427 168.353   5
  -9  -5   1 38.2727 94.1640  16
   9   5   0 186.994 116.438  15
   9   5   0 523.524 128.787  14
   9   5   0 158.596 79.2842   7
  -9  -5   0 275.490 97.8366  21
  -9  -5   0 87.4907 92.0077  12
  -9  -5   0 129.402 71.7880  10
  -9  -5   0 174.218 86.9899  19
  -9  -5   0 144.887 97.2360  17
  -9  -5   0 160.009 106.360   5
  -9  -5   0 262.510 109.333  16
   9   5   1 177.646 123.772  15
   9   5   1 22.8725 62.9671   7
  -9  -5  -1 51.1392 65.1941  21
   9   5   1-84.3051 82.7118   6
   9   5   1-10.9320 50.8262  11
  -9  -5  -1-0.45219 89.9723  10
  -9  -5  -1-59.8915 86.7467  19
  -9  -5  -1 104.866 81.0255  17
  -9  -5  -1-14.3967 67.0660  16
   9   5   2 133.997 91.4722  15
   9   5   2 126.474 81.8481   7
  -9  -5  -2 67.5595 73.5085  21
   9   5   2 75.5434 66.8429   6
   9   5   2 101.444 73.6146  11
  -9  -5  -2 17.6010 83.4311  10
  -9  -5  -2 120.044 86.4564   9
  -9  -5  -2 165.282 88.7707  17
  -9  -5  -2 149.721 80.1501  16
   9   5   3 4252.25 308.084   7
  -9  -5  -3 4361.09 345.501  21
   9   5   3 3787.46 339.380   6
   9   5   3 3531.52 308.829  11
  -9  -5  -3 3689.20 334.317  10
  -9  -5  -3 3649.70 321.621   9
  -9  -5  -3 3646.12 313.583  17
  -9  -5  -3 4020.46 326.081  16
   9   5   3 3786.77 365.225   4
   9   5   3 3660.58 340.469  15
  -9  -5  -4 3058.49 285.819  21
   9   5   4 3048.80 311.006   6
   9   5   4 2775.74 279.964  11
  -9  -5  -4 2783.04 295.840  10
  -9  -5  -4 2572.82 281.529   9
  -9  -5  -4 2846.44 274.308  17
  -9  -5  -4 2864.37 274.851  16
   9   5   4 3249.89 334.419   4
   9   5   4 2752.36 280.585  15
   9   5   5 1433.62 201.786  15
   9   5   5 2201.88 279.230   4
  -9  -5  -5 1721.14 216.459  21
   9   5   5 1587.28 200.615  20
   9   5   5 1797.43 249.660   6
   9   5   5 1774.81 235.004  11
  -9  -5  -5 1572.82 225.336  10
  -9  -5  -5 1950.91 232.887  17
  -9  -5  -5 1927.01 245.344   9
  -9  -5  -5 2172.04 237.999  16
   9   5   6 85.0565 91.9296   4
  -9  -5  -6 130.763 82.9034  21
   9   5   6 89.6396 74.1953  20
   9   5   6-18.2125 72.6332  11
   9   5   6 164.628 106.655   6
  -9  -5  -6-82.8611 106.591  10
  -9  -5  -6 125.324 90.3436  17
  -9  -5  -6-6.14632 74.3847   9
  -9  -5  -6 23.6991 77.5067  16
   9   5   7 95.3532 85.0497   4
  -9  -5  -7 36.4444 64.3610  21
   9   5   7 9.70935 61.4346  20
   9   5   7 23.3511 74.3854  11
   9   5   7-58.2403 107.700   6
  -9  -5  -7 67.3201 76.8807  10
  -9  -5  -7 159.885 88.8535  17
  -9  -5  -7 20.4778 86.0268   9
  -9  -5  -7 18.0938 74.6655  16
   9   5   8 57.0855 100.832   4
   9   5   8 205.533 86.6367  20
   9   5   8 91.0699 82.6776  11
   9   5   8 72.7344 83.0438   6
  -9  -5  -8 70.2481 94.9993  10
  -9  -5  -8 159.531 84.1383  17
  -9  -5  -8 242.463 126.836   9
  -9  -5  -8 173.114 93.3828  16
   9   5   9 2443.53 303.148  11
   9   5   9 2228.11 304.336   6
  -9  -5  -9 1704.71 250.821  10
  -9  -5  -9 2024.85 283.688   9
  -9  -5 -10 650.139 159.554  10
  -9  -6   4 316.692 120.838  21
  -9  -6   4 469.676 147.606  20
  -9  -6   4 349.165 126.453  19
  -9  -6   4 216.119 106.756  17
  -9  -6   4 607.816 152.839  16
   9   6  -3 1217.46 220.645  14
   9   6  -3 1683.57 264.458   7
  -9  -6   3 1374.00 214.563  21
  -9  -6   3 1826.44 249.580  12
  -9  -6   3 1298.37 215.802  19
  -9  -6   3 1509.67 228.320  17
  -9  -6   3 1234.89 202.595  16
   9   6  -2 408.538 160.215  15
   9   6  -2 160.047 101.625  14
   9   6  -2 47.8124 71.0424   7
  -9  -6   2 258.579 100.010  21
  -9  -6   2 166.504 105.002  12
  -9  -6   2 275.201 125.317  19
  -9  -6   2 258.372 98.8623  17
  -9  -6   2 103.817 106.434   5
  -9  -6   2 136.161 89.0895  16
   9   6  -1 950.405 208.149  15
   9   6  -1 1018.63 185.898  14
   9   6  -1 791.747 175.195   7
  -9  -6   1 812.713 153.836  21
  -9  -6   1 725.529 168.356  12
  -9  -6   1 717.502 147.721  19
  -9  -6   1 827.887 166.873  17
  -9  -6   1 853.910 191.695   5
  -9  -6   1 666.252 139.784  16
   9   6   0 500.589 147.853  15
   9   6   0 620.167 145.228  14
   9   6   0 727.044 156.773   7
  -9  -6   0 709.783 147.089  21
  -9  -6   0 352.204 120.996  12
  -9  -6   0 281.013 108.078  10
  -9  -6   0 689.921 141.792  19
  -9  -6   0 691.622 148.016  17
  -9  -6   0 596.104 165.518   5
  -9  -6   0 433.939 118.863  16
   9   6   1 1866.23 264.504  15
   9   6   1 1931.06 224.612  14
   9   6   1 1961.48 239.881   7
  -9  -6  -1 1899.60 227.313  21
  -9  -6  -1 2142.79 281.795  12
   9   6   1 1670.39 232.242   6
  -9  -6  -1 2131.07 244.726  19
  -9  -6  -1 2051.51 245.843  10
  -9  -6  -1 1896.56 224.619  17
  -9  -6  -1 2073.68 225.206  16
  -9  -6  -1 1990.89 276.682   5
   9   6   2 840.206 177.830  15
   9   6   2 706.932 140.082   7
  -9  -6  -2 674.400 138.318  21
  -9  -6  -2 870.309 180.705  12
   9   6   2 775.508 162.187   6
   9   6   2 486.204 111.723  11
  -9  -6  -2 383.663 120.775  10
  -9  -6  -2 380.453 103.416  19
  -9  -6  -2 701.180 141.430  17
  -9  -6  -2 586.880 126.090   9
  -9  -6  -2 739.955 137.066  16
   9   6   3 504.656 139.023  15
   9   6   3 643.387 125.796   7
  -9  -6  -3 461.837 145.740  12
   9   6   3 523.612 148.603   6
   9   6   3 371.581 105.946  11
  -9  -6  -3 354.890 117.425  10
  -9  -6  -3 721.470 142.765   9
   9   6   4 166.731 88.1785  15
   9   6   4 331.265 144.563   4
  -9  -6  -4 230.710 126.040  12
   9   6   4 402.500 133.253   6
   9   6   4 207.507 97.9514  11
  -9  -6  -4 390.733 118.933  10
  -9  -6  -4 310.016 121.205   9
   9   6   5 3320.30 343.085   6
   9   6   5 3085.28 299.428  11
  -9  -6  -5 3262.75 303.758  10
  -9  -6  -5 3580.05 321.720   9
   9   6   5 3120.57 338.424   4
   9   6   5 3074.70 296.689  15
   9   6   6 1169.85 181.123  15
   9   6   6 1279.70 223.872   4
   9   6   6 1241.67 214.755   6
   9   6   6 914.728 180.119  11
  -9  -6  -6 1155.99 190.126  10
  -9  -6  -6 971.789 178.159   9
   9   6   7 6765.94 503.937   6
   9   6   7 6878.80 480.908  11
  -9  -6  -7 6261.06 440.751  10
   9   6   7 6809.04 507.608   4
   9   6   8 85.5033 98.9080   4
   9   6   8 254.266 115.182   6
   9   6   8-61.0108 113.709  11
  -9  -6  -8 138.219 80.5769  10
  -9  -6  -8 340.524 139.734   9
   9   6   9 866.515 188.720  11
  -9  -6  -9 578.628 151.139  10
  -9  -6  -9 454.977 133.465   9
  -9  -6 -10 599.405 169.726  10
   9   7  -3 327.079 123.956  14
  -9  -7   3 314.410 129.649  12
   9   7  -2 3096.71 342.604   7
   9   7  -2 3533.73 356.305  14
  -9  -7   2 3096.18 338.816  12
   9   7  -1 1378.92 253.516  15
   9   7  -1 994.728 194.990  14
   9   7  -1 1030.92 203.771   7
  -9  -7   1 1152.86 223.860  12
  -9  -7   1 1089.82 219.144   5
   9   7   0 113.358 78.7500  15
   9   7   0 434.157 140.954  14
   9   7   0 374.723 127.272   7
  -9  -7   0 347.876 144.840  12
  -9  -7   0 582.091 168.938   5
   9   7   1 90.7703 110.840  15
   9   7   1 152.888 93.4399  14
   9   7   1-44.0269 64.7591   7
  -9  -7  -1 95.5885 115.287  12
  -9  -7  -1 155.090 96.2571   5
   9   7   2 2970.92 289.531   7
   9   7   2 3341.04 297.954  14
   9   7   2 3566.47 347.566   6
  -9  -7  -2 3486.85 362.077  12
  -9  -7  -2 3383.05 357.391   5
   9   7   2 3748.98 363.115  15
   9   7   3 1506.01 222.923  15
   9   7   3 1507.73 194.650   7
  -9  -7  -3 1190.33 228.141  12
   9   7   3 1569.28 238.842   6
  -9  -7  -3 1631.04 206.068  10
  -9  -7  -4 19161.1 893.979  12
   9   7   4 18175.1 861.727   6
   9   7   4 18802.5 760.149  11
  -9  -7  -4 17977.7 750.826  10
  -9  -7  -4 17708.4 743.690   9
   9   7   4 19303.2 883.103   4
   9   7   4 18224.7 824.678  15
   9   7   5 137.787 95.6868  15
   9   7   5 432.048 146.988   4
  -9  -7  -5 496.675 177.829  12
   9   7   5 70.9435 85.2196   6
   9   7   5 80.9522 74.6803  11
  -9  -7  -5 380.865 116.275  10
  -9  -7  -5 234.660 94.6199   9
   9   7   6 439.466 120.656  15
   9   7   6 610.054 156.745   4
  -9  -7  -6 532.531 176.832  12
   9   7   6 426.959 131.882   6
   9   7   6 651.550 156.420  11
  -9  -7  -6 441.947 118.898  10
  -9  -7  -6 462.035 123.287   9
   9   7   7 3459.21 371.306   6
   9   7   7 3070.29 317.584  11
  -9  -7  -7 3321.94 307.862  10
  -9  -7  -7 3041.24 312.708   9
   9   7   7 3492.62 365.078   4
   9   7   8 341.050 152.106   6
   9   7   8 167.147 99.3280  11
  -9  -7  -8 119.102 84.6941  10
  -9  -7  -8 44.7218 75.9024   9
   9   7   9 877.759 187.996  11
  -9  -7  -9 711.887 164.345   9
   9   8  -1 319.127 128.096  14
   9   8  -1 280.403 125.901   7
  -9  -8   1 271.978 128.733  12
   9   8   0 523.342 161.985  15
   9   8   0 208.861 101.869  14
   9   8   0 369.524 131.755   7
  -9  -8   0 87.8753 117.845  12
   9   8   1 118.090 100.533  15
   9   8   1-18.6977 71.7556  14
   9   8   1 95.7836 82.6458   7
  -9  -8  -1 212.787 121.617  12
  -9  -8  -1-3.23630 108.022   5
   9   8   2 145.371 114.531  15
   9   8   2-76.2002 80.4907  14
   9   8   2 44.5914 75.4823   7
  -9  -8  -2 164.912 124.256  12
  -9  -8  -2 21.7555 78.5958   5
   9   8   3 318.566 126.540  15
   9   8   3 402.746 117.188  14
  -9  -8  -3 447.093 161.700  12
   9   8   3 123.987 82.2735   6
  -9  -8  -3 310.989 122.457   5
   9   8   4 545.215 137.285  15
  -9  -8  -4 446.955 164.702  12
   9   8   4 525.088 146.063   6
   9   8   5 211.386 84.3985  15
  -9  -8  -5 187.070 105.441  12
   9   8   5 206.721 112.793   6
   9   8   6 133.963 86.4123  15
   9   8   6 243.173 112.898   4
  -9  -8  -6 497.751 198.121  12
   9   8   6 83.5230 111.714   6
   9   8   6 384.781 120.716  11
  -9  -8  -6 420.267 127.110   9
   9   8   7 242.780 109.291   4
  -9  -8  -7 246.650 110.953   9
   9   8   8 337.755 112.338  11
  -9  -8  -8 349.851 121.416   9
   9   8   9 246.110 120.064  11
  -9  -8  -9-101.473 120.673   9
   9   9   0 43.0164 84.9298  14
   9   9   0 146.054 112.015   7
   9   9   1 360.616 137.892  14
   9   9   1 236.604 114.060   7
   9   9   2 566.211 143.711  14
   9   9   2 151.218 77.3088   7
   9   9   3 79.3241 114.680  15
   9   9   3 166.071 96.0256  14
  -9  -9  -3-139.429 128.342  13
  -9  -9  -3-94.2400 117.796   5
   9   9   4 1442.18 237.320  15
  -9  -9  -4 1208.87 223.553   5
   9   9   5 13.1619 76.6804  15
   9   9   6 27.9605 74.9982  15
   9   9   7 64.4598 72.4558   4
   9  10   2 1888.24 266.107   7
   9  10   3 895.860 187.933  14
  -9 -10  -3 366.949 118.681  13
   9  10   4-102.946 99.2119  14
   9  10   6 1039.03 218.138  15
  10   1   3 324.164 136.532  15
  10   2   0 131.942 114.230   7
  10   2   1 127.346 108.295   7
  10   2   2 319.568 153.227  15
  10   2   3-94.2070 124.204  15
  10   2   3 118.459 107.616   4
  10   3  -1 2405.34 307.568   7
  10   3  -1 2755.40 309.745  11
  10   3   0 1368.78 231.057   7
  10   3   0 1254.29 222.016  11
  10   3   1 213.909 114.735  15
  10   3   1 180.523 111.447   7
 -10  -3  -1 370.097 144.635  21
  10   3   1 272.171 127.224  11
 -10  -3  -1 459.279 150.386  17
 -10  -3  -1 270.565 119.002  16
  10   3   2 1.15030 90.2611  15
 -10  -3  -2 163.738 120.799  21
  10   3   2 103.671 91.2635  11
 -10  -3  -2-2.34189 69.1542  17
 -10  -3  -2 227.970 113.096  16
  10   3   3 119.168 74.3873  15
  10   3   3 5.14269 107.396   4
 -10  -3  -3 158.024 113.198  21
  10   3   3 375.716 135.018  11
 -10  -3  -3 256.033 120.298  17
 -10  -3  -3 149.268 77.0583  16
  10   3   4 50.8918 88.8376  15
 -10  -3  -4 304.299 130.822  21
  10   3   4 44.9540 90.6588  20
  10   3   4 281.808 126.568  11
 -10  -3  -4 253.900 113.033   9
 -10  -3  -4-24.3435 119.119  17
 -10  -3  -4 89.1018 92.6483  16
 -10  -3  -5 1540.33 249.141  21
  10   3   5 1785.53 256.638  20
  10   3   5 1304.36 211.826   6
 -10  -3  -5 1728.34 273.308  17
 -10  -3  -5 1345.07 229.968  16
 -10  -3  -6 85.1112 104.918  21
  10   3   6 62.8887 84.6216  20
  10   3   6 252.962 105.241   6
 -10  -3  -6-21.0395 131.331  17
 -10  -3  -6-33.3600 111.133  16
  10   3   7 189.576 94.1290   6
  10   4  -1 584.042 153.972   7
 -10  -4   1 585.500 167.502  21
 -10  -4   1 261.643 130.860  19
 -10  -4   1 548.248 162.796  17
 -10  -4   1 455.985 143.518  16
  10   4   0 287.497 112.441   7
 -10  -4   0 208.568 102.289  21
  10   4   0 352.523 100.155  11
 -10  -4   0 457.394 152.980  10
 -10  -4   0 58.9537 100.198  19
 -10  -4   0 257.584 132.835  17
 -10  -4   0 149.283 114.496  16
  10   4   1 987.954 214.660  15
  10   4   1 967.334 182.665   7
 -10  -4  -1 772.834 173.169  21
  10   4   1 975.002 179.247  11
 -10  -4  -1 1095.30 210.529  10
 -10  -4  -1 604.021 160.040  19
 -10  -4  -1 986.130 195.646  17
 -10  -4  -1 616.639 163.964  16
  10   4   2 306.698 111.795  15
 -10  -4  -2 643.867 167.922  21
  10   4   2 352.324 128.294  11
 -10  -4  -2 562.568 159.407  10
 -10  -4  -2 400.256 129.606  17
 -10  -4  -2 428.672 120.821  16
  10   4   3 523.906 156.072  15
  10   4   3 534.834 153.608   4
 -10  -4  -3 287.118 119.634  21
  10   4   3 581.364 149.308   6
  10   4   3 631.958 147.080  11
 -10  -4  -3 520.646 150.704  10
 -10  -4  -3 553.329 154.939   9
 -10  -4  -3 603.489 156.739  17
 -10  -4  -3 959.794 192.394  16
  10   4   4 160.501 110.736  15
  10   4   4 433.120 154.397   4
 -10  -4  -4 375.417 132.351  21
  10   4   4 258.439 94.4291   6
  10   4   4 305.042 123.948  11
 -10  -4  -4 250.928 109.458  10
 -10  -4  -4 306.718 127.612   9
 -10  -4  -4 271.055 114.519  17
 -10  -4  -4 220.340 102.650  16
 -10  -4  -5 1124.51 200.056  21
  10   4   5 1360.55 215.491  20
  10   4   5 1234.27 231.550  11
  10   4   5 1844.71 251.911   6
 -10  -4  -5 1320.24 230.131  10
 -10  -4  -5 1916.65 272.564   9
 -10  -4  -5 1630.83 249.508  17
 -10  -4  -5 1656.14 241.886  16
 -10  -4  -6 194.957 109.513  21
  10   4   6 43.6427 95.6790  20
  10   4   6 264.193 117.665   6
 -10  -4  -6-34.4823 91.8265  17
 -10  -4  -6-10.5468 82.8865  16
 -10  -4  -7 98.4544 107.663  21
  10   4   7-72.0774 111.582  20
  10   4   7 295.451 142.933   6
 -10  -4  -7 246.983 125.322  17
 -10  -4  -7-142.481 144.528  16
 -10  -4  -8 197.969 120.672  21
  10   4   8 225.257 105.102  20
 -10  -4  -8 207.518 101.323  17
 -10  -4  -8 217.596 100.492  16
 -10  -5   2 146.615 108.045  21
 -10  -5   2-53.7305 75.6410  19
 -10  -5   2 181.083 96.8892  17
  10   5  -1 178.496 107.393   7
 -10  -5   1 61.8298 68.6930  21
 -10  -5   1 10.8134 80.0124  19
 -10  -5   1 156.123 91.4623  17
  10   5   0 100.886 92.6891   7
 -10  -5   0 88.9836 70.3405  21
 -10  -5   0-28.1943 108.664  10
 -10  -5   0-21.8358 64.2032  19
 -10  -5   0-22.6968 109.356  17
 -10  -5   0-94.2600 80.3513  16
  10   5   1 140.686 93.5756   7
 -10  -5  -1-60.8189 82.3607  21
 -10  -5  -1 184.738 120.546  10
 -10  -5  -1 10.2709 85.8714  19
 -10  -5  -1-18.0449 77.6437  17
 -10  -5  -1-80.3417 116.268  16
  10   5   2 22.3932 93.6139  15
 -10  -5  -2-18.4479 84.3651  21
  10   5   2-128.379 84.6604   6
  10   5   2 203.584 94.6890  11
 -10  -5  -2-145.691 136.921  10
 -10  -5  -2 51.2785 70.9962  19
 -10  -5  -2-68.5771 104.648  17
 -10  -5  -2-137.533 100.412  16
  10   5   3 1710.73 249.931  15
 -10  -5  -3 1592.24 226.512  21
  10   5   3 2461.17 278.280  11
  10   5   3 1856.04 251.230   6
 -10  -5  -3 1865.60 266.417  10
 -10  -5  -3 2310.73 279.844   9
 -10  -5  -3 2238.86 272.677  17
 -10  -5  -3 2080.14 257.806  16
  10   5   4 499.110 148.091  15
 -10  -5  -4 750.576 170.378  21
  10   5   4 756.171 176.637   6
  10   5   4 788.933 168.872  11
 -10  -5  -4 1134.05 209.643  10
 -10  -5  -4 718.724 172.547   9
 -10  -5  -4 546.355 142.535  17
 -10  -5  -4 608.538 155.281  16
 -10  -5  -5 464.420 130.674  21
  10   5   5 444.975 114.221  20
  10   5   5 624.322 162.942   6
  10   5   5 91.2933 92.4313  11
 -10  -5  -5 243.710 112.301  10
 -10  -5  -5 431.784 146.890   9
 -10  -5  -5 584.929 145.175  17
 -10  -5  -5 253.010 98.7343  16
  10   5   6-95.6183 95.3731  20
  10   5   6 13.5485 81.5609   6
  10   5   6 154.480 100.184  11
 -10  -5  -6-14.2868 73.1572  10
 -10  -5  -6-17.2442 100.283  17
 -10  -5  -6 87.9482 69.5389  16
  10   5   7 44.3384 83.1085   6
 -10  -5  -7 6.19937 73.7780  10
  10   6  -2 2480.10 303.483  14
  10   6  -1 169.149 117.215   7
 -10  -6   1-16.4686 95.6395  12
  10   6   0 310.149 128.294   7
 -10  -6   0 758.580 169.073  10
  10   6   1 142.132 99.8611  15
  10   6   1 211.859 100.751   7
 -10  -6  -1-48.2312 103.210  10
  10   6   2 3592.95 353.096   6
 -10  -6  -2 3638.79 351.202  10
  10   6   2 4166.70 402.688  15
  10   6   3 2085.84 276.267  15
  10   6   3 2254.65 283.967   6
 -10  -6  -3 1875.46 261.600  10
 -10  -6  -3 2397.94 272.588   9
  10   6   4 363.106 132.547  15
  10   6   4 383.693 135.147   6
  10   6   4 380.884 124.004  11
 -10  -6  -4 224.320 101.886  10
 -10  -6  -4 294.700 106.072   9
  10   6   5 606.086 154.346  15
  10   6   5 880.341 195.271   6
  10   6   5 852.140 173.904  11
 -10  -6  -5 795.901 169.180  10
 -10  -6  -5 843.508 173.773   9
  10   6   6 90.2628 83.8435   6
  10   6   6 111.621 88.6977  11
 -10  -6  -6 77.0116 93.9536  10
 -10  -6  -6 105.264 93.6572   9
  10   6   7-71.5226 103.221  11
 -10  -6  -7 220.365 95.2554  10
 -10  -6  -7 36.8573 62.2405   9
 -10  -6  -8 936.719 198.718  10
  10   7  -1 1568.26 246.592  14
  10   7   0 180.543 102.310   7
  10   7   1 1888.63 255.613   7
  10   7   2 596.874 166.622  15
  10   7   2 759.012 191.587   6
  10   7   3 10815.6 658.785   6
  10   7   3 11532.7 683.143  15
  10   7   4-76.0615 105.180  15
  10   7   4 100.975 90.0610   6
  10   7   5 1627.29 239.199  15
  10   7   5 1586.34 264.876   6
 -10  -7  -5 1617.40 224.638   9
  10   7   6 204.773 90.8212  11
 -10  -7  -6 232.282 120.647   9
  10   7   7 1809.42 255.834  11
 -10  -7  -7 1633.68 248.448   9
  10   8   0 100.964 117.071  14
  10   8   1-59.0094 100.449   7
  10   8   3 4.23787 102.983  15
  10   8   4-30.2657 70.3105  15
  10   8   5 200.205 101.417  15
   0   0   0    0.00    0.00   0
TITL p1078c in P-1
REM P-1 (#2 in standard setting)
CELL 0.71073   7.956474   8.502661  11.084211  77.8575  76.6322  62.1583
ZERR    3.00   0.000324   0.000342   0.000347   0.0031   0.0031   0.0042
LATT  1
SFAC C H N O
UNIT 33.00 30.00 3.00 3.00
TREF
HKLF 4
END
;
_shelx_hkl_checksum              98047
_shelx_res_file
;
TITL I
CELL  0.71073   7.9565   8.5027  11.0842   77.857   76.632   62.158
ZERR     2.00   0.0003   0.0003   0.0003    0.003    0.003    0.004
LATT 1
SFAC C  H  O
UNIT 28 40 6
MERG 2
L.S. 15
ACTA 50.50
BOND $H
FMAP 2
PLAN 10
HTAB
CONF
DFIX 0.82 0.01 O2 H2'
REM Instructions for potential hydrogen bonds
HTAB O2 O3
EQIV $1 x, y+1, z
HTAB O2 O1_$1
WGHT    0.063100    0.116500
FVAR       6.69857
O1    3    0.696616   -0.453661    1.224486    11.00000    0.04447    0.01979 =
         0.02551   -0.00142   -0.00636   -0.01954
O2    3    0.710225    0.210997    1.306686    11.00000    0.03466    0.01621 =
         0.01670   -0.00040   -0.00643   -0.01481
H2'   2    0.710892    0.304713    1.264528    11.00000    0.04938
O3    3    0.741261    0.286435    1.058001    11.00000    0.03376    0.01675 =
         0.01485    0.00101   -0.00393   -0.01568
C1    1    0.714644   -0.186156    1.226874    11.00000    0.01832    0.01472 =
         0.01938   -0.00118   -0.00287   -0.00811
C2    1    0.726668   -0.147897    1.097426    11.00000    0.02477    0.01661 =
         0.01969   -0.00386   -0.00380   -0.01082
AFIX  43
H2    2    0.727612   -0.227918    1.051252    11.00000   -1.20000
AFIX   0
C3    1    0.737237    0.008172    1.036734    11.00000    0.02595    0.01846 =
         0.01480   -0.00098   -0.00383   -0.01124
AFIX  43
H3    2    0.746866    0.031703    0.950230    11.00000   -1.20000
AFIX   0
C4    1    0.733425    0.129181    1.105267    11.00000    0.02012    0.01375 =
         0.01727    0.00074   -0.00303   -0.00917
C5    1    0.719111    0.093370    1.236485    11.00000    0.01809    0.01501 =
         0.01737   -0.00339   -0.00336   -0.00776
C6    1    0.712571   -0.064345    1.295357    11.00000    0.02055    0.01628 =
         0.01488   -0.00029   -0.00378   -0.00846
AFIX  43
H6    2    0.706715   -0.089900    1.381612    11.00000   -1.20000
AFIX   0
C7    1    0.702768   -0.354877    1.287664    11.00000    0.02129    0.01537 =
         0.02163   -0.00130   -0.00315   -0.00883
C8    1    0.696095   -0.401704    1.426927    11.00000    0.03164    0.01890 =
         0.02142    0.00141   -0.00361   -0.01390
AFIX 137
H8A   2    0.700671   -0.518768    1.450595    11.00000   -1.50000
H8B   2    0.579099   -0.315363    1.468289    11.00000   -1.50000
H8C   2    0.804261   -0.400835    1.450681    11.00000   -1.50000
AFIX   0
C9    1    0.757575    0.336862    0.924654    11.00000    0.02516    0.01899 =
         0.01361    0.00029   -0.00243   -0.01220
AFIX  23
H9A   2    0.645120    0.353089    0.893974    11.00000   -1.20000
H9B   2    0.871103    0.246214    0.881802    11.00000   -1.20000
AFIX   0
C10   1    0.772887    0.511080    0.905201    11.00000    0.02392    0.01748 =
         0.01656    0.00006   -0.00330   -0.01162
AFIX  23
H10A  2    0.886920    0.489731    0.936428    11.00000   -1.20000
H10B  2    0.662439    0.595216    0.954781    11.00000   -1.20000
AFIX   0
C11   1    0.783215    0.597229    0.770355    11.00000    0.02194    0.01781 =
         0.01602   -0.00066   -0.00214   -0.01012
AFIX  23
H11A  2    0.669658    0.620197    0.737807    11.00000   -1.20000
H11B  2    0.895118    0.516018    0.719842    11.00000   -1.20000
AFIX   0
C12   1    0.796128    0.773128    0.762268    11.00000    0.02303    0.01882 =
         0.01723    0.00084   -0.00322   -0.01150
AFIX  23
H12A  2    0.686418    0.850489    0.816293    11.00000   -1.20000
H12B  2    0.911095    0.747562    0.794203    11.00000   -1.20000
AFIX   0
C13   1    0.801487    0.874332    0.631977    11.00000    0.02517    0.02225 =
         0.01617    0.00112   -0.00144   -0.01193
AFIX  23
H13A  2    0.688180    0.898490    0.598617    11.00000   -1.20000
H13B  2    0.913572    0.799607    0.577999    11.00000   -1.20000
AFIX   0
C14   1    0.808666    1.050529    0.630709    11.00000    0.02527    0.02103 =
         0.02541    0.00405   -0.00342   -0.01141
AFIX 137
H14A  2    0.701058    1.122933    0.686838    11.00000   -1.50000
H14B  2    0.803331    1.112999    0.547716    11.00000   -1.50000
H14C  2    0.926134    1.026740    0.656772    11.00000   -1.50000
AFIX   0
HKLF 4
REM  I
REM R1 =  0.0400 for    2612 Fo > 4sig(Fo)  and  0.0518 for all    3221 data
REM    160 parameters refined using      1 restraints
END
WGHT      0.0627      0.1122
REM Instructions for potential hydrogen bonds
HTAB O2 O1_$1
REM Highest difference peak  0.323,  deepest hole -0.230,  1-sigma level  0.047
Q1    1   0.7876  0.6833  0.7729  11.00000  0.05    0.32
Q2    1   0.7060 -0.2599  1.2582  11.00000  0.05    0.32
Q3    1   0.7662  0.4248  0.9258  11.00000  0.05    0.28
Q4    1   0.7192  0.0186  1.2607  11.00000  0.05    0.26
Q5    1   0.7353  0.2033  1.0769  11.00000  0.05    0.25
Q6    1   0.7085  0.1229  1.1735  11.00000  0.05    0.24
Q7    1   0.7611  0.0548  1.0650  11.00000  0.05    0.24
Q8    1   0.6830 -0.3631  1.3651  11.00000  0.05    0.22
Q9    1   0.7193 -0.0644  1.0743  11.00000  0.05    0.22
Q10   1   0.8099  0.9654  0.6327  11.00000  0.05    0.22
;
_shelx_res_checksum              95488
_shelxl_version_number           2014/6
loop_
_space_group_symop_operation_xyz
'x, y, z'
'-x, -y, -z'
loop_
_atom_site_type_symbol
_atom_site_label
_atom_site_fract_x
_atom_site_fract_y
_atom_site_fract_z
_atom_site_U_iso_or_equiv
_atom_site_adp_type
_atom_site_calc_flag
_atom_site_occupancy
O O1 0.69662(12) -0.45366(10) 1.22449(7) 0.0278(2) Uani d 1
O O2 0.71022(11) 0.21100(10) 1.30669(7) 0.02086(18) Uani d 1
H H2' 0.711(2) 0.3047(16) 1.2645(14) 0.049(5) Uiso d 1
O O3 0.74126(11) 0.28644(9) 1.05800(6) 0.02038(18) Uani d 1
C C1 0.71464(14) -0.18616(13) 1.22687(9) 0.0173(2) Uani d 1
C C2 0.72667(15) -0.14790(13) 1.09743(9) 0.0193(2) Uani d 1
H H2 0.7276 -0.2279 1.0513 0.023 Uiso calc 1
C C3 0.73724(15) 0.00817(13) 1.03673(9) 0.0192(2) Uani d 1
H H3 0.7469 0.0317 0.9502 0.023 Uiso calc 1
C C4 0.73342(14) 0.12918(13) 1.10527(9) 0.0167(2) Uani d 1
C C5 0.71911(14) 0.09337(13) 1.23648(9) 0.0163(2) Uani d 1
C C6 0.71257(14) -0.06435(13) 1.29536(9) 0.0172(2) Uani d 1
H H6 0.7067 -0.0899 1.3816 0.021 Uiso calc 1
C C7 0.70277(14) -0.35488(13) 1.28766(9) 0.0193(2) Uani d 1
C C8 0.69610(16) -0.40170(14) 1.42693(10) 0.0236(2) Uani d 1
H H8A 0.7007 -0.5188 1.4506 0.035 Uiso calc 1
H H8B 0.5791 -0.3154 1.4683 0.035 Uiso calc 1
H H8C 0.8043 -0.4008 1.4507 0.035 Uiso calc 1
C C9 0.75757(15) 0.33686(13) 0.92465(9) 0.0187(2) Uani d 1
H H9A 0.6451 0.3531 0.8940 0.022 Uiso calc 1
H H9B 0.8711 0.2462 0.8818 0.022 Uiso calc 1
C C10 0.77289(15) 0.51108(13) 0.90520(9) 0.0186(2) Uani d 1
H H10A 0.8869 0.4897 0.9364 0.022 Uiso calc 1
H H10B 0.6624 0.5952 0.9548 0.022 Uiso calc 1
C C11 0.78321(15) 0.59723(13) 0.77035(9) 0.0184(2) Uani d 1
H H11A 0.6697 0.6202 0.7378 0.022 Uiso calc 1
H H11B 0.8951 0.5160 0.7198 0.022 Uiso calc 1
C C12 0.79613(15) 0.77313(13) 0.76227(9) 0.0192(2) Uani d 1
H H12A 0.6864 0.8505 0.8163 0.023 Uiso calc 1
H H12B 0.9111 0.7476 0.7942 0.023 Uiso calc 1
C C13 0.80149(15) 0.87433(14) 0.63198(9) 0.0215(2) Uani d 1
H H13A 0.6882 0.8985 0.5986 0.026 Uiso calc 1
H H13B 0.9136 0.7996 0.5780 0.026 Uiso calc 1
C C14 0.80867(16) 1.05053(14) 0.63071(10) 0.0246(2) Uani d 1
H H14A 0.7011 1.1229 0.6868 0.037 Uiso calc 1
H H14B 0.8033 1.1130 0.5477 0.037 Uiso calc 1
H H14C 0.9261 1.0267 0.6568 0.037 Uiso calc 1
loop_
_atom_site_aniso_label
_atom_site_aniso_U_11
_atom_site_aniso_U_22
_atom_site_aniso_U_33
_atom_site_aniso_U_12
_atom_site_aniso_U_13
_atom_site_aniso_U_23
O1 0.0445(5) 0.0198(4) 0.0255(4) -0.0195(4) -0.0064(3) -0.0014(3)
O2 0.0347(4) 0.0162(4) 0.0167(4) -0.0148(3) -0.0064(3) -0.0004(3)
O3 0.0338(4) 0.0167(4) 0.0149(3) -0.0157(3) -0.0039(3) 0.0010(3)
C1 0.0183(5) 0.0147(5) 0.0194(5) -0.0081(4) -0.0029(4) -0.0012(4)
C2 0.0248(5) 0.0166(5) 0.0197(5) -0.0108(4) -0.0038(4) -0.0039(4)
C3 0.0260(5) 0.0185(5) 0.0148(4) -0.0112(4) -0.0038(4) -0.0010(4)
C4 0.0201(5) 0.0138(5) 0.0173(5) -0.0092(4) -0.0030(4) 0.0007(4)
C5 0.0181(5) 0.0150(5) 0.0174(5) -0.0078(4) -0.0034(4) -0.0034(4)
C6 0.0205(5) 0.0163(5) 0.0149(4) -0.0085(4) -0.0038(4) -0.0003(4)
C7 0.0213(5) 0.0154(5) 0.0216(5) -0.0088(4) -0.0032(4) -0.0013(4)
C8 0.0316(6) 0.0189(5) 0.0214(5) -0.0139(4) -0.0036(4) 0.0014(4)
C9 0.0252(5) 0.0190(5) 0.0136(5) -0.0122(4) -0.0024(4) 0.0003(4)
C10 0.0239(5) 0.0175(5) 0.0166(5) -0.0116(4) -0.0033(4) 0.0001(4)
C11 0.0219(5) 0.0178(5) 0.0160(5) -0.0101(4) -0.0021(4) -0.0007(4)
C12 0.0230(5) 0.0188(5) 0.0172(5) -0.0115(4) -0.0032(4) 0.0008(4)
C13 0.0252(5) 0.0223(5) 0.0162(5) -0.0119(4) -0.0014(4) 0.0011(4)
C14 0.0253(5) 0.0210(5) 0.0254(5) -0.0114(4) -0.0034(4) 0.0041(4)
loop_
_atom_type_symbol
_atom_type_description
_atom_type_scat_dispersion_real
_atom_type_scat_dispersion_imag
_atom_type_scat_source
C C 0.0033 0.0016 'International Tables Vol C Tables 4.2.6.8 and 6.1.1.4'
H H 0.0000 0.0000 'International Tables Vol C Tables 4.2.6.8 and 6.1.1.4'
O O 0.0106 0.0060 'International Tables Vol C Tables 4.2.6.8 and 6.1.1.4'
loop_
_geom_angle_atom_site_label_1
_geom_angle_atom_site_label_2
_geom_angle_atom_site_label_3
_geom_angle
C5 O2 H2' 113.3(12)
C4 O3 C9 119.06(8)
C2 C1 C6 119.09(9)
C2 C1 C7 118.71(9)
C6 C1 C7 122.20(9)
C3 C2 C1 120.73(9)
C3 C2 H2 119.6
C1 C2 H2 119.6
C2 C3 C4 119.90(9)
C2 C3 H3 120.0
C4 C3 H3 120.0
O3 C4 C3 125.89(9)
O3 C4 C5 114.05(8)
C3 C4 C5 120.05(9)
O2 C5 C6 119.07(9)
O2 C5 C4 121.58(9)
C6 C5 C4 119.35(9)
C5 C6 C1 120.85(9)
C5 C6 H6 119.6
C1 C6 H6 119.6
O1 C7 C1 119.89(9)
O1 C7 C8 120.53(9)
C1 C7 C8 119.57(9)
C7 C8 H8A 109.5
C7 C8 H8B 109.5
H8A C8 H8B 109.5
C7 C8 H8C 109.5
H8A C8 H8C 109.5
H8B C8 H8C 109.5
O3 C9 C10 104.79(8)
O3 C9 H9A 110.8
C10 C9 H9A 110.8
O3 C9 H9B 110.8
C10 C9 H9B 110.8
H9A C9 H9B 108.9
C9 C10 C11 115.00(8)
C9 C10 H10A 108.5
C11 C10 H10A 108.5
C9 C10 H10B 108.5
C11 C10 H10B 108.5
H10A C10 H10B 107.5
C10 C11 C12 110.35(8)
C10 C11 H11A 109.6
C12 C11 H11A 109.6
C10 C11 H11B 109.6
C12 C11 H11B 109.6
H11A C11 H11B 108.1
C13 C12 C11 115.10(9)
C13 C12 H12A 108.5
C11 C12 H12A 108.5
C13 C12 H12B 108.5
C11 C12 H12B 108.5
H12A C12 H12B 107.5
C12 C13 C14 112.55(9)
C12 C13 H13A 109.1
C14 C13 H13A 109.1
C12 C13 H13B 109.1
C14 C13 H13B 109.1
H13A C13 H13B 107.8
C13 C14 H14A 109.5
C13 C14 H14B 109.5
H14A C14 H14B 109.5
C13 C14 H14C 109.5
H14A C14 H14C 109.5
H14B C14 H14C 109.5
loop_
_geom_bond_atom_site_label_1
_geom_bond_atom_site_label_2
_geom_bond_distance
O1 C7 1.2247(13)
O2 C5 1.3589(12)
O2 H2' 0.836(9)
O3 C4 1.3543(12)
O3 C9 1.4429(11)
C1 C2 1.3939(14)
C1 C6 1.3994(14)
C1 C7 1.4871(13)
C2 C3 1.3868(14)
C2 H2 0.9300
C3 C4 1.3877(14)
C3 H3 0.9300
C4 C5 1.4109(14)
C5 C6 1.3814(13)
C6 H6 0.9300
C7 C8 1.5058(14)
C8 H8A 0.9600
C8 H8B 0.9600
C8 H8C 0.9600
C9 C10 1.5092(14)
C9 H9A 0.9700
C9 H9B 0.9700
C10 C11 1.5219(13)
C10 H10A 0.9700
C10 H10B 0.9700
C11 C12 1.5292(14)
C11 H11A 0.9700
C11 H11B 0.9700
C12 C13 1.5202(13)
C12 H12A 0.9700
C12 H12B 0.9700
C13 C14 1.5227(15)
C13 H13A 0.9700
C13 H13B 0.9700
C14 H14A 0.9600
C14 H14B 0.9600
C14 H14C 0.9600
loop_
_geom_hbond_atom_site_label_D
_geom_hbond_atom_site_label_H
_geom_hbond_atom_site_label_A
_geom_hbond_site_symmetry_A
_geom_hbond_distance_DH
_geom_hbond_distance_HA
_geom_hbond_distance_DA
_geom_hbond_angle_DHA
_geom_hbond_publ_flag
O2 H2' O3 . 0.836(9) 2.276(16) 2.6758(10) 109.6(14) n
O2 H2' O1 1_565 0.836(9) 1.963(11) 2.7634(10) 160.0(17) n
loop_
_geom_torsion_atom_site_label_1
_geom_torsion_atom_site_label_2
_geom_torsion_atom_site_label_3
_geom_torsion_atom_site_label_4
_geom_torsion
C6 C1 C2 C3 0.25(15)
C7 C1 C2 C3 179.74(9)
C1 C2 C3 C4 -0.82(16)
C9 O3 C4 C3 -0.85(15)
C9 O3 C4 C5 179.52(8)
C2 C3 C4 O3 -179.50(9)
C2 C3 C4 C5 0.10(16)
O3 C4 C5 O2 1.30(14)
C3 C4 C5 O2 -178.35(9)
O3 C4 C5 C6 -179.17(8)
C3 C4 C5 C6 1.19(15)
O2 C5 C6 C1 177.78(9)
C4 C5 C6 C1 -1.77(15)
C2 C1 C6 C5 1.06(15)
C7 C1 C6 C5 -178.42(9)
C2 C1 C7 O1 -2.66(15)
C6 C1 C7 O1 176.81(10)
C2 C1 C7 C8 178.05(9)
C6 C1 C7 C8 -2.48(15)
C4 O3 C9 C10 -177.13(8)
O3 C9 C10 C11 -177.50(8)
C9 C10 C11 C12 179.39(8)
C10 C11 C12 C13 -178.34(8)
C11 C12 C13 C14 178.39(9)
