#------------------------------------------------------------------------------
#$Date: 2019-12-26 20:40:52 +0200 (Thu, 26 Dec 2019) $
#$Revision: 246067 $
#$URL: file:///home/coder/svn-repositories/cod/cif/2/31/16/2311637.cif $
#------------------------------------------------------------------------------
#
# This file is available in the Crystallography Open Database (COD),
# http://www.crystallography.net/. The original data for this entry
# were provided by IUCr Journals, http://journals.iucr.org/.
#
# The file may be used within the scientific community so long as
# proper attribution is given to the journal article from which the
# data were obtained.
#
data_2311637
loop_
_publ_author_name
'Tawfiq, Kinaan M.'
'Miller, Gary J.'
'Al-Jeboori, Mohamad J'
'Fennell, Paul S.'
'Coles, Simon J.'
'Tizzard, Graham J.'
'Wilson, Claire'
'Potgieter, Herman'
_publ_section_title
;
 Comparison of the structural motifs and packing arrangements of six novel
 derivatives and one polymorph of
 2-(1-phenyl-1H-1,2,3-triazol-4-yl)pyridine.
;
_journal_issue                   'Pt 2'
_journal_name_full
'Acta crystallographica Section B, Structural science, crystal engineering and materials'
_journal_page_first              379
_journal_page_last               389
_journal_paper_doi               10.1107/S2052520614001152
_journal_volume                  70
_journal_year                    2014
_chemical_formula_moiety         'C14 H12 N4'
_chemical_formula_sum            'C14 H12 N4'
_chemical_formula_weight         236.28
_chemical_name_common
;
'2-(1-(p-tolyl)-1H-1,2,3-triazol-4-yl)pyridine'
;
_space_group_IT_number           4
_space_group_name_Hall           'P 2yb'
_space_group_name_H-M_alt        'P 1 21 1'
_symmetry_cell_setting           monoclinic
_symmetry_space_group_name_Hall  'P 2yb'
_symmetry_space_group_name_H-M   'P 1 21 1'
_atom_sites_solution_hydrogens   geom
_atom_sites_solution_primary     direct
_atom_sites_solution_secondary   difmap
_audit_creation_method           SHELXL-97
_cell_angle_alpha                90.00
_cell_angle_beta                 92.359(4)
_cell_angle_gamma                90.00
_cell_formula_units_Z            2
_cell_length_a                   5.7797(5)
_cell_length_b                   6.7414(4)
_cell_length_c                   15.0259(12)
_cell_measurement_reflns_used    17303
_cell_measurement_temperature    120(2)
_cell_measurement_theta_max      27.48
_cell_measurement_theta_min      2.91
_cell_volume                     584.96(8)
_computing_cell_refinement
'DENZO (Otwinowski & Minor, 1997) & COLLECT (Hooft, R.W.W., 1998)'
_computing_data_collection       'COLLECT (Hooft, R.W.W., 1998)'
_computing_data_reduction
'DENZO (Otwinowski & Minor, 1997) & COLLECT (Hooft, R.W.W., 1998)'
_computing_molecular_graphics
'OLEX2 (Dolomanov, Bourhis, Gildea, Howard & Puschmann, 2009)'
_computing_publication_material  'WINGX (Farrugia, 1998)'
_computing_structure_refinement  'SHELXL-97 (Sheldrick, 1997)'
_computing_structure_solution    'SUPERFLIP (Palatinus & Chapuis, 2007)'
_diffrn_ambient_temperature      120(2)
_diffrn_detector_area_resol_mean 9.091
_diffrn_measured_fraction_theta_full 0.998
_diffrn_measured_fraction_theta_max 0.998
_diffrn_measurement_device_type  'Bruker-Nonius CCD camera on \k-goniostat'
_diffrn_measurement_method       '\f & \w scans to fill the asymmetric unit'
_diffrn_radiation_monochromator  graphite
_diffrn_radiation_source         'Bruker Nonius FR591 Rotating Anode'
_diffrn_radiation_type           MoK\a
_diffrn_radiation_wavelength     0.71073
_diffrn_reflns_av_R_equivalents  0.0555
_diffrn_reflns_av_sigmaI/netI    0.0615
_diffrn_reflns_limit_h_max       7
_diffrn_reflns_limit_h_min       -7
_diffrn_reflns_limit_k_max       8
_diffrn_reflns_limit_k_min       -8
_diffrn_reflns_limit_l_max       19
_diffrn_reflns_limit_l_min       -19
_diffrn_reflns_number            9647
_diffrn_reflns_theta_full        27.48
_diffrn_reflns_theta_max         27.48
_diffrn_reflns_theta_min         3.31
_diffrn_standards_number         0
_exptl_absorpt_coefficient_mu    0.084
_exptl_absorpt_correction_T_max  0.9916
_exptl_absorpt_correction_T_min  0.9686
_exptl_absorpt_correction_type   multi-scan
_exptl_absorpt_process_details   'SADABS 2007/2 (Sheldrick, G.M., 2007)'
_exptl_crystal_colour            colourless
_exptl_crystal_density_diffrn    1.341
_exptl_crystal_density_method    'not measured'
_exptl_crystal_description       block
_exptl_crystal_F_000             248
_exptl_crystal_size_max          0.38
_exptl_crystal_size_mid          0.12
_exptl_crystal_size_min          0.10
_refine_diff_density_max         0.171
_refine_diff_density_min         -0.178
_refine_ls_extinction_coef       0.047(8)
_refine_ls_extinction_expression Fc^*^=kFc[1+0.001xFc^2^\l^3^/sin(2\q)]^-1/4^
_refine_ls_extinction_method     SHELXL
_refine_ls_goodness_of_fit_ref   1.038
_refine_ls_hydrogen_treatment    constr
_refine_ls_matrix_type           full
_refine_ls_number_parameters     165
_refine_ls_number_reflns         2622
_refine_ls_number_restraints     1
_refine_ls_restrained_S_all      1.038
_refine_ls_R_factor_all          0.0716
_refine_ls_R_factor_gt           0.0482
_refine_ls_shift/su_max          0.000
_refine_ls_shift/su_mean         0.000
_refine_ls_structure_factor_coef Fsqd
_refine_ls_weighting_details
'calc w=1/[\s^2^(Fo^2^)+(0.0694P)^2^+0.0000P] where P=(Fo^2^+2Fc^2^)/3'
_refine_ls_weighting_scheme      calc
_refine_ls_wR_factor_gt          0.1130
_refine_ls_wR_factor_ref         0.1244
_reflns_number_gt                2042
_reflns_number_total             2622
_reflns_threshold_expression     >2\s(I)
_cod_data_source_file            eb5029sup1.cif
_cod_data_source_block           L5
_cod_original_sg_symbol_H-M      'P 21'
_cod_database_code               2311637
_shelx_res_file
;
TITL 2011src0200a
CELL  0.71073   5.7797   6.7414  15.0259   90.000   92.359   90.000
ZERR     2.00   0.0005   0.0004   0.0012    0.000    0.004    0.000
LATT  -1
SYMM  - X, 1/2 + Y, - Z
SFAC  C    H    N
UNIT  28   24   8
MERG   2
OMIT    -3.00  55.00
SHEL    7 0.77
FMAP   2
PLAN    5
SIZE     0.10   0.12   0.38
ACTA
BOND   $H
L.S.  20
TEMP  -153.00
WGHT    0.069400
EXTI    0.046967
FVAR       0.44094
C1    1    0.715206    0.735825    0.185892    11.00000    0.02546    0.02585 =
         0.02763    0.00254    0.00294   -0.00226
C2    1    0.930919    0.656485    0.207248    11.00000    0.02475    0.02917 =
         0.03417   -0.00411   -0.00196    0.00004
AFIX  43
H2    2    1.034029    0.721785    0.248487    11.00000   -1.20000
AFIX   0
C3    1    0.994699    0.479532    0.167419    11.00000    0.02667    0.03258 =
         0.03278    0.00293    0.00113   -0.00019
AFIX  43
H3    2    1.142406    0.424299    0.182435    11.00000   -1.20000
AFIX   0
C4    1    0.849089    0.381477    0.106485    11.00000    0.03104    0.02812 =
         0.02665    0.00253    0.00466   -0.00180
C5    1    0.632381    0.465630    0.085936    11.00000    0.03127    0.03779 =
         0.02990   -0.00705   -0.00171   -0.00376
AFIX  43
H5    2    0.529013    0.400978    0.044579    11.00000   -1.20000
AFIX   0
C6    1    0.565794    0.642128    0.124983    11.00000    0.02662    0.03829 =
         0.03087    0.00008   -0.00223    0.00008
AFIX  43
H6    2    0.418562    0.698317    0.110005    11.00000   -1.20000
AFIX   0
C7    1    0.924874    0.192054    0.062618    11.00000    0.04052    0.03451 =
         0.03283   -0.00346    0.00086    0.00123
AFIX 137
H7A   2    0.986338    0.222774    0.004382    11.00000   -1.50000
H7B   2    0.791990    0.102559    0.054740    11.00000   -1.50000
H7C   2    1.045473    0.127909    0.100267    11.00000   -1.50000
AFIX   0
C8    1    0.762170    1.047631    0.278415    11.00000    0.02436    0.02921 =
         0.02739    0.00263   -0.00057   -0.00077
AFIX  43
H8    2    0.924168    1.049096    0.291960    11.00000   -1.20000
AFIX   0
C9    1    0.601056    1.181021    0.305002    11.00000    0.02610    0.02749 =
         0.02949    0.00253    0.00210    0.00026
C10   1    0.629499    1.362286    0.358570    11.00000    0.02879    0.02952 =
         0.02686    0.00264    0.00801   -0.00017
C11   1    0.451427    1.501034    0.361576    11.00000    0.03376    0.03516 =
         0.03090    0.00451    0.00589    0.00521
AFIX  43
H11   2    0.308548    1.478926    0.329588    11.00000   -1.20000
AFIX   0
C12   1    0.485360    1.671966    0.411887    11.00000    0.04552    0.03375 =
         0.04039   -0.00051    0.01518    0.00390
AFIX  43
H12   2    0.367665    1.769937    0.414411    11.00000   -1.20000
AFIX   0
C13   1    0.695046    1.695777    0.458217    11.00000    0.04437    0.04032 =
         0.04273   -0.00876    0.01174   -0.00459
AFIX  43
H13   2    0.724136    1.810692    0.493523    11.00000   -1.20000
AFIX   0
C14   1    0.861142    1.550515    0.452451    11.00000    0.04152    0.04387 =
         0.03846   -0.01018    0.00637   -0.00347
AFIX  43
H14   2    1.003715    1.569019    0.485138    11.00000   -1.20000
AFIX   0
N1    3    0.641467    0.913389    0.228768    11.00000    0.02113    0.02807 =
         0.03117    0.00017    0.00008    0.00070
N2    3    0.411152    0.960930    0.224842    11.00000    0.02280    0.03670 =
         0.04498   -0.00395   -0.00171    0.00427
N3    3    0.388127    1.123986    0.271195    11.00000    0.02737    0.03616 =
         0.04321   -0.00528   -0.00064    0.00247
N4    3    0.835329    1.385257    0.403978    11.00000    0.03342    0.03655 =
         0.03373   -0.00342    0.00324   -0.00109
HKLF    4
REM  2011src0200a
REM R1 =  0.0482 for   2042 Fo > 4sig(Fo)  and  0.0716 for all   2622 data
REM    165 parameters refined using      1 restraints
END
WGHT      0.0685      0.0000
REM Highest difference peak  0.171,  deepest hole -0.178,  1-sigma level  0.047
Q1    1   1.1131  0.3465  0.0423  11.00000  0.05    0.17
Q2    1   0.5878  0.1855 -0.0039  11.00000  0.05    0.16
Q3    1   1.0218  0.8384  0.2649  11.00000  0.05    0.16
Q4    1   0.6390  1.2227  0.3167  11.00000  0.05    0.15
Q5    1   1.1554  0.1602  0.0811  11.00000  0.05    0.15
;
loop_
_symmetry_equiv_pos_as_xyz
'x, y, z'
'-x, y+1/2, -z'
loop_
_atom_site_type_symbol
_atom_site_label
_atom_site_fract_x
_atom_site_fract_y
_atom_site_fract_z
_atom_site_U_iso_or_equiv
_atom_site_adp_type
_atom_site_calc_flag
_atom_site_refinement_flags
_atom_site_occupancy
_atom_site_symmetry_multiplicity
C C1 0.7152(4) 0.7358(3) 0.18589(13) 0.0263(5) Uani d . 1 1
C C2 0.9309(4) 0.6565(3) 0.20725(14) 0.0295(5) Uani d . 1 1
H H2 1.0340 0.7218 0.2485 0.035 Uiso calc R 1 1
C C3 0.9947(4) 0.4795(3) 0.16742(14) 0.0307(5) Uani d . 1 1
H H3 1.1424 0.4243 0.1824 0.037 Uiso calc R 1 1
C C4 0.8491(4) 0.3815(3) 0.10649(13) 0.0285(5) Uani d . 1 1
C C5 0.6324(4) 0.4656(3) 0.08594(14) 0.0331(5) Uani d . 1 1
H H5 0.5290 0.4010 0.0446 0.040 Uiso calc R 1 1
C C6 0.5658(4) 0.6421(3) 0.12498(14) 0.0320(5) Uani d . 1 1
H H6 0.4186 0.6983 0.1100 0.038 Uiso calc R 1 1
C C7 0.9249(4) 0.1921(3) 0.06262(14) 0.0360(6) Uani d . 1 1
H H7A 0.9863 0.2228 0.0044 0.054 Uiso calc R 1 1
H H7B 0.7920 0.1026 0.0547 0.054 Uiso calc R 1 1
H H7C 1.0455 0.1279 0.1003 0.054 Uiso calc R 1 1
C C8 0.7622(4) 1.0476(3) 0.27842(13) 0.0270(5) Uani d . 1 1
H H8 0.9242 1.0491 0.2920 0.032 Uiso calc R 1 1
C C9 0.6011(4) 1.1810(3) 0.30500(13) 0.0277(5) Uani d . 1 1
C C10 0.6295(4) 1.3623(3) 0.35857(14) 0.0282(5) Uani d . 1 1
C C11 0.4514(4) 1.5010(3) 0.36158(15) 0.0331(5) Uani d . 1 1
H H11 0.3085 1.4789 0.3296 0.040 Uiso calc R 1 1
C C12 0.4854(4) 1.6720(4) 0.41189(15) 0.0395(6) Uani d . 1 1
H H12 0.3677 1.7699 0.4144 0.047 Uiso calc R 1 1
C C13 0.6950(4) 1.6958(4) 0.45822(15) 0.0422(6) Uani d . 1 1
H H13 0.7241 1.8107 0.4935 0.051 Uiso calc R 1 1
C C14 0.8611(4) 1.5505(4) 0.45245(15) 0.0412(6) Uani d . 1 1
H H14 1.0037 1.5690 0.4851 0.049 Uiso calc R 1 1
N N1 0.6415(3) 0.9134(3) 0.22877(11) 0.0268(4) Uani d . 1 1
N N2 0.4112(3) 0.9609(3) 0.22484(13) 0.0349(5) Uani d . 1 1
N N3 0.3881(3) 1.1240(3) 0.27119(12) 0.0356(5) Uani d . 1 1
N N4 0.8353(3) 1.3853(3) 0.40398(11) 0.0345(5) Uani d . 1 1
loop_
_atom_site_aniso_label
_atom_site_aniso_U_11
_atom_site_aniso_U_22
_atom_site_aniso_U_33
_atom_site_aniso_U_12
_atom_site_aniso_U_13
_atom_site_aniso_U_23
C1 0.0255(11) 0.0259(11) 0.0276(10) -0.0023(9) 0.0029(9) 0.0025(9)
C2 0.0248(11) 0.0292(12) 0.0342(11) 0.0000(9) -0.0020(9) -0.0041(9)
C3 0.0267(11) 0.0326(12) 0.0328(11) -0.0002(10) 0.0011(9) 0.0029(9)
C4 0.0310(12) 0.0281(12) 0.0266(10) -0.0018(10) 0.0047(9) 0.0025(9)
C5 0.0313(12) 0.0378(13) 0.0299(12) -0.0038(10) -0.0017(9) -0.0070(9)
C6 0.0266(11) 0.0383(13) 0.0309(11) 0.0001(10) -0.0022(9) 0.0001(10)
C7 0.0405(14) 0.0345(13) 0.0328(12) 0.0012(11) 0.0009(10) -0.0035(9)
C8 0.0244(11) 0.0292(12) 0.0274(11) -0.0008(9) -0.0006(8) 0.0026(9)
C9 0.0261(11) 0.0275(11) 0.0295(11) 0.0003(9) 0.0021(8) 0.0025(9)
C10 0.0288(11) 0.0295(12) 0.0269(10) -0.0002(9) 0.0080(8) 0.0026(9)
C11 0.0338(12) 0.0352(14) 0.0309(11) 0.0052(11) 0.0059(9) 0.0045(10)
C12 0.0455(15) 0.0337(13) 0.0404(13) 0.0039(11) 0.0152(11) -0.0005(10)
C13 0.0444(15) 0.0403(14) 0.0427(14) -0.0046(12) 0.0117(12) -0.0088(11)
C14 0.0415(14) 0.0439(15) 0.0385(13) -0.0035(12) 0.0064(10) -0.0102(11)
N1 0.0211(9) 0.0281(10) 0.0312(9) 0.0007(7) 0.0001(7) 0.0002(8)
N2 0.0228(10) 0.0367(11) 0.0450(11) 0.0043(8) -0.0017(8) -0.0039(8)
N3 0.0274(10) 0.0362(11) 0.0432(11) 0.0025(8) -0.0006(8) -0.0053(9)
N4 0.0334(11) 0.0366(11) 0.0337(10) -0.0011(9) 0.0032(8) -0.0034(8)
loop_
_atom_type_symbol
_atom_type_description
_atom_type_scat_dispersion_real
_atom_type_scat_dispersion_imag
_atom_type_scat_source
C C 0.0033 0.0016 'International Tables Vol C Tables 4.2.6.8 and 6.1.1.4'
H H 0.0000 0.0000 'International Tables Vol C Tables 4.2.6.8 and 6.1.1.4'
N N 0.0061 0.0033 'International Tables Vol C Tables 4.2.6.8 and 6.1.1.4'
loop_
_geom_angle_atom_site_label_1
_geom_angle_atom_site_label_2
_geom_angle_atom_site_label_3
_geom_angle
C2 C1 C6 120.6(2)
C2 C1 N1 120.08(19)
C6 C1 N1 119.30(19)
C1 C2 C3 119.0(2)
C1 C2 H2 120.5
C3 C2 H2 120.5
C4 C3 C2 121.9(2)
C4 C3 H3 119.0
C2 C3 H3 119.0
C3 C4 C5 117.82(19)
C3 C4 C7 120.8(2)
C5 C4 C7 121.3(2)
C6 C5 C4 121.1(2)
C6 C5 H5 119.5
C4 C5 H5 119.5
C1 C6 C5 119.6(2)
C1 C6 H6 120.2
C5 C6 H6 120.2
C4 C7 H7A 109.5
C4 C7 H7B 109.5
H7A C7 H7B 109.5
C4 C7 H7C 109.5
H7A C7 H7C 109.5
H7B C7 H7C 109.5
N1 C8 C9 105.08(18)
N1 C8 H8 127.5
C9 C8 H8 127.5
C8 C9 N3 108.68(19)
C8 C9 C10 130.2(2)
N3 C9 C10 121.09(19)
N4 C10 C11 122.8(2)
N4 C10 C9 116.55(18)
C11 C10 C9 120.7(2)
C12 C11 C10 119.2(2)
C12 C11 H11 120.4
C10 C11 H11 120.4
C13 C12 C11 118.2(2)
C13 C12 H12 120.9
C11 C12 H12 120.9
C14 C13 C12 119.0(2)
C14 C13 H13 120.5
C12 C13 H13 120.5
N4 C14 C13 124.4(2)
N4 C14 H14 117.8
C13 C14 H14 117.8
C8 N1 N2 110.29(17)
C8 N1 C1 130.74(18)
N2 N1 C1 118.90(17)
N3 N2 N1 107.06(17)
N2 N3 C9 108.89(17)
C14 N4 C10 116.5(2)
loop_
_geom_bond_atom_site_label_1
_geom_bond_atom_site_label_2
_geom_bond_distance
C1 C2 1.382(3)
C1 C6 1.385(3)
C1 N1 1.433(3)
C2 C3 1.391(3)
C2 H2 0.9500
C3 C4 1.386(3)
C3 H3 0.9500
C4 C5 1.398(3)
C4 C7 1.510(3)
C5 C6 1.388(3)
C5 H5 0.9500
C6 H6 0.9500
C7 H7A 0.9800
C7 H7B 0.9800
C7 H7C 0.9800
C8 N1 1.349(3)
C8 C9 1.366(3)
C8 H8 0.9500
C9 N3 1.367(3)
C9 C10 1.469(3)
C10 N4 1.356(3)
C10 C11 1.393(3)
C11 C12 1.388(3)
C11 H11 0.9500
C12 C13 1.382(4)
C12 H12 0.9500
C13 C14 1.377(3)
C13 H13 0.9500
C14 N4 1.336(3)
C14 H14 0.9500
N1 N2 1.368(2)
N2 N3 1.311(3)
loop_
_refln_index_h
_refln_index_k
_refln_index_l
_refln_F_squared_meas
1 0 0 180.22
-1 0 0 177.54
-2 0 0 40.44
2 0 0 35.77
3 0 0 18.69
-3 0 0 20.56
-3 0 0 19.62
-4 0 0 51.03
4 0 0 50.56
-4 0 0 49.39
-5 0 0 13.98
5 0 0 13.10
-5 0 0 13.95
-6 0 0 -0.27
-6 0 0 0.46
6 0 0 0.95
6 0 0 0.23
-6 0 0 -0.40
-7 0 0 0.66
7 0 0 0.51
7 0 0 0.99
-7 0 0 0.48
0 -1 0 -0.26
0 1 0 0.18
-1 -1 0 89.78
1 -1 0 93.99
1 1 0 98.48
1 1 0 84.12
-1 1 0 93.09
-2 -1 0 28.32
2 -1 0 32.05
2 1 0 31.56
-2 1 0 29.98
-2 1 0 31.21
3 -1 0 67.28
-3 -1 0 65.69
-3 -1 0 66.23
3 1 0 68.09
-3 1 0 68.70
-3 1 0 69.01
-4 -1 0 24.63
4 -1 0 22.58
-4 -1 0 18.85
-4 1 0 25.26
4 1 0 21.45
-4 1 0 22.90
-5 -1 0 14.73
-5 -1 0 13.73
5 -1 0 14.00
5 1 0 15.62
-5 1 0 13.54
-5 1 0 12.81
-6 -1 0 1.89
6 -1 0 2.82
-6 -1 0 2.40
6 -1 0 3.23
-6 1 0 1.73
6 1 0 3.79
-6 1 0 1.52
6 1 0 2.16
-6 1 0 2.21
-7 -1 0 1.02
7 -1 0 1.02
-7 -1 0 0.10
7 -1 0 -1.40
7 1 0 0.78
-7 1 0 0.83
7 1 0 -0.44
0 -2 0 78.50
0 -2 0 79.22
0 -2 0 87.84
0 -2 0 81.09
0 -2 0 82.79
0 2 0 82.61
0 2 0 77.40
-1 -2 0 3.32
-1 -2 0 3.34
1 -2 0 3.60
1 -2 0 2.81
1 2 0 3.38
1 2 0 3.51
-2 -2 0 50.79
2 -2 0 48.15
2 2 0 50.22
2 2 0 47.70
-2 2 0 49.98
-3 -2 0 2.06
3 -2 0 2.16
-3 -2 0 2.99
-3 2 0 2.03
3 2 0 1.68
3 2 0 1.73
-3 2 0 2.15
4 -2 0 19.36
-4 -2 0 17.54
-4 -2 0 17.50
-4 2 0 18.31
4 2 0 17.60
-4 2 0 15.45
-5 -2 0 18.90
5 -2 0 23.19
-5 -2 0 20.31
-5 2 0 20.79
-5 2 0 21.77
5 2 0 20.73
5 2 0 21.11
-6 -2 0 17.73
6 -2 0 19.72
-6 -2 0 14.69
6 -2 0 19.11
-6 2 0 17.45
6 2 0 17.97
6 2 0 16.28
6 2 0 19.49
-6 2 0 20.08
-6 2 0 18.40
7 -2 0 -0.21
-7 -2 0 0.34
7 -2 0 2.79
7 2 0 0.56
-7 2 0 0.03
0 -3 0 0.07
0 -3 0 -0.10
0 -3 0 0.04
0 -3 0 0.06
0 -3 0 -0.01
0 3 0 0.33
-1 -3 0 57.16
1 -3 0 54.49
1 -3 0 61.62
1 -3 0 70.17
-1 -3 0 57.73
-1 -3 0 58.98
-1 -3 0 62.62
1 3 0 59.34
-1 3 0 71.06
1 3 0 60.73
-2 -3 0 2.51
2 -3 0 2.22
-2 -3 0 2.16
2 3 0 2.14
-2 3 0 2.87
2 3 0 2.87
-3 -3 0 26.31
-3 -3 0 27.44
3 -3 0 28.04
-3 3 0 31.67
3 3 0 25.57
-4 -3 0 0.87
4 -3 0 0.99
-4 -3 0 0.95
-4 3 0 0.69
4 3 0 0.29
4 3 0 0.74
-5 -3 0 0.32
-5 -3 0 1.26
5 -3 0 0.76
5 3 0 0.61
-5 3 0 0.85
5 3 0 0.63
5 3 0 0.82
-5 3 0 1.05
6 -3 0 0.33
6 -3 0 2.95
-6 -3 0 2.39
-6 3 0 1.93
6 3 0 1.84
-6 3 0 2.61
6 3 0 2.28
7 -3 0 1.23
-7 -3 0 1.12
-7 3 0 1.24
7 3 0 0.33
0 -4 0 197.97
0 -4 0 183.54
0 -4 0 181.43
0 4 0 178.43
-1 -4 0 24.33
-1 -4 0 24.56
-1 -4 0 26.79
1 -4 0 24.28
1 -4 0 19.94
1 -4 0 24.22
-1 -4 0 21.96
1 4 0 21.95
1 4 0 22.62
-2 -4 0 19.90
-2 -4 0 25.03
2 -4 0 19.77
2 -4 0 17.46
-2 -4 0 19.51
2 -4 0 20.10
2 4 0 17.29
-2 4 0 17.95
-2 4 0 21.05
2 4 0 19.26
3 -4 0 17.78
-3 -4 0 17.80
-3 -4 0 19.34
-3 -4 0 16.13
3 4 0 20.53
-3 4 0 19.16
3 4 0 17.37
-3 4 0 20.37
-4 -4 0 25.33
4 -4 0 28.80
-4 -4 0 30.70
-4 -4 0 27.17
-4 4 0 29.05
4 4 0 27.14
-4 4 0 27.08
5 -4 0 2.49
-5 -4 0 2.20
5 -4 0 0.95
-5 -4 0 0.64
5 4 0 1.30
-5 4 0 1.95
-5 4 0 1.67
-6 -4 0 1.26
6 -4 0 -0.60
-6 4 0 -0.76
6 4 0 0.89
0 -5 0 -0.26
0 -5 0 -0.25
0 -5 0 -0.04
0 5 0 -0.44
1 -5 0 1.38
1 -5 0 2.71
-1 -5 0 2.52
-1 -5 0 1.82
1 -5 0 2.72
-1 -5 0 2.75
-1 -5 0 2.48
1 5 0 2.02
1 5 0 2.32
-2 -5 0 8.07
2 -5 0 6.98
2 -5 0 8.27
-2 -5 0 7.66
2 -5 0 9.00
-2 -5 0 8.09
-2 -5 0 9.33
2 5 0 8.57
2 5 0 9.26
3 -5 0 11.76
-3 -5 0 11.59
3 -5 0 10.80
3 -5 0 10.72
-3 -5 0 10.95
-3 -5 0 11.29
-3 5 0 11.15
3 5 0 12.88
3 5 0 12.12
-3 5 0 11.17
4 -5 0 8.64
4 -5 0 8.58
-4 -5 0 8.76
-4 -5 0 10.55
-4 5 0 8.09
-4 5 0 10.96
4 5 0 12.33
4 5 0 9.76
5 -5 0 7.98
-5 -5 0 7.07
5 5 0 8.88
-5 5 0 8.75
5 5 0 8.61
-6 -5 0 2.68
6 -5 0 3.83
-6 5 0 2.77
6 5 0 0.64
6 5 0 2.19
0 -6 0 18.86
0 -6 0 19.48
0 -6 0 18.71
-1 -6 0 6.26
-1 -6 0 8.89
-1 -6 0 8.94
1 -6 0 9.11
1 -6 0 9.42
1 -6 0 9.18
-1 -6 0 7.00
1 6 0 10.65
-2 -6 0 43.97
-2 -6 0 39.71
2 -6 0 42.32
2 -6 0 41.06
-2 -6 0 37.65
-2 -6 0 40.42
2 -6 0 35.76
2 6 0 41.30
2 6 0 41.34
3 -6 0 5.56
-3 -6 0 4.66
-3 -6 0 3.32
-3 -6 0 4.89
3 6 0 5.18
3 6 0 5.20
-4 -6 0 0.43
4 -6 0 0.76
-4 6 0 0.87
4 6 0 0.72
4 6 0 -0.79
5 -6 0 3.42
5 6 0 1.67
5 6 0 2.84
-5 6 0 2.63
0 -7 0 0.64
0 -7 0 0.30
1 -7 0 4.50
-1 -7 0 4.97
1 -7 0 6.42
-1 -7 0 4.28
1 7 0 5.89
-2 -7 0 18.92
2 -7 0 19.94
-2 -7 0 19.31
2 7 0 20.43
2 7 0 22.51
3 -7 0 7.59
3 7 0 5.77
3 7 0 4.93
4 -7 0 -0.15
4 7 0 -0.76
4 7 0 0.22
0 -8 0 0.28
0 -8 0 0.91
1 -8 0 0.22
-1 -8 0 0.20
1 8 0 0.97
2 -8 0 0.71
2 8 0 1.48
3 -8 0 3.36
3 8 0 5.76
3 8 0 3.10
7 0 -1 -0.11
-7 0 1 0.28
-7 0 1 -0.66
7 0 -1 0.22
-6 0 1 5.85
-6 0 1 8.09
6 0 -1 7.65
-6 0 1 7.61
6 0 -1 6.36
-5 0 1 7.06
-5 0 1 5.42
5 0 -1 5.61
-5 0 1 5.86
5 0 -1 5.53
4 0 -1 16.34
-4 0 1 19.51
-3 0 1 25.12
3 0 -1 22.74
2 0 -1 0.59
-2 0 1 0.70
-1 0 1 120.10
-1 0 1 129.19
1 0 -1 129.49
1 0 -1 122.99
-1 0 -1 672.33
1 0 1 808.58
-1 0 -1 771.71
1 0 1 780.33
2 0 1 75.37
-2 0 -1 78.41
-2 0 -1 78.76
-3 0 -1 15.58
3 0 1 11.95
-3 0 -1 13.18
4 0 1 13.55
-4 0 -1 14.31
-4 0 -1 14.37
-5 0 -1 -0.22
-5 0 -1 -0.01
5 0 1 -0.73
-6 0 -1 0.96
6 0 1 0.21
-6 0 -1 -0.17
-7 0 -1 0.55
7 0 1 -0.09
7 0 1 -0.83
-7 0 -1 0.32
-7 -1 1 1.10
-7 -1 1 1.53
7 -1 -1 0.50
7 -1 -1 2.24
7 1 -1 1.70
7 1 -1 1.64
-7 1 1 1.64
-6 -1 1 8.04
-6 -1 1 6.60
6 -1 -1 6.48
6 -1 -1 7.84
6 1 -1 6.67
-6 1 1 7.37
6 1 -1 6.18
-6 1 1 9.69
-6 1 1 6.53
-5 -1 1 9.77
-5 -1 1 8.73
-5 -1 1 9.63
5 -1 -1 7.04
5 -1 -1 7.78
5 1 -1 6.25
-5 1 1 7.88
-5 1 1 9.42
-5 1 1 8.67
5 1 -1 8.12
-4 -1 1 1.12
4 -1 -1 0.99
-4 1 1 2.59
-4 1 1 1.68
4 1 -1 0.89
4 1 -1 0.96
-3 -1 1 7.91
3 -1 -1 7.05
-3 1 1 6.82
3 1 -1 5.63
2 -1 -1 8.15
-2 -1 1 8.60
-2 1 1 7.77
2 1 -1 7.04
2 1 -1 7.69
1 -1 -1 57.77
-1 -1 1 58.88
-1 -1 1 56.96
1 -1 -1 58.64
-1 1 1 58.48
1 1 -1 55.49
-1 1 1 57.46
-1 1 1 57.47
0 -1 1 13.80
0 1 1 14.94
0 1 1 15.28
0 1 -1 13.08
0 1 -1 15.65
0 1 1 14.34
0 1 1 15.68
1 -1 1 98.09
-1 -1 -1 94.05
-1 -1 -1 95.16
-1 -1 -1 94.37
1 -1 1 98.68
1 1 1 93.90
1 1 1 91.14
-1 1 -1 93.41
1 1 1 97.74
-1 1 -1 93.16
-2 -1 -1 173.81
2 -1 1 172.55
-2 -1 -1 173.26
2 1 1 171.66
-2 1 -1 168.16
-2 1 -1 173.09
-3 -1 -1 33.48
-3 -1 -1 31.83
3 -1 1 33.33
-3 1 -1 33.28
3 1 1 33.81
-3 1 -1 34.16
4 -1 1 44.47
-4 -1 -1 50.47
-4 -1 -1 49.34
-4 1 -1 51.01
4 1 1 45.41
-4 1 -1 46.47
5 -1 1 32.01
-5 -1 -1 35.30
-5 -1 -1 36.01
5 1 1 38.39
-5 1 -1 36.11
-5 1 -1 30.58
6 -1 1 7.17
-6 -1 -1 7.42
-6 1 -1 8.58
-6 1 -1 6.19
6 1 1 6.86
7 -1 1 0.61
7 -1 1 0.73
-7 -1 -1 1.92
-7 -1 -1 1.05
7 1 1 1.92
7 1 1 1.04
-7 1 -1 0.36
-7 -2 1 0.43
7 -2 -1 -0.01
7 -2 -1 -1.63
7 2 -1 1.08
-7 2 1 0.55
-6 -2 1 -0.16
6 -2 -1 0.52
-6 -2 1 0.39
6 -2 -1 -1.12
6 2 -1 0.23
-6 2 1 -0.79
-6 2 1 0.00
6 2 -1 0.59
-6 2 1 -0.24
-5 -2 1 33.85
5 -2 -1 31.06
-5 -2 1 32.34
5 -2 -1 32.22
-5 -2 1 28.69
5 2 -1 25.38
-5 2 1 29.95
5 2 -1 31.66
-5 2 1 31.37
-5 2 1 33.36
-4 -2 1 2.12
4 -2 -1 1.62
-4 -2 1 1.61
4 2 -1 1.67
-4 2 1 2.10
-4 2 1 1.36
-4 2 1 1.33
4 2 -1 1.53
-3 -2 1 61.29
3 -2 -1 55.15
-3 2 1 55.75
-3 2 1 62.13
3 2 -1 55.07
3 2 -1 55.98
-2 -2 1 34.77
-2 -2 1 40.81
2 -2 -1 38.03
2 2 -1 39.16
-2 2 1 38.58
-2 2 1 39.10
-2 2 1 43.96
-1 -2 1 42.20
1 -2 -1 47.72
-1 -2 1 47.38
1 -2 -1 47.08
-1 -2 1 47.68
1 -2 -1 46.50
-1 2 1 50.00
-1 2 1 41.28
1 2 -1 45.68
1 2 -1 46.01
0 -2 1 2.11
0 -2 -1 2.07
0 -2 1 1.25
0 -2 1 1.88
0 -2 -1 2.33
0 -2 -1 2.08
0 -2 -1 1.93
0 2 1 1.88
0 2 1 2.00
0 2 -1 1.39
0 2 1 2.40
-1 -2 -1 63.80
-1 -2 -1 68.95
1 -2 1 69.17
-1 -2 -1 62.78
-1 2 -1 67.03
1 2 1 61.41
1 2 1 61.22
2 -2 1 29.57
-2 -2 -1 31.84
-2 -2 -1 30.09
-2 2 -1 31.52
2 2 1 29.56
2 2 1 30.60
-3 -2 -1 0.21
3 -2 1 -0.40
-3 -2 -1 -0.21
3 2 1 0.04
-3 2 -1 0.01
3 2 1 -0.01
-3 2 -1 0.13
4 -2 1 0.66
-4 -2 -1 0.21
-4 -2 -1 0.73
4 2 1 1.80
-4 2 -1 0.38
4 2 1 0.61
-4 2 -1 0.65
-5 -2 -1 40.50
5 -2 1 44.81
-5 -2 -1 36.46
5 2 1 32.87
5 2 1 44.92
-5 2 -1 40.86
-5 2 -1 35.86
-6 -2 -1 15.13
6 -2 1 12.49
6 2 1 11.00
6 2 1 14.22
6 2 1 14.05
-6 2 -1 11.61
-6 2 -1 14.04
-7 -2 -1 1.12
7 -2 1 0.36
7 -2 1 -0.41
7 2 1 -1.44
-7 2 -1 0.49
-7 -3 1 -0.26
7 -3 -1 -0.38
7 3 -1 -0.91
-7 3 1 0.19
6 -3 -1 3.93
-6 -3 1 3.75
6 -3 -1 2.48
-6 -3 1 2.76
6 3 -1 7.59
6 3 -1 4.50
-6 3 1 3.76
-6 3 1 3.23
5 -3 -1 3.73
-5 -3 1 3.17
-5 -3 1 2.16
5 -3 -1 2.52
-5 3 1 1.55
-5 3 1 2.48
5 3 -1 2.45
5 3 -1 3.25
5 3 -1 1.69
-4 -3 1 2.98
-4 -3 1 4.54
4 -3 -1 3.79
4 -3 -1 4.22
-4 -3 1 4.20
-4 3 1 3.40
4 3 -1 1.80
-4 3 1 3.63
3 -3 -1 10.36
-3 -3 1 11.90
-3 -3 1 11.61
3 -3 -1 10.60
-3 3 1 9.35
3 3 -1 8.67
-3 3 1 11.70
2 -3 -1 16.81
-2 -3 1 16.79
-2 -3 1 16.22
2 -3 -1 18.54
-2 3 1 16.15
-2 3 1 17.08
2 3 -1 17.98
2 3 -1 15.93
-1 -3 1 19.51
-1 -3 1 18.38
1 -3 -1 19.22
1 -3 -1 19.10
1 -3 -1 19.31
-1 -3 1 18.44
1 3 -1 18.35
1 3 -1 20.48
0 -3 -1 43.71
0 -3 -1 38.66
0 -3 -1 39.55
0 -3 -1 41.10
0 -3 1 42.30
0 -3 1 41.57
0 -3 -1 38.60
0 -3 1 39.35
0 3 -1 42.28
0 3 1 34.76
0 3 1 40.34
-1 -3 -1 25.73
-1 -3 -1 27.93
1 -3 1 26.63
1 -3 1 25.35
-1 -3 -1 26.82
1 -3 1 25.12
-1 3 -1 26.37
1 3 1 21.15
1 3 1 23.92
-2 -3 -1 45.85
2 -3 1 44.92
-2 -3 -1 49.41
2 3 1 44.72
2 3 1 45.21
-2 3 -1 46.10
-3 -3 -1 5.33
-3 -3 -1 6.94
3 -3 1 6.21
-3 3 -1 6.86
3 3 1 6.67
3 3 1 5.84
4 -3 1 10.59
-4 -3 -1 11.08
-4 -3 -1 9.69
4 3 1 9.27
-4 3 -1 11.74
4 3 1 8.94
-5 -3 -1 3.50
5 -3 1 4.48
5 3 1 3.91
-5 3 -1 4.61
5 3 1 3.96
5 3 1 3.65
6 -3 1 2.60
-6 -3 -1 0.71
-6 -3 -1 -0.29
6 3 1 0.87
-6 3 -1 0.77
6 3 1 1.16
-6 3 -1 0.67
-7 -3 -1 2.20
7 -3 1 1.10
7 3 1 1.86
-7 3 -1 2.33
6 -4 -1 2.06
-6 -4 1 1.75
-6 4 1 2.56
6 4 -1 1.19
-5 -4 1 2.19
-5 -4 1 3.21
5 -4 -1 1.31
5 -4 -1 2.83
-5 4 1 2.51
5 4 -1 3.20
-5 4 1 1.35
-4 -4 1 23.03
-4 -4 1 20.85
4 -4 -1 19.54
-4 -4 1 18.42
4 -4 -1 23.72
4 4 -1 20.77
-4 4 1 20.28
-4 4 1 23.49
3 -4 -1 35.99
3 -4 -1 43.97
-3 -4 1 42.38
-3 -4 1 42.01
-3 -4 1 40.60
-3 4 1 37.84
3 4 -1 40.39
3 4 -1 41.70
-3 4 1 42.26
-2 -4 1 8.48
2 -4 -1 5.75
2 -4 -1 6.62
2 -4 -1 9.26
-2 -4 1 7.83
-2 -4 1 6.08
2 -4 -1 7.39
2 4 -1 6.48
2 4 -1 7.01
-2 4 1 6.63
-2 4 1 7.92
-1 -4 1 7.55
-1 -4 1 6.45
-1 -4 1 8.26
1 -4 -1 7.14
1 -4 -1 8.02
1 -4 -1 6.54
1 4 -1 8.11
1 4 -1 7.96
0 -4 1 19.09
0 -4 1 18.74
0 -4 1 20.42
0 -4 -1 20.18
0 -4 -1 18.31
0 -4 1 19.16
0 -4 1 16.08
0 -4 -1 20.43
0 4 -1 17.07
0 4 1 19.07
1 -4 1 30.20
-1 -4 -1 29.71
-1 -4 -1 29.28
-1 -4 -1 27.68
-1 -4 -1 27.38
1 -4 1 26.00
1 4 1 27.60
1 4 1 25.45
2 -4 1 0.69
-2 -4 -1 1.48
2 -4 1 0.97
2 -4 1 1.49
-2 -4 -1 1.58
2 4 1 1.82
2 4 1 1.00
-3 -4 -1 13.23
-3 -4 -1 12.87
3 -4 1 13.48
3 4 1 12.55
3 4 1 13.26
-3 4 -1 13.65
-4 -4 -1 2.56
-4 -4 -1 2.86
4 -4 1 5.12
4 4 1 4.69
-4 4 -1 3.50
5 -4 1 1.62
-5 -4 -1 1.92
-5 -4 -1 2.97
5 4 1 1.87
-5 4 -1 2.51
-5 4 -1 1.18
-6 -4 -1 0.07
6 -4 1 0.43
-6 4 -1 0.21
6 4 1 0.36
6 -5 -1 0.53
-6 -5 1 1.55
6 5 -1 1.43
6 5 -1 0.97
-6 5 1 1.07
-5 -5 1 3.32
5 -5 -1 1.62
5 5 -1 2.65
-5 5 1 1.41
5 5 -1 0.73
4 -5 -1 4.23
-4 -5 1 7.46
-4 -5 1 7.42
4 -5 -1 5.66
4 5 -1 4.95
4 5 -1 7.65
-4 5 1 3.99
-4 5 1 5.62
-3 -5 1 13.37
-3 -5 1 14.54
3 -5 -1 13.18
3 -5 -1 13.32
3 -5 -1 13.12
-3 -5 1 10.93
-3 5 1 12.24
3 5 -1 12.50
3 5 -1 14.47
-3 5 1 12.08
2 -5 -1 0.38
-2 -5 1 0.41
2 -5 -1 0.66
-2 -5 1 0.05
2 -5 -1 0.37
-2 -5 1 -0.21
2 5 -1 0.12
2 5 -1 0.23
-1 -5 1 30.08
1 -5 -1 27.00
-1 -5 1 28.59
1 -5 -1 27.89
-1 -5 1 27.32
1 -5 -1 29.71
-1 -5 1 29.18
1 5 -1 29.13
1 5 -1 32.59
0 -5 1 11.21
0 -5 -1 9.00
0 -5 -1 10.79
0 -5 -1 10.41
0 -5 1 9.22
0 -5 1 10.15
0 5 1 9.60
0 5 -1 10.08
-1 -5 -1 7.88
1 -5 1 9.78
1 -5 1 8.38
1 -5 1 8.55
-1 -5 -1 8.27
-1 -5 -1 7.63
-1 -5 -1 8.13
1 5 1 7.82
1 5 1 9.11
-2 -5 -1 12.13
-2 -5 -1 15.99
2 -5 1 12.06
-2 -5 -1 13.31
2 -5 1 13.64
-2 -5 -1 13.76
2 5 1 13.50
2 5 1 12.36
-3 -5 -1 17.58
-3 -5 -1 22.47
-3 -5 -1 20.53
3 -5 1 24.19
3 -5 1 20.87
-3 5 -1 20.97
3 5 1 20.77
3 5 1 20.21
-4 -5 -1 28.73
-4 -5 -1 26.03
4 -5 1 29.08
-4 5 -1 26.24
4 5 1 27.58
4 5 1 28.96
-4 5 -1 25.46
-5 -5 -1 0.12
5 -5 1 -0.33
5 5 1 0.29
5 5 1 0.45
-5 5 -1 0.20
-6 -5 -1 -0.95
6 -5 1 -0.37
6 5 1 0.75
-6 5 -1 0.37
5 -6 -1 -0.11
5 6 -1 -0.04
5 6 -1 0.71
-5 6 1 0.78
4 -6 -1 4.99
-4 -6 1 4.96
-4 6 1 3.62
4 6 -1 6.05
4 6 -1 5.14
3 -6 -1 3.19
-3 -6 1 3.81
-3 -6 1 4.25
-3 -6 1 4.36
3 6 -1 3.99
3 6 -1 1.78
2 -6 -1 1.44
-2 -6 1 2.18
-2 -6 1 1.80
-2 -6 1 1.59
-2 -6 1 2.23
2 -6 -1 2.58
2 -6 -1 2.05
2 6 -1 1.87
2 6 -1 3.39
-1 -6 1 23.04
1 -6 -1 25.39
-1 -6 1 21.46
-1 -6 1 25.00
-1 -6 1 25.54
1 -6 -1 26.62
1 -6 -1 26.44
1 6 -1 23.25
0 -6 -1 11.66
0 -6 1 13.87
0 -6 1 10.92
0 -6 -1 12.49
0 -6 1 12.56
0 -6 -1 11.20
0 6 1 15.79
-1 -6 -1 43.40
-1 -6 -1 31.67
1 -6 1 42.03
-1 -6 -1 42.63
1 -6 1 44.48
-1 -6 -1 47.09
1 -6 1 42.59
1 6 1 39.47
1 6 1 39.81
2 -6 1 2.70
-2 -6 -1 1.15
2 -6 1 2.44
-2 -6 -1 2.98
2 -6 1 2.08
-2 -6 -1 3.05
2 6 1 2.36
3 -6 1 3.70
-3 -6 -1 3.09
-3 -6 -1 2.54
3 6 1 4.50
3 6 1 4.08
4 -6 1 -0.26
-4 -6 -1 0.54
4 6 1 0.95
4 6 1 0.45
-4 6 -1 0.23
5 -6 1 2.28
-5 6 -1 2.61
5 6 1 5.18
5 6 1 1.20
4 -7 -1 1.87
4 7 -1 5.42
4 7 -1 2.94
3 -7 -1 7.66
3 7 -1 9.53
3 7 -1 7.36
-2 -7 1 4.49
2 -7 -1 3.94
-2 -7 1 3.25
2 7 -1 4.78
2 7 -1 3.95
-1 -7 1 2.26
-1 -7 1 1.67
-1 -7 1 1.26
-1 -7 1 0.72
1 -7 -1 2.04
1 7 -1 2.67
0 -7 1 11.29
0 -7 1 11.38
0 -7 -1 9.87
0 -7 -1 10.95
-1 -7 -1 1.84
-1 -7 -1 3.02
1 -7 1 2.86
1 -7 1 5.09
1 7 1 3.63
2 -7 1 0.90
-2 -7 -1 1.43
-2 -7 -1 0.26
2 7 1 1.59
2 7 1 2.64
3 -7 1 3.08
3 7 1 2.42
3 7 1 3.76
4 -7 1 0.63
4 7 1 0.96
4 7 1 0.19
3 8 -1 0.62
3 8 -1 0.06
2 -8 -1 1.86
2 8 -1 3.79
-1 -8 1 2.43
1 -8 -1 1.71
0 -8 -1 0.45
0 -8 1 0.95
0 -8 1 0.48
0 -8 -1 1.60
1 -8 1 1.07
-1 -8 -1 1.63
1 8 1 0.67
2 -8 1 0.88
2 8 1 1.09
3 -8 1 3.06
3 8 1 4.31
3 8 1 1.79
7 0 -2 -0.65
-7 0 2 0.56
7 0 -2 1.17
-7 0 2 0.49
6 0 -2 22.52
-6 0 2 23.44
-6 0 2 24.02
6 0 -2 24.64
-6 0 2 20.78
5 0 -2 62.94
-5 0 2 70.89
-5 0 2 64.48
5 0 -2 69.08
-4 0 2 0.26
4 0 -2 0.78
-4 0 2 1.30
4 0 -2 0.60
3 0 -2 140.89
-3 0 2 135.54
3 0 -2 152.49
-3 0 2 152.85
-2 0 2 1.75
-2 0 2 1.84
2 0 -2 2.43
2 0 -2 2.37
-1 0 2 66.41
-1 0 2 68.39
1 0 -2 65.86
1 0 -2 69.52
1 0 -2 70.03
-1 0 2 67.54
1 0 2 160.93
-1 0 -2 166.76
1 0 2 160.53
-1 0 -2 158.29
-2 0 -2 22.76
2 0 2 20.66
-2 0 -2 23.94
2 0 2 20.01
-3 0 -2 13.20
-3 0 -2 12.80
3 0 2 10.99
4 0 2 5.93
-4 0 -2 8.06
-4 0 -2 6.95
-5 0 -2 0.80
5 0 2 0.28
-5 0 -2 1.57
6 0 2 3.40
-6 0 -2 3.45
7 0 2 1.89
-7 -1 2 0.46
-7 -1 2 0.74
7 -1 -2 0.88
7 -1 -2 1.07
7 1 -2 -0.15
7 1 -2 -0.23
-7 1 2 1.43
6 -1 -2 6.03
-6 -1 2 4.72
6 -1 -2 5.41
-6 -1 2 4.88
-6 1 2 5.98
-6 1 2 5.02
6 1 -2 5.39
6 1 -2 6.83
-6 1 2 5.05
-5 -1 2 6.16
5 -1 -2 5.70
5 -1 -2 5.21
-5 -1 2 6.83
5 1 -2 5.10
-5 1 2 7.16
5 1 -2 6.88
-5 1 2 6.78
-5 1 2 5.65
-4 -1 2 14.60
4 -1 -2 17.75
-4 -1 2 15.71
4 -1 -2 17.54
4 1 -2 16.52
-4 1 2 15.79
4 1 -2 12.99
-4 1 2 18.38
3 -1 -2 0.00
-3 -1 2 0.45
-3 -1 2 0.19
3 -1 -2 0.40
3 1 -2 0.09
-3 1 2 0.63
3 1 -2 0.63
-3 1 2 0.14
-2 -1 2 26.98
-2 -1 2 29.90
2 -1 -2 27.21
2 -1 -2 27.89
2 1 -2 27.04
-2 1 2 28.58
2 1 -2 28.94
-2 1 2 27.12
-1 -1 2 210.12
-1 -1 2 216.65
-1 -1 2 223.20
1 -1 -2 212.30
1 -1 -2 226.62
1 -1 -2 206.33
-1 1 2 217.67
-1 1 2 216.05
1 1 -2 219.49
-1 1 2 215.92
1 1 -2 218.21
1 1 -2 218.79
-1 1 2 219.44
0 -1 -2 30.08
0 -1 2 27.30
0 -1 -2 29.60
0 -1 2 27.70
0 -1 -2 28.20
0 -1 -2 30.12
0 1 2 28.76
0 1 2 28.67
0 1 -2 28.56
0 1 2 28.94
0 1 2 30.70
-1 -1 -2 17.83
1 -1 2 17.28
-1 -1 -2 18.29
1 -1 2 16.88
-1 -1 -2 15.83
-1 1 -2 16.04
1 1 2 16.65
-1 1 -2 16.73
1 1 2 17.61
1 1 2 16.50
-2 -1 -2 3.85
2 -1 2 2.30
2 -1 2 3.43
-2 -1 -2 3.01
-2 1 -2 2.70
2 1 2 2.29
2 1 2 2.27
-2 1 -2 2.90
-3 -1 -2 104.55
3 -1 2 95.09
-3 -1 -2 103.91
-3 1 -2 103.37
-3 1 -2 102.91
3 1 2 99.66
4 -1 2 1.06
-4 -1 -2 0.01
-4 -1 -2 -0.05
-4 1 -2 0.23
4 1 2 0.14
-4 1 -2 0.48
-5 -1 -2 22.04
5 -1 2 23.85
-5 -1 -2 19.92
-5 1 -2 21.04
-5 1 -2 22.23
5 1 2 23.27
-6 -1 -2 0.39
6 -1 2 0.06
-6 1 -2 -0.52
-6 1 -2 0.63
6 1 2 0.89
7 -1 2 -0.16
-7 -1 -2 1.00
7 1 2 -0.73
7 -2 -2 -0.29
7 -2 -2 -0.48
-7 -2 2 -0.31
7 2 -2 2.63
-7 2 2 0.19
6 -2 -2 4.35
-6 -2 2 2.33
-6 -2 2 1.24
6 -2 -2 1.22
-6 2 2 2.60
-6 2 2 3.52
6 2 -2 1.50
6 2 -2 0.91
-6 2 2 1.53
-5 -2 2 8.77
-5 -2 2 11.34
5 -2 -2 10.56
-5 -2 2 11.10
5 -2 -2 9.23
5 2 -2 8.54
5 2 -2 10.13
-5 2 2 11.14
-5 2 2 9.15
-5 2 2 10.10
4 -2 -2 1.09
-4 -2 2 1.05
4 -2 -2 1.39
-4 -2 2 0.68
-4 2 2 1.89
-4 2 2 1.63
4 2 -2 1.33
4 2 -2 1.09
3 -2 -2 14.77
-3 -2 2 16.46
-3 -2 2 17.76
3 -2 -2 15.38
3 2 -2 15.62
3 2 -2 14.19
-3 2 2 15.10
-3 2 2 15.67
-3 2 2 18.64
-2 -2 2 28.64
2 -2 -2 28.84
-2 -2 2 24.89
2 -2 -2 28.40
2 2 -2 26.57
-2 2 2 28.71
-2 2 2 25.83
-2 2 2 29.17
-1 -2 2 16.83
-1 -2 2 16.99
-1 -2 2 16.70
1 -2 -2 15.04
1 -2 -2 16.38
1 -2 -2 16.07
1 -2 -2 15.19
-1 2 2 16.54
-1 2 2 17.04
1 2 -2 15.43
-1 2 2 15.58
1 2 -2 15.25
1 2 -2 16.97
0 -2 2 43.70
0 -2 -2 43.34
0 -2 -2 49.63
0 -2 2 44.47
0 -2 -2 42.65
0 -2 -2 43.65
0 -2 2 45.17
0 2 2 46.89
0 2 2 45.89
0 2 2 41.79
0 2 -2 45.01
0 2 -2 44.63
0 2 2 48.04
-1 -2 -2 5.57
-1 -2 -2 4.45
1 -2 2 4.83
-1 -2 -2 4.09
1 2 2 4.53
1 2 2 4.29
1 2 2 4.25
-1 2 -2 4.44
-2 -2 -2 63.09
2 -2 2 62.48
2 -2 2 60.54
-2 -2 -2 63.47
2 2 2 54.45
2 2 2 57.53
-2 2 -2 61.96
3 -2 2 21.63
-3 -2 -2 21.12
-3 -2 -2 24.52
3 2 2 22.49
3 2 2 16.86
-3 2 -2 20.30
-3 2 -2 23.56
4 -2 2 7.22
-4 -2 -2 6.95
-4 -2 -2 6.46
4 2 2 6.12
-4 2 -2 8.39
4 2 2 6.45
-4 2 -2 8.03
-5 -2 -2 2.45
-5 -2 -2 2.81
5 -2 2 3.52
-5 2 -2 3.83
5 2 2 5.15
5 2 2 5.29
-5 2 -2 4.19
6 -2 2 6.06
-6 2 -2 5.13
6 2 2 5.39
-6 2 -2 5.29
6 2 2 5.82
7 -2 2 -0.35
-7 -2 -2 -1.07
7 -2 2 -0.06
7 2 2 0.50
7 2 2 0.39
7 -3 -2 7.93
-7 -3 2 6.14
-7 3 2 6.31
7 3 -2 7.26
6 -3 -2 11.86
-6 -3 2 16.84
6 -3 -2 15.50
-6 3 2 13.08
-6 3 2 16.63
6 3 -2 13.78
6 3 -2 13.79
5 -3 -2 12.47
5 -3 -2 13.64
-5 -3 2 11.94
-5 -3 2 14.43
5 3 -2 14.00
5 3 -2 15.98
-5 3 2 15.04
-5 3 2 14.48
5 3 -2 13.85
-5 3 2 13.14
-5 3 2 12.82
4 -3 -2 10.34
-4 -3 2 12.86
4 -3 -2 10.34
-4 -3 2 12.32
4 3 -2 10.63
-4 3 2 11.66
-4 3 2 9.49
-4 3 2 11.44
-4 3 2 12.00
-3 -3 2 22.55
3 -3 -2 19.80
-3 -3 2 18.09
3 -3 -2 19.59
-3 3 2 20.75
-3 3 2 17.83
3 3 -2 18.10
-3 3 2 18.59
-2 -3 2 25.50
-2 -3 2 22.03
2 -3 -2 24.93
2 -3 -2 24.07
-2 3 2 22.54
2 3 -2 22.93
2 3 -2 22.40
-2 3 2 23.29
-2 3 2 24.07
-1 -3 2 50.82
-1 -3 2 49.94
1 -3 -2 51.27
1 -3 -2 48.02
1 -3 -2 52.61
-1 -3 2 48.98
-1 3 2 54.78
-1 3 2 50.54
-1 3 2 52.03
1 3 -2 48.41
1 3 -2 52.98
0 -3 -2 3.21
0 -3 -2 3.86
0 -3 2 3.14
0 -3 2 2.55
0 -3 -2 2.67
0 -3 2 2.32
0 -3 -2 3.25
0 3 2 2.93
0 3 2 3.18
0 3 2 2.85
0 3 2 2.84
0 3 -2 2.51
0 3 -2 3.13
-1 -3 -2 4.30
1 -3 2 6.20
-1 -3 -2 5.39
1 -3 2 4.72
-1 -3 -2 5.58
1 3 2 4.92
1 3 2 5.02
1 3 2 4.85
-2 -3 -2 27.96
2 -3 2 29.40
-2 -3 -2 29.24
-2 -3 -2 30.19
2 3 2 26.77
2 3 2 27.74
-2 3 -2 28.22
3 -3 2 8.19
-3 -3 -2 7.05
-3 3 -2 8.15
3 3 2 6.00
3 3 2 9.88
-4 -3 -2 -0.48
-4 -3 -2 0.13
4 -3 2 -0.10
-4 3 -2 0.09
4 3 2 0.53
4 3 2 0.51
-5 -3 -2 3.08
5 -3 2 2.92
-5 3 -2 5.34
5 3 2 3.94
5 3 2 3.12
6 -3 2 4.33
6 3 2 2.92
6 3 2 2.73
-6 3 -2 2.23
7 3 2 -0.12
-6 -4 2 -0.12
6 -4 -2 0.37
6 4 -2 0.42
-6 4 2 0.53
5 -4 -2 4.68
5 -4 -2 4.33
-5 -4 2 5.35
-5 -4 2 5.61
5 4 -2 3.20
-5 4 2 6.06
-5 4 2 4.93
4 -4 -2 19.98
4 -4 -2 17.32
-4 -4 2 20.85
-4 -4 2 21.78
-4 -4 2 18.07
4 4 -2 21.59
4 4 -2 19.41
-4 4 2 18.26
-4 4 2 19.01
3 -4 -2 16.30
-3 -4 2 16.65
-3 -4 2 18.76
3 -4 -2 20.93
-3 4 2 19.46
3 4 -2 13.69
3 4 -2 15.48
-3 4 2 14.94
2 -4 -2 16.70
-2 -4 2 15.45
2 -4 -2 19.67
2 -4 -2 16.80
-2 -4 2 16.37
2 4 -2 14.94
-2 4 2 17.99
2 4 -2 15.20
-2 4 2 15.68
-1 -4 2 14.47
1 -4 -2 11.72
-1 -4 2 12.43
1 -4 -2 12.00
1 -4 -2 13.54
-1 -4 2 14.51
-1 -4 2 14.15
1 4 -2 13.65
1 4 -2 14.04
0 -4 -2 9.00
0 -4 -2 7.17
0 -4 -2 6.53
0 -4 2 7.49
0 -4 2 8.06
0 -4 2 7.12
0 -4 -2 8.59
0 4 2 6.99
0 4 2 7.02
0 4 -2 6.68
-1 -4 -2 10.34
1 -4 2 11.22
1 -4 2 11.37
1 -4 2 11.36
-1 -4 -2 12.14
-1 -4 -2 9.34
-1 4 -2 10.86
1 4 2 12.47
1 4 2 10.33
2 -4 2 1.24
-2 -4 -2 2.13
2 -4 2 1.45
-2 -4 -2 0.90
-2 -4 -2 0.87
2 -4 2 1.63
2 4 2 1.70
2 4 2 2.18
2 4 2 1.81
-3 -4 -2 1.41
-3 -4 -2 1.41
3 -4 2 1.88
-3 4 -2 1.92
3 4 2 2.57
3 4 2 2.03
4 -4 2 26.74
-4 -4 -2 18.92
-4 -4 -2 20.98
4 4 2 25.63
-4 4 -2 21.51
4 4 2 23.19
-5 -4 -2 1.43
5 -4 2 1.30
-5 4 -2 2.80
5 4 2 1.15
5 4 2 2.05
-6 -4 -2 1.32
6 4 2 0.06
-6 4 -2 0.44
6 -5 -2 0.39
-6 -5 2 0.55
6 5 -2 0.41
6 5 -2 0.07
-6 5 2 0.63
5 -5 -2 4.37
-5 -5 2 2.42
5 5 -2 3.44
-5 5 2 3.06
5 5 -2 3.63
4 -5 -2 0.82
-4 -5 2 2.95
-4 -5 2 1.41
4 -5 -2 1.95
-4 5 2 2.67
-4 5 2 1.84
4 5 -2 2.40
4 5 -2 2.77
3 -5 -2 4.08
-3 -5 2 2.49
-3 -5 2 3.20
3 -5 -2 2.32
3 5 -2 3.84
-3 5 2 3.49
3 5 -2 1.98
-3 5 2 3.08
2 -5 -2 12.33
-2 -5 2 11.58
2 -5 -2 13.91
-2 -5 2 11.79
2 -5 -2 15.39
-2 -5 2 11.85
2 5 -2 14.71
2 5 -2 14.61
-1 -5 2 4.45
-1 -5 2 5.11
-1 -5 2 6.07
1 -5 -2 5.19
1 -5 -2 4.38
1 -5 -2 5.83
-1 -5 2 3.49
1 5 -2 4.54
0 -5 2 8.23
0 -5 2 6.81
0 -5 -2 7.33
0 -5 2 7.78
0 -5 -2 7.61
0 -5 -2 6.66
0 -5 2 6.96
0 5 2 6.79
-1 -5 -2 4.20
-1 -5 -2 3.91
-1 -5 -2 4.42
-1 -5 -2 4.47
1 -5 2 3.79
1 -5 2 4.48
1 5 2 5.17
1 5 2 5.61
-2 -5 -2 19.21
-2 -5 -2 22.63
2 -5 2 15.83
-2 -5 -2 18.47
2 -5 2 18.33
2 -5 2 18.43
2 5 2 19.67
-2 5 -2 16.89
2 5 2 15.94
-3 -5 -2 19.30
-3 -5 -2 21.16
3 -5 2 19.45
3 -5 2 16.80
3 5 2 19.35
3 5 2 18.02
4 -5 2 11.54
-4 -5 -2 11.96
4 5 2 11.79
4 5 2 13.77
-4 5 -2 11.34
-5 -5 -2 12.60
-5 5 -2 11.66
5 5 2 12.27
5 5 2 14.72
-6 -5 -2 0.80
6 -5 2 1.72
-6 5 -2 1.54
6 5 2 -0.25
5 -6 -2 5.44
-5 6 2 3.43
5 6 -2 3.73
5 6 -2 5.80
4 -6 -2 7.67
-4 -6 2 6.12
4 6 -2 5.62
-4 6 2 5.95
4 6 -2 5.70
-3 -6 2 2.19
3 -6 -2 -0.07
-3 -6 2 0.62
-3 -6 2 0.94
3 6 -2 1.44
3 6 -2 0.77
-2 -6 2 8.17
2 -6 -2 6.64
-2 -6 2 9.55
-2 -6 2 8.27
2 -6 -2 7.73
2 -6 -2 5.88
2 6 -2 10.98
2 6 -2 7.99
-1 -6 2 8.66
1 -6 -2 8.15
-1 -6 2 8.56
1 -6 -2 7.79
1 -6 -2 11.53
-1 -6 2 8.12
-1 -6 2 10.64
1 6 -2 7.14
0 -6 -2 10.75
0 -6 2 9.22
0 -6 2 6.91
0 -6 -2 9.22
0 -6 -2 10.74
0 -6 2 8.08
0 6 2 8.17
1 -6 2 3.76
-1 -6 -2 4.50
1 -6 2 3.56
-1 -6 -2 7.12
-1 -6 -2 6.30
1 -6 2 5.77
1 6 2 5.68
1 6 2 8.40
-2 -6 -2 20.66
-2 -6 -2 13.88
-2 -6 -2 17.37
2 -6 2 16.94
-2 -6 -2 23.09
2 6 2 20.62
2 6 2 16.97
-3 -6 -2 4.92
-3 -6 -2 3.77
-3 -6 -2 5.17
3 -6 2 5.80
3 6 2 5.90
-3 6 -2 6.28
4 -6 2 2.05
-4 -6 -2 1.32
4 6 2 2.50
-4 6 -2 1.01
4 6 2 1.39
5 -6 2 -0.26
5 6 2 0.66
-5 6 -2 1.42
5 6 2 0.36
4 -7 -2 3.37
4 7 -2 2.38
4 7 -2 3.10
3 -7 -2 0.81
3 7 -2 0.69
3 7 -2 0.77
-2 -7 2 7.43
2 -7 -2 6.63
-2 -7 2 6.29
2 7 -2 7.65
1 -7 -2 10.13
-1 -7 2 6.73
-1 -7 2 9.75
-1 -7 2 11.92
1 -7 -2 9.75
1 7 -2 14.19
0 -7 -2 3.72
0 -7 2 3.25
0 -7 -2 4.56
0 -7 2 5.15
1 -7 2 16.54
-1 -7 -2 20.86
1 -7 2 20.79
-1 -7 -2 17.63
1 7 2 18.72
-2 -7 -2 2.49
-2 -7 -2 1.45
2 -7 2 1.85
2 7 2 3.05
2 7 2 3.18
3 -7 2 1.60
3 7 2 0.81
3 7 2 0.95
4 -7 2 -0.18
4 7 2 -0.29
4 7 2 1.10
3 8 -2 3.56
2 -8 -2 0.17
2 8 -2 1.91
-1 -8 2 0.84
1 -8 -2 0.37
0 -8 2 0.16
0 -8 2 0.25
0 -8 -2 0.38
0 -8 -2 1.89
1 -8 2 0.07
-1 -8 -2 -0.08
1 8 2 0.78
2 -8 2 -0.28
2 8 2 1.26
7 0 -3 2.48
-7 0 3 2.98
7 0 -3 3.57
-7 0 3 1.80
6 0 -3 1.39
6 0 -3 1.38
-6 0 3 1.91
-6 0 3 0.62
5 0 -3 33.79
5 0 -3 40.01
-5 0 3 37.44
-5 0 3 37.20
-4 0 3 2.84
4 0 -3 2.92
-4 0 3 2.96
4 0 -3 3.84
-3 0 3 89.09
3 0 -3 93.08
-3 0 3 90.68
3 0 -3 95.25
2 0 -3 1.32
2 0 -3 0.74
-2 0 3 1.71
2 0 -3 1.53
-2 0 3 1.59
-2 0 3 1.85
1 0 -3 430.57
-1 0 3 437.57
1 0 -3 441.51
-1 0 3 431.89
1 0 -3 445.12
-1 0 3 437.40
0 0 3 53.89
0 0 -3 54.36
0 0 -3 51.43
0 0 3 51.15
0 0 -3 51.47
0 0 3 52.98
1 0 3 5.09
-1 0 -3 5.55
-1 0 -3 6.07
1 0 3 5.23
1 0 3 5.55
-2 0 -3 6.17
-2 0 -3 5.91
2 0 3 4.70
2 0 3 5.00
-3 0 -3 14.25
3 0 3 14.21
-3 0 -3 15.07
4 0 3 29.75
-4 0 -3 29.27
-4 0 -3 26.65
5 0 3 3.91
-5 0 -3 3.75
-5 0 -3 4.51
6 0 3 1.32
-6 0 -3 1.84
7 0 3 3.70
-7 -1 3 1.27
7 -1 -3 1.92
7 -1 -3 2.91
-7 -1 3 0.79
7 1 -3 1.24
-7 1 3 0.33
7 1 -3 -0.66
6 -1 -3 3.70
-6 -1 3 2.69
-6 -1 3 2.58
6 -1 -3 4.44
6 1 -3 4.46
-6 1 3 2.90
-6 1 3 5.32
6 1 -3 3.47
-6 1 3 4.10
-5 -1 3 1.09
5 -1 -3 0.54
5 -1 -3 0.35
-5 -1 3 1.54
-5 1 3 0.73
-5 1 3 0.94
5 1 -3 0.50
5 1 -3 0.44
-4 -1 3 13.71
-4 -1 3 15.32
4 -1 -3 14.03
4 -1 -3 14.06
4 1 -3 14.10
-4 1 3 15.57
-4 1 3 14.52
4 1 -3 11.25
3 -1 -3 24.41
3 -1 -3 22.64
-3 -1 3 22.52
-3 -1 3 22.58
-3 1 3 23.99
-3 1 3 21.07
3 1 -3 24.48
3 1 -3 25.01
2 -1 -3 37.99
-2 -1 3 37.70
-2 -1 3 40.55
-2 -1 3 38.05
2 -1 -3 37.64
-2 1 3 39.65
2 1 -3 38.33
-2 1 3 39.52
2 1 -3 40.31
-1 -1 3 953.66
-1 -1 3 986.77
-1 -1 3 983.33
1 -1 -3 945.65
1 -1 -3 939.63
1 -1 -3 909.78
1 -1 -3 985.21
1 1 -3 880.35
1 1 -3 964.47
-1 1 3 931.55
-1 1 3 940.96
1 1 -3 984.67
1 1 -3 825.79
-1 1 3 931.92
-1 1 3 994.46
0 -1 3 958.57
0 -1 -3 981.45
0 -1 3 989.85
0 -1 -3 1000.00
0 -1 3 926.34
0 -1 -3 959.46
0 1 3 902.45
0 1 3 944.30
0 1 -3 907.23
0 1 3 928.58
0 1 3 998.63
-1 -1 -3 65.25
1 -1 3 64.62
-1 -1 -3 68.08
1 -1 3 64.42
-1 -1 -3 66.66
1 1 3 69.86
1 1 3 68.20
1 1 3 61.04
-1 1 -3 69.07
-1 1 -3 65.56
-2 -1 -3 5.70
2 -1 3 4.77
2 -1 3 4.51
-2 -1 -3 7.44
2 1 3 5.38
-2 1 -3 5.47
2 1 3 4.43
-2 1 -3 5.89
2 1 3 5.95
-3 -1 -3 4.81
3 -1 3 4.35
-3 -1 -3 5.03
-3 1 -3 4.03
-3 1 -3 5.00
3 1 3 3.17
3 1 3 3.94
-4 -1 -3 68.28
-4 -1 -3 66.65
4 -1 3 68.00
4 1 3 77.84
4 1 3 58.90
-4 1 -3 66.51
-4 1 -3 71.01
-5 -1 -3 54.55
5 -1 3 47.91
-5 -1 -3 47.75
5 1 3 42.90
5 1 3 52.04
-5 1 -3 50.54
-5 1 -3 44.99
6 -1 3 0.39
-6 -1 -3 1.94
6 1 3 0.96
-6 1 -3 0.86
6 1 3 1.39
-6 1 -3 2.60
7 -1 3 0.31
-7 -1 -3 0.15
7 1 3 3.29
-7 -2 3 0.85
7 -2 -3 0.69
7 -2 -3 1.90
-7 2 3 -0.08
7 2 -3 2.02
-6 -2 3 0.73
6 -2 -3 1.32
6 -2 -3 0.07
-6 -2 3 -0.20
-6 2 3 0.75
-6 2 3 0.99
6 2 -3 0.49
6 2 -3 1.37
-6 2 3 0.41
-5 -2 3 4.06
5 -2 -3 4.59
-5 -2 3 3.89
5 -2 -3 2.93
-5 2 3 4.94
-5 2 3 3.62
5 2 -3 3.56
5 2 -3 5.08
4 -2 -3 29.46
-4 -2 3 26.67
-4 -2 3 23.50
4 -2 -3 24.99
-4 2 3 25.11
-4 2 3 27.09
4 2 -3 27.04
-4 2 3 26.39
4 2 -3 25.57
3 -2 -3 15.45
3 -2 -3 14.57
-3 -2 3 17.75
-3 -2 3 16.14
-3 2 3 18.22
-3 2 3 15.32
-3 2 3 17.43
3 2 -3 15.43
3 2 -3 16.22
2 -2 -3 45.13
-2 -2 3 42.34
-2 -2 3 46.44
2 -2 -3 46.82
-2 -2 3 40.69
-2 2 3 45.43
2 2 -3 44.52
-2 2 3 44.06
-2 2 3 45.84
2 2 -3 43.48
1 -2 -3 48.27
-1 -2 3 43.31
1 -2 -3 41.97
-1 -2 3 40.97
1 -2 -3 42.88
-1 -2 3 45.99
1 -2 -3 40.28
1 2 -3 44.52
1 2 -3 42.72
-1 2 3 44.20
-1 2 3 43.03
-1 2 3 41.62
1 2 -3 44.15
-1 2 3 46.14
0 -2 -3 0.28
0 -2 3 0.79
0 -2 -3 0.25
0 -2 -3 0.89
0 -2 -3 0.21
0 2 3 0.64
0 2 3 0.53
0 2 3 0.70
0 2 -3 0.65
0 2 3 0.50
1 -2 3 23.14
-1 -2 -3 22.88
-1 -2 -3 25.89
1 -2 3 24.25
-1 -2 -3 26.22
1 2 3 23.76
-1 2 -3 25.99
1 2 3 21.91
1 2 3 23.66
-2 -2 -3 106.24
2 -2 3 106.40
2 -2 3 105.61
-2 -2 -3 109.62
2 2 3 106.76
2 2 3 97.53
-2 2 -3 102.66
2 2 3 94.46
-3 -2 -3 2.34
3 -2 3 2.82
-3 -2 -3 3.46
3 2 3 4.16
-3 2 -3 3.34
-3 2 -3 3.36
3 2 3 3.60
-4 -2 -3 1.78
-4 -2 -3 2.83
4 -2 3 2.70
4 2 3 2.73
-4 2 -3 3.63
-4 2 -3 2.76
4 2 3 2.30
-5 -2 -3 24.59
5 -2 3 26.49
-5 -2 -3 18.81
-5 2 -3 26.55
5 2 3 26.23
5 2 3 24.91
-5 2 -3 25.97
-6 -2 -3 0.08
6 -2 3 -0.19
6 2 3 0.94
6 2 3 1.39
-6 2 -3 -0.48
-6 2 -3 0.94
7 -2 3 0.61
7 2 3 -0.32
7 -3 -3 2.68
-7 3 3 0.92
6 -3 -3 16.01
6 -3 -3 11.90
-6 -3 3 13.75
-6 3 3 13.48
-6 3 3 13.16
6 3 -3 15.20
5 -3 -3 0.06
-5 -3 3 0.05
5 -3 -3 0.84
-5 3 3 -0.03
-5 3 3 0.23
-5 3 3 0.42
5 3 -3 1.63
5 3 -3 0.35
5 3 -3 0.46
-5 3 3 0.30
-4 -3 3 27.91
4 -3 -3 21.25
-4 -3 3 25.86
4 -3 -3 28.12
-4 3 3 24.15
-4 3 3 27.90
-4 3 3 24.33
4 3 -3 27.30
3 -3 -3 5.96
-3 -3 3 5.42
-3 -3 3 7.58
3 -3 -3 5.85
-3 3 3 6.19
-3 3 3 5.96
-3 3 3 6.54
3 3 -3 6.23
2 -3 -3 5.95
-2 -3 3 4.94
-2 -3 3 5.91
2 -3 -3 4.96
2 -3 -3 4.77
-2 3 3 5.65
-2 3 3 5.20
2 3 -3 4.96
2 3 -3 5.98
-2 3 3 6.33
1 -3 -3 42.91
1 -3 -3 45.60
1 -3 -3 41.79
1 -3 -3 41.75
-1 -3 3 44.53
-1 -3 3 43.46
-1 -3 3 44.88
-1 -3 3 44.57
-1 3 3 44.19
-1 3 3 45.51
1 3 -3 43.67
1 3 -3 45.90
1 3 -3 45.21
0 -3 3 27.78
0 -3 -3 28.28
0 -3 3 28.91
0 -3 -3 24.71
0 -3 3 27.60
0 -3 -3 28.91
0 -3 -3 27.62
0 3 3 30.10
0 3 3 28.40
0 3 3 30.77
0 3 3 25.81
0 3 -3 27.22
-1 -3 -3 41.47
1 -3 3 40.70
-1 -3 -3 37.72
-1 -3 -3 42.02
1 -3 3 38.58
1 3 3 38.32
1 3 3 38.67
1 3 3 42.22
1 3 3 38.00
-1 3 -3 37.99
2 -3 3 7.12
-2 -3 -3 6.22
-2 -3 -3 6.23
-2 -3 -3 6.03
2 -3 3 6.13
-2 3 -3 7.07
2 3 3 5.61
2 3 3 6.55
-3 -3 -3 1.69
3 -3 3 1.84
-3 -3 -3 1.01
-3 3 -3 1.50
3 3 3 1.35
3 3 3 2.22
4 -3 3 4.63
-4 -3 -3 5.91
-4 -3 -3 6.36
4 3 3 5.49
4 3 3 7.06
-4 3 -3 4.73
-5 -3 -3 3.07
5 -3 3 2.89
5 3 3 5.25
5 3 3 2.85
-5 3 -3 5.45
6 -3 3 3.03
6 3 3 3.52
6 -4 -3 2.82
-6 -4 3 2.44
-6 4 3 2.42
6 4 -3 2.41
5 -4 -3 5.00
5 -4 -3 4.08
-5 -4 3 2.34
-5 -4 3 2.68
5 4 -3 2.40
-5 4 3 2.81
-5 4 3 3.29
-4 -4 3 10.21
-4 -4 3 6.86
4 -4 -3 9.71
4 -4 -3 8.51
-4 4 3 9.24
4 4 -3 8.84
4 4 -3 8.18
-4 4 3 7.32
-3 -4 3 14.21
3 -4 -3 14.27
-3 -4 3 14.79
3 -4 -3 14.79
-3 4 3 12.39
3 4 -3 13.14
-3 4 3 12.90
3 4 -3 13.75
-3 4 3 11.39
-2 -4 3 7.32
2 -4 -3 7.90
-2 -4 3 9.43
2 -4 -3 7.74
2 -4 -3 8.44
2 4 -3 9.06
-2 4 3 7.58
-2 4 3 7.37
2 4 -3 8.75
-1 -4 3 14.30
-1 -4 3 11.45
1 -4 -3 12.00
-1 -4 3 12.33
1 -4 -3 12.58
1 -4 -3 12.61
-1 4 3 10.92
-1 4 3 13.56
-1 4 3 12.12
1 4 -3 12.39
1 4 -3 12.96
0 -4 -3 16.61
0 -4 3 15.41
0 -4 -3 14.49
0 -4 3 14.75
0 -4 -3 16.31
0 -4 3 15.64
0 -4 -3 15.30
0 4 3 16.25
0 4 -3 15.54
0 4 3 15.42
0 4 3 12.72
-1 -4 -3 18.04
1 -4 3 19.85
-1 -4 -3 19.27
1 -4 3 20.25
-1 -4 -3 17.90
1 4 3 18.41
1 4 3 19.56
1 4 3 17.29
-2 -4 -3 0.95
-2 -4 -3 0.59
-2 -4 -3 0.83
2 -4 3 0.55
2 -4 3 1.02
2 4 3 1.11
-2 4 -3 0.63
2 4 3 1.00
2 4 3 0.85
-3 -4 -3 11.18
3 -4 3 8.76
-3 -4 -3 14.69
3 4 3 11.49
3 4 3 12.86
-3 4 -3 11.32
4 -4 3 8.70
-4 -4 -3 11.78
-4 -4 -3 7.93
4 4 3 11.39
-4 4 -3 8.69
4 4 3 11.39
5 -4 3 2.62
-5 -4 -3 -1.02
-5 4 -3 2.04
5 4 3 1.11
6 4 3 0.17
-6 -5 3 1.44
6 -5 -3 4.25
6 5 -3 4.00
6 5 -3 3.65
-6 5 3 3.05
-5 -5 3 2.24
5 -5 -3 0.47
5 5 -3 1.46
5 5 -3 3.00
-5 5 3 1.11
4 -5 -3 1.71
-4 -5 3 3.89
-4 -5 3 4.20
4 -5 -3 3.84
4 -5 -3 3.57
-4 5 3 4.25
-4 5 3 4.08
4 5 -3 3.23
4 5 -3 4.55
3 -5 -3 4.78
-3 -5 3 5.73
3 -5 -3 4.21
-3 -5 3 2.41
3 5 -3 3.87
-3 5 3 3.99
-3 5 3 5.72
3 5 -3 3.74
2 -5 -3 31.73
2 -5 -3 35.58
-2 -5 3 33.67
-2 -5 3 36.45
2 -5 -3 32.25
2 5 -3 33.21
2 5 -3 32.84
-1 -5 3 86.85
1 -5 -3 87.06
-1 -5 3 94.74
1 -5 -3 88.12
1 -5 -3 88.37
-1 -5 3 84.72
-1 -5 3 91.78
1 5 -3 79.49
0 -5 -3 7.56
0 -5 -3 4.62
0 -5 -3 6.54
0 5 3 5.47
-1 -5 -3 54.54
1 -5 3 52.98
1 -5 3 54.65
1 -5 3 56.55
-1 -5 -3 50.92
1 -5 3 52.29
-1 -5 -3 45.60
1 5 3 53.70
1 5 3 48.68
-1 5 -3 47.41
-2 -5 -3 3.37
-2 -5 -3 2.46
2 -5 3 2.95
2 -5 3 3.33
2 -5 3 2.80
2 -5 3 3.29
-2 -5 -3 3.15
-2 5 -3 3.49
2 5 3 2.81
2 5 3 2.47
-3 -5 -3 29.37
-3 -5 -3 36.46
3 -5 3 33.76
3 5 3 35.30
3 5 3 33.52
-3 5 -3 30.48
-4 -5 -3 5.83
4 -5 3 7.04
-4 5 -3 7.03
4 5 3 5.63
4 5 3 7.53
5 5 3 2.64
-6 -5 -3 -1.65
-6 5 -3 0.01
6 5 3 2.48
5 -6 -3 9.00
5 6 -3 7.58
-5 6 3 8.45
5 6 -3 8.67
4 -6 -3 8.48
-4 -6 3 6.10
-4 6 3 5.11
4 6 -3 5.46
-3 -6 3 0.83
-3 -6 3 1.64
3 -6 -3 1.03
3 6 -3 1.74
3 6 -3 3.85
2 -6 -3 7.75
-2 -6 3 9.21
-2 -6 3 7.93
2 -6 -3 7.22
-2 -6 3 10.71
2 -6 -3 7.14
2 6 -3 10.72
1 -6 -3 11.16
1 -6 -3 10.50
-1 -6 3 10.68
1 -6 -3 8.53
-1 -6 3 9.21
-1 -6 3 10.60
-1 -6 3 10.33
1 6 -3 11.84
0 -6 -3 5.53
0 -6 3 6.05
0 -6 -3 5.28
0 -6 3 5.87
0 -6 3 5.16
0 -6 -3 5.37
0 -6 3 5.21
0 -6 3 4.59
0 6 3 6.58
-1 -6 -3 3.43
1 -6 3 2.90
1 -6 3 3.46
-1 -6 -3 1.96
-1 -6 -3 3.84
1 6 3 3.27
1 6 3 3.65
-2 -6 -3 56.11
2 -6 3 53.35
-2 -6 -3 60.33
-2 -6 -3 51.28
-2 -6 -3 65.80
2 6 3 48.90
2 6 3 62.78
-3 -6 -3 -0.88
-3 -6 -3 -0.96
-3 -6 -3 -0.59
-3 6 -3 0.33
-3 6 -3 0.65
3 6 3 0.04
3 6 3 0.31
-4 -6 -3 2.83
4 6 3 2.83
4 6 3 0.64
-4 6 -3 1.55
5 6 3 -0.37
-5 6 -3 -0.21
5 6 3 -0.92
4 -7 -3 1.43
4 7 -3 2.82
4 7 -3 2.32
3 -7 -3 12.01
3 7 -3 12.52
3 7 -3 12.51
2 -7 -3 4.34
-2 -7 3 4.79
-2 -7 3 6.09
2 7 -3 4.99
-1 -7 3 0.26
-1 -7 3 0.26
-1 -7 3 1.49
1 -7 -3 -0.39
1 -7 -3 -0.14
1 7 -3 0.70
0 -7 -3 3.21
0 -7 -3 3.03
0 -7 3 4.94
0 -7 3 3.51
-1 -7 -3 3.55
-1 -7 -3 4.59
1 -7 3 3.80
1 -7 3 3.71
1 7 3 3.68
-2 -7 -3 2.81
2 -7 3 1.13
-2 -7 -3 2.12
-2 -7 -3 1.91
2 7 3 4.27
2 7 3 2.42
3 -7 3 -0.06
3 7 3 0.93
3 7 3 0.65
4 -7 3 2.29
4 7 3 1.78
4 7 3 0.90
2 -8 -3 6.63
2 8 -3 3.80
1 -8 -3 3.98
-1 -8 3 4.75
0 -8 -3 0.24
0 -8 3 0.52
0 -8 -3 -0.77
1 -8 3 2.80
1 8 3 1.83
2 -8 3 0.45
2 8 3 1.45
2 8 3 1.40
7 0 -4 1.92
7 0 -4 -0.82
-7 0 4 -1.03
-7 0 4 -0.47
-6 0 4 25.84
6 0 -4 23.88
6 0 -4 24.01
5 0 -4 0.48
-5 0 4 1.26
5 0 -4 1.25
-5 0 4 0.86
-4 0 4 7.19
-4 0 4 6.53
4 0 -4 6.26
4 0 -4 6.02
3 0 -4 7.84
3 0 -4 8.60
-3 0 4 8.38
-3 0 4 9.16
2 0 -4 1.27
-2 0 4 1.24
2 0 -4 1.98
2 0 -4 1.81
-2 0 4 1.22
-2 0 4 1.04
1 0 -4 23.60
-1 0 4 23.74
1 0 -4 23.89
1 0 -4 24.55
-1 0 4 22.53
-1 0 4 24.63
0 0 4 6.08
0 0 4 6.79
0 0 4 5.23
0 0 -4 6.45
0 0 -4 6.17
0 0 -4 6.56
1 0 4 1.45
1 0 4 2.10
-1 0 -4 1.96
1 0 4 1.51
-1 0 -4 1.93
-2 0 -4 68.03
2 0 4 68.28
2 0 4 71.17
-2 0 -4 67.52
2 0 4 67.01
3 0 4 93.01
3 0 4 100.20
-3 0 -4 96.86
-3 0 -4 96.95
-4 0 -4 15.93
-4 0 -4 17.96
4 0 4 17.63
-5 0 -4 1.06
5 0 4 1.40
-5 0 -4 1.49
-6 0 -4 -0.50
6 0 4 -0.06
7 0 4 9.33
-7 -1 4 0.99
7 -1 -4 -0.57
-7 -1 4 0.79
7 -1 -4 -0.32
7 1 -4 0.73
7 1 -4 0.65
-7 1 4 0.14
6 -1 -4 8.59
-6 -1 4 9.89
6 -1 -4 7.68
6 1 -4 6.94
6 1 -4 6.20
-6 1 4 8.93
-6 1 4 5.97
5 -1 -4 12.36
-5 -1 4 14.34
-5 -1 4 13.72
5 -1 -4 10.42
5 1 -4 12.69
-5 1 4 13.09
5 1 -4 11.91
-5 1 4 14.09
4 -1 -4 18.65
4 -1 -4 16.66
-4 -1 4 18.72
-4 -1 4 19.86
-4 1 4 18.80
4 1 -4 19.52
4 1 -4 18.80
-4 1 4 19.21
3 -1 -4 26.26
-3 -1 4 23.85
-3 -1 4 23.86
3 -1 -4 28.55
3 1 -4 26.09
-3 1 4 26.44
-3 1 4 26.23
3 1 -4 24.68
2 -1 -4 11.23
2 -1 -4 11.17
-2 -1 4 10.99
2 -1 -4 11.19
-2 -1 4 11.65
-2 -1 4 9.62
2 1 -4 12.31
2 1 -4 11.04
-2 1 4 10.51
-2 1 4 10.30
-2 1 4 11.76
2 1 -4 11.53
-2 1 4 10.12
-1 -1 4 478.65
1 -1 -4 476.67
-1 -1 4 453.30
-1 -1 4 482.94
1 -1 -4 477.25
1 -1 -4 460.84
-1 1 4 454.70
1 1 -4 478.48
-1 1 4 471.35
1 1 -4 461.23
1 1 -4 444.93
-1 1 4 473.76
-1 1 4 437.82
1 1 -4 445.00
0 -1 4 674.90
0 -1 4 625.37
0 -1 -4 653.85
0 -1 -4 652.84
0 -1 -4 636.44
0 -1 4 634.06
0 1 4 622.07
0 1 -4 624.01
0 1 -4 634.23
0 1 4 659.89
0 1 4 644.91
0 1 4 648.80
-1 -1 -4 42.42
-1 -1 -4 41.19
1 -1 4 40.57
-1 -1 -4 41.72
1 -1 4 38.87
1 1 4 44.23
-1 1 -4 39.98
1 1 4 41.79
1 1 4 44.55
-1 1 -4 38.70
-2 -1 -4 1.01
2 -1 4 1.21
2 -1 4 1.13
-2 -1 -4 1.11
-2 1 -4 0.46
2 1 4 0.66
2 1 4 1.13
-2 1 -4 1.05
2 1 4 0.82
-3 -1 -4 34.52
3 -1 4 31.50
3 -1 4 31.55
-3 -1 -4 33.72
-3 1 -4 31.94
3 1 4 33.89
-3 1 -4 35.70
3 1 4 32.69
3 1 4 30.97
4 -1 4 3.19
-4 -1 -4 3.06
-4 -1 -4 4.25
-4 1 -4 3.12
4 1 4 3.57
-4 1 -4 3.97
4 1 4 2.93
-5 -1 -4 18.88
5 -1 4 23.22
-5 -1 -4 26.13
-5 1 -4 25.90
5 1 4 23.08
5 1 4 26.97
-5 1 -4 24.35
6 -1 4 1.06
-6 -1 -4 3.37
-6 1 -4 1.50
-6 1 -4 0.20
6 1 4 0.48
6 1 4 2.06
7 -1 4 -0.09
7 1 4 0.29
7 -2 -4 1.02
7 -2 -4 -0.30
-7 -2 4 0.28
7 2 -4 -0.05
-7 2 4 -0.02
6 -2 -4 2.37
6 -2 -4 0.89
-6 -2 4 0.54
6 2 -4 -1.22
-6 2 4 1.36
-6 2 4 1.15
-6 2 4 0.61
6 2 -4 0.65
-6 2 4 0.14
5 -2 -4 0.13
-5 -2 4 -0.39
5 -2 -4 1.42
-5 -2 4 0.96
5 2 -4 -0.20
-5 2 4 0.33
-5 2 4 0.45
5 2 -4 0.41
-5 2 4 0.32
-4 -2 4 8.16
-4 -2 4 8.75
4 -2 -4 8.11
4 -2 -4 6.87
-4 2 4 8.16
4 2 -4 8.02
4 2 -4 8.01
-4 2 4 8.08
-4 2 4 8.36
3 -2 -4 9.11
-3 -2 4 7.80
-3 -2 4 10.05
3 -2 -4 8.28
3 2 -4 9.53
3 2 -4 8.86
-3 2 4 10.11
-3 2 4 8.56
-3 2 4 8.11
-2 -2 4 30.12
-2 -2 4 27.11
2 -2 -4 30.36
2 -2 -4 29.07
2 -2 -4 25.29
-2 -2 4 28.14
2 2 -4 28.00
-2 2 4 26.86
2 2 -4 27.79
2 2 -4 28.45
2 2 -4 26.55
-2 2 4 28.23
-2 2 4 28.61
-2 2 4 28.25
1 -2 -4 99.73
1 -2 -4 101.91
-1 -2 4 104.70
-1 -2 4 98.44
1 -2 -4 107.46
-1 -2 4 106.48
1 -2 -4 95.39
-1 -2 4 101.14
1 2 -4 101.45
1 2 -4 100.13
-1 2 4 103.66
-1 2 4 109.08
-1 2 4 97.32
-1 2 4 93.88
1 2 -4 94.83
0 -2 -4 66.83
0 -2 4 60.54
0 -2 4 60.58
0 -2 -4 58.47
0 -2 4 61.88
0 -2 -4 62.74
0 2 4 62.78
0 2 4 59.07
0 2 4 58.11
0 2 4 58.63
0 2 -4 62.18
1 -2 4 25.74
-1 -2 -4 25.72
-1 -2 -4 30.32
-1 -2 -4 27.60
1 -2 4 28.43
1 2 4 27.26
1 2 4 30.85
1 2 4 26.46
-1 2 -4 28.25
-2 -2 -4 41.58
-2 -2 -4 42.77
2 -2 4 38.56
2 -2 4 38.78
-2 -2 -4 39.80
2 2 4 41.04
2 2 4 35.40
2 2 4 39.79
-2 2 -4 41.22
-3 -2 -4 24.95
-3 -2 -4 24.39
3 -2 4 28.04
3 -2 4 22.18
3 2 4 24.85
-3 2 -4 25.05
3 2 4 24.13
-3 2 -4 23.60
-4 -2 -4 10.15
-4 -2 -4 12.38
4 -2 4 12.12
-4 2 -4 14.56
-4 2 -4 14.96
4 2 4 9.78
4 2 4 11.40
-5 -2 -4 2.99
5 -2 4 3.58
5 2 4 4.37
5 2 4 3.67
-5 2 -4 2.94
-5 2 -4 2.80
6 -2 4 2.66
-6 -2 -4 2.15
-6 2 -4 1.66
6 2 4 2.75
-6 2 -4 1.09
6 2 4 1.70
7 -2 4 0.61
7 2 4 0.87
-6 -3 4 10.38
6 -3 -4 10.61
6 -3 -4 12.28
6 3 -4 11.87
-6 3 4 10.21
5 -3 -4 34.39
5 -3 -4 33.27
-5 -3 4 33.30
5 3 -4 32.34
-5 3 4 37.02
5 3 -4 33.33
-5 3 4 37.01
-5 3 4 30.96
4 -3 -4 35.97
-4 -3 4 37.25
4 -3 -4 39.94
-4 -3 4 41.69
4 3 -4 38.08
-4 3 4 42.21
-4 3 4 38.08
-4 3 4 39.38
-3 -3 4 20.20
3 -3 -4 24.64
3 -3 -4 21.53
-3 -3 4 22.75
3 3 -4 21.62
-3 3 4 20.18
-3 3 4 23.56
3 3 -4 21.45
-3 3 4 22.55
2 -3 -4 1.60
-2 -3 4 1.97
-2 -3 4 1.36
2 -3 -4 1.44
2 -3 -4 1.52
-2 -3 4 1.46
2 3 -4 1.16
-2 3 4 2.05
-2 3 4 1.49
2 3 -4 1.91
-2 3 4 0.97
-1 -3 4 54.62
1 -3 -4 51.88
-1 -3 4 51.20
1 -3 -4 54.96
1 -3 -4 54.61
-1 -3 4 51.69
-1 -3 4 50.25
1 -3 -4 51.98
-1 3 4 56.40
1 3 -4 52.40
-1 3 4 51.07
1 3 -4 50.75
-1 3 4 54.84
-1 3 4 53.14
0 -3 -4 102.69
0 -3 -4 101.40
0 -3 4 101.55
0 -3 4 101.73
0 -3 -4 98.51
0 -3 -4 100.83
0 -3 4 96.02
0 3 -4 104.20
0 3 4 100.60
0 3 4 92.39
0 3 4 99.10
0 3 4 96.74
-1 -3 -4 60.71
-1 -3 -4 60.45
1 -3 4 61.40
1 -3 4 58.70
-1 -3 -4 55.95
-1 3 -4 61.45
1 3 4 55.35
1 3 4 57.82
1 3 4 54.94
1 3 4 59.07
2 -3 4 11.04
-2 -3 -4 10.38
2 -3 4 8.49
-2 -3 -4 9.30
-2 -3 -4 8.73
2 3 4 8.37
2 3 4 9.13
2 3 4 10.87
-2 3 -4 11.54
3 -3 4 9.35
3 -3 4 9.09
-3 -3 -4 10.36
-3 -3 -4 10.20
3 3 4 8.98
3 3 4 8.79
-3 3 -4 10.55
4 -3 4 5.36
-4 -3 -4 6.77
-4 -3 -4 6.26
4 3 4 5.10
4 3 4 4.80
-4 3 -4 5.70
-5 -3 -4 3.62
5 -3 4 3.63
-5 3 -4 4.41
5 3 4 3.74
5 3 4 4.11
6 -3 4 0.85
6 3 4 2.16
6 -4 -4 2.73
-6 -4 4 2.31
-6 4 4 1.58
6 4 -4 2.68
-5 -4 4 0.40
5 -4 -4 1.35
5 -4 -4 1.44
-5 4 4 0.95
5 4 -4 1.09
5 4 -4 0.08
-5 4 4 0.85
4 -4 -4 0.14
-4 -4 4 0.47
4 -4 -4 0.05
-4 4 4 0.20
-4 4 4 0.11
-4 4 4 -0.01
4 4 -4 -0.57
4 4 -4 0.07
3 -4 -4 29.23
3 -4 -4 29.58
-3 -4 4 28.64
3 -4 -4 30.19
-3 -4 4 32.07
-3 4 4 28.72
-3 4 4 26.85
3 4 -4 30.61
-3 4 4 31.93
3 4 -4 30.93
2 -4 -4 4.58
2 -4 -4 2.68
-2 -4 4 2.41
-2 -4 4 3.07
-2 -4 4 2.22
2 -4 -4 2.57
-2 4 4 3.05
2 4 -4 2.92
2 4 -4 3.70
-2 4 4 3.04
-1 -4 4 2.38
1 -4 -4 1.91
-1 -4 4 2.96
-1 -4 4 2.40
-1 -4 4 2.99
1 -4 -4 1.62
1 -4 -4 2.66
1 4 -4 1.83
-1 4 4 3.19
-1 4 4 2.55
1 4 -4 2.26
-1 4 4 2.84
0 -4 -4 2.64
0 -4 4 3.00
0 -4 -4 3.49
0 -4 -4 2.04
0 -4 4 1.82
0 -4 -4 2.41
0 -4 4 2.73
0 4 4 2.74
0 4 4 3.09
0 4 4 3.97
0 4 -4 3.35
0 4 4 2.28
-1 -4 -4 7.93
1 -4 4 7.69
1 -4 4 7.98
-1 -4 -4 7.33
-1 -4 -4 7.87
1 4 4 6.43
1 4 4 7.33
1 4 4 4.81
1 4 4 7.84
-1 4 -4 7.11
2 -4 4 2.29
-2 -4 -4 2.40
2 -4 4 2.36
-2 -4 -4 1.93
-2 -4 -4 1.19
2 4 4 1.96
2 4 4 2.16
-2 4 -4 1.59
2 4 4 1.54
-3 -4 -4 43.87
-3 -4 -4 39.41
3 -4 4 39.11
-3 4 -4 43.34
3 4 4 42.47
3 4 4 41.51
4 -4 4 17.96
-4 -4 -4 15.04
-4 4 -4 11.64
4 4 4 17.73
4 4 4 15.37
5 -4 4 1.10
-5 4 -4 -0.54
5 4 4 0.32
5 4 4 -0.93
6 4 4 6.12
-6 -5 4 -0.08
6 5 -4 0.32
6 5 -4 2.49
-6 5 4 0.79
-5 -5 4 -0.21
5 -5 -4 -0.54
5 5 -4 -0.40
-5 5 4 0.10
5 5 -4 0.10
4 -5 -4 1.65
4 -5 -4 2.68
4 -5 -4 2.42
-4 -5 4 3.26
4 5 -4 3.07
-4 5 4 4.42
4 5 -4 2.30
-4 5 4 3.12
-3 -5 4 0.21
-3 -5 4 0.61
3 -5 -4 1.16
3 -5 -4 1.24
-3 5 4 0.44
3 5 -4 1.15
3 5 -4 0.69
-2 -5 4 13.62
2 -5 -4 13.41
-2 -5 4 13.93
-2 -5 4 12.76
2 -5 -4 12.34
2 -5 -4 13.89
-2 5 4 12.06
2 5 -4 13.41
2 5 -4 13.45
-2 5 4 14.36
1 -5 -4 7.50
-1 -5 4 7.48
1 -5 -4 6.52
1 -5 -4 6.78
-1 -5 4 8.36
-1 -5 4 7.84
-1 -5 4 7.38
-1 5 4 5.79
1 5 -4 9.24
0 -5 4 15.06
0 -5 -4 15.16
0 -5 -4 14.72
0 -5 -4 13.56
0 -5 4 16.57
0 -5 -4 15.74
0 -5 4 16.78
0 5 4 15.76
0 5 -4 17.03
0 5 4 14.37
1 -5 4 27.69
1 -5 4 25.36
1 -5 4 25.12
-1 -5 -4 21.89
-1 -5 -4 22.65
-1 -5 -4 23.49
1 5 4 26.04
1 5 4 24.38
1 5 4 25.48
-2 -5 -4 14.38
-2 -5 -4 17.86
2 -5 4 18.84
2 -5 4 17.49
-2 -5 -4 14.25
2 -5 4 17.21
2 -5 4 17.43
2 5 4 17.92
2 5 4 14.96
2 5 4 13.45
3 -5 4 9.24
-3 -5 -4 9.48
-3 -5 -4 6.86
3 5 4 8.29
-3 5 -4 7.33
3 5 4 7.31
-4 -5 -4 -0.67
4 -5 4 0.01
4 5 4 0.34
4 5 4 0.10
-4 5 -4 -0.07
4 5 4 0.55
5 5 4 0.86
5 -6 -4 1.09
-5 6 4 1.06
5 6 -4 1.01
5 6 -4 1.41
-4 -6 4 4.25
4 -6 -4 2.73
4 6 -4 3.87
4 6 -4 3.55
-4 6 4 4.06
-3 -6 4 1.20
3 -6 -4 1.11
3 6 -4 0.74
3 6 -4 0.96
2 -6 -4 -0.27
-2 -6 4 1.00
-2 -6 4 1.04
2 -6 -4 -0.66
2 -6 -4 0.29
2 6 -4 0.08
1 -6 -4 3.85
-1 -6 4 3.33
-1 -6 4 2.56
1 -6 -4 3.94
-1 -6 4 2.43
1 -6 -4 4.08
-1 -6 4 3.12
-1 -6 4 2.90
1 6 -4 3.24
0 -6 4 6.59
0 -6 -4 7.55
0 -6 -4 7.50
0 -6 4 5.60
0 -6 4 7.32
0 6 4 7.94
1 -6 4 16.72
1 -6 4 21.61
1 -6 4 17.65
1 -6 4 19.82
-1 -6 -4 19.33
-1 -6 -4 18.51
1 6 4 22.60
1 6 4 16.04
2 -6 4 9.38
-2 -6 -4 11.55
2 -6 4 9.41
-2 -6 -4 8.42
2 -6 4 10.43
2 -6 4 11.03
2 6 4 11.94
2 6 4 9.85
-2 6 -4 9.14
-3 -6 -4 1.85
3 6 4 3.26
3 6 4 1.77
-3 6 -4 2.19
4 6 4 5.53
4 6 4 6.42
5 6 4 2.08
5 6 4 0.52
-5 6 -4 1.53
4 -7 -4 5.02
4 7 -4 5.91
4 7 -4 4.73
3 -7 -4 0.75
3 7 -4 0.49
3 7 -4 0.43
-2 -7 4 1.62
2 -7 -4 2.76
-2 -7 4 0.16
2 7 -4 3.05
1 -7 -4 1.44
-1 -7 4 1.66
-1 -7 4 2.64
-1 -7 4 1.76
1 -7 -4 1.32
0 -7 -4 7.14
0 -7 4 7.68
0 -7 -4 8.28
0 -7 4 8.73
1 -7 4 4.84
-1 -7 -4 5.49
-1 -7 -4 7.80
1 -7 4 5.27
1 7 4 5.51
1 7 4 6.38
-2 -7 -4 1.72
-2 -7 -4 0.94
2 7 4 2.47
2 7 4 1.99
3 7 4 2.86
3 7 4 3.22
4 7 4 1.13
4 7 4 0.88
2 -8 -4 0.04
2 8 -4 0.92
1 -8 -4 0.67
-1 -8 4 0.15
0 -8 4 9.46
0 -8 -4 4.59
0 -8 -4 7.66
1 -8 4 1.70
1 8 4 0.36
2 -8 4 2.77
2 8 4 1.76
-7 0 5 -0.09
-7 0 5 0.48
7 0 -5 0.43
7 0 -5 0.77
6 0 -5 9.75
6 0 -5 7.25
-6 0 5 9.92
5 0 -5 3.79
5 0 -5 5.06
-5 0 5 4.31
-5 0 5 4.42
-4 0 5 0.03
4 0 -5 0.28
-4 0 5 0.64
4 0 -5 -0.08
3 0 -5 2.66
-3 0 5 1.95
3 0 -5 1.56
-3 0 5 2.41
-3 0 5 2.43
2 0 -5 15.03
-2 0 5 13.34
-2 0 5 13.93
2 0 -5 14.66
2 0 -5 15.19
-2 0 5 14.28
-1 0 5 8.09
1 0 -5 9.75
1 0 -5 9.58
-1 0 5 9.70
-1 0 5 9.85
-1 0 5 9.06
1 0 -5 8.97
0 0 5 3.10
0 0 -5 4.66
0 0 -5 3.50
0 0 5 3.23
0 0 -5 3.66
0 0 5 3.72
1 0 5 53.09
-1 0 -5 55.82
1 0 5 53.61
1 0 5 58.64
-1 0 -5 56.55
-1 0 -5 54.90
-2 0 -5 97.04
2 0 5 92.48
-2 0 -5 101.96
2 0 5 95.20
2 0 5 93.46
3 0 5 8.07
3 0 5 8.66
-3 0 -5 9.54
-3 0 -5 10.21
3 0 5 8.11
4 0 5 27.91
-4 0 -5 27.05
4 0 5 25.90
-4 0 -5 24.65
5 0 5 4.80
-5 0 -5 4.43
-5 0 -5 5.46
5 0 5 7.57
6 0 5 1.09
6 0 5 0.33
-6 0 -5 0.70
7 0 5 -0.30
7 -1 -5 2.24
-7 -1 5 1.87
7 -1 -5 4.34
7 1 -5 0.93
-7 1 5 2.07
7 1 -5 2.66
-6 -1 5 10.54
6 -1 -5 7.23
6 -1 -5 7.80
6 1 -5 5.63
-6 1 5 13.13
6 1 -5 6.61
-6 1 5 8.27
5 -1 -5 1.38
-5 -1 5 1.72
-5 -1 5 0.89
5 -1 -5 0.90
5 1 -5 1.22
-5 1 5 0.94
5 1 -5 1.62
-5 1 5 2.50
4 -1 -5 3.79
-4 -1 5 2.79
4 -1 -5 4.92
-4 -1 5 3.80
4 1 -5 3.91
-4 1 5 4.94
4 1 -5 3.46
-4 1 5 3.87
-3 -1 5 35.98
-3 -1 5 30.81
3 -1 -5 31.00
3 -1 -5 32.37
-3 -1 5 32.86
3 1 -5 34.85
-3 1 5 33.24
-3 1 5 31.31
3 1 -5 32.60
2 -1 -5 0.77
-2 -1 5 0.80
-2 -1 5 1.03
2 -1 -5 0.79
-2 -1 5 0.47
2 -1 -5 0.67
2 1 -5 0.44
2 1 -5 0.57
2 1 -5 0.77
-2 1 5 0.84
-2 1 5 0.86
-2 1 5 1.06
-2 1 5 0.49
1 -1 -5 49.70
1 -1 -5 53.91
1 -1 -5 54.94
-1 -1 5 48.90
-1 -1 5 52.82
1 -1 -5 50.32
-1 -1 5 54.28
-1 1 5 54.62
1 1 -5 54.31
-1 1 5 55.51
1 1 -5 53.01
-1 1 5 47.70
-1 1 5 52.64
1 1 -5 49.56
0 -1 -5 181.29
0 -1 -5 179.36
0 -1 -5 171.65
0 -1 5 184.31
0 -1 5 183.69
0 -1 5 174.64
0 1 5 188.54
0 1 5 179.91
0 1 -5 169.94
0 1 -5 181.58
0 1 5 189.80
-1 -1 -5 58.40
1 -1 5 58.61
-1 -1 -5 55.12
-1 -1 -5 55.93
1 -1 5 52.74
1 -1 5 52.73
-1 1 -5 55.04
1 1 5 52.61
-1 1 -5 55.08
1 1 5 59.84
1 1 5 55.01
2 -1 5 69.85
-2 -1 -5 71.47
2 -1 5 69.06
-2 -1 -5 72.67
2 1 5 67.22
-2 1 -5 66.76
2 1 5 68.83
-2 1 -5 71.96
2 1 5 64.51
-3 -1 -5 4.87
3 -1 5 5.07
3 -1 5 5.32
-3 -1 -5 5.26
3 1 5 4.59
3 1 5 3.50
-3 1 -5 6.47
3 1 5 4.69
-3 1 -5 5.49
-4 -1 -5 18.91
4 -1 5 16.82
-4 -1 -5 16.29
4 1 5 20.06
4 1 5 18.30
-4 1 -5 15.23
-4 1 -5 18.22
-5 -1 -5 36.99
-5 -1 -5 26.64
5 -1 5 27.91
5 1 5 32.48
5 1 5 29.05
-5 1 -5 28.36
-5 1 -5 30.72
6 -1 5 -0.12
-6 -1 -5 1.63
-6 1 -5 0.88
6 1 5 2.90
6 1 5 3.06
7 -1 5 -1.69
7 1 5 -1.19
-7 -2 5 -0.42
7 -2 -5 3.59
7 -2 -5 0.29
-7 2 5 0.87
7 2 -5 1.16
6 -2 -5 2.08
-6 -2 5 1.14
6 -2 -5 1.01
6 2 -5 0.48
-6 2 5 2.74
6 2 -5 1.07
-6 2 5 1.48
-6 2 5 2.56
-5 -2 5 27.32
5 -2 -5 21.96
5 -2 -5 24.06
-5 2 5 22.89
-5 2 5 23.74
-5 2 5 27.49
5 2 -5 21.91
5 2 -5 21.17
4 -2 -5 1.10
4 -2 -5 1.07
-4 -2 5 0.47
-4 -2 5 0.95
4 2 -5 1.09
4 2 -5 1.38
-4 2 5 0.72
-4 2 5 1.43
-4 2 5 0.79
3 -2 -5 1.34
3 -2 -5 1.31
-3 -2 5 1.55
-3 -2 5 1.81
3 2 -5 1.18
-3 2 5 0.82
-3 2 5 1.56
-3 2 5 0.77
3 2 -5 0.96
-2 -2 5 37.31
-2 -2 5 37.01
2 -2 -5 36.89
2 -2 -5 33.37
2 -2 -5 39.14
-2 -2 5 34.07
-2 2 5 33.97
-2 2 5 35.36
2 2 -5 38.93
2 2 -5 36.23
2 2 -5 39.04
-2 2 5 39.13
-2 2 5 35.43
2 2 -5 36.83
-1 -2 5 33.57
1 -2 -5 35.38
-1 -2 5 30.08
-1 -2 5 35.10
1 -2 -5 32.06
1 -2 -5 32.30
-1 -2 5 33.34
1 -2 -5 34.62
1 2 -5 34.84
-1 2 5 33.20
1 2 -5 34.31
-1 2 5 34.59
-1 2 5 34.07
1 2 -5 34.74
-1 2 5 32.31
0 -2 -5 61.52
0 -2 -5 64.25
0 -2 5 65.54
0 -2 5 62.89
0 -2 -5 60.42
0 -2 5 58.68
0 2 5 57.99
0 2 5 60.85
0 2 5 65.50
0 2 5 62.61
0 2 -5 63.21
-1 -2 -5 50.01
-1 -2 -5 45.15
-1 -2 -5 47.36
1 -2 5 46.04
1 -2 5 44.70
1 2 5 43.80
1 2 5 46.17
-1 2 -5 49.15
1 2 5 41.41
2 -2 5 38.07
2 -2 5 41.76
-2 -2 -5 42.00
-2 -2 -5 44.92
-2 -2 -5 43.56
2 2 5 37.42
-2 2 -5 38.16
2 2 5 43.23
2 2 5 37.76
-3 -2 -5 7.15
-3 -2 -5 7.93
3 -2 5 8.06
3 -2 5 9.59
-3 2 -5 8.21
3 2 5 7.97
3 2 5 10.23
3 2 5 7.93
-3 2 -5 7.43
-4 -2 -5 21.45
-4 -2 -5 23.79
4 -2 5 24.65
-4 2 -5 26.55
4 2 5 22.79
4 2 5 26.57
-4 2 -5 26.50
-5 -2 -5 9.36
5 -2 5 10.95
-5 2 -5 12.53
5 2 5 9.20
-5 2 -5 11.96
5 2 5 11.12
6 -2 5 -0.61
-6 -2 -5 0.65
-6 2 -5 -0.17
6 2 5 1.06
6 2 5 1.06
6 -3 -5 5.14
6 -3 -5 7.30
-6 -3 5 3.28
-6 3 5 4.37
6 3 -5 4.93
5 -3 -5 2.47
-5 -3 5 1.98
5 -3 -5 3.15
-5 3 5 1.31
-5 3 5 1.35
5 3 -5 1.92
5 3 -5 1.07
-5 3 5 2.18
4 -3 -5 38.98
-4 -3 5 39.57
-4 -3 5 40.62
4 -3 -5 39.29
4 3 -5 38.38
-4 3 5 36.84
4 3 -5 34.53
-4 3 5 41.63
-4 3 5 38.56
3 -3 -5 1.87
-3 -3 5 1.00
3 -3 -5 1.54
-3 -3 5 1.44
-3 3 5 1.19
3 3 -5 1.85
-3 3 5 1.51
-3 3 5 2.15
3 3 -5 1.58
2 -3 -5 8.44
2 -3 -5 7.22
-2 -3 5 8.00
2 -3 -5 8.13
2 -3 -5 8.02
-2 -3 5 8.46
-2 -3 5 6.69
2 3 -5 7.28
-2 3 5 7.12
2 3 -5 9.70
-2 3 5 8.70
-2 3 5 6.97
2 3 -5 6.85
-2 3 5 7.40
1 -3 -5 1.48
-1 -3 5 1.97
-1 -3 5 2.83
-1 -3 5 2.05
1 -3 -5 1.26
1 -3 -5 1.78
-1 -3 5 1.95
1 -3 -5 1.29
-1 3 5 2.31
1 3 -5 1.91
-1 3 5 1.69
1 3 -5 2.42
-1 3 5 1.89
-1 3 5 2.12
0 -3 -5 11.52
0 -3 5 11.74
0 -3 5 11.72
0 -3 5 11.60
0 -3 -5 11.77
0 -3 5 12.74
0 -3 -5 11.80
0 3 5 12.34
0 3 5 12.54
0 3 5 11.09
0 3 -5 13.30
0 3 5 12.35
1 -3 5 7.76
1 -3 5 5.68
-1 -3 -5 7.15
1 -3 5 7.71
-1 -3 -5 7.52
-1 -3 -5 9.00
1 3 5 6.19
1 3 5 6.98
1 3 5 7.47
-1 3 -5 7.01
1 3 5 6.24
2 -3 5 0.52
-2 -3 -5 1.34
2 -3 5 0.35
-2 -3 -5 0.87
-2 -3 -5 0.45
2 3 5 0.47
2 3 5 0.41
-2 3 -5 0.55
2 3 5 0.61
-3 -3 -5 7.26
3 -3 5 5.50
3 -3 5 6.55
-3 -3 -5 7.16
-3 3 -5 6.94
3 3 5 5.07
3 3 5 6.68
4 -3 5 14.08
-4 -3 -5 14.34
-4 -3 -5 14.08
-4 3 -5 10.53
4 3 5 13.05
4 3 5 11.40
-5 -3 -5 0.04
5 -3 5 1.80
-5 3 -5 1.48
5 3 5 0.17
5 3 5 1.16
6 -3 5 0.76
6 3 5 -0.38
6 -4 -5 0.01
-6 -4 5 0.54
-6 4 5 -0.26
6 4 -5 0.42
6 4 -5 1.13
5 -4 -5 -0.12
-5 -4 5 0.05
5 -4 -5 0.04
-5 4 5 0.14
5 4 -5 0.73
-5 4 5 0.60
5 4 -5 5.37
-5 4 5 -0.09
-4 -4 5 8.04
4 -4 -5 6.17
4 -4 -5 5.59
-4 4 5 6.33
4 4 -5 7.16
-4 4 5 6.23
4 4 -5 4.09
-4 4 5 7.01
-3 -4 5 4.48
3 -4 -5 5.29
3 -4 -5 5.88
-3 -4 5 5.77
-3 4 5 6.18
-3 4 5 4.72
3 4 -5 4.11
-3 4 5 5.83
3 4 -5 5.85
2 -4 -5 12.26
-2 -4 5 14.97
2 -4 -5 14.04
-2 -4 5 12.00
-2 -4 5 12.74
2 -4 -5 14.98
2 4 -5 14.54
-2 4 5 13.69
-2 4 5 15.60
2 4 -5 14.03
-2 4 5 14.80
1 -4 -5 12.39
-1 -4 5 16.68
-1 -4 5 13.68
-1 -4 5 14.61
1 -4 -5 14.94
-1 -4 5 16.50
1 -4 -5 12.30
1 -4 -5 15.38
1 4 -5 15.27
-1 4 5 14.74
-1 4 5 11.49
-1 4 5 13.47
1 4 -5 17.37
-1 4 5 15.51
0 -4 5 11.31
0 -4 -5 10.45
0 -4 5 12.04
0 -4 -5 10.96
0 -4 5 11.29
0 -4 -5 11.18
0 4 5 9.57
0 4 5 9.80
0 4 5 11.17
0 4 5 13.28
0 4 -5 11.54
1 -4 5 3.05
1 -4 5 3.70
-1 -4 -5 3.10
-1 -4 -5 1.61
-1 -4 -5 3.18
1 4 5 1.70
-1 4 -5 2.49
1 4 5 2.68
1 4 5 3.15
-2 -4 -5 3.94
2 -4 5 4.36
2 -4 5 4.59
-2 -4 -5 3.02
-2 -4 -5 3.31
-2 4 -5 2.79
2 4 5 3.63
2 4 5 4.91
2 4 5 4.56
2 4 5 4.02
-3 -4 -5 7.26
3 -4 5 9.25
-3 -4 -5 6.72
3 -4 5 8.65
-3 4 -5 7.92
3 4 5 9.02
3 4 5 7.70
-4 -4 -5 24.18
4 -4 5 23.49
4 4 5 24.77
4 4 5 24.43
-4 4 -5 19.94
5 -4 5 1.09
5 4 5 2.11
-5 4 -5 2.98
5 4 5 2.10
6 4 5 0.49
5 -5 -5 1.35
-5 -5 5 0.15
5 5 -5 1.03
-5 5 5 0.72
5 5 -5 -0.47
-4 -5 5 5.45
4 -5 -5 4.87
-4 5 5 4.37
4 5 -5 7.33
4 5 -5 6.32
-4 5 5 4.18
-3 -5 5 11.45
3 -5 -5 15.99
-3 -5 5 17.04
3 -5 -5 15.39
3 5 -5 13.95
-3 5 5 14.01
3 5 -5 12.04
-3 5 5 14.59
2 -5 -5 13.24
2 -5 -5 12.14
-2 -5 5 11.56
2 -5 -5 12.27
-2 -5 5 12.21
-2 -5 5 14.18
-2 5 5 13.67
2 5 -5 12.06
-2 5 5 12.97
-2 5 5 12.86
1 -5 -5 8.15
-1 -5 5 6.38
-1 -5 5 9.08
1 -5 -5 7.55
-1 -5 5 9.81
1 -5 -5 7.42
1 -5 -5 8.05
-1 -5 5 8.63
-1 5 5 8.76
1 5 -5 9.45
-1 5 5 5.97
-1 5 5 8.18
0 -5 -5 1.40
0 -5 5 1.43
0 -5 -5 3.14
0 -5 5 1.81
0 -5 -5 1.52
0 5 5 1.78
0 5 5 2.06
0 5 5 1.86
0 5 5 2.68
0 5 -5 2.45
1 -5 5 25.67
-1 -5 -5 18.33
1 -5 5 27.54
-1 -5 -5 26.73
-1 -5 -5 20.46
1 -5 5 23.75
1 5 5 21.88
1 5 5 22.76
1 5 5 24.17
-1 5 -5 22.24
-2 -5 -5 19.53
-2 -5 -5 20.89
-2 -5 -5 16.04
2 -5 5 21.12
2 -5 5 21.03
2 -5 5 20.55
2 5 5 19.11
2 5 5 19.50
-2 5 -5 19.20
2 5 5 18.17
3 -5 5 1.75
-3 -5 -5 1.49
-3 -5 -5 2.20
3 5 5 2.20
3 5 5 2.88
3 5 5 2.66
4 -5 5 4.40
-4 5 -5 6.22
4 5 5 4.73
4 5 5 7.16
4 5 5 8.12
5 5 5 0.74
5 -6 -5 3.35
5 6 -5 2.48
-5 6 5 4.40
5 6 -5 3.48
-4 -6 5 1.22
4 -6 -5 1.48
4 6 -5 0.33
-4 6 5 0.83
4 6 -5 1.18
3 -6 -5 0.94
-3 -6 5 1.20
-3 6 5 0.67
3 6 -5 1.04
-3 6 5 0.61
3 6 -5 1.42
-2 -6 5 1.28
2 -6 -5 0.04
-2 -6 5 1.75
-2 -6 5 1.93
-2 -6 5 1.50
2 -6 -5 1.48
2 -6 -5 0.93
2 6 -5 1.92
-1 -6 5 11.36
-1 -6 5 11.54
1 -6 -5 12.90
1 -6 -5 13.64
1 -6 -5 16.75
-1 -6 5 12.46
-1 -6 5 16.64
0 -6 -5 0.77
0 -6 5 1.41
0 -6 5 0.66
0 -6 5 0.41
0 -6 -5 0.19
0 -6 -5 0.48
0 6 5 0.96
0 6 5 0.43
0 6 5 0.75
-1 -6 -5 1.55
-1 -6 -5 1.86
1 -6 5 1.53
1 -6 5 1.71
-1 6 -5 1.60
1 6 5 1.38
1 6 5 1.72
-2 -6 -5 6.44
2 -6 5 8.18
-2 -6 -5 6.45
2 -6 5 8.01
-2 -6 -5 9.23
2 -6 5 6.91
2 -6 5 6.65
-2 6 -5 6.64
2 6 5 6.43
2 6 5 6.52
-3 -6 -5 2.45
3 6 5 1.97
3 6 5 3.52
-3 6 -5 1.23
4 6 5 3.16
5 6 5 0.49
5 6 5 1.12
4 -7 -5 1.30
4 7 -5 1.74
4 7 -5 1.04
3 -7 -5 0.72
3 7 -5 0.91
-2 -7 5 -0.11
-2 -7 5 -1.72
2 -7 -5 0.55
2 7 -5 0.74
-1 -7 5 0.55
-1 -7 5 0.55
1 -7 -5 0.28
-1 -7 5 1.11
1 -7 -5 0.61
0 -7 -5 4.53
0 -7 5 3.00
0 -7 -5 2.69
-1 -7 -5 4.21
-1 -7 -5 3.72
1 -7 5 3.45
1 7 5 6.00
1 7 5 3.69
-2 -7 -5 3.62
-2 -7 -5 -0.07
2 7 5 1.73
2 7 5 1.97
3 7 5 0.20
3 7 5 0.82
4 7 5 0.43
4 7 5 0.52
2 -8 -5 1.08
2 8 -5 1.79
1 -8 -5 3.88
0 -8 -5 0.32
0 -8 -5 -1.12
0 -8 5 0.25
1 -8 5 1.32
1 8 5 1.98
2 -8 5 -0.10
2 8 5 -0.01
2 8 5 0.24
7 0 -6 3.65
7 0 -6 2.65
-7 0 6 3.66
6 0 -6 13.61
6 0 -6 12.81
-6 0 6 12.97
-5 0 6 3.20
5 0 -6 1.63
5 0 -6 2.32
-5 0 6 1.45
4 0 -6 2.23
-4 0 6 1.77
-4 0 6 2.21
4 0 -6 1.37
-3 0 6 23.74
-3 0 6 22.63
-3 0 6 21.61
3 0 -6 21.94
3 0 -6 22.16
3 0 -6 20.21
-2 0 6 0.06
2 0 -6 0.16
2 0 -6 0.26
2 0 -6 0.35
-2 0 6 0.02
-2 0 6 0.09
-1 0 6 37.17
1 0 -6 39.48
-1 0 6 39.02
1 0 -6 40.83
-1 0 6 44.58
-1 0 6 39.63
0 0 -6 135.54
0 0 -6 137.03
0 0 -6 125.47
0 0 6 135.43
0 0 6 131.87
0 0 6 128.95
1 0 6 1.43
1 0 6 1.85
-1 0 -6 1.32
-1 0 -6 0.57
1 0 6 0.47
-1 0 -6 1.56
-2 0 -6 6.06
2 0 6 3.83
2 0 6 4.55
2 0 6 5.15
-2 0 -6 5.13
-3 0 -6 11.64
3 0 6 12.05
3 0 6 12.28
3 0 6 12.76
-3 0 -6 13.63
4 0 6 134.51
4 0 6 113.12
4 0 6 131.05
-4 0 -6 127.67
-4 0 -6 131.11
-5 0 -6 5.45
5 0 6 9.26
5 0 6 7.01
-5 0 -6 6.38
6 0 6 4.91
-6 0 -6 4.71
7 0 6 3.41
7 -1 -6 2.04
7 -1 -6 -0.04
-7 -1 6 2.57
7 1 -6 1.15
7 1 -6 0.51
-7 1 6 0.75
6 -1 -6 9.29
-6 -1 6 7.78
6 -1 -6 10.34
6 1 -6 8.14
-6 1 6 8.27
-6 1 6 8.20
6 1 -6 7.04
5 -1 -6 6.44
-5 -1 6 8.70
-5 -1 6 8.19
5 -1 -6 5.63
5 1 -6 7.41
-5 1 6 9.69
5 1 -6 8.76
-5 1 6 6.48
-4 -1 6 31.40
4 -1 -6 29.99
4 -1 -6 34.58
-4 -1 6 36.80
-4 1 6 32.83
-4 1 6 28.67
4 1 -6 30.75
4 1 -6 33.48
-3 -1 6 9.64
3 -1 -6 7.10
-3 -1 6 10.36
3 -1 -6 10.02
3 -1 -6 8.34
-3 -1 6 8.98
-3 1 6 10.38
-3 1 6 10.20
-3 1 6 8.67
3 1 -6 9.04
-3 1 6 10.69
3 1 -6 9.48
3 1 -6 10.47
-2 -1 6 27.24
2 -1 -6 24.29
-2 -1 6 25.13
2 -1 -6 28.17
2 -1 -6 25.65
-2 -1 6 28.91
-2 1 6 25.49
2 1 -6 25.82
2 1 -6 26.16
2 1 -6 28.46
2 1 -6 24.28
-2 1 6 25.99
-2 1 6 26.86
-2 1 6 27.52
-1 -1 6 31.20
1 -1 -6 31.50
-1 -1 6 34.09
1 -1 -6 33.33
1 -1 -6 32.50
-1 -1 6 29.99
-1 1 6 28.15
1 1 -6 31.20
1 1 -6 29.68
-1 1 6 33.55
-1 1 6 30.77
1 1 -6 28.92
-1 1 6 28.86
0 -1 -6 3.91
0 -1 6 3.33
0 -1 6 2.24
0 -1 -6 4.04
0 -1 -6 3.90
0 -1 6 3.09
0 1 -6 3.34
0 1 6 3.97
0 1 6 3.13
0 1 6 3.57
0 1 -6 4.33
1 -1 6 28.20
1 -1 6 29.94
-1 -1 -6 27.56
1 -1 6 26.20
-1 -1 -6 29.34
-1 -1 -6 29.49
-1 1 -6 31.66
-1 1 -6 30.12
1 1 6 27.69
1 1 6 28.71
1 1 6 25.66
2 -1 6 24.76
2 -1 6 26.98
-2 -1 -6 29.26
2 -1 6 27.09
-2 -1 -6 31.34
-2 1 -6 24.41
2 1 6 24.75
2 1 6 23.38
-2 1 -6 26.88
2 1 6 28.73
-3 -1 -6 17.38
-3 -1 -6 18.59
3 -1 6 17.60
3 -1 6 18.53
3 1 6 14.91
3 1 6 15.74
-3 1 -6 16.23
3 1 6 16.77
-3 1 -6 16.55
-4 -1 -6 1.43
4 -1 6 0.43
4 -1 6 1.68
-4 -1 -6 0.90
4 1 6 1.20
4 1 6 0.54
-4 1 -6 0.70
4 1 6 1.49
-4 1 -6 1.31
-5 -1 -6 0.55
5 -1 6 1.59
-5 -1 -6 1.44
-5 1 -6 1.89
5 1 6 1.31
5 1 6 2.09
-5 1 -6 0.50
6 -1 6 1.84
-6 -1 -6 1.65
6 1 6 0.64
6 1 6 2.11
-6 1 -6 2.97
7 -2 -6 1.09
7 -2 -6 1.08
-7 -2 6 0.00
-7 2 6 0.25
7 2 -6 3.23
-6 -2 6 0.47
6 -2 -6 1.74
6 -2 -6 2.25
-6 2 6 0.15
6 2 -6 0.47
-6 2 6 0.78
6 2 -6 3.39
-6 2 6 0.47
5 -2 -6 2.13
5 -2 -6 3.03
-5 -2 6 3.88
-5 2 6 2.40
-5 2 6 2.43
5 2 -6 2.02
-5 2 6 2.18
5 2 -6 1.40
4 -2 -6 20.14
-4 -2 6 22.53
4 -2 -6 21.12
-4 -2 6 21.89
4 2 -6 20.87
4 2 -6 22.41
-4 2 6 21.74
-4 2 6 20.76
-4 2 6 19.25
-3 -2 6 2.11
-3 -2 6 2.13
-3 -2 6 1.69
3 -2 -6 3.35
3 -2 -6 3.02
3 -2 -6 3.14
-3 2 6 3.16
3 2 -6 2.52
-3 2 6 2.71
-3 2 6 2.64
3 2 -6 2.10
3 2 -6 2.63
-2 -2 6 144.91
2 -2 -6 141.06
-2 -2 6 134.37
2 -2 -6 140.51
2 -2 -6 137.32
-2 -2 6 137.20
-2 2 6 133.97
-2 2 6 146.62
2 2 -6 140.67
2 2 -6 138.41
-2 2 6 140.87
2 2 -6 142.31
-2 2 6 148.78
2 2 -6 143.13
-1 -2 6 87.64
1 -2 -6 78.97
1 -2 -6 81.61
-1 -2 6 81.81
1 -2 -6 86.78
1 -2 -6 79.99
-1 -2 6 82.47
-1 -2 6 84.88
-1 2 6 83.38
1 2 -6 76.53
-1 2 6 91.51
1 2 -6 83.75
-1 2 6 81.38
-1 2 6 83.22
1 2 -6 82.58
0 -2 -6 4.13
0 -2 6 3.95
0 -2 6 4.49
0 -2 -6 5.31
0 -2 6 4.65
0 -2 -6 2.99
0 2 6 5.47
0 2 6 5.49
0 2 6 4.68
0 2 6 3.83
0 2 -6 3.73
1 -2 6 5.70
1 -2 6 5.73
-1 -2 -6 6.63
1 -2 6 5.50
-1 -2 -6 5.88
-1 -2 -6 5.15
1 2 6 5.74
-1 2 -6 5.54
1 2 6 6.04
1 2 6 7.15
-2 -2 -6 13.36
2 -2 6 14.43
-2 -2 -6 15.30
2 -2 6 11.38
-2 -2 -6 14.59
2 2 6 11.73
-2 2 -6 13.10
2 2 6 11.19
2 2 6 10.56
-3 -2 -6 7.01
3 -2 6 8.72
3 -2 6 8.30
3 2 6 6.90
3 2 6 8.97
-3 2 -6 6.97
3 2 6 5.51
-3 2 -6 7.37
4 -2 6 13.21
-4 -2 -6 13.49
4 -2 6 12.38
-4 -2 -6 11.75
-4 2 -6 10.09
4 2 6 10.84
4 2 6 13.94
-4 2 -6 12.97
5 -2 6 8.63
-5 -2 -6 8.43
5 2 6 6.52
-5 2 -6 7.51
5 2 6 8.72
-5 2 -6 7.20
6 -2 6 3.44
-6 -2 -6 2.22
6 2 6 2.03
6 2 6 2.95
-6 -3 6 2.12
6 -3 -6 0.70
6 -3 -6 1.21
-6 3 6 1.01
6 3 -6 1.28
5 -3 -6 8.67
5 -3 -6 4.44
-5 -3 6 5.91
-5 3 6 5.25
-5 3 6 4.41
5 3 -6 5.82
-5 3 6 6.16
5 3 -6 3.94
-4 -3 6 15.90
4 -3 -6 16.29
4 -3 -6 13.01
-4 -3 6 16.78
4 3 -6 13.36
-4 3 6 15.94
-4 3 6 15.58
-4 3 6 14.62
4 3 -6 13.88
4 3 -6 17.10
-3 -3 6 14.30
3 -3 -6 15.95
-3 -3 6 12.65
3 -3 -6 11.51
-3 -3 6 13.01
-3 3 6 15.35
-3 3 6 13.66
3 3 -6 13.17
3 3 -6 14.52
3 3 -6 11.73
-3 3 6 13.15
-2 -3 6 9.06
2 -3 -6 10.11
-2 -3 6 9.68
2 -3 -6 10.91
2 -3 -6 9.42
2 -3 -6 9.57
-2 -3 6 10.62
-2 3 6 10.13
2 3 -6 10.12
-2 3 6 9.58
2 3 -6 9.32
-2 3 6 10.92
-2 3 6 10.31
2 3 -6 11.90
-1 -3 6 0.33
1 -3 -6 0.75
1 -3 -6 1.14
1 -3 -6 0.36
-1 -3 6 0.53
-1 -3 6 1.51
1 -3 -6 0.88
-1 3 6 0.93
-1 3 6 0.31
1 3 -6 0.76
-1 3 6 1.04
1 3 -6 0.20
-1 3 6 1.00
0 -3 -6 9.95
0 -3 6 8.99
0 -3 -6 10.31
0 -3 6 9.13
0 -3 -6 10.35
0 -3 6 10.39
0 -3 6 8.07
0 3 6 9.00
0 3 6 9.58
0 3 -6 10.05
0 3 6 9.63
0 3 6 10.88
-1 -3 -6 1.07
-1 -3 -6 1.67
1 -3 6 1.87
-1 -3 -6 1.61
1 -3 6 1.79
1 -3 6 2.16
-1 3 -6 1.06
1 3 6 0.60
1 3 6 1.46
1 3 6 1.50
1 3 6 1.94
2 -3 6 19.87
2 -3 6 20.68
-2 -3 -6 19.35
-2 -3 -6 20.30
-2 -3 -6 21.30
2 3 6 22.31
-2 3 -6 22.84
2 3 6 21.99
2 3 6 17.04
3 -3 6 5.46
-3 -3 -6 3.59
3 -3 6 4.17
-3 -3 -6 4.67
3 3 6 3.91
-3 3 -6 5.83
3 3 6 3.81
3 3 6 5.22
-4 -3 -6 22.60
-4 -3 -6 15.07
4 -3 6 19.43
4 3 6 17.34
4 3 6 18.22
-4 3 -6 16.18
5 -3 6 1.73
-5 -3 -6 1.03
5 3 6 1.32
5 3 6 1.42
-5 3 -6 0.43
6 -3 6 1.09
6 3 6 0.86
6 -4 -6 11.52
-6 -4 6 11.12
6 4 -6 6.69
6 4 -6 11.12
-6 4 6 7.95
-5 -4 6 -0.78
5 -4 -6 0.65
5 -4 -6 -0.32
5 4 -6 0.48
-5 4 6 0.16
5 4 -6 0.22
-5 4 6 -0.14
-4 -4 6 0.75
4 -4 -6 0.14
4 -4 -6 -0.82
4 4 -6 0.13
-4 4 6 0.73
-4 4 6 0.32
-4 4 6 0.87
4 4 -6 0.96
-3 -4 6 2.63
3 -4 -6 1.57
-3 -4 6 1.94
3 -4 -6 3.23
-3 4 6 2.13
-3 4 6 2.66
3 4 -6 2.63
-3 4 6 2.06
2 -4 -6 44.22
2 -4 -6 41.56
2 -4 -6 46.43
-2 -4 6 43.50
-2 -4 6 44.96
2 -4 -6 42.83
-2 -4 6 46.50
-2 4 6 41.56
2 4 -6 45.92
-2 4 6 42.77
2 4 -6 42.81
-2 4 6 42.36
2 4 -6 44.31
1 -4 -6 16.70
1 -4 -6 16.61
-1 -4 6 16.35
1 -4 -6 15.19
-1 -4 6 17.17
-1 -4 6 17.22
1 -4 -6 13.67
-1 -4 6 17.66
-1 4 6 17.63
-1 4 6 18.06
-1 4 6 16.20
1 4 -6 15.24
1 4 -6 14.74
-1 4 6 14.08
0 -4 6 36.86
0 -4 -6 32.43
0 -4 -6 34.22
0 -4 6 36.66
0 -4 6 33.93
0 -4 6 35.95
0 -4 -6 34.21
0 4 -6 38.81
0 4 6 34.37
0 4 6 33.87
0 4 6 34.14
0 4 6 38.61
1 -4 6 10.30
1 -4 6 13.30
-1 -4 -6 11.05
-1 -4 -6 14.57
1 -4 6 13.77
-1 -4 -6 11.29
-1 4 -6 12.16
1 4 6 13.38
1 4 6 12.97
1 4 6 12.59
1 4 6 11.82
-2 -4 -6 14.99
-2 -4 -6 18.06
2 -4 6 15.96
2 -4 6 14.48
-2 -4 -6 15.81
2 4 6 13.51
-2 4 -6 14.01
2 4 6 16.71
2 4 6 18.05
2 4 6 14.92
3 -4 6 7.99
-3 -4 -6 8.98
3 -4 6 12.56
-3 -4 -6 10.51
3 4 6 11.80
-3 4 -6 11.52
3 4 6 9.55
-4 -4 -6 10.51
4 -4 6 12.17
4 4 6 12.52
4 4 6 10.75
-4 4 -6 10.67
5 -4 6 -0.04
5 4 6 1.59
6 4 6 0.37
5 -5 -6 -0.09
-5 -5 6 2.40
5 5 -6 0.23
5 5 -6 -0.02
-5 5 6 1.16
4 -5 -6 1.85
4 -5 -6 1.81
-4 -5 6 2.82
4 5 -6 1.45
-4 5 6 1.22
-4 5 6 1.27
4 5 -6 1.35
-4 5 6 1.39
3 -5 -6 3.68
3 -5 -6 4.86
-3 -5 6 4.21
-3 -5 6 3.65
-3 5 6 3.92
3 5 -6 4.12
-3 5 6 4.35
-3 5 6 4.43
3 5 -6 2.31
2 -5 -6 41.29
-2 -5 6 44.93
-2 -5 6 42.96
-2 -5 6 43.36
2 -5 -6 40.71
2 -5 -6 38.53
-2 5 6 41.37
-2 5 6 44.06
2 5 -6 41.82
-1 -5 6 1.73
-1 -5 6 1.30
1 -5 -6 1.91
-1 -5 6 1.85
-1 -5 6 1.56
1 -5 -6 0.74
1 -5 -6 1.85
1 -5 -6 1.46
-1 5 6 0.76
1 5 -6 2.56
-1 5 6 2.03
1 5 -6 2.60
0 -5 -6 2.83
0 -5 6 2.37
0 -5 6 4.14
0 -5 6 4.45
0 -5 -6 3.14
0 -5 6 3.25
0 -5 -6 2.25
0 5 6 4.16
0 5 6 3.70
0 5 -6 3.98
0 5 6 3.52
0 5 6 4.58
1 -5 6 32.35
1 -5 6 29.80
-1 -5 -6 24.88
-1 -5 -6 25.40
1 -5 6 29.73
-1 -5 -6 32.31
1 5 6 30.63
1 5 6 31.22
1 5 6 28.68
1 5 6 30.48
-1 5 -6 31.83
-2 -5 -6 7.68
2 -5 6 11.39
-2 -5 -6 8.76
2 -5 6 9.75
2 -5 6 10.63
-2 -5 -6 11.04
-2 5 -6 8.78
2 5 6 11.38
2 5 6 12.62
-3 -5 -6 -0.37
3 -5 6 0.80
-3 -5 -6 0.40
3 5 6 0.09
3 5 6 0.23
-3 5 -6 0.17
3 5 6 1.95
4 -5 6 0.82
4 5 6 0.39
4 5 6 1.03
4 5 6 1.67
5 5 6 0.76
5 -6 -6 3.11
5 6 -6 2.79
5 6 -6 2.73
-5 6 6 2.14
4 -6 -6 8.71
-4 -6 6 6.68
-4 6 6 6.34
4 6 -6 6.25
4 6 -6 6.63
3 -6 -6 2.64
-3 -6 6 2.62
3 6 -6 2.77
-3 6 6 1.97
-3 6 6 2.26
3 6 -6 3.25
-2 -6 6 12.83
-2 -6 6 14.45
-2 -6 6 14.98
2 -6 -6 14.73
2 -6 -6 12.42
-2 -6 6 9.96
2 -6 -6 11.16
2 6 -6 15.08
-2 6 6 11.33
1 -6 -6 7.53
-1 -6 6 7.87
1 -6 -6 8.23
1 -6 -6 8.07
-1 -6 6 7.66
-1 -6 6 4.82
-1 -6 6 7.42
-1 6 6 8.68
0 -6 -6 1.14
0 -6 -6 0.82
0 -6 -6 1.57
0 -6 6 0.61
0 -6 6 -1.10
0 -6 6 1.34
0 6 6 0.12
0 6 6 1.03
0 6 6 1.82
0 6 -6 1.69
-1 -6 -6 21.37
1 -6 6 24.95
-1 -6 -6 23.80
-1 -6 -6 24.09
1 -6 6 23.20
1 6 6 21.10
1 6 6 21.57
1 6 6 21.22
2 -6 6 11.72
-2 -6 -6 8.94
2 -6 6 13.01
2 -6 6 13.65
-2 -6 -6 10.35
2 6 6 14.40
2 6 6 12.41
2 6 6 13.19
-3 -6 -6 6.49
3 6 6 7.14
3 6 6 10.03
4 6 6 3.16
4 6 6 2.16
4 7 -6 0.36
3 -7 -6 1.33
3 7 -6 1.38
2 -7 -6 3.35
2 7 -6 2.40
1 -7 -6 3.04
-1 -7 6 1.35
-1 -7 6 1.00
1 -7 -6 1.43
0 -7 -6 4.78
0 -7 6 3.10
0 -7 -6 4.50
1 -7 6 1.89
-1 -7 -6 0.76
-1 -7 -6 1.49
1 7 6 2.03
1 7 6 2.65
-2 -7 -6 7.81
2 7 6 7.41
2 7 6 6.14
3 7 6 1.96
3 7 6 2.19
2 -8 -6 1.97
1 -8 -6 2.63
0 -8 -6 2.71
1 -8 6 -0.44
1 8 6 2.20
2 8 6 0.70
-7 0 7 7.41
7 0 -7 7.46
7 0 -7 3.28
6 0 -7 4.16
-6 0 7 3.41
6 0 -7 3.87
-5 0 7 3.21
-5 0 7 3.39
5 0 -7 1.92
5 0 -7 2.37
-4 0 7 -0.08
4 0 -7 0.95
4 0 -7 0.99
-4 0 7 -0.02
3 0 -7 39.10
3 0 -7 32.87
3 0 -7 35.41
-3 0 7 37.59
-3 0 7 34.11
-3 0 7 33.87
-2 0 7 3.45
2 0 -7 4.27
2 0 -7 4.29
-2 0 7 4.91
-2 0 7 4.21
-2 0 7 3.81
-1 0 7 0.10
1 0 -7 0.16
-1 0 7 0.14
-1 0 7 0.33
1 0 -7 0.32
-1 0 7 0.25
0 0 7 11.60
0 0 7 10.46
0 0 -7 11.35
0 0 -7 11.24
0 0 7 11.09
0 0 -7 11.46
-1 0 -7 8.31
-1 0 -7 7.02
1 0 7 8.95
1 0 7 8.63
1 0 7 6.51
-1 0 -7 7.34
2 0 7 27.84
-2 0 -7 30.09
-2 0 -7 30.65
2 0 7 28.26
2 0 7 28.01
3 0 7 7.37
-3 0 -7 6.64
3 0 7 6.87
3 0 7 5.62
-3 0 -7 7.01
-4 0 -7 34.01
4 0 7 26.52
4 0 7 36.17
-4 0 -7 27.56
4 0 7 28.41
5 0 7 11.63
5 0 7 12.70
-5 0 -7 12.65
-5 0 -7 12.17
-6 0 -7 0.30
6 0 7 0.56
7 -1 -7 2.23
7 -1 -7 -0.04
-7 -1 7 3.92
7 1 -7 2.07
-7 1 7 4.85
6 -1 -7 5.85
-6 -1 7 4.13
6 -1 -7 4.04
6 1 -7 5.57
-6 1 7 7.34
6 1 -7 6.43
5 -1 -7 5.19
-5 -1 7 5.27
-5 -1 7 5.30
5 -1 -7 4.38
-5 1 7 4.22
5 1 -7 4.63
5 1 -7 3.92
-5 1 7 5.24
-4 -1 7 0.89
4 -1 -7 0.34
-4 -1 7 0.50
4 -1 -7 -0.35
-4 1 7 0.34
4 1 -7 0.74
4 1 -7 0.43
-4 1 7 0.65
-4 1 7 0.64
-3 -1 7 28.30
-3 -1 7 35.42
3 -1 -7 36.85
3 -1 -7 34.18
3 -1 -7 33.19
-3 -1 7 32.45
-3 1 7 34.68
3 1 -7 32.88
-3 1 7 32.56
3 1 -7 34.75
-3 1 7 34.63
-3 1 7 35.92
3 1 -7 32.26
2 -1 -7 75.67
-2 -1 7 72.50
-2 -1 7 71.89
-2 -1 7 78.95
2 -1 -7 78.11
-2 1 7 80.92
-2 1 7 81.29
2 1 -7 76.55
-2 1 7 75.49
2 1 -7 75.11
2 1 -7 72.75
-2 1 7 70.32
2 1 -7 75.30
-1 -1 7 17.89
1 -1 -7 19.19
-1 -1 7 18.00
-1 -1 7 16.79
-1 -1 7 16.97
1 -1 -7 15.85
1 -1 -7 18.31
-1 1 7 16.95
-1 1 7 18.17
1 1 -7 17.62
-1 1 7 17.31
1 1 -7 17.64
-1 1 7 16.27
0 -1 -7 13.82
0 -1 -7 15.00
0 -1 7 13.94
0 -1 -7 12.95
0 -1 7 12.25
0 -1 7 14.29
0 1 7 14.26
0 1 7 13.17
0 1 -7 14.03
0 1 7 13.25
0 1 -7 14.94
-1 -1 -7 25.07
1 -1 7 24.34
-1 -1 -7 25.96
1 -1 7 24.20
-1 -1 -7 28.96
1 -1 7 24.57
-1 1 -7 27.59
1 1 7 24.92
1 1 7 23.92
1 1 7 26.91
-1 1 -7 26.38
-2 -1 -7 16.23
2 -1 7 17.73
2 -1 7 15.98
-2 -1 -7 17.65
2 -1 7 15.25
-2 -1 -7 17.58
-2 1 -7 18.23
2 1 7 16.63
-2 1 -7 16.78
2 1 7 15.56
2 1 7 16.13
-3 -1 -7 13.03
-3 -1 -7 13.79
3 -1 7 12.99
3 -1 7 10.99
3 -1 7 11.86
3 1 7 13.81
-3 1 -7 13.10
-3 1 -7 13.08
3 1 7 9.39
3 1 7 11.12
-4 -1 -7 3.27
4 -1 7 2.59
4 -1 7 3.23
-4 -1 -7 2.16
4 -1 7 2.63
-4 1 -7 2.30
4 1 7 4.53
-4 1 -7 2.17
4 1 7 2.11
4 1 7 3.98
-5 -1 -7 1.83
5 -1 7 -0.99
5 -1 7 0.95
-5 1 -7 1.35
-5 1 -7 1.92
5 1 7 2.17
5 1 7 2.49
6 -1 7 1.80
-6 -1 -7 3.65
6 1 7 1.90
-6 1 -7 1.65
6 -2 -7 0.51
6 -2 -7 0.00
-6 -2 7 0.65
-6 2 7 -0.03
-6 2 7 0.48
6 2 -7 -0.26
6 2 -7 0.55
-6 2 7 1.14
5 -2 -7 36.38
5 -2 -7 35.67
-5 -2 7 35.33
5 2 -7 40.14
5 2 -7 37.00
-5 2 7 39.80
-5 2 7 37.98
-5 2 7 31.79
4 -2 -7 27.70
-4 -2 7 25.87
-4 -2 7 23.66
4 -2 -7 24.65
4 2 -7 19.50
4 2 -7 24.52
-4 2 7 28.53
-4 2 7 27.00
-4 2 7 22.43
3 -2 -7 1.45
3 -2 -7 1.52
3 -2 -7 2.89
-3 -2 7 1.46
-3 -2 7 1.39
-3 -2 7 1.80
-3 2 7 1.47
-3 2 7 1.28
3 2 -7 1.22
-3 2 7 2.75
-3 2 7 1.60
3 2 -7 2.02
3 2 -7 1.56
3 2 -7 2.35
2 -2 -7 39.66
-2 -2 7 37.49
2 -2 -7 35.71
-2 -2 7 37.88
-2 -2 7 36.63
2 -2 -7 39.23
-2 2 7 33.64
-2 2 7 41.06
2 2 -7 37.17
2 2 -7 40.44
-2 2 7 39.21
-2 2 7 38.50
2 2 -7 38.78
2 2 -7 35.64
-1 -2 7 600.41
-1 -2 7 576.55
1 -2 -7 624.30
-1 -2 7 600.97
-1 -2 7 640.94
1 -2 -7 608.77
1 -2 -7 601.89
-1 2 7 577.65
-1 2 7 607.61
-1 2 7 584.22
1 2 -7 578.75
-1 2 7 602.99
1 2 -7 609.83
0 -2 -7 82.60
0 -2 7 82.97
0 -2 7 81.49
0 -2 -7 89.99
0 -2 7 83.66
0 -2 7 81.22
0 -2 -7 75.31
0 2 7 83.89
0 2 7 84.86
0 2 -7 85.42
0 2 7 81.55
0 2 7 83.89
-1 -2 -7 30.85
1 -2 7 27.75
-1 -2 -7 27.23
1 -2 7 24.97
-1 -2 -7 27.45
1 -2 7 26.29
1 2 7 29.48
1 2 7 26.87
-1 2 -7 26.86
1 2 7 28.76
2 -2 7 0.78
2 -2 7 0.40
-2 -2 -7 0.43
-2 -2 -7 1.24
2 -2 7 0.93
-2 -2 -7 0.79
2 2 7 0.60
-2 2 -7 0.25
2 2 7 0.68
2 2 7 0.19
-3 -2 -7 19.33
-3 -2 -7 19.26
3 -2 7 19.16
3 -2 7 17.25
3 2 7 17.41
3 2 7 18.20
-3 2 -7 19.89
-3 2 -7 16.58
3 2 7 16.83
4 -2 7 7.92
-4 -2 -7 6.05
-4 -2 -7 4.57
4 -2 7 6.35
4 2 7 4.48
4 2 7 6.29
-4 2 -7 4.42
-4 2 -7 6.19
4 2 7 6.70
5 -2 7 1.10
-5 -2 -7 1.52
-5 2 -7 1.66
5 2 7 2.12
-5 2 -7 1.22
5 2 7 1.82
6 -2 7 1.87
6 2 7 -0.25
6 -3 -7 0.82
6 -3 -7 0.23
-6 -3 7 -0.18
6 3 -7 0.78
-6 3 7 0.20
5 -3 -7 3.64
-5 -3 7 3.94
5 -3 -7 4.46
5 3 -7 3.22
5 3 -7 1.21
-5 3 7 4.59
-5 3 7 3.10
5 3 -7 2.49
-5 3 7 3.49
-4 -3 7 13.30
4 -3 -7 11.13
-4 -3 7 10.00
4 -3 -7 12.57
-4 3 7 12.00
-4 3 7 13.61
4 3 -7 13.74
-4 3 7 13.22
4 3 -7 13.78
4 3 -7 15.27
-3 -3 7 5.20
3 -3 -7 4.84
3 -3 -7 6.32
3 -3 -7 5.05
-3 -3 7 5.66
-3 -3 7 5.53
3 3 -7 5.96
-3 3 7 7.15
-3 3 7 6.49
3 3 -7 5.22
-3 3 7 6.28
3 3 -7 6.41
3 3 -7 6.75
-2 -3 7 19.44
-2 -3 7 19.57
2 -3 -7 17.48
2 -3 -7 18.87
-2 -3 7 18.56
2 -3 -7 18.67
2 -3 -7 19.25
2 3 -7 22.87
2 3 -7 18.02
-2 3 7 18.16
-2 3 7 21.83
-2 3 7 21.23
-2 3 7 18.48
-1 -3 7 9.18
-1 -3 7 10.75
1 -3 -7 10.29
1 -3 -7 10.66
1 -3 -7 11.33
-1 -3 7 10.52
1 -3 -7 11.15
-1 -3 7 9.41
-1 3 7 9.70
-1 3 7 9.76
1 3 -7 11.54
-1 3 7 10.75
-1 3 7 11.27
0 -3 -7 25.89
0 -3 7 25.39
0 -3 7 31.05
0 -3 -7 30.17
0 -3 7 29.94
0 -3 7 26.09
0 -3 -7 27.20
0 3 7 28.59
0 3 -7 30.45
0 3 7 28.56
0 3 7 27.43
0 3 7 29.01
-1 -3 -7 18.85
-1 -3 -7 16.84
-1 -3 -7 15.76
1 -3 7 20.37
1 -3 7 18.13
1 -3 7 18.79
1 -3 7 17.66
1 3 7 19.06
1 3 7 20.79
-1 3 -7 18.75
1 3 7 17.10
1 3 7 16.32
-2 -3 -7 14.21
2 -3 7 13.73
2 -3 7 14.41
-2 -3 -7 13.07
-2 -3 -7 14.49
-2 3 -7 15.51
2 3 7 15.38
2 3 7 15.34
2 3 7 15.87
-3 -3 -7 41.49
3 -3 7 44.60
3 -3 7 41.45
-3 -3 -7 46.14
3 3 7 39.89
3 3 7 36.46
3 3 7 41.96
-3 3 -7 37.94
-4 -3 -7 1.11
4 -3 7 1.40
4 -3 7 1.14
4 3 7 1.84
-4 3 -7 0.61
4 3 7 1.89
5 -3 7 3.10
5 3 7 2.18
-5 3 -7 3.80
5 3 7 4.41
6 -3 7 -0.49
6 3 7 0.12
6 -4 -7 5.30
-6 -4 7 5.55
-6 4 7 4.91
6 4 -7 5.68
6 4 -7 7.10
5 -4 -7 3.96
5 -4 -7 3.66
-5 -4 7 4.20
5 4 -7 5.16
-5 4 7 4.01
5 4 -7 3.92
-5 4 7 4.00
4 -4 -7 0.62
-4 -4 7 1.16
4 -4 -7 1.27
4 4 -7 1.64
-4 4 7 1.75
4 4 -7 0.69
-4 4 7 2.01
-4 4 7 0.94
-3 -4 7 5.29
-3 -4 7 3.56
3 -4 -7 5.01
3 -4 -7 6.10
-3 -4 7 5.03
-3 4 7 5.38
3 4 -7 3.77
-3 4 7 4.48
3 4 -7 5.71
-3 4 7 4.77
2 -4 -7 15.44
2 -4 -7 14.99
-2 -4 7 17.36
2 -4 -7 16.90
-2 -4 7 15.98
2 -4 -7 14.07
-2 -4 7 14.40
-2 4 7 14.69
2 4 -7 16.32
-2 4 7 15.23
-2 4 7 17.54
2 4 -7 15.38
-2 4 7 18.26
1 -4 -7 5.22
-1 -4 7 4.48
-1 -4 7 7.06
1 -4 -7 5.53
-1 -4 7 6.09
-1 -4 7 6.05
1 -4 -7 5.60
1 -4 -7 5.59
1 4 -7 5.61
-1 4 7 5.58
-1 4 7 5.05
-1 4 7 4.71
-1 4 7 6.21
0 -4 -7 14.34
0 -4 -7 13.29
0 -4 -7 15.31
0 -4 7 14.26
0 -4 7 12.48
0 -4 7 14.93
0 -4 7 15.07
0 4 7 13.14
0 4 7 15.51
0 4 -7 16.16
0 4 7 15.35
0 4 7 15.38
1 -4 7 58.22
1 -4 7 54.81
1 -4 7 58.24
-1 -4 -7 57.35
-1 -4 -7 61.37
-1 -4 -7 65.25
1 -4 7 57.07
1 4 7 54.63
-1 4 -7 59.18
1 4 7 57.91
1 4 7 60.73
1 4 7 56.22
2 -4 7 -0.15
-2 -4 -7 -0.52
-2 -4 -7 0.24
-2 -4 -7 0.20
2 -4 7 0.07
2 4 7 0.36
2 4 7 0.02
-2 4 -7 -0.13
2 4 7 0.06
2 4 7 -0.04
3 -4 7 4.61
3 -4 7 4.87
-3 -4 -7 4.84
-3 -4 -7 6.30
-3 -4 -7 4.08
3 4 7 5.19
3 4 7 6.48
3 4 7 4.66
-3 4 -7 4.20
4 -4 7 3.68
-4 -4 -7 3.28
-4 4 -7 3.51
4 4 7 3.82
4 4 7 3.64
5 -4 7 6.22
5 4 7 5.17
5 -5 -7 1.85
-5 -5 7 1.23
-5 5 7 2.54
5 5 -7 0.42
5 5 -7 1.52
4 -5 -7 4.10
-4 -5 7 2.87
4 -5 -7 1.59
-4 5 7 2.85
-4 5 7 2.12
4 5 -7 2.23
4 5 -7 3.17
3 -5 -7 2.02
-3 -5 7 2.12
3 -5 -7 2.04
-3 5 7 1.82
3 5 -7 1.86
-3 5 7 0.91
3 5 -7 2.82
-3 5 7 1.86
2 -5 -7 1.26
-2 -5 7 0.59
-2 -5 7 0.27
2 -5 -7 -0.05
2 -5 -7 1.00
-2 -5 7 1.01
-2 5 7 0.66
-2 5 7 0.46
2 5 -7 0.59
-2 5 7 0.66
1 -5 -7 5.70
-1 -5 7 7.87
1 -5 -7 6.87
-1 -5 7 7.40
-1 -5 7 8.60
1 -5 -7 8.17
-1 -5 7 6.51
1 -5 -7 7.75
1 5 -7 8.32
-1 5 7 8.02
-1 5 7 7.39
-1 5 7 5.63
-1 5 7 6.56
0 -5 -7 1.13
0 -5 7 1.31
0 -5 -7 2.00
0 -5 7 0.96
0 -5 -7 2.74
0 -5 7 2.46
0 -5 7 1.72
0 5 -7 2.36
0 5 7 1.69
0 5 7 1.99
0 5 7 2.19
1 -5 7 17.14
-1 -5 -7 12.88
-1 -5 -7 17.26
-1 -5 -7 16.53
1 -5 7 17.32
1 -5 7 18.33
1 -5 7 18.60
1 5 7 17.27
1 5 7 16.65
1 5 7 16.15
1 5 7 15.50
-1 5 -7 17.86
-2 -5 -7 14.76
2 -5 7 15.61
2 -5 7 15.35
-2 -5 -7 15.34
2 -5 7 15.28
-2 -5 -7 17.28
2 5 7 17.16
2 5 7 15.71
2 5 7 15.35
2 5 7 16.27
-2 5 -7 15.52
3 -5 7 3.94
-3 -5 -7 2.08
-3 -5 -7 3.42
3 -5 7 4.22
3 5 7 4.67
3 5 7 3.11
-3 5 -7 2.62
3 5 7 4.14
4 5 7 -0.31
4 5 7 -0.48
5 5 7 2.85
4 -6 -7 2.65
-4 -6 7 2.27
4 6 -7 1.24
4 6 -7 1.97
-4 6 7 2.49
3 -6 -7 2.54
-3 -6 7 0.35
-3 6 7 1.77
-3 6 7 1.42
3 6 -7 2.13
-3 6 7 1.16
2 -6 -7 0.52
2 -6 -7 -0.03
-2 -6 7 1.21
2 -6 -7 -0.40
-2 6 7 -0.13
2 6 -7 -0.55
-2 6 7 -0.06
-2 6 7 -0.06
1 -6 -7 4.13
-1 -6 7 4.71
-1 -6 7 5.49
-1 -6 7 5.20
1 -6 -7 6.42
-1 6 7 6.41
-1 6 7 5.25
-1 6 7 5.39
0 -6 7 0.65
0 -6 -7 0.29
0 -6 -7 0.22
0 -6 7 0.94
0 -6 7 0.59
0 -6 -7 0.94
0 6 7 0.25
0 6 7 1.03
0 6 7 0.76
0 6 7 0.09
0 6 -7 1.02
-1 -6 -7 1.48
1 -6 7 1.28
-1 -6 -7 0.82
-1 -6 -7 1.54
1 6 7 1.22
-1 6 -7 0.51
1 6 7 1.59
1 6 7 0.18
-2 -6 -7 5.30
2 -6 7 5.19
-2 -6 -7 2.85
2 -6 7 5.59
2 6 7 5.77
2 6 7 5.03
2 6 7 7.77
-2 6 -7 7.74
-3 -6 -7 2.98
3 6 7 3.03
3 6 7 4.46
4 6 7 1.61
4 6 7 2.58
3 -7 -7 -0.25
3 7 -7 1.19
2 -7 -7 0.72
2 7 -7 1.60
1 -7 -7 1.91
1 -7 -7 -0.77
0 -7 7 4.51
0 -7 7 5.01
0 -7 -7 7.46
-1 -7 -7 2.34
-1 -7 -7 0.07
1 7 7 2.22
1 7 7 1.46
-2 -7 -7 3.10
2 7 7 4.22
2 7 7 2.71
3 7 7 1.92
3 7 7 0.73
1 -8 -7 4.22
0 -8 -7 1.20
1 8 7 3.04
-6 0 8 1.66
6 0 -8 -0.54
6 0 -8 0.55
-5 0 8 0.83
-5 0 8 1.41
5 0 -8 1.70
5 0 -8 1.30
4 0 -8 4.94
-4 0 8 6.23
-4 0 8 6.35
4 0 -8 5.55
3 0 -8 2.68
3 0 -8 2.10
-3 0 8 1.44
3 0 -8 3.12
-3 0 8 2.70
-3 0 8 1.67
-2 0 8 5.07
-2 0 8 4.48
-2 0 8 4.46
2 0 -8 5.17
2 0 -8 4.51
-2 0 8 5.28
2 0 -8 4.36
1 0 -8 5.23
-1 0 8 7.38
-1 0 8 7.85
-1 0 8 6.10
-1 0 8 6.86
1 0 -8 6.21
0 0 -8 2.55
0 0 -8 2.75
0 0 -8 2.65
0 0 8 2.38
0 0 8 2.55
0 0 8 2.82
1 0 8 103.51
-1 0 -8 104.72
-1 0 -8 96.01
1 0 8 96.70
1 0 8 100.06
-1 0 -8 95.47
2 0 8 18.24
2 0 8 19.37
-2 0 -8 23.98
2 0 8 21.38
-2 0 -8 22.60
3 0 8 31.42
-3 0 -8 32.91
3 0 8 26.63
-3 0 -8 27.01
3 0 8 27.07
4 0 8 20.55
-4 0 -8 24.62
-4 0 -8 23.56
4 0 8 25.14
4 0 8 26.86
5 0 8 30.65
-5 0 -8 36.17
5 0 8 37.89
6 0 8 1.75
-6 0 -8 0.17
6 -1 -8 7.87
6 -1 -8 11.28
-6 -1 8 10.87
-6 1 8 8.55
6 1 -8 9.25
6 1 -8 9.20
-6 1 8 6.59
-5 -1 8 0.32
5 -1 -8 -0.60
5 -1 -8 0.41
-5 1 8 0.26
-5 1 8 0.28
-5 1 8 0.59
5 1 -8 2.28
5 1 -8 0.17
4 -1 -8 0.14
-4 -1 8 0.88
4 -1 -8 0.60
-4 -1 8 -0.08
-4 1 8 0.59
-4 1 8 -0.09
4 1 -8 1.12
4 1 -8 1.27
-4 1 8 1.05
3 -1 -8 4.59
3 -1 -8 5.49
-3 -1 8 3.98
-3 -1 8 4.32
3 -1 -8 3.92
-3 1 8 4.28
3 1 -8 4.69
-3 1 8 4.81
3 1 -8 4.43
-3 1 8 4.90
3 1 -8 4.18
-3 1 8 3.45
2 -1 -8 3.44
2 -1 -8 4.40
-2 -1 8 3.63
2 -1 -8 4.14
-2 -1 8 4.72
-2 1 8 4.02
2 1 -8 4.89
-2 1 8 4.11
-2 1 8 4.75
2 1 -8 3.45
2 1 -8 4.71
-2 1 8 3.87
1 -1 -8 6.80
1 -1 -8 11.22
1 -1 -8 10.51
-1 -1 8 7.61
-1 -1 8 8.25
-1 -1 8 10.40
-1 -1 8 10.00
1 1 -8 8.30
1 1 -8 9.78
-1 1 8 9.38
-1 1 8 9.07
-1 1 8 7.62
-1 1 8 8.55
0 -1 8 36.04
0 -1 -8 38.26
0 -1 -8 38.84
0 -1 8 36.93
0 -1 -8 39.52
0 -1 8 38.58
0 1 8 35.69
0 1 -8 40.49
0 1 -8 36.31
0 1 8 40.85
0 1 8 38.58
-1 -1 -8 0.59
-1 -1 -8 0.22
1 -1 8 -0.49
1 -1 8 0.47
1 -1 8 -0.16
-1 -1 -8 0.55
1 1 8 -0.21
-1 1 -8 0.84
1 1 8 0.13
1 1 8 0.72
-1 1 -8 -0.14
-2 -1 -8 27.56
-2 -1 -8 25.34
-2 -1 -8 24.86
2 -1 8 21.96
2 -1 8 25.82
2 -1 8 25.07
2 1 8 21.36
-2 1 -8 22.86
2 1 8 25.24
2 1 8 29.55
-2 1 -8 26.08
3 -1 8 28.61
3 -1 8 25.33
-3 -1 -8 27.73
-3 -1 -8 26.68
3 -1 8 23.38
3 1 8 23.33
-3 1 -8 27.90
3 1 8 28.54
-3 1 -8 24.65
3 1 8 26.41
4 -1 8 13.02
4 -1 8 14.08
-4 -1 -8 16.25
-4 -1 -8 12.42
4 -1 8 15.78
4 1 8 13.97
4 1 8 15.89
-4 1 -8 13.33
-4 1 -8 12.40
4 1 8 13.81
-5 -1 -8 3.37
5 -1 8 1.66
5 1 8 3.51
5 1 8 2.73
-5 1 -8 2.52
6 -1 8 -0.19
-6 -1 -8 0.49
-6 1 -8 1.17
6 1 8 3.22
6 -2 -8 4.13
-6 -2 8 2.33
6 -2 -8 2.09
-6 2 8 3.44
-6 2 8 3.00
6 2 -8 2.55
6 2 -8 1.75
5 -2 -8 22.82
-5 -2 8 27.03
5 -2 -8 23.61
-5 2 8 25.90
-5 2 8 23.63
5 2 -8 25.33
-5 2 8 21.36
5 2 -8 26.88
-4 -2 8 3.43
-4 -2 8 4.61
4 -2 -8 2.48
4 -2 -8 2.63
4 2 -8 3.20
4 2 -8 3.91
-4 2 8 3.70
4 2 -8 2.91
-4 2 8 3.90
-4 2 8 4.01
-3 -2 8 1.25
-3 -2 8 1.83
-3 -2 8 1.13
3 -2 -8 2.18
3 -2 -8 1.73
3 2 -8 1.59
-3 2 8 1.00
-3 2 8 1.45
-3 2 8 1.87
3 2 -8 0.39
-3 2 8 1.83
3 2 -8 1.39
3 2 -8 0.58
-2 -2 8 10.61
2 -2 -8 9.94
-2 -2 8 9.28
2 -2 -8 10.36
2 -2 -8 9.46
-2 -2 8 10.39
-2 2 8 11.72
-2 2 8 9.87
-2 2 8 10.31
-2 2 8 9.93
2 2 -8 10.44
2 2 -8 10.19
2 2 -8 9.92
-1 -2 8 24.05
1 -2 -8 24.54
-1 -2 8 21.60
-1 -2 8 21.62
1 -2 -8 25.63
-1 -2 8 25.57
1 -2 -8 24.19
-1 2 8 24.28
1 2 -8 21.52
-1 2 8 25.31
-1 2 8 24.87
-1 2 8 23.07
1 2 -8 26.39
0 -2 -8 51.62
0 -2 -8 52.75
0 -2 8 47.98
0 -2 -8 51.99
0 -2 8 50.45
0 -2 8 46.93
0 -2 8 50.22
0 2 8 46.81
0 2 8 47.28
0 2 8 47.65
0 2 8 47.49
0 2 -8 50.23
1 -2 8 4.01
-1 -2 -8 5.84
1 -2 8 4.29
-1 -2 -8 4.66
-1 -2 -8 4.74
1 -2 8 3.74
1 2 8 3.53
-1 2 -8 5.66
1 2 8 4.44
1 2 8 5.60
2 -2 8 1.51
-2 -2 -8 1.46
-2 -2 -8 1.61
-2 -2 -8 1.63
2 -2 8 0.67
2 -2 8 1.75
2 2 8 1.61
2 2 8 1.74
-2 2 -8 1.51
2 2 8 1.79
3 -2 8 4.15
-3 -2 -8 3.18
3 -2 8 2.31
-3 -2 -8 3.94
3 -2 8 2.85
-3 2 -8 3.10
-3 2 -8 3.09
3 2 8 2.24
3 2 8 2.60
3 2 8 2.54
4 -2 8 6.63
-4 -2 -8 6.38
-4 -2 -8 8.16
4 -2 8 5.54
4 -2 8 7.44
-4 2 -8 5.58
4 2 8 4.40
4 2 8 5.09
4 2 8 7.62
-4 2 -8 7.82
-5 -2 -8 3.59
5 -2 8 2.76
-5 2 -8 3.34
5 2 8 1.76
5 2 8 2.79
-5 2 -8 1.58
6 -2 8 2.39
6 2 8 3.66
6 -3 -8 0.85
-6 -3 8 0.11
6 -3 -8 -0.10
-6 3 8 0.82
6 3 -8 0.88
6 3 -8 1.77
5 -3 -8 1.48
-5 -3 8 0.97
5 -3 -8 0.99
-5 3 8 2.54
5 3 -8 3.04
-5 3 8 3.59
-5 3 8 0.58
5 3 -8 1.78
5 3 -8 1.98
-4 -3 8 1.83
4 -3 -8 2.06
4 3 -8 2.20
4 3 -8 1.91
-4 3 8 2.05
-4 3 8 2.62
4 3 -8 3.09
-4 3 8 2.34
-3 -3 8 1.56
-3 -3 8 1.46
3 -3 -8 0.34
3 -3 -8 1.16
-3 -3 8 0.94
-3 3 8 0.27
3 3 -8 2.21
3 3 -8 1.22
-3 3 8 1.72
3 3 -8 1.62
-3 3 8 1.11
3 3 -8 1.44
-3 3 8 1.37
2 -3 -8 17.79
2 -3 -8 17.35
2 -3 -8 19.88
-2 -3 8 18.05
-2 -3 8 19.40
2 -3 -8 20.35
-2 -3 8 19.92
-2 3 8 16.03
2 3 -8 17.94
2 3 -8 20.52
-2 3 8 19.49
-2 3 8 17.59
-2 3 8 18.47
-1 -3 8 3.73
-1 -3 8 3.19
-1 -3 8 2.99
1 -3 -8 1.83
1 -3 -8 3.29
-1 -3 8 4.14
1 -3 -8 2.98
-1 3 8 3.90
-1 3 8 2.50
1 3 -8 2.60
-1 3 8 3.01
-1 3 8 3.47
0 -3 8 30.81
0 -3 8 33.62
0 -3 -8 31.16
0 -3 8 32.73
0 -3 8 29.77
0 -3 -8 33.37
0 -3 -8 34.57
0 3 8 30.69
0 3 8 32.51
0 3 8 32.48
0 3 8 33.30
0 3 -8 34.76
-1 -3 -8 14.77
1 -3 8 16.53
-1 -3 -8 14.97
1 -3 8 13.92
1 -3 8 13.87
1 -3 8 16.51
-1 -3 -8 14.05
1 3 8 16.75
1 3 8 13.30
1 3 8 15.46
-1 3 -8 13.88
1 3 8 15.47
2 -3 8 13.00
2 -3 8 13.63
-2 -3 -8 16.10
-2 -3 -8 9.82
2 -3 8 11.08
-2 -3 -8 13.28
-2 3 -8 11.44
2 3 8 15.51
2 3 8 11.12
2 3 8 12.56
3 -3 8 60.98
3 -3 8 52.66
-3 -3 -8 58.17
-3 -3 -8 58.76
3 3 8 59.37
3 3 8 51.38
3 3 8 53.42
-3 3 -8 60.57
-4 -3 -8 9.73
4 -3 8 10.67
4 -3 8 11.09
4 3 8 14.29
-4 3 -8 11.40
4 3 8 11.87
4 3 8 8.61
5 -3 8 3.66
-5 3 -8 2.88
5 3 8 4.13
5 3 8 3.79
6 -3 8 0.36
6 3 8 0.15
-6 -4 8 1.58
6 -4 -8 4.36
6 4 -8 0.94
6 4 -8 3.54
-6 4 8 2.26
-5 -4 8 3.25
5 -4 -8 2.72
5 4 -8 1.61
-5 4 8 3.42
5 4 -8 2.31
-5 4 8 2.63
4 -4 -8 2.14
4 -4 -8 3.39
-4 -4 8 5.29
4 4 -8 3.12
-4 4 8 4.02
4 4 -8 3.07
-4 4 8 2.70
-4 4 8 2.84
3 -4 -8 26.69
3 -4 -8 28.92
-3 -4 8 26.52
-3 -4 8 27.97
-3 -4 8 24.70
3 -4 -8 28.71
-3 4 8 28.88
3 4 -8 24.38
-3 4 8 29.37
3 4 -8 26.07
-3 4 8 30.17
2 -4 -8 15.00
2 -4 -8 16.23
-2 -4 8 14.01
-2 -4 8 17.04
2 -4 -8 16.83
2 -4 -8 17.41
-2 4 8 18.03
-2 4 8 18.01
-2 4 8 18.85
2 4 -8 19.26
2 4 -8 17.44
-2 4 8 17.96
-1 -4 8 3.84
-1 -4 8 3.21
1 -4 -8 3.54
-1 -4 8 2.26
1 -4 -8 3.61
1 -4 -8 3.24
-1 -4 8 2.71
-1 4 8 4.80
-1 4 8 4.06
-1 4 8 3.16
1 4 -8 4.15
-1 4 8 4.20
0 -4 8 24.72
0 -4 8 26.33
0 -4 -8 20.79
0 -4 8 25.68
0 -4 -8 24.68
0 -4 -8 22.08
0 -4 8 24.21
0 4 8 23.74
0 4 8 24.35
0 4 8 24.63
0 4 8 22.80
0 4 -8 26.61
1 -4 8 13.61
-1 -4 -8 13.67
-1 -4 -8 12.25
1 -4 8 12.77
-1 -4 -8 13.14
1 -4 8 14.29
1 -4 8 15.67
1 4 8 10.41
1 4 8 12.12
1 4 8 15.70
-1 4 -8 11.27
1 4 8 12.18
-2 -4 -8 0.48
2 -4 8 1.14
-2 -4 -8 0.29
-2 -4 -8 1.39
2 -4 8 0.28
2 4 8 1.17
-2 4 -8 1.17
2 4 8 1.23
2 4 8 1.10
2 4 8 1.94
-3 -4 -8 0.63
3 -4 8 0.51
3 -4 8 0.43
-3 -4 -8 1.44
-3 4 -8 0.13
3 4 8 0.04
3 4 8 0.07
3 4 8 0.48
4 -4 8 3.63
4 -4 8 6.47
-4 -4 -8 2.95
-4 4 -8 6.51
4 4 8 5.63
4 4 8 5.25
5 -4 8 1.07
5 4 8 0.58
-5 -5 8 2.05
5 -5 -8 3.65
5 5 -8 1.64
5 5 -8 1.39
-5 5 8 3.49
4 -5 -8 1.31
-4 -5 8 2.88
4 -5 -8 2.42
4 5 -8 2.08
-4 5 8 2.65
4 5 -8 2.28
-4 5 8 1.60
3 -5 -8 0.97
-3 -5 8 0.78
3 -5 -8 1.53
-3 5 8 0.86
3 5 -8 0.06
-3 5 8 0.97
-3 5 8 0.91
2 -5 -8 3.43
2 -5 -8 3.80
-2 -5 8 5.24
-2 -5 8 4.68
-2 -5 8 4.02
2 -5 -8 3.37
2 -5 -8 3.93
-2 5 8 3.42
2 5 -8 4.49
2 5 -8 6.41
-2 5 8 4.46
-2 5 8 3.79
-1 -5 8 0.97
1 -5 -8 0.59
1 -5 -8 0.63
-1 -5 8 0.80
1 -5 -8 0.45
-1 -5 8 1.59
-1 -5 8 1.05
-1 5 8 0.80
-1 5 8 1.09
1 5 -8 0.85
-1 5 8 -0.06
-1 5 8 1.39
0 -5 8 5.38
0 -5 -8 4.45
0 -5 8 4.94
0 -5 -8 3.21
0 -5 8 4.86
0 -5 -8 5.90
0 -5 8 4.47
0 5 8 5.51
0 5 8 3.79
0 5 8 5.47
0 5 8 5.96
0 5 -8 7.82
-1 -5 -8 3.50
1 -5 8 7.69
1 -5 8 8.11
1 -5 8 5.56
1 -5 8 7.25
-1 -5 -8 7.18
1 -5 8 5.07
-1 -5 -8 5.18
-1 5 -8 6.84
1 5 8 6.15
1 5 8 6.81
1 5 8 4.59
1 5 8 6.43
2 -5 8 2.05
-2 -5 -8 -0.13
-2 -5 -8 1.52
2 -5 8 -0.01
2 -5 8 1.78
-2 -5 -8 0.74
2 5 8 1.07
2 5 8 1.50
2 5 8 1.78
-2 5 -8 2.02
2 5 8 0.66
3 -5 8 1.38
-3 -5 -8 1.35
3 -5 8 1.71
-3 -5 -8 -0.12
3 5 8 1.41
3 5 8 1.39
3 5 8 1.57
-3 5 -8 0.72
4 5 8 4.62
4 5 8 3.73
5 5 8 1.33
4 -6 -8 4.48
4 6 -8 1.25
-4 6 8 2.77
4 6 -8 2.11
3 -6 -8 0.45
3 -6 -8 0.35
-3 -6 8 2.23
-3 6 8 1.12
3 6 -8 0.42
-3 6 8 0.60
2 -6 -8 0.65
-2 -6 8 0.93
2 -6 -8 0.57
2 -6 -8 0.24
-2 6 8 0.06
-2 6 8 0.45
2 6 -8 0.49
1 -6 -8 0.02
-1 -6 8 0.68
1 -6 -8 1.20
1 -6 -8 0.60
-1 -6 8 0.95
-1 -6 8 0.24
-1 6 8 0.54
-1 6 8 1.66
-1 6 8 0.84
1 6 -8 1.91
0 -6 8 2.94
0 -6 8 1.55
0 -6 8 1.33
0 -6 -8 1.12
0 -6 -8 2.15
0 -6 -8 3.41
0 6 8 1.83
0 6 8 1.84
0 6 8 0.68
0 6 8 3.61
0 6 -8 2.30
-1 -6 -8 2.38
-1 -6 -8 3.64
1 -6 8 2.30
-1 -6 -8 2.81
1 -6 8 4.02
1 -6 8 0.58
1 -6 8 1.87
1 6 8 5.19
1 6 8 3.30
1 6 8 2.46
1 6 8 3.45
-2 -6 -8 6.00
2 -6 8 3.61
-2 -6 -8 3.85
2 -6 8 5.15
2 6 8 4.77
2 6 8 3.88
2 6 8 5.28
-3 -6 -8 0.77
3 6 8 0.21
3 6 8 0.90
4 6 8 -0.27
4 6 8 1.00
3 -7 -8 1.51
3 7 -8 0.19
2 -7 -8 3.27
1 -7 -8 4.81
1 -7 -8 4.79
0 -7 -8 -1.49
0 -7 -8 2.05
0 7 8 1.39
-1 -7 -8 6.63
1 -7 8 4.82
1 7 8 5.07
1 7 8 7.84
-2 -7 -8 0.95
2 7 8 -0.06
2 7 8 0.03
3 7 8 -0.10
3 7 8 0.05
6 0 -9 0.10
-6 0 9 0.08
6 0 -9 0.54
-5 0 9 -0.82
5 0 -9 -0.38
5 0 -9 0.43
-5 0 9 -0.39
-4 0 9 27.75
4 0 -9 30.13
-4 0 9 26.58
4 0 -9 30.18
4 0 -9 28.29
-4 0 9 26.18
-3 0 9 3.19
-3 0 9 2.96
3 0 -9 3.58
3 0 -9 2.36
-3 0 9 2.08
-3 0 9 2.21
-2 0 9 1.66
-2 0 9 1.62
-2 0 9 1.94
-2 0 9 0.97
2 0 -9 2.62
2 0 -9 2.22
-1 0 9 0.27
-1 0 9 0.45
-1 0 9 -0.21
-1 0 9 0.03
1 0 -9 0.42
1 0 -9 -0.12
0 0 9 2.05
0 0 -9 1.74
0 0 9 1.93
0 0 9 2.00
0 0 -9 1.81
0 0 -9 2.39
-1 0 -9 51.10
1 0 9 49.95
1 0 9 54.02
-1 0 -9 49.31
-1 0 -9 47.26
1 0 9 50.06
2 0 9 -0.02
2 0 9 -0.07
-2 0 -9 0.64
-2 0 -9 -0.37
2 0 9 0.10
3 0 9 5.56
-3 0 -9 4.20
3 0 9 7.45
-3 0 -9 5.45
3 0 9 4.64
4 0 9 18.12
-4 0 -9 19.43
-4 0 -9 18.87
4 0 9 19.50
4 0 9 16.00
-5 0 -9 0.53
5 0 9 0.63
5 0 9 1.16
6 0 9 -0.65
-6 0 -9 0.32
-6 -1 9 5.19
6 -1 -9 4.39
6 -1 -9 4.44
6 1 -9 4.18
6 1 -9 3.11
-6 1 9 4.83
-6 1 9 4.25
5 -1 -9 7.52
5 -1 -9 9.50
-5 -1 9 9.93
5 1 -9 10.21
-5 1 9 8.96
5 1 -9 9.55
-5 1 9 8.99
-5 1 9 11.03
-4 -1 9 1.25
4 -1 -9 -0.14
4 -1 -9 -0.10
-4 -1 9 0.46
-4 -1 9 1.04
4 -1 -9 0.73
-4 1 9 1.17
4 1 -9 0.79
4 1 -9 0.37
-4 1 9 0.94
-4 1 9 0.36
4 1 -9 1.00
-4 1 9 0.18
-3 -1 9 0.41
3 -1 -9 0.74
-3 -1 9 0.45
-3 -1 9 0.66
3 -1 -9 0.65
3 1 -9 1.13
-3 1 9 1.11
3 1 -9 1.25
-3 1 9 0.25
3 1 -9 0.64
-3 1 9 0.72
-3 1 9 0.33
-2 -1 9 19.55
2 -1 -9 19.49
-2 -1 9 20.21
-2 -1 9 17.80
-2 -1 9 17.56
2 -1 -9 20.79
-2 1 9 17.13
-2 1 9 20.27
-2 1 9 20.26
2 1 -9 16.49
-2 1 9 17.42
2 1 -9 19.25
2 1 -9 19.56
-1 -1 9 8.86
1 -1 -9 7.67
-1 -1 9 8.59
1 -1 -9 10.00
-1 -1 9 9.07
1 -1 -9 9.53
-1 -1 9 10.21
-1 1 9 11.03
1 1 -9 8.88
-1 1 9 8.97
-1 1 9 10.56
-1 1 9 9.99
1 1 -9 9.70
0 -1 9 0.84
0 -1 -9 1.15
0 -1 9 1.00
0 -1 -9 0.67
0 -1 9 1.04
0 -1 -9 0.46
0 -1 9 1.03
0 1 9 0.90
0 1 -9 0.94
0 1 9 1.04
0 1 9 1.61
0 1 -9 0.84
1 -1 9 21.30
1 -1 9 18.98
-1 -1 -9 20.37
1 -1 9 21.47
-1 -1 -9 22.66
-1 -1 -9 24.15
-1 1 -9 20.44
1 1 9 20.09
1 1 9 17.98
1 1 9 23.02
-1 1 -9 19.32
2 -1 9 3.16
-2 -1 -9 4.33
-2 -1 -9 3.10
2 -1 9 4.19
2 -1 9 4.30
-2 -1 -9 5.87
2 1 9 5.84
-2 1 -9 4.77
-2 1 -9 4.89
2 1 9 4.37
2 1 9 5.10
3 -1 9 5.44
3 -1 9 4.78
-3 -1 -9 4.99
-3 -1 -9 4.95
3 -1 9 6.51
3 1 9 3.72
-3 1 -9 4.78
3 1 9 4.28
3 1 9 4.91
-3 1 -9 6.45
4 -1 9 11.60
-4 -1 -9 10.41
4 -1 9 12.37
4 -1 9 11.32
-4 -1 -9 11.44
-4 1 -9 11.89
4 1 9 12.66
-4 1 -9 15.42
4 1 9 12.04
4 1 9 12.47
-5 -1 -9 4.67
5 -1 9 6.01
5 -1 9 2.29
5 1 9 2.50
-5 1 -9 2.96
5 1 9 2.92
5 1 9 4.81
6 -1 9 -0.22
-6 -1 -9 -2.84
6 1 9 -0.56
6 -2 -9 4.77
-6 -2 9 6.31
6 -2 -9 6.41
-6 2 9 7.84
6 2 -9 6.51
6 2 -9 10.20
-6 2 9 7.13
5 -2 -9 2.52
-5 -2 9 2.04
5 -2 -9 1.92
-5 2 9 1.65
5 2 -9 2.23
-5 2 9 1.05
5 2 -9 1.82
-5 2 9 2.05
-4 -2 9 35.77
-4 -2 9 31.36
-4 -2 9 31.85
4 -2 -9 29.93
4 2 -9 32.90
-4 2 9 34.24
-4 2 9 29.51
4 2 -9 35.93
4 2 -9 27.49
-4 2 9 35.60
-3 -2 9 0.23
-3 -2 9 0.08
3 -2 -9 -0.36
3 -2 -9 0.03
3 -2 -9 0.51
-3 -2 9 0.45
3 2 -9 0.73
-3 2 9 0.78
3 2 -9 -0.04
3 2 -9 0.59
-3 2 9 0.27
-3 2 9 0.80
-3 2 9 0.35
3 2 -9 0.30
-2 -2 9 4.23
-2 -2 9 5.70
-2 -2 9 7.00
2 -2 -9 6.87
2 -2 -9 5.58
2 -2 -9 6.61
-2 2 9 5.92
-2 2 9 7.49
2 2 -9 6.17
-2 2 9 6.19
-2 2 9 6.08
2 2 -9 5.97
2 2 -9 6.32
1 -2 -9 15.86
1 -2 -9 15.59
-1 -2 9 15.37
-1 -2 9 16.28
1 -2 -9 17.13
-1 -2 9 13.05
-1 -2 9 14.73
-1 -2 9 18.92
-1 2 9 16.07
1 2 -9 16.45
-1 2 9 18.62
-1 2 9 16.84
1 2 -9 15.94
-1 2 9 16.56
0 -2 -9 8.91
0 -2 9 10.36
0 -2 9 10.34
0 -2 9 8.43
0 -2 -9 11.56
0 -2 9 9.23
0 -2 -9 10.30
0 2 -9 10.03
0 2 9 10.77
0 2 9 9.59
0 2 9 9.54
0 2 9 9.98
-1 -2 -9 9.57
1 -2 9 10.48
-1 -2 -9 9.33
-1 -2 -9 10.33
1 -2 9 8.62
1 -2 9 9.87
1 2 9 10.54
1 2 9 9.34
-1 2 -9 9.69
1 2 9 10.31
2 -2 9 16.28
2 -2 9 11.58
-2 -2 -9 12.35
-2 -2 -9 15.25
-2 -2 -9 13.56
2 -2 9 13.37
-2 2 -9 18.65
2 2 9 13.71
2 2 9 16.66
2 2 9 16.46
3 -2 9 14.16
-3 -2 -9 12.72
3 -2 9 9.45
3 -2 9 12.38
-3 -2 -9 11.67
3 2 9 14.94
-3 2 -9 13.20
3 2 9 11.33
-3 2 -9 12.79
3 2 9 12.20
4 -2 9 1.59
-4 -2 -9 3.29
4 -2 9 1.41
4 2 9 2.41
-4 2 -9 1.94
-4 2 -9 0.93
4 2 9 1.73
4 2 9 1.21
5 -2 9 0.31
-5 -2 -9 1.05
5 -2 9 1.32
5 2 9 0.60
-5 2 -9 1.69
5 2 9 1.02
-5 2 -9 -0.18
6 -2 9 2.18
6 2 9 1.65
-6 -3 9 1.84
6 -3 -9 0.88
-6 3 9 1.57
6 3 -9 2.21
6 3 -9 2.24
5 -3 -9 4.68
-5 -3 9 6.13
5 3 -9 4.88
-5 3 9 7.41
-5 3 9 6.16
-5 3 9 5.28
5 3 -9 5.61
5 3 -9 4.85
4 -3 -9 0.30
4 -3 -9 0.52
-4 -3 9 0.55
4 3 -9 0.72
-4 3 9 0.34
4 3 -9 0.09
-4 3 9 0.12
4 3 -9 0.33
-4 3 9 0.88
3 -3 -9 32.32
-3 -3 9 28.79
3 -3 -9 30.48
-3 -3 9 32.65
3 -3 -9 30.76
-3 -3 9 33.61
-3 3 9 33.31
-3 3 9 32.07
3 3 -9 34.74
3 3 -9 29.25
3 3 -9 37.74
-3 3 9 32.04
-3 3 9 31.98
-2 -3 9 -0.11
2 -3 -9 0.23
-2 -3 9 0.99
2 -3 -9 -0.02
2 -3 -9 -0.47
2 -3 -9 0.52
-2 -3 9 0.15
-2 3 9 -0.02
2 3 -9 0.08
-2 3 9 0.19
2 3 -9 0.56
-2 3 9 -0.24
2 3 -9 0.75
-2 3 9 -0.05
-1 -3 9 8.38
-1 -3 9 8.74
-1 -3 9 10.78
1 -3 -9 9.28
1 -3 -9 8.87
1 -3 -9 8.15
-1 -3 9 9.70
-1 3 9 9.99
-1 3 9 9.52
-1 3 9 9.30
1 3 -9 8.99
-1 3 9 8.65
0 -3 9 8.12
0 -3 -9 9.00
0 -3 9 9.65
0 -3 9 8.37
0 -3 -9 10.15
0 -3 9 7.43
0 -3 9 8.95
0 -3 -9 6.92
0 3 -9 9.36
0 3 9 8.81
0 3 9 7.35
0 3 9 8.88
0 3 9 8.11
-1 -3 -9 4.24
1 -3 9 5.21
-1 -3 -9 3.39
1 -3 9 4.53
1 -3 9 5.17
-1 -3 -9 7.11
1 -3 9 5.31
1 3 9 5.21
1 3 9 4.42
1 3 9 5.10
1 3 9 3.73
-1 3 -9 5.83
2 -3 9 11.10
2 -3 9 10.55
-2 -3 -9 11.27
2 -3 9 11.89
-2 -3 -9 13.66
-2 -3 -9 8.71
2 3 9 12.45
2 3 9 11.20
2 3 9 10.77
-2 3 -9 13.29
3 -3 9 6.11
3 -3 9 5.82
3 -3 9 6.23
-3 -3 -9 7.32
-3 -3 -9 4.08
3 3 9 6.36
3 3 9 6.81
-3 3 -9 7.79
3 3 9 4.30
4 -3 9 9.31
-4 -3 -9 12.81
4 -3 9 12.70
-4 3 -9 11.95
4 3 9 11.43
4 3 9 11.58
4 3 9 14.42
5 -3 9 1.92
-5 3 -9 1.66
5 3 9 1.18
5 3 9 1.78
-5 -4 9 3.18
5 -4 -9 4.17
-5 4 9 1.83
5 4 -9 2.16
5 4 -9 2.04
-5 4 9 2.42
4 -4 -9 1.88
4 -4 -9 1.30
-4 -4 9 0.35
-4 4 9 2.35
-4 4 9 1.96
4 4 -9 1.68
4 4 -9 1.87
-4 4 9 1.78
3 -4 -9 9.23
3 -4 -9 9.93
-3 -4 9 10.21
3 -4 -9 10.81
-3 -4 9 12.07
-3 4 9 10.86
-3 4 9 10.99
-3 4 9 12.07
3 4 -9 9.55
3 4 -9 11.60
-2 -4 9 24.00
2 -4 -9 24.67
2 -4 -9 23.14
2 -4 -9 17.04
2 -4 -9 22.48
-2 -4 9 21.58
-2 -4 9 21.65
2 4 -9 24.74
-2 4 9 24.47
2 4 -9 23.87
-2 4 9 21.67
-2 4 9 24.29
-2 4 9 25.23
1 -4 -9 3.16
-1 -4 9 2.32
-1 -4 9 3.81
-1 -4 9 2.64
1 -4 -9 2.28
-1 -4 9 2.64
1 -4 -9 2.43
-1 4 9 4.30
1 4 -9 3.18
-1 4 9 3.78
-1 4 9 3.86
-1 4 9 2.99
0 -4 -9 7.35
0 -4 9 8.35
0 -4 9 6.01
0 -4 -9 5.86
0 -4 9 5.85
0 -4 -9 4.71
0 -4 9 6.17
0 -4 9 7.78
0 4 9 5.57
0 4 -9 8.29
0 4 9 7.06
0 4 9 5.97
0 4 9 6.80
-1 -4 -9 35.97
1 -4 9 32.17
1 -4 9 35.33
1 -4 9 33.03
-1 -4 -9 36.07
1 -4 9 30.32
-1 -4 -9 32.27
-1 4 -9 34.04
1 4 9 32.52
1 4 9 32.08
1 4 9 36.80
1 4 9 29.99
-2 -4 -9 15.38
2 -4 9 14.11
-2 -4 -9 11.76
2 -4 9 12.21
2 -4 9 13.83
-2 -4 -9 14.10
2 4 9 13.36
2 4 9 13.65
2 4 9 15.48
2 4 9 14.30
-2 4 -9 12.90
3 -4 9 1.41
3 -4 9 2.76
-3 -4 -9 1.37
-3 -4 -9 1.59
3 4 9 3.03
3 4 9 2.90
-3 4 -9 2.45
3 4 9 2.05
4 -4 9 0.34
4 4 9 0.92
-4 4 -9 0.49
4 4 9 1.67
5 4 9 1.20
5 -5 -9 4.39
-5 -5 9 1.95
5 5 -9 -0.29
-5 5 9 0.44
5 5 -9 0.81
-4 -5 9 1.40
4 -5 -9 1.92
4 5 -9 1.70
-4 5 9 1.30
-4 5 9 2.75
3 -5 -9 0.83
3 -5 -9 1.15
-3 -5 9 1.15
-3 5 9 1.53
-3 5 9 0.70
3 5 -9 1.87
-3 5 9 0.62
2 -5 -9 6.16
2 -5 -9 6.00
2 -5 -9 6.74
-2 -5 9 6.43
-2 -5 9 5.71
2 -5 -9 5.45
-2 5 9 5.28
-2 5 9 6.77
-2 5 9 6.41
2 5 -9 5.87
1 -5 -9 1.77
-1 -5 9 1.73
-1 -5 9 1.78
1 -5 -9 2.22
1 -5 -9 1.53
-1 -5 9 2.05
-1 -5 9 3.00
-1 5 9 1.03
-1 5 9 1.40
-1 5 9 1.86
1 5 -9 2.11
-1 5 9 2.51
0 -5 -9 5.31
0 -5 9 3.48
0 -5 -9 4.73
0 -5 9 4.18
0 -5 9 4.89
0 -5 -9 4.52
0 -5 9 6.07
0 5 9 4.28
0 5 9 4.02
0 5 9 3.30
0 5 9 4.13
0 5 -9 4.43
1 -5 9 4.51
1 -5 9 4.63
-1 -5 -9 3.90
-1 -5 -9 5.91
1 -5 9 4.46
1 -5 9 4.29
-1 -5 -9 4.26
1 -5 9 4.70
1 5 9 4.72
1 5 9 4.93
1 5 9 4.78
-1 5 -9 3.77
1 5 9 4.32
-2 -5 -9 2.40
2 -5 9 2.80
2 -5 9 2.39
-2 -5 -9 1.81
2 5 9 3.02
2 5 9 1.85
2 5 9 0.78
-2 5 -9 2.46
2 5 9 0.53
3 -5 9 8.67
3 -5 9 4.98
-3 -5 -9 6.94
3 5 9 6.98
3 5 9 8.03
-3 5 -9 6.06
3 5 9 6.07
3 5 9 7.03
4 5 9 2.18
4 5 9 3.88
4 -6 -9 4.30
-4 6 9 2.68
4 6 -9 3.53
3 -6 -9 1.28
-3 -6 9 1.24
-3 6 9 1.72
-3 6 9 0.65
3 6 -9 1.04
2 -6 -9 0.53
2 -6 -9 2.60
2 -6 -9 2.62
-2 -6 9 3.42
-2 6 9 2.65
-2 6 9 2.42
1 -6 -9 0.35
1 -6 -9 0.27
-1 -6 9 0.71
1 -6 -9 -0.22
-1 -6 9 -0.88
-1 6 9 0.30
1 6 -9 0.54
-1 6 9 0.24
-1 6 9 0.20
0 -6 -9 1.33
0 -6 9 -0.95
0 -6 -9 0.66
0 -6 9 0.36
0 -6 9 1.01
0 -6 -9 0.68
0 6 9 0.72
0 6 9 1.25
0 6 -9 0.41
0 6 9 0.30
0 6 9 0.29
0 6 9 0.42
-1 -6 -9 -0.40
1 -6 9 0.25
1 -6 9 0.56
-1 -6 -9 0.67
1 -6 9 2.00
-1 -6 -9 1.96
1 6 9 1.11
-1 6 -9 1.41
1 6 9 0.17
1 6 9 0.85
1 6 9 0.27
2 -6 9 1.21
-2 -6 -9 1.55
2 6 9 1.17
2 6 9 2.47
2 6 9 1.20
2 6 9 1.08
-3 -6 -9 6.13
3 6 9 6.71
3 6 9 9.16
4 6 9 0.42
4 6 9 -0.17
3 -7 -9 2.42
3 7 -9 2.11
2 -7 -9 -0.74
-2 7 9 0.74
1 -7 -9 4.54
1 -7 -9 0.65
-1 7 9 3.16
-1 7 9 1.77
0 -7 -9 2.89
0 -7 -9 0.47
0 7 9 1.86
-1 -7 -9 7.26
1 7 9 5.68
1 7 9 7.50
2 7 9 3.08
2 7 9 2.19
6 0 -10 -0.06
6 0 -10 -0.32
-6 0 10 1.13
-6 0 10 0.24
5 0 -10 1.46
-5 0 10 1.68
5 0 -10 1.99
-5 0 10 1.59
-4 0 10 5.35
-4 0 10 5.82
4 0 -10 5.56
4 0 -10 3.95
-4 0 10 5.58
-4 0 10 4.81
-3 0 10 30.87
-3 0 10 32.78
3 0 -10 35.69
3 0 -10 32.80
3 0 -10 32.06
-3 0 10 35.47
-3 0 10 34.87
-2 0 10 -0.01
2 0 -10 0.55
-2 0 10 1.06
2 0 -10 0.03
-2 0 10 0.53
-2 0 10 0.84
-1 0 10 7.05
-1 0 10 6.90
1 0 -10 7.96
-1 0 10 6.62
1 0 -10 5.39
-1 0 10 6.78
0 0 -10 6.55
0 0 -10 4.45
0 0 10 5.42
0 0 -10 6.10
0 0 10 7.07
0 0 10 6.52
1 0 10 1.19
-1 0 -10 1.00
-1 0 -10 0.67
-1 0 -10 0.50
1 0 10 1.57
1 0 10 0.93
-2 0 -10 3.68
-2 0 -10 3.23
2 0 10 2.65
2 0 10 3.50
2 0 10 3.23
-3 0 -10 2.30
3 0 10 1.00
3 0 10 1.82
-3 0 -10 0.02
3 0 10 1.38
-4 0 -10 2.24
4 0 10 4.94
4 0 10 3.46
-4 0 -10 3.45
4 0 10 4.61
5 0 10 -0.35
5 0 10 0.75
-5 0 -10 1.04
6 0 10 0.50
6 -1 -10 1.38
6 -1 -10 0.49
-6 -1 10 0.06
-6 1 10 1.83
6 1 -10 4.55
-6 1 10 2.68
6 1 -10 2.05
-5 -1 10 10.03
5 -1 -10 9.19
5 -1 -10 8.65
5 1 -10 10.18
-5 1 10 10.68
-5 1 10 10.99
-5 1 10 13.13
5 1 -10 11.47
4 -1 -10 3.40
-4 -1 10 1.62
-4 -1 10 4.08
-4 -1 10 2.85
-4 1 10 2.92
4 1 -10 2.11
-4 1 10 2.96
4 1 -10 2.44
4 1 -10 1.79
4 1 -10 1.85
-4 1 10 2.40
-4 1 10 2.66
3 -1 -10 8.96
-3 -1 10 7.88
3 -1 -10 6.70
-3 -1 10 6.99
-3 -1 10 6.87
-3 1 10 8.69
-3 1 10 6.92
3 1 -10 8.40
-3 1 10 7.21
3 1 -10 6.76
3 1 -10 6.03
-3 1 10 6.18
2 -1 -10 21.19
2 -1 -10 16.15
-2 -1 10 17.35
-2 -1 10 17.44
-2 -1 10 16.85
-2 -1 10 16.22
2 1 -10 17.07
-2 1 10 19.00
-2 1 10 17.73
-2 1 10 16.53
2 1 -10 17.47
-2 1 10 17.77
1 -1 -10 26.97
-1 -1 10 29.20
-1 -1 10 26.05
1 -1 -10 25.87
-1 -1 10 27.77
-1 -1 10 27.89
1 -1 -10 25.43
-1 1 10 28.76
-1 1 10 28.65
1 1 -10 26.50
-1 1 10 29.12
1 1 -10 23.69
-1 1 10 26.40
0 -1 10 24.49
0 -1 -10 24.28
0 -1 -10 25.66
0 -1 10 29.01
0 -1 -10 28.00
0 -1 10 22.18
0 -1 10 25.50
0 1 -10 26.37
0 1 10 24.32
0 1 10 21.99
0 1 10 24.34
0 1 -10 23.08
-1 -1 -10 1.20
-1 -1 -10 1.41
1 -1 10 0.12
-1 -1 -10 0.78
1 -1 10 1.16
1 -1 10 1.36
1 1 10 1.81
1 1 10 0.40
-1 1 -10 0.82
1 1 10 1.39
-1 1 -10 0.69
2 -1 10 13.90
2 -1 10 15.00
-2 -1 -10 15.31
2 -1 10 11.63
-2 -1 -10 15.28
-2 1 -10 16.52
2 1 10 15.69
2 1 10 14.38
2 1 10 13.96
-2 1 -10 18.97
-3 -1 -10 17.17
3 -1 10 16.68
3 -1 10 13.92
3 -1 10 15.10
-3 -1 -10 17.20
3 1 10 14.24
3 1 10 16.45
3 1 10 18.29
-3 1 -10 15.93
-3 1 -10 14.71
-4 -1 -10 21.69
4 -1 10 15.39
4 -1 10 17.23
-4 1 -10 18.58
4 1 10 18.34
4 1 10 21.46
4 1 10 19.18
-4 1 -10 17.34
5 -1 10 1.21
-5 -1 -10 1.51
5 -1 10 1.37
5 1 10 1.85
-5 1 -10 1.62
5 1 10 2.21
6 -1 10 2.17
6 1 10 1.49
6 -2 -10 5.42
6 -2 -10 6.43
-6 -2 10 4.75
6 2 -10 2.67
6 2 -10 5.09
-6 2 10 8.07
6 2 -10 7.85
-6 2 10 8.57
5 -2 -10 -0.33
-5 -2 10 0.49
5 -2 -10 0.93
5 2 -10 -0.48
-5 2 10 -1.01
5 2 -10 1.05
5 2 -10 -0.32
-5 2 10 0.15
-5 2 10 -0.14
-4 -2 10 11.37
-4 -2 10 9.68
4 -2 -10 7.99
-4 2 10 11.53
4 2 -10 11.31
-4 2 10 10.68
4 2 -10 12.36
-4 2 10 10.06
4 2 -10 12.76
-4 2 10 11.17
4 2 -10 10.99
-3 -2 10 1.93
3 -2 -10 3.05
3 -2 -10 2.75
3 -2 -10 3.70
-3 -2 10 2.91
-3 -2 10 2.95
3 2 -10 2.43
3 2 -10 2.60
-3 2 10 2.26
-3 2 10 3.71
-3 2 10 2.44
-3 2 10 2.55
3 2 -10 1.90
-2 -2 10 43.55
2 -2 -10 42.02
-2 -2 10 42.90
-2 -2 10 42.94
2 -2 -10 41.09
-2 2 10 42.87
-2 2 10 43.30
2 2 -10 41.94
-2 2 10 47.31
2 2 -10 42.29
-2 2 10 42.06
-1 -2 10 7.32
-1 -2 10 9.71
1 -2 -10 7.30
-1 -2 10 7.00
1 -2 -10 6.59
-1 -2 10 6.76
-1 -2 10 8.19
1 2 -10 7.25
-1 2 10 6.79
-1 2 10 6.28
1 2 -10 6.49
-1 2 10 7.91
-1 2 10 9.78
0 -2 10 7.42
0 -2 10 5.42
0 -2 -10 5.75
0 -2 -10 5.01
0 -2 -10 7.70
0 -2 10 5.18
0 -2 10 5.76
0 2 10 5.47
0 2 10 6.29
0 2 10 5.99
0 2 10 5.42
0 2 -10 7.93
1 -2 10 14.89
-1 -2 -10 12.93
-1 -2 -10 14.17
-1 -2 -10 11.76
1 -2 10 13.21
1 -2 10 13.29
-1 2 -10 14.05
1 2 10 10.42
1 2 10 11.37
1 2 10 17.39
2 -2 10 0.58
-2 -2 -10 1.44
2 -2 10 1.24
-2 -2 -10 0.79
-2 -2 -10 0.26
2 -2 10 0.47
2 2 10 0.91
2 2 10 1.15
2 2 10 0.53
-2 2 -10 1.35
-3 -2 -10 31.15
3 -2 10 33.03
3 -2 10 32.44
-3 -2 -10 38.05
3 -2 10 29.38
-3 2 -10 33.69
3 2 10 35.43
-3 2 -10 35.28
3 2 10 34.97
3 2 10 34.82
-4 -2 -10 0.15
4 -2 10 0.85
4 -2 10 1.44
-4 2 -10 1.18
-4 2 -10 0.87
4 2 10 1.78
4 2 10 0.19
4 2 10 0.42
5 -2 10 0.75
5 -2 10 1.57
-5 2 -10 0.69
5 2 10 3.23
5 2 10 0.48
6 -2 10 2.25
6 2 10 2.94
6 -3 -10 0.39
-6 -3 10 -0.05
-6 3 10 -0.36
6 3 -10 1.34
-5 -3 10 8.26
5 -3 -10 3.96
-5 3 10 7.84
5 3 -10 9.71
-5 3 10 8.81
5 3 -10 7.02
5 3 -10 7.01
-4 -3 10 0.30
4 -3 -10 0.16
-4 -3 10 0.21
4 -3 -10 -0.28
4 3 -10 1.06
4 3 -10 0.79
-4 3 10 0.14
-4 3 10 1.09
4 3 -10 0.46
-4 3 10 0.29
3 -3 -10 9.46
-3 -3 10 12.33
-3 -3 10 10.16
3 -3 -10 10.12
3 -3 -10 10.03
-3 -3 10 9.49
-3 3 10 12.54
3 3 -10 11.87
3 3 -10 9.01
-3 3 10 10.78
-3 3 10 9.77
-3 3 10 12.73
3 3 -10 12.15
-2 -3 10 155.40
-2 -3 10 156.31
2 -3 -10 144.70
2 -3 -10 162.00
2 -3 -10 156.18
-2 -3 10 153.06
2 3 -10 142.88
-2 3 10 154.35
-2 3 10 155.80
-2 3 10 161.59
-2 3 10 156.81
2 3 -10 157.15
-1 -3 10 47.39
1 -3 -10 44.09
-1 -3 10 41.99
1 -3 -10 46.75
-1 -3 10 36.73
1 -3 -10 46.46
-1 -3 10 47.65
-1 3 10 47.18
-1 3 10 40.96
-1 3 10 43.81
-1 3 10 49.57
1 3 -10 48.62
0 -3 10 63.47
0 -3 10 68.12
0 -3 -10 65.35
0 -3 -10 72.97
0 -3 10 65.96
0 -3 10 70.75
0 -3 -10 71.22
0 -3 10 73.06
0 3 10 68.06
0 3 10 65.79
0 3 10 65.96
0 3 10 68.86
0 3 -10 71.34
1 -3 10 1.39
1 -3 10 0.69
1 -3 10 1.21
-1 -3 -10 1.10
-1 -3 -10 1.20
1 -3 10 0.77
-1 -3 -10 0.63
1 3 10 1.16
-1 3 -10 0.48
1 3 10 1.02
1 3 10 1.58
1 3 10 1.11
-2 -3 -10 5.23
-2 -3 -10 4.05
2 -3 10 2.91
2 -3 10 3.04
-2 -3 -10 3.10
2 -3 10 4.53
-2 3 -10 3.83
2 3 10 2.84
2 3 10 2.69
2 3 10 2.89
-3 -3 -10 7.84
3 -3 10 7.68
3 -3 10 8.76
-3 3 -10 10.99
3 3 10 9.68
3 3 10 7.67
3 3 10 9.15
4 -3 10 5.99
4 -3 10 6.91
4 3 10 5.36
4 3 10 7.06
4 3 10 5.28
-4 3 -10 7.13
5 -3 10 -0.08
5 3 10 0.34
5 -4 -10 -0.18
-5 -4 10 0.40
-5 4 10 0.97
5 4 -10 -0.09
5 4 -10 0.01
-5 4 10 0.70
-4 -4 10 -0.27
4 -4 -10 -0.13
4 4 -10 0.42
-4 4 10 0.91
-4 4 10 0.36
-3 -4 10 17.02
-3 -4 10 13.64
3 -4 -10 14.65
3 -4 -10 15.91
3 -4 -10 15.07
-3 4 10 19.43
3 4 -10 20.00
-3 4 10 18.74
3 4 -10 14.34
-3 4 10 16.45
-2 -4 10 7.17
2 -4 -10 6.28
2 -4 -10 6.14
2 -4 -10 5.32
-2 -4 10 5.90
2 4 -10 8.22
-2 4 10 6.56
-2 4 10 6.56
-2 4 10 5.97
-2 4 10 8.27
-1 -4 10 3.89
-1 -4 10 3.77
-1 -4 10 3.14
1 -4 -10 2.77
-1 -4 10 4.57
1 -4 -10 2.90
1 -4 -10 2.53
-1 4 10 1.88
1 4 -10 4.59
-1 4 10 2.72
-1 4 10 4.05
-1 4 10 3.57
0 -4 -10 11.38
0 -4 -10 11.45
0 -4 10 8.34
0 -4 10 10.45
0 -4 10 10.04
0 -4 10 9.40
0 -4 10 8.40
0 -4 -10 8.69
0 4 10 10.68
0 4 10 10.83
0 4 -10 10.44
0 4 10 9.87
0 4 10 9.85
1 -4 10 39.20
-1 -4 -10 39.12
1 -4 10 34.33
-1 -4 -10 36.18
1 -4 10 36.72
1 -4 10 38.12
-1 -4 -10 32.81
1 4 10 37.02
1 4 10 36.29
1 4 10 32.66
1 4 10 34.01
-1 4 -10 38.03
2 -4 10 1.52
-2 -4 -10 1.23
-2 -4 -10 0.84
2 -4 10 0.82
2 -4 10 1.31
2 -4 10 0.03
2 4 10 0.81
2 4 10 0.97
2 4 10 0.45
2 4 10 1.40
-2 4 -10 0.73
-3 -4 -10 2.85
3 -4 10 3.43
-3 -4 -10 4.07
3 -4 10 3.62
-3 4 -10 4.64
3 4 10 3.93
3 4 10 5.38
3 4 10 3.98
4 -4 10 3.37
4 4 10 3.38
4 4 10 3.10
4 4 10 1.87
5 4 10 -0.92
-4 -5 10 2.04
4 -5 -10 1.64
4 5 -10 1.47
-4 5 10 1.08
-4 5 10 1.61
-3 -5 10 0.72
3 -5 -10 0.43
3 -5 -10 0.53
-3 5 10 -0.17
3 5 -10 0.32
-3 5 10 0.59
-2 -5 10 1.97
2 -5 -10 1.41
-2 -5 10 2.04
2 -5 -10 1.92
2 -5 -10 2.42
-2 5 10 1.84
2 5 -10 0.65
-2 5 10 1.74
-2 5 10 1.29
-1 -5 10 2.71
-1 -5 10 0.47
1 -5 -10 1.15
-1 -5 10 0.56
1 -5 -10 -0.06
-1 5 10 0.98
-1 5 10 1.12
1 5 -10 2.04
-1 5 10 -0.07
0 -5 10 4.04
0 -5 10 1.78
0 -5 -10 2.99
0 -5 -10 3.90
0 -5 10 3.83
0 -5 -10 1.23
0 -5 10 3.64
0 5 -10 2.90
0 5 10 2.39
0 5 10 2.43
0 5 10 2.97
0 5 10 3.29
1 -5 10 3.71
1 -5 10 2.66
-1 -5 -10 2.87
-1 -5 -10 4.12
1 -5 10 2.72
-1 -5 -10 2.65
1 -5 10 2.63
1 -5 10 5.16
1 5 10 3.71
1 5 10 4.61
1 5 10 3.44
-1 5 -10 3.90
1 5 10 5.04
-2 -5 -10 -0.18
-2 -5 -10 1.18
2 -5 10 0.22
2 -5 10 0.58
-2 5 -10 0.22
2 5 10 0.56
2 5 10 1.01
2 5 10 0.13
2 5 10 -0.03
3 -5 10 2.46
-3 -5 -10 3.37
3 5 10 2.91
3 5 10 2.99
3 5 10 1.85
3 5 10 1.27
4 5 10 0.70
4 5 10 2.12
4 -6 -10 1.85
-4 6 10 1.86
4 6 -10 -0.02
-3 6 10 2.79
3 6 -10 3.57
-3 6 10 1.87
2 -6 -10 1.04
2 -6 -10 0.15
-2 -6 10 1.69
-2 6 10 0.71
-2 6 10 -0.19
1 -6 -10 2.13
-1 -6 10 0.88
1 -6 -10 1.72
-1 -6 10 2.49
-1 6 10 2.17
-1 6 10 1.95
0 -6 -10 0.42
0 -6 10 0.39
0 -6 10 0.47
0 -6 -10 0.81
0 -6 -10 -0.19
0 6 10 0.23
0 6 10 0.01
0 6 10 -0.55
-1 -6 -10 -0.87
-1 -6 -10 0.87
1 -6 10 1.13
1 6 10 1.60
1 6 10 2.09
1 6 10 0.16
1 6 10 -0.41
-2 -6 -10 0.50
2 6 10 0.42
2 6 10 1.24
2 6 10 2.02
2 6 10 3.01
-3 -6 -10 0.36
3 6 10 2.65
3 6 10 1.07
2 -7 -10 8.75
-2 7 10 6.08
1 -7 -10 0.20
-1 7 10 0.26
-1 7 10 -0.70
0 -7 -10 5.46
0 7 10 3.51
0 7 10 2.76
-1 -7 -10 2.04
1 7 10 2.05
1 7 10 2.33
2 7 10 1.01
2 7 10 3.43
6 0 -11 0.87
6 0 -11 1.04
-6 0 11 1.70
-6 0 11 1.05
-5 0 11 1.94
5 0 -11 1.34
-5 0 11 1.65
5 0 -11 1.78
4 0 -11 3.78
-4 0 11 4.25
4 0 -11 3.62
-4 0 11 3.70
-4 0 11 3.19
-4 0 11 3.54
-3 0 11 4.11
3 0 -11 4.72
-3 0 11 6.21
-3 0 11 4.26
-3 0 11 4.55
3 0 -11 4.67
2 0 -11 14.58
2 0 -11 14.25
-2 0 11 15.35
-2 0 11 16.64
-2 0 11 14.40
-2 0 11 14.02
-1 0 11 2.54
1 0 -11 1.76
1 0 -11 1.42
-1 0 11 3.44
-1 0 11 1.21
-1 0 11 1.81
0 0 11 10.68
0 0 -11 11.28
0 0 -11 10.69
0 0 11 9.34
0 0 11 12.96
0 0 -11 10.15
1 0 11 15.96
-1 0 -11 14.98
1 0 11 15.24
-1 0 -11 17.89
-1 0 -11 13.52
1 0 11 14.00
2 0 11 4.99
2 0 11 5.94
-2 0 -11 6.46
2 0 11 7.79
-2 0 -11 7.08
3 0 11 5.03
3 0 11 4.30
-3 0 -11 6.92
3 0 11 6.63
4 0 11 0.01
4 0 11 -1.08
-4 0 -11 -0.48
5 0 11 0.63
5 0 11 1.61
-5 0 -11 0.13
6 0 11 2.88
-6 -1 11 8.57
6 -1 -11 8.45
6 -1 -11 9.03
-6 1 11 6.35
6 1 -11 6.63
6 1 -11 8.97
-6 1 11 6.41
-5 -1 11 25.75
5 -1 -11 26.09
5 1 -11 22.26
-5 1 11 30.78
5 1 -11 26.74
-5 1 11 19.05
5 1 -11 28.25
-5 1 11 24.80
4 -1 -11 2.33
-4 -1 11 2.11
-4 -1 11 2.91
4 1 -11 2.77
4 1 -11 3.77
-4 1 11 1.86
-4 1 11 2.09
-4 1 11 2.08
-4 1 11 3.64
3 -1 -11 2.44
-3 -1 11 1.83
-3 -1 11 1.11
-3 -1 11 2.03
3 -1 -11 1.87
-3 -1 11 0.61
-3 1 11 0.50
3 1 -11 1.42
-3 1 11 1.02
3 1 -11 1.08
3 1 -11 1.10
-3 1 11 0.81
-3 1 11 1.47
-2 -1 11 7.45
2 -1 -11 8.55
-2 -1 11 8.59
2 -1 -11 6.41
-2 -1 11 8.08
-2 -1 11 8.47
-2 1 11 6.36
2 1 -11 7.78
-2 1 11 5.78
-2 1 11 8.50
-2 1 11 7.19
2 1 -11 8.03
-1 -1 11 15.39
-1 -1 11 19.22
-1 -1 11 20.55
1 -1 -11 21.14
1 -1 -11 16.62
-1 -1 11 18.57
-1 1 11 18.82
-1 1 11 15.69
-1 1 11 18.40
-1 1 11 18.84
1 1 -11 18.42
1 1 -11 18.99
0 -1 11 2.47
0 -1 -11 1.24
0 -1 11 1.68
0 -1 -11 1.76
0 -1 -11 2.66
0 -1 11 2.17
0 -1 11 2.23
0 1 11 1.71
0 1 11 2.00
0 1 -11 2.34
0 1 11 1.55
0 1 11 2.58
0 1 -11 2.49
1 -1 11 2.06
-1 -1 -11 1.67
1 -1 11 2.00
-1 -1 -11 2.60
-1 -1 -11 2.22
1 -1 11 1.23
1 1 11 2.49
1 1 11 3.01
-1 1 -11 2.47
-1 1 -11 2.32
2 -1 11 4.73
2 -1 11 4.59
2 -1 11 3.36
-2 -1 -11 3.96
-2 -1 -11 3.36
-2 -1 -11 4.77
2 1 11 2.41
2 1 11 3.96
2 1 11 3.97
-2 1 -11 4.59
-2 1 -11 4.42
3 -1 11 11.83
3 -1 11 11.40
-3 -1 -11 14.26
-3 -1 -11 9.40
3 -1 11 12.00
-3 1 -11 12.62
3 1 11 11.12
-3 1 -11 11.14
3 1 11 11.94
3 1 11 8.63
4 -1 11 11.94
-4 -1 -11 12.31
4 -1 11 10.30
-4 1 -11 8.62
4 1 11 11.34
4 1 11 10.77
-4 1 -11 12.46
5 -1 11 8.31
5 -1 11 5.68
-5 -1 -11 8.10
-5 1 -11 4.57
5 1 11 7.03
5 1 11 4.20
6 -2 -11 0.99
-6 -2 11 -0.42
-6 2 11 1.36
-6 2 11 -0.84
6 2 -11 -0.96
-5 -2 11 2.21
5 -2 -11 0.46
5 2 -11 1.37
-5 2 11 1.63
-5 2 11 0.98
-5 2 11 1.32
5 2 -11 1.69
5 2 -11 1.24
-4 -2 11 0.93
4 -2 -11 0.36
-4 -2 11 1.31
4 -2 -11 1.15
-4 2 11 1.77
4 2 -11 0.83
-4 2 11 1.29
4 2 -11 0.63
-4 2 11 1.38
3 -2 -11 2.66
3 -2 -11 2.12
3 -2 -11 1.85
-3 -2 11 2.54
-3 -2 11 3.03
-3 -2 11 3.27
-3 2 11 4.23
-3 2 11 3.91
3 2 -11 3.64
-3 2 11 4.24
3 2 -11 2.41
3 2 -11 3.72
-3 2 11 4.28
-2 -2 11 1.13
-2 -2 11 -0.06
2 -2 -11 1.01
-2 -2 11 1.11
-2 -2 11 0.98
2 -2 -11 1.12
-2 2 11 0.76
-2 2 11 1.04
2 2 -11 1.66
-2 2 11 0.79
2 2 -11 0.92
-2 2 11 1.45
1 -2 -11 0.66
-1 -2 11 1.21
-1 -2 11 2.31
-1 -2 11 1.61
1 -2 -11 0.71
-1 -2 11 1.39
1 -2 -11 1.19
-1 2 11 1.68
1 2 -11 1.25
-1 2 11 1.21
1 2 -11 1.46
-1 2 11 0.80
0 -2 11 8.37
0 -2 11 8.19
0 -2 -11 9.59
0 -2 11 7.05
0 -2 -11 7.44
0 -2 -11 7.54
0 -2 11 9.65
0 2 11 8.02
0 2 11 8.05
0 2 -11 7.65
0 2 11 8.56
1 -2 11 1.21
1 -2 11 1.77
1 -2 11 1.28
-1 -2 -11 1.38
-1 -2 -11 1.35
1 2 11 0.65
1 2 11 1.23
-1 2 -11 1.93
1 2 11 0.52
2 -2 11 49.31
-2 -2 -11 41.49
2 -2 11 49.32
2 -2 11 50.42
-2 -2 -11 50.71
-2 -2 -11 45.54
2 2 11 48.78
2 2 11 42.94
2 2 11 52.69
-2 2 -11 44.14
3 -2 11 7.86
-3 -2 -11 6.40
3 -2 11 8.46
-3 2 -11 8.46
-3 2 -11 9.63
3 2 11 7.07
3 2 11 7.64
3 2 11 7.72
4 -2 11 0.59
4 -2 11 1.41
-4 -2 -11 0.18
-4 2 -11 0.24
4 2 11 -0.36
4 2 11 -1.25
-4 2 -11 0.57
4 2 11 0.00
5 -2 11 4.14
5 -2 11 2.50
5 2 11 3.53
-5 2 -11 3.07
5 2 11 2.91
-5 -3 11 1.66
5 -3 -11 1.55
5 3 -11 0.94
5 3 -11 3.03
5 3 -11 0.39
-5 3 11 0.89
-5 3 11 1.75
-4 -3 11 4.47
4 -3 -11 2.96
-4 3 11 2.48
4 3 -11 3.00
-4 3 11 3.55
-4 3 11 3.47
4 3 -11 4.20
3 -3 -11 6.06
3 -3 -11 5.54
-3 -3 11 7.92
-3 -3 11 7.48
3 3 -11 8.05
3 3 -11 6.38
3 3 -11 6.42
-3 3 11 8.58
-3 3 11 6.35
-3 3 11 6.65
-2 -3 11 26.55
2 -3 -11 21.37
-2 -3 11 25.05
-2 -3 11 25.76
2 -3 -11 27.28
-2 3 11 25.43
-2 3 11 25.33
2 3 -11 28.92
-2 3 11 25.13
2 3 -11 22.15
-2 3 11 25.99
-1 -3 11 40.74
1 -3 -11 38.22
-1 -3 11 41.79
-1 -3 11 40.87
-1 -3 11 43.01
1 -3 -11 44.75
1 -3 -11 45.58
-1 -3 11 44.67
-1 3 11 38.13
-1 3 11 41.41
-1 3 11 41.61
-1 3 11 42.22
1 3 -11 43.64
0 -3 11 17.09
0 -3 11 21.16
0 -3 11 17.86
0 -3 11 17.84
0 -3 11 15.72
0 -3 -11 21.72
0 -3 -11 17.72
0 -3 -11 20.46
0 3 11 17.62
0 3 11 16.52
0 3 11 15.05
0 3 11 19.52
0 3 -11 20.39
1 -3 11 1.72
1 -3 11 1.05
-1 -3 -11 0.69
1 -3 11 2.26
1 -3 11 1.55
-1 -3 -11 0.12
-1 -3 -11 0.69
1 3 11 0.80
1 3 11 1.81
-1 3 -11 1.27
1 3 11 0.90
1 3 11 0.88
2 -3 11 18.33
2 -3 11 16.38
2 -3 11 19.51
-2 -3 -11 19.58
-2 -3 -11 19.42
-2 -3 -11 18.52
2 3 11 18.42
2 3 11 21.98
-2 3 -11 19.50
2 3 11 19.92
3 -3 11 0.11
3 -3 11 2.05
-3 -3 -11 -0.13
3 3 11 1.00
3 3 11 1.07
3 3 11 0.29
-3 3 -11 0.90
4 -3 11 5.01
4 -3 11 3.43
4 3 11 3.67
-4 3 -11 2.94
4 3 11 4.93
4 3 11 3.53
5 -3 11 1.57
5 3 11 -0.55
-5 -4 11 0.74
5 -4 -11 2.65
-5 4 11 2.03
5 4 -11 1.84
4 -4 -11 2.84
-4 -4 11 5.91
-4 4 11 2.34
4 4 -11 3.10
-4 4 11 3.29
3 -4 -11 1.27
-3 -4 11 3.09
3 -4 -11 2.29
-3 -4 11 1.04
-3 4 11 1.30
3 4 -11 2.64
-3 4 11 0.80
3 4 -11 0.52
-3 4 11 0.73
-2 -4 11 -0.27
2 -4 -11 1.43
2 -4 -11 0.18
2 -4 -11 0.62
-2 -4 11 0.74
-2 4 11 1.16
2 4 -11 1.13
-2 4 11 1.49
-2 4 11 0.86
1 -4 -11 2.18
-1 -4 11 1.27
1 -4 -11 1.08
-1 -4 11 1.69
1 -4 -11 0.61
-1 -4 11 0.84
-1 -4 11 0.16
-1 -4 11 1.14
-1 4 11 1.24
-1 4 11 1.05
1 4 -11 1.53
-1 4 11 1.10
-1 4 11 1.41
0 -4 11 25.36
0 -4 11 24.91
0 -4 11 24.26
0 -4 -11 18.13
0 -4 -11 22.57
0 -4 11 27.63
0 -4 11 27.31
0 -4 -11 24.32
0 4 11 22.96
0 4 -11 25.09
0 4 11 24.73
0 4 11 28.01
0 4 11 23.55
1 -4 11 4.22
-1 -4 -11 2.99
-1 -4 -11 3.74
1 -4 11 3.63
-1 -4 -11 5.02
1 -4 11 4.33
1 -4 11 3.15
1 4 11 4.46
1 4 11 4.50
1 4 11 5.09
1 4 11 5.23
-1 4 -11 4.96
-2 -4 -11 3.13
2 -4 11 4.59
2 -4 11 4.05
2 -4 11 3.68
2 4 11 3.89
2 4 11 2.54
2 4 11 2.76
2 4 11 5.41
-2 4 -11 4.05
-3 -4 -11 5.32
3 -4 11 8.02
3 -4 11 8.06
3 4 11 7.23
3 4 11 8.86
3 4 11 8.18
-3 4 -11 6.39
4 -4 11 5.06
4 4 11 4.46
4 4 11 5.16
-4 -5 11 2.17
4 -5 -11 0.98
-4 5 11 1.14
4 5 -11 -0.39
-4 5 11 1.15
3 -5 -11 1.13
-3 -5 11 1.61
-3 5 11 2.38
-3 5 11 0.41
3 5 -11 0.53
3 5 -11 1.07
2 -5 -11 -0.40
-2 -5 11 0.73
2 -5 -11 1.37
-2 -5 11 2.63
2 -5 -11 0.93
-2 5 11 1.33
-2 5 11 2.61
-2 5 11 0.97
2 5 -11 1.93
1 -5 -11 0.35
-1 -5 11 0.92
1 -5 -11 0.86
1 -5 -11 -0.22
-1 -5 11 0.64
-1 -5 11 0.72
1 5 -11 -0.03
-1 5 11 1.15
-1 5 11 0.03
-1 5 11 0.99
0 -5 -11 0.37
0 -5 11 3.73
0 -5 -11 0.64
0 -5 -11 2.06
0 -5 11 0.50
0 -5 11 2.12
0 -5 11 1.83
0 5 -11 1.44
0 5 11 0.92
0 5 11 3.12
0 5 11 2.94
1 -5 11 0.74
1 -5 11 0.28
1 -5 11 -0.61
-1 -5 -11 0.48
-1 -5 -11 -0.86
-1 5 -11 -0.18
1 5 11 0.17
1 5 11 0.07
1 5 11 -0.44
1 5 11 1.09
2 -5 11 2.40
-2 -5 -11 3.13
2 -5 11 3.33
-2 5 -11 3.76
2 5 11 2.41
2 5 11 2.07
2 5 11 4.20
2 5 11 3.95
-3 -5 -11 2.04
3 5 11 1.78
3 5 11 1.72
3 5 11 2.26
3 5 11 1.92
4 5 11 -0.03
4 5 11 -1.42
3 -6 -11 0.63
-3 6 11 0.18
-3 6 11 0.25
2 -6 -11 1.86
2 -6 -11 0.84
-2 6 11 2.17
-2 6 11 2.37
1 -6 -11 -0.13
1 -6 -11 1.70
-1 6 11 1.18
-1 6 11 0.97
0 -6 11 1.86
0 -6 -11 1.17
0 -6 11 0.91
0 -6 -11 0.15
0 6 11 1.74
0 6 11 -0.26
-1 -6 -11 0.28
1 -6 11 0.87
1 6 11 0.52
1 6 11 0.39
1 6 11 0.17
-2 -6 -11 0.82
2 6 11 1.42
2 6 11 0.71
2 6 11 1.05
3 6 11 4.51
3 6 11 3.84
1 -7 -11 2.46
-1 7 11 1.37
-1 7 11 0.91
0 -7 11 2.00
0 -7 -11 1.70
0 7 11 1.83
0 7 11 1.94
-1 -7 -11 2.13
1 7 11 3.07
1 7 11 4.68
-6 0 12 7.09
6 0 -12 15.81
-6 0 12 11.92
6 0 -12 10.64
-5 0 12 1.04
5 0 -12 -0.69
-5 0 12 0.68
-4 0 12 1.16
-4 0 12 -0.11
-4 0 12 1.66
-4 0 12 1.82
4 0 -12 2.11
4 0 -12 1.02
-3 0 12 12.75
3 0 -12 13.06
-3 0 12 10.14
-3 0 12 12.36
-3 0 12 12.38
3 0 -12 11.42
2 0 -12 -0.55
-2 0 12 0.76
-2 0 12 -0.15
-2 0 12 -0.66
2 0 -12 0.21
-2 0 12 0.21
1 0 -12 0.34
1 0 -12 0.40
-1 0 12 0.08
-1 0 12 0.12
-1 0 12 0.13
-1 0 12 -0.08
0 0 12 9.14
0 0 12 8.72
0 0 -12 9.01
0 0 12 8.12
0 0 -12 5.89
-1 0 -12 3.81
1 0 12 3.54
1 0 12 3.88
-1 0 -12 4.58
-1 0 -12 4.14
1 0 12 4.58
2 0 12 1.62
-2 0 -12 1.20
2 0 12 1.32
-2 0 -12 0.81
2 0 12 2.47
3 0 12 0.10
3 0 12 2.00
3 0 12 3.99
-3 0 -12 4.05
-3 0 -12 2.53
-4 0 -12 0.82
4 0 12 0.92
4 0 12 1.36
5 0 12 1.00
-5 0 -12 1.82
5 0 12 3.91
-6 -1 12 -0.73
6 -1 -12 0.39
6 1 -12 1.39
-6 1 12 1.34
-6 1 12 1.68
6 1 -12 1.46
5 -1 -12 2.99
-5 -1 12 2.43
-5 -1 12 3.48
-5 1 12 3.15
5 1 -12 3.51
-5 1 12 2.31
-4 -1 12 9.49
-4 -1 12 10.63
-4 -1 12 6.53
4 -1 -12 6.51
4 -1 -12 7.81
4 1 -12 8.26
-4 1 12 8.56
4 1 -12 10.60
-4 1 12 9.75
3 -1 -12 1.62
-3 -1 12 1.96
-3 -1 12 2.29
-3 -1 12 0.67
-3 -1 12 1.87
3 1 -12 2.49
-3 1 12 1.50
-3 1 12 0.35
-3 1 12 1.36
-3 1 12 1.05
3 1 -12 0.80
-2 -1 12 0.88
-2 -1 12 1.54
2 -1 -12 1.68
-2 -1 12 1.19
2 -1 -12 1.25
-2 -1 12 0.97
2 1 -12 0.89
-2 1 12 0.99
-2 1 12 1.23
-2 1 12 0.24
2 1 -12 1.78
-2 1 12 1.66
-1 -1 12 3.64
-1 -1 12 3.22
-1 -1 12 3.31
1 -1 -12 2.96
-1 -1 12 5.61
1 -1 -12 5.28
1 1 -12 5.76
1 1 -12 4.35
-1 1 12 3.84
-1 1 12 3.96
-1 1 12 2.27
-1 1 12 2.77
0 -1 12 12.01
0 -1 12 12.11
0 -1 -12 13.84
0 -1 12 12.49
0 -1 -12 12.63
0 -1 12 11.18
0 -1 -12 12.54
0 1 -12 14.50
0 1 12 10.63
0 1 -12 13.67
0 1 12 12.26
0 1 12 13.81
0 1 12 10.77
-1 -1 -12 18.35
-1 -1 -12 19.48
1 -1 12 16.29
-1 -1 -12 16.11
1 -1 12 18.12
1 -1 12 18.14
1 1 12 14.78
-1 1 -12 16.16
1 1 12 16.14
1 1 12 15.18
-2 -1 -12 7.10
2 -1 12 7.71
2 -1 12 5.89
-2 -1 -12 5.80
2 -1 12 6.73
-2 -1 -12 7.24
-2 1 -12 7.11
-2 1 -12 5.69
2 1 12 5.85
2 1 12 7.98
2 1 12 4.28
3 -1 12 3.76
-3 -1 -12 4.91
3 -1 12 2.65
3 1 12 4.57
-3 1 -12 5.17
3 1 12 3.15
-3 1 -12 5.48
3 1 12 1.90
4 -1 12 5.14
4 -1 12 6.81
-4 -1 -12 6.25
4 1 12 4.69
-4 1 -12 4.48
4 1 12 5.27
5 -1 12 -0.65
5 -1 12 1.15
5 1 12 1.06
5 1 12 2.10
-5 1 -12 1.26
5 -2 -12 2.12
-5 -2 12 1.23
-5 2 12 2.53
-5 2 12 0.30
5 2 -12 0.92
-4 -2 12 0.44
-4 -2 12 0.53
4 -2 -12 0.94
-4 2 12 1.04
-4 2 12 1.11
4 2 -12 0.35
-4 2 12 -0.15
4 2 -12 0.78
3 -2 -12 11.82
-3 -2 12 8.03
-3 -2 12 14.33
-3 2 12 11.07
3 2 -12 12.87
-3 2 12 10.70
3 2 -12 9.55
-3 2 12 10.36
-2 -2 12 1.84
-2 -2 12 2.54
-2 -2 12 1.95
2 -2 -12 2.29
2 -2 -12 2.68
-2 -2 12 1.58
2 2 -12 2.97
2 2 -12 2.00
-2 2 12 2.12
-2 2 12 2.18
-2 2 12 3.51
-2 2 12 2.14
-1 -2 12 0.02
1 -2 -12 1.15
1 -2 -12 -0.02
-1 -2 12 -0.48
-1 -2 12 0.68
1 -2 -12 0.67
-1 -2 12 0.84
-1 2 12 0.55
1 2 -12 0.19
-1 2 12 0.38
1 2 -12 0.83
-1 2 12 -0.26
-1 2 12 0.34
0 -2 12 10.91
0 -2 -12 19.05
0 -2 -12 15.97
0 -2 12 17.98
0 -2 -12 15.86
0 -2 12 15.02
0 -2 12 16.51
0 2 12 11.56
0 2 12 13.36
0 2 12 12.41
0 2 12 13.23
0 2 -12 18.39
1 -2 12 1.42
1 -2 12 2.99
-1 -2 -12 3.36
1 -2 12 2.59
-1 -2 -12 2.33
-1 -2 -12 2.50
-1 2 -12 2.78
1 2 12 1.99
1 2 12 3.78
1 2 12 1.28
-2 -2 -12 4.40
2 -2 12 4.82
2 -2 12 5.11
2 -2 12 1.44
-2 -2 -12 2.92
-2 -2 -12 1.55
2 2 12 2.36
2 2 12 3.19
-2 2 -12 2.89
3 -2 12 23.59
3 -2 12 23.05
-3 -2 -12 23.67
3 2 12 22.65
-3 2 -12 20.86
3 2 12 24.90
3 2 12 24.42
-3 2 -12 22.49
4 -2 12 0.88
4 -2 12 1.78
-4 2 -12 1.98
4 2 12 0.11
-4 2 -12 -1.95
4 2 12 1.68
5 -2 12 1.83
5 2 12 2.07
5 2 12 2.19
-5 -3 12 1.30
5 -3 -12 4.08
-5 3 12 2.69
-5 3 12 3.38
4 -3 -12 6.12
-4 -3 12 4.50
4 3 -12 4.53
-4 3 12 3.10
-4 3 12 4.00
-4 3 12 5.32
4 3 -12 4.58
-3 -3 12 15.48
-3 -3 12 11.43
3 -3 -12 12.82
3 3 -12 15.53
-3 3 12 11.71
-3 3 12 13.13
3 3 -12 12.67
-3 3 12 14.62
-2 -3 12 -0.33
2 -3 -12 -0.35
-2 -3 12 0.13
-2 -3 12 0.19
-2 3 12 -0.52
-2 3 12 -0.48
-2 3 12 -0.27
2 3 -12 0.32
2 3 -12 1.58
1 -3 -12 2.01
-1 -3 12 3.05
1 -3 -12 2.44
1 -3 -12 1.34
-1 -3 12 2.57
-1 -3 12 1.67
-1 -3 12 1.68
-1 -3 12 2.88
-1 3 12 3.39
-1 3 12 1.63
-1 3 12 1.82
1 3 -12 3.74
-1 3 12 2.97
0 -3 -12 27.10
0 -3 -12 27.60
0 -3 12 25.11
0 -3 12 29.78
0 -3 12 33.31
0 -3 -12 32.99
0 -3 12 29.86
0 -3 12 26.17
0 3 12 28.31
0 3 12 27.63
0 3 12 32.89
0 3 -12 33.64
0 3 12 32.34
-1 -3 -12 14.77
1 -3 12 16.51
1 -3 12 16.58
-1 -3 -12 18.04
1 -3 12 15.63
-1 -3 -12 16.40
1 -3 12 18.69
1 3 12 15.83
1 3 12 14.96
-1 3 -12 14.63
1 3 12 16.40
1 3 12 18.66
-2 -3 -12 8.03
2 -3 12 8.43
-2 -3 -12 7.76
2 -3 12 8.98
2 3 12 6.59
2 3 12 5.63
-2 3 -12 9.31
2 3 12 5.82
3 -3 12 5.11
-3 -3 -12 1.85
3 -3 12 4.80
3 3 12 4.22
3 3 12 3.82
3 3 12 1.92
-3 3 -12 3.81
4 -3 12 1.22
4 -3 12 -0.15
-4 3 -12 -0.84
4 3 12 1.35
4 3 12 2.15
5 -3 12 1.23
5 3 12 2.34
-5 -4 12 -0.16
4 -4 -12 0.34
-4 -4 12 2.60
-4 4 12 1.84
-4 4 12 1.22
4 4 -12 0.78
3 -4 -12 7.47
-3 -4 12 7.16
3 4 -12 6.90
-3 4 12 8.70
-3 4 12 10.78
-3 4 12 8.25
-2 -4 12 4.27
2 -4 -12 3.82
2 -4 -12 5.05
-2 -4 12 3.44
-2 4 12 3.76
-2 4 12 3.72
2 4 -12 3.97
-2 4 12 4.23
1 -4 -12 6.71
-1 -4 12 5.26
1 -4 -12 3.88
-1 -4 12 5.04
-1 -4 12 5.75
-1 -4 12 5.12
1 -4 -12 4.81
-1 4 12 6.71
1 4 -12 5.48
-1 4 12 4.32
-1 4 12 5.57
0 -4 -12 2.18
0 -4 12 2.19
0 -4 -12 2.46
0 -4 -12 3.43
0 -4 12 2.84
0 -4 12 2.18
0 -4 12 1.06
0 4 12 0.61
0 4 -12 3.05
0 4 12 1.95
0 4 12 4.27
0 4 12 3.69
-1 -4 -12 3.11
1 -4 12 4.20
-1 -4 -12 5.08
1 -4 12 5.43
1 -4 12 1.36
1 -4 12 5.96
1 4 12 5.13
1 4 12 3.17
-1 4 -12 3.88
1 4 12 4.09
1 4 12 4.43
2 -4 12 1.11
2 -4 12 0.85
-2 -4 -12 -1.63
2 -4 12 -0.39
-2 -4 -12 0.14
-2 4 -12 -0.40
2 4 12 0.46
2 4 12 -0.45
2 4 12 -0.29
2 4 12 -0.95
-3 -4 -12 3.07
3 -4 12 1.74
3 -4 12 1.82
3 4 12 2.66
-3 4 -12 1.26
3 4 12 2.74
4 -4 12 0.16
4 4 12 0.27
4 -5 -12 0.88
-4 -5 12 0.95
-4 5 12 0.19
4 5 -12 0.98
-3 -5 12 0.79
3 -5 -12 1.42
-3 5 12 0.30
-3 5 12 0.32
2 -5 -12 0.86
-2 -5 12 -1.23
2 -5 -12 -0.21
-2 5 12 -0.67
2 5 -12 1.13
-2 5 12 0.19
1 -5 -12 -0.34
-1 -5 12 -0.76
-1 -5 12 1.42
-1 -5 12 0.10
-1 -5 12 0.76
1 -5 -12 -0.42
-1 5 12 0.81
-1 5 12 -0.70
-1 5 12 -0.86
1 5 -12 -0.65
0 -5 12 2.74
0 -5 -12 1.42
0 -5 12 2.83
0 -5 12 0.99
0 -5 -12 1.18
0 -5 12 2.01
0 5 12 2.53
0 5 -12 2.13
0 5 12 1.19
0 5 12 2.44
1 -5 12 -0.45
1 -5 12 -0.37
1 -5 12 -1.97
-1 -5 -12 -0.25
1 5 12 -0.38
1 5 12 0.19
-1 5 -12 0.13
1 5 12 1.53
-2 -5 -12 3.87
2 -5 12 2.61
2 -5 12 4.64
2 5 12 4.33
2 5 12 2.20
2 5 12 3.66
-3 -5 -12 0.46
3 5 12 1.38
3 5 12 1.29
3 -6 -12 -0.12
-3 6 12 -0.29
2 -6 -12 0.24
2 -6 -12 1.89
-2 6 12 0.85
-2 6 12 1.40
-1 -6 12 1.19
1 -6 -12 0.36
1 -6 -12 1.78
-1 6 12 2.50
-1 6 12 2.02
0 -6 12 0.29
0 -6 -12 3.13
0 6 12 1.07
0 6 12 0.80
-1 -6 -12 -0.43
1 -6 12 0.41
1 6 12 1.10
1 6 12 0.77
1 6 12 1.10
-2 -6 -12 -0.03
2 6 12 1.93
2 6 12 -0.09
-5 0 13 3.79
5 0 -13 4.70
-5 0 13 3.76
-4 0 13 -0.49
-4 0 13 0.68
4 0 -13 0.41
-3 0 13 16.75
3 0 -13 11.77
-3 0 13 13.11
-3 0 13 10.33
-3 0 13 15.43
2 0 -13 0.21
2 0 -13 0.56
-2 0 13 0.06
-2 0 13 -0.39
-2 0 13 0.18
-2 0 13 0.72
-1 0 13 0.14
-1 0 13 0.95
-1 0 13 1.20
1 0 -13 0.02
1 0 -13 1.06
-1 0 13 1.11
0 0 13 0.40
0 0 -13 0.48
0 0 13 0.46
0 0 13 0.20
0 0 -13 -0.26
0 0 13 0.09
1 0 13 0.38
-1 0 -13 -0.38
-1 0 -13 0.35
-1 0 -13 0.26
1 0 13 -0.06
1 0 13 -0.35
2 0 13 0.87
-2 0 -13 0.77
-2 0 -13 0.59
2 0 13 0.57
2 0 13 -1.22
-3 0 -13 1.32
3 0 13 1.12
3 0 13 1.25
4 0 13 13.76
-4 0 -13 12.25
4 0 13 14.02
5 0 13 0.03
5 0 13 1.11
5 -1 -13 9.03
-5 -1 13 9.56
-5 -1 13 9.04
5 1 -13 9.45
-5 1 13 10.53
-5 1 13 8.94
-4 -1 13 3.18
-4 -1 13 1.05
-4 -1 13 1.52
4 -1 -13 1.34
-4 1 13 1.15
-4 1 13 1.36
-4 1 13 1.18
4 1 -13 2.04
3 -1 -13 0.18
-3 -1 13 0.21
-3 -1 13 1.22
-3 -1 13 0.31
-3 1 13 0.79
-3 1 13 1.48
3 1 -13 0.10
-3 1 13 1.01
-2 -1 13 2.10
2 -1 -13 0.42
-2 -1 13 2.28
-2 -1 13 1.83
-2 -1 13 1.45
2 -1 -13 2.36
2 1 -13 2.03
2 1 -13 1.09
-2 1 13 2.94
-2 1 13 1.18
-2 1 13 1.28
-2 1 13 3.22
1 -1 -13 4.57
-1 -1 13 4.93
-1 -1 13 5.43
1 -1 -13 5.85
-1 -1 13 6.17
-1 -1 13 4.19
-1 1 13 4.08
-1 1 13 5.18
1 1 -13 5.96
-1 1 13 4.82
1 1 -13 5.45
-1 1 13 4.52
0 -1 13 2.86
0 -1 -13 5.76
0 -1 13 3.09
0 -1 -13 5.17
0 -1 13 3.64
0 -1 -13 6.22
0 -1 13 5.24
0 1 13 5.45
0 1 13 3.05
0 1 -13 5.51
0 1 -13 5.28
0 1 13 4.32
0 1 13 3.59
-1 -1 -13 2.44
1 -1 13 1.06
-1 -1 -13 3.04
-1 -1 -13 3.29
1 -1 13 2.17
1 -1 13 2.07
1 1 13 3.41
1 1 13 3.14
-1 1 -13 1.52
1 1 13 2.69
-2 -1 -13 4.70
-2 -1 -13 3.85
2 -1 13 3.03
2 -1 13 3.94
2 1 13 5.47
-2 1 -13 3.71
2 1 13 5.43
2 1 13 1.52
-2 1 -13 3.39
-3 -1 -13 8.68
3 -1 13 6.12
3 -1 13 8.20
-3 1 -13 9.50
3 1 13 7.42
3 1 13 10.34
4 -1 13 1.03
4 -1 13 0.55
4 1 13 0.41
4 1 13 0.47
-4 1 -13 1.69
5 -1 13 1.59
5 -1 13 3.36
5 1 13 0.92
5 1 13 0.21
5 -2 -13 0.87
-5 -2 13 0.11
-5 2 13 -0.63
-5 2 13 0.18
5 2 -13 0.76
-4 -2 13 2.54
-4 -2 13 2.06
-4 -2 13 3.15
4 -2 -13 1.63
-4 2 13 1.33
4 2 -13 1.39
-4 2 13 2.02
-4 2 13 3.13
-3 -2 13 3.00
3 -2 -13 4.61
-3 -2 13 4.77
-3 2 13 5.59
-3 2 13 4.09
-3 2 13 3.63
3 2 -13 3.74
-2 -2 13 8.95
2 -2 -13 8.09
-2 -2 13 6.85
-2 -2 13 5.01
-2 2 13 6.33
-2 2 13 6.91
-2 2 13 7.08
2 2 -13 8.34
2 2 -13 5.61
-1 -2 13 19.48
-1 -2 13 26.62
1 -2 -13 22.34
1 -2 -13 25.57
-1 -2 13 23.76
-1 -2 13 26.93
1 -2 -13 19.09
1 2 -13 24.24
-1 2 13 22.93
1 2 -13 24.71
-1 2 13 18.56
-1 2 13 18.50
-1 2 13 19.18
0 -2 13 5.61
0 -2 -13 4.87
0 -2 13 5.40
0 -2 -13 4.90
0 -2 -13 4.35
0 -2 13 2.69
0 -2 13 4.79
0 2 13 4.79
0 2 13 5.11
0 2 13 4.81
0 2 -13 6.26
0 2 13 4.99
1 -2 13 0.41
-1 -2 -13 0.67
1 -2 13 -0.06
-1 -2 -13 1.22
1 -2 13 -0.60
-1 -2 -13 -1.21
1 2 13 -0.09
-1 2 -13 1.09
1 2 13 -0.25
1 2 13 -0.03
-2 -2 -13 14.35
-2 -2 -13 13.00
2 -2 13 12.15
2 -2 13 12.41
2 2 13 13.76
2 2 13 10.98
2 2 13 12.51
-2 2 -13 12.60
-3 -2 -13 21.12
3 -2 13 19.76
3 -2 13 11.72
3 2 13 18.23
-3 2 -13 17.74
3 2 13 18.23
4 -2 13 2.61
4 -2 13 2.38
-4 2 -13 0.98
4 2 13 1.83
4 2 13 1.89
5 -2 13 0.15
5 2 13 0.72
5 -3 -13 2.02
-5 -3 13 2.66
-5 3 13 2.96
4 -3 -13 4.10
-4 -3 13 3.94
-4 3 13 4.20
-4 3 13 3.39
4 3 -13 2.86
-3 -3 13 49.01
-3 -3 13 38.97
-3 -3 13 39.26
3 -3 -13 37.97
3 3 -13 31.92
-3 3 13 34.21
-3 3 13 43.44
-3 3 13 37.73
-2 -3 13 1.95
-2 -3 13 0.98
2 -3 -13 3.77
-2 -3 13 1.86
-2 3 13 2.02
2 3 -13 1.39
-2 3 13 3.83
-2 3 13 0.68
2 3 -13 1.93
1 -3 -13 11.05
-1 -3 13 10.88
-1 -3 13 7.83
1 -3 -13 11.06
-1 -3 13 11.28
-1 3 13 10.00
1 3 -13 11.56
-1 3 13 11.85
-1 3 13 9.54
0 -3 -13 8.33
0 -3 13 6.80
0 -3 -13 8.49
0 -3 13 8.44
0 -3 13 8.31
0 -3 13 7.63
0 3 -13 7.48
0 3 13 6.89
0 3 13 10.13
0 3 13 5.79
0 3 13 9.22
-1 -3 -13 15.02
1 -3 13 9.26
-1 -3 -13 12.41
1 -3 13 13.78
1 -3 13 11.22
1 -3 13 13.86
1 3 13 13.37
1 3 13 15.68
1 3 13 12.47
-1 3 -13 13.34
1 3 13 11.35
2 -3 13 4.37
2 -3 13 4.11
-2 -3 -13 4.08
-2 -3 -13 5.01
2 3 13 3.82
-2 3 -13 4.53
2 3 13 5.05
3 -3 13 2.04
3 -3 13 2.85
3 3 13 4.42
3 3 13 3.67
-3 3 -13 3.87
4 -3 13 0.57
4 -3 13 1.60
4 3 13 2.83
-4 -4 13 4.83
4 -4 -13 4.13
-4 4 13 3.21
-4 4 13 2.62
3 -4 -13 15.91
-3 -4 13 16.91
-3 4 13 18.20
-3 4 13 15.12
-2 -4 13 17.07
-2 -4 13 13.58
2 -4 -13 19.50
-2 -4 13 17.02
-2 4 13 14.27
-2 4 13 17.55
-2 4 13 18.97
2 4 -13 15.42
1 -4 -13 4.31
-1 -4 13 5.54
1 -4 -13 5.79
-1 -4 13 5.85
-1 -4 13 4.84
1 4 -13 4.90
-1 4 13 4.96
-1 4 13 3.43
-1 4 13 3.84
0 -4 -13 12.50
0 -4 13 12.26
0 -4 13 9.35
0 -4 13 10.57
0 -4 13 9.55
0 4 13 10.21
0 4 -13 11.22
0 4 13 10.99
0 4 13 12.77
-1 -4 -13 -1.04
1 -4 13 0.77
-1 -4 -13 -0.41
1 -4 13 -0.19
1 -4 13 -0.17
1 4 13 0.79
1 4 13 0.63
1 4 13 0.26
-1 4 -13 -0.04
2 -4 13 1.94
-2 -4 -13 1.84
2 -4 13 0.64
2 -4 13 2.03
2 4 13 2.21
-2 4 -13 2.22
2 4 13 1.77
2 4 13 1.96
-3 -4 -13 2.84
3 -4 13 2.44
3 -4 13 3.81
3 4 13 2.46
3 4 13 2.24
3 4 13 1.16
4 4 13 2.68
-3 -5 13 3.73
3 -5 -13 2.63
-3 5 13 2.47
-3 5 13 2.44
-2 -5 13 0.48
2 -5 -13 1.72
2 -5 -13 0.58
-2 5 13 -0.44
-2 5 13 -0.73
1 -5 -13 3.25
-1 -5 13 5.72
1 -5 -13 5.06
-1 -5 13 5.34
-1 5 13 4.07
-1 5 13 4.82
1 5 -13 5.08
0 -5 13 1.28
0 -5 13 -1.40
0 -5 13 0.06
0 -5 -13 0.51
0 5 -13 0.43
0 5 13 1.45
0 5 13 1.72
0 5 13 0.82
1 -5 13 3.13
-1 -5 -13 1.78
1 -5 13 4.11
1 5 13 2.53
1 5 13 1.88
1 5 13 2.76
-2 -5 -13 5.42
2 -5 13 6.42
2 5 13 7.10
2 5 13 4.80
2 5 13 4.78
-3 -5 -13 4.29
3 5 13 3.38
3 5 13 1.74
2 -6 -13 2.01
-2 6 13 0.30
-2 6 13 0.40
-1 -6 13 3.25
1 -6 -13 1.04
-1 6 13 0.98
-1 6 13 1.77
0 -6 13 -0.86
0 -6 -13 0.40
0 6 13 1.76
0 6 13 0.09
-1 -6 -13 0.55
1 -6 13 -0.01
1 6 13 0.40
1 6 13 0.07
2 6 13 2.17
5 0 -14 18.14
-5 0 14 14.05
-5 0 14 16.28
4 0 -14 0.50
-4 0 14 0.14
-4 0 14 2.25
-3 0 14 0.10
-3 0 14 -0.07
3 0 -14 -0.72
2 0 -14 26.58
-2 0 14 28.87
-2 0 14 28.22
-2 0 14 33.28
-2 0 14 32.14
-1 0 14 8.11
-1 0 14 9.52
-1 0 14 6.35
-1 0 14 7.30
1 0 -14 8.78
1 0 -14 9.60
0 0 14 0.98
0 0 -14 0.86
0 0 -14 1.59
0 0 14 0.95
0 0 14 2.09
0 0 14 1.57
-1 0 -14 3.02
-1 0 -14 1.93
1 0 14 4.52
-1 0 -14 1.79
1 0 14 2.62
2 0 14 1.38
2 0 14 0.53
-2 0 -14 1.80
3 0 14 2.13
-3 0 -14 1.89
3 0 14 2.47
4 0 14 -0.21
4 0 14 0.43
-4 0 -14 -2.07
-5 -1 14 0.04
5 -1 -14 0.69
5 1 -14 -0.01
-5 1 14 1.16
-5 1 14 -0.54
-4 -1 14 10.97
4 -1 -14 9.47
-4 -1 14 10.13
-4 1 14 10.58
4 1 -14 8.17
-4 1 14 11.46
-3 -1 14 4.43
-3 -1 14 2.56
-3 -1 14 2.65
3 -1 -14 4.46
-3 1 14 4.27
-3 1 14 3.38
3 1 -14 2.58
-3 1 14 2.28
2 -1 -14 5.96
-2 -1 14 6.46
-2 -1 14 3.34
-2 -1 14 4.58
-2 1 14 6.19
-2 1 14 5.73
-2 1 14 3.84
2 1 -14 5.78
-1 -1 14 -0.16
1 -1 -14 0.25
-1 -1 14 -0.16
-1 -1 14 0.10
-1 -1 14 -0.02
-1 1 14 -0.56
-1 1 14 -0.74
-1 1 14 0.46
-1 1 14 -0.62
1 1 -14 0.46
1 1 -14 -0.33
0 -1 14 1.37
0 -1 14 0.03
0 -1 -14 0.33
0 -1 -14 0.36
0 -1 14 0.35
0 -1 -14 -0.84
0 -1 14 0.08
0 1 14 0.91
0 1 -14 -0.23
0 1 -14 0.22
0 1 14 -0.07
0 1 14 0.43
1 -1 14 17.83
-1 -1 -14 15.49
1 -1 14 15.82
-1 -1 -14 16.96
1 1 14 16.48
1 1 14 15.81
-1 1 -14 16.44
-2 -1 -14 8.10
2 -1 14 11.24
-2 -1 -14 9.37
-2 1 -14 7.85
2 1 14 10.98
2 1 14 9.99
-2 1 -14 5.95
-3 -1 -14 0.21
3 -1 14 0.31
3 -1 14 1.17
-3 1 -14 -0.09
3 1 14 1.13
3 1 14 1.06
4 -1 14 0.19
4 -1 14 -0.04
4 1 14 -0.07
4 1 14 -0.04
-4 1 -14 -0.93
-5 -2 14 0.46
5 -2 -14 0.69
-5 2 14 0.45
-5 2 14 2.25
5 2 -14 1.04
4 -2 -14 6.23
-4 -2 14 6.12
-4 -2 14 5.28
4 2 -14 3.37
-4 2 14 5.39
-4 2 14 3.62
-3 -2 14 6.08
-3 -2 14 4.01
-3 -2 14 5.55
3 -2 -14 5.28
-3 2 14 5.09
-3 2 14 3.37
3 2 -14 5.69
-3 2 14 5.97
-2 -2 14 3.99
-2 -2 14 2.90
-2 -2 14 3.79
2 -2 -14 7.16
-2 2 14 4.34
-2 2 14 3.96
2 2 -14 2.79
2 2 -14 6.33
-2 2 14 5.35
-1 -2 14 17.73
1 -2 -14 20.91
-1 -2 14 17.08
-1 -2 14 18.68
1 -2 -14 20.70
1 2 -14 17.28
-1 2 14 17.41
-1 2 14 15.83
-1 2 14 15.37
1 2 -14 17.86
0 -2 14 2.72
0 -2 14 4.53
0 -2 -14 3.47
0 -2 14 3.86
0 -2 -14 2.93
0 -2 14 4.17
0 2 -14 4.56
0 2 14 3.01
0 2 14 5.55
0 2 14 4.31
1 -2 14 10.86
1 -2 14 12.57
1 -2 14 10.01
-1 -2 -14 12.85
-1 -2 -14 11.35
1 2 14 13.26
1 2 14 12.91
1 2 14 12.58
-1 2 -14 11.38
2 -2 14 -0.07
2 -2 14 0.80
-2 -2 -14 0.77
-2 -2 -14 -0.44
2 2 14 0.39
-2 2 -14 1.11
2 2 14 0.67
3 -2 14 3.93
3 -2 14 1.87
3 2 14 4.70
3 2 14 5.08
4 -2 14 3.63
4 -2 14 5.59
4 2 14 6.35
4 2 14 5.33
-4 -3 14 0.79
4 -3 -14 2.55
4 3 -14 0.52
-4 3 14 1.88
-4 3 14 0.56
-3 -3 14 3.65
-3 -3 14 2.50
-3 -3 14 1.71
3 -3 -14 3.88
-3 3 14 2.51
-3 3 14 4.46
-3 3 14 4.02
3 3 -14 2.99
2 -3 -14 4.53
-2 -3 14 2.86
-2 -3 14 4.54
-2 -3 14 3.57
2 3 -14 3.84
2 3 -14 2.24
-2 3 14 3.70
-2 3 14 4.35
-2 3 14 3.38
-1 -3 14 -0.77
-1 -3 14 0.24
-1 -3 14 1.31
1 -3 -14 0.46
1 -3 -14 1.40
-1 3 14 0.89
-1 3 14 0.91
-1 3 14 1.52
1 3 -14 0.54
0 -3 -14 17.03
0 -3 14 19.81
0 -3 14 10.92
0 -3 14 17.11
0 -3 -14 18.77
0 -3 14 19.53
0 3 14 17.44
0 3 -14 16.85
0 3 14 18.48
0 3 14 16.88
1 -3 14 3.50
-1 -3 -14 4.23
1 -3 14 3.62
-1 -3 -14 3.19
1 -3 14 4.90
-1 3 -14 3.61
1 3 14 2.93
1 3 14 4.80
1 3 14 3.41
2 -3 14 3.17
-2 -3 -14 2.76
2 -3 14 5.24
2 3 14 2.55
2 3 14 5.33
-2 3 -14 2.87
3 -3 14 1.11
3 -3 14 1.91
3 3 14 -0.66
3 3 14 0.16
4 -3 14 3.16
4 3 14 0.31
4 -4 -14 -0.25
-4 -4 14 0.74
-4 4 14 0.07
-4 4 14 0.77
-3 -4 14 4.43
3 -4 -14 5.95
-3 4 14 5.61
-3 4 14 5.61
-2 -4 14 19.04
2 -4 -14 19.49
-2 -4 14 12.95
-2 -4 14 19.44
-2 4 14 17.62
-2 4 14 17.08
2 4 -14 13.83
-1 -4 14 -0.54
1 -4 -14 0.69
-1 -4 14 -1.28
-1 -4 14 -0.37
1 -4 -14 0.30
-1 4 14 0.01
-1 4 14 -0.69
-1 4 14 0.05
1 4 -14 -1.14
0 -4 14 0.40
0 -4 14 -0.14
0 -4 14 0.63
0 -4 -14 -0.21
0 4 -14 0.22
0 4 14 0.50
0 4 14 0.99
-1 -4 -14 1.80
1 -4 14 3.30
1 -4 14 3.25
1 -4 14 1.64
1 4 14 0.94
-1 4 -14 1.32
1 4 14 1.62
1 4 14 3.34
2 -4 14 2.85
2 -4 14 2.41
-2 -4 -14 2.77
-2 4 -14 1.62
2 4 14 3.30
2 4 14 1.76
2 4 14 2.58
3 -4 14 1.63
-3 -4 -14 4.93
3 -4 14 2.10
3 4 14 2.41
-3 -5 14 1.03
3 -5 -14 0.01
-3 5 14 0.92
2 -5 -14 -0.79
-2 -5 14 1.69
-2 5 14 1.41
-2 5 14 -0.56
-1 -5 14 5.66
1 -5 -14 3.82
-1 -5 14 5.92
-1 5 14 4.80
-1 5 14 6.22
0 -5 14 3.22
0 -5 -14 4.79
0 -5 14 4.05
0 5 14 1.72
0 5 14 2.80
1 -5 14 0.04
-1 -5 -14 3.29
1 -5 14 1.26
1 5 14 1.17
1 5 14 1.33
1 5 14 1.84
-2 -5 -14 2.45
2 -5 14 2.15
2 5 14 4.16
2 5 14 1.44
1 -6 -14 0.94
-1 6 14 0.17
0 -6 14 2.10
0 -6 -14 3.87
0 6 14 2.33
5 0 -15 2.97
-5 0 15 1.74
-4 0 15 0.41
-4 0 15 1.74
4 0 -15 0.15
-3 0 15 -0.29
-3 0 15 0.08
3 0 -15 0.53
-2 0 15 1.79
2 0 -15 1.26
-2 0 15 1.97
-1 0 15 4.50
-1 0 15 8.15
1 0 -15 5.88
0 0 15 0.38
0 0 15 0.11
0 0 -15 0.04
1 0 15 1.45
-1 0 -15 0.42
-1 0 -15 2.09
1 0 15 1.43
-2 0 -15 0.63
2 0 15 0.11
2 0 15 -0.07
3 0 15 5.35
3 0 15 4.87
4 0 15 3.75
4 0 15 2.86
4 -1 -15 -0.41
-4 -1 15 -0.05
-4 -1 15 -0.09
4 1 -15 0.38
-4 1 15 0.87
-4 1 15 -0.38
-3 -1 15 2.90
-3 -1 15 2.92
3 -1 -15 2.12
-3 1 15 2.32
-3 1 15 3.86
3 1 -15 1.87
-2 -1 15 0.06
-2 -1 15 0.70
2 -1 -15 -0.26
-2 1 15 0.16
-2 1 15 -1.12
-2 1 15 0.58
2 1 -15 0.34
-1 -1 15 3.32
-1 -1 15 2.40
-1 1 15 4.72
-1 1 15 6.35
1 1 -15 4.77
-1 1 15 4.72
0 -1 15 1.25
0 -1 15 1.74
0 -1 -15 2.21
0 -1 15 2.38
0 -1 -15 1.09
0 1 -15 1.85
0 1 15 1.80
0 1 15 1.35
-1 -1 -15 0.81
1 -1 15 1.78
1 -1 15 0.82
-1 -1 -15 1.62
1 1 15 -0.61
1 1 15 0.32
-2 -1 -15 19.67
2 -1 15 17.48
2 -1 15 15.07
-2 -1 -15 10.07
2 1 15 14.97
2 1 15 14.19
3 -1 15 3.51
3 -1 15 3.07
-3 1 -15 2.90
3 1 15 3.52
3 1 15 6.15
4 -1 15 -0.27
4 -1 15 -1.07
4 1 15 0.71
4 1 15 -0.92
4 -2 -15 6.07
-4 -2 15 3.56
-4 2 15 4.71
4 2 -15 3.52
-4 2 15 4.05
3 -2 -15 7.10
-3 -2 15 6.11
-3 -2 15 6.22
3 2 -15 6.77
-3 2 15 7.05
-3 2 15 6.32
-3 2 15 7.78
-2 -2 15 1.09
-2 -2 15 1.70
2 -2 -15 1.40
-2 2 15 1.13
-2 2 15 1.44
2 2 -15 1.42
-2 2 15 3.17
1 -2 -15 2.24
-1 -2 15 3.72
-1 -2 15 3.45
1 2 -15 1.40
-1 2 15 2.60
-1 2 15 3.90
-1 2 15 1.82
0 -2 15 24.94
0 -2 15 26.76
0 -2 -15 24.65
0 -2 -15 28.22
0 -2 15 29.33
0 2 15 25.69
0 2 -15 20.29
0 2 15 23.18
1 -2 15 7.64
1 -2 15 7.25
1 -2 15 8.80
-1 -2 -15 5.81
-1 2 -15 4.26
1 2 15 7.47
1 2 15 7.71
1 2 15 7.52
2 -2 15 16.17
-2 -2 -15 21.49
2 -2 15 16.23
2 2 15 14.20
2 2 15 17.13
3 -2 15 4.54
3 -2 15 4.62
3 2 15 3.88
3 2 15 4.30
4 -2 15 -1.07
4 -2 15 0.43
4 2 15 2.30
-4 -3 15 -1.15
4 -3 -15 -0.51
4 3 -15 1.26
-4 3 15 0.35
-4 3 15 0.46
3 -3 -15 6.04
-3 -3 15 5.87
-3 -3 15 5.97
-3 3 15 3.16
-3 3 15 3.45
3 3 -15 3.42
-2 -3 15 -0.55
2 -3 -15 0.92
-2 -3 15 1.49
-2 -3 15 1.04
-2 3 15 0.86
-2 3 15 0.24
-2 3 15 0.88
-1 -3 15 1.20
-1 -3 15 2.20
1 -3 -15 3.10
1 -3 -15 0.87
-1 3 15 2.30
-1 3 15 0.87
1 3 -15 -0.07
-1 3 15 1.70
0 -3 15 2.24
0 -3 -15 1.42
0 -3 15 0.35
0 -3 15 0.78
0 3 -15 0.58
0 3 15 0.86
0 3 15 0.71
1 -3 15 -0.21
-1 -3 -15 0.51
1 -3 15 -0.43
1 -3 15 0.78
1 3 15 -0.21
1 3 15 0.33
-1 3 -15 0.81
1 3 15 -0.57
2 -3 15 0.78
-2 -3 -15 2.62
2 -3 15 2.97
2 3 15 2.91
2 3 15 2.63
2 3 15 2.64
3 -3 15 0.56
3 -3 15 1.33
3 3 15 3.40
-3 -4 15 1.10
3 -4 -15 1.90
-3 4 15 1.31
-3 4 15 -0.13
2 -4 -15 3.93
-2 -4 15 6.72
-2 -4 15 4.79
-2 4 15 2.99
-2 4 15 4.15
-1 -4 15 3.63
1 -4 -15 4.12
-1 -4 15 3.56
-1 4 15 3.89
-1 4 15 5.07
0 -4 -15 0.95
0 -4 15 1.77
0 -4 15 0.63
0 4 15 1.01
0 4 -15 0.40
0 4 15 1.00
1 -4 15 1.05
-1 -4 -15 0.06
1 -4 15 0.92
1 -4 15 0.52
1 4 15 0.89
1 4 15 1.23
1 4 15 0.03
2 -4 15 2.87
2 -4 15 1.45
-2 -4 -15 3.96
2 4 15 3.25
2 4 15 3.47
-3 -4 -15 -0.01
3 4 15 -0.46
3 4 15 0.95
-2 -5 15 2.13
2 -5 -15 3.13
-2 5 15 3.46
-2 5 15 2.00
1 -5 -15 3.28
-1 -5 15 3.12
-1 -5 15 3.28
-1 5 15 3.07
-1 5 15 3.77
0 -5 15 3.42
0 -5 -15 1.96
0 -5 15 3.43
0 5 15 4.38
1 -5 15 -0.38
-1 -5 -15 1.19
1 5 15 0.85
1 5 15 -0.01
4 0 -16 0.33
-4 0 16 -1.00
-3 0 16 -0.06
3 0 -16 1.23
-3 0 16 -1.10
-2 0 16 -1.24
-2 0 16 -0.33
2 0 -16 0.20
-1 0 16 1.04
-1 0 16 0.95
0 0 16 4.28
0 0 16 2.68
0 0 -16 5.36
1 0 16 0.03
1 0 16 0.50
-1 0 -16 -0.44
2 0 16 3.37
2 0 16 4.45
3 0 16 -1.54
3 0 16 -2.18
4 0 16 0.44
4 -1 -16 4.54
-4 -1 16 5.03
-4 1 16 5.81
4 1 -16 4.11
-4 1 16 4.79
-3 -1 16 2.40
3 -1 -16 1.58
-3 -1 16 2.25
-3 1 16 3.23
-3 1 16 3.20
3 1 -16 1.79
-2 -1 16 2.78
2 -1 -16 0.58
-2 -1 16 0.37
-2 1 16 2.22
-2 1 16 1.57
2 1 -16 0.44
-1 -1 16 1.73
1 -1 -16 1.32
-1 -1 16 4.33
1 1 -16 2.75
-1 1 16 0.98
-1 1 16 4.33
0 -1 16 1.27
0 -1 16 2.38
0 -1 -16 3.50
0 -1 16 3.19
0 1 16 2.54
0 1 16 2.57
0 1 -16 1.57
1 -1 16 0.93
1 -1 16 1.03
-1 -1 -16 -0.09
1 1 16 0.21
1 1 16 0.94
2 -1 16 2.12
2 -1 16 0.03
2 1 16 1.22
2 1 16 0.09
3 -1 16 3.75
3 -1 16 4.37
3 1 16 4.68
3 1 16 6.25
4 -2 -16 11.47
-4 -2 16 8.95
4 2 -16 6.43
-4 2 16 9.59
-4 2 16 7.55
-3 -2 16 4.86
3 -2 -16 4.58
-3 2 16 3.92
-3 2 16 5.97
3 2 -16 4.90
2 -2 -16 2.61
-2 -2 16 3.54
-2 -2 16 3.24
2 2 -16 1.53
-2 2 16 0.47
-2 2 16 1.39
1 -2 -16 2.74
-1 -2 16 3.04
-1 -2 16 3.31
-1 2 16 4.04
-1 2 16 3.06
-1 2 16 3.69
1 2 -16 3.40
0 -2 16 11.59
0 -2 -16 12.48
0 -2 16 11.61
0 2 16 11.65
0 2 16 14.76
1 -2 16 3.80
-1 -2 -16 1.64
1 -2 16 0.07
1 -2 16 1.12
1 2 16 1.63
1 2 16 2.27
1 2 16 2.81
2 -2 16 1.07
2 -2 16 1.99
-2 -2 -16 0.71
2 2 16 3.09
2 2 16 2.07
3 -2 16 -0.01
3 -2 16 1.75
3 2 16 0.22
3 -3 -16 0.79
-3 -3 16 0.71
-3 3 16 -0.12
-3 3 16 1.53
3 3 -16 1.15
-2 -3 16 0.75
-2 -3 16 2.18
2 -3 -16 0.76
-2 3 16 0.91
-2 3 16 0.38
1 -3 -16 4.62
-1 -3 16 4.76
-1 -3 16 5.51
-1 3 16 4.72
-1 3 16 5.09
-1 3 16 4.45
0 -3 16 1.65
0 -3 16 -1.06
0 -3 -16 -0.72
0 3 16 0.04
0 3 16 0.27
1 -3 16 3.63
1 -3 16 2.20
-1 -3 -16 2.12
1 3 16 2.64
1 3 16 3.69
1 3 16 3.53
-2 -3 -16 5.29
2 -3 16 3.99
2 -3 16 3.49
2 3 16 6.72
2 3 16 4.38
3 -3 16 0.33
3 -3 16 1.32
3 3 16 4.09
-2 -4 16 0.07
2 -4 -16 0.36
-2 4 16 0.31
-2 4 16 1.01
1 -4 -16 1.82
-1 -4 16 1.94
-1 -4 16 2.69
-1 4 16 3.12
-1 4 16 4.04
0 -4 16 1.05
0 -4 -16 1.65
0 -4 16 1.55
0 4 16 0.48
0 4 16 1.71
1 -4 16 6.64
1 -4 16 4.65
-1 -4 -16 5.29
1 4 16 7.35
2 -4 16 4.24
-2 -4 -16 6.16
2 -4 16 6.67
2 4 16 5.79
2 4 16 6.82
-1 5 16 2.78
0 -5 -16 0.71
3 0 -17 3.39
-3 0 17 2.22
-2 0 17 15.49
-2 0 17 18.23
2 0 -17 13.86
-1 0 17 0.67
1 0 -17 0.29
-1 0 17 0.31
0 0 17 14.03
0 0 -17 13.19
0 0 17 11.65
1 0 17 3.27
-1 0 -17 5.00
1 0 17 2.33
2 0 17 4.67
2 0 17 2.95
3 0 17 -0.51
3 -1 -17 9.07
-3 -1 17 10.57
-3 1 17 8.44
3 1 -17 8.74
-2 -1 17 2.93
2 -1 -17 1.93
-2 -1 17 2.67
-2 1 17 1.90
-2 1 17 3.13
2 1 -17 2.55
-1 -1 17 11.41
1 -1 -17 12.83
-1 -1 17 11.03
-1 1 17 15.22
1 1 -17 7.92
-1 1 17 9.63
0 -1 -17 0.09
0 -1 17 2.15
0 -1 17 -0.35
0 1 17 0.75
0 1 17 0.04
0 1 -17 1.02
1 -1 17 7.00
1 -1 17 11.66
-1 -1 -17 9.04
1 1 17 6.49
1 1 17 8.83
2 -1 17 2.35
2 -1 17 0.45
2 1 17 1.17
2 1 17 2.03
3 -1 17 2.24
3 -1 17 0.72
3 1 17 4.21
-3 -2 17 4.39
3 -2 -17 4.18
-3 2 17 3.82
3 2 -17 2.49
-2 -2 17 1.15
2 -2 -17 0.08
-2 2 17 1.91
2 2 -17 1.40
-2 2 17 -0.15
1 -2 -17 7.00
-1 -2 17 8.04
-1 -2 17 6.52
-1 2 17 6.14
-1 2 17 4.64
1 2 -17 4.07
0 -2 17 0.75
0 -2 17 2.09
0 -2 -17 2.79
0 2 17 1.86
0 2 17 1.98
1 -2 17 1.56
-1 -2 -17 1.09
1 -2 17 -0.35
1 2 17 0.92
1 2 17 -1.55
2 -2 17 -0.75
2 -2 17 1.69
-2 -2 -17 1.22
2 2 17 2.00
3 -2 17 0.54
-2 -3 17 1.56
2 -3 -17 0.58
-2 3 17 0.13
-1 -3 17 0.83
1 -3 -17 -0.30
-1 3 17 1.83
-1 3 17 1.73
0 -3 17 1.25
0 -3 -17 3.51
0 -3 17 1.65
0 3 17 2.50
1 -3 17 1.55
-1 -3 -17 0.55
1 -3 17 0.77
1 3 17 0.88
2 -3 17 2.54
-2 -3 -17 3.03
2 -3 17 2.38
2 3 17 3.48
1 -4 -17 1.27
-1 -4 17 2.68
-1 4 17 1.30
0 -4 17 2.29
0 -4 -17 1.82
0 4 17 0.77
1 -4 17 2.29
1 -4 17 1.87
-1 -4 -17 2.19
1 4 17 -0.05
-3 0 18 0.09
3 0 -18 -1.50
2 0 -18 -0.11
-2 0 18 -0.91
-1 0 18 0.12
1 0 -18 -0.13
0 0 18 -0.13
0 0 -18 0.93
1 0 18 19.97
-1 0 -18 20.61
2 0 18 0.94
3 -1 -18 3.09
-3 -1 18 1.05
-3 1 18 1.19
3 1 -18 2.85
-2 -1 18 4.24
-2 1 18 4.13
2 1 -18 5.36
-1 -1 18 3.72
1 -1 -18 4.13
1 1 -18 3.64
-1 1 18 5.06
0 -1 -18 0.14
0 -1 18 0.44
0 1 18 0.71
0 1 -18 2.11
1 -1 18 4.50
-1 -1 -18 2.88
1 1 18 4.70
2 -1 18 1.00
2 1 18 2.76
2 -2 -18 0.55
-2 -2 18 0.05
2 2 -18 1.84
-2 2 18 0.36
-1 -2 18 0.37
1 -2 -18 0.14
-1 2 18 0.47
1 2 -18 1.29
0 -2 -18 2.37
0 -2 18 1.48
0 2 18 2.39
1 -2 18 -1.40
-1 -2 -18 1.00
1 2 18 1.13
-2 -2 -18 2.65
2 2 18 0.11
1 -3 -18 0.22
-1 -3 18 1.70
-1 3 18 4.38
0 -3 -18 1.19
0 -3 18 -0.19
0 3 18 1.07
-1 -3 -18 4.47
1 -3 18 4.92
2 0 -19 1.97
-1 0 19 1.44
1 0 -19 3.19
0 0 -19 -0.92
0 0 19 -0.34
1 0 19 0.86
1 -1 -19 5.85
-1 -1 19 6.57
1 1 -19 5.73
-1 1 19 5.37
0 -1 19 7.79
0 -1 -19 9.09
0 1 19 8.70
0 1 -19 6.41
1 -1 19 1.35
-1 -1 -19 2.55
1 1 19 -0.02
0 2 19 0.08
0 0 0 0.00
