#------------------------------------------------------------------------------
#$Date: 2019-12-26 21:22:11 +0200 (Thu, 26 Dec 2019) $
#$Revision: 246100 $
#$URL: file:///home/coder/svn-repositories/cod/cif/2/31/17/2311749.cif $
#------------------------------------------------------------------------------
#
# This file is available in the Crystallography Open Database (COD),
# http://www.crystallography.net/. The original data for this entry
# were provided by IUCr Journals, http://journals.iucr.org/.
#
# The file may be used within the scientific community so long as
# proper attribution is given to the journal article from which the
# data were obtained.
#
data_2311749
loop_
_publ_author_name
'Ende, Martin'
'Effenberger, Herta'
'Miletich, Ronald'
_publ_section_title
;
 Evolution of the \a-BaMg(CO<sub>3</sub>)<sub>2</sub> low-temperature
 superstructure and the tricritical nature of its \a-\b phase transition.
;
_journal_issue                   'Pt 5'
_journal_name_full
'Acta crystallographica Section B, Structural science, crystal engineering and materials'
_journal_page_first              827
_journal_page_last               835
_journal_paper_doi               10.1107/S2052520617009295
_journal_volume                  73
_journal_year                    2017
_chemical_formula_sum            'C6 Ba3 Mg3 O18'
_chemical_formula_weight         845.01
_space_group_crystal_system      trigonal
_space_group_IT_number           167
_space_group_name_Hall           '-R 3 2"c'
_space_group_name_H-M_alt        'R -3 c :H'
_audit_creation_method           SHELXL-2014/7
_cell_angle_alpha                90
_cell_angle_beta                 90
_cell_angle_gamma                120
_cell_formula_units_Z            2
_cell_length_a                   5.01830(10)
_cell_length_b                   5.01830(10)
_cell_length_c                   33.5074(8)
_cell_measurement_reflns_used    9461
_cell_measurement_temperature    330(2)
_cell_measurement_theta_max      45
_cell_measurement_theta_min      1.5
_cell_volume                     730.78(3)
_computing_structure_refinement  'SHELXL-2014/7 (Sheldrick, 2014)'
_diffrn_ambient_temperature      330(2)
_diffrn_measured_fraction_theta_full 0.993
_diffrn_measured_fraction_theta_max 0.997
_diffrn_measurement_device_type  StoeStadiVari
_diffrn_radiation_type           MoK\a
_diffrn_radiation_wavelength     0.71073
_diffrn_reflns_av_R_equivalents  0.0289
_diffrn_reflns_av_unetI/netI     0.0117
_diffrn_reflns_Laue_measured_fraction_full 0.993
_diffrn_reflns_Laue_measured_fraction_max 0.997
_diffrn_reflns_limit_h_max       9
_diffrn_reflns_limit_h_min       -10
_diffrn_reflns_limit_k_max       10
_diffrn_reflns_limit_k_min       -9
_diffrn_reflns_limit_l_max       66
_diffrn_reflns_limit_l_min       -34
_diffrn_reflns_number            9461
_diffrn_reflns_point_group_measured_fraction_full 0.993
_diffrn_reflns_point_group_measured_fraction_max 0.997
_diffrn_reflns_theta_full        25.242
_diffrn_reflns_theta_max         45.581
_diffrn_reflns_theta_min         3.648
_exptl_absorpt_coefficient_mu    8.238
_exptl_absorpt_correction_T_max  0.8
_exptl_absorpt_correction_T_min  0.7
_exptl_absorpt_correction_type   numerical
_exptl_absorpt_process_details   '(Stoe & Cie GmbH 2016)'
_exptl_crystal_density_diffrn    3.840
_exptl_crystal_description       prismatic
_exptl_crystal_F_000             768
_exptl_crystal_size_max          0.060
_exptl_crystal_size_mid          0.030
_exptl_crystal_size_min          0.030
_refine_diff_density_max         0.565
_refine_diff_density_min         -0.405
_refine_diff_density_rms         0.106
_refine_ls_extinction_method     none
_refine_ls_goodness_of_fit_ref   1.007
_refine_ls_hydrogen_treatment    undef
_refine_ls_matrix_type           full
_refine_ls_number_parameters     17
_refine_ls_number_reflns         701
_refine_ls_number_restraints     0
_refine_ls_restrained_S_all      1.007
_refine_ls_R_factor_all          0.0232
_refine_ls_R_factor_gt           0.0105
_refine_ls_shift/su_max          0.000
_refine_ls_shift/su_mean         0.000
_refine_ls_structure_factor_coef Fsqd
_refine_ls_weighting_details
'w=1/[\s^2^(Fo^2^)+(0.0138P)^2^] where P=(Fo^2^+2Fc^2^)/3'
_refine_ls_weighting_scheme      calc
_refine_ls_wR_factor_gt          0.0219
_refine_ls_wR_factor_ref         0.0240
_reflns_Friedel_coverage         0.000
_reflns_number_gt                477
_reflns_number_total             701
_reflns_threshold_expression     'I > 2\s(I)'
_cod_data_source_file            xk5041sup1.cif
_cod_data_source_block           norse_330
_cod_original_sg_symbol_H-M      'R -3 c'
_cod_database_code               2311749
_shelx_shelxl_version_number     2014/7
_shelx_space_group_comment
;
The symmetry employed for this shelxl refinement is uniquely defined
by the following loop, which should always be used as a source of
symmetry information in preference to the above space-group names.
They are only intended as comments.
;
_shelx_estimated_absorpt_t_min   0.638
_shelx_estimated_absorpt_t_max   0.790
_shelx_res_file
;

    norse_330.res created by SHELXL-2014/7


TITL norse_100K_woo_a.res in R-3c
REM Old TITL norse_100k_woo in R-3c

REM SHELXT solution in R-3c
REM R1 0.027,  Rweak 0.000,  Alpha 0.038,  Orientation as input
REM Formula found by SHELXT:  C2 O6 Mg Ba

CELL  0.71073   5.0183   5.0183  33.5074   90.000   90.000  120.000
ZERR    2.000   0.0001   0.0001   0.0008    0.000    0.000    0.000
LATT  3
SYMM -Y, X-Y, Z
SYMM -X+Y, -X, Z
SYMM Y, X, 1/2-Z
SYMM X-Y, -Y, 1/2-Z
SYMM -X, -X+Y, 1/2-Z
SFAC C O MG BA
UNIT 12 36 6 6
LIST 4
L.S. 20
TEMP 56.85
SIZE 0.06 0.03 0.03
BOND $H
ACTA
FMAP 2
PLAN 20
REM EXTI    0.000000
WGHT    0.013800
FVAR       0.21923
BA1   4    0.000000    0.000000    0.250000    10.16667    0.01018    0.01018 =
         0.01453    0.00000    0.00000    0.00509
MG2   3    0.000000    0.000000    0.000000    10.16667    0.00787    0.00787 =
         0.01206    0.00000    0.00000    0.00393
O3    2    0.123896    0.831454    0.129136    11.00000    0.03024    0.02571 =
         0.02352   -0.00569   -0.00944    0.02360
C4    1    0.000000    0.000000    0.130381    10.33333    0.00945    0.00945 =
         0.01007    0.00000    0.00000    0.00473
HKLF 4

REM  norse_100K_woo_a.res in R-3c
REM R1 =  0.0105 for     477 Fo > 4sig(Fo)  and  0.0232 for all     701 data
REM     17 parameters refined using      0 restraints

END

WGHT      0.0138      0.0000

REM Highest difference peak  0.565,  deepest hole -0.405,  1-sigma level  0.106
Q1    1   0.2129  0.9375  0.1368  11.00000  0.05    0.53
Q2    1  -0.1396 -0.0826  0.1342  11.00000  0.05    0.41
Q3    1  -0.0478 -0.0841  0.2618  11.00000  0.05    0.31
Q4    1   0.2190  0.7918  0.1425  11.00000  0.05    0.30
Q5    1   0.4372  1.1500  0.1393  11.00000  0.05    0.27
Q6    1   0.0301  0.5473  0.1162  11.00000  0.05    0.26
Q7    1   0.0000  0.0000  0.1033  10.33333  0.05    0.23
Q8    1   0.3339  0.9833  0.1157  11.00000  0.05    0.23
Q9    1   0.4372  0.9863  0.1326  11.00000  0.05    0.22
Q10   1   0.0845  0.6969  0.1301  11.00000  0.05    0.22
Q11   1   0.2276  0.2646  0.2667  11.00000  0.05    0.22
Q12   1  -0.0248  0.6299  0.1006  11.00000  0.05    0.22
Q13   1   0.0879  0.1972  0.2840  11.00000  0.05    0.22
Q14   1  -0.0865  0.6343  0.1300  11.00000  0.05    0.21
Q15   1  -0.0026 -0.1149  0.0934  11.00000  0.05    0.21
Q16   1  -0.0154  0.5543  0.1581  11.00000  0.05    0.21
Q17   1   0.2551  1.0553  0.1036  11.00000  0.05    0.21
Q18   1   0.0565  0.7152  0.1117  11.00000  0.05    0.21
Q19   1   0.3920  0.9277  0.1005  11.00000  0.05    0.21
Q20   1  -0.0960  0.6149  0.1562  11.00000  0.05    0.21
;
_shelx_res_checksum              41203
_shelx_hkl_file
;
   0   2  19   -0.73    5.43   0
   0   5  -5   -2.13    4.71   0
   1   0 -26 1092.93   21.09   0
   0   5  -2  310.48    8.65   0
   0   5   1    0.24    4.43   0
   2   2  36  338.89    9.72   0
   0   4  14  326.03    9.04   0
   1   3  28  702.49   12.12   0
   1   0  25    1.01    5.93   0
   1   2  29    1.93    5.35   0
   0   1  14 1764.37   24.74   0
   0   4 -13    1.36    5.42   0
   0   4  11   -5.30    5.06   0
   1  -2   0 3813.03   35.22   0
   0   2  16 3072.33   26.27   0
   0   3  15   -1.11    4.85   0
   1   1  27    0.04    5.21   0
   0   4   8 1549.27   16.54   0
   1  -2   3   17.56    4.66   0
   1   4  21    4.32    5.31   0
   1   5 -13    6.10    5.38   0
   2   1  34  576.01   12.23   0
   0   4   5    5.65    4.66   0
   2   2  33   -0.63    5.20   0
   0   3  12 2027.14   19.64   0
   0   4  -7    0.60    5.15   0
   0   4   2 1379.74   16.24   0
   1   2  26  523.98   11.16   0
   1   4  18  732.69   11.56   0
   1   5 -10  434.34   10.14   0
   0   1  11    0.33    5.09   0
   0   2  13    1.07    4.30   0
   0   3 -15    3.33    5.68   0
   1   5  -7    1.26    4.92   0
   1   5   2  309.61    8.53   0
   2   0  32  596.23   13.88   0
   1   5  -4  702.91   11.75   0
   1   5  -1    8.08    5.16   0
   0   2 -17    0.39    6.97   0
   0   3   9   -0.85    4.76   0
   1   3  22  353.46    8.55   0
   0   0  -6 1560.36   49.40   0
   1   4  15    2.22    4.84   0
   0   2  10  195.72    8.66   0
   0   3   6 2049.92   20.37   0
   1   1  24 1811.59   20.99   0
   2   2  30  182.73    7.58   0
   0   3 -12 2465.86   26.61   0
   1   0  22  465.20   13.82   0
   2   1  31    1.75    5.55   0
   1   3  19    3.22    5.16   0
   1   4  12 1072.88   13.33   0
   2  -3  17    5.54    4.84   0
   0   1   8 9751.42   60.06   0
   0   3   3    0.40    4.05   0
   1  -2   9   27.37    5.99   0
   0   3  -9   -0.55    4.87   0
   3   1  35    4.65    5.09   0
   0   3   0 2586.82   23.38   0
   1   4   9   10.27    4.37   0
   0   0  -9   -0.25    7.41   0
   0   2   7    3.01    4.62   0
   0   3  -3   -0.77    3.97   0
   1   2  20 1435.70   17.00   0
   1   3  16 2019.61   18.34   0
   1   4 -15   10.22    4.81   0
   1   4   6  358.48    8.40   0
   2   2  27    2.76    4.70   0
   2   3  23    3.62    4.14   0
  -2  -2  12  786.57   13.61   0
  -2   1  30  585.94   10.47   0
  -1   0  20 1505.83   17.66   0
  -1   1  22  466.00   10.99   0
   0   1 -10 3645.32   33.02   0
   0   0  -6 1621.48   33.01   0
  -3  -1  25   -0.21    4.43   0
  -1   2  21   11.61    4.90   0
  -3  -2  14  369.53    9.56   0
  -3   0  30  541.18    9.61   0
  -2  -2   9    0.67    4.91   0
  -2  -1  20 1418.94   15.83   0
  -2   2  29   -2.89    4.90   0
  -1  -1  12 4057.57   31.78   0
   0   0  -9   -1.55    5.03   0
  -2   0  25    2.14    4.46   0
  -4  -2  13    2.94    4.75   0
  -4  -1  24  630.26   10.89   0
  -3   1  32 1195.14   14.02   0
   0   2   1   -0.12    5.92   0
  -2   1  27    2.07    5.40   0
  -1   0  17    0.10    5.67   0
   0   0 -12  278.67   11.18   0
  -3  -2  11    2.77    5.26   0
  -3   3  33   -1.07    5.26   0
  -2   4  24 1767.06   23.57   0
  -1   1  19   -0.74    5.32   0
  -1   3  17    2.50    6.10   0
  -4  -2  10  341.00    9.93   0
  -4   0  29    0.71    4.43   0
  -3   0  27   -3.70    4.54   0
  -2  -1  17   11.24    4.91   0
   2   1 -23   -0.67    7.25   0
   0   2   4 4703.61   36.17   0
   0   3   3   -0.82    4.75   0
  -3   6  12  720.42   11.89   0
  -2   5  11    2.52    5.46   0
  -2   6   7    3.78    4.74   0
  -4   3  17   -0.21    5.46   0
   1   4 -12  918.64   14.07   0
   1   2  -4 2921.77   27.88   0
  -1   5   6  372.94    8.97   0
   0   4   2 1409.24   16.42   0
   2   2 -24 1743.51   26.32   0
  -4   5  18  371.84   10.30   0
  -3   0   6 1935.99   27.34   0
  -3   4  17   -2.16    5.71   0
  -3   5  16 1735.31   18.57   0
   0   5  -2  330.60    8.42   0
  -4   6  17    2.44    5.36   0
  -1   3  11   13.13    5.54   0
  -1   4  10 1143.14   15.25   0
   1  -1 -16 5037.09   44.70   0
   1   4  -9    3.42    4.48   0
   2   1 -20 1439.41   31.27   0
  -2   6  10  326.44    9.16   0
   1   5 -19    1.14    5.10   0
  -4   4  19   -0.59    5.02   0
  -3   6  15   -0.44    4.93   0
   0   3   6 2049.07   20.86   0
   1   5 -16  591.99   11.32   0
  -1   5   9   23.28    5.65   0
  -2   2  14  332.21   12.57   0
   0  -1  -8 9999.99   59.24   0
   0   4   5   -4.51    5.49   0
   0   5   1   -0.06    4.58   0
   1   1  -3   21.48    5.86   0
   1   4  -6  868.75   13.37   0
   1   5 -13    7.43    5.36   0
   1  -1 -19   -0.68    4.74   0
   1   2  -1   23.16    5.09   0
  -2   3  16 2013.92   22.94   0
  -3   3  18 1269.18   20.65   0
  -2   6  13   -1.70    4.58   0
   0   2   7   -1.07    4.96   0
   2   1 -17    7.84    7.09   0
  -3   5  19    1.75    5.48   0
  -1   4  13    3.07    5.64   0
   1   5 -10  452.37   10.17   0
   2   2 -15    1.91    5.69   0
   2   3 -19    2.61    5.42   0
  -4   6  20  598.65   12.06   0
   0   1   5    2.33    7.78   0
   0   5   4 1140.96   13.96   0
  -4   5  21    3.95    5.76   0
  -3   6  18  407.37   10.14   0
  -1   5  12 1124.74   14.33   0
   0   4   8 1539.26   16.94   0
   2   3 -16 1809.38   21.37   0
  -3   1  11   11.09    9.82   0
  -3   4  20  885.18   15.27   0
  -2   5  17    3.96    4.61   0
  -1   3  14 1591.90   19.00   0
   0   3   9    0.27    4.97   0
   1   3   1   19.48    4.98   0
   1   5  -7    0.07    4.57   0
  -2   4  18 1018.91   14.69   0
  -3   2  16 1957.22   35.94   0
   0  -1 -11    0.68    3.99   0
   0   5   7    3.72    5.14   0
   2   3 -13   -0.68    5.35   0
   1   2   2  682.85   13.45   0
   1   5  -4  720.47   11.48   0
   2   1 -14 1622.96   29.02   0
  -2   0   4 4774.14   49.25   0
  -1   4  16 2046.19   19.38   0
  -1   5  15    5.43    4.63   0
   2   3 -10  723.46   13.30   0
  -4   6  23    1.86    5.46   0
  -3   5  22  269.62    8.96   0
   0   4  11    1.19    4.61   0
   1   1   0 3963.84   38.75   0
   1   3   4 1318.19   16.19   0
   1   5  -1    2.50    5.34   0
   2   2  -9    1.42    4.85   0
  -2   5  20  559.54   11.16   0
   0   2  10  188.48    8.21   0
   1   4   3   -1.14    4.51   0
   2   4 -14  257.44    8.64   0
  -2   3  19    3.70    5.23   0
  -1   1  10 3885.33   49.22   0
   0   3  12 2033.52   20.38   0
   0   5  10  709.06   11.15   0
  -4   3  20  849.11   21.24   0
   2   3  -7    5.05    5.25   0
   2   4 -11   -3.19    5.03   0
  -2   4  21    1.98    5.32   0
   1   2   5    7.62    4.49   0
   2   1 -11   12.90    6.04   0
   2   2  -6  824.15   14.89   0
  -3   4  23    9.81    5.71   0
   1   4   6  362.17    8.68   0
   2   4  -8  835.27   13.15   0
   0   4  14  308.57    8.36   0
   1   3   7   14.82    4.91   0
  -3   3  21    1.46    4.63   0
  -2   2  17    0.79    5.20   0
   0   5  13    2.73    4.53   0
   2   3  -4  718.88   12.78   0
  -2   5  23    2.78    5.27   0
   2   4  -5   -0.48    5.07   0
  -3   5  25    2.16    5.24   0
   0   1   8 9536.63   61.33   0
   0   3  15   -2.23    5.65   0
   1   4   9    6.26    5.35   0
   2   2  -3    0.78    5.01   0
   0   2  13   -0.24    4.45   0
   1   1   3   21.86    6.91   0
   2   1  -8 3378.42   36.35   0
   2   3  -1   -1.37    5.18   0
   2   4  -2  590.08   11.06   0
   0   4  17   -2.64    5.05   0
   0   5  16  670.98   10.77   0
   1   2   8 3270.58   26.47   0
   1   3  10 1103.02   14.41   0
  -2   4  24 1803.71   19.39   0
  -2   3  22  451.38   11.53   0
  -1   0   2 1921.95   42.79   0
   1   4  12 1125.83   13.78   0
   2   3   2  785.97   12.37   0
   2   4   1    2.63    4.53   0
  -2   5  26  596.35   11.39   0
  -3   4  26  625.90   13.16   0
   2   1  -5    4.39    5.81   0
   1   3  13    4.20    4.74   0
   2   4   4  831.59   12.44   0
   0   4  20 1241.94   14.50   0
   1   2  11   14.74    5.71   0
   0   2  16 2978.67   25.74   0
   1   1   6 1994.95   24.89   0
   1   4  15    1.11    4.45   0
  -3   3  24 1034.61   18.94   0
  -2   4  27   -2.33    5.14   0
  -1   3  23    1.15    5.34   0
  -1   4  25    1.68    4.54   0
   0   1  11   -1.39    6.38   0
  -2   0  -2 5070.83   39.73   0
  -2   5  29   -2.63    5.32   0
   1   3  16 2123.03   19.13   0
   2   3   8 2153.33   19.36   0
  -2   2  20 3476.16   35.65   0
   0   3  21   -1.15    5.31   0
  -2   3  25    6.61    5.20   0
   0   4  23    3.14    4.37   0
   1   4  18  742.27   11.53   0
   2   2   6  789.66   12.97   0
   3   3  -9    3.16    4.82   0
  -4   2  15    0.05    8.50   0
   1   2  14 1606.69   17.87   0
   3   2 -14  371.59   11.70   0
   3   3  -6  433.01   10.47   0
  -3   2  19    1.49    6.72   0
   3   2 -11    1.42    5.20   0
  -3   4  29    1.29    5.13   0
   1   0  -5    0.03    9.79   0
   2   3  11    0.36    5.25   0
   0   2  19    1.89    5.30   0
   1   0 -23   -0.71    4.70   0
   2   1   1   26.92    4.99   0
   3   2  -8 2201.88   23.41   0
   3   3  -3    4.24    4.94   0
  -1   2  21   12.12    4.94   0
  -1   4  28  657.12   11.29   0
   1   1   9   29.62    5.47   0
   1   3  19    4.62    4.68   0
   2   4  13   -6.20    5.18   0
   1   4  21   10.47    4.87   0
   2   2   9    3.85    4.55   0
  -2   4  30  193.98    8.16   0
  -1   3  26  521.05   11.18   0
   3   2  -5    6.49    5.16   0
   3   3   0 1026.45   14.15   0
   0   3  24 1525.85   16.48   0
  -1   0  -1    0.15    6.85   0
   1   2  17    5.94    5.37   0
   2   3  14  368.65    8.63   0
  -3   1   8 3288.27   43.84   0
   3   2  -2  814.36   13.72   0
   1   0 -20 1538.55   26.60   0
   2   1   4 2963.88   26.94   0
   3   3   3    5.20    4.38   0
   0   1  14 1598.85   22.40   0
   2   2  12  767.38   12.20   0
   1   3  22  347.60    8.52   0
   3   2   1    3.08    4.95   0
  -2   3  28 1282.71   17.83   0
  -1   4  31    3.70    5.24   0
   3   3   6  454.10    9.81   0
  -3   3  27    0.42    5.19   0
   0   2  22 1863.27   19.54   0
   1   1  12 3964.81   30.97   0
   2   3  17   -0.42    4.37   0
   2   1   7   -2.46    5.13   0
   3   2   4  706.76   12.27   0
  -1   3  29   -2.30    5.15   0
   1   0 -17    0.25    5.11   0
   1   2  20 1461.72   16.38   0
   2   2  15   -7.57    5.18   0
  -2   2  23   -0.94    4.57   0
  -2   4  33    2.73    4.91   0
  -1   0  -4 2527.73   33.83   0
  -1   2  24 1803.51   21.15   0
   3   3   9    4.39    4.29   0
   1   3  25   -0.82    4.73   0
   2   3  20  577.96   10.05   0
   3   1 -10 1096.91   20.20   0
  -1   0  -7   -1.48    4.74   0
   3   2   7    9.03    4.53   0
  -3   1  17    3.03    5.00   0
   3  -3  15    0.33    5.91   0
  -5   1  21   11.52    5.36   0
  -3   1 -16 1911.93   47.93   0
  -1  -1  33    4.03    5.90   0
  -1   0 -19   -0.39    5.96   0
  -2   1   9   33.17    5.83   0
  -1  -2  40  429.44   10.71   0
  -3   1  20 1463.48   17.17   0
  -2  -1  38  312.35    9.33   0
   0  -1  28 1303.50   19.74   0
   1  -2  30  579.34   15.67   0
  -2   1  12 3912.31   31.55   0
  -4   1  25   -2.70    5.51   0
   1  -1 -10 3651.62   33.28   0
   0   0   6 1617.43   41.99   0
  -3   1  23    1.97    5.71   0
  -2   0  31    2.52    4.70   0
  -2   1  15    4.84    4.73   0
  -1  -1  36  886.09   14.70   0
  -5   2   2  808.35   13.72   0
  -5   2   5    8.86    4.65   0
  -6   2   1    2.15    5.11   0
  -6   2   4  862.58   13.27   0
  -6   2   7    1.36    5.23   0
  -5   2  -1    4.67    5.20   0
  -5   2   8 2089.06   19.68   0
  -4   1  28  689.46   11.38   0
  -3   0  36  507.01   10.80   0
  -6   2  10  326.24    9.02   0
  -2  -1  41    0.41    5.62   0
  -1   0  26 1128.81   16.60   0
   0   0   9   -0.37    7.69   0
  -6   2  -2  570.91   11.74   0
  -5   2  -4  695.02   13.83   0
  -3   1  26  546.35   11.03   0
  -2   1  18 1174.46   17.03   0
  -6   2  13   -1.56    4.56   0
  -5   2  14  369.19    8.95   0
   1  -1  -7   -0.10    5.82   0
   1  -1  17    0.73    5.73   0
  -6   2  -5   -3.08    5.39   0
  -4   2   9   -6.09    5.54   0
  -2   0  34  272.71    8.97   0
  -2   1  -9   28.52    9.45   0
   0  -1  31    0.09    5.10   0
  -5   2  17    2.76    5.36   0
  -4   1  31   -0.16    4.71   0
  -4   2   0 4223.82   32.28   0
  -5   2  -7    5.65    5.45   0
  -4   2  12  765.15   12.72   0
  -2   1  21   12.05    4.95   0
   0   0  12  255.24   13.59   0
  -5   2  20  587.10   10.54   0
  -4   2  -3    0.11    4.97   0
  -4   2  15    3.06    4.71   0
  -3   1  29    3.12    4.76   0
  -1  -1  39    1.77    5.21   0
  -1   0  29   -1.96    5.37   0
  -2   0 -23    0.32    5.43   0
   1  -2  33    2.54    5.13   0
  -5   2  23    2.51    4.65   0
  -2   0  37   -1.86    5.45   0
  -1   0 -16 4940.77   52.30   0
  -5   2 -10  686.12   15.47   0
  -2   1  24 1817.11   19.53   0
   1  -1  -4 2433.34   32.96   0
  -4   2  -6  798.02   16.75   0
  -4   2  21    1.55    5.26   0
   0   0  15   -0.76    6.04   0
   0  -1  34  906.76   16.54   0
  -1   0  32 1732.58   20.04   0
  -4   2  24 1876.61   17.84   0
   2  -2   1   -0.43    3.74   0
  -3   1  35   -2.98    5.46   0
  -3   2   7    0.21    4.42   0
  -3   2  10 1985.71   21.10   0
  -3   2  13   18.30    5.98   0
  -2   0  40  788.12   13.38   0
  -3   2   4 2971.62   27.63   0
  -4   2  27    5.46    5.48   0
  -3   2  16 2089.37   20.46   0
  -4   2  -9    0.55    5.80   0
  -3   2  19    1.27    5.86   0
  -1   0  35   -0.69    5.31   0
   1  -1  -1   -0.23    5.75   0
  -6   3   9    5.94    5.38   0
  -6   3  12  708.57   11.86   0
  -4   2  30  198.15    7.18   0
  -3   1  38  320.36    9.18   0
   0  -1  37   -0.28    5.32   0
   0   0  21   -1.67    5.73   0
  -6   3   6  440.35   10.21   0
  -6   3  15   -6.48    5.47   0
  -3   2  22  488.01   10.31   0
   2  -2   7   -0.38    4.78   0
   2  -2  13   -0.83    6.64   0
  -6   3   3    4.54    5.11   0
  -2   0  43    1.48    5.47   0
  -1   1  10 3691.41   35.99   0
  -1   1  13   -1.73    6.28   0
  -4   2  33   -5.13    5.53   0
  -3   2  25    7.41    5.52   0
  -2   1  33    2.25    4.92   0
  -6   3   0 1049.72   15.37   0
  -5   3   7    4.81    5.40   0
  -5   3  16 1770.26   17.44   0
  -1   1   7    0.65    6.03   0
  -1   1  16 5101.60   37.69   0
   1  -1  23   -1.70    5.86   0
  -5   3  19   10.14    5.16   0
   0   0  24 4695.16   38.40   0
  -5   3   4  676.13   12.27   0
  -1   0  38  257.89    9.00   0
  -1   1  19   -1.69    5.51   0
  -5   3  22  286.76    7.98   0
  -3   2  28 1307.95   15.37   0
  -6   3  -3    3.58    5.19   0
  -2   1  36  891.75   13.83   0
  -5   3   1   -0.20    4.64   0
  -5   3  25   -2.23    5.24   0
  -1   1   4 2347.10   33.99   0
  -3   2  31   -2.55    5.33   0
  -4   2 -12  750.02   20.07   0
  -3   2  -5    5.91    5.95   0
   0   0  27    0.20    4.75   0
   1  -1   2 1833.23   37.37   0
  -5   3  -2  782.84   14.30   0
  -4   3  11   17.74    5.79   0
  -4   3  14  674.17   11.73   0
  -4   3  17    1.91    5.33   0
  -1   0  41   -0.65    4.97   0
  -4   3  20  918.46   13.31   0
  -2   0 -20 3176.86   39.48   0
  -2   1  39   -2.87    5.28   0
   1  -1  26 1134.36   24.08   0
  -4   3  23    5.59    5.49   0
  -2   2  11   -1.60    5.65   0
  -2   2  14  331.83    9.56   0
  -2   2  17   -2.26    4.31   0
  -1   1  28 1337.93   17.81   0
  -4   3  26  637.98   11.20   0
  -2   2  20 3499.40   26.49   0
   0   0  30  160.92    8.26   0
  -3   2  37    1.92    5.26   0
  -5   3  -5    6.02    5.10   0
  -2   1  42  316.97    9.24   0
  -2   2   8 2152.60   23.87   0
  -2   2  23    1.15    4.67   0
  -1   1   1    0.07    6.57   0
  -4   3   2  843.33   14.38   0
  -4   3  29    3.43    4.48   0
  -2   2  26 1246.17   16.05   0
  -1   1  31   -0.66    4.67   0
  -6   4  14  264.59    8.16   0
   1  -1  29   -1.16    5.26   0
  -6   4  11   -3.96    5.14   0
  -2   2   5    1.11    4.89   0
   0   0  33   -0.37    5.25   0
  -6   4   8  846.24   12.99   0
  -4   3  -1   15.64    5.30   0
  -2   1  45   -0.29    5.39   0
  -1   1  34  944.02   14.80   0
  -3   2  -8 3172.16   38.89   0
   0  -1 -11   -1.42    3.27   0
  -6   4   5    1.90    5.07   0
  -5   3  -8 2105.58   25.48   0
  -3   3  18 1327.66   16.07   0
  -2   2  32  624.75   11.30   0
  -5   4  18  369.22    8.73   0
  -5   4  21    2.62    4.99   0
  -3   3  15   -1.22    4.78   0
  -3   3  21    3.57    4.73   0
  -6   4   2  595.93   11.72   0
  -3   3  12 2568.34   22.40   0
  -3   3  24 1088.26   14.11   0
  -2   2   2 5037.51   40.06   0
   0   0  36  588.05   13.23   0
  -2   2  35   -2.01    5.31   0
  -1   1  37    3.96    5.11   0
   1  -1  32 1676.84   27.30   0
  -5   4   9    4.13    4.54   0
  -3   3   9    1.69    5.33   0
  -3   3  27    3.12    4.55   0
   1  -1   5    1.29    8.62   0
  -4   3  -4 1309.78   19.43   0
  -3   3  30  294.82    8.18   0
  -5   4   6  867.13   13.21   0
  -6   4  -1   -0.87    4.87   0
  -3   3   6  520.56   11.25   0
  -2   2  38  241.67    7.90   0
  -1   1  40  708.06   13.00   0
   0   0  39    1.02    5.52   0
  -5   4   3   10.62    4.87   0
  -3   3  36  752.94   12.15   0
  -2   2  41    0.09    5.25   0
  -4   4  16 1545.05   16.76   0
  -4   4  19   -3.14    4.66   0
  -4   4  22  728.07   11.57   0
  -4   4  25   -1.65    5.16   0
  -3   3   3    0.27    5.10   0
  -2   2  -1    0.63    6.00   0
  -6   4  -4  835.87   14.99   0
  -5   3 -11    3.07    5.89   0
  -4   4  28  619.42   11.22   0
  -1   1  -2 1749.05   38.57   0
  -1   1  43    0.88    5.15   0
  -4   4  13    2.01    4.55   0
  -5   4   0 1455.20   18.21   0
  -4   4  10  394.29    9.57   0
   0  -1  -8 9609.72   60.76   0
  -3   3  -9   -4.50    5.38   0
  -2   3  10 2047.06   20.79   0
  -2   3  22  456.73   10.65   0
   1  -2   3   19.37    4.70   0
  -5   5  -1   -0.20    5.20   0
  -3   4  17   -0.81    4.60   0
  -2   2  41    2.02    5.43   0
  -3   4  11   18.21    5.01   0
  -3   4  20  901.43   12.93   0
  -2   3   7    3.54    5.32   0
  -1   2  15    2.76    4.61   0
  -1   2  18 1178.64   17.24   0
   0  -1  -8 9580.61   61.68   0
  -3   4  23    4.60    4.58   0
  -1   2  12 3954.68   32.06   0
  -5   4 -15    1.25    5.28   0
  -4   4  -8 1493.27   18.36   0
  -3   4   8 2680.39   21.69   0
   0   0  33   -0.91    5.41   0
  -2   3  28 1302.96   15.57   0
  -1   2   9   31.99    6.49   0
  -1   2  24 1786.37   20.20   0
  -5   5  -4 1096.22   14.64   0
  -3   4   5    2.99    5.30   0
  -2   3   4 2953.25   25.62   0
  -4   5  15    8.89    4.42   0
  -4   5  18  375.07    8.44   0
  -3   4  29    0.45    5.49   0
   1  -2   6 1947.79   26.43   0
  -4   5  12  945.46   12.83   0
  -4   5  21    1.75    5.16   0
  -2   4  18 1036.06   13.51   0
  -2   5  32  680.62   12.08   0
  -2   5  35   -1.78    6.15   0
  -2   5  38   82.50    6.30   0
  -1   4   7    8.43    4.57   0
  -1   6  26  219.30    8.03   0
  -1   6  38  119.62    7.98   0
  -1   6  29   -2.01    5.71   0
  -1   6  32  359.14   10.30   0
  -1   6  35  -10.52    5.79   0
   0   6  18  242.91    8.91   0
   3   6  21    6.76    6.54   0
  -2   4  45   -3.70    5.71   0
  -1   3   5    4.67    4.19   0
  -1   5  51    3.56    6.58   0
   1   5   5    7.20    5.72   0
   1   6  16  581.53   11.77   0
   2   6  17    1.98    6.65   0
  -2   4  21   -4.06    4.46   0
  -1   5  15   -0.42    5.53   0
   0   6  21    1.08    6.32   0
   0   6  45    7.65    6.83   0
   1   3  -5    5.56    4.21   0
   2   3  -7    8.83    4.56   0
   3   6  24  151.05    8.41   0
   3   6  27   -1.65    6.59   0
  -2   4  42  365.09    9.98   0
  -1   5  48  121.84    8.20   0
   0   6  24  555.67   11.61   0
   2   4  -2  556.51   11.43   0
   2   6  20  186.11    8.77   0
   3   5   7   -0.03    5.60   0
  -2   4  39    0.40    5.74   0
  -1   4  10 1140.46   14.33   0
   0   5  10  670.07   11.26   0
   0   6  27    3.18    6.70   0
   0   6  39    0.95    7.30   0
   2   5   6  433.73   10.37   0
  -2   4  27    0.84    5.26   0
  -1   5  18  727.23   11.61   0
   0   6  30  134.15    7.49   0
   0   6  33    4.91    7.28   0
   0   6  36  139.58    7.93   0
   1   4   0 1375.73   16.00   0
   1   6  22  136.00    7.54   0
   1   6  43    5.14    7.12   0
   2   6  23   -5.39    6.92   0
  -2   3  43   -1.62    5.64   0
  -2   4  30  195.23    7.80   0
  -2   4  33    3.10    5.36   0
  -1   5  45    1.84    6.35   0
   1   5   8  808.62   12.76   0
   1   6  25    8.71    6.65   0
   1   6  40  199.91    9.05   0
  -2   3  22  465.72   10.25   0
  -1   5  21    8.32    6.07   0
   1   6  28  154.01    8.43   0
   1   6  37   13.29    6.94   0
   2   6  32  189.16    8.57   0
   2   6  35   -6.21    6.84   0
  -1   4  52  174.79    9.05   0
  -1   5  42  214.77    8.73   0
   0   4   5   -0.43    4.97   0
   0   5  13    3.25    5.43   0
   0   5  52  142.00    8.52   0
   1   6  31    5.31    6.61   0
   1   6  34  150.93    8.24   0
   3   5  10  197.71    8.31   0
  -2   2  23    1.59    4.11   0
  -2   3  40  444.96   10.66   0
  -1   3   8 3318.98   24.76   0
   0   4  59    1.04    5.54   0
   2   5   9   -2.56    5.95   0
  -2   3  25    4.47    4.13   0
  -1   4  13    5.69    4.53   0
  -1   5  27   -1.66    5.96   0
   4   5  17    5.58    6.25   0
  -2   3  28 1299.74   16.07   0
  -2   3  37    2.20    5.08   0
  -1   5  30  165.99    7.96   0
  -1   5  33    2.70    6.27   0
   0   5  49   -2.29    7.00   0
  -2   2  26 1213.93   16.82   0
  -2   3  31    4.69    4.89   0
  -2   3  34  582.50   11.43   0
  -1   4  49    4.61    6.11   0
   0   5  16  669.72   11.17   0
   2   4   1   -0.29    5.07   0
   3   5  13    4.96    6.21   0
  -2   2  29   -0.85    4.78   0
  -2   2  35   -1.29    4.87   0
   0   5  46   68.13    7.82   0
   1   4   3   -2.30    4.93   0
   4   5  20   93.07    7.87   0
  -2   2  32  587.33   12.14   0
  -1   4  16 2022.70   18.27   0
   0   4  56   68.03    7.45   0
   1   3  -2  845.12   13.64   0
   2   5  12  382.08    9.63   0
   3   4   2  218.58    8.32   0
  -1   4  46   79.82    7.17   0
   0   4   8 1486.48   15.89   0
   0   5  19    3.05    5.25   0
   2   3  -4  680.06   12.66   0
   3   5  16  404.32   10.57   0
   4   5  23   -1.93    6.63   0
  -1   3  11    9.70    5.01   0
   0   3   3    0.19    4.63   0
   4   5  26  129.26    7.77   0
  -1   4  19   12.58    5.48   0
   0   5  22  232.68    8.01   0
   0   5  40  191.26    8.78   0
   1   5  47    2.09    6.89   0
   2   5  15    8.71    5.97   0
   4   5  29    0.01    6.86   0
  -1   4  43    5.61    6.23   0
   0   4  53   -3.93    6.11   0
   0   5  25   -1.49    5.95   0
   0   5  37    9.91    7.01   0
   1   5  17    0.23    5.25   0
   3   5  19   -2.02    6.38   0
  -1   3  50  146.22    7.82   0
   0   5  28  620.14   11.81   0
   0   5  31    6.45    6.60   0
   0   5  34  283.31    9.16   0
   1   4  57   -8.02    6.10   0
   1   5  44  132.96    8.26   0
   2   4   4  880.55   13.45   0
   2   5  45   -7.52    7.20   0
  -1   4  22  356.71    8.77   0
  -1   4  40  420.01   10.47   0
   0   4  11    1.01    5.23   0
   1   4   6  351.27    8.73   0
   1   5  20  463.83   10.42   0
   2   5  18  154.31    8.21   0
   3   4   5    7.08    6.10   0
   3   5  22  120.31    7.84   0
   1   5  41    3.95    6.94   0
   2   5  42   76.46    7.92   0
   3   3  -3    4.51    5.04   0
   3   5  25    2.61    7.05   0
   3   5  37    7.90    7.12   0
  -1   3  14 1611.46   17.32   0
  -1   4  25    1.71    4.74   0
  -1   4  37    4.89    5.01   0
   0   3  57   -0.43    5.98   0
   0   4  50  145.38    8.28   0
   1   5  23    8.81    6.47   0
   3   5  34  118.72    8.00   0
   4   4   9    2.62    6.25   0
  -1   3  47   -0.06    5.60   0
  -1   4  28  688.95   11.43   0
   1   4  54   47.28    7.01   0
   1   5  26  226.76    8.59   0
   1   5  35   -9.07    6.90   0
   2   5  24  402.70   10.66   0
   2   5  39   -7.34    7.20   0
   1   5  29   -1.97    5.81   0
   1   5  32  364.48    9.67   0
   2   5  27   -3.47    6.75   0
   2   5  36  141.73    8.46   0
   0   3   6 1983.42   19.28   0
   0   4  14  312.78    8.18   0
   0   4  47    1.44    6.37   0
   1   3   1   19.18    4.77   0
   2   4   7    4.09    5.50   0
   2   5  30  147.74    7.79   0
   2   5  33   -0.43    6.03   0
   5   4  19    6.34    5.79   0
   3   4   8  540.79   11.26   0
  -1   3  17    7.69    4.24   0
   0   3  54   78.58    7.05   0
   1   4  51    3.57    6.85   0
   2   3  -1    0.94    4.51   0
   4   4  12  247.81    8.96   0
   5   4  22   73.89    6.91   0
   0   4  17    5.57    5.43   0
   0   4  44  371.07    9.47   0
   5   4  25    2.70    6.05   0
  -1   3  41    0.34    5.45   0
   1   3  58   91.15    7.24   0
   5   4  28   81.65    7.52   0
  -1   3  20 1450.66   16.26   0
   1   4  12 1090.92   14.08   0
   2   4  10  335.63    9.21   0
   4   4  15   -9.29    5.94   0
   0   3  51   -0.05    6.36   0
   0   4  20 1248.57   14.52   0
   2   4  49    1.13    6.96   0
   3   3   0 1030.44   15.14   0
   3   4  11    7.07    5.90   0
  -1   3  38  298.87    8.49   0
   0   4  23    5.97    5.72   0
   3   4  47   -1.42    7.13   0
  -1   2  45    0.70    5.03   0
  -1   3  23    0.44    4.21   0
  -1   3  35    4.17    4.97   0
   0   3   9    0.98    4.14   0
   0   4  35    5.11    6.16   0
   4   4  18  193.29    8.71   0
  -1   3  29    1.75    5.08   0
  -1   3  32 1126.91   14.62   0
   0   4  26  709.65   11.41   0
   0   4  29    0.19    5.12   0
   0   4  32  455.31    9.96   0
   1   3  55   -3.04    6.17   0
   1   4  15    2.88    4.84   0
   2   4  13    0.32    5.65   0
   2   4  46   82.18    7.82   0
   3   4  14  355.10    9.89   0
   4   4  39   -3.10    6.74   0
   0   3  48  296.92    9.47   0
   1   4  42  223.99    8.69   0
   3   4  44  128.58    8.27   0
   4   4  21    5.32    5.70   0
   4   4  36  107.90    8.09   0
   1   4  18  730.30   11.95   0
   2   3   2  805.42   12.92   0
   4   4  24  320.84   10.00   0
   4   4  27   -4.68    6.89   0
  -1   2  42  293.87    9.06   0
   1   4  39   -4.44    6.33   0
   2   3  56   89.76    7.26   0
   2   4  43    1.60    6.73   0
   3   4  17    1.09    6.34   0
   3   4  41   -8.48    6.80   0
   4   4  30   85.33    7.17   0
   0   3  12 2030.05   18.84   0
   1   2  59    2.58    5.71   0
   1   3  52  175.09    8.64   0
   1   4  21   -0.29    5.75   0
   0   3  45    3.38    6.04   0
   2   4  40  244.65    8.58   0
   3   4  38  130.43    8.07   0
   6   3  24  178.03    8.34   0
   6   3  27   -2.74    6.41   0
  -1   2  39   -4.57    4.89   0
   0   2  52  178.15    8.24   0
   1   4  24  639.26   11.18   0
   1   4  27    1.69    5.88   0
   1   4  30  171.38    8.05   0
   1   4  33    6.29    5.60   0
   2   4  19    3.14    5.23   0
   2   4  37    1.29    6.85   0
   3   2  -5    5.97    4.55   0
   3   3   3    4.49    5.00   0
   3   4  35   -4.58    7.10   0
   5   3  11    0.12    6.36   0
   1   3   7    8.55    4.94   0
   2   3  53   -5.03    6.92   0
   2   4  22  358.19    9.58   0
   2   4  34  174.15    8.77   0
   3   4  29   -1.11    6.76   0
   3   4  32  264.65    8.80   0
   0   3  42  223.84    8.64   0
   1   3  49   -2.38    6.46   0
   2   2  60   88.94    7.07   0
   2   4  25   -5.01    6.06   0
   2   4  28  426.98   10.54   0
   2   4  31   -5.24    6.37   0
  -1   2  36  875.63   13.59   0
   0   3  15   -2.29    4.29   0
   1   2  56  172.30    9.17   0
   2   3   5   11.75    4.79   0
   4   3   7    2.41    5.36   0
   0   3  39   -0.36    5.64   0
   3   3  51   -0.78    6.94   0
   5   3  14  133.98    7.66   0
  -1   2  24 1692.84   18.28   0
  -1   2  33   -0.56    4.63   0
   0   2  49   -0.14    5.50   0
  -1   2  27   -1.17    4.61   0
  -1   2  30  605.31   11.47   0
   1   3  46   75.60    6.45   0
   3   3   6  443.31   10.20   0
   4   3  46   58.80    7.84   0
   5   3  17    4.84    6.07   0
   1   3  10 1071.73   13.82   0
   3   3  48  124.03    8.44   0
   0   3  21   -2.66    4.46   0
   2   2  57   -0.33    6.67   0
   4   3  10  384.78    9.46   0
   5   3  20  211.56    8.66   0
   0   3  24 1591.02   16.32   0
   0   3  27   -0.88    5.16   0
   0   3  30  532.02   10.27   0
   1   2  53   -0.82    6.24   0
   2   3   8 2170.75   19.70   0
   4   3  43  -12.26    7.14   0
   5   3  23    2.60    6.29   0
   5   3  29   -5.80    7.13   0
   5   3  32  186.72    8.68   0
   3   3  45   -1.75    7.27   0
   5   3  26  167.38    8.36   0
  -1   1  37   -1.56    4.32   0
   1   3  13    8.97    5.16   0
   2   1  61    0.04    5.74   0
   2   3  44  223.99    9.29   0
   3   3   9    9.10    4.74   0
   4   3  13    4.37    6.01   0
   4   3  40  143.46    8.84   0
  -9   3  18  182.28    9.63   0
  -4   0  35    0.01    6.45   0
  -2  -1  32 1124.73   17.47   0
  -7   4  10  376.34   10.72   0
  -6   3  21    2.79    6.99   0
  -5   1  33    6.77    7.26   0
  -3   1  26  492.75   11.31   0
  -9   4   8  332.14   10.33   0
  -8   3  22  100.97    9.25   0
  -7   3  23   -1.05    7.34   0
  -5   0  37    4.20    7.17   0
  -3   2  16 2056.66   20.24   0
  -8   4  12  252.48    9.26   0
  -7   1  34  163.11    9.29   0
  -7   2  30  147.87    9.83   0
  -4   1  31    5.37    5.50   0
  -4   3  11   24.23    6.11   0
  -9   3  21    7.43    7.98   0
  -8   2  29    3.59    7.14   0
  -7   4  13    4.18    6.73   0
  -6   1  35    0.04    7.88   0
  -5   3  19    7.04    6.19   0
  -4   2  24 1898.49   19.20   0
  -3   0  33   -3.16    6.18   0
  -8   1  33    1.31    7.72   0
  -3  -1  37   -1.20    5.76   0
  -2   0  28 1061.25   16.23   0
  -8   4  15    8.24    7.69   0
  -6   3  24  614.59   12.76   0
  -5   2  29   -7.13    6.00   0
  -5   4  -9   11.71    5.68   0
  -5   4  -6  362.94   10.18   0
  -5   4  -3   -5.52    5.31   0
  -9   4  14   65.54    8.07   0
  -8   3  25   -6.86    6.99   0
  -7   0  38   32.78    7.94   0
  -6   0  39    1.06    7.65   0
  -6   4  11   -1.58    5.63   0
  -5   4   0 1387.87   16.79   0
  -4   3  14  651.07   12.19   0
  -3   2  19    2.25    5.30   0
  -9   3  24  164.81    9.55   0
  -8   4  18  182.92    9.76   0
  -5   1  36  476.28   11.96   0
  -5   4   3   17.08    5.78   0
  -9   4  17   10.29    7.74   0
  -7   1  37   -9.88    8.09   0
  -6   4  14  288.98    9.61   0
  -5   3  22  288.12    9.14   0
  -4   0  38  117.37    8.14   0
  -3   1  29    1.75    5.72   0
  -8   3  28  162.99    9.71   0
  -6   1  38  128.67    9.31   0
  -5   0  40  192.52    9.89   0
  -4   1  34  508.15   11.79   0
  -4   2  27    8.34    5.21   0
  -9   5  -5    0.41    7.45   0
  -8   5  -7   -4.51    6.52   0
  -8   5  -4  255.65    9.58   0
  -8   5  -1    3.63    6.78   0
  -7   4  19   -0.54    6.45   0
  -6   3  27    0.71    6.47   0
  -9   3  27    3.18    7.94   0
  -9   5  -2  157.08    9.17   0
  -9   5   1   -2.38    7.21   0
  -8   4  21   -1.23    7.64   0
  -8   5   2  206.83    9.30   0
  -7   3  29    0.44    6.76   0
  -4   3  17   -3.01    4.99   0
  -9   4  20  103.69    8.51   0
  -6   4  17    6.81    5.90   0
  -5   4   9    0.44    5.87   0
  -3   0  36  516.44   12.23   0
  -8   2  35   -8.30    7.87   0
  -8   5   5   -2.11    6.37   0
  -6   0  42  132.67    9.07   0
  -5   3  25   -1.19    6.76   0
  -3   2  22  481.60   10.88   0
  -9   5   7   17.46    6.93   0
  -8   5   8  452.71   11.87   0
  -7   2  36  160.52    8.92   0
  -7   4  22  159.73    9.16   0
  -7   5  -6  417.13   10.91   0
  -7   5  -3   -3.44    6.21   0
  -7   5   0  579.08   12.17   0
  -2   0  31    0.50    5.24   0
 -10   5   0  170.93    8.77   0
  -8   3  31   -4.16    7.88   0
  -8   4  24  325.52   11.23   0
  -7   1  40  200.82    9.65   0
  -7   5  -9   -5.19    6.27   0
  -7   5   3    5.48    6.20   0
  -5   1  39    1.99    7.22   0
  -5   4  12  902.82   13.87   0
 -10   5   3    0.98    6.42   0
  -9   4  23    0.14    7.29   0
  -9   5  10  123.12    8.50   0
  -7   3  32  283.82   10.59   0
  -6   3  30  180.27    8.67   0
  -6   4  20  651.59   12.74   0
  -4   3  20  916.46   13.92   0
  -2   1  24 1695.26   19.01   0
 -10   5   6   76.28    7.81   0
  -8   5  11    2.54    6.04   0
  -7   5   6  167.22    7.65   0
  -6   1  41   -4.17    7.74   0
  -6   2  37   -2.77    7.40   0
  -3   1  32 1136.10   15.64   0
  -9   5  13   -4.87    7.48   0
  -7   4  25    2.69    7.72   0
  -7   5   9   -3.99    6.60   0
  -5   0  43   -8.45    6.66   0
  -5   2  35    0.09    6.11   0
  -4   0  41   -4.52    6.50   0
  -4   1  37   -2.51    5.47   0
  -3   3   6  512.28   10.97   0
  -2   2  11   -8.05    5.14   0
  -1  -1  30  559.14   13.48   0
  -5   3  28  402.86   10.15   0
  -5   4  15   10.87    5.48   0
  -8   3  34  128.91    8.97   0
  -8   4  27   -3.00    8.03   0
  -7   2  39    2.13    7.73   0
  -6   4  23   -1.99    6.78   0
  -3   2  25    4.40    5.03   0
  -6   3  33    0.88    7.55   0
  -4   3  23   14.49    6.21   0
  -3   3   9    1.96    4.51   0
  -8   5  17   -1.41    7.26   0
  -7   1  43    2.44    6.88   0
  -7   5  15    4.40    7.10   0
  -6   5  -5    2.31    5.52   0
  -6   5  -2  322.37    9.69   0
  -6   5   1    6.03    5.99   0
  -5   4  18  372.41    9.58   0
  -4   2  33    4.63    5.35   0
  -3   0  39   -1.21    6.10   0
  -9   4  29  -14.91    8.03   0
  -9   5  19   -8.40    7.58   0
  -6   2  40  256.87   10.65   0
  -6   5   4  720.35   12.40   0
  -5   1  42  221.17    9.94   0
  -3   3  12 2582.23   22.44   0
  -2   1  27   -0.71    4.91   0
  -2   2  14  326.37    9.24   0
  -8   4  30   98.00    8.10   0
  -8   5  20  218.13    9.81   0
  -6   1  44  154.05   10.26   0
  -6   4  26  384.63   10.27   0
  -6   5   7    3.77    6.14   0
  -5   2  38   92.90    8.39   0
  -5   3  31    5.75    5.83   0
  -4   4  -2 1346.23   17.29   0
  -4   4   1   -1.33    5.01   0
  -2   0  34  283.48    9.62   0
  -7   5  18  377.25   10.85   0
  -4   1  40  434.92   11.63   0
  -4   4  -5    0.75    4.55   0
  -3   1  35    0.82    4.84   0
  -9   5  22   72.48    8.33   0
  -7   2  42   85.24    8.93   0
  -5   4  21    2.12    5.79   0
  -4   3  26  661.76   11.90   0
  -7   4  31   14.30    7.03   0
  -3   3  15    1.85    5.42   0
  -1   0  26 1129.55   17.36   0
  -8   4  33    1.35    8.04   0
  -8   5  23    1.24    6.87   0
  -4   4  -8 1411.45   18.91   0
  -2   2  17    2.94    4.35   0
  -7   5  21    1.37    6.36   0
  -6   4  29    3.33    6.46   0
  -4   2  36  375.62   10.51   0
  -4   4  10  398.78    9.58   0
  -9   5  25    0.34    7.43   0
  -9   6   0  273.59    9.87   0
  -9   6   3   12.45    6.69   0
  -9   6   6  169.29    9.78   0
  -5   4  24  905.09   14.19   0
  -8   3  40  131.42    8.50   0
  -6   2  43   -1.96    7.88   0
  -6   5  16  664.31   12.08   0
  -5   1  45    0.02    8.34   0
  -5   2  41   -4.91    7.35   0
  -4   4  13   -2.46    5.79   0
  -3   3  18 1326.17   16.24   0
  -9   6   9   -0.86    7.44   0
  -8   6  -2  192.65    8.97   0
  -8   6   1   -5.36    6.57   0
  -8   6   4  226.98    9.12   0
  -7   4  34  173.04   10.07   0
  -7   5  24  313.31   10.93   0
  -4   3  29   -3.94    5.50   0
  -4   4 -11   -0.40    4.78   0
  -2   1  30  581.39   11.97   0
  -9   6  12  133.90    8.54   0
  -8   6   7  -12.24    7.01   0
  -6   3  39    3.26    8.05   0
  -3   1  38  337.13   10.15   0
  -3   2  31    6.20    4.87   0
  -9   5  28   93.04    8.36   0
  -8   4  36  124.48    9.17   0
  -8   6  10  181.44    8.99   0
  -7   2  45    5.91    7.85   0
  -7   3  41    6.95    7.34   0
  -6   4  32  342.93   10.23   0
  -6   5  19    6.26    5.94   0
  -4   1  43    3.41    6.58   0
  -2   2  20 3454.78   25.94   0
  -5   4  27   -2.55    5.96   0
  -4   4  16 1457.65   16.37   0
  -2   0  37    1.93    5.46   0
  -8   5  29   13.28    7.08   0
  -8   6  13   -3.44    7.51   0
  -7   5  27    0.10    7.59   0
  -4   2  39    2.85    6.66   0
  -3   3  21   -4.09    4.88   0
  -9   6  18   87.77    8.62   0
  -7   4  37    1.41    7.73   0
  -6   5  22  199.17    9.34   0
  -5   5  -1   -0.91    5.27   0
  -5   5   2  321.18    8.89   0
  -5   5   5    5.09    5.58   0
  -4   3  32  887.32   14.15   0
  -8   6  16  367.95   11.06   0
  -7   6   5    7.74    6.71   0
  -6   2  46   90.82    9.14   0
  -5   5   8  907.72   13.58   0
  -4   4  19    2.34    5.25   0
  -1   0  29    0.87    4.79   0
  -7   6  -1   -4.15    5.90   0
  -7   6   8  636.31   12.64   0
  -6   3  42  155.28    9.58   0
  -6   4  35   -2.04    8.04   0
  -5   2  44  242.13    9.69   0
  -5   4  30  286.93    9.81   0
  -5   5  -4 1063.97   15.63   0
  -7   3  44  132.89    9.03   0
  -7   5  30   73.97    8.55   0
  -7   6  -4  249.81    9.12   0
  -7   6  11   15.44    7.02   0
  -3   2  34  570.27   11.33   0
  -2   1  33    2.39    5.31   0
  -2   2  23   -3.23    4.42   0
  -6   5  25   -0.07    6.34   0
  -5   5  -7    1.16    5.39   0
  -5   5  14  635.70   12.00   0
  -3   3  24 1082.79   14.44   0
  -7   6  14  121.53    8.63   0
  -5   3  40  418.05   11.47   0
  -3   1  41    6.25    6.02   0
  -9   6  24  218.41    9.46   0
  -8   6  22  101.97    8.38   0
  -4   1  46   88.10    7.95   0
  -8   5  35    3.44    7.65   0
  -6   4  38   94.85    8.91   0
  -6   5  28  388.89   11.31   0
  -5   4  33    7.99    6.91   0
  -5   5  17    3.66    5.45   0
  -4   2  42  364.13   10.78   0
  -7   5  33   -1.20    6.71   0
  -1   1  22  455.85   10.99   0
  -9   6  27   -6.47    7.72   0
  -8   6  25    3.52    7.36   0
  -7   6  20  241.76   10.07   0
  -6   2  49   -2.76    8.30   0
  -6   3  45   -4.28    7.42   0
  -5   5  20  674.70   12.40   0
  -4   4  25   -2.86    5.44   0
  -3   3  27   -3.04    5.12   0
  -7   3  47    6.69    7.15   0
  -5   2  47    2.81    6.92   0
  -3   2  37    1.93    6.06   0
  -8   5  38   58.96    8.18   0
  -8   6  28  162.80    9.37   0
  -7   4  43   -8.07    7.67   0
  -7   5  36  256.61   10.71   0
  -7   6  23    2.36    7.34   0
  -6   5  31   -6.45    6.50   0
  -6   6   3    4.64    6.12   0
  -6   6   6  238.03    9.00   0
  -5   3  43    7.24    7.11   0
  -5   5  23   -5.47    6.53   0
  -2   1  36  868.60   14.48   0
  -1   0  32 1690.74   20.90   0
  -6   6   0  840.48   13.98   0
  -6   6   9   -1.02    5.38   0
  -5   4  36  306.83    9.73   0
  -4   3  38  153.67    7.73   0
  -4   4  28  608.60   11.61   0
  -9   7   5   -2.02    6.85   0
  -9   7   8  198.06    9.24   0
  -9   7  11   -4.13    7.14   0
  -6   6  12  400.86   10.03   0
  -3   1  44  314.86   10.88   0
  -3   3  30  314.09    9.05   0
  -9   7  14  116.97    8.80   0
  -7   6  26  244.41   10.01   0
  -6   6  -3    0.74    5.54   0
  -4   2  45    6.00    6.96   0
  -3   4   8 2626.16   22.57   0
  -1   1  25    1.49    4.49   0
  -8   6  31   -2.57    7.43   0
  -6   3  48  143.63    9.62   0
  -6   5  34  216.24   10.07   0
  -5   5  26  205.08    8.35   0
  -3   4   2  873.78   14.16   0
  -3   4  11   15.77    5.72   0
  -2   3   7   -0.64    4.21   0
  -2   3  10 2027.44   20.47   0
  -9   7  17    2.71    6.78   0
  -7   5  39    9.69    7.58   0
  -6   6  18  343.70    9.80   0
  -4   4  31    2.97    6.38   0
  -8   7   3    1.61    6.60   0
  -8   7   6  189.18    9.06   0
  -8   7   9    3.35    6.85   0
  -8   7  12  154.88    9.20   0
  -7   4  46   59.88    8.10   0
  -7   6  29   -1.44    8.04   0
  -5   2  50  162.91    9.41   0
  -3   4  -1   14.59    4.86   0
  -3   4  14  701.25   11.94   0
  -2   3  13   16.32    4.81   0
  -9   7  20  126.10    8.33   0
  -6   4  44  220.15   10.03   0
  -6   6  21   -1.76    7.13   0
  -5   3  46   50.51    8.05   0
  -5   5  29   -3.09    6.68   0
  -4   3  41   -3.80    6.96   0
  -8   6  34  109.14    8.87   0
  -8   7  15    1.13    6.74   0
  -4   5   6  835.77   13.44   0
  -3   4  17    1.10    4.90   0
  -2   1  39    1.45    5.48   0
  -2   3  16 2035.89   19.70   0
  -9   7  23   -4.52    6.85   0
  -8   7  18  128.97    8.45   0
  -6   5  37    6.21    6.56   0
  -4   5   3   14.27    4.73   0
  -4   5  12  893.02   13.32   0
  -2   2  32  602.39   11.52   0
  -6   6  24  454.97   10.94   0
  -4   4  34  248.50    9.57   0
  -4   5   0 1391.82   17.27   0
  -4   5  15   13.28    5.42   0
  -3   4  20  876.85   13.37   0
  -1   0  35    0.47    4.86   0
  -1   1  28 1279.96   17.18   0
  -8   7  21   -0.20    7.09   0
  -5   5  32  474.88   11.45   0
  -4   2  48  286.53   10.30   0
  -2   3  19   -0.06    4.62   0
  -8   6  37    9.72    7.56   0
  -6   3  51    4.44    7.00   0
  -5   4  42  174.42    8.43   0
  -4   5  18  384.85    9.57   0
  -6   4  47    2.48    7.72   0
  -6   5  40  200.24   10.09   0
  -4   5  -3   -3.50    4.81   0
  -3   2  43   -5.27    6.30   0
  -3   3  36  824.06   13.22   0
  -3   4  23    7.22    6.18   0
  -7   6  35    5.73    7.68   0
  -7   7   4  181.32    8.75   0
  -7   7   7   -4.53    6.60   0
  -7   7  13    4.36    6.97   0
  -5   3  49    1.45    6.97   0
  -4   3  44  260.94    9.28   0
  -4   5  21   -3.13    5.49   0
  -2   3  22  458.06   10.10   0
  -7   7  16  491.85   11.91   0
  -5   5  35    0.90    7.31   0
  -5   6   7    2.63    5.99   0
  -5   6  10  453.93   10.94   0
  -2   2  35   -2.89    5.46   0
  -8   7  27    6.22    7.41   0
  -7   7   1   -1.55    6.16   0
  -7   7  19    6.03    7.49   0
  -6   6  30  110.94    7.79   0
  -5   6   4  719.36   12.90   0
  -4   5  24  912.38   14.03   0
  -3   4  26  661.35   12.16   0
  -1   2  15    2.92    4.99   0
  -2   1  42  308.65   10.03   0
  -1   1  31   -1.90    4.90   0
  -7   6  38   47.87    8.05   0
  -5   4  45   -1.47    6.25   0
  -5   6   1    2.78    5.50   0
  -5   6  19    2.52    6.47   0
  -2   3  25    8.34    4.81   0
  -8   7  30   79.64    8.23   0
  -6   6  33   -2.20    7.60   0
  -4   2  51   -4.85    7.64   0
  -4   5  27    6.84    6.36   0
  -3   3  39   -5.00    5.32   0
  -1   2  18 1153.25   15.71   0
  -7   7  25    1.10    7.59   0
  -6   4  50  107.19    8.54   0
  -5   5  38  185.63    9.66   0
  -5   6  22  204.22    9.21   0
  -4   3  47    5.15    7.09   0
  -3   2  46  130.12    8.19   0
  -3   4  29    8.34    6.31   0
  -5   6  -2  312.81    9.57   0
  -2   2  38  235.70    8.95   0
  -8   7  33    0.76    7.27   0
  -5   3  52  125.46    9.17   0
  -5   6  25   13.03    6.77   0
  -2   3  28 1309.19   15.72   0
  -1   2  21   14.11    4.46   0
  -9   8  13   -3.35    6.07   0
  -7   6  41   -1.22    7.97   0
  -7   7  28  109.22    8.65   0
  -6   6  36  186.61    9.74   0
  -4   5  30  288.43    9.21   0
  -3   4  32  885.99   13.91   0
  -1   1  34  927.24   14.98   0
  -6   7   8  635.78   12.53   0
  -6   7  11    1.99    6.67   0
  -6   7  14  136.12    8.64   0
  -5   5  41   -5.63    6.40   0
  -5   6  -5    2.93    5.00   0
  -5   6  28  392.94   11.11   0
  -4   5  -9   11.18    4.81   0
  -3   3  42  307.97    9.37   0
  -7   7  31   13.70    7.74   0
  -6   7  17    6.56    5.92   0
  -4   4  43   11.19    6.04   0
  -2   1  45    0.60    5.44   0
  -6   4  53    9.64    6.86   0
  -6   6  39    9.50    7.58   0
  -8   8   8  247.15   10.02   0
  -8   8  11    6.31    6.55   0
  -8   8  14  113.88    8.08   0
  -7   6  44  116.89    8.06   0
  -6   7  23    1.23    7.61   0
  -5   6  31    5.30    7.76   0
  -4   3  50  164.80    9.37   0
  -3   2  49   -3.33    7.00   0
  -3   4  35    9.01    6.21   0
  -2   2  41    3.71    5.73   0
  -8   8  17   -2.67    7.29   0
  -7   7  34  150.23    8.87   0
  -8   8  20  118.05    8.72   0
  -6   5  49    2.16    7.30   0
  -6   7  26  257.77   10.16   0
  -5   4  51   -0.57    7.73   0
  -4   5  36  297.18    9.92   0
  -8   8  23   -9.31    7.01   0
  -6   7  -1    4.77    5.86   0
  -5   6  34  212.06    9.67   0
  -4   4  46  146.84    9.15   0
  -3   3  45    4.81    6.61   0
  -3   5  13   -4.52    5.64   0
  -3   5  16 1743.90   18.17   0
  -1   1  37    1.07    4.93   0
  -3   5  19    6.21    6.15   0
  -8   8  26   83.18    7.66   0
  -7   7  37    1.74    6.77   0
  -6   7  29   -5.82    6.74   0
  -2   4  12  772.10   12.80   0
  -2   4  15   -4.77    5.51   0
  -4   5  39    0.71    7.25   0
  -4   6   8  853.84   13.60   0
  -4   6  11    2.75    5.15   0
  -4   6  17    3.31    5.51   0
  -3   5  22  290.77    8.62   0
  -2   4   9   -1.69    5.14   0
  -2   4  18 1073.53   14.61   0
  -1   2  30  566.64   11.19   0
  -6   7  32  250.83   10.61   0
  -5   5  47   -0.39    7.41   0
  -5   6  37  -11.88    6.83   0
  -4   3  53   -1.48    7.22   0
  -4   6  20  624.43   11.85   0
  -3   5   4  673.29   11.95   0
  -2   2  44  665.48   13.14   0
  -2   3  37    4.76    5.66   0
  -7   7  40  142.51    9.03   0
  -7   8  12  164.26    8.83   0
  -7   8  15    4.74    6.75   0
  -6   6  45   10.63    7.61   0
  -4   6   5   -5.32    5.64   0
  -3   5  25    3.48    5.44   0
  -2   4  21   -0.29    4.97   0
  -7   8   9   -1.54    6.69   0
  -7   8  18  129.78    8.23   0
  -7   8  21    0.69    7.67   0
  -5   4  54   53.25    8.18   0
  -4   4  49    4.29    7.42   0
  -2   4  24 1861.35   18.68   0
  -7   8   6  170.09    8.71   0
  -4   6  26  369.39   10.62   0
  -3   3  48  193.12    9.38   0
  -3   4  41   -0.29    5.71   0
  -3   5   1    0.12    4.96   0
  -3   5  28  397.77   10.59   0
  -1   2  33    2.24    5.32   0
  -7   8  24  237.46   10.05   0
  -6   7  35    1.62    6.78   0
  -5   7  12  488.25   11.32   0
  -5   7  15   -4.27    6.83   0
  -4   6   2  557.09   11.69   0
  -1   1  40  705.19   13.39   0
  -5   7   9   -0.71    6.33   0
  -4   6  29   -3.04    6.74   0
  -2   3  40  465.05   11.23   0
  -2   4  27    1.08    5.37   0
  -5   5  50   70.75    8.44   0
  -5   7   6  156.09    8.10   0
  -5   7  24  316.58   10.33   0
  -3   5  31    3.36    5.94   0
  -4   6  -1    4.21    5.24   0
  -2   2  47   -2.89    5.96   0
  -1   3  14 1639.42   18.09   0
  -1   3  17    5.98    5.20   0
  -7   8  30   66.69    8.29   0
  -5   6  43    3.06    7.45   0
  -5   7  27    5.17    7.12   0
  -4   6  32  326.11    9.80   0
  -3   4  44  269.90    9.18   0
  -2   4  30  200.13    7.87   0
  -1   2  36  907.66   14.41   0
  -1   3  11   12.09    5.29   0
  -5   7   3    1.93    5.79   0
  -4   4  52  131.23    8.55   0
  -4   5  45   -5.38    6.29   0
  -3   3  51    7.53    7.65   0
  -3   5  34  438.30   11.18   0
  -2   4   0 3949.48   29.29   0
  -7   8  33    2.79    7.09   0
  -5   4  57    5.37    6.50   0
  -5   7  30   81.45    8.21   0
  -1   3   8 3345.61   26.24   0
  -1   3  23    1.83    4.85   0
   0   1  23   -1.57    4.44   0
  -6   7  41   -6.27    7.09   0
  -4   6  35    0.41    6.38   0
  -2   3  43   -0.92    6.28   0
  -2   4  33   -0.59    5.45   0
  -1   1  43   -1.21    5.72   0
  -6   8  13    1.54    6.98   0
  -6   8  16  356.05   10.55   0
  -6   8  19   -3.88    7.04   0
  -5   5  53    5.64    6.94   0
  -5   7   0  585.21   12.24   0
  -3   5  37   -4.50    7.00   0
  -1   3  26  535.92   10.76   0
  -6   8  10  181.36    8.86   0
  -6   8  22   84.98    8.26   0
  -5   7  33   -4.84    6.47   0
  -3   4  47    1.89    6.85   0
   0   0  33   -0.26    4.13   0
   0   1  26 1144.66   16.47   0
  -4   5  48  192.20    9.81   0
  -4   6  38   90.70    8.51   0
  -3   5  -5    5.37    4.76   0
  -1   2  39    0.68    5.55   0
  -1   3   5    5.01    4.21   0
  -1   3  29    1.77    5.71   0
  -6   7  44  124.29    8.03   0
  -6   8   7   -4.21    6.33   0
  -5   7  36  254.94   10.45   0
  -4   4  55   -2.50    7.19   0
  -3   5  40  425.76   11.19   0
  -2   4  -3   -1.50    3.66   0
  -6   8   4  211.73    9.52   0
  -5   6  49   -1.94    7.80   0
  -3   3  54   78.38    7.49   0
  -2   3  46  124.81    7.58   0
   0   1  29   -0.34    4.77   0
  -6   8  31    1.87    6.90   0
  -4   6  41   -0.26    6.31   0
  -3   6  15   -2.04    6.38   0
  -3   6  18  386.47   10.20   0
  -5   7  39   -3.19    7.23   0
  -4   5  51    2.53    7.03   0
  -3   4  50  181.56    9.02   0
  -3   6  21    3.07    5.77   0
  -3   6  24  607.77   12.30   0
  -4   7  16  408.17   10.54   0
  -2   5  17    4.22    5.73   0
  -2   5  20  576.09   11.45   0
  -1   2  42  297.37    9.59   0
  -4   7  13    3.08    6.59   0
  -4   7  22  174.32    8.05   0
  -3   6   9    6.51    5.02   0
  -3   6  27    8.41    6.13   0
  -2   5  23    2.77    5.52   0
  -1   3  35   -2.94    5.92   0
   0   1  32 1662.92   19.52   0
  -5   7  42  133.37    9.06   0
  -4   6  44  208.33    9.20   0
  -4   7  10  380.20   10.18   0
  -4   7  25    4.31    6.30   0
  -2   4  42  401.74   10.87   0
  -2   5  11    2.81    5.64   0
  -2   5  26  622.46   12.01   0
  -7   9  14  119.65    8.32   0
  -7   9  17    9.06    6.42   0
  -7   9  20  130.97    8.02   0
  -6   8  37   -5.18    6.59   0
  -4   7  28  367.22   11.11   0
  -3   6   6  425.23   10.40   0
  -3   6  30  188.21    8.30   0
  -2   3  49    3.59    6.44   0
  -4   7   7    2.92    6.18   0
  -2   5  29   -1.15    5.69   0
  -5   8  17   -0.93    7.10   0
  -5   8  20  217.63    9.38   0
  -4   5  54   51.03    7.67   0
  -4   7  31  -12.18    6.49   0
  -3   4  53    5.52    6.74   0
  -3   5  46   49.72    8.28   0
  -3   6  33    7.89    6.29   0
  -1   3  38  316.71    9.59   0
   0   2  19    1.14    5.10   0
  -5   7  45    5.24    7.44   0
  -5   8  14  132.89    8.51   0
  -2   5  32  694.37   12.85   0
  -1   2  45   -0.88    5.74   0
   0   1  35   -3.60    4.77   0
   0   2  16 2981.82   24.60   0
   0   2  22 1855.52   19.18   0
  -5   8  11   -3.65    6.47   0
  -4   7   4  622.32   12.27   0
  -4   7  34  172.48    9.55   0
  -3   6   3    2.31    4.56   0
  -3   6  36  307.38   10.44   0
  -2   4  45   -0.90    6.40   0
  -2   5   5    6.91    5.36   0
  -1   4  16 2022.79   19.35   0
  -1   4  19    0.70    5.03   0
   0   2  13    0.23    4.98   0
  -5   8  29    9.80    7.48   0
  -1   4  25    0.35    5.75   0
  -5   8   8  444.29   11.02   0
  -4   7  37    0.03    7.93   0
  -2   3  52  258.66    9.93   0
  -2   5  35    6.84    6.02   0
  -1   3  41   -0.34    6.27   0
  -1   4  13    7.31    4.67   0
   0   2  28 1032.12   14.89   0
  -3   5  49    3.66    6.93   0
  -1   4  28  698.46   11.99   0
  -4   6  50   99.18    8.82   0
  -4   7   1    0.67    5.50   0
  -3   6   0 1010.09   14.88   0
  -1   4  10 1100.76   14.50   0
   0   1  38  258.92    9.27   0
  -5   8   5   -0.12    6.43   0
  -5   8  35   -3.16    7.53   0
  -4   7  40  134.89    8.91   0
  -3   4  56  133.18    8.76   0
  -2   4  48  290.39   10.09   0
  -2   5   2  777.19   12.75   0
  -2   5  38   88.56    7.29   0
  -1   2  48  312.50    9.99   0
  -1   4  31    0.44    5.47   0
   0   2  31    6.43    4.45   0
  -6   9  18   94.22    8.26   0
  -6   9  21   -1.95    6.79   0
  -6   9  15    1.91    6.62   0
  -6   9  24  185.36    8.72   0
  -6   9  27   -4.43    7.48   0
  -5   8  38   52.56    7.96   0
  -3   6  42  149.78    8.03   0
  -1   3  44  323.24    9.92   0
  -1   4   7    4.69    4.63   0
  -6   9  12  123.87    8.27   0
  -3   5  52  123.98    8.59   0
   0   2  34  265.44    8.92   0
  -4   6  53   -0.27    6.86   0
  -4   7  -2  213.96    8.91   0
  -4   7  43    4.61    6.95   0
  -3   6  -3    3.48    5.10   0
   0   1  41   -0.56    5.42   0
  -3   7  20  409.39   10.26   0
  -3   7  23    1.13    5.98   0
  -3   7  26  149.63    8.72   0
  -2   4  51   -0.58    7.16   0
  -2   5  -1   -1.17    4.16   0
  -3   7  14  329.31    9.80   0
  -3   7  29   -1.91    7.29   0
  -2   5  44  215.46    8.59   0
  -2   6  19   -7.73    5.65   0
  -2   6  22  353.04    9.49   0
  -2   6  25   -2.14    6.48   0
  -1   3  47   -1.10    6.23   0
   0   2  37   -0.42    4.51   0
  -4   8  18  189.70    9.39   0
  -4   8  21   -8.24    7.20   0
  -2   6  16  715.14   12.27   0
  -2   6  28  423.63   11.01   0
  -1   4  40  437.12   10.86   0
   0   3  21    4.15    4.70   0
  -4   8  15   -1.19    7.13   0
  -4   8  27    6.84    7.54   0
  -3   5  55    2.41    7.33   0
  -3   6  48  139.56    9.00   0
  -3   7  11   -2.33    6.51   0
  -3   7  32  258.13    9.53   0
  -2   6  31   10.08    7.24   0
   0   3  18  540.28   10.67   0
   0   3  27    2.26    5.68   0
  -4   8  30   90.01    8.49   0
   0   3  15    1.42    4.59   0
  -4   8  12  241.17    9.51   0
  -4   8  33   -2.70    7.73   0
  -3   7   8  519.56   11.50   0
  -3   7  35    3.82    6.33   0
  -2   4  54   40.74    8.21   0
  -2   5  47   -4.85    7.37   0
  -2   6  34  160.27    8.78   0
   0   2  40  788.94   13.50   0
  -1   4  43    7.61    6.87   0
  -1   5  18  713.76   12.27   0
  -1   5  21    8.23    5.59   0
   0   3  12 2037.75   19.78   0
  -5   9  22   77.57    8.27   0
  -4   8   9    1.64    6.25   0
  -3   7  38  144.94    8.80   0
  -2   5  -4  658.01   12.70   0
  -2   6  37   -0.29    7.42   0
  -1   3  50  166.75    8.57   0
  -1   4   1   19.37    4.45   0
  -1   5  27    2.93    5.79   0
   0   3  33    2.13    4.98   0
  -5   9  19    2.03    6.89   0
  -5   9  25   -5.02    7.43   0
  -5   9  28   84.00    7.71   0
  -3   6  51   -2.02    7.08   0
  -2   6   7   -5.19    5.73   0
  -1   5  15    5.75    5.16   0
  -1   5  30  176.77    7.99   0
  -5   9  16  310.71   10.38   0
  -3   5  58   71.96    7.56   0
  -3   7   5    2.94    6.03   0
  -2   5  50  164.68    9.23   0
  -1   5  12 1089.35   14.74   0
  -1   5  33   -9.43    6.68   0
   0   2  43    3.48    6.22   0
   0   3  36  527.16   11.45   0
  -5   9  13    1.50    6.53   0
  -4   8   6  190.82    8.43   0
  -4   8  39    0.03    6.66   0
  -3   7  41    0.46    6.98   0
  -2   6  40  228.66   10.16   0
  -1   4  46   89.25    7.78   0
   0   3   9    3.03    4.39   0
  -1   5  36  462.58   11.46   0
  -5   9  10  118.59    8.15   0
  -2   6   4  848.86   13.66   0
  -1   5   9   10.55    5.60   0
   0   3  39   -4.21    6.09   0
  -3   7   2  216.76    8.59   0
  -3   7  44  115.39    8.20   0
  -2   6  43   -5.63    7.12   0
  -4   8   3    4.79    5.81   0
  -2   5  53   -2.25    7.12   0
  -1   4  49   -0.76    7.08   0
   0   2  46  249.51    9.14   0
   0   3   6 1991.00   19.84   0
   0   4  23   -3.26    6.15   0
  -3   7  47   -0.75    7.08   0
   0   3  42  229.63    8.91   0
   0   4  20 1260.34   15.25   0
   0   4  26  697.88   12.03   0
   0   4  29    3.31    6.43   0
   1   1  24 1738.09   19.62   0
  -2   5  -7    5.37    4.82   0
  -2   6   1    2.18    5.47   0
   0   4  17    9.15    5.14   0
   1   1  21   10.68    4.14   0
   1   1  27    0.68    4.65   0
  -3   8  25   -6.84    7.42   0
  -3   8  28  162.16    9.15   0
  -2   7  21   -0.78    6.98   0
  -2   7  24  411.30   10.41   0
  -2   7  27   -0.82    7.22   0
   0   4  32  470.49   10.51   0
   1   1  30  600.05   12.17   0
  -3   7  -1    1.97    5.67   0
  -3   8  19   -0.74    5.96   0
  -3   8  31   -4.77    7.23   0
   0   4  14  308.71    8.57   0
   1   0  31   -0.12    4.10   0
  -3   8  16  396.42   10.21   0
  -2   5  56   97.54    7.92   0
  -2   6  49   -1.70    7.26   0
  -2   7  33   -4.29    7.34   0
  -1   4  52  194.20    9.35   0
  -1   5  45   -5.00    6.88   0
   0   3  45    7.07    6.18   0
  -4   9  23    0.55    6.88   0
  -4   9  26  121.30    8.42   0
  -3   8  13   -2.38    7.00   0
  -3   8  34  123.59    8.32   0
  -1   5   3    0.36    4.56   0
  -1   6  23    1.35    6.76   0
  -1   6  26  214.22    9.11   0
   0   3   3    3.08    4.87   0
   1   1  33    5.40    4.89   0
  -4   9  20  104.84    8.65   0
  -3   8  37    1.90    7.21   0
  -2   7  12  357.18   10.10   0
  -2   7  36  162.33    8.70   0
  -1   6  20  477.54   10.50   0
  -1   6  29    3.78    6.15   0
   0   4  11    3.25    4.81   0
   0   4  38  120.94    7.24   0
   1   0  34  890.42   16.04   0
  -4   9  17    5.20    7.23   0
  -2   6  -2  575.93   11.74   0
  -1   6  17    3.69    5.65   0
  -1   6  32  363.98   10.13   0
   1   2  20 1459.29   17.12   0
   1   2  29    6.96    5.30   0
  -4   9  14   73.57    7.86   0
  -3   8  10  202.83    9.05   0
  -3   8  40  130.25    8.99   0
  -2   6  52  112.01    8.49   0
  -2   7  39   -2.18    7.01   0
  -1   4  -5   -0.42    4.48   0
  -1   5  48  124.44    8.74   0
  -1   6  35    0.91    7.37   0
   1   1  36  834.41   14.16   0
  -2   7   9    3.76    6.35   0
  -1   4  55   -0.23    6.93   0
  -1   6  14  376.49    9.67   0
   0   3  48  314.02   10.13   0
   0   4   8 1506.67   16.98   0
   0   4  41    4.95    5.68   0
   1   2  17    7.01    4.59   0
   1   2  32 1118.54   15.06   0
  -2   7  42   80.68    8.34   0
  -1   6  38  121.14    8.62   0
  -4   9  11  -10.25    6.95   0
  -3   8   7   -2.78    6.13   0
  -1   5   0 1388.60   16.93   0
   1   1  39    2.45    5.53   0
   1   2  35   -0.84    4.68   0
  -2   7   6  408.93   10.53   0
  -1   5  51   11.56    6.77   0
  -1   6  41    1.72    7.55   0
   0   4  44  367.73   10.88   0
   0   5  25    2.75    6.41   0
   1   2  14 1673.71   18.12   0
  -2   7  45    6.54    6.99   0
   0   5  22  242.04    8.42   0
   0   5  28  586.53   11.65   0
   0   5  31    3.20    6.66   0
   1   2  38  313.97    9.65   0
  -4   9   8  339.42   10.25   0
  -1   6   8  753.45   12.85   0
   0   3  51    1.48    5.99   0
   0   4   5    1.38    5.35   0
   0   5  19    0.23    5.57   0
   0   5  34  284.86   10.04   0
   1   3  25   -0.11    5.66   0
  -3   8   4  236.87    9.24   0
  -2   6  -5    2.02    4.97   0
   0   5  16  680.58   12.34   0
   0   4  47    0.46    5.96   0
   0   5  37  -10.84    6.64   0
   1   2  11    7.13    4.59   0
   1   3  19   10.35    5.14   0
  -2   7   3    3.00    5.96   0
  -1   5  54   53.84    7.29   0
   0   5  13    8.49    5.83   0
   1   2  41   -0.35    5.77   0
   1   3  34  497.94   10.73   0
  -2   8  26  175.39    9.24   0
  -1   5  -3   15.94    5.42   0
  -1   6   5    4.84    5.63   0
  -1   6  47   -6.98    7.70   0
   1   3  16 2101.64   19.35   0
  -2   8  29    1.00    7.38   0
  -2   8  32  182.18    9.32   0
   1   3  37    4.48    5.27   0
  -3   8   1   -1.91    6.20   0
  -3   9  24  137.74    8.39   0
  -1   7  25   -5.85    7.11   0
  -1   7  28  142.29    8.76   0
   0   4  50  147.75    8.66   0
   0   5  10  655.30   11.97   0
  -3   9  21   -3.69    7.20   0
  -2   8  17    1.26    7.19   0
  -2   8  35   -1.11    6.53   0
  -1   4  -8 2573.55   25.35   0
  -1   7  22  147.71    7.88   0
  -1   7  31   -0.53    7.70   0
   0   5  43   -0.91    7.08   0
   1   2  44  315.50    9.73   0
   1   3  13    8.08    4.88   0
   1   3  40  436.70   10.97   0
  -3   9  18  181.23    8.97   0
  -2   7   0  579.82   11.80   0
  -2   8  38   42.54    7.36   0
  -1   6  50   74.18    7.72   0
  -1   7  19    7.91    5.99   0
  -1   7  34  157.72    9.28   0
   1   2   8 3391.22   25.79   0
  -2   8  14   96.58    7.31   0
  -8   8   8  234.97   10.08   0
  -7   8   3   -1.30    7.70   0
  -5   7   0  626.57   12.23   0
  -3   5   4  711.28   11.91   0
  -1   3 -25    5.06    4.55   0
  -1   3  -7    0.59    3.96   0
  -6   5  25    2.91    6.41   0
  -6   8 -20  177.97    8.91   0
  -6   8 -14  116.87    7.77   0
  -6   8 -11    4.45    7.33   0
  -4   5  15    5.89    5.15   0
  -7   6  23   -2.53    6.85   0
  -7   7  16  499.21   12.42   0
  -6   8 -23   -2.07    6.70   0
  -6   8  -8  431.60   11.34   0
  -5   7 -33    0.32    5.95   0
  -4   6   5    1.03    5.52   0
  -8   9 -11   -0.78    7.04   0
  -6   8 -26  175.48    9.14   0
  -5   7   3   -8.36    6.64   0
  -4   4  22  692.54   13.38   0
  -2   4   3   -0.02    4.78   0
  -9   8  13   -3.20    6.64   0
  -8   8  11    3.85    7.27   0
  -7   8   6  176.29    8.95   0
  -6   8  -5   -8.34    6.70   0
  -1   3  -4 2942.14   25.05   0
  -8   9  -5    0.23    7.63   0
  -6   6  21   -4.47    6.24   0
  -3   3  21   -0.51    4.60   0
  -3   5   7    4.94    5.16   0
  -6   8 -29    3.64    6.88   0
  -5   5  23    0.70    6.01   0
  -4   6   8  858.28   13.74   0
  -8   7  21    7.98    7.85   0
  -6   7  14  124.77    8.72   0
  -5   7   6  154.45    7.96   0
  -3   6 -15    5.12    5.98   0
  -7   7  19   -0.24    6.92   0
  -6   8 -32  150.53    8.88   0
  -6   8   1    7.58    6.75   0
  -4   5  18  372.08   10.27   0
  -3   4  17   -0.16    5.18   0
  -3   6 -18  388.04    9.69   0
  -2   4   6  811.31   12.84   0
  -8   8  14  108.43    8.57   0
  -8   9   1   -1.20    7.52   0
  -4   7 -17   -4.95    6.52   0
  -3   6 -21    5.00    4.94   0
  -3   6  -9    1.45    5.34   0
  -1   3  -1   25.25    4.81   0
  -7   9 -19    2.79    7.25   0
  -7   9 -13   -1.71    7.33   0
  -4   7 -20  395.81   10.13   0
  -4   7  -8  519.83   11.64   0
  -3   5  10  707.78   12.50   0
  -3   6 -24  567.61   11.78   0
  -3   6  -6  445.96   10.40   0
  -2   5 -16 1747.26   18.61   0
  -7   9 -22   40.24    7.49   0
  -7   9 -10  152.67    8.48   0
  -6   8   4  228.29    8.95   0
  -5   7   9   -0.10    6.22   0
  -4   6  11    0.55    6.39   0
  -4   7 -23    3.21    6.65   0
  -2   5 -19    5.75    5.67   0
  -2   5 -13   -0.72    4.71   0
  -8   9   4  163.67    8.84   0
  -7   8  12  150.98    8.74   0
  -7   9  -7    1.81    6.96   0
  -6   7  17   -0.34    7.45   0
  -5   6  19   -3.90    6.53   0
  -4   7  -5   -2.29    5.91   0
  -3   6  -3    7.98    6.34   0
  -7   9  -4  181.53    9.20   0
  -6   6  24  438.08   11.50   0
  -5   8 -16  380.93   10.95   0
  -4   7 -26  148.34    8.21   0
  -3   6 -27    1.06    5.55   0
  -2   5 -22  278.49    9.10   0
  -2   5  -7    8.96    4.80   0
  -8   8  17    1.20    6.89   0
  -6   8   7   -3.62    7.33   0
  -5   8 -19   -6.83    7.11   0
  -5   8 -10  178.43    9.24   0
  -4   4  25    1.57    5.31   0
  -4   7  -2  227.47    8.58   0
  -2   4   9    4.40    5.27   0
  -1   3   2  690.05   12.88   0
  -7   7  22   87.06    8.39   0
  -7   9  -1    5.48    7.43   0
  -5   7  12  464.94   11.25   0
  -5   8 -22  112.26    7.95   0
  -5   8  -7  -10.61    7.27   0
  -4   7 -29    3.22    6.85   0
  -3   6   0 1037.25   14.57   0
  -2   5 -25    1.47    5.32   0
  -2   5  -4  716.24   12.37   0
  -7   8  15   -1.13    7.51   0
  -5   5  26  212.62    9.03   0
  -5   8  -4  241.08   10.14   0
  -4   5  21    0.60    5.98   0
  -4   7   1   -1.96    6.79   0
  -3   5  13   -1.50    5.91   0
  -3   6 -30  159.20    8.11   0
  -7   9   2   74.72    8.04   0
  -5   8 -25    3.77    7.02   0
  -6   7  20  251.95   10.02   0
  -6   8  10  167.30    8.53   0
  -5   8  -1    1.48    7.27   0
  -3   4  20  891.10   14.41   0
  -3   6   3    7.97    6.08   0
  -2   5 -28  355.46   10.48   0
  -2   5  -1    8.12    4.89   0
  -8   9  10   75.36    7.87   0
  -5   6  22  212.33    8.80   0
  -5   8 -28  157.34    8.31   0
  -4   7   4  634.70   12.44   0
  -3   3  24 1042.18   16.76   0
  -8   8  20  112.95    8.15   0
  -7   9   5    5.47    7.22   0
  -6   9 -15    4.43    6.93   0
  -6   9 -18  167.62    9.28   0
  -6   9  -9   -2.65    7.55   0
  -5   8   2  217.58    8.72   0
  -2   4  12  787.72   13.13   0
  -2   5   2  808.10   12.92   0
  -1   3   5    4.20    4.40   0
  -1   4 -17    1.49    4.73   0
  -1   4 -14  651.33   12.41   0
  -1   4 -11   16.63    5.22   0
  -7   7  25   -0.82    7.05   0
  -7   8  18  118.63    9.20   0
  -6   6  27    4.50    6.61   0
  -6   9 -21    1.20    6.32   0
  -6   9  -6   70.60    8.39   0
  -4   6  17   -3.17    6.34   0
  -3   6   6  429.59   10.00   0
  -8   9  13   -8.32    6.96   0
  -7   9   8  200.54    9.20   0
  -6   9 -24  145.89    8.08   0
  -6   9  -3   -4.61    7.22   0
  -4   7   7   11.22    6.02   0
  -1   4 -20  868.50   14.53   0
  -5   8   5    2.77    6.32   0
  -6   7  23    0.11    7.08   0
  -6   9 -27   -3.34    6.08   0
  -6   9   0  301.36   10.38   0
  -4   5  24  908.02   14.92   0
  -2   5   5    0.35    5.57   0
  -1   4 -23    9.23    5.25   0
  -1   4  -5    6.62    4.56   0
  -5   7  18  359.80    9.99   0
  -3   6   9    1.62    6.52   0
  -7   8  21   -3.21    8.27   0
  -6   8  16  342.01   11.13   0
  -5   6  25    1.61    6.07   0
  -4   7  10  382.77   10.05   0
  -6   9   3   -5.18    7.19   0
  -3   4  23    6.59    5.35   0
  -3   7 -16  401.49   10.68   0
  -3   7 -13    2.81    6.30   0
  -2   3  19    0.84    3.99   0
  -1   3   8 3290.47   25.84   0
  -1   4  -2  871.14   13.22   0
  -4   6  20  612.56   12.38   0
  -4   8 -15   -3.11    6.84   0
  -3   7 -19   -6.88    6.26   0
  -3   7  -7   -2.39    6.71   0
  -1   4 -26  556.42   12.75   0
  -6   9   6  155.96    9.09   0
  -4   8 -18  186.33    9.26   0
  -3   5  19    5.19    5.93   0
  -2   5   8 2162.07   19.58   0
  -7   9  14  134.41    8.45   0
  -5   8  11   -3.45    6.38   0
  -4   7  13   10.70    6.67   0
  -4   8 -21    2.87    6.45   0
  -4   8  -6  192.51    8.30   0
  -3   6  12  726.26   12.30   0
  -3   7 -22  170.33    8.35   0
  -3   7  -4  621.03   11.64   0
  -1   4   1   20.88    5.45   0
  -6   8  19    3.91    7.22   0
  -5   7  21    3.54    6.99   0
  -4   8  -3    1.28    7.24   0
  -2   6 -17   -6.22    5.86   0
  -2   6 -11    1.61    5.08   0
  -6   7  26  246.87    9.89   0
  -5   9 -14   65.08    7.83   0
  -4   8 -24  309.31   10.06   0
  -3   7 -25    3.09    6.17   0
  -3   7  -1    4.01    5.80   0
  -2   6 -20  626.59   12.16   0
  -7   8  24  235.14    9.64   0
  -6   9   9   -4.32    6.90   0
  -5   9 -17    6.12    6.64   0
  -5   9  -8  366.98   10.54   0
  -4   5  27    1.56    6.62   0
  -4   8   0  490.10   10.92   0
  -2   6  -5   -5.47    5.30   0
  -5   9 -20  105.55    8.33   0
  -5   9  -5    3.31    6.92   0
  -4   8 -27    5.31    7.26   0
  -3   3  27    0.37    4.38   0
  -3   7   2  233.73    9.17   0
  -2   5  11   -0.11    5.14   0
  -2   6 -23   -2.34    5.76   0
  -2   6  -2  579.84   11.68   0
  -1   3  11   12.83    5.22   0
  -1   4   4 1345.07   16.27   0
  -7   9  17    9.01    7.66   0
  -5   6  28  375.16   11.14   0
  -5   9 -23    1.49    6.34   0
  -5   9  -2  165.86    9.04   0
  -4   6  23    8.81    6.59   0
  -4   8   3    9.29    7.38   0
  -3   6  15   -6.00    6.43   0
  -6   8  22  104.77    8.62   0
  -5   7  24  307.82   10.46   0
  -5   9 -26  115.58    8.58   0
  -5   9   1    7.27    7.70   0
  -3   5  22  277.39    8.77   0
  -3   7   5    2.88    6.04   0
  -2   6 -26  346.03   10.51   0
  -2   6   1    2.09    5.32   0
  -4   8   6  196.35    9.64   0
  -3   4  26  631.55   12.83   0
  -5   9   4  120.26    8.85   0
  -2   3  22  444.89   10.85   0
  -1   4   7    9.97    4.92   0
  -1   5 -12  916.37   13.96   0
  -7   9  20  127.30    8.45   0
  -6  10  -4  124.52    8.30   0
  -3   7   8  542.71   11.67   0
  -2   5  14  383.89    9.54   0
  -2   6   4  846.91   12.96   0
  -1   5 -15   12.29    5.55   0
  -1   5  -9    0.66    4.71   0
  -4   7  19    4.78    5.87   0
  -4   8   9    3.90    7.21   0
  -1   5 -18  365.87    9.94   0
  -5   9   7    7.96    7.79   0
  -1   5  -3   19.85    5.86   0
  -6   8  25   -2.29    7.09   0
  -2   6   7   -0.18    6.40   0
  -1   3  14 1506.08   17.64   0
  -1   5 -21    6.54    5.14   0
   0   3 -12 2528.32   24.32   0
  -6  10   2   75.59    7.39   0
  -5   8  20  209.95    9.91   0
  -4   5  30  280.95    9.93   0
  -3   7  11    3.95    5.95   0
  -2   4  21   -2.27    5.21   0
  -1   4  10 1124.10   15.01   0
   0   3 -15    2.70    4.52   0
   0   3  -9   -1.62    3.88   0
  -6   9  18   87.78    8.36   0
  -5   7  27   -1.91    7.25   0
  -5   9  10  132.59    8.70   0
  -4   8  12  239.22    9.05   0
  -3   5  25    0.53    5.77   0
  -1   5   0 1383.40   15.92   0
  -4   7  22  156.47    8.94   0
  -3   8 -14  127.89    8.57   0
  -3   8 -11    1.17    6.81   0
  -1   5 -24  845.13   14.61   0
   0   3 -18 1210.13   18.02   0
  -4   9 -13    2.64    6.84   0
  -3   6  21    3.36    6.59   0
  -3   8 -17    3.75    6.51   0
  -3   8  -5   -7.92    6.74   0
  -2   6  10  325.70    9.18   0
   0   3  -3   -1.35    4.85   0
  -4   9 -16  301.02   10.14   0
  -4   9  -4  132.58    9.00   0
  -3   7  14  333.18   10.07   0
  -3   8  -2  219.27    9.45   0
  -1   5   3    3.77    4.96   0
  -5   8  23   -5.17    7.45   0
  -5   9  13   -1.03    6.90   0
  -4   8  15   -0.44    6.17   0
  -4   9 -19    2.26    6.55   0
  -3   8 -20  216.51    9.13   0
  -2   7 -15    0.89    6.48   0
  -2   7 -12  463.14   10.53   0
  -2   7  -9   -2.69    5.52   0
  -6   8  28  166.10    9.20   0
  -6   9  21    6.65    7.04   0
  -4   9  -1   -8.63    6.63   0
  -3   4  29   -0.39    5.09   0
  -3   8   1   12.56    7.22   0
  -2   7 -18  354.11   10.43   0
  -2   7  -3    4.31    6.79   0
  -1   4  13    6.14    5.60   0
   0   3   0 2653.49   23.11   0
  -4   6  29    2.24    5.89   0
  -4   9 -22   66.45    7.16   0
  -4   9   2  160.74    9.31   0
  -3   8 -23   -2.63    6.53   0
  -2   3  25    5.71    4.61   0
  -2   6  13   -0.50    6.23   0
  -1   5   6  361.94    9.11   0
  -3   8   4  246.88    9.77   0
  -2   7 -21   -4.26    6.13   0
  -2   7   0  606.37   11.99   0
  -5   7  30   73.64    8.00   0
  -5  10  -3   -0.99    7.58   0
  -4   7  25    5.80    7.04   0
  -3   7  17   -0.88    6.06   0
  -2   4  24 1824.15   19.50   0
  -5  10   0  195.34    9.10   0
  -4   9   5    1.53    7.05   0
  -3   5  28  387.16   10.57   0
  -3   6  24  575.63   11.77   0
  -2   7   3    7.01    6.57   0
   0   3   3   -1.63    5.13   0
  -6   9  24  176.79   10.24   0
  -2   7 -24  290.78    9.81   0
  -1   5   9    6.40    5.37   0
  -5   8  26  163.60    9.58   0
  -5  10   3    0.57    7.73   0
  -4   9   8  369.34   10.87   0
  -2   6  16  739.66   12.47   0
  -1   6 -13    2.45    5.82   0
  -1   6 -10  438.94   10.01   0
   0   4 -10  416.39   10.14   0
  -5   9  19    2.54    7.14   0
  -2   7   6  425.23   10.24   0
  -1   4  16 2041.93   19.36   0
  -1   6 -16  612.71   12.19   0
   0   4 -13   -3.24    4.92   0
  -5  10   6   76.63    7.95   0
  -4   8  21   -7.09    7.22   0
  -3   8  10  187.45    8.52   0
  -1   6  -1    9.07    6.55   0
   0   4 -16 1486.08   18.17   0
   0   4  -4 1506.26   16.95   0
  -4   9  11   -3.02    7.44   0
  -2   5  23    5.52    5.85   0
  -1   5  12 1169.87   15.17   0
  -1   6 -19   -0.14    5.68   0
   0   3   6 2084.01   19.99   0
  -4   6  32  311.00   10.47   0
  -4   7  28  366.17   11.11   0
  -2   7   9    0.88    5.94   0
  -1   6   2  325.67    9.51   0
   0   4  -1    4.69    4.58   0
  -3   6  27    6.85    6.55   0
  -2   6  19    4.05    6.22   0
   0   4 -19    0.54    4.86   0
  -6   9  27   -0.88    7.22   0
  -5   8  29    1.78    7.47   0
  -5   9  22   76.52    8.13   0
  -1   6 -22  203.71    8.39   0
   0   4   2 1400.03   16.28   0
  -4   9  14   79.06    7.89   0
  -3   7  23   -0.20    6.98   0
  -2   4  27    1.00    5.35   0
  -2   7  12  390.51   10.60   0
  -1   6   5   -6.27    5.60   0
  -4   8  24  291.74   10.05   0
  -3   5  31    0.99    5.74   0
  -3   9 -12  128.13    8.26   0
  -3   9  -9    2.58    6.79   0
  -1   5  15    3.27    5.28   0
   0   3   9    2.29    4.33   0
  -3   9 -15    2.34    6.52   0
  -2   3  28 1274.07   17.90   0
   0   4 -22  604.06   12.83   0
   0   4   5    6.48    5.50   0
  -4   9  17    8.00    7.46   0
  -3   9 -18   90.20    8.33   0
  -3   9   0  293.00   10.13   0
  -2   8 -10  179.38    8.15   0
  -2   8  -7   -1.47    5.87   0
  -1   6   8  764.18   12.40   0
  -5   9  25    3.61    7.62   0
  -4   7  31   -7.83    7.06   0
  -4  10  -2   63.67    7.66   0
  -2   5  26  596.65   11.51   0
  -2   7  15   -4.01    7.12   0
  -2   8 -16  345.70   10.36   0
  -2   8  -1   -4.41    6.99   0
  -4  10   1    3.99    6.97   0
  -3   9   3    5.34    6.45   0
  -4   8  27    3.10    7.73   0
  -3   7  26  139.27    8.76   0
  -3   8  19    2.47    7.08   0
  -3   9 -21   -4.31    6.47   0
  -2   8 -19    3.70    6.04   0
  -2   8   2  226.27    9.05   0
  -1   5  18  734.96   12.59   0
  -1   6  11    5.07    5.86   0
   0   4   8 1544.38   16.62   0
   0   5 -11    3.19    5.61   0
   0   5  -8  979.25   13.90   0
  -5   8  32  187.40    9.26   0
  -3   9   6   59.14    7.49   0
  -2   8   5    1.84    7.46   0
  -1   3  23    0.37    4.69   0
   0   3  12 2007.78   19.37   0
   0   5 -14  626.67   12.16   0
   0   5  -2  325.62    9.53   0
  -2   7  18  161.16    8.56   0
  -1   7 -11    7.78    6.15   0
  -1   7  -8  614.34   12.43   0
  -3   9   9    8.77    7.67   0
  -1   7 -14  134.25    7.84   0
   0   5 -17   -0.44    5.32   0
   0   5   1    1.80    5.22   0
  -5   9  28   77.33    8.31   0
  -2   4  30  198.44    8.21   0
  -2   6  25    2.04    6.45   0
  -2   8   8  422.45   10.60   0
  -1   6  14  392.37    9.88   0
  -1   7   1   13.93    6.82   0
   0   4  11   -5.02    5.73   0
  -3   5  34  400.03   10.90   0
  -1   7 -17    2.74    6.22   0
   0   5   4 1134.43   14.49   0
  -4   7  34  162.92    9.01   0
  -4   9  23   -2.84    7.61   0
  -3   9  12  146.14    8.62   0
  -2   5  29    1.23    4.98   0
  -2   8  11  -13.32    7.69   0
  -1   7   4  248.56    8.77   0
   0   5 -20  651.86   12.84   0
  -4   8  30   82.91    8.18   0
  -3   7  29   -6.90    7.21   0
  -2   7  21    6.53    5.99   0
  -1   7 -20  238.83    9.21   0
   0   3  15   -1.60    4.31   0
   0   5   7   -5.68    6.20   0
  -3   6  33   -2.34    6.23   0
  -1   6  17    1.63    5.93   0
  -1   7   7    5.34    7.03   0
  -3   9  15   10.85    7.12   0
  -1   4  25   -0.19    5.29   0
   0   4  14  305.51    8.61   0
  -3   8  25    4.36    7.08   0
  -2   3  31   -0.19    4.51   0
  -2   6  28  421.71   11.11   0
  -2   8  14  112.62    7.87   0
   0   5  10  700.66   12.31   0
  -4   9  26  112.64    9.00   0
  -1   7  10  210.05    8.55   0
  -3   9  18  159.86    9.39   0
  -1   3  26  488.06   11.07   0
  -1   5  24  638.14   12.07   0
  -1   6  20  479.92   11.41   0
   0   6  -9    4.20    6.22   0
   0   6  -6  234.66    8.27   0
  -2   8  17    2.90    7.28   0
  -2   9  -5   -1.63    6.82   0
   0   6 -12  390.36   10.42   0
   0   6   0  853.09   13.81   0
  -4   8  33   -0.16    6.84   0
  -3   7  32  260.06   10.07   0
  -2   5  32  641.99   12.71   0
  -2   9 -11    1.52    6.99   0
  -2   9   1   10.95    7.18   0
  -1   7  13  -12.42    6.19   0
   0   4  17   -4.66    4.90   0
   0   5  13   -2.98    6.32   0
   0   6 -15    4.04    5.89   0
   0   6   3   -0.81    6.61   0
  -3   8  28  152.56    9.56   0
  -2   9 -14  112.99    8.31   0
   1   3  -8 2681.67   23.20   0
   1   3  -2  861.61   13.53   0
  -2   9 -17    3.15    7.14   0
  -2   9   4  179.38    8.59   0
   0   6   6  367.87   10.17   0
   1   3 -11   18.81    4.99   0
  -4   9  29   -1.37    6.73   0
  -3   6  36  271.68   10.00   0
  -2   6  31    3.71    6.51   0
  -2   7  27   -3.44    7.40   0
  -2   8  20  180.44    9.19   0
  -2   9   7    6.14    7.45   0
  -1   4  28  672.30   12.45   0
  -1   7  16  584.63   12.46   0
  -1   8  -9   -2.04    6.96   0
  -1   8  -6  183.55    8.85   0
  -1   8  -3   -0.96    7.40   0
   0   6 -18  331.82    9.94   0
   1   2  -1   25.91    4.67   0
   1   3   1   11.81    4.76   0
  -1   5  27   -2.12    6.03   0
  -1   8 -12  170.96    8.68   0
   0   5  16  691.08   12.36   0
   1   3 -14  662.73   12.87   0
  -1   8 -15    8.15    6.79   0
  -1   8   3    1.18    6.28   0
   0   4  20 1268.57   15.69   0
   0   6   9   -0.75    5.83   0
   1   2   2  668.69   12.42   0
   1   3   4 1264.69   15.45   0
   1   4  -6  858.33   13.57   0
  -2   9  10  135.61    8.51   0
  -1   8   6   97.82    8.26   0
   0   2  19    2.31    4.42   0
   1   4  -9    1.21    4.50   0
   1   4   0 1419.54   16.43   0
  -3   7  35    1.32    6.95   0
  -3   9  24  136.60    8.82   0
  -1   7  19    1.32    6.29   0
  -1   8 -18  110.90    8.49   0
   0   6  12  354.96   10.32   0
   1   4 -12  929.21   14.33   0
  -3   8  31    1.52    6.73   0
  -2   9  13   -3.41    7.45   0
  -1   3  29   -0.39    4.79   0
  -1   8   9    5.07    7.40   0
   0   5  19   -3.37    6.21   0
   1   2   5    5.12    4.99   0
   1   3 -17   -1.35    4.42   0
   1   3   7   10.18    4.69   0
   1   4   3   -5.81    4.90   0
  -2   5  35    0.23    5.83   0
  -2   7  30  176.09    9.32   0
  -1   6  26  205.32    9.22   0
   1   4 -15    4.34    5.16   0
   0   7  -7   -1.50    6.62   0
   0   7  -4  180.17    9.10   0
   1   4   6  350.92    9.04   0
  -2   6  34  171.86    8.63   0
  -2   9  16  149.62    8.81   0
  -1   5  30  167.26    8.13   0
  -1   8  12  180.98    8.63   0
   0   6  15   -3.29    5.91   0
   0   7 -10  220.34    9.25   0
   0   7   2  220.51    9.22   0
   1   3  10 1135.64   14.82   0
  -3   9  27    0.07    6.78   0
  -2   8  26  179.12    9.19   0
  -1   4  31   -0.12    5.41   0
   0   7 -13   -0.32    6.15   0
   0   7   5   12.58    7.31   0
   1   2   8 3331.61   25.47   0
   1   4   9   14.08    6.08   0
   1   5  -7   -0.46    6.05   0
   1   5  -4  717.86   12.59   0
  -1   8  15    1.41    7.31   0
   0   5  22  231.74    8.65   0
   1   4 -18  377.92   10.30   0
   1   5 -10  462.93   10.92   0
   1   5   2  337.61    9.66   0
  -3   8  34  135.73    8.62   0
  -2   9  19   -1.79    7.42   0
   0   3  24 1517.54   17.38   0
   0   6  18  244.04    9.34   0
   0   7 -16  461.78   11.34   0
   0   7   8  576.82   12.18   0
   1   3 -20  777.41   14.83   0
  -1   6  29   -0.58    5.79   0
   1   3  13    5.60    5.66   0
   1   4  12 1132.34   14.75   0
   1   5 -13    6.94    5.37   0
   1   5   5   10.40    5.49   0
  -2   7  33    1.79    7.32   0
   0   7  11    3.94    7.26   0
  -2   8  29   -8.22    7.08   0
  -1   8  18  179.61    8.77   0
   1   2  11   14.37    4.60   0
   1   5   8  804.05   12.66   0
  -2   9  22   52.50    7.50   0
  -1   9  -7   -4.68    6.54   0
  -1   9  -4  158.37    8.91   0
  -1   9  -1    2.70    7.08   0
   0   4  26  685.99   11.86   0
   0   6  21    6.75    6.77   0
   1   5 -16  609.10   12.40   0
  -2   6  37    2.89    6.10   0
  -1   3  32 1137.33   16.62   0
  -1   5  33    2.23    6.10   0
  -1   9 -10   77.94    7.08   0
  -1   9   5    4.60    7.22   0
   0   7  14  117.65    8.91   0
   1   4  15    1.57    6.10   0
   1   5  11    6.97    6.26   0
  -1   8  21   -0.98    7.21   0
   1   3  16 2055.66   19.02   0
  -3   8  37   -5.60    7.16   0
  -1   4  34  478.09   11.21   0
  -1   6  32  353.40   10.60   0
  -1   7  28  146.10    7.90   0
  -1   9   8  133.41    8.44   0
   1   5 -19    0.91    5.94   0
   1   6  -5    4.02    6.68   0
   1   6  -2  304.18    9.97   0
   0   3  27   -0.13    5.08   0
   0   7  17   13.64    7.75   0
   1   2  14 1609.82   17.68   0
   1   5  14  387.35   10.27   0
   1   6   4  269.57    9.64   0
  -2   7  36  156.09    9.19   0
  -2   8  32  149.99    9.38   0
  -1   9  11   -1.19    7.01   0
   0   6  24  550.30   11.36   0
   0   8  -5    3.08    6.64   0
   0   8  -2  101.42    8.44   0
   0   8   1    4.53    6.93   0
   1   4  18  707.69   12.25   0
   1   6 -11    4.99    6.13   0
  -1   8  24  186.86    9.44   0
   0   4  29   -4.87    5.69   0
   0   5  28  580.91   11.80   0
   0   8  -8  215.07    9.64   0
   1   6   7    8.71    6.12   0
  -1   9  14   66.12    7.79   0
   0   2  25   -0.05    4.54   0
   0   7  20  149.40    8.88   0
   0   8 -11   12.17    6.36   0
   0   8   7    6.08    7.14   0
   1   3  19    9.97    4.75   0
   1   5  17    0.25    6.65   0
   1   6 -14  121.66    7.85   0
  -1   7  31    3.39    7.09   0
   1   6  10  199.93    8.51   0
  -1   5  36  439.42   10.97   0
   0   8 -14  101.80    7.34   0
   0   8  10  158.79    8.95   0
   1   2  17    6.83    5.08   0
   1   4  21    7.46    6.27   0
  -1   6  35    2.43    6.85   0
   1   6 -17   -0.93    6.10   0
   1   6  13    5.86    6.07   0
  -2   8  35    3.27    6.81   0
   0   7  23   11.13    7.36   0
   0   8  13   -4.79    7.13   0
   1   5  20  489.66   11.16   0
  -2   7  39    6.02    7.06   0
   0   3  30  530.33   11.43   0
   0   5  31   -3.79    6.27   0
  -1   3  35    0.94    4.53   0
  -1   4  37    1.87    5.38   0
   0   8  16  173.55    9.21   0
   1   6  16  601.89   11.80   0
   1   7  -3   -2.72    6.84   0
   1   7   0  372.09   10.70   0
   2   3  -4  680.56   11.75   0
   2   3   2  762.14   12.22   0
  -1   7  34  144.99    8.97   0
   1   4  24  644.93   11.92   0
   1   7  -6  189.23    9.05   0
   2   3  -7    6.83    4.50   0
   2   3   5    5.65    5.04   0
   2   4  -5   -1.12    4.98   0
   2   4   4  850.84   13.25   0
  -1   8  30   38.95    7.41   0
   0   6  30  125.90    7.52   0
   0   7  26  192.69    9.29   0
   1   5  23   -0.54    6.45   0
   1   7  -9    3.12    6.62   0
   1   7   6   93.46    7.57   0
   2   4  -8  851.99   13.74   0
   0   8  19   -2.08    7.00   0
   1   6  19   10.21    6.42   0
   1   7   9    0.31    7.48   0
   2   3 -10  729.39   12.85   0
   2   3   8 2163.33   19.27   0
   2   4   7    0.37    5.38   0
  -1   5  39    3.48    6.69   0
  -1   6  38  134.42    8.17   0
   0   2  28 1081.64   15.96   0
   2   2   0 4188.57   28.24   0
   2   4 -11    4.81    5.48   0
   2   4  10  342.32    9.77   0
   1   7  12  189.61    8.62   0
   2   2   3    4.64    4.41   0
   2   3  11    9.06    5.01   0
   2   5  -3   -1.75    6.51   0
   0   5  34  254.42    8.65   0
   0   8  22   61.52    8.11   0
   1   6  22  157.23    8.79   0
   2   2  -6  796.61   13.17   0
   2   2   6  805.77   13.00   0
   2   3 -13   -1.97    5.07   0
   2   5  -6  149.02    7.50   0
   2   5   6  416.15   10.73   0
  -1   7  37   -3.60    7.40   0
   0   6  33   -1.49    6.74   0
   1   5  26  212.95    8.26   0
   1   7  15  -11.01    7.71   0
   2   4 -14  262.26    9.14   0
   2   4  13    4.62    5.57   0
   2   5  -9    0.05    5.81   0
   2   5   9   -0.74    6.80   0
  -1   8  33    5.50    7.37   0
   0   3  33   -3.09    5.16   0
   0   4  35   -4.58    5.84   0
   1   2  23   -0.73    4.93   0
   2   2  -9    1.29    4.62   0
   2   2   9    0.29    5.32   0
   2   3  14  379.81    9.29   0
   2   4  16  731.60   12.63   0
   2   5 -12  473.80   11.25   0
   2   5  12  368.68   10.25   0
   0   8  25    4.55    7.01   0
   1   6  25   -2.82    7.58   0
   1   7  18  196.56    9.01   0
   2   3 -16 1724.73   20.26   0
   1   3  28  673.28   12.29   0
   2   2  12  769.56   12.31   0
   2   3  17    5.02    5.96   0
   2   4 -17    2.97    5.14   0
  -1   6  41    1.48    6.23   0
   0   7  32  231.38   10.11   0
   1   4  30  171.21    7.93   0
   1   7  21    7.45    7.59   0
   1   8  -4  161.89    8.74   0
   1   8  -1    5.61    6.52   0
   1   8   2   89.08    7.71   0
   1   8   5    2.04    6.82   0
   2   2 -12  747.14   13.83   0
   2   5 -15    0.92    6.49   0
   2   5  15    0.21    6.04   0
   2   6  -4  237.37    9.24   0
   2   6  -1    2.74    5.78   0
   0   5  37   -3.29    6.60   0
   0   6  36  131.86    8.70   0
   1   8  -7    0.75    7.13   0
   2   4  19    5.18    5.53   0
   2   6  -7    0.71    6.78   0
   2   6   8  407.43   11.26   0
  -1   7  40  180.56    9.36   0
   0   2  31    0.85    5.02   0
   2   2  15   -4.17    5.42   0
   2   5  18  175.66    8.56   0
   1   2  26  499.60   10.88   0
   1   8 -10   70.27    7.33   0
   1   8  11    0.88    6.32   0
   2   3  20  594.39   11.06   0
   2   6 -10  183.41    8.65   0
   2   6  11  -10.60    6.32   0
   0   4  38  107.49    7.55   0
   1   7  24  212.21    9.54   0
   2   4  22  346.23    9.94   0
   2   6  14  105.20    8.82   0
   0   3  36  495.50   11.53   0
   0   7  35    2.04    6.95   0
   1   5  32  350.75    9.70   0
   2   3 -19    7.62    4.80   0
   2   5  21    0.27    7.13   0
   1   3  31    8.82    4.89   0
   1   4  33    1.28    6.01   0
   2   2 -15    0.45    4.32   0
   2   2  18 1089.19   14.60   0
   2   6 -13   -0.13    6.47   0
   2   1   1   27.31    4.77   0
   2   1   4 3111.28   25.52   0
   2   3  23   -4.54    6.20   0
   2   6  17    2.94    6.37   0
   0   5  40  174.72    8.60   0
   0   6  39   -2.84    6.88   0
   1   7  27    0.31    6.76   0
   2   4  25   -3.40    6.38   0
   2   1   7   -2.35    4.37   0
   2   5  24  416.85   10.35   0
   2   6  20  182.10    9.22   0
   2   7  -2   71.31    7.63   0
   2   7   1   -5.89    7.39   0
   2   7   4  184.24    9.25   0
   1   1  21   15.74    4.98   0
   1   5  35    6.00    7.16   0
   2   7  -5    4.43    6.60   0
   0   7  38   18.05    7.13   0
   1   2  29    2.54    4.43   0
   2   1  10 2052.26   20.23   0
   2   2  21   -1.30    4.78   0
   3   3   3   -5.76    5.27   0
   3   3   6  444.87   10.45   0
   3   4  -1    9.23    6.40   0
   1   6  34  137.22    8.72   0
   2   6  23   -3.30    7.68   0
   2   7  -8  201.92    9.18   0
   2   7  13   -9.26    7.35   0
   3   3  -3    5.41    4.86   0
   3   3   9    4.36    5.94   0
   3   4  -4  641.10   12.44   0
   3   4   8  527.68   10.99   0
   0   2  34  258.37    9.28   0
   0   4  41   -1.31    5.78   0
   1   4  36  438.28   11.13   0
   2   5  27    8.28    6.13   0
   3   3  -6  448.61   10.71   0
   3   4  11   13.03    5.84   0
   2   1  13   19.08    4.80   0
   3   3  12  724.76   12.02   0
   3   4  -7    5.44    5.39   0
   3   5   1    4.40    6.90   0
   0   3  39    0.77    5.53   0
   0   6  42  120.93    8.10   0
   3   4  14  342.86    9.64   0
   3   5  -2  215.78    8.53   0
   3   5   7   -3.47    6.08   0
   3   5  10  197.16    9.53   0
   0   5  43   -6.62    6.57   0
   1   7  33    6.08    7.64   0
   2   6  26  181.90    9.49   0
   2   7  19    6.01    7.24   0
   3   2   1   -1.55    4.62   0
   3   2   4  692.82   11.78   0
   3   2   7    5.25    5.51   0
   3   3  -9    3.18    5.62   0
   3   3  15   -1.89    5.48   0
   3   4 -10  359.76   10.17   0
   3   5  -5    1.22    6.91   0
   1   5  38  109.70    8.41   0
   1   6  37   -3.26    7.60   0
   2   1  16 2073.55   20.25   0
   2   3  29    3.10    5.28   0
   2   4  31   -7.87    6.71   0
   3   2  10  730.66   12.45   0
   3   4  17    4.16    6.12   0
   3   5  13   -4.49    7.59   0
   1   2  32 1136.30   15.84   0
   3   2  -5    6.64    5.29   0
   3   3  18  406.80   10.55   0
   3   5  -8  430.59   11.15   0
   2   7  22   43.44    7.08   0
   3   2  13   -2.24    5.73   0
   3   3 -12  715.99   13.07   0
   3   4 -13    8.49    5.81   0
   3   4  20  397.78   10.89   0
   3   5  16  391.36   10.32   0
   1   3  37    3.77    5.77   0
   1   4  39    7.41    6.59   0
   2   2  27    3.33    5.53   0
   2   6  29    7.87    6.87   0
   3   5 -11    6.85    6.40   0
   3   6   0  294.37   10.54   0
   3   6   3    7.45    6.98   0
   3   6   6   64.62    7.91   0
   3   2  -8 2183.13   21.19   0
   3   3  21    1.81    6.40   0
   3   5  19    1.98    7.68   0
   3   6  -3   -0.87    7.28   0
   2   1  19    5.28    4.35   0
   2   3  32  636.39   12.37   0
   2   5  33   -5.40    6.59   0
   3   2  16 1756.12   17.58   0
   3   4  23    5.97    7.16   0
   3   6  12  165.66    8.94   0
   1   5  41   -0.60    7.04   0
   1   6  40  194.90    9.89   0
   2   4  34  148.97    7.61   0
   3   6  -6  152.13    8.35   0
   3   6  15    9.33    7.59   0
   3   2  19    6.03    6.25   0
   3   3 -15    2.31    5.66   0
   3   5  22  101.45    7.57   0
   1   1  27    1.59    4.56   0
   3   2 -11    3.41    5.04   0
   3   3  24  608.06   11.46   0
   3   6  -9   -5.15    6.78   0
   3   6  18  159.30    9.27   0
   1   2  35    3.22    5.26   0
   2   2  30  195.26    8.18   0
   3   4  26  145.16    7.78   0
   1   4  42  193.15    8.85   0
   2   5  36  152.40    8.97   0
   3   1   5   -3.15    5.53   0
   3   5  25    4.74    7.00   0
   1   3  40  425.54   10.86   0
   2   3  35   -0.11    6.31   0
   2   4  37    3.26    7.13   0
   3   1   2  859.16   13.22   0
   3   1   8 2730.59   22.27   0
   3   2  22  286.05    8.68   0
   3   6  21   -6.57    6.80   0
   2   6  35    3.78    6.56   0
   3   1  11   18.05    5.16   0
   3   3  27   -2.51    5.78   0
   1   5  44  147.54    9.36   0
   1   6  43    3.06    6.43   0
   3   4  29    1.01    6.23   0
   3   5  28  148.24    8.97   0
   3   6  24  160.15    9.15   0
   2   1  25    6.59    5.11   0
   3   1  -4 1278.01   16.54   0
   3   1  14  690.16   11.83   0
   3   2 -14  374.18   10.26   0
   3   2  25    2.81    6.14   0
   4   3   1    2.49    6.16   0
   4   3   7    4.10    5.78   0
   4   3  10  374.98   10.41   0
   4   4   0  484.39   11.85   0
   4   4   3   12.47    6.02   0
   4   4   9    5.48    7.11   0
   2   2  33    6.33    5.79   0
   2   5  39    1.12    7.07   0
   4   3  -2  235.42    9.27   0
   4   3  13   -4.11    6.84   0
   4   4  12  226.63    8.92   0
   3   1  17    0.06    5.68   0
   3   6  27    5.50    7.68   0
   4   4  -3    1.94    6.84   0
   4   4  15    2.37    6.91   0
   1   1  30  558.02   12.04   0
   2   3  38   89.50    7.60   0
   2   4  40  226.61    9.72   0
   3   5  31    6.76    7.49   0
   4   3  -5    1.44    6.08   0
   4   3  16  402.02   10.15   0
   4   5   2  165.22    8.88   0
   4   5   5    6.87    7.51   0
   3   1  -7   12.67    4.95   0
   4   2   5    3.55    5.38   0
   4   2   8  860.73   13.13   0
   4   2  11    3.81    6.50   0
   4   4  -6  186.01    8.86   0
   4   4  18  198.25    9.68   0
   4   5  -1    0.87    6.79   0
   4   5  11  -11.89    6.85   0
   3   1  20  909.71   13.78   0
   4   2  -1   -5.69    5.59   0
   4   3  19    3.64    6.27   0
   4   5  14   73.78    7.81   0
  -4   9 -10  137.53    8.68   0
  -3   7   5   13.98    6.46   0
  -1   5   0 1368.27   15.73   0
   0   4  -7   -1.29    4.57   0
  -2   6   4  855.68   12.97   0
  -1   6 -10  444.25    9.92   0
  -5   8  11   -3.27    6.94   0
  -4   6  17   -2.83    5.88   0
  -3   5  16 1755.27   19.15   0
  -3   8  -5    1.49    6.15   0
   0   3   0 2673.56   22.78   0
   0   5 -26  200.83    8.05   0
   0   5 -23    5.95    5.55   0
  -4   9  -7    4.43    6.84   0
  -1   4   7   16.41    5.12   0
   0   5 -29    4.60    5.55   0
   0   5 -20  647.71   12.14   0
  -4   7  13    1.20    6.59   0
  -2   7  -3   -5.36    6.81   0
  -1   6  -7   -0.20    5.46   0
   0   5 -17   -2.73    5.67   0
  -6   9   9   11.74    6.70   0
  -5   9   4  115.71    8.81   0
  -3   8  -2  229.90    9.33   0
  -1   5   3   -4.84    5.95   0
   0   4  -4 1502.94   16.49   0
  -4   9  -4  120.19    8.30   0
   0   5 -14  618.28   11.73   0
   1   3 -26  581.12   12.70   0
   1   3 -23   10.12    5.07   0
  -5   7  18  363.61   10.78   0
  -2   4  15   -2.45    4.83   0
  -2   6   7   -7.16    5.47   0
  -1   6  -4  712.58   12.52   0
   1   3 -20  888.75   14.56   0
  -4   5  21    2.75    5.33   0
  -2   7   0  613.86   12.13   0
  -2   8 -25    1.35    6.47   0
  -2   8 -22   98.37    7.94   0
  -5   8  14  139.63    8.72   0
  -5  10  -6   75.10    7.68   0
  -4   8   9    5.47    7.08   0
  -4   9  -1    5.77    7.22   0
  -3   8   1   -7.24    7.22   0
  -3   9 -27    8.88    6.91   0
  -3   9 -24  179.37    8.66   0
  -2   8 -28  137.78    8.62   0
  -2   8 -19   -3.51    7.24   0
  -1   3  11   10.66    4.14   0
   1   3 -17    1.75    4.41   0
  -5   9   7   -3.86    7.54   0
  -3   6  15   -0.26    5.17   0
  -2   8 -31   -2.60    6.64   0
   0   4  -1    1.54    5.37   0
  -6   9  12  141.85    9.00   0
  -4   7  16  409.15   11.02   0
  -3   4  20  862.99   14.75   0
  -3   9 -15    0.82    6.96   0
  -2   8 -34   94.92    7.63   0
  -2   8 -13   -2.12    7.04   0
  -1   7 -29    7.95    7.30   0
  -1   7 -26  232.51    9.26   0
  -1   7 -23   -1.59    5.86   0
  -1   7 -20  239.86    9.24   0
   0   3   3   -0.57    4.31   0
   1   3 -14  674.20   12.38   0
  -5  10  -3    2.24    6.80   0
  -1   4  10 1121.29   14.89   0
  -1   5   6  369.37    9.31   0
  -1   6  -1    5.36    5.75   0
  -1   7 -17    0.39    6.66   0
   0   5  -8  933.18   13.28   0
  -4   9   2  149.00    9.01   0
  -3   5  19    1.89    5.68   0
  -3   8   4  261.16    9.85   0
  -3   9 -12  119.98    8.12   0
  -2   7   3    1.07    5.91   0
  -2   8 -10  169.58    8.82   0
  -1   7 -32  228.13    8.87   0
  -5   9  10  124.74    8.38   0
  -1   7 -11    4.23    6.39   0
   0   5  -5   -1.72    5.61   0
   1   3 -11   13.97    4.98   0
  -2   8  -7   -5.54    6.08   0
  -1   6   2  323.22    9.87   0
   0   4   2 1427.35   16.31   0
  -5   8  17   -2.13    6.36   0
  -3   9  -6  166.71    8.89   0
  -6   9  15    8.95    7.07   0
  -3   6  18  410.28   10.65   0
  -3   8   7   -2.94    7.07   0
  -2   7   6  424.87   10.24   0
  -2   8  -4  225.25    9.65   0
  -1   5   9   14.21    6.11   0
   0   6 -27   -5.84    6.11   0
   0   6 -24  459.04   11.11   0
   0   6 -21   -3.08    6.21   0
   0   6 -18  347.23    9.96   0
   1   4 -24  880.36   14.31   0
   1   4 -21    8.07    5.24   0
  -5  10   3   -0.83    7.57   0
  -3   7  14  339.25   10.52   0
   0   3   6 2011.64   19.66   0
   0   5  -2  339.24    9.35   0
   0   6 -30  100.68    7.84   0
   1   4 -27    1.37    5.05   0
   1   4 -18  382.02    9.99   0
  -4   7  19    0.28    6.39   0
  -3   9  -3    6.33    7.56   0
  -1   7  -5   11.72    6.57   0
   0   6 -15    1.86    5.23   0
  -5   9  13   -0.75    6.73   0
  -1   4  13    7.57    5.31   0
  -1   6   5    8.52    5.62   0
   0   6 -12  391.48   10.29   0
   1   4 -15    4.50    5.45   0
  -4   8  15    1.84    6.18   0
  -4   9   8  357.75   10.82   0
  -2   5  17   -0.28    4.65   0
  -2   8  -1    2.64    6.32   0
  -3   9   0  310.30   10.28   0
  -2   7   9    1.19    6.96   0
   0   4   5    4.06    4.85   0
   1   4 -12  923.50   13.80   0
  -5  10   6   76.27    7.47   0
  -4   6  23    1.25    5.98   0
  -4  10  -2   81.25    7.65   0
  -1   7  -2  317.25    9.32   0
   0   5   1    2.71    5.20   0
  -5   8  20  207.01    9.44   0
  -2   8   2  221.00    9.42   0
  -3   7  17   -1.69    6.54   0
  -2   9 -23    2.49    6.81   0
  -2   9 -20  112.88    8.29   0
  -2   9 -17    3.17    6.78   0
  -1   5  12 1072.28   14.24   0
  -1   6   8  793.11   13.02   0
   0   6  -6  226.56    8.59   0
   1   4  -9    4.57    4.62   0
  -4   9  11   -4.18    7.03   0
  -4  10   1   -4.27    7.53   0
  -3   9   3    3.17    6.67   0
  -2   6  16  714.49   12.78   0
  -1   7   1   -7.26    6.63   0
  -1   8 -24  227.33    9.32   0
  -1   8 -21    8.41    6.81   0
  -5   9  16  313.37   10.73   0
  -3   4  23    8.59    4.76   0
  -3   6  21   -2.55    6.08   0
  -1   8 -27   -4.06    6.81   0
  -1   8 -18  121.56    7.95   0
  -1   8 -15    2.65    7.19   0
  -4   7  22  162.11    8.47   0
  -4   8  18  178.37    9.35   0
  -3   8  13   -1.45    7.42   0
  -2   7  12  363.41    9.99   0
  -2   8   5   13.78    7.26   0
  -2   9 -11    0.93    6.48   0
   0   3   9    2.86    4.29   0
   0   4   8 1534.15   16.80   0
   0   5   4 1122.53   14.30   0
   0   6  -3   -0.66    6.23   0
   1   3  -2  853.00   13.25   0
  -2   9  -8  215.33    9.52   0
   1   2  -1   26.44    5.31   0
   1   5 -22  208.01    8.35   0
   1   5 -19    0.38    5.76   0
  -3   9   6   65.53    8.28   0
  -1   7   4  257.90    9.40   0
  -1   8  -9   -2.21    7.33   0
   1   5 -25    3.18    5.69   0
   1   5 -16  634.25   12.16   0
  -2   4  21   -4.81    4.85   0
  -2   5  20  555.14   11.07   0
  -1   6  11    5.19    6.26   0
  -4   9  14   82.96    8.53   0
  -2   9  -5    0.88    6.69   0
  -1   5  15    6.13    5.96   0
   0   6   0  842.23   12.98   0
   0   7 -25    7.73    6.38   0
   0   7 -22   94.76    7.88   0
   0   7 -19    0.41    7.00   0
   0   7 -16  459.44   11.22   0
   1   4  -3   11.58    5.82   0
   1   5 -13    9.23    5.35   0
  -3   7  20  425.59   11.30   0
  -1   8  -6  171.57    8.22   0
   0   5   7   -0.86    5.86   0
   0   7 -13    7.12    7.15   0
  -5   9  19    2.90    6.65   0
  -3   8  16  398.46   11.10   0
  -2   6  19    1.47    6.02   0
  -2   9  -2   83.03    7.88   0
  -1   3  17    7.45    4.62   0
   1   3   1   15.15    4.68   0
  -4   8  21   -0.31    7.24   0
  -1   7   7   11.25    6.17   0
  -1   8  -3    0.39    7.12   0
   0   7 -10  217.33    9.41   0
   0   4  11   -5.36    4.78   0
   1   4   0 1386.69   16.00   0
  -3   6  24  579.04   12.14   0
  -2   9   1    5.58    7.05   0
  -1   6  14  374.71   10.07   0
   0   3  12 1953.57   19.14   0
   1   2   2  684.26   12.57   0
  -4   7  25    7.66    6.54   0
  -4   9  17    7.06    7.28   0
  -2   8  11   -0.36    6.13   0
  -1   8   0  381.30   10.82   0
  -1   7  10  227.66    9.34   0
   0   5  10  696.02   11.79   0
   0   7  -4  185.91    8.65   0
  -2   7  18  157.83    8.73   0
  -1   4  19    7.68    5.18   0
   0   6   6  400.03   10.37   0
   1   3   4 1288.43   15.39   0
  -3   7  23    1.06    6.50   0
  -3   8  19    0.75    6.27   0
  -2   5  23    1.57    5.60   0
  -2   9   4  191.50    9.42   0
  -1   8   3   -0.43    7.33   0
   1   4   3    3.35    5.63   0
   1   6 -20  238.28    9.30   0
   1   6 -17    6.80    6.49   0
  -2   6  22  333.51    9.97   0
   0   7  -1    0.32    6.95   0
   1   6 -23    3.53    6.31   0
   1   6 -14  130.12    7.72   0
   0   4  14  310.87    9.09   0
   1   6 -11    3.92    6.63   0
  -4   8  24  292.31   10.54   0
  -4   9  20  109.79    9.30   0
  -3   9  15    1.16    7.40   0
  -1   9 -13   -1.79    6.50   0
   2   2 -21   -0.48    4.66   0
   2   2 -18  997.84   16.46   0
   2   3 -22  248.56    9.15   0
   2   3 -19    2.83    5.12   0
   2   3 -16 1760.65   19.44   0
  -2   9   7    6.19    6.78   0
  -1   7  13    0.28    6.14   0
  -1   8   6   84.06    8.39   0
   0   5  13    7.63    6.18   0
   0   6   9    5.83    5.80   0
   0   7   2  221.20    9.34   0
   1   6  -8  613.51   12.13   0
   2   2 -15    1.33    4.32   0
   2   3 -13    2.13    4.95   0
   1   2   5    6.20    4.27   0
   1   4   6  368.93    9.35   0
   1   5   2  323.16    9.03   0
  -3   6  27    5.22    6.54   0
  -2   7  21    3.50    6.95   0
   0   3  15    3.44    4.24   0
   0   8 -23    0.64    6.46   0
   0   8 -20  126.58    8.38   0
   0   8 -17   -5.11    6.98   0
   0   8 -14  114.80    8.09   0
   1   3   7   12.41    4.68   0
   2   2 -12  774.22   13.78   0
   2   3 -10  745.74   12.71   0
  -3   8  22  116.69    8.80   0
  -1   5  21    7.38    5.95   0
   0   8 -11    0.92    6.75   0
  -1   8   9    3.51    7.45   0
   0   7   5    4.73    6.12   0
   0   8  -8  219.29    9.57   0
   2   4 -20  631.41   12.62   0
   2   4 -17    1.43    5.45   0
   2   4 -14  274.80    8.96   0
  -3   7  26  143.21    8.57   0
  -3   9  18  170.86    8.93   0
  -1   4  22  347.41    9.46   0
  -1   7  16  617.58   12.53   0
   0   6  12  336.46    9.34   0
   1   5   5    3.55    5.43   0
   1   6  -2  322.09    9.32   0
   2   2  -9   -1.33    4.35   0
   2   3  -7    4.44    5.16   0
  -2   5  26  621.08   12.31   0
  -2   6  25    0.48    6.29   0
  -1   9  -1    1.13    7.24   0
   0   4  17    3.43    5.66   0
   2   4 -11   -2.88    4.73   0
  -4   9  23    1.36    7.33   0
   0   5  16  650.49   11.56   0
   1   4   9    9.23    5.22   0
   2   4  -8  863.11   13.44   0
  -2   9  13    1.02    7.09   0
  -1   8  12  191.95    9.66   0
   0   7   8  589.49   11.80   0
   0   8  -2   87.43    7.95   0
   1   3  10 1119.66   14.64   0
   1   6   1    3.03    5.85   0
   2   2  -6  801.31   13.46   0
  -2   8  20  171.06    9.47   0
  -1   9   2  101.12    7.55   0
   1   2   8 3301.26   25.30   0
   1   5   8  810.38   13.05   0
   1   7 -21   -5.84    7.19   0
   1   7 -18  116.38    7.80   0
   1   7 -15    4.10    6.43   0
  -3   8  25   -3.67    7.11   0
  -2   7  24  421.18   11.34   0
   0   6  15   -0.69    6.51   0
   1   7 -12  171.88    8.91   0
   2   4  -5   -2.13    4.84   0
  -3   9  21   -1.42    7.42   0
   0   8   1  -15.22    7.51   0
   1   6   4  269.70    9.64   0
   1   7  -9    3.52    7.08   0
   2   5 -18  375.82   10.35   0
  -1   5  24  625.13   12.12   0
  -1   9   5   -1.50    6.62   0
   0   7  11    5.08    7.70   0
   1   7  -6  182.20    8.90   0
   2   5 -21    3.68    5.99   0
   2   5 -12  487.94   11.31   0
  -2   4  27    3.53    5.36   0
  -1   6  23   -4.56    6.77   0
  -1   8  15  -14.67    7.31   0
   0   5  19   -8.48    5.84   0
   1   4  12 1089.25   14.12   0
   2   5  -9    5.84    6.29   0
  -3   7  29    6.19    6.85   0
   0   8   4  187.13    9.61   0
   1   5  11    8.39    6.19   0
  -2   3  25    3.08    4.40   0
  -2   6  28  403.10   10.79   0
  -1   3  23    2.67    4.52   0
  -1   9   8  136.09    8.63   0
   1   6   7    8.50    6.09   0
   2   5  -6  146.37    7.38   0
  -2   8  23   -7.17    7.64   0
  -1   4  25   -4.06    5.12   0
   1   3  13   -0.47    4.81   0
   2   3   2  770.11   12.12   0
   2   4   1   -7.05    5.01   0
  -1   7  22  138.34    8.90   0
   0   8   7    8.42    7.05   0
   1   2  11   12.34    5.22   0
   2   2   0 4054.47   27.49   0
   2   5  -3   -4.04    6.22   0
  -3   8  28  148.68    9.23   0
  -3   9  24  150.57    8.68   0
  -2   5  29    1.35    5.53   0
  -2   7  27    4.98    6.07   0
  -2   9  19   -6.25    7.51   0
  -1   8  18  186.09    9.31   0
  -1   9  11    4.64    7.04   0
   1   4  15    1.58    5.21   0
   1   5  14  395.73   10.44   0
   1   6  10  215.16    8.57   0
   1   7   3    0.63    7.18   0
   2   4   4  854.14   13.20   0
   2   3   5    8.86    5.37   0
   2   6 -16  344.18   10.97   0
  -1   5  27    7.56    5.95   0
  -1   6  26  217.84    8.19   0
   0   8  10  147.68    9.36   0
   2   6 -19    0.41    6.36   0
   2   6 -13    5.04    6.73   0
   2   6 -10  195.59    8.82   0
   0   6  21   -1.69    6.90   0
   1   7   6  106.04    8.31   0
   2   2   3    1.48    4.36   0
   2   5   3   -4.95    6.58   0
   2   6  -7    1.32    6.71   0
  -2   8  26  177.96    9.75   0
   1   3  16 2032.16   18.92   0
   1   6  13   -8.51    6.90   0
   1   8 -10   75.76    7.44   0
   2   4   7   -1.35    6.13   0
  -2   9  22   44.67    7.37   0
  -1   7  25    1.68    7.44   0
   1   8  -7    1.66    6.62   0
   2   6  -4  229.59    9.55   0
  -3   9  27   -0.11    7.18   0
  -2   6  31    4.00    5.75   0
   0   8  13    7.01    6.79   0
   1   4  18  716.32   12.35   0
   1   5  17    2.64    5.70   0
   1   8  -4  156.98    8.93   0
   2   3   8 2149.61   19.56   0
  -2   7  30  166.36    8.98   0
   1   2  14 1635.15   17.79   0
   1   7   9    3.67    7.14   0
   2   5   6  436.90   10.22   0
   2   6  -1   -1.47    5.94   0
  -2   4  30  188.96    8.41   0
  -1   4  28  670.47   12.60   0
   0   2  19   -0.09    4.48   0
   0   7  20  150.71    8.19   0
   2   2   6  814.60   12.98   0
   0   5  25   -0.61    5.52   0
   1   6  16  590.96   11.64   0
   2   4  10  322.43    9.02   0
  -2   5  32  639.66   12.94   0
  -1   3  26  501.85   11.39   0
  -1   6  29    7.55    5.88   0
   0   8  16  158.19    9.04   0
   1   7  12  197.79    9.75   0
   2   5   9   -1.46    6.58   0
  -2   8  29    7.80    7.12   0
  -1   5  30  171.48    8.16   0
  -1   8  24  220.75   10.01   0
   1   3  19   11.82    5.69   0
   2   3  11   -4.59    5.96   0
   3   3 -15    0.18    5.18   0
   3   3 -12  737.12   13.20   0
  -1   7  28  144.93    9.06   0
   0   3  24 1525.00   17.51   0
   0   4  26  705.05   12.54   0
   1   5  20  463.78   10.57   0
   2   6   5    3.68    7.51   0
   2   7 -14  104.82    8.38   0
   2   7 -11   -1.58    6.96   0
   3   3  -9    4.37    4.54   0
   3   4 -13    8.05    5.78   0
   3   4 -10  357.80   10.10   0
   1   4  21    1.58    5.37   0
   2   4  13   -6.35    6.49   0
   2   7  -8  205.59    9.00   0
   3   3  -6  430.31   10.47   0
   3   4 -16  394.58   10.50   0
   3   4  -7    3.63    6.15   0
   1   6  19    6.44    6.41   0
   1   7  15    0.79    7.84   0
   2   2   9   -0.62    4.55   0
   2   5  12  407.69   10.52   0
   2   7  -5   -6.63    6.62   0
  -2   7  33    8.80    7.77   0
   0   8  19    7.03    7.63   0
   2   6   8  414.08   11.36   0
   2   7  -2   81.37    7.90   0
   3   3  -3    8.63    4.82   0
   3   4  -4  629.51   11.74   0
  -2   6  34  147.27    8.42   0
   0   5  28  599.88   12.17   0
   0   6  27    4.54    7.11   0
   1   2  17    7.59    4.45   0
   1   8   8  124.34    8.70   0
   3   2 -14  365.18   10.19   0
   3   2 -11    4.65    4.76   0
   3   2  -8 2202.11   21.35   0
   3   4  -1    9.03    6.24   0
  -1   8  27   -3.24    7.30   0
   2   3  14  369.44    9.26   0
   2   7   1    0.97    6.81   0
   3   2 -17    4.51    4.97   0
   3   5 -14  126.97    8.04   0
   3   5 -11    0.93    6.17   0
   3   5  -8  447.70   11.23   0
  -1   6  32  353.23   10.77   0
   1   5  23    1.53    5.79   0
   2   4  16  705.90   12.43   0
   2   6  11   -2.36    7.31   0
   3   2  -5    4.56    5.11   0
   3   5  -5   -9.57    6.96   0
  -2   8  32  182.99    9.53   0
  -1   4  31    2.66    5.36   0
  -1   7  31   -5.95    6.93   0
   1   3  22  347.85    9.02   0
   1   6  22  145.43    8.72   0
   1   8  11    0.30    7.19   0
   2   1   4 3045.19   25.36   0
   2   5  15    5.88    5.98   0
   0   8  22   54.57    8.23   0
   1   4  24  629.26   11.57   0
   2   2  12  786.07   12.45   0
   3   2  -2  828.98   13.26   0
   3   5  -2  227.25    9.61   0
  -1   5  33    0.11    5.96   0
   0   4  29    4.06    5.88   0
   0   3  27   -4.30    5.07   0
   2   3  17   -2.61    5.70   0
   2   6  14  111.71    8.41   0
   2   7   7    5.30    7.01   0
   3   5   1    1.51    5.77   0
  -1   3  29    4.79    4.95   0
  -1   8  30   49.40    8.73   0
   0   6  30  128.64    8.49   0
   2   5  18  163.21    8.62   0
   3   3   6  448.47    9.91   0
   0   5  31   -4.47    6.29   0
   1   2  20 1424.73   16.85   0
   1   7  21    1.51    7.02   0
   2   4  19   -4.50    5.53   0
   0   7  29    0.96    7.85   0
   1   6  25    6.02    6.16   0
   2   1   7    3.02    5.08   0
   2   7  10  146.87    8.74   0
   3   4   8  529.27   10.88   0
   3   6 -12  124.51    7.94   0
   3   6  -9   -3.56    7.12   0
   2   2  15    4.36    4.59   0
   2   6  17    1.36    7.50   0
   3   2   4  688.60   11.72   0
   3   3   9   14.35    6.20   0
   3   5   7   -0.80    7.38   0
   3   6  -3   -3.18    6.82   0
  -1   6  35    3.67    6.67   0
  -1   7  34  155.12    8.89   0
   3   6   0  313.75   10.31   0
   2   3  20  579.57   11.40   0
   2   5  21   -1.00    7.10   0
   2   7  13   -3.97    7.31   0
   3   4  11   -2.42    6.71   0
   1   7  24  195.87    9.00   0
   3   2   7   11.30    5.68   0
   3   5  10  204.46    9.53   0
   3   6   3    1.54    6.89   0
  -1   4  34  489.12   11.51   0
   0   4  32  434.20   10.78   0
   0   6  33    3.13    7.17   0
   2   6  20  197.78    9.71   0
   3   3  12  713.83   12.31   0
  -1   8  33   -0.68    7.26   0
   1   1  15    2.28    4.12   0
   2   1  10 2107.34   20.61   0
   3   1 -10 1106.58   16.88   0
   3   1  -7   11.59    4.89   0
   0   2  25    0.56    3.92   0
   0   3  30  530.14   11.46   0
   0   5  34  252.82    9.39   0
   0   7  32  228.72    9.73   0
   2   2  18 1068.75   14.10   0
   2   7  16  155.05    8.53   0
   3   1 -13    3.79    4.82   0
   3   1  -4 1285.52   16.95   0
   3   4  14  335.33    9.40   0
   2   5  24  429.01   11.08   0
   3   2  10  718.30   12.24   0
   3   5  13    2.12    6.22   0
   1   4  30  167.50    8.28   0
   2   3  23    8.01    5.87   0
   3   1  -1   19.80    4.53   0
   3   3  15    1.10    6.47   0
  -1   7  37    8.43    6.75   0
   2   4  25    2.83    5.82   0
   2   6  23   -1.18    7.35   0
  -1   3  32 1118.78   16.62   0
  -1   6  38  112.10    8.26   0
   2   7  19    0.03    6.73   0
   3   4  17   -0.19    6.10   0
   3   5  16  392.84   11.09   0
   4   3  -8  529.45   11.58   0
   4   3  -5    2.69    6.13   0
   4   4  -9   -4.10    6.50   0
   4   4  -6  191.34    8.82   0
   1   5  32  358.19   10.59   0
   1   6  31    0.79    7.62   0
   2   1  13   18.58    5.22   0
   3   2  13    3.08    5.82   0
   3   6  12  139.72    8.53   0
   4   3 -11    2.96    5.77   0
   4   3  -2  236.45    8.92   0
   4   4  -3    3.87    6.62   0
   0   6  36  145.60    8.53   0
   2   2  21   -8.87    5.76   0
   4   3   1    5.93    6.32   0
   4   4   0  507.14   11.85   0
   0   4  35    1.23    5.81   0
   0   7  35    1.88    7.09   0
   2   5  27    9.12    6.11   0
   3   1   5    2.09    5.21   0
   3   3  18  417.56    9.85   0
   4   4   3    4.29    7.17   0
   1   7  30   32.78    7.20   0
   2   3  26  595.92   11.98   0
   2   6  26  178.84    9.31   0
   2   7  22   50.95    8.40   0
   3   4  20  406.21   10.88   0
   3   5  19   -8.92    7.30   0
   3   6  15   11.18    7.50   0
   4   3   4  631.44   12.13   0
   4   5  -7    7.23    6.69   0
   4   5  -4  126.98    8.62   0
   0   5  37   -1.42    6.81   0
   1   2  26  490.32   10.74   0
   1   4  33    8.30    6.54   0
   2   4  28  417.05   10.14   0
   4   2 -10  334.38   10.23   0
   4   2  -7    0.05    5.32   0
   4   2  -4  878.33   14.00   0
   4   4   6  187.31    9.12   0
   4   5  -1   -0.74    6.67   0
  -1   4  37   -3.75    5.43   0
   3   2  16 1716.27   17.39   0
   4   2  -1    2.18    5.79   0
   4   5   2  151.51    8.56   0
   0   2  28 1054.28   15.74   0
   0   3  33    0.96    5.50   0
   1   3  31    6.62    5.03   0
   1   6  34  147.30    8.77   0
   3   1   8 2664.97   21.99   0
   3   6  18  157.99    8.92   0
   4   2 -13    0.75    4.97   0
   4   2   2  587.07   11.67   0
   1   5  35   -7.66    6.85   0
   2   1  16 2044.34   19.63   0
   2   5  30  161.47    9.27   0
   3   3  21   -2.26    5.85   0
   3   5  22  123.03    8.73   0
   4   5   5   -2.70    7.29   0
   2   2  24 1822.35   18.07   0
   2   6  29    9.04    7.13   0
   3   4  23    6.66    6.27   0
   4   3  10  391.05   10.49   0
   0   6  39   -4.31    6.67   0
   0   7  38   39.64    8.30   0
   1   7  33    6.11    7.85   0
   4   4  12  240.21    9.58   0
   4   5   8  356.44   10.84   0
   3   1  11   21.97    4.95   0
   3   2  19    5.80    5.39   0
   3   6  21   11.50    7.61   0
   4   3  13    9.45    5.97   0
   4   6   1   -5.06    6.46   0
   0   4  38  107.59    7.72   0
   1   4  36  437.57   11.29   0
   3   3  24  583.01   11.48   0
   3   5  25   -5.14    7.77   0
   4   4  15    3.41    7.15   0
   0   5  40  187.23    9.19   0
   1   2  29    1.43    5.26   0
   1   6  37    9.24    7.19   0
   2   1  19   -2.45    4.54   0
   3   4  26  139.20    8.35   0
   4   2  11   -1.16    6.25   0
   1   3  34  499.29   11.29   0
   3   1  14  701.76   12.23   0
   3   6  24  166.33    8.97   0
   4   3  16  404.30   10.55   0
   4   5  14   76.96    8.57   0
   1   5  38  117.71    7.74   0
   2   2  27   -2.40    5.04   0
   3   2  22  284.28    8.69   0
   4   1  -3    1.53    5.08   0
   0   3  36  525.00   11.86   0
   2   4  34  165.38    8.84   0
   4   1  -6  361.95    9.94   0
   4   1   0 1471.17   17.34   0
   4   4  18  184.69    8.39   0
   0   2  31    3.06    4.72   0
   0   6  42  120.49    9.14   0
   3   3  27   -8.99    5.85   0
   3   5  28  144.58    8.38   0
   4   1  -9   11.22    5.20   0
   4   1   3   11.24    5.72   0
   4   2  14  274.27    8.66   0
   4   5  17    5.72    7.80   0
   4   3  19   -5.99    6.08   0
   2   1  22  471.94   10.62   0
   3   1  17    6.03    4.85   0
   3   6  27   -0.46    6.59   0
   4   4  21   12.45    7.41   0
   1   4  39    4.92    6.85   0
   1   6  40  181.56    9.55   0
   2   6  35    6.46    7.59   0
   3   2  25    6.44    6.38   0
   4   1 -12 1057.99   16.53   0
   4   2  17   -2.82    6.56   0
   4   5  20  122.99    8.57   0
   0   4  41    0.54    6.76   0
   1   1  24 1699.30   18.86   0
   4   1   9   -6.35    5.83   0
   5   3  -7    5.00    6.79   0
   5   3  -4  241.30    9.61   0
   5   3  -1    3.09    6.50   0
   5   3   2  221.02    9.15   0
   5   4  -5    6.90    7.33   0
   5   4  -2  166.72    8.53   0
   5   4   1   -1.27    7.27   0
   0   5  43   -3.66    6.33   0
   1   2  32 1087.73   15.00   0
   1   3  37   -3.55    6.09   0
   1   5  41    0.55    7.08   0
   3   3  30  186.92    8.79   0
   3   5  31   -2.42    7.04   0
   4   3  22  154.75    8.04   0
   5   3   5   -1.18    6.93   0
   5   4   4  122.91    8.48   0
   2   3  35    8.76    6.62   0
   2   4  37   -5.07    7.08   0
   3   4  32  254.55    9.89   0
   4   4  24  323.88   10.58   0
   5   4   7   16.15    7.74   0
   4   1  12  897.88   13.59   0
   4   2  20  622.30   11.57   0
   4   5  23   -5.21    6.89   0
   5   2  -3   -1.58    5.97   0
   5   2   0  606.52   12.36   0
   5   3   8  445.74   10.66   0
   3   0   3    0.16    4.20   0
   3   2  28  406.39   10.51   0
   5   2  -6  439.49   10.98   0
   5   2   3    5.25    6.44   0
   5   4  10  134.24    8.37   0
   5   5   0  167.82    9.49   0
   0   3  39   -2.07    6.22   0
   2   0  11    0.47    4.33   0
   2   1  25    4.13    5.59   0
   2   5  39   -5.63    6.98   0
   4   3  25    5.28    6.45   0
   5   5   3    0.38    6.38   0
   3   0   6  521.46   10.99   0
   3   5  34  103.45    8.44   0
   4   1  15    8.81    6.19   0
   4   4  27    1.87    7.50   0
   5   2  -9   -0.28    5.70   0
   5   4  13   -4.82    7.13   0
   5   5   6   77.48    7.52   0
   0   2  34  279.57    9.24   0
   1   6  43   -0.56    6.64   0
   3   1  23    8.27    6.13   0
   3   3  33    6.62    7.14   0
   4   2  23    2.83    5.91   0
   4   5  26  140.29    8.38   0
   5   2   9   -0.19    5.65   0
   1   1  27    0.25    4.97   0
   1   4  42  191.38    9.17   0
   2   2  33   -3.25    5.14   0
   3   0   9    2.38    5.19   0
   1   2  35   -0.23    5.68   0
   1   5  44  140.26    9.62   0
   2   4  40  230.74    9.62   0
   5   3  17    1.68    7.74   0
   2   0  14  342.31    9.43   0
   2   3  38   83.16    6.92   0
   3   2  31    1.54    6.40   0
   4   1  18  371.08    9.49   0
   3   0  12 2603.95   22.49   0
   4   2  26  359.23   10.25   0
   4   4  30   83.62    8.64   0
   4   5  29    7.13    7.17   0
   5   2  15   -9.38    7.17   0
   5   4  19    5.95    7.45   0
   2   5  42   80.14    8.06   0
   5   1   1    6.20    6.01   0
   5   1   4  746.40   13.02   0
   5   3  20  211.30    9.73   0
   3   1  26  645.51   11.61   0
   4   1  21    6.08    6.60   0
   5   1  -5   -0.07    5.62   0
   5   1   7    1.34    6.25   0
   3   4  38  124.24    8.32   0
   4   0   1    1.34    5.08   0
   4   3  31   -2.00    7.87   0
   5   2  18  364.47    9.94   0
   5   4  22   91.14    8.57   0
   2   0  17    1.95    4.50   0
   2   2  36  358.46    9.64   0
   3   0  15   -0.56    4.74   0
   4   0  -2 1407.83   17.75   0
   5   1  -8  798.12   14.41   0
   1   4  45    8.04    7.03   0
   2   4  43   -4.09    7.23   0
   4   0  -5    0.32    4.73   0
   4   0   7   -0.16    4.67   0
   4   2  29    1.65    6.15   0
   4   4  33   11.84    6.94   0
   5   3  23    5.95    6.79   0
   1   1  30  579.62   11.85   0
   2   3  41    4.57    6.77   0
   5   1  13   10.07    5.73   0
   5   2  21   -4.62    6.13   0
   0   2  37   -0.38    5.56   0
   1   2  38  320.13    9.83   0
   3   1  29    5.54    5.83   0
   4   0  10  394.14    9.54   0
   4   1  24  869.55   13.34   0
   5   4  25    2.67    7.38   0
   1   3  43   -1.71    6.20   0
   2   1  31   -0.47    4.93   0
   2   5  45   -5.80    7.30   0
   3   0  18 1319.76   15.85   0
   3   3  39    5.13    7.28   0
   4   3  34  164.02    9.59   0
   5   1  16  638.07   12.29   0
   5   3  26  161.99    9.18   0
   2   0  20 3567.56   26.92   0
   3   4  41    8.52    7.55   0
   4   0  -8 1481.86   19.38   0
   4   0  13   -4.12    4.98   0
   5   2  24  307.18   10.07   0
   6   3   0  282.14    9.88   0
   6   3   3    8.10    7.21   0
   6   3   6  158.81    8.49   0
   4   4  36  110.73    8.19   0
   6   3   9   -2.71    6.84   0
   0   1  29    0.15    4.40   0
   2   2  39   -2.65    6.17   0
   3   2  37   -1.14    6.45   0
   4   1  27    3.78    5.84   0
   5   1  19   -2.46    6.01   0
   5   4  28   76.85    7.62   0
   6   2   1    7.16    6.65   0
   6   2   4  226.99    9.63   0
   6   2   7    3.38    7.11   0
   6   3  12  144.49    8.64   0
   3   0  21   -2.57    5.66   0
   4   0  16 1436.57   16.27   0
   5   3  29   -4.10    7.49   0
   6   2  -2  211.19    9.19   0
   6   2  10  178.17    9.11   0
   2   4  46   92.01    7.87   0
   4   3  37    7.99    7.30   0
   5   2  27    6.95    7.76   0
   6   3  15   -5.80    7.22   0
   1   1  33    1.12    5.25   0
   2   3  44  211.69    9.70   0
   4   0 -11   -0.52    4.64   0
   5   1  22  208.69    9.25   0
   6   2  13    1.69    6.00   0
   2   0  23    0.33    4.44   0
   2   1  34  554.29   11.26   0
   3   3  42  147.00    8.69   0
   3   4  44  120.03    8.97   0
   4   0  19   -4.31    5.29   0
   4   1  30  268.26    9.80   0
   4   2  35    4.93    6.10   0
   5   0   2  339.65    9.60   0
   5   0   5   -2.17    5.76   0
   1   2  41    3.48    5.73   0
   5   0  -1    2.36    5.56   0
   5   3  32  183.64    9.38   0
   1   3  46   73.60    7.73   0
   3   0  24 1042.72   14.34   0
   5   0  11   -0.62    5.35   0
   5   1  25   -0.99    6.93   0
   5   2  30   75.21    8.73   0
   6   1   2  335.00   10.12   0
   6   1   5    1.31    6.70   0
   6   1   8  624.46   12.78   0
   3   2  40  410.22   10.46   0
   4   0  22  715.20   12.52   0
   5   0  -4 1132.53   16.20   0
   6   1  -1    3.74    5.85   0
   6   1  11   -4.20    7.00   0
   5   0  14  620.02   11.54   0
   4   1  33    6.32    6.70   0
   6   1  -4  264.48    9.40   0
   6   2  22   94.15    8.51   0
   6   3  24  181.03    9.05   0
   2   4  49   -2.53    6.56   0
   3   0  27    4.28    6.01   0
   3   3  45    3.98    7.64   0
   5   0  -7   -0.96    4.93   0
   5   0  17   -1.70    5.68   0
   5   1  28  397.62   11.00   0
   5   2  33   -5.95    7.51   0
   5   3  35    8.04    7.86   0
   4   0  25   -0.76    5.40   0
   3  -3  24 1558.90   18.92   0
   5  -2  31    8.54    8.06   0
   7  -8  18  184.18    9.92   0
   8  -5  31    5.27    8.43   0
   3   0  24 1022.29   16.59   0
   5  -6  23   -2.39    6.30   0
   5  -4  30  166.96    8.89   0
   2  -1  21   10.54    5.54   0
   3  -2  26  537.51   12.43   0
   5  -5  28  608.17   13.52   0
   5  -1  30  284.01   10.51   0
   6  -7  22  144.34    9.77   0
   6  -3  33    1.39    8.59   0
   8  -7  27   -4.19    8.66   0
   4  -2  30  203.17    9.79   0
   5  -3  32  677.96   13.55   0
   6   0  27   -7.09    8.50   0
   7  -1  29   -1.18    8.55   0
   8  -8  22   68.48    8.65   0
   8  -4  33    2.93    8.52   0
   8  -3  32  191.46   11.46   0
   3  -5  17    0.47    6.03   0
   4  -5  24  617.18   12.72   0
   7  -7  26  198.82   10.24   0
   5  -7  18  165.45    9.22   0
   6  -5  32  361.34   12.16   0
   6  -1  31    6.96    7.39   0
   7  -5  33   11.42    8.17   0
   4  -6  19   -4.63    6.72   0
   6  -4  34  144.26   10.46   0
   7  -8  21   -1.21    8.16   0
   7  -6  31   10.07    8.18   0
   7  -2  33    4.45    9.00   0
   8  -6  32  167.47   10.64   0
   8  -2  31    5.12    9.06   0
   4  -4  29   -0.35    7.42   0
   4   0  28  625.38   13.92   0
   7  -4  35   12.90    8.16   0
   8  -5  34   96.58   10.45   0
   2  -4  15    1.69    5.61   0
   2  -2  22 1909.78   20.65   0
   4  -3  31    6.04    6.66   0
   5  -6  26  218.65   10.25   0
   5   0  29   -4.85    7.60   0
   6  -7  25    9.55    8.08   0
   2  -3  20 1365.40   17.85   0
   3  -3  27   -3.95    6.91   0
   5  -4  33    3.58    7.12   0
   8  -8  25    2.53    7.58   0
   2   1  19    0.34    5.55   0
   3   1  23    7.64    6.67   0
   5  -5  31    2.84    8.08   0
   6  -3  36  285.30   11.69   0
   6  -2  35    7.63    7.29   0
   7  -7  29   -2.07    8.27   0
   8  -3  35   -2.71    9.13   0
   3  -2  29    1.87    6.60   0
   4  -5  27    2.56    7.14   0
   5  -7  21   -4.69    7.92   0
   5  -3  35    1.22    8.40   0
   5  -1  33    3.24    6.68   0
   7  -1  32  261.00   11.25   0
   8  -4  36  109.36    9.39   0
   2  -1  24 1895.39   21.01   0
   3  -5  20  573.36   12.88   0
   3   0  27    1.87    5.38   0
   4  -2  33   -8.47    7.52   0
   7  -5  36  141.69   10.79   0
   4  -6  22  350.81   11.03   0
   6  -5  35    7.68    7.43   0
   6  -1  34  228.68   10.96   0
   7  -8  24  174.60   10.32   0
   7  -6  34  138.12    9.95   0
   8  -6  35    7.76    8.63   0
   6  -4  37   -1.07    7.56   0
   7  -4  38  134.12   10.49   0
   7  -2  36  256.36   12.01   0
   8  -5  37   -4.83    8.82   0
   8  -2  34  108.25   10.10   0
   4  -4  32  441.64   12.17   0
   5  -6  29    9.85    7.43   0
   6  -7  28  149.78    9.68   0
   4  -3  34  478.48   11.70   0
   4   0  31    1.26    6.99   0
   5  -4  36  457.50   12.36   0
   2  -4  18 1038.04   16.04   0
   2  -2  25    3.54    5.39   0
   3  -3  30  518.56   12.43   0
   5  -5  34  253.04   10.43   0
   5   0  32  472.47   12.96   0
   7  -7  32  246.14   10.71   0
   2  -3  23    1.17    5.25   0
   3  -1  31    3.12    6.95   0
   4   1  27    2.99    6.38   0
   5  -7  24  417.19   12.09   0
   6  -3  39    3.15    9.10   0
   6  -2  38   84.67   10.15   0
   8  -3  38   49.16    8.74   0
   3  -5  23   -4.10    6.54   0
   5  -3  38   88.48    9.68   0
   7  -8  27   -0.05    7.46   0
   7  -5  39   -5.52    8.56   0
   7  -1  35   -1.56    9.42   0
   3  -6  15    0.53    6.22   0
   3  -2  32 1191.50   16.49   0
   4  -6  25   -4.99    6.87   0
   4  -2  36  359.93   11.66   0
   6  -5  38  118.86    9.96   0
   7  -6  37   15.00    7.94   0
   7  -3  40  124.81   10.30   0
   2  -1  27   -0.96    6.41   0
   2   1  22  445.02   12.01   0
   3   0  30  297.25   10.48   0
   3   1  26  639.88   13.91   0
   4  -1  35    7.63    6.42   0
   6  -4  40  230.77   11.32   0
   6  -1  37    4.32    8.80   0
   8  -5  40  131.59    9.75   0
   8  -2  37   -6.00    9.31   0
   5  -6  32  360.15   11.79   0
   6  -7  31    4.27    7.79   0
   7  -4  41    4.58    8.21   0
   7  -2  39    3.94    8.83   0
   4  -4  35    1.42    6.61   0
   1  -2  18 1170.53   17.36   0
   2  -4  21   -1.49    5.83   0
   4  -3  37   -8.38    6.80   0
   5  -4  39  -10.14    7.36   0
   7  -7  35    4.42    8.71   0
   1  -1  20 1569.97   19.82   0
   1   0  19   -2.13    4.66   0
   2  -5  13   -0.68    5.71   0
   2  -2  28 1084.34   15.56   0
   3  -3  33   -1.41    6.67   0
   4   0  34  236.30   10.26   0
   5  -7  27    3.61    7.35   0
   5  -5  37    6.15    7.07   0
   7  -8  30   44.04    8.44   0
   2  -3  26  490.46   11.28   0
   3  -5  26  580.25   13.02   0
   5   0  35   -2.05    7.62   0
   6  -2  41   -0.39    9.15   0
   7  -5  42   92.68    9.50   0
   3  -6  18  387.86   11.35   0
   3  -4  31    5.45    6.10   0
   3  -1  34  555.11   12.22   0
   4  -6  28  409.05   11.76   0
   4   1  30  288.75   10.72   0
   5  -3  41    2.19    7.40   0
   5  -1  39   -8.75    8.27   0
   6  -5  41   -8.84    8.46   0
   7  -6  40  188.78    9.94   0
   3  -2  35   -0.08    6.37   0
   4  -2  39   -3.84    7.58   0
   6  -7  34  135.03   10.27   0
   7  -3  43    6.95    8.98   0
   4  -1  38  151.38    9.59   0
   5  -6  35    4.52    8.28   0
   6  -4  43   -5.88    8.01   0
   7  -4  44  120.93   10.19   0
   2  -1  30  592.55   12.19   0
   3   0  33    0.09    6.54   0
   3   1  29    6.15    6.05   0
   4  -4  38  114.41    9.02   0
   6  -1  40  194.46   10.98   0
   7  -7  38   25.69    8.97   0
   7  -2  42  141.28   11.05   0
   1  -3  16 1936.05   22.45   0
   2  -4  24 1802.16   20.40   0
   2   1  25    9.35    5.63   0
   4  -3  40  435.16   12.14   0
   5  -7  30  167.00    9.74   0
   5  -4  42  203.69   10.67   0
   1  -2  21   14.55    5.93   0
   5  -5  40  192.54    9.34   0
   7  -8  33   -1.10    7.73   0
   2  -3  29    3.23    5.67   0
   2  -2  31   -0.80    5.82   0
   3  -6  21    4.84    6.65   0
   3  -5  29    4.14    6.48   0
   3  -3  36  509.15   11.74   0
   4  -6  31    5.66    7.35   0
   6  -3  45   -0.78    8.60   0
   7  -5  45    5.28    9.08   0
   1  -1  23    0.28    5.05   0
   1   0  22  464.95   11.33   0
   4   0  37   -0.74    7.26   0
   5  -3  44  215.55   10.82   0
   5   0  38  192.59   10.22   0
   6  -5  44  126.40    9.85   0
   6  -2  44  204.28   10.77   0
   7  -6  43    5.08    7.54   0
   3  -2  38  313.95   11.08   0
   3  -1  37   -2.02    6.16   0
   5  -1  42  175.92   10.71   0
   6  -7  37    3.04    7.63   0
   7  -3  46   46.64    9.48   0
   4  -2  42  374.65   12.11   0
   4   1  33    0.55    6.52   0
   5  -6  38  112.53    8.19   0
   6  -4  46   84.64   10.12   0
   7  -4  47    5.49    8.97   0
   2  -1  33    4.89    6.70   0
   4  -4  41   -3.97    7.76   0
   4  -1  41   12.77    6.71   0
   1  -3  19    0.55    4.58   0
   2  -5  19    7.56    5.70   0
   2  -4  27   -3.34    6.35   0
   3   0  36  814.71   14.95   0
   5  -7  33   -0.95    7.98   0
   5  -4  45    0.38    8.49   0
   6  -1  43   12.72    8.33   0
   7  -2  45    4.90    9.01   0
   1  -2  24 1851.99   20.50   0
   2   1  28 1325.45   18.46   0
   3  -6  24  567.25   12.99   0
   3   1  32  862.61   15.48   0
   4  -3  43    3.63    7.07   0
   5  -5  43   11.35    7.08   0
   2  -3  32 1104.13   15.76   0
   2  -2  34  267.37    9.20   0
   3  -5  32  653.64   12.98   0
   3  -3  39    2.21    6.58   0
   4  -6  34  153.69    9.54   0
   1  -1  26 1214.23   16.49   0
   1   0  25   -3.51    5.78   0
   2   2  21   -0.98    4.92   0
   3  -4  37    1.20    6.33   0
   5  -3  47    2.59    8.96   0
   6  -5  47   -1.14    8.70   0
   6  -2  47   -3.81    8.91   0
   1   1  21   14.48    4.62   0
   4   0  40  438.33   12.49   0
   5  -6  41   -0.17    7.80   0
   5   0  41    6.10    7.92   0
   6  -7  40  190.61   10.40   0
   2  -5  22  283.76    9.92   0
   3  -2  41   -5.67    6.85   0
   4  -2  45   -6.44    8.01   0
   5  -1  45   -0.87    8.57   0
   6  -4  49  -12.75    8.92   0
   1  -3  22  424.95   10.65   0
   2  -4  30  189.43    8.96   0
   4  -4  44  372.27   11.80   0
   4  -1  44  279.55   11.18   0
   5  -7  36  145.50    9.35   0
   2  -1  36  910.02   14.64   0
   3  -6  27    2.40    6.60   0
   5  -5  46   92.30    9.43   0
   5  -4  48  133.50   10.38   0
   1  -2  27   -0.70    5.09   0
   2  -3  35   -4.36    6.59   0
   3  -5  35    3.54    7.29   0
   3   0  39    7.71    6.08   0
   4  -7  29    1.17    6.59   0
   4  -6  37   -3.25    7.49   0
   4  -3  46   73.12    8.32   0
   6  -1  46   62.49    9.16   0
   1  -1  29   -8.26    6.28   0
   2  -2  37   -3.45    6.26   0
   2   1  31    2.02    5.98   0
   3  -4  40  452.50   12.21   0
   3  -3  42  248.51    9.59   0
   3   1  35    2.65    6.34   0
   5  -2  49    3.73    8.59   0
   6  -7  43    6.85    7.34   0
   1   1  24 1690.41   20.66   0
   2  -5  25    2.13    6.19   0
   2   2  24 1715.42   22.86   0
   5  -6  44  147.53    9.96   0
   5  -3  50  159.81    9.68   0
   6  -2  50  106.10    9.74   0
   2  -4  33   -0.25    6.39   0
   3  -6  30  174.44    9.13   0
   3  -2  44  314.01   10.49   0
   4   0  43    2.37    7.73   0
   5  -7  39   -2.86    7.24   0
   5   0  44  180.16   10.33   0
   6  -4  52  102.58    9.55   0
   1  -4  17    2.97    5.41   0
   2  -1  39   -6.88    7.12   0
   4  -4  47   -5.36    8.65   0
   4  -2  48  279.51   10.59   0
   5  -1  48  196.90   10.55   0
   1  -2  30  598.71   12.04   0
   3  -5  38   92.92    8.74   0
   4  -6  40  231.32   10.20   0
   4  -1  47    7.09    8.67   0
   5  -5  49   -2.06    8.19   0
   5  -4  51   -1.86    8.81   0
   2  -3  38  307.35    9.80   0
   2  -2  40  807.31   14.37   0
   3  -3  45    0.49    7.73   0
   3   0  42  303.28   10.90   0
   4  -3  49    3.39    7.29   0
   1  -1  32 1736.14   19.10   0
   2  -5  28  387.54   11.21   0
   2   0  38  253.20    9.08   0
   2   1  34  559.38   12.80   0
   3  -4  43    0.98    6.93   0
   3   1  38  158.45    9.58   0
   6  -1  49   -3.48    8.53   0
   1  -4  20  872.56   15.44   0
   1   0  31    5.18    5.29   0
   1   1  27    1.23    5.35   0
   5  -6  47   -9.90    8.23   0
   5  -2  52  131.33   10.71   0
   3  -6  33    2.89    7.01   0
   3  -2  47   -1.95    8.13   0
   5  -7  42   76.91    8.37   0
   5  -3  53    0.56    8.38   0
   1  -2  33    0.18    6.33   0
   2   2  27   -1.27    5.29   0
   4  -7  35    1.66    7.21   0
   4   0  46  132.81    9.58   0
   6  -2  53   -2.21    8.82   0
   2  -1  42  312.61   10.84   0
   3  -5  41    4.97    8.04   0
   4  -6  43   -1.60    7.99   0
   4  -2  51    0.70    7.17   0
   5  -1  51    6.64    9.71   0
   1  -4  23    4.48    5.81   0
   2  -5  31    8.84    6.42   0
   2  -3  41   -1.03    6.55   0
   4  -3  52  184.42   10.98   0
   4  -1  50  157.61   10.22   0
   5  -5  52  162.87    9.88   0
   5  -4  54   45.15    9.18   0
   0  -1  19    1.18    4.77   0
   1  -1  35    2.65    5.80   0
   2  -2  43   -6.80    6.57   0
   2   0  41   10.90    7.13   0
   3  -4  46   67.97    9.04   0
   3  -3  48  328.80   10.62   0
   3   0  45    1.80    7.28   0
   1   0  34  954.34   14.68   0
   1   1  30  574.05   12.47   0
   2   1  37    2.05    6.46   0
   3  -6  36  296.78   10.75   0
   3   1  41    7.90    6.70   0
   5  -7  45   -3.77    7.77   0
   5  -6  50   68.59    8.50   0
   0  -1  22  476.54   11.63   0
   0   0  21   -0.97    5.49   0
   1  -4  26  614.80   12.94   0
   1  -2  36  876.20   14.12   0
   2   2  30  190.65    9.09   0
   3  -2  50  161.53   10.22   0
   4  -7  38  119.11    8.81   0
   5  -3  56   90.07    9.36   0
   5  -2  55   -2.98    8.88   0
   2  -5  34  409.38   11.60   0
   2  -1  45    1.84    7.78   0
   3  -5  44  235.55   10.55   0
   4  -6  46  101.97    9.39   0
   4  -4  53  -12.53    8.34   0
   2  -3  44  305.54   10.27   0
   4   0  49   -0.48    7.98   0
   1   0  37   -4.15    6.30   0
   2  -2  46  256.48    9.86   0
   3  -6  39   -0.58    7.53   0
   3  -4  49    6.61    8.14   0
   3  -3  51   -7.42    8.42   0
   4  -3  55  -13.28    8.28   0
   4  -1  53   -1.32    8.23   0
   5  -5  55   -6.80    8.60   0
   5  -4  57   -8.31    8.33   0
   5  -1  54   57.62    8.68   0
   0  -1  25   -1.21    5.06   0
   1  -4  29   -2.20    6.18   0
   1   1  33   -2.33    5.90   0
   1   2  23    0.44    4.68   0
   2   0  44  648.83   13.12   0
   3   0  48  202.80   10.40   0
   1  -2  39   -1.96    7.04   0
   2   1  40  454.96   11.30   0
   4  -7  41    2.17    8.17   0
   0  -2  23   -2.07    5.93   0
   2  -5  37   10.61    7.02   0
   3   1  44  266.60   10.38   0
   1  -3  37   -1.91    5.98   0
   2  -3  47   -0.94    7.61   0
   2   2  33    3.46    5.53   0
   3  -5  47   11.04    6.71   0
   3  -2  53    4.48    7.22   0
   4  -6  49   -5.15    8.18   0
   0   0  27    1.51    5.13   0
   1  -1  41    2.87    6.11   0
   2  -1  48  316.61   10.46   0
   4  -4  56   68.87    9.23   0
   0  -2  26 1229.28   16.76   0
   1  -4  32  827.66   14.02   0
   1   0  40  717.77   13.07   0
   1   1  36  898.88   15.02   0
   1   2  26  502.77   12.38   0
   2  -2  49    5.47    6.89   0
   3  -6  42  149.90    9.38   0
   3  -4  52  185.04   10.16   0
   4   0  52  148.32    9.82   0
   1  -2  42  324.65   10.53   0
   2   0  47   -1.81    7.55   0
   3  -3  54   69.52    8.42   0
   4  -3  58   89.72    9.15   0
   4  -1  56  124.83    9.93   0
   2  -5  40  437.92   11.99   0
   2   1  43    0.08    6.93   0
   3   0  51   -1.47    7.96   0
   4  -7  44  107.80    8.36   0
   5  -1  57   -7.89    8.43   0
   0  -1  31    5.44    5.41   0
   1  -3  40  437.49   11.04   0
   3  -5  50  141.33    9.94   0
   0  -2  29   -0.66    5.11   0
   1  -4  35    7.80    6.72   0
   1   2  29    3.14    5.32   0
   2  -3  50  151.95    9.76   0
   2   2  36  361.41   11.05   0
   3  -1  55    5.68    8.68   0
   3   1  47   -1.35    7.31   0
   0  -3  15    0.20    4.87   0
   0  -3  18 1312.11   18.72   0
   1  -5  21    3.73    5.63   0
   1   0  43    5.04    6.75   0
   2  -1  51    8.03    6.93   0
   3  -6  45   -6.99    7.61   0
   4  -6  52  111.12    9.29   0
   4  -4  59    6.68    8.77   0
   0  -3  21    1.73    5.29   0
   1  -2  45   -2.91    7.67   0
   1   1  39    2.65    5.46   0
   2  -2  52  191.66    9.42   0
   3  -4  55    7.45    8.57   0
   0  -2  32  641.59   12.62   0
   0  -1  34  929.00   14.23   0
   0   0  33   -4.97    5.50   0
   1  -5  24  852.95   15.57   0
   1  -3  43   -0.61    7.48   0
   2  -5  43   -2.12    7.41   0
   2   0  50  209.90    9.80   0
   3  -3  57    8.44    8.67   0
   4   0  55    0.34    7.44   0
   0  -3  24 1067.05   16.25   0
   1  -4  38  155.44    9.11   0
   2   1  46  115.65    8.77   0
   3   0  54   72.62    9.33   0
   4  -7  47   -1.71    7.24   0
   4  -3  61   -0.55    8.07   0
   4  -1  59   -0.69    8.49   0
   1  -5  27    2.98    6.57   0
   1  -1  47    0.40    7.36   0
   1   2  32 1131.90   17.16   0
   2  -6  35   -1.81    7.40   0
   2   2  39    0.93    6.83   0
   3  -5  53   -1.04    8.06   0
   0  -3  27    0.33    5.88   0
   2  -3  53    5.23    7.06   0
   3   1  50  169.90   10.58   0
   0  -2  35    4.37    5.57   0
   0  -1  37    0.16    5.74   0
   0   0  36  597.36   11.99   0
   1   1  42  317.81   10.70   0
   2  -1  54   94.97    8.25   0
   3  -6  48  126.00    9.37   0
   3  -2  59    3.82    7.84   0
   3  -1  58  102.90    9.33   0
   1  -5  30  286.93   10.03   0
   1  -4  41    1.72    7.29   0
   1  -3  46  128.46    8.81   0
   1  -2  48  327.59   10.53   0
   2  -5  46   50.95    8.57   0
   2  -2  55   -1.17    7.56   0
   3  -4  58  100.05    9.65   0
   0  -3  30  297.90    9.94   0
   1   2  35    0.14    5.76   0
   2   0  53   -7.52    7.85   0
   3  -3  60   98.21    9.53   0
   2  -6  38   79.23    8.10   0
   2   1  49   -1.50    7.15   0
   4   0  58   56.11    9.50   0
   0  -2  38  227.57    8.79   0
   0  -1  40  726.51   12.99   0
   0   0  39   -0.53    5.85   0
   1  -5  33    2.20    6.47   0
   1  -1  50  266.73    9.99   0
   2  -3  56  176.59   10.37   0
   3  -5  56   78.87    8.74   0
   3   0  57    8.09    7.59   0
   0  -3  33    6.72    5.55   0
   1   1  45  -12.67    7.01   0
   3  -6  51   -0.63    7.22   0
   1  -3  49   -1.68    7.73   0
   1  -2  51   -6.41    7.16   0
   2  -5  49   -7.59    7.88   0
   2  -2  58   87.87    9.64   0
   2  -1  57   15.12    7.69   0
   3  -2  62   47.02    8.69   0
   3   1  53    1.71    7.50   0
   0  -2  41   -0.97    7.18   0
   1  -5  36  309.84   11.05   0
   1   2  38  305.84   10.27   0
   2  -6  41    5.68    7.12   0
   3  -1  61    0.82    8.80   0
   0  -3  36  752.79   13.41   0
   0  -1  43   -2.12    6.32   0
   0   0  42  739.51   13.17   0
   2   0  56   99.87    9.47   0
   3  -4  61   10.87    8.60   0
   0   2  25    3.66    4.94   0
   1  -1  53    7.20    6.94   0
   2   1  52  255.02   10.57   0
   3  -3  63   -6.79    7.37   0
   1  -4  47   -3.15    7.45   0
   1   1  48  308.06   10.80   0
   0  -3  39   -6.02    6.59   0
   0  -2  44  672.64   13.46   0
   0   2  28 1053.01   16.51   0
   1  -5  39    3.43    6.73   0
   1  -2  54   96.34    8.63   0
   1   2  41    2.52    6.24   0
   2  -6  44  210.68    9.77   0
   2  -5  52  121.54    9.00   0
   3   0  60  133.98    9.38   0
   0  -4  22  656.96   13.81   0
   0  -4  25   -3.18    5.72   0
   0  -1  46  117.20    8.81   0
   0   0  45   -4.14    7.03   0
   2  -2  61   -8.88    8.49   0
   0  -4  19   -2.25    5.40   0
   0  -4  28  600.99   13.02   0
   0   2  31    2.09    5.51   0
   3  -1  64   54.37    9.28   0
   1  -1  56  194.03   10.50   0
   2   0  59   12.01    8.31   0
  -1  -1  21   11.10    5.76   0
  -1  -1  24 1766.23   19.51   0
  -1  -1  27    0.36    5.93   0
  -1   0  20 1538.73   18.90   0
  -1   0  23   -1.50    4.94   0
  -1   0  26 1178.20   16.02   0
   0  -4  31   -4.62    6.20   0
   0  -2  47    2.21    7.37   0
   1  -5  42  157.37    9.17   0
   1  -4  50  144.86    8.57   0
   1   1  51    4.38    7.69   0
   2   1  55   -3.97    7.21   0
  -1   0  29   -3.58    5.23   0
   0  -1  49    3.07    7.46   0
   0   0  48  440.50   12.16   0
   0   2  34  271.85    9.55   0
   1  -3  55   -2.14    8.32   0
   1  -2  57    2.88    8.38   0
   1   2  44  301.47   10.43   0
   2  -6  47    1.29    7.46   0
   2  -5  55   -4.57    7.53   0
   2  -3  62   40.84    8.79   0
  -1  -1  18 1165.64   16.89   0
  -1  -1  30  588.70   11.76   0
   0  -4  34  237.59    9.43   0
  -1  -1  33    3.07    6.56   0
   1  -5  45    5.71    7.49   0
   2  -2  64   82.11    9.64   0
   3   0  63    2.71    7.92   0
  -1   0  35   -1.38    6.50   0
   0  -4  37   -4.32    6.79   0
   0   2  37   -0.19    6.04   0
   1  -4  53   10.84    8.02   0
   1  -1  59    3.46    8.74   0
  -1  -1  36  899.22   14.42   0
  -1   1  25    2.74    5.59   0
   0   1  47    0.03    7.19   0
   1   1  54   99.47    9.42   0
   2   0  62   61.29    9.18   0
  -1  -2  22  445.11   11.21   0
  -1  -2  25    5.81    4.92   0
  -1   1  22  466.98   11.07   0
  -1   1  28 1335.41   16.96   0
   0   0  51    6.58    6.74   0
   1  -3  58   93.88    9.12   0
   1  -2  60  164.12    9.94   0
   1   2  47   -0.77    6.78   0
   2  -5  58   94.66    9.16   0
   2   1  58   94.29    8.63   0
  -1   0  38  272.97    9.19   0
  -1   1  31   -1.04    5.14   0
   0  -4  40  404.87   11.58   0
   0   2  40  782.49   14.22   0
   1  -5  48  197.17   10.20   0
  -1  -2  19    6.54    5.16   0
  -1  -1  39    4.09    5.97   0
  -1   1  19    0.17    4.48   0
  -1   0  41   -2.02    7.02   0
   0  -2  53   -3.25    6.84   0
   1  -4  56  119.76    9.28   0
  -1  -1  42  325.73   10.64   0
  -1   1  37   -7.64    6.52   0
   0  -4  43   -7.49    6.76   0
   0  -1  55   -0.18    8.24   0
   0   0  54   45.23    8.48   0
   0   1  50  275.20    9.66   0
   0   2  43    7.07    6.50   0
   1  -1  62   31.26    8.74   0
   1   2  50  158.46    9.12   0
   2  -6  53    4.58    6.50   0
  -1  -2  16 1941.99   22.51   0
   1  -3  61   -8.70    7.87   0
   1   0  61    3.72    7.96   0
   1   1  57   -0.68    7.93   0
  -1   0  44  422.41   11.47   0
   1  -5  51    3.94    7.73   0
   1  -2  63   -4.13    8.76   0
   2   0  65    9.81    7.46   0
   2   1  61    1.27    7.88   0
  -1  -1  45   -2.42    7.07   0
  -1   1  40  703.78   12.87   0
   0   1  53   11.08    7.67   0
   0   2  46  256.24    9.88   0
   1  -4  59   -0.93    7.48   0
  -1  -2  43    4.65    6.17   0
  -1   0  47   -2.68    7.62   0
  -1   1  43   -3.03    6.55   0
   0  -1  58  135.64    9.06   0
   0   0  57   -5.25    8.56   0
   1   2  53    3.97    7.20   0
  -1  -3  26  657.47   13.37   0
  -1  -3  29    0.41    6.21   0
  -1  -3  32  844.43   14.88   0
  -1  -1  48  328.56   11.11   0
   1  -5  54   39.07    7.80   0
   1  -1  65    9.22    7.41   0
   1   1  60  140.58    9.70   0
  -1  -3  23    4.78    5.67   0
  -1  -3  35    5.69    6.80   0
  -1   2  27   -0.73    5.33   0
  -1   2  30  547.29   11.60   0
  -1   2  33    0.95    5.86   0
   0  -4  49   -0.07    7.75   0
   1  -3  64   55.81    7.85   0
   1  -2  66   35.88    8.38   0
   1   0  64   70.05    8.81   0
  -1  -2  46  119.18    8.01   0
  -1   2  24 1701.59   20.15   0
   0  -2  59    7.38    7.37   0
   0   1  56  209.28   10.58   0
   0   2  49    4.97    7.07   0
  -1  -3  38  160.74    8.17   0
  -1   0  50  261.14    9.64   0
  -1   2  36  857.07   14.01   0
   0  -1  61   -7.24    8.64   0
  -1  -3  20  886.38   15.63   0
  -1  -1  51    5.47    6.74   0
  -1   2  39    6.21    6.39   0
   0   0  60  161.40    9.46   0
   0   3  27    0.65    5.31   0
   0   3  30  531.05   12.75   0
   0   3  33   -0.00    5.89   0
   1   2  56  160.17   10.37   0
  -1  -3  41   -0.20    5.89   0
  -1  -2  49   -3.96    6.62   0
  -1   2  21   12.42    5.27   0
   0  -4  52  146.65    8.92   0
   1  -5  57    5.52    7.56   0
  -1   0  53    7.82    7.95   0
   0  -2  62   62.75    9.39   0
   0   2  52  180.87    9.77   0
   1   1  63    3.56    7.58   0
  -1  -3  44  267.45   10.54   0
  -1  -1  54   83.57    9.63   0
  -1   2  42  310.83    9.61   0
   0   1  59   -6.65    7.87   0
   0   3  39    2.20    6.50   0
  -1  -3  17   -0.43    4.85   0
  -1  -2  52  260.02   10.56   0
   0  -4  55   -8.66    8.08   0
   0  -1  64   81.81    9.54   0
  -1  -3  47    2.59    7.88   0
  -1   2  45   -0.11    6.73   0
   0  -5  44  162.82    9.31   0
  -2   0  28 1109.37   15.70   0
  -2   0  31   -7.61    5.47   0
  -2   0  34  284.36    9.04   0
  -1   0  56  196.70   10.37   0
   0   2  55   -0.61    7.41   0
   0   3  42  232.84    9.79   0
  -2   0  37   -1.80    6.05   0
  -1  -1  57    9.22    8.20   0
   0  -2  65   -2.76    8.54   0
  -2  -1  29    9.91    6.34   0
  -2  -1  32 1164.35   15.73   0
  -2  -1  35   -3.03    5.77   0
  -2   0  25   -5.84    5.04   0
  -2   0  40  797.20   13.54   0
  -2   1  33    7.01    6.58   0
  -1  -3  50  175.98    9.80   0
  -1  -2  55   -1.13    7.76   0
  -1   2  48  319.20   10.90   0
   0  -5  47   -1.29    7.36   0
   0   1  62   44.00    8.22   0
  -2  -1  26  491.72   11.51   0
  -2  -1  38  316.12    9.75   0
  -2   1  30  597.65   11.78   0
  -2   1  36  915.89   14.09   0
   0  -4  58   57.51    8.66   0
   0   3  45   -0.18    6.35   0
  -2  -1  41   -0.47    6.24   0
  -2   0  22 1928.34   20.34   0
  -2   0  43    2.78    6.32   0
  -2   1  27    3.73    5.18   0
  -2   1  39   -4.87    5.88   0
  -1  -4  30  286.72   10.12   0
  -1  -4  33    5.53    6.25   0
  -1  -4  36  285.68   10.43   0
  -1   0  59   -7.03    8.06   0
  -2   1  42  336.35   10.69   0
  -1  -4  39   -1.63    6.98   0
  -1  -3  53    5.04    8.07   0
  -1  -1  60  130.71    9.68   0
  -1   2  51   -0.96    7.04   0
   0  -5  50   65.62    8.21   0
   0   2  58   88.92    9.05   0
  -2  -1  44  310.86   10.05   0
  -2   0  46  253.52    9.45   0
  -2   1  24 1823.32   19.46   0
  -1  -4  27    4.07    5.89   0
  -1  -4  42  168.27    9.28   0
   0   1  65    1.72    7.52   0
  -2  -2  30  202.95    8.61   0
  -2  -2  33   -7.36    5.67   0
  -2  -2  36  373.30   10.28   0
  -2  -2  39    0.59    6.99   0
  -2  -1  47   -3.72    6.65   0
  -2   0  19   -2.94    5.64   0
  -2   0  49    5.82    6.92   0
  -1   2  54   94.73    8.96   0
  -1   3  32 1141.56   16.79   0
  -1   3  35    2.98    5.82   0
  -1   3  38  316.76   10.20   0
  -2  -2  42  385.53   11.54   0
  -2   1  21   16.45    5.97   0
  -1  -4  45    0.70    7.39   0
  -1  -3  56  130.88    9.29   0
  -1  -2  61    4.92    8.03   0
  -1   3  29    6.55    5.56   0
  -1   3  41    3.95    6.44   0
   0   2  61   -2.84    8.49   0
  -2  -2  27   -0.17    5.20   0
  -2  -1  50  148.47    9.72   0
  -1  -1  63   -2.05    7.55   0
  -2  -2  45   -3.43    7.50   0
  -2   0  52  183.25    8.97   0
  -1  -4  48  193.37    9.50   0
  -1   1  61   -7.43    7.55   0
  -1   3  26  510.43   12.11   0
  -1   3  44  317.26   10.52   0
  -2  -2  24 1883.68   20.66   0
  -2   1  51   -1.80    6.72   0
  -1   2  57   -4.51    7.57   0
  -2  -1  53   -8.46    7.00   0
  -2   0  55   -6.69    8.48   0
  -2   2  26 1222.33   16.24   0
  -1  -4  51   -5.31    8.38   0
  -1  -3  59    4.74    8.07   0
  -1   0  65   -0.21    7.93   0
  -1   3  47   -4.90    7.53   0
  -2   0  16 3015.27   26.17   0
  -2   1  18 1211.45   17.02   0
  -2   1  54   99.12    9.41   0
  -1  -2  64   51.27    8.95   0
  -1   1  64   68.72    8.71   0
   0   2  64   94.42    8.83   0
  -2  -2  21    5.09    5.45   0
  -2  -1  56  164.85    9.71   0
  -2   2  23   -0.61    5.54   0
  -2   2  50  211.32    9.88   0
  -1   2  60  149.41    9.29   0
  -1   3  23    0.09    4.68   0
  -1   3  50  162.70    9.23   0
  -2  -3  37   -4.73    7.01   0
  -2   0  58   79.20    8.79   0
  -1  -4  54   45.36    8.08   0
  -2  -3  34  415.24   11.41   0
  -2  -3  40  442.61   12.16   0
  -2   1  57    3.63    7.35   0
  -2  -3  31    0.75    6.30   0
  -2  -3  43    8.72    7.15   0
  -2  -1  59    9.26    8.06   0
  -2   2  53    6.40    7.92   0
  -1   3  53   -1.00    7.02   0
  -2  -3  46   38.90    7.95   0
  -2   0  61    1.48    8.06   0
  -1  -4  57   -3.58    6.78   0
  -1   2  63   -0.36    8.84   0
  -2  -3  28  400.19   11.17   0
  -2  -2  18 1046.70   16.40   0
  -2   1  15    3.05    5.54   0
  -2   1  60  151.25    9.48   0
  -2   2  20 3340.72   26.90   0
  -2   3  37   -1.38    6.44   0
  -2   3  40  440.20   11.50   0
  -3   0  33   -5.97    6.56   0
  -3   0  36  537.62   11.53   0
  -3   0  39    7.77    6.25   0
  -3   0  42  251.47   10.06   0
  -3   1  35   -8.52    6.61   0
  -3   1  38  326.41    9.79   0
  -3   1  41   -4.94    7.09   0
  -2  -3  49   -2.58    7.22   0
  -2  -1  14 1507.92   19.39   0
  -2   2  56   96.87    9.30   0
  -2   3  34  573.73   11.85   0
  -2   3  43   -1.17    6.80   0
  -3   0  45   -5.14    7.67   0
  -3   1  32 1208.07   16.29   0
  -3   1  44  331.50   10.63   0
  -2  -1  62   31.37    7.77   0
  -2   0  13   -0.63    4.54   0
  -2   3  31   -5.33    5.92   0
  -2   3  46  118.74    8.53   0
  -1   3  56  173.64    9.66   0
  -3   0  30  527.73   11.29   0
  -3   0  48  320.78   11.13   0
  -3   1  47   -2.55    7.79   0
  -2  -3  25    0.79    5.87   0
  -2  -3  52  111.79    8.74   0
  -2   0  64  102.73    9.19   0
  -3   1  29    1.83    5.53   0
  -2   1  63   -1.57    7.90   0
  -2   2  59    4.06    7.64   0
  -2   3  28 1288.05   17.31   0
  -2   3  49    0.75    7.49   0
  -3   0  27    2.30    5.46   0
  -9   6 -12  152.71    8.83   0
  -9   6  -9   -3.17    7.03   0
  -9   6  -3    1.13    6.80   0
  -9   6   0  283.39   10.27   0
  -5   4  18  376.73   10.19   0
  -4   2  30  198.94    8.98   0
  -8   6  -8  425.51   11.35   0
  -6   5  10  451.68   10.40   0
  -5   3  28  409.71   10.94   0
  -4   4   7   -1.30    5.75   0
 -10   6  -1    4.25    6.42   0
  -9   6 -15   -0.01    7.27   0
  -9   6   3    6.68    7.02   0
  -8   6 -11   -6.75    7.26   0
  -8   6  -2  203.45    8.57   0
  -8   6   1   -0.43    7.83   0
  -6   5 -23   -1.61    5.57   0
  -3   3  12 2596.72   22.45   0
 -10   6   2   65.57    7.36   0
  -9   6   6  149.29    9.21   0
  -8   6 -14  114.10    8.19   0
  -7   5  18  393.28   10.97   0
  -4   3  23    7.95    5.65   0
  -4   4 -20 1203.76   16.73   0
  -9   6 -18  171.99    8.95   0
  -8   6   4  223.66    9.05   0
  -7   4  28  374.20   11.25   0
  -9   4  29    5.15    7.85   0
  -9   5  22   79.29    8.12   0
  -9   6   9    8.57    7.43   0
  -8   6 -17    1.02    6.43   0
  -6   3  33   -1.31    7.39   0
  -6   4  26  384.13   10.94   0
  -5   5  -4 1046.43   14.15   0
  -3   2  25    3.35    5.20   0
  -9   6 -21    0.18    6.72   0
  -8   4  30   87.68    8.13   0
  -8   6   7    1.95    6.48   0
  -5   5 -10  663.34   11.96   0
  -5   5  -1    4.66    5.16   0
  -8   5  23   -4.40    7.41   0
  -8   6 -20  175.47    9.47   0
  -7   6  -7   10.60    5.94   0
  -7   6  -1   -5.83    6.91   0
  -5   5 -13   -4.36    5.67   0
  -5   5   2  332.92    9.02   0
  -3   3  15   -0.65    5.16   0
  -9   6  12  141.20    9.40   0
  -8   6  10  188.63    9.66   0
  -7   6 -13   -0.32    6.51   0
  -7   6   2  344.47   10.21   0
  -6   5  16  647.79   11.96   0
  -4   4 -23   -1.05    5.05   0
  -5   3  31   -0.41    6.02   0
  -5   5 -16  666.32   12.33   0
  -5   5   5    3.27    5.40   0
  -4   4  13   -7.64    4.89   0
  -9   5  25    0.03    7.14   0
  -8   6  13    3.85    7.79   0
  -7   4  31   -0.62    7.15   0
  -7   6 -16  582.19   12.40   0
  -7   6   5   11.12    6.26   0
  -9   6  15   -1.65    7.12   0
  -7   6   8  657.48   12.87   0
  -5   5   8  966.55   13.67   0
  -4   2  33   -0.33    5.87   0
  -4   3  26  616.53   11.82   0
  -8   5  26  175.95    9.32   0
  -7   5  24  303.77   10.75   0
  -6   4  29    4.29    6.69   0
  -6   5  19    0.55    6.80   0
  -5   4  24  880.25   13.54   0
  -5   5 -19   -1.27    5.94   0
  -8   4  33   -4.95    7.40   0
  -7   6 -19    3.21    6.29   0
  -4   4  16 1507.06   17.12   0
  -2   2  17   -0.62    4.81   0
  -9   6  18   97.46    8.15   0
  -8   6  16  355.46   10.19   0
  -7   6  11    8.83    6.27   0
  -5   5  11   -5.13    5.44   0
  -9   5  28   94.21    8.36   0
  -7   6 -22  117.94    7.93   0
  -3   2  28 1324.24   17.95   0
  -9   7  -7    1.24    7.36   0
  -8   5  29   -8.11    7.75   0
  -8   6  19   -3.09    7.53   0
  -7   4  34  174.42   10.02   0
  -7   6  14  137.91    7.99   0
  -6   6  -9   -4.19    6.24   0
  -6   6   0  846.95   13.20   0
  -5   5 -22  221.22    8.52   0
  -5   5  14  643.27   12.11   0
  -9   7 -10  136.98    8.48   0
  -9   7   2   60.99    7.90   0
  -7   5  27    6.93    6.48   0
  -6   6 -12  352.41    9.88   0
  -6   6   3   -4.92    5.87   0
  -5   3  34  419.62   11.28   0
  -5   4  27    8.59    6.27   0
  -9   7 -13    5.47    7.12   0
  -9   7   5   -3.44    7.12   0
  -6   4  32  330.46   10.45   0
  -6   6   6  251.49    9.16   0
  -4   3  29    3.86    5.49   0
  -3   4  -4 1258.72   16.01   0
  -7   6  17    8.10    7.66   0
  -6   6 -15    3.86    5.97   0
  -3   3  21    0.20    4.99   0
  -3   4  -1   15.49    4.66   0
  -9   7 -16  132.16    8.51   0
  -9   7   8  212.55    9.71   0
  -8   7  -6   93.77    8.37   0
  -8   7   0  375.49   10.91   0
  -6   6   9   -8.29    6.61   0
  -5   5  17    2.18    5.49   0
  -3   4 -10 1053.12   15.09   0
  -3   4   2  829.67   12.85   0
  -2   3  -2  646.16   12.34   0
  -9   6  24  192.45    9.23   0
  -8   7   3   -0.97    7.70   0
  -6   5  25    1.19    5.92   0
  -2   2  20 3292.83   27.57   0
  -2   3   1   24.56    4.71   0
  -8   7 -12  182.51    8.97   0
  -8   7   6  181.37    9.27   0
  -7   5  30   62.42    8.40   0
  -6   6 -18  245.57    8.83   0
  -3   4   5    4.92    4.60   0
  -8   5  32  192.83    9.55   0
  -7   6  20  250.47    9.07   0
  -6   6  12  422.31   10.08   0
  -4   5  -3    0.23    4.74   0
  -3   4 -13    6.02    4.86   0
  -2   3   4 3029.58   24.85   0
  -9   7  14  129.64    8.77   0
  -8   6  25    5.23    7.82   0
  -8   7 -15   -4.20    6.93   0
  -8   7   9   -0.29    7.85   0
  -5   4  30  278.96    9.46   0
  -5   5  20  669.96   12.38   0
  -4   5  -9   14.73    5.44   0
  -4   5   3   18.64    5.96   0
  -3   4   8 2662.61   21.80   0
  -9   6  27    4.85    7.51   0
  -8   7 -18  188.00    8.93   0
  -8   7  12  181.46    9.34   0
  -6   4  35    3.15    6.80   0
  -6   5  28  409.21   11.04   0
  -6   6 -21    0.57    5.72   0
  -6   6  15    0.64    5.95   0
  -4   5 -12 1115.10   15.34   0
  -4   5   6  858.90   12.85   0
  -3   2  31    1.64    5.10   0
  -2   3   7   -0.51    4.37   0
  -9   7  17   15.04    7.31   0
  -7   7  -5    9.22    7.26   0
  -7   7   1   -3.87    7.03   0
  -4   3  32  858.00   14.51   0
  -3   3  24 1022.10   14.64   0
  -3   4 -16 1924.27   20.92   0
  -7   7  -8  604.22   11.95   0
  -7   7   4  182.31    9.00   0
  -4   5   9    0.64    5.07   0
  -3   4  11   17.13    4.94   0
  -8   5  35    1.69    7.31   0
  -8   6  28  165.71    9.27   0
  -8   7  15    1.62    7.17   0
  -7   5  33    7.82    7.34   0
  -7   7 -11   -2.64    6.89   0
  -6   6  18  336.32   10.54   0
  -4   4  25   -0.87    5.82   0
  -4   5 -15   -2.08    5.11   0
  -9   7  20  119.52    8.73   0
  -5   6  -8  778.87   13.02   0
  -5   6   1    2.33    5.41   0
  -2   3  10 2052.02   20.26   0
  -7   6  26  259.41   10.13   0
  -7   7 -14  126.74    8.24   0
  -7   7  10  251.92    9.71   0
  -5   6   4  732.98   12.21   0
  -4   5  12  913.09   13.26   0
  -2   2  23    1.53    4.38   0
  -8   7  18  109.25    8.11   0
  -6   5  31    6.08    7.06   0
  -5   4  33    3.57    6.28   0
  -5   6 -11   -2.99    5.95   0
  -5   6   7    0.67    6.66   0
  -3   4  14  689.08   11.79   0
  -7   7 -17    3.71    7.14   0
  -7   7  13    8.19    7.72   0
  -6   6  21   -2.50    6.05   0
  -4   5 -18  687.58   12.79   0
  -3   4 -19    7.86    4.87   0
  -9   8  -2   96.79    8.41   0
  -5   5  26  224.40    9.06   0
  -5   6 -14  377.49   10.12   0
  -5   6  10  465.03   11.00   0
  -4   5  15    6.27    6.33   0
  -2   3  13   21.51    5.28   0
  -9   8  -8  135.72    8.51   0
  -9   8  -5   -1.28    7.39   0
  -9   8   4  172.87    8.87   0
  -8   6  31    2.68    7.50   0
  -8   7  21   11.46    7.26   0
  -4   4  28  621.75   12.35   0
  -3   3  27    0.67    4.28   0
  -9   8   7   13.28    7.53   0
  -7   5  36  264.32   10.25   0
  -7   6  29   -3.80    7.61   0
  -7   7  16  494.31   11.78   0
  -4   3  35    2.98    6.17   0
  -3   4  17    2.87    4.75   0
  -9   8 -11   -3.30    6.84   0
  -7   7 -20  129.49    7.68   0
  -5   6 -17    4.17    5.59   0
  -5   6  13    6.00    5.82   0
  -6   7  -4  259.92    9.37   0
  -6   7   2  334.23   10.38   0
  -4   5 -21   10.52    5.16   0
  -4   5  18  374.81    9.45   0
  -7   7  19    7.46    7.40   0
  -6   5  34  225.92    9.35   0
  -6   7  -7    7.97    5.65   0
  -6   7   5    4.66    6.03   0
  -5   6  16  646.97   12.51   0
  -2   3  16 2058.23   20.30   0
  -9   8  13    0.65    7.10   0
  -8   8  -7    3.12    6.66   0
  -8   8  -4  194.67    9.00   0
  -8   8   2   95.26    7.80   0
  -8   8   5    5.17    7.64   0
  -6   7 -10  224.77    8.99   0
  -6   7   8  609.50   12.34   0
  -5   4  36  310.15   10.08   0
  -5   5  29    1.08    6.58   0
  -3   4 -22  303.42    9.89   0
  -8   6  34  114.17    8.85   0
  -8   8 -10  149.53    9.42   0
  -2   2  26 1223.98   17.60   0
  -7   6  32  236.32    9.70   0
  -6   6  27    0.53    6.92   0
  -6   7 -13    0.74    6.22   0
  -6   7  11   10.30    7.12   0
  -5   6 -20  456.40   10.94   0
  -4   5  21   -1.05    6.17   0
  -8   7  27    8.25    7.17   0
  -8   8 -13   -4.72    7.64   0
  -8   8  11    0.62    7.32   0
  -7   7  22   91.92    7.48   0
  -5   6  19    1.32    5.66   0
  -4   4  31    3.14    4.77   0
  -6   7  14  147.56    8.50   0
  -8   8  14  123.49    8.67   0
  -6   7 -16  566.69   12.13   0
  -8   8 -16  154.56    7.97   0
  -6   5  37   -6.98    6.73   0
  -5   5  32  475.19   11.50   0
  -3   4  23    9.51    5.53   0
  -8   6  37    0.39    7.01   0
  -6   6  30  109.23    8.27   0
  -5   6  22  209.31    8.27   0
  -3   5   1   -1.13    4.69   0
  -8   7  30   65.58    7.80   0
  -8   8  17    1.21    6.89   0
  -7   6  35    1.54    6.96   0
  -7   8  -6  103.79    8.25   0
  -7   8  -3    0.64    6.30   0
  -7   8   3   -1.42    7.40   0
  -6   7 -19    7.46    6.49   0
  -4   6  -1    1.18    4.96   0
  -4   6   2  575.70   10.97   0
  -3   5   4  698.45   11.68   0
  -7   8   6  173.28    8.40   0
  -4   6   5    6.12    5.29   0
  -3   5  -8 2100.49   20.11   0
  -3   5   7    8.53    5.00   0
  -7   8  -9   -3.21    6.90   0
  -7   8   9   -1.39    6.60   0
  -6   7  20  241.01    9.93   0
  -4   4  34  241.37    9.16   0
  -4   6   8  838.84   12.73   0
  -8   8  20  130.34    8.16   0
  -7   7  28  126.32    8.70   0
  -7   8  12  184.40    9.48   0
  -4   6 -10  324.33    9.43   0
  -3   5  10  706.00   11.72   0
  -2   4   0 4101.28   27.64   0
  -7   8 -12  192.21    8.97   0
  -5   7   3   -2.57    6.29   0
  -4   5  27    1.30    6.01   0
  -4   6  11    2.53    5.39   0
  -3   3  33   -2.10    5.25   0
  -3   4  26  620.96   11.90   0
  -3   5 -11    4.73    4.91   0
  -2   2  29    0.37    4.20   0
  -2   3  22  431.63    9.91   0
  -2   4  -3    3.48    4.19   0
  -2   4   3    1.44    4.49   0
  -8   7  33   -2.65    6.81   0
  -7   8  15   -0.66    7.78   0
  -6   6  33   -7.49    7.25   0
  -6   7  23    6.41    7.51   0
  -5   5  35   -6.14    6.30   0
  -5   7  -6  422.97   10.58   0
  -5   7   6  149.76    8.40   0
  -3   5  13    3.18    5.47   0
  -2   4   6  803.65   12.59   0
  -8   8  23   -4.63    7.17   0
  -7   8 -15   -5.47    6.65   0
  -5   7   9   -6.10    6.50   0
  -4   6 -13   -6.00    5.50   0
  -4   6  14  280.84    9.43   0
  -7   6  38   51.40    7.35   0
  -5   7  -9    1.07    6.21   0
  -2   4   9    1.28    4.52   0
  -7   7  31    9.28    7.31   0
  -7   8  18  132.10    8.66   0
  -5   6  28  374.73   10.01   0
  -5   7  12  483.12   10.67   0
  -3   5 -14  368.75    9.75   0
  -3   5  16 1826.29   18.17   0
  -2   4  -9    3.65    4.80   0
  -5   7 -12  379.73   10.03   0
  -4   6  17   -0.09    5.55   0
  -2   4  12  790.31   12.75   0
  -5   7  15   -2.55    7.10   0
  -4   5  30  275.82    9.36   0
  -4   6 -16  687.58   12.64   0
  -2   3  25    5.04    4.90   0
  -8   9  -2   91.63    7.63   0
  -8   9   1    2.37    7.36   0
  -7   8  21    0.75    7.65   0
  -6   6  36  201.85    9.16   0
  -6   8  -2  210.27    9.37   0
  -6   8   4  211.60    9.40   0
  -4   4  37   -0.39    5.88   0
  -3   4  29   -0.67    4.86   0
  -8   9  -5    9.38    6.37   0
  -8   9   7    4.25    7.24   0
  -6   8  -5   -0.96    7.01   0
  -6   8   7    0.94    6.11   0
  -5   5  38  193.79    9.52   0
  -5   7 -15    4.33    5.74   0
  -4   6  20  641.98   12.30   0
  -3   5  19   -0.34    5.30   0
  -2   4 -12  750.16   13.32   0
  -8   9  -8  129.27    7.92   0
  -8   9  10   80.79    7.87   0
  -7   7  34  139.60    8.67   0
  -6   8  -8  407.33   10.62   0
  -6   8  10  184.04    8.53   0
  -5   6  31    1.75    7.18   0
  -5   7  18  385.38    9.91   0
  -3   5 -17    2.82    4.76   0
  -2   4  15    0.34    4.53   0
  -8   9  13    6.74    7.58   0
  -7   8  24  232.43    9.52   0
  -6   7  29    4.26    7.57   0
  -6   8  13    3.21    7.55   0
  -3   3  36  782.87   14.50   0
  -8   9 -11   -6.54    5.87   0
  -6   8 -11    1.14    6.60   0
  -4   6 -19   -3.48    5.16   0
  -2   2  32  595.49   13.03   0
  -6   8  16  367.17   11.03   0
  -5   7 -18  144.28    7.69   0
  -5   7  21   -4.17    6.08   0
  -4   5  33    5.03    6.03   0
  -4   6  23   -1.55    5.61   0
  -3   5  22  280.78    8.43   0
  -2   4  18 1054.99   14.47   0
  -6   6  39    0.88    6.94   0
  -3   4  32  846.58   14.02   0
  -2   3  28 1298.73   16.96   0
  -2   4 -15    4.26    4.27   0
  -1   3  -1   25.61    5.23   0
  -1   3   2  673.24   12.40   0
  -1   3   5    6.32    5.08   0
  -7   7  37   -3.72    6.75   0
  -6   7  32  249.15   10.10   0
  -6   8  19   10.31    7.70   0
  -5   6  34  211.23    8.68   0
  -5   7  24  314.39   10.08   0
  -3   5 -20  529.10   11.98   0
  -7   9  -4  191.71    9.15   0
  -7   9  -1   -7.44    7.49   0
  -1   2  21   10.15    4.77   0
  -1   3   8 3337.51   25.52   0
  -7   9  11   -9.42    7.38   0
  -4   7   1   -3.83    6.63   0
  -4   7   4  613.64   12.11   0
  -3   6   3    0.88    6.07   0
  -7   8  30   64.77    7.86   0
  -7   9  -7   -2.73    6.51   0
  -6   8  22  115.62    8.84   0
  -4   7   7    3.24    6.76   0
  -3   6   0  993.97   13.73   0
  -3   6   6  437.28    9.90   0
  -1   3  11   11.81    5.15   0
  -7   9  14  119.28    8.35   0
  -4   5  36  298.45    9.85   0
  -4   7  -5    1.64    5.78   0
  -4   7  10  372.30   10.46   0
  -3   6   9   -1.37    5.42   0
  -7   9 -10  162.04    8.19   0
  -6   7  35   -4.64    6.95   0
  -3   6  -6  435.37   10.24   0
  -3   6  12  760.31   12.78   0
  -7   9  17    1.05    7.15   0
  -6   8  25    1.25    7.08   0
  -5   6  37    1.48    6.78   0
  -5   8  -1   -1.47    6.80   0
  -5   8   5    7.77    5.98   0
  -5   8   8  446.51   11.32   0
  -4   6  29   -3.43    5.56   0
  -4   7  -8  500.89   11.29   0
  -4   7  13   -1.16    5.91   0
  -3   4  35    3.24    5.77   0
  -3   5  28  389.31   10.36   0
  -2   4 -18  968.17   16.08   0
  -1   3  14 1660.39   18.26   0
  -7   9 -13    3.63    6.96   0
  -5   8  -4  255.57    9.32   0
  -5   8  11   11.89    7.42   0
  -3   6  -9    5.13    5.54   0
  -3   6  15    3.94    6.35   0
  -2   3  31    1.90    5.22   0
  -2   4  24 1778.41   18.09   0
  -2   5   2  798.59   12.62   0
  -2   5   5    4.22    5.69   0
  -7   8  33   -2.49    6.78   0
  -7   9  20  117.08    8.52   0
  -5   7  30   74.97    8.24   0
  -4   7  16  411.34   10.06   0
  -2   5  -1    3.47    4.61   0
  -2   5   8 2194.35   19.70   0
  -5   8  -7    1.12    5.77   0
  -5   8  14  130.52    8.91   0
  -4   7 -11    2.72    5.17   0
  -1   2  24 1742.40   20.33   0
  -4   7  19   -3.30    7.02   0
  -3   6  18  407.45   10.56   0
  -2   5  11    4.99    5.00   0
  -1   3  17   10.30    5.00   0
  -7   9  23    6.00    6.89   0
  -6   7  38   51.96    7.39   0
  -5   8 -10  205.83    8.83   0
  -5   8  17   -8.57    7.62   0
  -4   5  39    1.10    6.20   0
  -4   6  32  330.39   10.25   0
  -3   6 -12  692.58   12.54   0
  -6   9   0  291.88    9.94   0
  -6   9   9    2.62    7.35   0
  -4   7 -14  350.65    9.83   0
  -3   5  31    2.62    6.16   0
  -2   4  27    1.28    5.49   0
  -2   5  -7    6.11    4.37   0
  -2   5  14  365.40    9.03   0
  -6   9  12  124.78    8.77   0
  -5   6  40  180.17    9.19   0
  -5   7  33   -2.87    7.31   0
  -5   8  20  225.81    9.57   0
  -4   7  22  152.57    8.72   0
  -3   6  21   -4.55    6.56   0
  -6   8  31    6.34    7.04   0
  -6   9  -6   74.71    7.61   0
  -5   8 -13    0.74    6.20   0
  -2   5  17   -1.95    5.98   0
  -6   9  15    5.47    7.19   0
  -3   4  38  162.03    8.02   0
  -3   6 -15    0.72    5.46   0
  -2   5 -10  696.50   12.45   0
  -6   9  -9   -1.67    6.78   0
  -5   8  23   -1.79    7.21   0
  -4   6  35    0.33    6.87   0
  -4   7 -17    2.31    6.19   0
  -4   7  25   -0.07    6.60   0
  -3   6  24  597.02   12.01   0
  -2   3  34  588.41   12.13   0
  -6   9  18   88.15    8.03   0
  -2   5  20  586.02   11.32   0
  -6   7  41    2.07    6.99   0
  -5   8 -16  348.71   10.33   0
  -3   5  34  410.29   10.77   0
  -2   4  30  183.22    8.08   0
  -1   2  27   -1.93    4.35   0
  -6   8  34  124.14    8.75   0
  -6   9  21   -3.29    7.21   0
  -5   7  36  227.14    9.75   0
  -5   8  26  159.96    9.18   0
  -2   5 -13    3.68    4.80   0
  -1   4   1   14.75    5.33   0
  -1   4   4 1280.98   15.37   0
  -1   4   7   11.60    5.56   0
  -1   3  23    0.47    4.80   0
  -1   4  10 1118.71   14.66   0
  -3   6 -18  398.22   10.26   0
  -1   4  -2  872.02   13.16   0
  -6   9  24  193.41    9.06   0
  -4   8   0  482.25   11.61   0
  -4   8   6  178.83    9.13   0
  -4   8   9    3.57    6.96   0
  -3   7   2  217.29    8.82   0
  -3   7   5    8.29    5.66   0
  -3   7   8  526.63   11.37   0
  -1   4  13    9.93    4.81   0
  -4   6  38   89.82    8.16   0
  -4   8  12  237.18    9.66   0
  -3   7  11   -4.69    6.76   0
  -6   8  37   -8.36    6.60   0
  -4   7  31   -6.67    7.25   0
  -4   8  -3   -1.07    5.64   0
  -3   5  37   -2.80    6.34   0
  -3   7  -4  619.26   12.10   0
  -1   4  16 2103.04   19.61   0
  -6   9  27    7.78    6.95   0
  -5   7  39   -2.54    7.10   0
  -5   9   1    1.75    7.10   0
  -5   9   7    2.02    7.00   0
  -4   8  -6  188.75    8.99   0
  -4   8  15    2.57    6.06   0
  -3   6  30  183.23    8.56   0
  -2   3  37   -0.15    5.22   0
  -2   4  33   -0.73    5.52   0
  -2   5 -16 1702.96   19.31   0
  -5   9  -2  155.55    8.75   0
  -5   9  10  127.73    8.22   0
  -4   8  18  185.59    9.43   0
  -3   7  -7   -0.31    6.25   0
  -3   7  17    3.40    6.69   0
  -2   6   1   -0.27    5.86   0
  -2   6   4  844.97   12.71   0
  -2   6   7   -6.35    5.27   0
  -1   3  26  497.04   10.84   0
  -5   8  32  171.69    9.02   0
  -5   9  13   -1.45    6.77   0
  -2   6  10  340.19    9.09   0
  -1   2  30  582.16   12.33   0
  -1   4  -8 2642.20   23.19   0
  -1   4  19    7.43    5.67   0
  -5   9  -5   -7.22    6.56   0
  -5   9  16  321.97   10.39   0
  -4   8  -9   -0.17    6.49   0
  -3   7  20  416.33   10.68   0
  -2   6  13   -1.59    5.43   0
  -4   6  41   -4.70    6.74   0
  -4   7  34  164.35    8.75   0
  -4   8  21   -1.13    6.26   0
  -3   7 -10  372.14    9.97   0
  -2   5  29    1.22    5.98   0
  -2   6  16  728.01   12.69   0
  -5   9  -8  354.98   10.13   0
  -5   9  19    5.73    7.08   0
  -3   6  33    0.41    5.88   0
  -2   6  -5    2.94    4.83   0
  -5   7  42  129.00    7.99   0
  -4   8 -12  230.36    8.83   0
  -4   8  24  320.08   10.64   0
  -3   7  23   -3.12    6.99   0
  -5   8  35   -5.13    6.91   0
  -5   9  22   87.18    7.96   0
  -3   5  40  427.56   11.26   0
  -2   4  36  358.52   10.03   0
  -2   6  -8  825.39   13.27   0
  -2   6  19   -1.36    5.65   0
  -1   3  29    0.64    4.99   0
  -1   4 -11   15.81    4.87   0
  -5   9 -11   -2.61    6.03   0
  -3   7 -13    7.76    5.79   0
  -2   5 -19    5.27    4.93   0
  -4   7  37    2.72    7.08   0
  -3   7  26  142.15    8.24   0
  -2   6  22  341.94    9.87   0
  -5   9  25    4.49    7.11   0
  -4   8 -15   -1.16    6.21   0
  -4   8  27    4.00    6.74   0
  -3   6  36  288.54    9.86   0
  -2   5  32  653.49   11.97   0
  -1   4  25    0.40    5.45   0
  -1   5   3   -1.18    5.66   0
  -1   5   6  346.88    8.90   0
  -1   5   9   12.59    5.93   0
  -2   6 -11    1.71    5.41   0
  -1   5   0 1387.91   16.25   0
  -1   5  12 1151.08   14.37   0
  -5   8  38   51.64    7.38   0
  -2   6  25    1.57    6.59   0
  -1   2  33    4.59    4.44   0
  -1   5  15    3.59    6.02   0
  -5   9  28   83.51    7.77   0
  -3   7 -16  403.21   10.40   0
  -3   8   7    3.46    7.25   0
  -1   3  32 1176.02   16.08   0
  -1   4 -14  656.88   12.75   0
  -4   7  40  136.41    8.36   0
  -3   8  10  175.00    8.14   0
  -3   8  13    6.14    7.31   0
  -2   4  39    4.71    5.41   0
  -2   5  35    4.38    6.04   0
  -1   4  28  696.67   12.04   0
  -1   5  18  702.79   11.84   0
   0   3   6 2069.70   19.84   0
   0   3   9   -0.46    5.17   0
  -4   9   2  159.81    9.06   0
  -4   9  11   -7.77    6.35   0
  -4   9  14   72.87    8.33   0
  -3   6  39    8.25    6.37   0
  -2   6 -14  261.77    8.93   0
  -1   5  -6  820.14   13.12   0
   0   2  19    1.79    3.75   0
   0   3   3    1.30    4.27   0
   0   3  12 2082.58   19.90   0
  -4   8  33   -1.20    6.88   0
  -4   9  -1   -4.30    7.05   0
  -3   7  32  269.26   10.16   0
  -3   8  -2  218.00    8.24   0
  -3   8  16  385.29   10.06   0
  -2   7   6  427.01   10.56   0
  -2   7   9   -1.31    6.74   0
  -1   5  21    8.94    6.15   0
  -4   9  -4  126.63    8.41   0
  -4   9  17    5.62    6.76   0
  -3   8  19    4.68    7.67   0
  -2   7   3    1.24    5.68   0
  -2   7  12  402.44   10.66   0
   0   3   0 2605.51   22.62   0
   0   3  15   -2.40    5.09   0
  -5  10   3   -0.17    6.50   0
  -5  10   6   77.74    7.41   0
  -4   9  20  106.79    8.79   0
  -3   8  -5    0.73    5.78   0
  -2   7  15    9.05    6.92   0
  -5  10   0  183.72    8.47   0
  -2   6  31   -0.83    6.09   0
  -1   4  31    7.05    5.72   0
  -1   5  -9   -2.25    4.34   0
  -4   7  43   -4.17    7.59   0
  -4   9  -7    3.76    6.91   0
  -3   7  35    0.58    7.23   0
  -3   8  -8  431.59   10.88   0
  -3   8  22  116.49    7.89   0
  -2   5  38   86.16    7.43   0
  -2   7  18  163.80    7.89   0
   0   3  -3   -1.67    4.04   0
   0   3  18  519.43   10.45   0
  -5  10  -3    4.54    6.68   0
  -4   8  36  113.59    8.62   0
  -4   9  23   -2.92    6.65   0
  -2   6 -17   -1.75    5.20   0
  -1   3  35   -1.50    4.92   0
  -1   4 -17   -0.56    4.25   0
  -3   6  42  143.73    8.71   0
  -3   8  25    1.54    7.18   0
  -2   7  -6  136.21    7.84   0
  -2   7  21   14.33    5.89   0
  -5  10  -6   66.39    6.82   0
  -4   9 -10  143.23    8.13   0
  -4   9  26  128.26    8.40   0
  -1   6   5   -1.78    5.88   0
  -1   6   8  791.82   12.98   0
  -1   6  11   -4.61    6.53   0
  -3   8 -11    0.44    6.33   0
  -2   6  34  159.91    8.60   0
  -2   7  24  414.08   10.99   0
  -1   5 -12  881.80   13.61   0
  -1   6   2  312.58    9.17   0
  -1   6  14  372.36   10.00   0
   0   4   8 1542.50   16.82   0
  -3   7  38  116.31    8.82   0
  -3   8  28  161.82    8.74   0
  -2   7  -9   -1.68    5.98   0
  -1   4  34  504.83   11.30   0
   0   2  25   -1.07    4.27   0
   0   4   5    1.14    4.60   0
   0   4  11    4.59    4.75   0
  -4   8  39   -1.26    7.23   0
  -4   9  29   -0.81    7.45   0
  -1   6  17   11.33    5.59   0
   0   4   2 1352.84   15.72   0
   0   4  14  325.56    8.67   0
  -2   5  41   -0.52    5.97   0
  -2   7  27   -4.85    7.00   0
  -1   5  30  167.16    8.27   0
   0   3  24 1524.08   17.26   0
   0   4  17   -2.18    5.69   0
  -3   8 -14  128.09    7.95   0
  -1   6  -4  692.26   11.90   0
  -1   6  20  467.96   10.42   0
   0   4  -1    1.79    4.41   0
  -2   6  37   10.60    6.83   0
  -2   7 -12  467.69   10.90   0
  -3   9   9    4.47    7.15   0
  -1   5 -15    8.23    5.11   0
  -1   6  23   -7.34    5.68   0
   0   3  -9    0.40    4.29   0
   0   4  20 1265.79   15.09   0
  -3   7  41    3.83    6.60   0
  -3   9   3   -6.55    6.90   0
  -3   9  12  152.74    8.31   0
  -3   9  15    0.58    7.34   0
  -1   4  37   -0.89    6.20   0
  -1   6  -7    1.63    5.67   0
  -3   8  34  114.32    8.53   0
  -3   9   0  266.82    9.79   0
  -2   8   8  424.28   11.15   0
  -2   8  11   -4.87    7.03   0
  -1   4 -20  774.98   14.97   0
  -1   5  33    1.61    5.45   0
   0   2  28 1069.37   15.79   0
   0   3  27   -1.64    4.29   0
  -3   9  18  188.55    8.63   0
  -2   8  14  108.46    7.54   0
  -3   9  -3   -6.06    6.43   0
  -3   9  21   -3.15    7.17   0
  -2   7 -15   -1.59    5.61   0
  -2   7  33    2.37    7.34   0
  -2   8  17   -2.46    6.23   0
  -2   6  40  246.66    9.61   0
  -2   8  -1   -1.04    5.59   0
  -2   8  20  189.57    9.08   0
  -1   6 -10  443.26   10.03   0
   0   4  -7    2.14    4.22   0
   0   5   4 1172.16   14.96   0
   0   5   7    3.16    5.17   0
   0   5  13   -2.93    6.15   0
  -3   9  -6  152.98    9.11   0
  -3   9  24  149.78    8.94   0
   0   4  26  709.00   12.34   0
   0   5  16  671.41   12.09   0
  -3   7  44  116.85    8.99   0
  -3   8  37    0.35    6.76   0
  -2   8  23   -2.10    7.08   0
  -1   5 -18  355.76   10.24   0
  -1   5  36  442.36   10.94   0
  -1   7   7   -4.97    6.86   0
  -1   7  13   -3.88    6.61   0
   0   3  30  516.90   11.16   0
   0   5   1   -0.90    4.93   0
  -1   7   4  241.21    8.45   0
  -1   7  16  600.01   12.23   0
   0   3 -12 2429.09   24.05   0
   0   5  19    6.49    5.38   0
  -3   9  27   -2.90    6.74   0
  -2   7  36  138.54    9.08   0
  -2   8  -7    1.07    6.40   0
  -1   4  40  418.69   10.72   0
  -1   6 -13   -1.67    5.47   0
  -1   7  19   11.70    7.37   0
   0   2  31    0.34    4.27   0
  -3   9  -9   -1.14    6.49   0
  -2   8  26  179.59    8.70   0
  -1   6  32  387.09   10.85   0
   0   4 -10  405.05    9.56   0
   0   4  29   -5.35    5.65   0
   0   5  22  232.55    8.78   0
  -2   6  43   -0.46    6.09   0
  -1   7  -2  302.12    8.94   0
   0   5  -5   -0.07    5.53   0
  -2   8 -10  169.52    8.40   0
  -1   5  39   -3.55    6.00   0
  -1   7  -5    7.23    6.38   0
   0   3  33   -0.29    5.05   0
  -2   7  39   -8.85    7.24   0
  -1   6  35    2.75    6.58   0
  -1   7  25   -7.42    6.31   0
  -1   6 -16  584.95   11.84   0
   0   4  32  430.41    9.93   0
   0   6   9    6.20    6.61   0
  -2   8  32  164.54    8.83   0
  -1   7  -8  598.93   11.82   0
   0   4 -13    4.08    4.69   0
   0   5  -8  928.65   13.51   0
   0   5  28  590.14   11.89   0
   0   6   6  388.06    9.63   0
   0   6  12  345.57    9.45   0
   0   6  15    6.48    6.43   0
   1   2   8 3376.35   25.69   0
   1   2  11   17.42    4.46   0
  -2   8 -13    3.93    5.82   0
  -2   9  10  141.17    8.66   0
   0   2  34  264.00    9.01   0
   0   6   3   -0.14    6.39   0
   0   6  18  257.97    9.22   0
   1   2  14 1595.42   17.61   0
   1   3   7   11.06    4.71   0
   1   3  10 1102.50   14.19   0
   1   3  13   10.61    4.80   0
  -2   9   4  174.71    8.80   0
  -2   9  13    6.14    6.39   0
  -2   9  16  165.36    8.89   0
   1   2   5    4.50    4.26   0
   1   3   4 1308.74   15.68   0
   1   3  16 2077.27   19.35   0
  -2   7  42   85.12    7.61   0
  -2   9  19    2.31    7.26   0
  -1   5  42  197.96    8.78   0
  -1   6  38  115.80    7.98   0
   0   6  21    2.01    6.94   0
  -2   8  35   -2.19    7.24   0
  -2   9   1    9.08    7.10   0
  -1   7 -11    3.98    6.00   0
   0   3  36  508.06   11.19   0
   0   4  35    6.42    5.65   0
   0   5 -11    1.79    5.39   0
   0   5  31   -4.97    5.31   0
   1   2   2  685.54   12.29   0
   1   3   1   16.29    5.40   0
   1   3  19   11.74    4.78   0
  -2   9  -2   66.85    7.68   0
  -2   9  22   54.82    7.33   0
  -1   8   9    6.96    6.63   0
  -1   8  12  176.18    8.66   0
  -1   8  15  -14.35    7.06   0
   0   6  -3    2.58    5.12   0
   0   6  24  559.10   11.88   0
   1   2  20 1373.57   16.60   0
   1   4   9   11.27    5.63   0
   1   4  12 1157.88   14.65   0
   1   4   6  362.31    8.93   0
   1   4  15    4.22    5.15   0
  -2  -3  19    2.47    6.92   0
  -1  -3  29    3.20    7.84   0
  -1  -2  25    4.91    6.76   0
   0  -6  36  181.55   11.30   0
   1  -2  33   -3.46    5.88   0
   2  -2  34  284.94   10.80   0
  -2  -5  18  359.42   11.80   0
  -2  -4  20  589.43   12.98   0
   0  -4  37   -0.44    7.43   0
   1  -5  42  161.51   11.11   0
   1  -4  41    9.97    8.74   0
  -1  -5  31    2.90    9.05   0
  -1  -1  18 1211.50   17.66   0
   0  -5  38  191.54   11.27   0
   1  -1  26 1114.99   18.01   0
  -1  -7  24  232.39   10.79   0
  -1  -6  29   -6.45    7.69   0
   0  -3  36  815.71   15.32   0
   1  -7  41   -8.94    9.00   0
   2  -7  45   -0.56    8.95   0
   0  -2  32  654.59   13.23   0
   1  -6  43   -3.23    9.52   0
   2  -5  46   52.10    9.67   0
   3  -6  48  128.57   10.61   0
   3  -5  47    4.02    9.08   0
  -2  -5  21   -2.01    7.05   0
  -2  -4  23    0.31    6.67   0
  -1  -4  33    1.81    7.14   0
   0  -1  25   -5.47    6.18   0
   2  -3  41    1.04    7.93   0
   4  -6  49   -9.17    9.27   0
  -1  -3  32  852.53   15.45   0
  -1  -2  28 1350.14   17.60   0
   0  -6  39    3.78    8.89   0
   2  -4  45    8.49    8.78   0
   2  -1  27    1.69    5.38   0
  -1  -7  27    5.00    7.90   0
  -1  -6  32  240.23   11.53   0
  -1  -5  34  201.26   10.89   0
   0  -7  37   13.16    9.10   0
   0  -4  40  422.87   12.70   0
   3  -2  35    2.90    6.54   0
  -2  -5  24  307.51   11.71   0
  -1  -1  21   11.06    5.69   0
   0  -5  41    2.04    9.06   0
   1  -5  45    3.75    9.55   0
   1  -2  36  882.86   15.25   0
   3  -4  46   69.88    9.69   0
  -2  -6  19    6.32    8.03   0
  -2  -4  26  360.22   11.80   0
  -2  -2  21   -4.86    6.76   0
   1  -7  44  114.19   10.64   0
   2  -2  37   -4.48    6.79   0
   3  -3  42  239.62   10.99   0
  -1  -4  36  304.56   11.47   0
   0  -3  39    9.89    8.36   0
   1  -6  46   64.63   10.05   0
   1  -1  29    3.57    5.90   0
  -1  -7  30   65.82    9.25   0
   0  -2  35    2.41    6.26   0
  -2  -6  22   97.56    9.10   0
  -2  -5  27   12.44    8.58   0
  -1  -5  37    4.09    8.74   0
  -1  -3  35   -0.03    6.86   0
  -1  -2  31   10.31    6.41   0
   0  -6  42  130.24   10.54   0
   0  -1  28 1327.00   17.97   0
   2  -5  49  -11.57    9.37   0
   3  -6  51   -6.85    9.20   0
   3  -5  50  140.40   10.95   0
  -2  -3  28  381.14   11.71   0
  -1  -1  24 1823.97   20.42   0
   0  -7  40  142.68   10.01   0
   1  -3  43   -3.57    8.17   0
   2  -6  50   85.07    9.88   0
   2  -3  44  330.08   12.18   0
  -3  -3   6  421.52   12.54   0
  -2  -2  24 1756.32   19.63   0
  -2  -1  14 1562.65   20.05   0
   0  -4  43   -2.35    7.74   0
   2  -4  48  291.58   12.45   0
  -3  -3   9   -3.99    6.48   0
  -2  -6  25    3.34    8.48   0
   1  -2  39    1.75    7.35   0
  -3  -3  12  726.80   14.58   0
  -2  -5  30   82.85    9.76   0
  -1  -7  33   -1.22    7.78   0
  -1  -4  39   -9.01    7.68   0
   2  -1  30  581.32   14.31   0
  -3  -4  13    4.60    6.85   0
  -2  -1  17    2.64    6.23   0
  -1  -3  38  177.58    9.98   0
  -1  -2  34  585.33   13.01   0
   0  -3  42  305.27   10.76   0
   0  -2  38  241.12   10.30   0
   1  -6  49    2.98    8.77   0
   3  -4  49    9.88    8.08   0
  -3  -3  15    5.67    6.58   0
  -2  -3  31    3.25    6.82   0
  -2  -2  27    5.00    6.37   0
  -1  -5  40  183.85   10.33   0
  -1  -1  27   -0.44    6.60   0
   0  -6  45    3.93    9.51   0
   1  -1  32 1745.23   21.73   0
   2  -2  40  794.84   15.96   0
   3  -3  45   -4.09    7.35   0
  -3  -4  16  403.46   12.10   0
  -2  -6  28  152.20    9.74   0
   2  -5  52  116.42   11.03   0
  -3  -3  18  409.86   11.78   0
   0  -5  47    1.51    8.96   0
   1  -3  46  138.23   10.18   0
   2  -6  53    0.24    8.24   0
  -3  -2   5    9.19    6.00   0
  -3  -2   8 2113.60   23.86   0
  -3  -2  11    6.37    6.00   0
  -2  -5  33    1.19    7.96   0
  -2  -1  20 1439.85   18.15   0
  -1  -4  42  161.12   10.50   0
   2  -3  47   -0.33    8.29   0
   3  -5  53    3.07    9.12   0
  -2  -4  35    4.23    8.35   0
  -2  -3  34  409.74   12.38   0
  -2  -2  30  196.27    9.26   0
  -1  -6  41   -7.23    8.87   0
   2  -4  51    2.19    8.93   0
  -3  -3  21   -0.03    7.29   0
  -3  -2  14  371.31   10.98   0
  -2  -6  31    4.13    7.93   0
  -1  -5  43   -4.20    8.85   0
  -1  -3  41    7.96    7.28   0
  -1  -2  37   -1.27    6.72   0
  -1  -1  30  606.63   13.15   0
   0  -3  45   -2.75    8.43   0
   1  -4  50  167.26    9.68   0
   1  -2  42  326.19   11.41   0
  -3  -4  22  160.41    9.09   0
  -2  -1  23   -0.29    6.58   0
   0  -6  48  110.54   10.38   0
  -3  -2  17    2.12    5.53   0
  -2  -5  36  221.12   11.04   0
   2  -1  33   -2.00    5.97   0
  -3  -4  25   -0.24    7.66   0
  -3  -3  24  598.95   12.84   0
   0  -4  49   -4.88    9.04   0
   1  -1  35    3.08    5.41   0
   2  -2  43   -5.05    7.18   0
   3  -4  52  170.09   10.37   0
  -3  -2  20  568.55   12.31   0
  -2  -6  34  100.92    9.04   0
  -2  -4  38   88.86    8.62   0
  -2  -3  37   -5.41    7.86   0
  -2  -2  33   -6.36    6.61   0
  -1  -4  45    3.57    9.29   0
   0  -5  50   72.73    9.36   0
   2  -5  55    2.57    8.60   0
  -3  -5  23    1.83    7.29   0
  -2  -1  26  518.61   11.60   0
  -1  -6  44   93.43    9.96   0
  -1  -5  46   59.89    9.73   0
  -1  -2  40  461.78   12.53   0
  -1  -1  33    0.74    7.14   0
   1  -3  49   -5.02    7.29   0
  -3  -3  27   -1.17    7.57   0
  -3  -2  23   -0.74    7.06   0
   1  -5  54   48.14    8.76   0
   2  -3  50  170.05   11.24   0
   3  -5  56   83.06   10.55   0
   1  -4  53   -5.16    9.12   0
   1  -2  45    5.81    7.40   0
   2  -4  54   30.24    9.14   0
  -3  -5  26  148.51    9.69   0
  -2  -6  37   -8.00    7.73   0
  -2  -4  41    4.54    8.96   0
  -2  -2  36  377.25   11.48   0
   0  -1  37    0.79    5.70   0
  -3  -3  30  174.80    9.53   0
  -2  -3  40  422.94   12.53   0
  -2  -1  29    9.19    6.03   0
  -1   0  20 1505.21   19.82   0
  -3  -4  31  -11.73    8.47   0
  -1  -4  48  192.10   10.39   0
   0  -5  53   -7.22    8.55   0
   0  -4  52  129.20    9.48   0
   1  -1  38  238.81    9.32   0
   2  -1  36  865.15   16.85   0
  -3  -5  29    1.57    7.73   0
  -3  -1  13    5.93    5.92   0
  -1  -5  49    4.92    8.63   0
  -1  -3  47    4.46    8.74   0
  -1  -2  43   -3.25    8.21   0
  -1  -1  36  901.28   14.72   0
  -3  -1  10 1078.87   16.75   0
  -3  -1  16 2055.07   21.93   0
  -1   0  23    0.00    6.10   0
   1  -3  52  254.80   11.82   0
   2  -5  58   75.96    9.25   0
   2  -2  46  257.77   10.78   0
  -3  -4  34  163.46   10.28   0
  -3  -1   7    9.34    5.80   0
  -2  -4  44  199.48   11.22   0
  -2  -2  39    1.40    7.08   0
  -2  -1  32 1196.50   16.34   0
   1  -5  57   -8.12    8.96   0
  -3  -5  32  175.47   10.00   0
  -2  -3  43   -4.48    7.41   0
   0  -2  47   -0.65    6.81   0
   0  -1  40  720.90   13.80   0
   1  -4  56  130.93   10.21   0
   1  -2  48  316.20   11.69   0
  -1  -4  51    1.67    8.72   0
   0   0  27   -4.20    5.67   0
   2  -4  57    7.80    9.02   0
   2  -3  53  -11.29    8.30   0
  -3  -2  32  655.24   13.07   0
  -2  -5  45    3.63    8.22   0
  -1  -1  39    3.46    6.18   0
  -1   0  26 1180.26   16.69   0
   1  -1  41   -3.00    6.81   0
  -3  -4  37    0.46    8.18   0
  -3  -1  25    4.73    6.68   0
  -2  -1  35   -3.92    6.39   0
  -2   0  13    1.68    4.95   0
  -2   0  16 2896.74   26.17   0
  -1  -3  50  183.26   10.75   0
  -1  -2  46  126.22    8.65   0
  -3  -5  35   -0.05    8.38   0
  -2  -4  47   -5.38    9.02   0
  -2  -2  42  395.12   11.15   0
  -2   0  19   -3.15    5.23   0
   2  -1  39    1.68    6.54   0
  -3  -2  35    8.27    7.61   0
  -2  -3  46   39.04    8.18   0
   0  -3  54   62.29    9.85   0
   1  -3  55   -4.74    8.41   0
  -4  -3  17    8.01    6.74   0
  -3  -3  39   -5.84    8.66   0
  -3  -1  28  696.99   13.52   0
  -2   0  22 1890.57   20.45   0
  -1   0  29    3.30    5.37   0
   0  -2  50  194.49   10.52   0
   0  -1  43   -4.80    6.03   0
   0   0  30  162.46    7.78   0
   2  -2  49   -4.35    7.24   0
  -3  -5  38   50.78    8.89   0
  -3  -4  40  139.97    9.61   0
  -2  -1  38  304.93   10.89   0
  -1  -4  54   38.92    9.03   0
  -1  -1  42  329.80   10.37   0
   1  -4  59    2.15    8.93   0
   1  -2  51    3.25    8.09   0
  -4  -3  23   -5.36    7.40   0
  -2  -2  45   10.07    8.50   0
  -2   0  25   -4.08    5.42   0
  -1  -2  49   -1.60    7.93   0
   1   0  28 1275.04   19.57   0
  -4  -2  16  719.15   14.21   0
  -3  -2  38   90.69    9.14   0
  -3  -1  31    1.05    6.36   0
  -1  -3  53   -8.65    9.20   0
  -1   0  32 1735.69   19.96   0
   0  -4  58   64.79    9.09   0
   1  -1  44  420.69   12.25   0
   2  -4  60   76.49   10.42   0
   2  -3  56  156.22   10.41   0
  -4  -4  24  285.37   10.99   0
  -4  -3  26  144.41    9.52   0
  -4  -2  13   -0.36    6.03   0
  -4  -2  19   -1.79    5.75   0
  -3  -3  42  138.33   10.20   0
  -2  -4  50  102.57    9.02   0
  -2  -3  49    0.50    7.78   0
  -2   0  28 1113.87   16.17   0
   0   0  33   -2.92    5.99   0
  -4  -2  10  317.82   10.66   0
  -4  -2  22  350.97   10.40   0
  -2  -1  41    1.47    7.97   0
  -4  -4  27    2.10    7.17   0
  -4  -3  29    0.11    7.46   0
  -4  -2  25   -1.68    7.18   0
  -3  -1  34  505.60   11.65   0
   0  -3  57    0.27    8.52   0
   0  -2  53   -0.50    8.64   0
   0  -1  46  111.65    8.12   0
   1  -3  58  101.58   10.30   0
  -3  -2  41    7.08    7.20   0
  -2  -2  48  280.12   11.61   0
  -2   0  31   -2.57    6.85   0
  -1  -4  57    2.58    8.37   0
   1   0  31    2.44    5.32   0
  -4  -4  30   76.10    8.51   0
  -4  -3  32  268.79   11.27   0
  -4  -2  28  428.95   11.94   0
  -3  -3  45   -2.71    7.93   0
  -3  -1  37    3.63    7.41   0
  -2  -4  53  -11.69    8.29   0
  -2  -3  52  116.45   10.04   0
  -1  -3  56  117.90   10.15   0
   0   0  36  576.51   12.92   0
   1  -2  54  114.70    9.62   0
  -4  -2  31    7.95    7.76   0
  -3   0  18  504.92   11.34   0
  -3   0  21   -5.12    6.24   0
  -2  -1  44  312.09   10.49   0
   1  -1  47    4.17    7.07   0
  -4  -4  33    2.24    7.86   0
  -4  -3  35   -0.81    7.79   0
  -4  -1  18  708.55   13.78   0
  -3  -2  44  220.74   11.06   0
  -3   0  24 1591.24   18.70   0
  -2   0  34  265.96    9.26   0
  -4  -1  15    3.21    6.07   0
  -4  -1  21   -0.73    5.60   0
  -4  -1  24  644.94   13.18   0
  -2  -2  51   -2.43    9.04   0
   0  -1  49    0.33    7.71   0
   1   0  34  946.51   16.62   0
  -4  -4  36  114.39   10.08   0
  -4  -2  34  152.69    8.71   0
  -4  -1  12 1090.81   16.77   0
  -3  -3  48  138.04    9.78   0
  -3  -1  40  437.18   11.52   0
  -3   0  27   -0.72    5.69   0
   0  -3  60  140.47   10.16   0
   0  -2  56   94.80   10.01   0
  -4  -3  38  110.02    9.24   0
  -4  -1  27   -0.95    6.15   0
  -2  -3  55    3.29    8.74   0
  -2  -1  47    2.02    8.25   0
  -2   0  37   -1.20    7.23   0
   0   0  39    3.79    5.40   0
   1  -3  61    4.91    8.00   0
  -3  -2  47    7.66    8.59   0
  -3   0   9    0.36    5.02   0
  -3   0  30  552.18   11.80   0
  -4  -1   9   11.12    6.35   0
   1  -2  57   -7.58    8.23   0
  -4  -4  39    2.40    7.98   0
  -3  -1  43   -7.16    7.09   0
  -3   0  33   10.90    7.21   0
  -1  -1  51   -4.05    7.97   0
   1  -1  50  259.17   10.87   0
   1   0  37    0.53    5.92   0
  -4  -3  41    7.19    7.66   0
  -3  -3  51    1.06    7.75   0
  -2  -2  54   20.72    8.57   0
  -2   0  40  745.16   13.44   0
   0  -1  52  282.17   11.28   0
  -2  -1  50  164.76   10.19   0
   0   0  42  740.46   13.85   0
  -4  -1  36  443.65   12.13   0
  -3  -2  50  141.16    9.63   0
  -3  -1  46   61.46    9.52   0
  -3   0  36  519.74   11.68   0
  -1  -2  58   92.36    9.76   0
  -1   0  44  431.68   11.95   0
   0  -3  63    2.26    8.01   0
   0  -2  59    1.31    7.84   0
  -4  -3  44  107.22    9.45   0
  -2   0  43    7.52    6.38   0
  -1  -1  54  104.44    9.88   0
   1   0  40  724.51   14.68   0
  -4  -1  39    8.21    6.83   0
  -3   0  39    5.71    6.42   0
  -2  -2  57    3.71    8.16   0
   1  -2  60  132.42   10.13   0
   1  -1  53    0.96    8.02   0
  -4   0  20 1205.93   16.37   0
  -3  -2  53    5.04    8.29   0
  -2  -1  53    8.79    8.09   0
   0  -1  55   -4.25    7.74   0
   0   0  45   -3.73    6.80   0
  -5  -2  21    8.80    7.34   0
  -5  -2  24  394.45   11.78   0
  -4  -3  47    6.20    7.65   0
  -4  -2  46   88.38    9.51   0
  -4   0  17   -4.11    5.91   0
  -4   0  29   -4.73    7.11   0
  -3  -1  49    2.44    7.25   0
  -1   0  47    2.75    6.98   0
  -5  -2  27   -9.64    7.10   0
  -4  -1  42  218.50    9.52   0
  -3   0  42  238.28    9.70   0
  -2   0  46  245.14    9.63   0
  -2   1  21   10.92    6.18   0
  -2   1  24 1836.42   20.25   0
  -1  -2  61   -7.85    8.38   0
  -1   1  22  462.21   11.66   0
  -1   1  25   -1.97    5.76   0
   0  -2  62   49.93    9.28   0
  -5  -3  31    0.22    7.57   0
  -5  -2  30  172.48    9.38   0
  -4   0  14  321.06    9.99   0
  -4   0  32  455.71   11.15   0
  -2   1  27    4.17    5.30   0
  -1   1  19    0.11    5.49   0
  -5  -2  33    3.86    7.95   0
  -4   0  35   -2.50    7.61   0
  -2   1  18 1204.83   17.00   0
  -2   1  30  607.78   12.76   0
  -1  -1  57   -2.17    8.07   0
   1   0  43    0.96    6.15   0
  -5  -3  34  104.18    8.45   0
  -4  -2  49    7.20    8.06   0
  -4  -1  45    6.10    8.14   0
  -3  -2  56  100.87    9.46   0
  -3   0  45   -2.83    7.97   0
  -2  -2  60   83.35    8.73   0
   0   0  48  444.51   12.30   0
  -5  -2  36  145.65    9.96   0
  -5  -1  20  483.89   12.11   0
  -5  -1  23    1.72    6.85   0
  -5  -1  26  212.34    9.85   0
  -4   0  11   -0.45    5.42   0
  -2   1  15   -1.91    5.72   0
  -2   1  33    7.58    5.76   0
  -1   0  50  250.10   10.83   0
   0  -1  58  138.33    9.98   0
  -5  -3  37    1.19    7.01   0
  -5  -1  29    4.87    6.33   0
  -4   0  38  128.35    8.27   0
  -3   1  23   -5.44    6.32   0
  -3   1  26  535.86   11.91   0
  -1   1  34  900.81   14.99   0
  -5  -1  17    2.44    6.17   0
  -5  -1  32  377.01   10.86   0
  -3   1  20 1393.69   17.31   0
  -3   1  29   -4.44    5.90   0
  -2   1  36  896.42   14.90   0
  -1  -2  64   64.10    9.16   0
  -5  -2  39    6.66    8.33   0
  -5  -1  35   -0.83    7.67   0
  -4  -2  52  113.06    9.43   0
  -4  -1  48  126.61    8.94   0
  -4   0  41   -7.18    7.63   0
  -3   1  32 1188.00   15.86   0
   0  -2  65    5.22    9.07   0
   1   0  46  105.27    8.11   0
  -5  -1  14  372.61   11.12   0
  -3  -1  55   -2.21    7.45   0
  -3   1  17   10.05    5.16   0
  -1  -1  60  150.52    9.84   0
  -1   1  37   -3.27    5.45   0
   0   0  51    2.90    7.27   0
   0   1  26 1102.11   17.46   0
  -5  -2  42   72.02    8.65   0
  -5  -1  38  127.63    9.30   0
  -4   0   8 1481.15   19.58   0
  -3   1  35   -0.83    6.22   0
  -2   1  39    3.16    5.97   0
  -1   0  53    1.61    7.79   0
   0   1  29   -1.70    5.42   0
  -4  -1  51   -1.62    8.15   0
   0   1  32 1687.51   20.75   0
  -5  -1  41   10.96    8.29   0
  -3   1  14 1552.96   18.80   0
  -3   1  38  323.78    9.93   0
  -1   1  40  726.55   13.41   0
   0  -1  61   -6.27    7.64   0
  -5  -2  45   -8.87    7.59   0
  -5   0  22  244.02    9.76   0
  -5   0  25    3.84    7.08   0
  -5   0  31   -4.96    7.51   0
  -3  -1  58  102.48    9.28   0
  -4   0  47    1.25    8.34   0
  -4   1  25   -3.38    5.66   0
  -4   1  28  671.71   12.53   0
  -4   1  31    5.19    7.18   0
  -3   1  41    4.85    7.13   0
   0   1  35   -1.40    5.76   0
  -5   0  19    2.21    6.34   0
  -4  -1  54   51.74    9.05   0
  -4   1  22  363.05    9.84   0
  -2  -1  62   43.77    8.63   0
  -1  -1  63    4.34    8.06   0
  -1   1  43   -1.82    6.66   0
   0   0  54   35.14    7.65   0
  -4   1  34  524.00   11.56   0
  -3   0  54   75.30    9.03   0
   0   1  38  245.42    9.64   0
  -5   0  16  672.11   13.35   0
  -4   1  37    4.25    7.61   0
  -3   1  11   11.73    4.93   0
  -5   0  40  183.84   10.17   0
  -4   0   5   -1.51    5.05   0
  -3  -1  61   10.46    8.56   0
  -4   1  40  461.42   12.14   0
  -2   0  58   81.21    9.03   0
  -2   1  48  325.41   11.15   0
  -1   1  46   96.94    8.50   0
  -5   0  43   -7.70    7.97   0
  -4  -1  57   -8.14    8.61   0
  -3   1  47   10.35    7.83   0
   0   1  41   -0.58    6.13   0
  -5   0  13   -1.51    5.62   0
  -4   0  53    9.49    8.16   0
  -4   1  43    8.20    7.65   0
  -1   0  59    2.38    8.12   0
   0   0  57    2.93    7.05   0
  -6  -1  28  145.60    9.93   0
  -5   0  46   66.08    8.24   0
  -4   1  13    1.32    4.80   0
  -3   1  50  159.44   10.03   0
  -2   1  51    7.05    7.54   0
  -1   1  49   -4.83    7.02   0
   0   1  44  420.03   11.75   0
  -6  -1  25    1.03    7.10   0
  -6  -1  31    2.55    7.45   0
  -6  -1  34  151.01    9.50   0
  -5   1  33    5.93    7.50   0
  -4   1  46   69.72    7.98   0
  -2   0  61   -4.57    8.11   0
  -6  -1  37   -2.03    8.01   0
  -5   1  24  638.20   12.32   0
  -5   1  36  442.70   11.82   0
  -4   0  56   63.07    8.80   0
  -5   0  10  677.93   13.77   0
  -5   0  49    2.11    7.72   0
  -5   1  21    8.29    6.44   0
  -6  -1  40  173.78    9.55   0
  -5   1  39   -4.60    6.85   0
  -4   1  49    4.04    7.05   0
  -2   1  54  102.67    9.56   0
  -1   0  62   40.73    8.74   0
  -1   1  52  282.65   10.75   0
   0   1  47    0.94    6.51   0
  -6   0  27    4.06    7.15   0
  -6   0  30  141.55    9.03   0
  -6   0  33   -0.60    7.60   0
  -5   1  42  220.63   10.24   0
  -4   1  10 1093.67   16.27   0
  -3   2  28 1339.52   16.92   0
  -3   2  31    1.40    6.85   0
  -6  -1  43   13.16    7.18   0
  -6   0  24  549.62   12.74   0
  -6   0  36  135.68    9.19   0
  -5   1  18  721.02   12.86   0
  -4   0  59   10.25    8.71   0
  -3   2  25    6.95    6.30   0
  -3   2  34  579.34   11.92   0
  -2   2  29   -2.48    6.18   0
   1   1  30  547.50   13.83   0
  -6   0  39    0.43    8.00   0
  -5   1  45   11.12    8.47   0
  -4   1  52  202.26   10.32   0
  -3   0  63   -0.67    8.30   0
  -3   2  37   -1.22    6.21   0
  -2   0  64  102.34    9.67   0
  -2   2  26 1243.52   16.40   0
   1   1  33    3.01    5.39   0
  -6   0  21   -3.96    6.49   0
  -4   2  30  200.77    9.02   0
  -4   2  33    7.25    6.78   0
  -3   2  22  456.84   10.68   0
  -3   2  40  422.00   11.61   0
  -6   0  42  119.96    9.12   0
  -5   0  55    2.58    8.54   0
  -5   1  15   -0.24    5.90   0
  -4   2  27    2.59    5.82   0
  -4   2  36  374.79   10.47   0
  -2   1  57    1.06    8.11   0
  -2   2  23    5.86    5.03   0
  -1   1  55   -0.67    7.73   0
   0   1  50  265.11   10.23   0
  -5   0   7    1.13    5.45   0
  -5   1  48  144.85   10.16   0
  -4   2  24 1783.02   18.76   0
  -4   2  39   -1.66    7.21   0
  -3   2  43   10.12    7.44   0
  -2   2  41   -0.09    6.76   0
  -1   0  65    3.98    7.31   0
  -6   0  18  234.96    9.56   0
  -6   0  45    0.65    7.68   0
  -4   1  55   -2.56    7.61   0
  -3   2  19    2.56    5.09   0
  -4   2  21   -4.37    5.52   0
  -4   2  42  387.29   10.70   0
  -3   1  59    2.51    8.29   0
  -2   2  20 3446.79   26.96   0
  -2   2  44  687.49   13.56   0
  -6   0  48  136.23    9.76   0
  -6   1  29   -2.32    6.92   0
  -6   1  32  372.99   11.64   0
  -6   1  35    6.28    7.75   0
  -5   1  51   -3.74    7.37   0
  -4   1   7    6.59    5.29   0
  -1   2  30  575.71   12.38   0
  -1   2  33    3.08    5.81   0
  -6   1  26  215.10    9.73   0
  -5   1  12 1125.67   16.53   0
  -5   2  32  705.06   13.36   0
  -4   1  58   95.68    9.27   0
  -4   2  45   -2.53    6.91   0
  -2   1  60  160.17   10.37   0
  -1   1  58  157.62    9.70   0
  -1   2  27   -1.81    5.33   0
  -1   2  36  857.67   14.39   0
  -6   1  23    2.93    7.09   0
  -5   2  29    3.18    6.09   0
  -5   2  35   -0.26    6.60   0
  -5   2  38   89.80    8.61   0
  -4   2  18 1038.02   14.84   0
  -3   2  16 2023.53   20.64   0
  -2   2  47    3.96    7.35   0
  -1   2  39    1.23    6.39   0
  -5   1  54   44.71    8.49   0
  -5   2  26  594.29   11.97   0
  -5   2  41    2.43    8.19   0
  -2   2  17    0.19    4.87   0
  -1   2  24 1749.19   20.37   0
  -1   2  42  316.43   10.50   0
  -6   1  20  479.85   11.84   0
  -5   2  44  245.05   10.53   0
  -3   2  52  274.81   10.99   0
  -2   2  50  207.74    9.97   0
  -6   1  47   -3.65    8.46   0
  -5   1  57    0.99    7.76   0
  -4   2  15   -0.54    5.80   0
  -4   2  51    5.91    7.03   0
  -2   1  63    3.76    8.45   0
  -1   1  61    1.42    7.26   0
  -1   2  45   -7.56    6.69   0
  -5   1   9   14.24    5.70   0
  -5   2  47    3.72    8.16   0
  -6   1  17    1.81    6.23   0
  -6   1  50   77.50    8.72   0
  -3   2  13   18.32    5.26   0
  -2   2  53   -5.30    7.85   0
  -7   0  35   -5.72    7.55   0
  -5   2  50  171.66   10.21   0
  -4   2  54   39.66    8.92   0
  -3   2  55    1.01    7.92   0
  -2   2  14  338.01   10.27   0
  -1   2  48  320.95   10.60   0
  -7   0  38   25.61    7.27   0
  -6   2  37    2.34    7.80   0
  -5   2  17    3.95    5.83   0
  -4   1   4 1234.13   18.36   0
  -6   2  28  442.09   11.67   0
  -6   2  40  217.23   10.58   0
  -6   2  43    3.53    7.98   0
  -5   2  53   -4.51    8.15   0
  -3   2  58   96.08    9.81   0
  -2   2  56  103.46    8.74   0
  -1   2  51   -1.19    7.68   0
  -6   1  14  367.26   10.96   0
  -6   2  25   -2.61    6.03   0
  -7   1  31    3.59    7.33   0
  -7   1  34  147.59    9.37   0
  -7   1  37   -1.37    7.47   0
  -6   2  46   90.86    8.73   0
  -4   3  32  858.45   13.93   0
  -4   3  35   -0.15    6.42   0
  -4   3  38  179.23    9.63   0
  -7   1  28  145.52    9.05   0
  -7   1  40  194.31   10.18   0
  -6   2  22  344.73    9.97   0
  -5   2  14  378.08    9.87   0
  -5   2  56   88.64    9.06   0
  -4   3  29    1.07    5.92   0
  -4   3  41    9.19    6.70   0
  -3   2  10 1969.76   21.13   0
  -3   3  33    0.01    5.86   0
  -3   3  36  772.13   13.47   0
   0   2  34  269.56    9.74   0
   0   2  37   -1.93    5.85   0
  -7   1  43   -0.61    7.83   0
  -6   2  49   -5.57    7.50   0
  -5   1   6  345.68   10.66   0
  -5   3  34  441.24   11.88   0
  -4   2  60   93.44    8.90   0
  -4   3  26  655.64   12.63   0
  -4   3  44  285.27   10.55   0
  -2   2  59   -4.26    7.97   0
  -1   2  54  102.94    8.53   0
   0   2  31    0.11    5.03   0
   0   2  40  761.23   14.79   0
  -7   1  25   -4.02    6.74   0
  -5   3  31   -2.25    6.40   0
  -5   3  37   12.48    6.90   0
  -3   2  61   -9.19    8.39   0
  -3   3  27    5.76    5.54   0
  -6   2  19   -2.97    6.69   0
  -6   2  52  113.23    9.16   0
  -5   3  28  376.97   11.03   0
  -5   3  43  -11.60    8.02   0
  -4   3  47    5.23    8.33   0
  -3   3  45   -4.71    6.33   0
  -2   2  11    0.69    4.74   0
   0   2  28 1037.71   16.79   0
  -7   1  22  142.03    9.37   0
  -6   1  11    1.79    5.78   0
  -4   3  23   13.92    5.70   0
  -3   3  24 1088.73   15.55   0
  -5   3  25    6.89    5.93   0
  -5   3  46   45.52    8.00   0
  -3   3  48  180.32    8.87   0
  -2   3  34  588.61   12.59   0
  -2   3  37    0.01    6.60   0
  -7   2  33    8.91    7.59   0
  -7   2  36  165.86    9.54   0
  -7   2  39   -8.92    7.52   0
  -5   2  11    2.45    4.97   0
  -5   3  49    2.32    8.50   0
  -2   2  62   52.75    8.55   0
  -2   3  31   -1.55    6.31   0
  -2   3  40  432.20   11.00   0
   0   2  25   -0.79    4.82   0
  -7   2  30  181.50    9.51   0
  -7   2  42   64.10    8.48   0
  -6   2  16  715.93   13.62   0
  -6   3  33    9.33    7.70   0
  -6   3  36  286.04   10.69   0
  -6   3  39   -4.10    8.00   0
  -5   3  22  280.90    9.53   0
  -4   3  20  878.77   13.72   0
  -3   3  21   -1.86    6.21   0
  -3   3  51   -0.73    7.63   0
  -2   3  43    4.10    7.16   0
  -7   2  27    6.49    7.50   0
  -7   2  45  -11.74    7.59   0
  -6   3  30  193.27    9.25   0
  -6   3  42  171.61    9.85   0
  -2   3  46  123.62    8.85   0
  -6   3  45    1.69    8.04   0
  -5   3  52  139.44    9.20   0
  -3   2   7    0.26    4.54   0
  -3   3  54   91.51    8.74   0
  -5   3  19    2.12    5.71   0
  -5   3  55   -2.80    7.97   0
  -4   3  17   -2.78    5.38   0
  -4   3  56  123.41    9.30   0
  -2   3  49   -3.06    7.14   0
  -6   2  13    2.87    6.17   0
  -5   1   3    2.27    5.38   0
  -3   3  18 1321.26   16.59   0
  -7   2  21    2.42    6.91   0
  -6   3  51    1.96    7.49   0
  -5   2   8 2184.38   22.29   0
  -4   2   6  787.95   14.27   0
  -3   3  57  -10.10    8.29   0
  -2   3  52  264.30   11.29   0
  -4   3  59    9.50    7.78   0
  -2   3  22  439.71   10.55   0
  -6   3  54   52.49    8.21   0
  -5   3  16 1719.06   18.55   0
  -7   3  32  253.88   10.56   0
  -4   3  14  705.62   13.01   0
  -7   2  18  158.69    8.76   0
  -7   3  29    1.26    7.97   0
  -7   3  44  119.47    8.73   0
  -3   3  15   -0.66    5.86   0
  -3   3  60  148.31    9.22   0
  -2   3  55   -0.01    7.66   0
  -1   3  35    1.32    5.85   0
  -1   3  38  316.43   10.43   0
  -1   3  41   -0.98    6.07   0
  -7   3  47    5.38    8.40   0
  -6   2  10  338.73   10.39   0
  -6   3  18  402.03   11.07   0
  -5   4  36  316.57   11.08   0
  -5   4  39    4.84    8.10   0
  -5   4  42  168.54   10.26   0
  -4   4  40  420.79   11.85   0
  -1   3  32 1143.06   16.91   0
  -1   3  44  308.68   10.54   0
  -7   3  26  160.95    9.16   0
  -5   4  33    8.64    6.72   0
  -5   4  45   -0.31    8.59   0
  -4   4  34  245.25    9.52   0
  -2   3  19    3.37    4.81   0
  -8   2  35    6.15    6.89   0
  -5   4  30  302.75    9.88   0
  -4   4  31   -3.10    6.26   0
  -1   3  29    4.33    5.94   0
  -1   3  47   -4.10    6.43   0
  -8   2  32  163.07    9.54   0
  -6   4  35    4.55    7.56   0
  -6   4  38   98.08    8.13   0
  -6   4  41   -1.23    8.05   0
  -5   4  27   10.40    7.38   0
  -5   4  48  189.58    9.59   0
  -4   4  28  634.23   12.73   0
  -8   2  29   -0.56    7.32   0
  -7   2  15    6.84    5.91   0
  -7   3  23    4.21    6.21   0
  -6   4  32  335.96   10.38   0
  -6   4  44  231.15    9.98   0
  -5   2   5    8.56    5.59   0
  -4   4  49   -2.55    8.47   0
  -3   4  38  167.81    9.31   0
  -6   3  15   -0.53    5.51   0
  -6   4  29   -0.22    7.33   0
  -6   4  47   -0.93    8.37   0
  -5   4  51    6.14    7.56   0
  -4   3  11   17.93    5.46   0
  -3   4  35    1.58    6.01   0
  -3   4  41    3.13    6.29   0
  -3   4  44  278.73   10.81   0
  -1   3  26  516.55   11.93   0
  -6   4  50  103.89    9.61   0
  -5   4  24  896.31   14.09   0
  -4   4  25   -4.13    5.99   0
  -4   4  52  139.90    9.60   0
  -3   3  12 2591.45   23.41   0
  -7   3  20  425.05   11.65   0
  -6   4  26  354.36   11.14   0
  -4   2   3    0.71    5.19   0
  -3   4  47    2.80    8.00   0
  -2   3  16 1992.84   20.70   0
  -8   3  37    1.74    7.90   0
  -6   4  53   -3.74    8.35   0
  -4   4  55   -5.78    8.46   0
  -7   4  37   -4.71    7.67   0
  -7   4  40  141.00    9.04   0
  -5   4  21    3.27    5.99   0
  -4   4  22  686.62   12.53   0
  -4  -4  15   -1.92    7.36   0
  -3  -3  30  195.63    8.72   0
  -2  -5  39   -4.73    7.40   0
  -2  -2  33   -0.93    5.91   0
  -2  -1  26  542.19   11.61   0
  -1  -6  44   92.77    8.50   0
  -1  -2  37    0.95    5.56   0
   1  -1  29    1.91    4.55   0
  -4  -5  10  123.47    8.20   0
  -4  -3  17    4.59    6.70   0
  -4  -2   4  856.42   14.33   0
  -4  -2   7    0.27    6.16   0
   0  -1  31   -0.44    5.34   0
   1  -2  39   -4.08    6.39   0
  -4  -5  13   -7.60    6.80   0
  -4  -4  18  184.57    8.49   0
  -4  -2   1    1.38    5.67   0
  -4  -2  10  341.60   10.16   0
  -3  -5  32  188.04    9.54   0
  -3  -1  19   12.44    6.14   0
  -1  -4  45    4.16    8.00   0
   1  -5  51    3.71    8.34   0
  -4  -2  13    4.91    6.29   0
  -2  -4  41    2.98    7.95   0
  -1  -5  46   46.56    7.81   0
   0  -3  45    1.47    6.83   0
  -4  -4  21    0.13    7.31   0
  -4  -2  -2  546.90   12.46   0
  -3  -4  34  159.30    8.63   0
  -3  -3  33    9.68    7.59   0
  -3  -2  29   -0.52    6.15   0
   0  -5  50   72.02    8.83   0
  -3  -1  22  357.22    9.73   0
  -2  -5  42  129.98    8.95   0
  -2  -2  36  354.60   10.56   0
  -2  -1  29    7.04    5.90   0
   1  -3  46  124.20    8.48   0
  -4  -5  19   -2.92    6.86   0
  -3  -5  35    1.29    7.71   0
  -1  -3  44  257.23    9.43   0
   0  -4  49    3.20    7.76   0
   0  -2  41    4.40    6.36   0
  -4  -4  24  285.86   10.18   0
  -1  -2  40  420.98   10.56   0
  -1  -1  33   10.09    5.93   0
  -4  -5  22   84.54    8.53   0
  -3  -4  37  -10.86    7.91   0
  -3  -2  32  700.40   13.11   0
  -2   0  13    0.67    4.54   0
  -4  -3  26  140.70    8.81   0
  -4  -2  22  361.16   10.20   0
  -3  -3  36  300.10    9.91   0
  -3  -1  25   -1.68    5.46   0
  -1  -5  49    4.66    7.40   0
  -1  -4  48  202.44    9.75   0
   0  -1  34  933.62   15.38   0
  -4  -5  25   -6.50    7.51   0
  -2  -5  45    9.25    7.79   0
  -2  -1  32 1192.56   15.87   0
  -2   0  16 2995.56   25.06   0
   1  -1  32 1659.97   21.76   0
  -3  -5  38   34.75    8.40   0
  -2  -2  39    8.16    6.07   0
   0  -3  48  195.70    9.71   0
   1  -2  42  316.54   10.87   0
  -4  -3  29    9.90    7.46   0
  -4  -2  25   -5.72    7.08   0
  -4  -1   6  378.47   10.22   0
  -4  -1   9   16.42    4.98   0
  -4  -1  12 1101.35   15.30   0
  -1  -3  47    5.03    7.29   0
   0  -5  53   -5.79    7.10   0
  -4  -5  28   74.77    8.27   0
  -4  -4  30   83.00    8.56   0
  -4  -1   3   -0.18    5.06   0
  -3  -4  40  155.21    9.70   0
  -3  -3  39    6.76    7.64   0
  -3  -2  35    1.23    6.43   0
  -3  -1  28  686.42   12.14   0
  -2   0  19    1.39    4.63   0
  -1  -2  43   -4.00    6.84   0
  -1  -1  36  855.63   13.86   0
   0  -4  52  135.14    9.33   0
   0  -2  44  688.10   13.68   0
  -4  -2  28  438.98   10.98   0
  -4  -1  18  684.10   12.07   0
  -4  -4  33    4.56    7.61   0
  -4  -3  32  258.60    9.41   0
  -4  -1   0 1372.73   18.01   0
  -3   0   9   -0.68    5.13   0
  -2  -1  35   -1.31    5.54   0
  -2   0  22 1935.67   19.56   0
  -1  -4  51    0.66    7.25   0
  -4  -1  21    4.77    5.49   0
  -3  -2  38  102.05    8.19   0
  -3  -1  31   12.27    5.76   0
  -3   0  12 1950.17   19.77   0
   0  -1  37   -3.65    5.71   0
  -5  -3  10  176.11    8.98   0
  -5  -3  13    2.54    6.91   0
  -3  -4  43   -6.10    7.85   0
  -3  -3  42  160.29    9.32   0
  -3   0  15   -0.45    4.63   0
  -5  -3   7    3.14    6.42   0
  -5  -3  16  406.59   11.15   0
  -4  -2  31    0.32    6.39   0
  -4  -1  24  626.21   12.10   0
  -3   0  18  520.69   11.13   0
   0  -3  51    2.38    8.00   0
  -5  -4  14   65.08    7.39   0
  -5  -3  19   -3.44    7.44   0
  -4  -4  36  106.93    8.59   0
  -4  -3  35   13.34    6.98   0
  -4  -1  -3   16.16    5.28   0
  -3   0   3    1.29    3.97   0
  -2   0  25   -2.37    4.79   0
  -1  -3  50  148.20    8.84   0
  -1  -2  46  137.44    8.61   0
  -1  -1  39   -3.89    6.26   0
   1  -1  35    0.22    4.76   0
  -5  -4  17    1.42    7.16   0
  -5  -2   9   -3.34    6.26   0
  -5  -2  12  374.71   10.54   0
  -3  -1  34  509.96   11.03   0
  -3   0  21   -0.97    5.80   0
  -5  -4  20  107.56    8.13   0
  -5  -3  22  111.06    8.44   0
  -5  -2   6  413.79   10.87   0
  -5  -2  15    3.43    6.59   0
  -4  -2  34  159.20    9.25   0
  -4  -1  27   -0.27    6.86   0
  -3  -2  41   -1.54    7.34   0
  -2  -2  45   -3.07    7.11   0
   0  -4  55   -0.60    6.89   0
   0  -2  47    4.04    6.46   0
  -5  -2  18  165.38    7.83   0
  -4  -3  38  126.66    9.23   0
  -3  -4  46   43.37    8.01   0
  -3  -3  45    0.22    7.75   0
  -2  -3  49   11.13    7.72   0
  -1  -4  54   55.71    7.87   0
  -5  -4  23    1.80    7.43   0
  -5  -3  25   -8.66    7.15   0
  -5  -2   3    4.05    5.70   0
  -5  -2  21   -1.63    6.66   0
  -4  -4  39   -9.41    7.34   0
  -2   0  28 1123.15   15.00   0
  -4  -1  30  171.31    8.67   0
  -3  -1  37    5.05    6.53   0
  -1   0  29    2.65    5.39   0
   0  -1  40  703.81   13.64   0
  -5  -4  26  115.42    8.24   0
  -4  -2  37   -8.16    7.63   0
  -2  -1  41   -0.51    6.58   0
  -5  -3  28  145.69    8.54   0
  -3  -2  44  217.75    9.41   0
  -3   0  27    3.73    5.11   0
  -2  -4  53    7.06    7.75   0
  -1  -3  53    4.49    7.30   0
  -1  -2  49   -6.69    6.89   0
  -1  -1  42  310.56   10.12   0
  -5  -4  29   -4.98    7.24   0
  -4  -3  41    6.21    7.16   0
  -4  -1  33   -0.28    7.11   0
  -4   0  14  299.75    8.65   0
  -2  -2  48  291.98   10.65   0
  -2   0  31   -2.00    4.96   0
  -5  -1   8  765.96   13.38   0
  -5  -1  11   12.31    5.07   0
  -5  -1  14  396.59    9.87   0
  -5  -1  17   -0.17    6.40   0
  -4   0   8 1472.06   17.39   0
  -4   0  17    1.78    4.93   0
  -3  -3  48  138.38    9.08   0
  -2  -3  52  131.44    8.89   0
   0   0  27    0.57    4.44   0
  -4  -2  40  249.27    9.98   0
  -4   0  20 1234.93   15.15   0
  -3  -1  40  453.11   10.76   0
  -1   0  32 1674.38   18.98   0
  -5  -2  30  161.48    8.16   0
  -5  -1   5    0.92    5.48   0
  -4   0   5    0.59    5.20   0
  -4   0  23   -1.69    6.03   0
  -1  -4  57   -0.56    6.75   0
   0  -2  50  182.41    8.93   0
  -5  -3  34  133.23    8.71   0
  -4  -3  44  128.34    8.73   0
  -4  -1  36  473.05   11.55   0
  -2  -1  44  309.64   10.00   0
   0  -1  43    1.07    6.33   0
  -5  -2  33    6.32    7.57   0
  -5  -1  26  222.80    9.23   0
  -4   0  26  717.55   12.67   0
  -1  -1  45    1.11    6.29   0
  -5  -1   2  304.16    9.48   0
  -4  -2  43   -0.61    7.92   0
  -3   0  33    1.74    5.45   0
  -1  -3  56  110.73    8.90   0
  -4   0   2 1331.39   17.26   0
  -2  -2  51   -0.15    7.45   0
  -1  -2  52  256.03   10.20   0
   0   0  30  159.94    7.89   0
  -5  -3  37   -9.74    6.61   0
  -5  -1  29   -0.84    6.17   0
  -4  -1  39   16.43    6.29   0
  -4   0  29    2.83    5.56   0
  -2  -3  55   -2.88    7.03   0
  -1   0  35    1.13    4.49   0
  -5  -2  36  161.00    8.65   0
  -4  -3  47   -7.21    7.20   0
  -2   0  37    6.58    6.13   0
  -5  -1  32  370.27   10.63   0
  -3  -2  50  153.50    9.14   0
  -3   0  36  515.16   10.85   0
  -2  -1  47   -1.07    6.60   0
  -5  -3  40  135.26    8.41   0
  -4  -2  46   89.27    8.32   0
  -4   0  32  466.58   10.43   0
  -6  -3  21    2.38    6.87   0
  -6  -2  14  103.73    7.97   0
  -6  -2  17    3.01    6.63   0
  -5  -2  39   -3.55    7.27   0
  -5   0  13    3.79    5.79   0
  -4  -1  42  212.57    9.55   0
  -4   0  -1    1.96    4.61   0
  -1  -1  48  318.14   10.26   0
   0  -1  46  106.57    8.02   0
  -6  -3  24  144.40    8.60   0
  -6  -2  11    0.39    6.37   0
  -6  -2  20  183.22    9.07   0
  -5  -1  35   -1.02    7.35   0
  -5   0  10  674.48   12.34   0
  -5   0  22  220.18    8.82   0
  -2  -2  54   29.51    7.64   0
  -1   0  38  246.55    8.89   0
   0   0  33    1.10    4.69   0
  -6  -2  23   -2.14    6.54   0
  -5   0  25   -5.85    6.54   0
  -4   0  35    2.06    5.97   0
  -2   0  40  803.29   13.70   0
  -1  -2  55    5.74    7.08   0
  -6  -3  27   -0.22    6.45   0
  -6  -2  26  170.09    8.78   0
  -5   0   7   -0.06    5.42   0
  -2  -3  58   75.52    7.75   0
  -5  -2  42   76.39    8.48   0
  -5  -1  38  109.97    8.70   0
  -5   0  28  614.88   12.02   0
  -4  -2  49    2.54    7.07   0
  -4  -1  45   -5.08    7.74   0
  -3  -2  53   -5.98    7.44   0
  -2  -1  50  146.44    8.85   0
  -6  -2  29   -2.90    7.57   0
  -6  -1  13    0.58    6.31   0
  -6  -1  16  597.75   12.32   0
  -6  -1  19    1.86    6.57   0
  -6  -1  22  153.29    8.79   0
  -4   0  38  132.31    8.56   0
  -3  -1  49    7.64    7.13   0
  -3   1  14 1580.34   17.62   0
  -3   1  17    7.42    4.67   0
  -3   1  20 1460.38   16.64   0
  -6  -1  10  223.46    9.36   0
  -6  -1  25    0.45    7.21   0
  -5   0  31    0.88    6.74   0
  -3   1  23    3.92    4.83   0
  -2   1  18 1181.57   15.81   0
  -6  -2  32  154.14    8.82   0
  -5   0   4 1126.99   15.66   0
  -3   1  11   10.31    4.60   0
  -2   0  43    9.39    6.15   0
  -2   1  15    0.50    4.25   0
  -2   1  21   11.75    4.70   0
  -1  -1  51   -0.43    6.50   0
  -1   0  41   -4.27    5.74   0
   0   0  36  589.35   12.53   0
  -5  -2  45    3.61    7.52   0
  -5  -1  41   -0.92    7.08   0
  -4   1  16 2038.27   19.41   0
  -4   1  19   11.56    5.63   0
  -3   1  26  533.10   10.66   0
  -2  -2  57    5.44    6.90   0
  -2   1  24 1773.90   18.68   0
  -6  -1   7    5.17    5.83   0
  -5   0  34  271.86    9.11   0
  -4  -1  48  135.39    8.67   0
  -4   0  41    3.69    6.73   0
  -4   1  13    2.78    5.42   0
  -4   1  22  355.19    9.13   0
  -4   1  25    1.14    5.27   0
  -3  -2  56   97.11    7.95   0
  -3   1   8 3188.78   25.73   0
  -3   1  29    4.22    5.08   0
  -5  -1  44  141.79    9.27   0
  -5   0   1   -1.19    4.82   0
  -3  -1  52  168.79    8.97   0
  -3   0  45    5.00    7.00   0
  -2  -1  53   -5.14    6.18   0
  -6  -1  34  145.31    8.71   0
  -5   0  37   -7.68    6.19   0
  -4   1  28  682.70   11.80   0
  -3   1  32 1196.57   15.42   0
  -2   0  46  259.04    9.65   0
  -6   0  15    2.47    6.21   0
  -6   0  18  241.77    8.38   0
  -6   0  21    3.31    6.65   0
  -4   0  44  388.25   10.75   0
  -1   0  44  424.98   11.02   0
  -6   0  12  331.02    9.87   0
  -4   1  31    2.11    5.51   0
   0   0  39   -0.98    4.75   0
  -6  -1  37  -11.23    6.57   0
  -5  -1  47    1.30    7.42   0
  -5   0  40  208.86    8.60   0
  -5   1  18  734.69   12.50   0
  -5   1  21    6.19    6.23   0
  -3   1   5    2.41    4.08   0
  -2  -2  60   97.62    8.79   0
  -6   0  30  131.86    8.76   0
  -5   1  24  624.22   11.49   0
  -3   0  48  312.89   10.63   0
  -2   1  33    8.53    4.68   0
  -6  -1  40  201.26    9.30   0
  -6   0   9   -3.21    5.76   0
  -5   1  12 1087.83   14.72   0
  -5   1  27   -1.97    5.84   0
  -3  -1  55   -1.80    6.88   0
  -2  -1  56  175.52    9.34   0
  -6   0  33   -6.91    6.35   0
  -5   0  43    3.41    7.43   0
  -5   1  30  179.64    8.43   0
  -2   0  49   -1.97    6.57   0
  -1   1  25    0.19    4.78   0
  -4  -1  54   43.07    7.64   0
  -4   1   4 1285.10   16.68   0
  -4   1  37   -0.39    5.74   0
  -2   1  36  880.09   13.81   0
  -1   0  47   -1.72    5.91   0
  -7  -2  22   38.61    7.09   0
  -6   0   6  385.04   10.24   0
  -6   0  36  137.64    8.83   0
  -5  -1  50   65.02    8.32   0
  -5   1   9   14.57    5.54   0
  -5   1  33   -8.03    6.74   0
  -1   1  28 1275.91   17.11   0
  -7  -1  21    4.85    6.99   0
  -6  -1  43   -1.58    7.41   0
  -3   0  51   -2.53    6.89   0
  -7  -1  18  194.11    9.05   0
  -7  -1  24  179.85    9.03   0
  -7  -1  27   -2.52    7.17   0
  -5   0  46   78.63    8.64   0
  -4   1  40  443.25   11.09   0
  -3   1  41   -5.04    6.42   0
  -7  -1  15   -3.01    6.61   0
  -6   0  39    4.62    6.91   0
  -5   1   6  363.75    9.68   0
  -3  -1  58   90.77    8.68   0
  -2   1  39   -3.04    5.85   0
  -1   1  31    1.70    4.84   0
  -7  -1  30   51.17    7.64   0
  -6   0   3    3.07    5.62   0
  -2  -1  59    3.78    7.09   0
  -2   0  52  190.12    9.24   0
  -7  -1  33   -2.19    6.42   0
  -6   1  17    3.07    5.20   0
  -6   1  29    1.76    6.94   0
  -5   1  39   -4.21    7.36   0
  -4  -1  57    9.84    7.32   0
  -6   0  42  122.55    8.35   0
  -6   1  14  406.06   10.32   0
  -5   0  49  -13.41    7.19   0
  -4   1   1   17.78    4.82   0
  -3   1  44  322.23   10.15   0
  -1   1  34  911.74   14.54   0
  -7   0  17    8.80    6.77   0
  -7   0  20  156.51    8.71   0
  -7   0  23    6.05    6.48   0
  -7   0  26  190.48    8.88   0
  -6   1  32  370.48   10.83   0
  -4   0  53    2.78    7.05   0
  -3   0  54   70.91    8.20   0
  -2   1  42  333.68    9.93   0
  -7   0  29    1.19    7.23   0
  -6   1  11   11.62    5.95   0
  -5   1   3   -0.98    4.92   0
  -5   1  42  214.12    9.45   0
  -7   0  14  124.74    7.98   0
  -7   0  32  226.64    9.40   0
  -6   0  45   -3.55    7.42   0
  -6   1  35   -3.05    6.08   0
  -3  -1  61    0.96    7.76   0
  -2   0  55   -4.27    7.58   0
  -1   1  37    2.06    5.28   0
  -7   0  11   -0.74    5.89   0
  -6   1   8  767.93   13.08   0
  -6   1  38  139.01    9.05   0
  -5   1  45   -4.11    7.45   0
  -4   2  21   -1.17    5.83   0
  -4   2  24 1857.51   18.05   0
  -3   1  47    1.97    6.76   0
  -6   0  48  125.53    9.03   0
  -4   0  56   73.21    8.24   0
  -4   2  18 1074.24   14.44   0
  -4   2  27    1.77    5.20   0
  -2   1  45    5.55    6.09   0
  -6   1  41    3.83    7.56   0
  -5   2  20  599.57   11.32   0
  -5   2  23    5.41    5.53   0
  -4   2  30  187.54    7.77   0
  -3   0  57   -1.42    7.45   0
  -5   2  17   -2.67    5.77   0
  -5   2  29   -4.77    5.68   0
  -4   1  49   -0.64    6.05   0
  -4   2  15    1.52    4.75   0
  -4   2  33   -5.28    6.37   0
  -3   2  22  466.97   10.06   0
  -3   2  25   -0.50    4.81   0
  -3   2  28 1349.96   16.18   0
  -1   1  40  722.04   13.29   0
  -7   1  19   10.19    6.68   0
  -7   1  22  147.51    8.69   0
  -7   1  25   -1.61    7.18   0
  -6   1   5    3.51    5.36   0
  -5   1   0 1369.40   17.45   0
  -5   1  48  131.98    8.67   0
  -5   2  32  692.34   12.66   0
  -4   1  -2  814.34   14.49   0
  -3   2  19   -1.16    4.57   0
  -6   1  44  144.43    8.81   0
  -5   2  14  359.45    9.54   0
  -4   2  36  350.89    9.88   0
  -3   1  50  164.52    8.28   0
  -7   1  16  586.60   12.14   0
  -7   1  34  163.39    9.14   0
  -5   2  35   -0.71    6.04   0
  -4   2  12  742.58   12.16   0
  -3   2  16 2021.19   19.47   0
  -2   1  48  330.65   10.18   0
  -6   2  22  337.91    9.78   0
  -6   2  25    8.85    6.79   0
  -6   2  28  438.02   10.72   0
  -4   0  59    1.95    6.68   0
  -4   1  52  189.20    9.39   0
  -7   1  13   -9.08    6.16   0
  -7   1  37    5.09    6.86   0
  -6   2  31   -1.30    6.81   0
  -5   2  38   95.33    7.06   0
  -3   0  60   91.73    7.86   0
  -1   1  43   -1.69    5.37   0
  -6   1  47   -4.40    6.68   0
  -6   2  34  167.55    8.81   0
  -3   2  13   17.62    4.80   0
  -3   2  37    3.27    5.19   0
  -7   1  40  209.42    9.30   0
  -6   1   2  319.93    9.59   0
  -5   2  41   -2.96    6.71   0
  -4   2   9    0.71    4.29   0
  -3   1  53   -0.25    7.07   0
  -8   0  22   59.18    7.83   0
  -8   0  25    0.10    6.05   0
  -7   1  10  203.36    8.65   0
  -6   2  37   -0.99    7.12   0
  -2   1  51    5.49    6.24   0
  -6   1  50   72.69    7.71   0
  -6   2  13    0.48    4.97   0
  -5   2   8 2148.03   20.11   0
  -4   1  55    0.66    6.96   0
  -3   2  40  433.30   10.14   0
  -2   2  29    1.48    5.04   0
  -7   1  43    4.27    7.39   0
  -6   2  40  246.71    9.80   0
  -5   1  -3   16.88    5.33   0
  -5   1  54   39.76    8.12   0
  -5   2  44  208.55    9.42   0
  -3   2  10 2001.05   19.84   0
  -2   2  20 3405.99   25.89   0
  -1   1  46  113.71    7.76   0
  -7   1   7   -1.44    6.33   0
  -4   2  45    0.78    5.79   0
  -2   2  32  625.82   11.67   0
  -7   2  21    4.14    6.67   0
  -7   2  30  178.11    8.80   0
  -6   2  10  337.78    8.97   0
  -3   1  56  171.01    9.11   0
  -3   2  43    2.90    6.38   0
   0   1  32 1608.57   20.79   0
  -8   1  27   -4.50    7.07   0
  -7   2  18  168.29    8.62   0
  -7   2  33    1.11    7.44   0
  -6   2  43    4.39    6.86   0
  -2   2  17    1.82    4.14   0
  -2   2  35    4.73    4.57   0
  -8   1  21   -1.93    6.87   0
  -8   1  24  213.16    9.31   0
  -8   1  30   39.16    7.01   0
  -7   2  36  149.31    8.87   0
  -6   1  -1    2.31    5.44   0
  -5   1  57   -6.15    7.47   0
  -5   2   5    6.43    5.24   0
  -4   1  58  100.92    8.40   0
  -4   2  48  302.24   10.44   0
  -8   1  33   -2.21    7.20   0
  -7   2  15   -5.09    6.39   0
  -6   2  46  108.62    8.64   0
  -3   2  46  121.46    8.08   0
  -2   2  38  241.96    8.71   0
   0   1  35    0.32    4.52   0
  -8   1  18  185.17    8.87   0
  -7   2  39   -0.85    7.15   0
  -6   2   7   -2.03    5.54   0
  -3   2   7    0.97    4.87   0
  -5   2  50  157.66    9.37   0
  -2   2  14  332.97    9.17   0
  -8   1  15    6.43    6.44   0
  -7   2  12  384.30   10.15   0
  -7   2  42   85.85    7.95   0
  -5   3  28  404.12   10.44   0
  -4   2  51    6.81    7.20   0
  -3   1  59   -2.66    7.00   0
  -2   2  41    2.14    5.68   0
  -6   2  49   10.88    7.42   0
  -5   3  22  272.38    8.81   0
  -5   3  25   -0.04    5.39   0
  -5   3  31    2.57    5.65   0
  -6   3  24  598.10   11.73   0
  -6   3  27    3.85    5.92   0
  -6   3  30  183.24    8.70   0
  -5   3  34  442.05   10.42   0
  -4   1  61    2.18    7.06   0
  -3   2  49   -3.14    5.83   0
  -7   2  45    2.88    6.62   0
  -6   2   4  830.87   13.56   0
  -6   3  21   -1.18    6.12   0
  -6   3  33    3.30    6.08   0
  -5   2   2  791.53   13.29   0
  -5   2  53   -3.57    7.23   0
  -5   3  19    2.90    5.39   0
  -5   3  37    6.97    6.61   0
  -4   3  23   13.59    6.08   0
  -4   3  26  651.83   11.62   0
  -4   3  29   -4.77    5.39   0
  -8   2  23    4.12    6.63   0
  -8   2  26  176.07    8.67   0
  -8   2  29   -1.84    6.65   0
  -8   2  32  164.69    8.64   0
  -7   2   9   -0.57    5.88   0
  -2   2  44  649.78   12.91   0
  -8   2  20  171.84    8.47   0
  -6   3  18  409.40    9.75   0
  -6   3  39   -2.16    7.60   0
  -5   3  16 1782.66   17.58   0
  -5   3  40  416.01   11.02   0
  -4   2  54   34.13    7.31   0
  -4   3  20  892.06   12.99   0
  -8   2  38   29.31    7.02   0
  -7   3  29    1.80    7.44   0
  -3   2   4 2938.51   25.15   0
  -3   2  52  249.79    9.86   0
  -8   2  17    9.16    6.30   0
  -7   3  26  157.20    7.89   0
  -6   3  42  164.65    9.42   0
  -5   2  56   96.79    8.55   0
  -4   3  17   -2.93    4.85   0
  -7   2   6  423.63   10.55   0
  -7   3  35   -7.09    6.16   0
  -5   3  13    2.04    4.83   0
  -4   3  41    6.59    6.41   0
  -2   2  47   -4.59    5.75   0
  -8   2  14   95.13    7.83   0
  -7   3  38  125.60    8.55   0
  -7   3  17   13.60    6.20   0
  -6   2   1    3.31    5.28   0
  -6   3  45    2.45    7.63   0
  -4   2   0 4040.28   29.38   0
  -4   2  57   -4.42    6.82   0
  -4   3  14  669.81   12.00   0
  -1   2  27   -4.14    4.74   0
  -1   2  30  558.82   11.81   0
  -7   3  41    8.51    6.95   0
  -5   2  -1    5.23    4.77   0
  -4   3  44  286.72    9.94   0
  -3   2  55   -2.97    6.84   0
  -3   3  24 1091.38   14.39   0
  -3   3  33    0.69    5.08   0
  -1   2  24 1694.63   19.63   0
  -1   2  33    2.12    4.88   0
  -5   3  10  706.75   11.84   0
  -3   3  36  798.82   13.40   0
  -2   2  50  192.21    9.22   0
  -8   2  11  -10.85    6.44   0
  -7   3  14  344.55    9.36   0
  -7   3  44  130.85    8.69   0
  -5   3  49   -1.95    7.15   0
  -3   3  21    1.70    4.79   0
  -8   3  25   -2.17    6.93   0
  -8   3  34  125.44    8.32   0
  -7   2   3    1.67    5.52   0
  -6   3   9    5.68    5.71   0
  -4   3  11   18.07    5.62   0
  -4   3  47    3.33    7.03   0
  -3   3  39    3.36    6.24   0
  -1   2  21   10.61    4.03   0
  -8   3  22  122.14    8.25   0
  -8   3  37    6.00    7.14   0
  -7   3  47   -2.73    6.73   0
  -4   2  60   89.53    8.81   0
  -3   3  18 1321.32   15.71   0
  -1   2  39   -0.93    5.01   0
  -7   3  11    2.36    6.29   0
  -3   3  42  298.21    9.72   0
  -8   3  19    4.52    7.23   0
  -8   3  40  140.33    8.93   0
  -5   3  52  141.30    8.92   0
  -4   3  50  187.92    9.36   0
  -9   2  22   38.73    6.90   0
  -6   2  -2  565.34   12.36   0
  -8   3  16  394.77   10.83   0
  -6   3   6  443.89   10.57   0
  -6   4  29   -1.76    6.78   0
  -6   4  32  330.22   10.21   0
  -3   3  15   -1.62    4.61   0
  -3   3  45    2.77    5.94   0
  -7   3   8  530.56   11.51   0
  -6   4  35   -0.49    7.70   0
  -4   3   8 2686.25   22.10   0
  -7   4  28  360.15   10.75   0
  -7   4  31   -0.68    7.30   0
  -6   4  23   -0.44    5.85   0
  -5   3  55   12.15    6.81   0
  -5   4  27    2.52    6.73   0
  -5   4  30  300.47    9.01   0
  -5   4  33    6.79    6.92   0
  -4   3  53   -0.74    7.31   0
  -8   3  13   -4.28    6.65   0
  -7   4  25    9.11    6.18   0
  -7   4  37   12.61    7.45   0
  -5   2  -4  673.65   13.06   0
  -5   4  24  927.14   13.47   0
  -5   4  36  304.77    9.37   0
  -4   2  -3   -0.80    4.54   0
  -3   3  48  197.51    9.60   0
  -7   4  22  168.92    8.03   0
  -6   4  41   -0.57    6.55   0
  -5   3   4  703.45   12.47   0
  -5   4  21   -1.35    6.33   0
  -3   3  12 2616.15   22.16   0
  -9   3  27    0.69    6.50   0
  -7   4  40  147.36    8.36   0
  -6   4  17    1.90    6.18   0
  -6   4  44  209.59    9.77   0
  -2   3  28 1301.54   16.47   0
  -2   3  31    1.33    5.37   0
  -9   3  24  165.93    8.29   0
  -8   3  10  179.66    9.16   0
  -7   3   5   11.39    5.96   0
  -7   4  43   -7.87    7.14   0
  -6   3   3    2.06    5.44   0
  -5   3  58   98.26    8.92   0
  -2   3  34  564.73   11.83   0
  -9   3  21   -9.96    6.98   0
  -8   4  30   94.01    7.77   0
  -8   4  33   -4.45    7.38   0
  -8   4  36  122.81    9.07   0
  -5   4  18  359.67    9.42   0
  -4   3   5   -0.04    5.20   0
  -4   3  56  134.40    8.42   0
  -3   3  51   -5.58    7.06   0
  -2   3  25    5.08    4.27   0
  -2   3  37   -3.44    5.53   0
  -7   4  46   48.62    8.15   0
  -6   4  14  283.38    9.12   0
  -5   4  45   -2.06    7.15   0
  -4   4  28  631.75   11.59   0
  -9   3  18  158.69    8.69   0
  -8   4  21    6.07    6.96   0
  -8   4  39    2.71    6.63   0
  -5   4  15    8.08    6.13   0
  -4   4  25    6.06    5.22   0
  -4   4  37   -4.87    5.64   0
  -2   3  40  445.26   11.02   0
  -4   4  22  699.33   12.32   0
  -4   4  40  406.56   10.84   0
  -3   3   9    0.29    5.12   0
  -8   3   7   -1.09    6.21   0
  -8   4  18  189.27    9.06   0
  -7   4  13    8.10    6.47   0
  -6   4  50   90.50    8.46   0
  -5   4  48  208.14    9.65   0
  -2   3  43    2.44    6.43   0
  -9   3  15   -1.01    6.08   0
  -5   3   1    2.10    4.35   0
  -4   4  19    5.63    5.91   0
  -4   4  43    0.19    6.52   0
  -7   3   2  240.66    8.84   0
  -5   4  12  883.86   13.39   0
  -9   4  29   -8.32    7.31   0
  -8   4  15    7.46    6.97   0
  -6   3   0 1033.05   15.22   0
  -6   4  53   -3.00    6.89   0
  -5   4  51    4.91    6.86   0
  -9   4  26  137.19    8.18   0
  -7   4  10  383.26    9.74   0
  -4   4  16 1492.78   16.72   0
  -4   4  46  128.21    8.82   0
  -2   3  46  117.97    7.55   0
  -9   4  23    0.56    6.65   0
  -2   3  16 1971.64   19.58   0
  -8   4  12  246.32    9.41   0
  -5   2  -7    5.12    4.93   0
  -9   4  20  108.32    7.95   0
  -7   5  27    8.83    7.36   0
  -7   5  33   -2.06    6.72   0
  -7   5  36  260.71    9.93   0
  -6   5  31    1.04    7.31   0
  -5   4   9    0.89    5.04   0
  -5   4  54   54.62    7.75   0
  -4   4  49    0.32    7.08   0
  -3   3   6  523.86   10.74   0
  -3   4  32  861.39   13.89   0
  -7   4   7   -3.58    6.27   0
  -7   5  39   -7.59    7.39   0
  -6   5  28  411.93   10.35   0
  -6   5  34  217.39    8.74   0
  -6   5  37   -4.62    7.28   0
  -4   4  13   -2.80    5.38   0
  -3   4  29    5.74    5.06   0
  -3   4  35    0.46    5.26   0
  -9   4  17    0.84    7.03   0
  -8   5  29   -6.36    7.56   0
  -8   5  32  188.29    9.28   0
  -8   5  35    2.98    7.81   0
  -6   5  25    3.29    6.11   0
  -6   5  40  190.96    9.39   0
  -3   4  38  167.10    8.39   0
  -8   4   9   10.08    6.61   0
  -8   5  26  173.00    9.11   0
  -8   5  38   50.97    7.85   0
  -7   3  -1    0.67    5.59   0
  -7   5  21   -5.58    6.19   0
  -7   5  42  121.26    8.23   0
  -6   5  22  220.86    9.21   0
  -5   3  -2  804.40   13.55   0
  -4   4  52  142.51    9.08   0
  -3   4  23    9.02    5.81   0
  -3   4  41   -0.75    6.36   0
  -2   3  13   17.38    5.34   0
  -7   5  45   -0.21    7.49   0
  -6   4   5   -5.27    5.86   0
  -5   4  57    8.28    6.37   0
  -9   4  14   66.63    7.74   0
  -7   5  18  387.27   10.66   0
  -6   3  -3    7.21    5.15   0
  -6   5  19   -8.03    6.97   0
  -5   4   6  808.97   13.11   0
  -5   5  29   -6.21    5.94   0
  -5   5  32  467.12   10.91   0
  -6   5  46   69.86    8.14   0
  -4   4  10  395.47    9.98   0
  -3   4  20  882.04   13.15   0
  -3   4  44  245.71    9.60   0
  -7   4   4  622.00   12.38   0
  -5   5  23    2.43    6.71   0
  -5   5  41   -2.88    7.57   0
   0   2  31   -0.24    4.55   0
  -9   5  28   88.19    7.65   0
  -8   4   6  196.05    8.89   0
  -8   5  17   -8.00    7.33   0
  -6   5  16  644.72   11.79   0
  -6   5  49    9.64    7.52   0
  -3   4  47    7.32    6.99   0
  -9   4  11    8.12    6.67   0
  -9   5  25   -2.12    6.82   0
  -5   5  20  668.46   11.95   0
  -5   5  44  192.00    9.59   0
  -3   3   3   -1.16    4.19   0
  -3   4  17    1.26    4.76   0
  -9   5  22   72.44    8.25   0
  -6   4   2  593.07   11.95   0
  -2   3  10 2028.55   20.41   0
  -8   5  14  124.92    8.45   0
  -6   5  13    2.54    6.68   0
  -5   5  47   -0.72    6.99   0
  -1   3  29    1.39    5.56   0
  -1   3  32 1148.32   16.64   0
  -1   3  35    1.84    5.55   0
  -9   5  19    6.88    7.31   0
  -5   5  17   -4.76    5.70   0
  -4   4   7   -0.89    4.67   0
  -4   5  33   -1.77    6.69   0
  -4   5  36  298.19   10.12   0
  -3   4  14  715.82   12.32   0
  -1   3  26  511.18   11.59   0
  -4   5  27    1.40    5.56   0
   1   5  20  475.26   11.92   0
   2   6  17   -0.88    7.02   0
   4   0  10  405.44    9.80   0
   5   0   8  928.73   13.57   0
   7  -1  -7    2.29    6.43   0
   7   0  -2  224.86    9.54   0
   8   0 -16  148.79    8.24   0
   1   3  19    9.62    5.37   0
   4   5  14   83.33    8.66   0
   6   1   8  638.59   12.69   0
   8   0 -13    9.22    7.02   0
   2   3  20  562.86   11.56   0
   3   6  15   10.10    7.85   0
   5  -2  -5    5.94    5.19   0
   6  -1   1    7.82    5.76   0
   6   0   6  228.98    9.24   0
   8   1 -11   -6.27    7.03   0
   1   2  17    4.21    4.26   0
   1   4  21    2.61    5.86   0
   4   1  15    9.28    5.57   0
   4   2  17    3.25    5.85   0
   5   1  13    1.27    6.44   0
   6   3   9   -1.94    7.93   0
   7   2   2   92.88    7.93   0
   3   4  20  397.34   11.36   0
   5   4  13   -2.70    7.22   0
   6  -2  -7    2.53    5.26   0
   6   2  10  189.16    8.57   0
   7  -1  -4  260.92    9.57   0
   7   0   1    7.21    6.97   0
   8   0 -10  141.92    8.52   0
   8   1  -8  126.41    8.82   0
   2   5  21    0.31    7.09   0
   3   2  19   10.87    5.57   0
   3   5  19    5.63    7.58   0
   4   4  18  195.08    9.95   0
   2   4  22  332.30   10.54   0
   3   0  12 2628.32   22.54   0
   5   0  11    1.81    6.36   0
   2   1  16 2046.75   20.60   0
   3   1  17   -7.76    5.56   0
   3   3  21    1.99    5.73   0
   6   1  11   -0.70    6.94   0
   7   2   5    1.24    7.32   0
   8   0  -7    5.51    6.47   0
   2   6  20  191.88    9.84   0
   4   0  13   -2.02    5.06   0
   4   5  17    4.83    7.41   0
   6  -1   4  758.03   12.92   0
   7  -1  -1   -2.24    6.50   0
   8   1  -5    0.91    7.46   0
   2   0  11   -0.11    5.16   0
   3   6  18  182.58   10.05   0
   5  -2  -2  813.06   14.02   0
   5   3  17    3.50    7.49   0
   6  -2  -4  877.26   14.29   0
   6   0   9    1.37    5.86   0
   6   3  12  121.65    8.88   0
   6   2  13   -4.86    6.86   0
   7  -2  -9    2.40    5.71   0
   1   5  23    6.16    6.74   0
   4  -1   8 2728.33   23.14   0
   4   1  18  380.56   10.39   0
   4   2  20  643.66   12.08   0
   5   1  16  615.15   11.70   0
   8  -1  -9   -2.00    6.30   0
   8   0  -4  187.16    9.47   0
   8   1  -2   88.89    7.80   0
   2   3  23   -5.92    6.04   0
   5   2  18  371.17   10.20   0
   7   2   8  217.29    9.52   0
   1   3  22  336.35   10.02   0
   3  -1   7    3.25    4.98   0
   3   4  23   -2.34    6.42   0
   3   5  22  104.09    8.59   0
   4   4  21   -0.13    7.86   0
   6   1  14  136.42    8.81   0
   7  -1   2  318.51   10.15   0
   5  -1   9    4.08    5.80   0
   5   0  14  638.07   11.72   0
   7  -2  -6  441.73   11.07   0
   8  -1  -6  105.32    7.76   0
   8   0  -1   -4.35    7.21   0
   1   4  24  629.76   12.96   0
   2   5  24  414.14   11.63   0
   4   5  20  116.17    8.62   0
   6  -2  -1    1.72    5.47   0
   6   0  12  403.42   10.19   0
   6   3  15    7.44    7.92   0
   8   1   1    1.59    7.01   0
   3   0  15   -0.44    5.59   0
   3   3  24  555.62   12.49   0
   5  -2   1    3.46    4.98   0
   5   3  20  221.67    9.80   0
   2   4  25   -1.05    6.44   0
   3   1  20  905.34   13.86   0
   3   6  21    4.35    7.60   0
   4  -2   0 4180.37   31.50   0
   4   0  16 1511.88   16.79   0
   7   2  11   -0.41    7.25   0
   5   1  19   -2.01    6.23   0
   7  -2  -3    8.36    6.82   0
   7  -1   5   10.85    6.90   0
   8  -1  -3   -6.56    6.93   0
   8   0   2  111.35    8.10   0
   2   1  19    3.04    5.44   0
   4   2  23    4.39    6.72   0
   5   2  21    4.76    6.45   0
   7   1  12  163.58    9.13   0
   8   1   4  160.51    8.72   0
   0   4  23    2.23    5.33   0
   4  -1  11   17.44    5.15   0
   4   1  21    0.22    5.76   0
   6  -2   2  580.47   12.00   0
   6   1  17    8.19    6.57   0
   3   4  26  150.99    9.11   0
   4   4  24  317.59   10.73   0
   5   0  17   -4.53    5.72   0
   6   0  15   -5.13    6.73   0
   6   3  18   89.51    8.79   0
   8  -1   0  361.77   11.12   0
   0   3  21   -0.64    4.64   0
   3   5  25    2.87    7.47   0
   4   3  25   12.68    6.99   0
   6   2  19    6.91    8.08   0
   7   2  14  136.34    8.93   0
   8   0   5    6.10    7.41   0
   2   0  14  336.65    9.35   0
   2   3  26  573.94   12.42   0
   4   5  23   -1.85    7.85   0
   5  -2   4  717.48   12.80   0
   5   4  22   77.64    8.27   0
   7  -2   0  617.40   12.46   0
   7  -1   8  645.61   12.80   0
   2   2  24 1732.76   18.94   0
   3  -1  10 2067.83   21.08   0
   2   5  27   -1.66    6.76   0
   3   3  27   -0.19    6.70   0
   4   0  19    2.98    5.93   0
   5   1  22  222.76    9.26   0
   7   0  13    4.02    7.64   0
   7   1  15    5.32    7.17   0
   8  -1   3    3.62    7.23   0
   1   3  25    5.26    5.38   0
   3   0  18 1369.62   16.54   0
   4  -2   3   -0.54    4.68   0
   5   2  24  315.84   10.59   0
   6  -2   5   -6.49    5.85   0
   6   1  20  239.35    9.83   0
   8  -2  -5   -0.90    6.44   0
   2   4  28  405.33   11.05   0
   3   1  23    2.79    5.51   0
   4   2  26  376.68   10.96   0
   6  -1  13   11.98    5.73   0
   6   3  21   -9.75    7.75   0
   8   0   8  231.42    9.95   0
   1   4  27   -0.94    5.81   0
   4   1  24  906.85   14.09   0
   4   4  27    6.13    8.09   0
   5   0  20  655.14   12.42   0
   6   0  18  336.21    9.85   0
   6   2  22  114.27    8.82   0
   7  -2   3    9.73    6.24   0
   7   2  17    0.95    7.88   0
   4  -1  14  680.30   11.97   0
   5  -1  15    5.94    5.51   0
   7  -1  11    5.21    5.85   0
   8  -2  -2  223.55    9.58   0
   1   2  23    0.52    4.96   0
   3   4  29    4.60    7.33   0
   3   5  28  161.81    9.70   0
   4   3  28  348.86   11.10   0
   4   5  26  130.41    9.43   0
   5  -2   7    6.02    5.58   0
   5   4  25   -0.52    8.00   0
   7   0  16  495.39   12.19   0
   7   1  18  120.77    8.90   0
   8  -1   6  182.81    9.55   0
   2   1  22  425.89   10.01   0
   6  -2   8  865.69   14.02   0
   7  -2   6  148.90    8.36   0
   8   1  13    4.42    7.08   0
   9  -1  -2   91.10    8.39   0
   5   1  25    7.10    6.41   0
   5   2  27   -7.59    7.53   0
   6  -1  16  644.56   12.54   0
   6   1  23    2.43    6.49   0
   6   3  24  213.80    9.80   0
   7   2  20  120.50    9.12   0
   8  -2   1    1.84    6.55   0
   2   3  29    0.51    6.18   0
   3  -1  13   18.27    5.58   0
   3   3  30  181.23    9.31   0
   4  -2   6  806.81   13.80   0
   4   0  22  704.11   12.12   0
   6   0  21   -1.91    6.93   0
   8  -1   9   -5.11    7.04   0
   2   0  17    0.20    4.42   0
   2   2  27   -0.86    4.90   0
   6   2  25   -0.44    6.82   0
   3   0  21   -1.94    4.92   0
   3   1  26  642.38   12.36   0
   5  -1  18  392.00   10.17   0
   5   0  23    4.20    5.84   0
   7   0  19   -0.36    7.32   0
   7   1  21    4.39    7.35   0
   9  -1   1   -2.94    6.99   0
   2   4  31   -2.94    6.71   0
   4  -1  17   -4.60    4.97   0
   4   1  27    6.20    6.01   0
   4   4  30   72.78    8.86   0
   5  -2  10  702.39   12.19   0
   5   3  29   -4.42    7.85   0
   5   4  28   78.37    8.72   0
   7  -2   9   -7.62    6.59   0
   8  -2   4  225.98    9.17   0
   4   3  31    5.08    7.79   0
   4   5  29    0.17    7.56   0
   6  -3  -3    1.66    5.04   0
   6  -2  11    0.73    6.01   0
   1   4  30  158.18    8.67   0
   3   5  31   -9.14    8.13   0
   6  -1  19   -4.24    6.88   0
   6   1  26  248.41   10.07   0
   7   2  23   -5.62    7.29   0
   8  -1  12  169.11    9.33   0
   9  -1   4  162.20    8.39   0
   5   1  28  413.34   11.50   0
   5   2  30   60.97    7.39   0
   6   0  24  459.11   10.87   0
   6   2  28  144.43    9.43   0
   7  -3  -2  223.91    8.82   0
   8  -2   7   -0.44    6.66   0
   3   2  31   -1.19    6.53   0
   4   0  25   -7.77    5.52   0
   6  -3   0 1064.17   16.27   0
   7   0  22   93.45    8.94   0
   7   1  24  234.66    9.88   0
   1   2  26  488.01   11.15   0
   3  -1  16 2064.79   20.29   0
   3   3  33   -0.96    7.13   0
   5  -3  -4  648.78   13.91   0
   5  -1  21    3.55    6.30   0
   5   0  26  207.39    8.55   0
   7  -2  12  466.36   10.63   0
   8  -1  15    1.17    7.41   0
   9  -1   7    0.13    7.01   0
   2   3  32  644.62   12.99   0
   6  -2  14  272.33    8.77   0
   7  -3   1    4.26    6.38   0
   2   0  20 3520.52   26.29   0
   2   2  30  183.99    8.30   0
   3   0  24 1078.50   14.48   0
   3   1  29   -1.63    6.21   0
   4  -1  20  883.82   13.23   0
   4   1  30  268.34    9.25   0
   4   4  33   -1.98    7.65   0
   5   3  32  182.14    9.42   0
   7  -1  20  247.22    9.89   0
   8  -2  10  192.39    9.21   0
   6   1  29   10.64    7.70   0
   8   0  20  129.12    8.65   0
   9  -1  10   84.11    7.97   0
   2   4  34  156.60    9.44   0
   4   3  34  162.00    9.26   0
   5  -3  -1    2.66    4.52   0
   5   1  31    9.14    7.53   0
   6  -3   3   -2.30    5.34   0
   6   0  27    3.99    7.48   0
   6   2  31    6.76    7.16   0
   7  -3   4  640.86   12.69   0
   7  -2  15   -3.87    5.77   0
   7   0  25    6.39    6.83   0
   7   1  27    3.71    7.26   0
   8  -1  18  112.55    8.83   0
   9  -2   5    1.57    6.89   0
   3   4  35    3.76    7.28   0
   1   3  31    5.31    5.53   0
   4   0  28  610.59   11.65   0
   5  -1  24  922.53   14.17   0
   5   0  29   -5.98    6.76   0
   8  -2  13  -12.18    7.20   0
   1   4  33   -1.44    5.73   0
   3   2  34  416.33   11.24   0
   6  -3   6  460.82   10.99   0
   7  -1  23   -9.73    7.36   0
   0   3  27   -2.41    4.86   0
   3  -1  19    1.83    4.79   0
   4  -1  23   14.32    6.17   0
   4   2  35    1.36    7.30   0
   5  -3   2  813.91   14.33   0
   6  -1  25    0.55    7.21   0
   7  -3   7    6.03    5.96   0
   8   0  23   -1.11    6.85   0
   9  -2   8  196.01    8.82   0
   3   3  36  272.63    9.70   0
   4   1  33   -2.26    6.10   0
   4   4  36  122.94    9.29   0
   5   3  35   -2.79    6.99   0
   6   1  32  235.31    9.63   0
   7  -2  18  381.55   10.95   0
   2   3  35   -0.04    5.99   0
   3   0  27   -1.02    4.95   0
   6   0  30   99.85    7.83   0
   7   0  28  127.09    8.29   0
   7   1  30   71.69    8.20   0
   8  -3   5   -0.25    6.35   0
   8  -2  16  349.93   10.81   0
   1   1  24 1748.14   19.39   0
   1   2  29    1.87    4.47   0
   2   0  23   -0.39    4.50   0
   2   2  33    1.11    5.95   0
   4   3  37   -1.26    7.15   0
   5   1  34  205.52    8.94   0
   9  -2  11   -9.68    7.75   0
   4  -2  15    2.42    4.57   0
   5  -3   5    7.29    5.11   0
   5  -2  19    4.30    6.16   0
   5   2  36  239.10   10.42   0
   6  -3   9    1.51    5.76   0
   4   0  31   -1.32    6.71   0
   5  -1  27   -4.30    5.80   0
   5   0  32  450.99   11.44   0
   7  -3  10  364.61    9.95   0
   7  -1  26  264.03    9.35   0
   8  -3   8  434.40   11.38   0
   8   0  26   93.83    8.08   0
   2   4  37    6.47    6.67   0
   3   4  38  119.81    8.52   0
   6  -1  28  417.99   11.00   0
   8  -2  19   -4.55    6.96   0
   9  -2  14  114.77    8.51   0
   3  -1  22  482.59   10.22   0
   3   2  37    9.69    6.48   0
   4  -1  26  644.27   11.68   0
   4   2  38   81.14    8.35   0
   5   3  38   41.71    8.22   0
   6   0  33   -8.75    7.65   0
   6   1  35    0.38    7.32   0
   7   0  31   -1.20    7.75   0
   7   1  33    2.89    7.92   0
   2  -1  15    2.99    4.29   0
   2   1  31    4.93    5.77   0
   5  -3   8 2249.02   21.86   0
   6  -3  12  751.59   12.74   0
   6  -2  23    3.46    6.44   0
   7  -3  13    8.39    6.46   0
   8  -3  11    3.20    6.71   0
   3   0  30  296.37    8.80   0
   3   3  39   -5.29    7.24   0
   4  -2  18 1044.66   14.58   0
   4   4  39   -2.54    6.91   0
   5  -2  22  297.37    9.62   0
   5   1  37   -1.45    7.67   0
   0   2  25    0.41    5.04   0
   4   3  40  143.88    9.47   0
   5   2  39    2.89    7.81   0
   7  -1  29    7.77    6.46   0
   2   0  26 1244.42   15.84   0
   2   3  38   87.92    7.42   0
   3  -2  11   11.44    4.44   0
   5  -1  30  273.49    9.14   0
   5   0  35   -5.72    7.49   0
   8  -2  22  106.69    8.24   0
   8  -1  27   -2.18    7.07   0
   9  -2  17    4.24    6.97   0
   0   3  30  523.17   12.33   0
   1   2  32 1091.78   15.76   0
   4   0  34  256.69    9.68   0
   6  -3  15   -0.62    6.13   0
   6  -1  31    1.83    6.44   0
   8  -3  14  137.54    8.50   0
   1   1  27   -0.52    4.91   0
   5  -3  11    3.16    5.33   0
   6   1  38   44.78    8.56   0
   1   0  19    0.48    4.76   0
   4  -1  29    4.24    5.52   0
   6  -2  26  381.21   10.05   0
   6   0  36  185.34    9.78   0
   3  -1  25   -0.08    4.88   0
   4   2  41   -7.73    7.59   0
   5  -2  25   -0.03    6.50   0
   7  -1  32  239.15   10.26   0
   9  -3  12  130.61    8.99   0
   9  -2  20  117.71    7.94   0
   2  -1  18 1193.60   15.82   0
   4  -2  21    4.84    4.96   0
   7  -2  27   -1.30    7.33   0
   8  -3  17   -0.61    6.69   0
   8  -2  25    4.06    7.50   0
   8  -1  30   52.27    8.31   0
   2   1  34  544.90   11.56   0
   3  -2  14 1550.51   18.05   0
   3   0  33   -5.54    5.43   0
   5  -1  33    3.01    6.82   0
   6  -3  18  424.94   10.59   0
   7  -3  19   -1.72    6.72   0
   3   1  38  159.18    8.29   0
   3   3  42  153.75    9.13   0
   5  -3  14  365.78    9.43   0
   5   0  38  192.60    9.62   0
   5   2  42  127.97    8.97   0
   6  -1  34  200.52    8.91   0
   1   3  37    4.32    6.02   0
   4  -3   4 1314.30   18.28   0
   4   0  37   -9.17    7.12   0
   4   3  43   -6.50    7.22   0
   7   0  37   -4.74    7.45   0
   9  -3  15   12.85    6.43   0
   2   0  29    2.22    4.74   0
   6  -2  29  -10.80    6.09   0
   8  -3  20  216.08    9.28   0
   2   2  39   -5.16    6.27   0
   2   3  41    1.56    6.59   0
   4  -1  32  876.51   13.50   0
   6   0  39    6.07    7.15   0
   7  -2  30   69.90    8.35   0
   7  -1  35    7.53    7.96   0
   0   2  28 1022.69   16.29   0
   3  -1  28 1314.71   15.61   0
   4  -3   7   10.00    4.85   0
   4  -2  24 1845.43   18.32   0
   5  -3  17    5.13    5.68   0
   6  -3  21    3.18    6.50   0
   7  -3  22  165.76    7.82   0
   8  -1  33    5.34    7.04   0
   1   0  22  452.39   10.70   0
   1   1  30  538.77   11.01   0
   1   2  35   -1.42    4.88   0
   2  -1  21   12.46    5.49   0
   3  -2  17    6.72    5.27   0
   4   1  42  153.02    9.41   0
   4   2  44  196.28   10.08   0
   9  -3  18   74.55    8.07   0
   0   3  33    4.06    5.11   0
   5  -1  36  299.95   10.49   0
   6  -1  37   -6.83    7.58   0
   3   0  36  762.52   12.76   0
   3   2  43   -4.89    6.13   0
   5   0  41   -0.82    7.77   0
   6  -2  32  341.92   10.72   0
   7  -4   8  536.01   12.17   0
   8  -3  23    5.72    6.72   0
   2   1  37   -1.81    5.84   0
   3   1  41    5.65    6.91   0
   4  -3  10 1128.02   15.92   0
   5   2  45   -1.93    7.12   0
   7  -3  25   11.20    7.50   0
   7   0  40  148.57    9.39   0
   3   3  45   -4.12    6.69   0
   4  -1  35   11.57    6.89   0
   4   0  40  439.98   10.63   0
   4   3  46   62.60    8.57   0
   5  -2  31   -2.65    6.95   0
   6   0  42  129.57    9.26   0
   7  -2  33    2.96    7.77   0
   7  -1  38   43.32    8.39   0
   9  -3  21   -3.29    7.27   0
   4  -2  27    2.54    5.27   0
   6  -4   4  840.53   14.74   0
   7  -4  11    3.62    5.99   0
   8  -4  12  248.04    9.35   0
   3  -2  20 1435.55   16.49   0
   3  -1  31    1.76    5.22   0
   8  -3  26  173.31    9.05   0
   2  -1  24 1834.01   18.90   0
   2   3  44  203.08    9.75   0
   4  -3  13    4.35    5.11   0
   6  -4   7   -0.48    5.55   0
   4   1  45   -2.22    7.28   0
   5  -1  39    6.90    6.51   0
   5   1  46   51.21    8.46   0
   6  -2  35    8.63    6.93   0
   6  -1  40  191.90    9.11   0
   7  -4  14  352.59   10.28   0
   8  -4  15    4.29    6.11   0
   8  -2  34  101.66    8.78   0
   9  -3  24  206.67    8.84   0
   1   0  25   -4.63    4.24   0
   1   1  33    5.01    4.55   0
   1   2  38  315.22    9.76   0
   4   2  47   -5.79    7.68   0
   6  -4  10  337.29    9.97   0
   0   2  31   -1.03    4.66   0
   3   2  46   48.22    7.33   0
   5  -2  34  424.66   11.00   0
   5   0  44  163.09    8.72   0
   7  -2  36  235.38    9.47   0
   2   1  40  427.42   10.90   0
   3  -2  23   -0.69    5.54   0
   3   1  44  245.91    9.83   0
   4  -2  30  194.02    7.78   0
   4  -1  38  165.42    8.74   0
   6   0  45   -1.64    7.38   0
   7  -4  17    0.63    6.44   0
   7  -1  41   -5.62    6.83   0
   8  -4  18  197.65    8.99   0
   8  -3  29    0.54    7.45   0
   3  -1  34  562.73   11.62   0
   6  -4  13   -4.72    5.76   0
   9  -3  27    1.36    6.51   0
   2  -1  27   -4.74    4.73   0
   5  -3  26  613.43   11.49   0
   5  -1  42  165.71    9.33   0
   6  -3  30  191.66    8.35   0
   6  -2  38   82.82    8.85   0
   6  -1  43    3.58    7.93   0
   7  -4  20  428.05   11.04   0
   8  -2  37    6.72    7.02   0
   6  -4  16  745.01   13.27   0
   7  -2  39    4.69    7.50   0
   8  -4  21    4.45    6.95   0
   8  -3  32  191.79    9.72   0
   9  -4  19    7.88    7.35   0
   2   2  45    0.92    6.31   0
   4  -2  33    6.49    6.38   0
   4   1  48  195.10    9.64   0
   5  -2  37    2.05    6.90   0
   5   1  49   -0.13    7.34   0
   1   1  36  864.57   14.08   0
   3  -2  26  516.90   10.48   0
   4   2  50   88.85    8.24   0
   7  -1  44  113.04    8.43   0
   0   1  26 1100.39   16.24   0
   1   2  41   -0.87    6.57   0
   4  -1  41   -5.84    6.09   0
   6  -4  19    8.16    6.16   0
   7  -4  23   -6.04    6.62   0
   8  -4  24  325.05   10.52   0
   2   1  43   -1.11    6.34   0
   3  -1  37   -1.51    6.35   0
   3   1  47   -2.24    7.10   0
   3   2  49    6.84    6.85   0
   4  -3  22  344.58    9.54   0
   5  -3  29   -2.26    5.67   0
   6  -3  33   -8.06    6.23   0
   9  -4  22   76.15    7.74   0
   0   2  34  259.10    8.96   0
   2  -1  30  619.63   11.86   0
   5  -4   3    2.93    5.10   0
   5  -4   6  360.00   10.60   0
   6  -2  41   -1.56    6.88   0
   5  -4   9   10.57    5.37   0
   5  -1  45   -3.80    6.43   0
   7  -2  42  140.89    9.16   0
   2  -2  13   -0.94    4.15   0
   3  -2  29    8.73    5.63   0
   4  -2  36  354.34    9.97   0
   5  -2  40  420.30   11.37   0
   6  -4  22  365.27   10.47   0
   7  -4  26  156.33    8.93   0
   8  -4  27    3.35    7.03   0
   9  -4  25    5.85    6.96   0
   5  -4  12 1147.99   16.20   0
   5  -3  32  699.50   12.99   0
   7  -3  37    1.92    7.38   0
   3   0  45    7.52    6.82   0
   4  -3  25    1.11    5.08   0
   4  -1  44  287.54    9.83   0
   4   1  51   -2.67    7.71   0
   6  -3  36  284.27   10.60   0
   1   1  39    0.11    5.65   0
   2  -2  16 2967.83   24.80   0
   5  -4  15    0.98    5.56   0
   6  -4  25    3.56    6.36   0
   0   1  29   -0.91    4.79   0
   2  -1  33    3.06    5.91   0
   3  -1  40  424.71   10.13   0
   4   0  49   -5.14    6.21   0
   4   2  53    1.48    7.09   0
   6  -2  44  219.31    9.25   0
   7  -4  29    1.87    7.41   0
   8  -4  30   84.09    8.08   0
   9  -4  28   78.08    7.32   0
   2   0  41   -6.24    6.08   0
   2   1  46  119.42    8.02   0
   3   1  50  162.10    9.05   0
   5  -1  48  188.74    9.66   0
   6  -1  49    8.27    7.46   0
   7  -2  45    7.46    7.78   0
   3  -2  32 1139.14   14.66   0
   4  -3  28  697.14   11.87   0
   4  -2  39   -7.90    5.89   0
   5  -4  18  733.60   12.49   0
   5  -3  35    8.92    6.59   0
   5  -2  43   -9.98    6.37   0
   7  -3  40  129.33    8.55   0
   0   2  37    0.25    5.58   0
   1  -1  20 1547.52   18.25   0
   2  -2  19   -1.22    4.45   0
   3  -3   9   -0.34    3.89   0
   6  -4  28  421.63   11.18   0
   6  -3  39    5.55    7.34   0
   1   0  34  884.03   13.75   0
   7  -4  32  272.92   10.11   0
   8  -4  33    0.82    7.61   0
   3   0  48  198.84    9.08   0
   4  -1  47    4.23    6.10   0
   5  -4  21    0.75    5.09   0
   5   0  53    7.54    7.16   0
   2  -1  36  880.37   13.57   0
   3  -1  43    1.28    5.72   0
   4  -3  31    3.78    6.31   0
   4   1  54   46.98    8.02   0
   6  -2  47   -2.24    7.17   0
   1   1  42  294.61    9.55   0
   2  -2  22 1884.01   18.82   0
   3  -2  35   -1.44    5.27   0
   4   0  52  125.95    8.97   0
   5  -3  38   95.50    7.87   0
   7  -3  43   -4.81    7.78   0
   8  -5  19    0.29    6.14   0
   1  -1  23   -0.37    4.37   0
   2   0  44  646.51   12.52   0
   2   2  51    2.94    6.48   0
   3  -3  18  507.94   10.50   0
   4  -2  42  359.25    9.97   0
   5  -4  24  641.15   11.74   0
   5  -2  46   46.16    7.13   0
   5  -1  51   -6.48    7.52   0
   6  -3  42  172.55    9.06   0
   7  -5  15    5.85    5.92   0
   7  -4  35   10.05    7.52   0
   2   1  49    2.22    6.67   0
   3   1  53   -6.03    7.43   0
   8  -5  22  106.70    8.14   0
   8  -4  36  109.76    8.75   0
   1   2  47    4.31    6.50   0
   2  -2  25    0.87    5.37   0
   7  -5  18  158.00    8.35   0
   1   0  37   -1.42    4.73   0
   3  -3  21    0.18    4.55   0
   4  -3  34  513.44   10.63   0
   0   2  40  744.57   13.78   0
   1  -1  26 1190.39   15.58   0
   2  -1  39    3.18    6.18   0
   3  -2  38  320.91    9.82   0
   3   0  51    2.88    6.87   0
   5  -3  41    5.60    7.21   0
   6  -2  50  104.12    8.55   0
   7  -5  21   -6.78    6.34   0
   8  -5  25    6.53    6.22   0
   4  -2  45  -15.27    6.88   0
   7  -3  46   61.81    7.82   0
   8  -4  39   -3.38    7.44   0
   2  -2  28 1077.98   14.68   0
   3  -3  24 1552.33   16.79   0
   4   0  55    1.01    6.86   0
   4   1  57    2.23    7.17   0
   5  -2  49    3.10    6.73   0
   6  -3  45   -6.84    6.72   0
   7  -5  24  431.03   11.28   0
   0   1  35   -0.12    4.97   0
   1   1  45    1.75    5.87   0
   2   0  47   -2.68    6.44   0
   4  -3  37   -8.26    6.71   0
   6  -4  37   11.69    7.11   0
   8  -5  28  149.91    8.36   0
   4  -4  11    1.67    4.80   0
   4  -4  14  311.53    9.27   0
   6  -5  11    3.33    5.46   0
   6  -5  14  395.16   10.54   0
   1  -1  29    1.69    4.57   0
   1   0  40  720.30   12.64   0
   2   1  52  263.38    9.81   0
   3  -3  27    3.99    5.00   0
   3  -2  41  -10.19    6.31   0
   3   1  56  116.82    8.52   0
   4  -4   8 1535.50   19.03   0
   4  -4  17   -0.83    5.35   0
   5  -3  44  228.44    9.95   0
   6  -5  17    3.44    5.72   0
   7  -5  27    1.60    6.95   0
   9  -5  29    2.78    5.85   0
   5  -4  33   -1.13    6.69   0
   6  -2  53   -1.01    7.13   0
   8  -5  31   -4.61    6.74   0
   2  -2  31    0.30    4.99   0
   3   0  54   69.03    8.22   0
   4  -4   5    1.51    4.56   0
   4  -4  20 1252.78   15.87   0
   4  -2  48  285.88   10.13   0
   6  -5  20  482.12   11.31   0
   3  -3  30  546.35   11.20   0
   4  -3  40  447.79   11.30   0
   5  -2  52  132.87    9.10   0
   6  -4  40  253.98   10.20   0
   7  -5  30  174.68    9.31   0
   0   0  27    2.41    4.95   0
   0   2  43    2.19    5.13   0
   1  -1  32 1701.14   18.06   0
   5  -1  57   -2.03    7.68   0
   6  -5  23    3.68    5.54   0
  -1   2  30  537.11   12.74   0
   0   1  38  241.48    8.62   0
   1   1  48  316.99   10.06   0
   2   0  50  187.16    8.88   0
   4   0  58   50.67    8.12   0
   5  -4  36  454.87   10.63   0
   7  -4  44  129.05    8.45   0
   8  -5  34  117.28    8.57   0
   1   0  43    1.66    5.86   0
   2  -2  34  273.71    8.42   0
   3  -2  44  305.35    9.32   0
   5  -3  47    5.95    6.28   0
   6  -5  26  229.25    9.11   0
   7  -5  33    0.99    6.74   0
   3  -3  33   -5.25    5.41   0
   6  -4  43   -2.49    7.59   0
   6  -3  51  -10.16    7.79   0
   2   1  55   -5.07    6.79   0
   3  -1  52  247.54    9.78   0
   4  -3  43   -1.15    6.14   0
   4  -2  51  -14.74    7.58   0
   4  -1  56  107.66    8.67   0
   6  -5  29    3.09    6.86   0
   8  -5  37   -3.42    7.22   0
   0   0  30  149.00    6.76   0
   3   1  59   -0.33    6.88   0
   4  -4  29   -8.12    6.11   0
   5  -4  39   -0.01    7.22   0
   5  -2  55   -2.69    6.93   0
   2  -2  37   -5.84    6.11   0
   3   0  57   -0.29    6.93   0
   7  -5  36  156.10    8.69   0
   7  -4  47    2.85    7.05   0
   0   1  41   -1.60    5.24   0
   3  -3  36  502.81   10.64   0
   3  -2  47   -0.94    6.94   0
   5  -3  50  172.41    9.15   0
   6  -5  32  370.32   10.71   0
  -1   2  33    1.47    4.52   0
   2   0  53   -6.17    7.00   0
   4  -4  32  457.50   10.28   0
   6  -4  46   86.52    8.30   0
   0   0  33   -0.20    4.97   0
   1   0  46  111.65    7.62   0
   1   1  51    5.48    5.90   0
   2  -1  48  300.52    9.89   0
   4  -3  46   77.38    7.13   0
   5  -5  16  691.63   12.88   0
   5  -4  42  196.02    9.26   0
   6  -3  54   29.28    7.63   0
   7  -5  39    4.50    7.02   0
   3  -1  55    4.12    7.22   0
   4  -2  54   30.98    7.82   0
   5  -5  13    4.20    5.48   0
   5  -5  19    1.52    5.90   0
   6  -5  35   -5.20    7.07   0
   2  -2  40  745.55   12.39   0
   3  -3  39    1.95    5.72   0
   4  -4  35    8.10    6.57   0
   4  -1  59   -6.16    7.46   0
   5  -5  22  236.86    8.32   0
   5  -2  58   93.98    8.45   0
   2  -1  18 1208.86   16.60   0
   6  -6   6  381.68   10.84   0
   6  -5  17    5.61    6.43   0
   8  -6  14  103.38    8.96   0
   9  -6  15    6.48    7.97   0
   9  -3  27    2.05    8.45   0
   2  -2  13   -2.70    5.19   0
   4   1  30  289.06   10.24   0
   5   1  31   -2.05    7.17   0
   7  -4  26  143.60    9.24   0
   7   0  31   -1.84    7.75   0
   8  -5  22  109.07    9.44   0
   8  -3  29   -3.26    8.01   0
   8  -1  30   58.83    8.89   0
   9  -4  25    1.38    7.30   0
   3  -4   4 1258.72   18.48   0
   3  -3  15   -1.09    5.32   0
   3  -1  25    2.17    5.21   0
   3   0  27    0.45    4.95   0
   4  -1  29   -4.30    6.71   0
   5  -3  26  607.86   12.04   0
   5   0  32  447.08   12.20   0
   7  -1  32  241.76   11.00   0
   4  -3  22  367.82    9.62   0
   5  -4  21    2.61    5.63   0
   6  -4  25   -5.48    7.28   0
   7  -6  13    2.41    7.04   0
   8  -4  27   17.19    7.67   0
   2   2  24 1783.03   22.08   0
   4  -5   3   -3.16    5.12   0
   4  -2  27    9.75    6.58   0
   4   0  31   -0.55    6.67   0
   5  -5  13   -1.96    5.05   0
   6  -2  32  340.97   11.14   0
   6   0  33    2.95    7.53   0
   9  -5  23   -0.03    7.40   0
   6  -6   9   -0.63    6.15   0
   6  -3  30  192.05    9.68   0
   6   1  32  233.09   10.68   0
   7  -3  31   10.02    7.92   0
   8  -6  17    5.18    7.36   0
   3   2  28  394.59   11.65   0
   5  -2  31    5.71    6.95   0
   6  -1  34  207.17   10.46   0
   9  -6  18  171.96    9.83   0
   3   1  29    2.80    5.88   0
   6  -5  20  469.40   11.07   0
   9  -4  28   82.95    8.99   0
   2   1  25    2.32    5.10   0
   3  -2  23    0.91    5.15   0
   7  -6  16  591.30   12.75   0
   7  -4  29   16.06    8.05   0
   8  -5  25   -5.03    7.10   0
   8  -3  32  183.03    9.82   0
   8  -1  33    4.04    7.16   0
   9  -7  10  136.77    8.96   0
   3  -4   7   11.96    5.22   0
   7   0  34  146.95    9.95   0
   8  -4  30   87.16    9.02   0
   2  -1  21   10.29    5.01   0
   4  -5   6  364.64   10.48   0
   5  -5  16  686.48   12.86   0
   5  -3  29    0.72    6.12   0
   6  -4  28  420.75   11.57   0
   7  -1  35    4.06    8.42   0
   8  -6  20  191.98    9.84   0
   8  -2  34  110.14    8.93   0
   2  -2  16 2996.53   25.44   0
   3  -3  18  519.52   10.87   0
   4  -3  25   -2.40    5.45   0
   5   0  35   -2.54    7.53   0
   5   1  34  204.83    9.83   0
   6  -6  12  342.24   10.39   0
   9  -6  21    3.35    7.22   0
   3  -1  28 1285.29   16.20   0
   3   0  30  296.53    9.20   0
   4   1  33    0.58    6.57   0
   6  -2  35   -7.86    7.72   0
   7  -3  34  173.99   10.30   0
   4  -2  30  183.93    8.08   0
   6  -3  33    7.58    6.71   0
   6   0  36  185.00   10.11   0
   9  -7  13    0.97    7.30   0
   4   0  34  235.19    9.61   0
   5  -2  34  416.51   11.25   0
   7  -6  19    1.63    7.16   0
   8  -5  28  158.07    9.19   0
   5  -1  36  292.27   10.56   0
   6  -1  37    7.04    8.00   0
   7  -5  27    3.35    6.73   0
   7  -4  32  270.20   11.00   0
   8  -7  12  177.11    9.54   0
   8  -3  35   -3.93    7.74   0
   3  -4  10 1112.63   16.26   0
   3  -2  26  520.29   11.29   0
   4  -5   9   12.92    5.41   0
   5  -5  19    4.23    5.85   0
   6  -6  15    3.99    6.07   0
   8  -6  23    1.71    7.26   0
   8  -4  33   -7.25    8.30   0
   9  -6  24  143.26    9.39   0
   9  -5  29    3.14    7.49   0
   2   2  27    0.02    5.46   0
   3   1  32  850.51   14.88   0
   5  -6   5    1.16    5.22   0
   5  -4  27    8.09    5.83   0
   5  -3  32  672.51   13.17   0
   6  -4  31    7.81    7.10   0
   9  -7  16  149.29    9.12   0
   3  -3  21    4.11    5.71   0
   4  -3  28  680.59   12.61   0
   7  -1  38   36.50    8.86   0
   7   0  37    6.97    7.09   0
   8  -2  37   -0.89    7.94   0
   2  -1  24 1876.69   19.70   0
   2   1  28 1289.38   17.76   0
   7  -6  22  143.34    8.89   0
   8  -7  15    4.50    7.13   0
   2  -2  19   -1.78    5.46   0
   5   0  38  184.51    9.86   0
   6  -3  36  277.36   10.56   0
   7  -3  37   -3.58    7.26   0
   8  -5  31    2.88    8.08   0
   3  -1  31   -0.53    5.32   0
   3   0  33    3.38    6.01   0
   4  -5  12 1126.09   16.09   0
   4  -2  33    3.59    5.71   0
   5  -6   8  753.90   13.94   0
   5   1  37   -1.14    7.28   0
   6  -6  18  271.27    9.82   0
   7  -5  30  160.33    8.86   0
   7  -2  39    5.78    8.20   0
   4  -4  23   -3.45    5.32   0
   4   1  36  296.51   10.34   0
   5  -5  22  240.42    8.93   0
   5  -2  37    0.90    7.10   0
   6   0  39    4.47    7.94   0
   7  -4  35   -0.23    6.78   0
   8  -6  26  178.55    9.28   0
   8  -4  36  115.76    9.33   0
   8  -3  38   44.14    8.22   0
   9  -7  19    3.23    6.69   0
   9  -6  27   -0.60    7.00   0
   3  -4  13    6.61    4.54   0
   4   0  37    2.62    6.40   0
   6  -1  40  193.70    9.76   0
   3  -2  29   -0.40    6.29   0
   5  -4  30  172.45    8.14   0
   5  -3  35    6.18    7.34   0
   5  -1  39    4.09    6.25   0
   6  -4  34  164.04    9.45   0
   6  -5  29    0.08    7.27   0
   7  -6  25    0.91    7.62   0
   2   0  29   -1.35    5.54   0
   3  -3  24 1554.32   17.28   0
   4  -3  31   10.39    5.65   0
   5  -6  11   10.56    5.76   0
   7  -7  14  124.08    8.36   0
   7  -1  41    3.79    7.45   0
   8  -5  34  127.84    9.02   0
   4  -5  15    6.57    5.59   0
   6  -6  21    7.61    5.79   0
   6  -3  39   -9.67    8.15   0
   7  -5  33    9.81    7.68   0
   7  -3  40  148.61    9.71   0
   8  -6  29   -4.76    7.57   0
   9  -7  22   46.41    7.22   0
   2  -2  22 1960.40   19.82   0
   2  -1  27   -1.43    5.57   0
   3   1  35    2.00    6.07   0
   4  -4  26  696.37   12.65   0
   4  -1  38  151.93    8.51   0
   2   2  30  185.41    8.67   0
   3  -4  16 1993.52   20.12   0
   4  -2  36  354.51   10.05   0
   5   0  41   -1.32    7.45   0
   7  -2  42  130.62    9.01   0
   8  -7  21    6.19    7.42   0
   8  -4  39  -13.53    7.79   0
   2   1  31    3.12    5.49   0
   5  -6  14  385.27   10.52   0
   5  -4  33    3.85    6.77   0
   5  -2  40  417.61   11.54   0
   6   0  42  116.47    9.30   0
   7  -7  17    6.60    6.86   0
   7  -6  28  136.43    9.31   0
   1   1  24 1780.89   21.08   0
   3   0  36  764.27   13.32   0
   4   1  39   -1.58    7.43   0
   6  -4  37  -11.28    6.73   0
   6  -1  43    1.11    7.60   0
   3  -2  32 1195.95   15.91   0
   4  -5  18  705.25   12.94   0
   4   0  40  413.30   11.30   0
   5  -3  38   97.64    7.45   0
   5  -1  42  151.27    9.52   0
   8  -5  37    6.88    7.73   0
   3  -3  27    0.05    5.16   0
   4  -3  34  499.29   11.12   0
   7  -5  36  147.48    9.28   0
   8  -7  24  201.37   10.27   0
   8  -6  32  169.78    9.19   0
   7  -3  43   -0.76    7.71   0
   7  -1  44   92.77    8.41   0
   2   0  32  628.95   12.40   0
   4  -4  29    4.06    5.63   0
   5  -6  17    7.05    6.14   0
   6  -3  42  132.47    8.38   0
   6  -2  44  203.96   10.08   0
   7  -7  20  154.37    8.83   0
   7  -4  41    2.06    7.65   0
   2  -2  25   -0.21    5.02   0
   2  -1  30  606.69   11.97   0
   4  -2  39    0.54    6.71   0
   4  -1  41    7.99    7.32   0
   7  -6  31    5.85    7.78   0
   7  -2  45   -1.49    7.68   0
   2  -3  17    2.67    4.52   0
   3   1  38  163.59    8.60   0
   4  -5  21   -1.24    5.97   0
   5  -4  36  444.62   10.97   0
   6  -6  27   -2.28    7.02   0
   6  -4  40  253.61   10.51   0
   5   0  44  160.21    9.13   0
   6  -5  35    3.85    6.44   0
   8  -7  27    3.38    7.33   0
   1  -1  20 1585.55   18.75   0
   3  -3  30  543.75   11.44   0
   3  -2  35    3.75    6.57   0
   3   0  39    1.49    6.46   0
   5  -6  20  472.54   11.50   0
   5  -3  41   -0.15    6.40   0
   6  -1  46   59.09    8.74   0
   6   0  45   -0.08    7.69   0
   7  -7  23    3.07    6.86   0
   7  -5  39    8.23    8.08   0
   8  -5  40  116.44    8.35   0
   1   2  26  490.57   12.28   0
   2   1  34  581.50   12.36   0
   4  -3  37   -2.55    6.11   0
   5  -1  45    3.97    7.48   0
   4  -4  32  433.45   10.38   0
   4   0  43   -4.62    7.21   0
   4   1  42  157.45    8.81   0
   7  -6  34  154.59    9.38   0
   1   1  27    0.98    4.16   0
   4  -5  24  627.04   12.43   0
   6  -6  30  134.78    8.73   0
   6  -3  45    4.51    7.95   0
   7  -4  44  140.64    9.43   0
   2  -3  20 1405.10   16.78   0
   2  -2  28 1088.91   14.60   0
   5  -4  39   11.25    7.21   0
   6  -2  47   -1.70    7.43   0
   2  -1  33    4.73    6.07   0
   2   0  35    3.02    4.92   0
   4  -2  42  361.03   10.23   0
   4  -1  44  266.17   10.09   0
   5  -6  23   -1.07    6.39   0
   6  -5  38  123.02    8.11   0
   6  -4  43    2.58    7.69   0
   7  -7  26  196.64    9.13   0
   8  -7  30   34.22    7.68   0
   3  -5   5    4.98    5.08   0
   3  -4  25    3.98    5.86   0
   6  -7  19   -1.41    7.06   0
   3  -3  33    2.22    5.62   0
   4  -3  40  429.21   11.58   0
   5  -5  34  246.75    9.06   0
   5  -3  44  232.61    9.15   0
   7  -5  42   80.62    8.84   0
   1  -1  23    0.42    4.49   0
   3  -5   8 2083.24   23.05   0
   3  -2  38  306.66    9.30   0
   3   1  41    1.93    6.32   0
   4  -4  35   -1.43    5.90   0
   5   0  47   -4.30    7.01   0
   2  -3  23    0.83    5.58   0
   3   0  42  301.56   10.21   0
   4  -5  27   -2.97    5.59   0
   5  -1  48  188.42    9.63   0
   6  -6  33   -4.07    7.55   0
   6  -1  49   -4.92    7.94   0
   1  -2  15    2.79    4.22   0
   2  -2  31    3.08    6.07   0
   2   1  37   -0.71    5.72   0
   4   0  46  129.66    8.87   0
   5  -6  26  216.60    8.53   0
   6  -7  22  142.12    9.03   0
   6  -3  48  128.09    8.88   0
   7  -7  29   -1.69    7.45   0
   7  -4  47    1.28    7.89   0
   8  -7  33    6.13    7.26   0
   1   2  29    3.24    5.22   0
   3  -5  11    4.95    4.98   0
   5  -4  42  206.30    8.85   0
   6  -5  41    0.41    7.26   0
   1   1  30  580.64   11.91   0
   2  -1  36  891.69   14.02   0
   3  -4  28  663.52   11.94   0
   4  -2  45   -7.58    7.26   0
   5  -5  37   -0.71    7.13   0
   6  -4  46   97.73    8.91   0
   6  -2  50  101.36    9.02   0
   2   0  38  242.22    8.98   0
   3  -3  36  500.68   10.87   0
   4  -6  13   -0.16    5.32   0
   4  -1  47    3.32    7.58   0
   7  -5  45   -8.01    7.58   0
   1  -2  18 1193.05   16.28   0
   1  -1  26 1176.54   15.40   0
   2  -3  26  540.65   11.22   0
   3  -1  43   -2.82    5.79   0
   4  -4  38  117.86    7.66   0
   4  -3  43   -4.68    7.07   0
   5  -6  29   -1.25    6.84   0
   5  -3  47  -10.47    6.65   0
   5  -2  49    9.85    7.12   0
   6  -7  25    0.81    7.62   0
   6  -6  36  131.95    8.74   0
   7  -7  32  241.56   10.15   0
   3  -2  41   -9.43    5.94   0
   2  -4   9   -1.75    4.48   0
   2  -2  34  284.72    9.40   0
   4  -6  16  701.80   13.24   0
   3  -5  17    3.84    5.37   0
   3  -4  31    3.06    5.51   0
   3   0  45   -2.57    6.32   0
   5  -4  45    7.55    7.54   0
   5  -1  51    9.85    7.61   0
   5   0  50   62.04    8.28   0
   6  -5  44  141.42    9.35   0
   2  -4  12  759.83   13.82   0
   2   1  40  453.20   11.99   0
   6  -4  49   -2.35    8.17   0
   1  -2  21   11.87    4.82   0
   3  -3  39   -8.29    6.91   0
   4  -6  19   -5.22    5.79   0
   4   0  49   -1.33    6.88   0
   5  -6  32  377.92   10.78   0
   6  -7  28  132.93    8.54   0
   6  -2  53  -10.63    7.87   0
   7  -7  35    1.03    7.33   0
   1  -1  29   -0.15    4.79   0
   1   1  33    8.95    5.23   0
   2  -4  15    0.48    4.96   0
   2  -3  29    4.96    5.13   0
   3  -5  20  578.91   11.94   0
   4  -4  41   -9.01    6.22   0
   6  -6  39    6.97    6.73   0
   1   2  32 1114.54   17.34   0
   2   0  41    8.45    5.16   0
   3  -2  44  319.62   10.13   0
   3  -1  46  120.02    8.21   0
   4  -3  46   86.00    7.33   0
   4  -1  50  162.90    9.16   0
   5  -3  50  142.68    8.96   0
   5  -2  52  110.07    8.82   0
   3  -4  34  479.21   11.44   0
   4  -6  22  349.61   10.18   0
   2  -4  18 1031.92   15.12   0
   2  -2  37    0.55    5.42   0
   5  -4  48  133.73    9.34   0
   6  -7  31    2.93    6.62   0
   6  -5  47    2.41    7.32   0
   1  -2  24 1785.39   18.56   0
   1   0  34  897.87   13.75   0
   3  -5  23    5.21    5.02   0
   5  -6  35    3.64    7.45   0
   5  -5  43    4.96    6.33   0
   7  -7  38   24.50    7.64   0
   2  -3  32 1204.16   15.18   0
   3  -3  42  238.29    9.59   0
   3   0  48  197.92    9.16   0
   5  -1  54   59.38    8.09   0
   6  -4  52   96.62    8.46   0
   1  -1  32 1736.99   18.13   0
   2  -4  21    0.16    5.41   0
   4  -6  25    1.55    6.29   0
   4  -4  44  367.25   10.39   0
   5  -7  21   -7.68    5.94   0
   1   1  36  877.40   14.50   0
   2   1  43    3.93    5.95   0
   3  -5  26  612.69   12.13   0
   3  -4  37   -1.08    6.45   0
   4   0  52  137.83    9.32   0
   6  -7  34  167.40    9.17   0
   1  -2  27   -6.00    5.64   0
   2  -2  40  781.81   13.43   0
   2   0  44  672.29   13.18   0
   3  -2  47    2.16    6.16   0
   3  -1  49   -7.09    7.08   0
   5  -3  53   -7.54    7.02   0
   4  -5  39   -1.40    6.22   0
   4  -1  53    2.15    7.44   0
   5  -7  24  408.83   10.96   0
   5  -6  38  117.96    7.66   0
   5  -5  46   69.08    8.61   0
   5  -2  55    8.45    7.87   0
   6  -5  50   78.04    8.21   0
   1   0  37    8.55    5.64   0
   1   2  35   -0.75    5.01   0
   2  -3  35   -1.36    5.60   0
   4  -6  28  433.84   10.53   0
   5  -4  51   -5.71    7.86   0
   0   0  21   -0.93    4.80   0
   3  -5  29    1.99    6.12   0
   3  -3  45    5.44    7.31   0
   4  -4  47   -0.87    7.89   0
   1  -1  35   -3.75    5.03   0
   3  -4  40  451.37   11.04   0
   5  -7  27    3.64    6.42   0
   6  -7  37    1.16    6.78   0
   1  -2  30  600.42   11.29   0
   3   0  51   -5.50    6.67   0
   4  -6  31    1.49    6.85   0
   4  -2  54   28.30    7.71   0
   2  -2  43   -5.02    6.50   0
   4  -5  42  199.77    9.61   0
   4  -3  52  174.89    9.22   0
   5  -6  41   -5.47    6.72   0
   5  -1  57    3.28    7.27   0
   0   0  24 4625.93   31.12   0
   0   1  26 1125.38   16.46   0
   1   1  39    0.87    5.66   0
   2  -3  38  297.00    9.06   0
   2   0  47    3.78    6.50   0
   2   1  46  131.13    7.99   0
   3  -5  32  662.84   12.71   0
   3  -1  52  242.18   10.30   0
   5  -5  49   -1.81    7.14   0
   1  -3  19    4.08    4.45   0
   4  -1  56  133.20    9.08   0
   5  -7  30  160.62    8.75   0
   5  -4  54   44.97    7.83   0
   5  -2  58   87.89    7.97   0
   1  -2  33    3.51    6.06   0
   1  -1  38  262.74    9.11   0
   1   0  40  741.13   12.80   0
   2  -4  30  189.79    7.59   0
   3  -4  43   -2.74    7.26   0
   3  -3  48  311.68   10.84   0
   4  -6  34  168.39    8.96   0
   4  -4  50  154.49    9.26   0
   6  -7  40  172.96    9.42   0
   1  -3  22  456.35   10.57   0
   2  -1  48  306.22    9.97   0
   4  -5  45   -2.09    7.59   0
   5  -7  33   -1.16    6.91   0
   0  -1  19    2.33    5.12   0
   0   1  29    1.74    4.92   0
   2  -4  33   -6.62    6.31   0
   2  -3  41   -8.24    5.85   0
   2  -2  46  246.73    9.39   0
   4  -3  55   -0.03    7.45   0
   4  -2  57   -2.17    7.51   0
   1  -3  25    4.97    4.76   0
   3   0  54   72.74    8.05   0
   4  -6  37    3.72    7.19   0
   5  -5  52  150.62    9.07   0
   0  -1  22  476.60   11.00   0
   1  -2  36  878.00   13.39   0
   1  -1  41   -4.51    6.37   0
   1   1  42  314.62    9.99   0
   2   0  50  184.15    9.27   0
   6  -7  43   -0.81    7.14   0
   0   2  28 1064.03   17.20   0
   1   0  43   -8.35    6.29   0
   2   1  49   -2.84    6.14   0
   3  -4  46   74.50    7.32   0
   3  -3  51    6.65    6.63   0
   3  -1  55    5.32    7.60   0
   4  -4  53   -9.35    7.44   0
   5  -7  36  141.12    8.43   0
   5  -4  57    6.40    7.81   0
   1  -3  28 1303.95   15.66   0
   2  -4  36  370.88   10.39   0
   3  -6  15   -2.90    5.81   0
   4  -5  48  140.13    8.90   0
   4  -1  59    4.55    7.44   0
   0  -1  25   -3.31    4.56   0
   0   1  32 1727.93   19.56   0
   2  -3  44  311.31    9.69   0
   3  -6  18  395.68   10.66   0
   4  -6  40  234.44    9.79   0
   1  -2  39   -1.40    6.09   0
   2  -2  49   -3.60    7.14   0
   2  -1  51    4.06    5.97   0
   3  -6  21    0.24    5.66   0
   1  -3  31    1.90    5.18   0
   3  -6  24  567.38   12.18   0
   3  -5  41   -1.81    7.01   0
   4  -3  58   96.57    8.42   0
   5  -7  39    2.47    6.56   0
   5  -5  55    8.49    7.07   0
   1   1  45    1.41    6.01   0
   2  -5  13    0.07    5.47   0
   2  -5  16 1736.80   19.77   0
   2  -5  19    0.96    5.53   0
   2  -4  39   -2.55    6.73   0
   3  -4  49    0.50    7.93   0
   4  -2  60   96.20    7.94   0
   0   2  31   -1.81    4.58   0
   1   0  46  105.06    7.92   0
   2  -5  22  295.13    9.28   0
   2   0  53   -2.31    7.09   0
   3  -6  27    0.29    6.10   0
   3  -3  54   82.17    7.86   0
   3   0  57    2.52    7.27   0
   4  -5  51   -1.02    7.66   0
   4  -4  56   70.88    8.02   0
   0   1  35    4.58    5.21   0
   1  -3  34  570.46   11.67   0
   2  -5  10  684.13   13.95   0
   2  -3  47    5.56    6.21   0
   3  -1  58   90.55    8.07   0
   4  -7  26  150.20    8.37   0
   4  -6  43    0.08    7.38   0
   0  -1  31    2.79    5.69   0
   1  -2  42  304.07    9.29   0
   2  -5  25    0.23    4.93   0
   5  -7  42   79.98    8.37   0
   2  -4  42  376.38   10.85   0
   2  -2  52  169.80    8.31   0
   2  -1  54   93.36    8.28   0
   3  -6  30  181.24    8.65   0
   3  -5  44  226.32    8.81   0
   4  -7  29   10.70    7.20   0
   2  -5  28  396.06    9.88   0
   3  -4  52  191.10    9.42   0
   0   2  34  259.98    9.35   0
   1  -3  37    5.81    5.40   0
   2  -5   7    5.72    4.87   0
   3  -6  33   -4.51    6.62   0
   3  -2  59   -2.33    7.17   0
   4  -6  46   92.42    8.17   0
   0  -2  17   -2.45    5.04   0
   0  -2  20 3534.81   26.16   0
   0  -1  34  967.61   13.82   0
   0   1  38  259.42    8.99   0
   1  -2  45    1.83    6.81   0
   1   0  49   -2.28    6.16   0
   1   1  48  322.62   10.16   0
   2  -5  31   -4.66    6.34   0
   2  -3  50  158.65    8.30   0
   3  -3  57    1.91    6.69   0
   4  -7  32  257.39    9.51   0
   4  -5  54   52.39    7.76   0
   4  -4  59   -2.46    7.83   0
   0  -2  14  347.97    9.93   0
   0  -2  23    3.10    4.60   0
   2   0  56   95.14    8.41   0
   3  -5  47   -5.29    7.18   0
   5  -7  45    5.72    7.23   0
   0  -2  26 1266.95   15.54   0
   0   0  39   -0.47    4.91   0
   1  -4  17    1.30    5.07   0
   1  -4  20  909.85   14.19   0
   1  -4  23    6.15    5.66   0
   1  -3  40  453.45   10.87   0
   2  -4  45    1.35    6.15   0
   3  -6  36  307.09   10.28   0
   3  -1  61   -4.47    6.99   0
   0  -1  37    1.45    5.73   0
   2  -5  34  401.68   10.05   0
   2  -1  57   -2.32    7.35   0
   4  -7  35   -0.48    6.64   0
   0  -2  29    0.28    4.96   0
   1  -4  14  653.95   12.39   0
   1  -1  50  249.01    8.88   0
   3  -4  55    2.65    6.70   0
   0   1  41   -3.00    5.56   0
   0   2  37   -0.74    4.77   0
   1  -2  48  298.33   10.14   0
   2  -3  53   -9.71    7.88   0
   3  -6  39   -0.55    7.14   0
   4  -5  57   -2.53    7.80   0
   0  -2  32  668.45   12.15   0
   0   0  42  757.81   13.27   0
   1  -4  11   18.52    5.05   0
   1  -3  43    8.89    6.76   0
   1   0  52  298.83   10.11   0
   2  -4  48  276.87   10.16   0
   3  -5  50  153.89    8.60   0
   3  -3  60   98.61    8.58   0
   3  -2  62   29.54    7.57   0
   4  -7  38  104.30    8.20   0
   0  -1  40  728.92   12.33   0
   1   1  51    2.41    6.12   0
   2   0  59    9.40    7.81   0
   0  -2  35    0.86    5.35   0
   1  -1  53   -1.49    6.65   0
   3  -6  42  152.75    9.09   0
   3  -4  58  106.52    8.27   0
   4  -7  41    8.35    6.81   0
   0   1  44  427.19   10.88   0
   0   2  40  756.54   13.98   0
   1  -4  35   -0.69    5.64   0
   1  -3  46  119.20    8.34   0
   1  -2  51    4.13    7.27   0
   2  -3  56  173.65    9.40   0
   2  -1  60  136.31    8.66   0
   3  -5  53    9.26    7.64   0
   0  -1  43    0.45    5.52   0
   0   0  45    6.51    6.07   0
   1  -4   8 2545.33   26.23   0
   2  -4  51    0.31    6.78   0
   0  -2  38  234.02    8.31   0
   1  -4  38  141.94    8.18   0
   1   0  55    2.09    6.91   0
   3  -6  45   -0.79    7.45   0
   1   1  54  101.44    8.38   0
   4  -7  44  128.99    8.70   0
   1  -3  49   -0.08    6.85   0
   2  -2  61   -5.59    7.53   0
   0  -3  24 1018.50   14.52   0
   0  -2  41   -4.03    5.66   0
   1  -4  41   -4.40    7.02   0
   1  -2  54   95.11    8.61   0
   1  -1  56  200.76    9.74   0
   2  -5  46   39.48    8.02   0
   2  -4  54   30.77    7.91   0
   3  -5  56   83.66    8.35   0
   3  -4  61   -5.20    7.79   0
   0  -3  27    1.32    4.89   0
   0   0  48  433.56   10.63   0
   0   1  47   -1.27    6.06   0
   2  -3  59    0.78    7.02   0
   2   0  62   46.64    7.12   0
   3  -6  48  133.72    8.59   0
  -1   0  23   -0.12    5.05   0
  -1   0  26 1213.86   15.99   0
  -1   1  22  454.37   11.16   0
  -1   1  25   -0.02    4.49   0
   0  -3  30  302.48    8.88   0
   2  -1  63   -1.73    7.38   0
   4  -7  47   -2.57    7.08   0
  -1   0  29    2.66    5.28   0
  -1   1  28 1239.66   16.42   0
   0  -3  33    0.09    6.32   0
   0  -2  44  673.41   12.66   0
   1  -4  44  265.40    9.82   0
   1   0  58  143.63    9.01   0
   2  -6  23   -2.58    5.77   0
   2  -6  29   -2.66    6.33   0
  -1   0  20 1514.30   18.18   0
  -1   1  31   -0.00    5.03   0
   0  -3  15    1.59    4.85   0
   1  -3  52  259.15    9.68   0
   2  -6  20  632.27   12.85   0
   2  -6  32  320.48   10.29   0
   2  -5  49   -4.08    7.13   0
   3  -7  31   -1.78    6.54   0
  -1   0  32 1708.89   18.13   0
   0  -3  36  798.02   12.90   0
   0   0  51    1.11    6.68   0
   1  -1  59    5.04    7.41   0
   2  -6  17    1.33    5.74   0
   2  -4  57   -1.02    7.30   0
   3  -6  51  -11.26    7.06   0
  -1   1  34  940.06   14.53   0
   0   1  50  272.69    9.56   0
   2  -6  35    2.86    6.52   0
   2  -3  62   39.73    7.83   0
   2  -2  64   94.78    8.85   0
   3  -7  34  148.99    8.60   0
   0  -3  39   -0.88    6.32   0
   0  -2  47    3.33    5.97   0
   1  -5  24  874.07   14.27   0
   1  -5  27    0.27    6.19   0
   1  -4  47    7.28    6.19   0
   3  -7  37    1.47    7.74   0
  -1  -1  24 1842.00   18.72   0
  -1  -1  27   -1.35    4.75   0
  -1  -1  30  618.55   11.87   0
   1  -5  21    4.68    5.62   0
   1  -5  30  278.25    9.70   0
   1  -3  55    4.45    7.43   0
   2  -6  38   95.48    7.97   0
   2  -5  52  124.23    8.71   0
  -1  -1  21   13.36    5.47   0
  -1   1  37   -1.38    4.61   0
   0  -3  12 2507.05   23.60   0
   1  -5  33   -0.24    6.76   0
  -1  -1  33   -0.01    5.15   0
  -1   2  27    0.55    4.28   0
   0  -3  42  289.48    9.22   0
   0  -2  50  199.29    9.38   0
   0   0  54   41.54    7.37   0
   1  -5  18  370.46   10.21   0
   1  -5  36  296.82   10.00   0
   1  -4  50  164.44    9.14   0
   1   0  61    0.04    6.96   0
   2  -6  41   -0.59    7.32   0
   2  -4  60   89.01    8.48   0
   3  -7  40  133.80    8.50   0
  -1   2  30  556.74   12.25   0
   0   1  53   -1.47    6.24   0
   1  -1  62   42.85    7.75   0
  -1  -1  18 1214.40   15.99   0
  -1   1  40  698.68   12.50   0
  -1   2  33    5.16    4.68   0
   1  -5  39    0.86    6.89   0
   2  -5  55    8.89    7.44   0
   3  -7  43    1.79    7.72   0
  -1  -1  39    0.47    6.00   0
   0  -3  45   -2.91    6.15   0
   0  -1  55    2.74    7.12   0
   1  -5  15    5.52    5.16   0
   1  -3  58   90.21    8.19   0
   2  -6  44  204.49    9.23   0
  -1   2  36  863.78   14.98   0
   0  -2  53    2.25    7.65   0
   1  -4  53    2.89    7.37   0
  -1   1  43    1.95    5.93   0
   0  -3   9   -1.82    4.42   0
   3  -7  46   43.06    8.15   0
  -1  -2  28 1344.77   16.27   0
  -1  -1  15    5.39    4.36   0
  -1  -1  42  303.68    9.19   0
   0  -4  25    2.45    5.94   0
   0  -4  28  587.97   11.41   0
   0  -3  48  181.73    8.34   0
   0   0  57    2.08    7.27   0
   1  -2  63    4.91    7.32   0
   1   0  64   72.89    8.38   0
   2  -6  47   -1.86    7.02   0
  -1  -2  25    1.17    5.02   0
  -1  -2  31    7.08    5.20   0
  -1  -2  34  598.98   11.85   0
  -1   2  39    1.78    5.16   0
   0  -4  22  710.37   12.77   0
   1  -1  65   -6.50    7.44   0
   2  -5  58   90.69    8.13   0
  -1  -2  22  479.23   10.73   0
  -1  -1  45    6.30    6.76   0
  -1   0  47    4.71    6.35   0
  -1   1  46  112.57    7.61   0
   0  -4  37   -6.05    5.74   0
   0  -1  58  151.73    8.78   0
   1  -5  12  857.69   14.89   0
   1  -4  56  132.90    8.88   0
   1  -3  61    4.37    6.75   0
  -1  -2  37   -3.71    5.70   0
   0  -4  19    0.14    5.31   0
   0  -4  40  421.55   11.11   0
   0  -3  51    3.99    7.41   0
   0  -2  56  100.66    7.64   0
   2  -6  50   83.79    8.65   0
  -1  -2  40  469.75   11.08   0
  -1   2  42  310.01   10.20   0
  -1  -2  19    1.34    4.57   0
  -1  -1  48  311.16   10.27   0
   0   0  60  156.69    8.60   0
  -1  -2  43   -2.04    6.90   0
  -1   0  50  254.41    8.87   0
  -1   1  49   -1.27    6.18   0
   0  -4  43   -3.70    6.06   0
   1  -4  59    9.68    7.49   0
   0  -4  16 1489.96   18.03   0
   0  -2  59   10.95    7.15   0
   0  -1  61    0.98    6.98   0
   1  -3  64   63.80    8.27   0
   2  -6  53    0.09    6.75   0
  -1   2  45   -1.83    5.83   0
   0  -4  46  141.72    9.19   0
  -1  -2  16 2006.91   20.01   0
  -1  -2  46  124.33    7.63   0
  -1   0  53   -0.02    6.06   0
   6  -9  15   -3.29    7.60   0
   6  -7  31   18.26    7.90   0
   2  -4  21   -1.72    5.18   0
   3  -7   7    5.62    5.83   0
   3   0  27    2.33    5.43   0
   4  -7  20  428.50   11.56   0
   5  -8  19   -2.08    7.53   0
   5  -7  27   -2.31    7.89   0
   5  -6  32  348.82   10.52   0
   7  -9  22   36.60    7.75   0
   7  -6  37    0.57    7.72   0
   1  -4   8 2656.00   25.13   0
   2   0  23    3.09    4.70   0
   7  -8  30   41.36    8.63   0
   7  -5  39  -10.05    7.70   0
   2  -5  16 1739.54   18.93   0
   3  -5  26  604.12   12.58   0
   4  -8   9   -1.44    6.20   0
   4  -6  28  432.04   11.35   0
   6  -6  36  127.58    8.66   0
   7  -7  35    0.50    7.68   0
   1  -2  18 1199.77   16.47   0
   2  -6   5    1.73    5.82   0
   3  -2  32 1142.21   16.36   0
   4  -4  35    3.84    6.99   0
   5  -3  38   89.37    7.67   0
   5  -2  37    0.93    7.05   0
   6  -9  18  178.00    9.00   0
   6  -3  39   -9.13    7.68   0
   1  -3  16 2046.84   20.96   0
   2  -3  26  538.74   11.59   0
   3  -7  10  362.87   10.63   0
   3  -6  21   -4.54    6.34   0
   3  -1  31    1.22    5.81   0
   4  -5  33    3.82    7.39   0
   5  -5  37   -4.65    7.82   0
   6  -4  40  228.01   10.44   0
   3  -4  31   12.09    6.89   0
   4  -7  23   -1.41    7.32   0
   4  -2  36  366.88   11.07   0
   5  -8  22  101.77    8.87   0
   6  -7  34  161.01    9.44   0
   2  -4  24 1839.26   19.25   0
   2  -1  27    0.68    5.31   0
   3  -3  33    6.96    6.32   0
   4  -8  12  239.62    9.76   0
   4  -3  37   -2.02    7.07   0
   5  -7  30  163.25    8.86   0
   5  -6  35   -2.34    8.18   0
   7  -4  41    4.59    7.72   0
   1  -4  11   18.30    5.42   0
   2  -5  19   -1.17    6.16   0
   7  -8  33    0.62    8.30   0
   1  -1  20 1507.16   18.82   0
   3  -7  13    6.97    6.20   0
   3  -5  29    2.30    7.08   0
   4  -6  31   -2.15    7.50   0
   6  -9  21    2.84    7.54   0
   4  -1  35   -1.30    6.11   0
   6  -6  39    2.54    7.43   0
   7  -7  38   36.15    8.53   0
   7  -5  42   69.54    8.56   0
   4  -8  15   -3.94    6.92   0
   5  -8  25   -2.85    7.62   0
   1  -3  19    0.65    5.55   0
   1  -2  21    5.52    5.14   0
   2  -6  11   -0.86    5.63   0
   4  -7  26  134.99    7.97   0
   4  -5  36  440.57   11.98   0
   4  -4  38  126.60    8.93   0
   5  -3  41   -9.29    7.67   0
   1  -4  14  667.78   12.93   0
   2  -3  29    4.34    5.45   0
   3  -7  16  400.44   10.97   0
   3  -2  35   -2.64    6.39   0
   3   0  30  307.61   10.43   0
   5  -7  33   -4.96    7.02   0
   5  -5  40  189.83    8.98   0
   6  -9  24  143.75    9.79   0
   6  -7  37   -7.71    7.44   0
   6  -4  43  -10.77    8.14   0
   6  -3  42  137.41    9.39   0
   2  -4  27   -4.90    5.49   0
   2   0  26 1192.86   17.67   0
   3  -4  34  493.46   11.16   0
   3  -3  36  529.18   11.88   0
   3  -1  34  584.17   12.68   0
   4  -8  18  193.36    9.05   0
   4  -2  39   -1.67    6.89   0
   5  -4  42  194.35    8.96   0
   2  -6  14  283.39    9.54   0
   2  -2  31   -4.17    6.09   0
   3  -5  32  653.16   12.45   0
   4  -6  34  161.97    8.44   0
   4  -3  40  429.41   10.96   0
   5  -9  17   11.11    7.67   0
   5  -8  28  144.15    8.92   0
   7  -4  44  111.04    8.78   0
   2  -1  30  556.41   11.55   0
   6  -6  42  120.83    8.89   0
   6  -5  44  134.09    9.38   0
   1  -5   3   15.47    5.27   0
   1  -1  23   -2.04    4.49   0
   3  -7  19   -1.52    6.77   0
   6  -9  27    3.90    7.46   0
   7  -5  45   -0.84    7.54   0
   1  -3  22  464.28   10.46   0
   1  -2  24 1861.54   19.36   0
   4  -8  21   -3.95    7.14   0
   4  -5  39    2.21    6.69   0
   4  -4  41   -4.59    7.52   0
   5  -7  36  147.91    8.56   0
   6  -8  35    4.11    7.46   0
   6  -7  40  181.99    9.86   0
   2  -6  17   -1.60    6.09   0
   2  -4  30  188.92    8.75   0
   2  -3  32 1208.76   15.56   0
   4  -1  38  157.94    8.64   0
   5  -9  20  106.13    8.91   0
   3  -4  37   -1.29    6.25   0
   3  -2  38  322.34   10.30   0
   5  -8  31    6.77    7.32   0
   5  -6  41    0.86    7.09   0
   5  -3  44  231.85   10.25   0
   3  -7  22  168.33    8.71   0
   3  -5  35   -2.24    6.97   0
   4  -6  37   -5.47    6.81   0
   6  -4  46   91.14    9.20   0
   6  -3  45    8.67    7.13   0
   1  -5   9    0.83    5.32   0
   3  -3  39    3.91    5.96   0
   5  -4  45   -0.18    6.32   0
   5  -2  43   -2.38    7.26   0
   2  -2  34  273.26    8.89   0
   2   0  29    1.20    4.89   0
   4  -8  24  307.26   10.67   0
   4  -3  43    5.53    7.51   0
   4  -2  42  392.69   11.28   0
   6  -6  45   -1.13    7.18   0
   1  -3  25    3.14    5.14   0
   2  -6  20  607.61   12.01   0
   2  -5  28  381.91   10.62   0
   2  -1  33    0.07    5.81   0
   3  -1  37   -0.78    5.43   0
   3   0  33   -1.72    5.31   0
   5  -9  23   -1.10    7.18   0
   5  -7  39   -4.30    8.01   0
   6  -5  47    2.25    7.62   0
   7  -4  47    3.66    7.68   0
   1  -5  12  903.94   14.98   0
   1  -2  27   -0.98    4.87   0
   1  -1  26 1181.66   15.89   0
   4  -5  42  223.66    9.17   0
   6  -7  43   -1.43    6.92   0
   2  -4  33    0.77    5.80   0
   2  -3  35   -2.10    5.77   0
   3  -7  25   -1.53    6.08   0
   3  -6  33   11.44    7.22   0
   3  -4  40  430.99   11.72   0
   5  -8  34  113.37    8.23   0
   5  -6  44  160.07    9.78   0
   5  -5  46   82.41    8.37   0
   1  -4  23   10.38    6.06   0
   3  -5  38   92.42    8.59   0
   4  -8  27   -7.09    7.25   0
   4  -6  40  231.46   10.14   0
   1  -5  15    6.77    5.70   0
   2  -6  23    0.84    6.63   0
   5  -9  26  131.37    8.16   0
   5  -3  47    7.97    7.77   0
   2  -5  31   -5.36    6.83   0
   3  -2  41    5.65    5.82   0
   4  -1  41   -3.27    6.28   0
   5  -4  48  117.98    9.34   0
   6  -4  49   -0.13    7.55   0
   0  -2  14  337.31    9.57   0
   1  -3  28 1333.27   16.27   0
   3  -7  28  363.51   10.97   0
   5  -7  42   91.18    8.33   0
   6  -6  48  123.12    9.43   0
   0  -3   9    4.29    4.57   0
   4  -5  45    2.09    8.27   0
   4  -3  46   80.33    8.65   0
   1  -5  18  378.49   10.32   0
   1  -4  26  633.36   12.23   0
   1  -2  30  620.03   11.67   0
   1   0  25   -0.79    4.71   0
   2  -6  26  373.87   10.77   0
   2  -3  38  323.34   10.35   0
   3  -6  36  285.74    9.62   0
   4  -8  30   77.97    8.09   0
   4  -2  45   -6.71    6.81   0
   5  -9  29   -0.59    7.89   0
   6  -5  50   64.35    8.89   0
   2  -1  36  881.58   13.97   0
   2   0  32  628.20   13.00   0
   3  -4  43   10.58    7.17   0
   3  -1  40  438.20   11.48   0
   4  -7  38  114.24    8.40   0
   4  -6  43   -5.37    7.81   0
   5  -6  47   -3.71    7.85   0
   0  -3  12 2521.58   24.10   0
   0  -2  17    0.49    5.23   0
   3  -5  41    7.45    6.61   0
   1  -3  31   -7.22    6.12   0
   2  -5  34  398.32   10.56   0
   3  -7  31    8.14    7.48   0
   1  -5  21    1.40    5.17   0
   2  -7  15   -4.43    5.97   0
   5  -7  45    2.37    7.57   0
   1  -4  29    7.57    5.98   0
   2  -6  29   -1.89    7.08   0
   3  -8  20  192.75    9.03   0
   3  -6  39    1.19    7.59   0
   3  -2  44  303.35    9.72   0
   4  -8  33    1.93    7.61   0
   5  -3  50  155.60    9.44   0
   0  -1  19    2.00    5.20   0
   1  -2  33    8.44    5.34   0
   2  -4  39    2.86    6.24   0
   4  -7  41   -7.93    7.46   0
   4  -5  48  123.50    9.20   0
   0  -2  20 3446.04   25.98   0
   1  -5  24  854.06   14.12   0
   2  -3  41    1.98    7.21   0
   4  -3  49    7.96    7.97   0
   1   0  28 1316.32   17.55   0
   2  -5  37   -5.87    6.92   0
   2  -1  39    2.24    6.25   0
   3  -8  23    3.02    6.38   0
   3  -7  34  160.97    8.32   0
   3  -5  44  209.17    9.19   0
   3  -4  46   84.86    8.86   0
   4  -4  50  151.91    9.63   0
   5  -6  50   78.10    8.40   0
   1  -3  34  587.22   11.61   0
   2  -6  32  333.38   10.64   0
   3  -1  43   -4.11    6.24   0
   4  -8  36  114.78    8.83   0
   4  -2  48  280.23   10.62   0
   5  -5  52  143.44    9.61   0
   1  -4  32  855.34   13.88   0
   2  -7  21    6.33    6.26   0
   2   0  35   -0.07    5.39   0
   0  -2  23   -4.73    4.76   0
   1  -5  27    5.38    6.40   0
   3  -8  26  159.92    9.58   0
   3  -6  42  158.14    9.53   0
   0  -3  21   -2.13    4.75   0
   1  -6  13    3.87    6.27   0
   1  -2  36  920.40   13.87   0
   2  -4  42  368.54   10.34   0
   3  -7  37   -4.41    7.82   0
   3  -3  48  292.78    9.84   0
   3  -2  47    5.10    6.93   0
   4  -7  44  116.84    9.03   0
   0  -4   7    2.10    4.78   0
   0  -4  10  394.25   10.85   0
   2  -7  24  295.94   10.14   0
   2  -5  40  421.20   11.63   0
   2  -2  43    1.56    5.72   0
   4  -5  51   -2.79    7.61   0
   5  -4  54   49.06    7.90   0
   5  -3  53    5.91    8.39   0
   0  -4  13    1.13    5.03   0
   1  -3  37   -2.42    6.84   0
   2  -3  44  317.19    9.93   0
   3  -5  47   -6.51    8.20   0
   4  -8  39   -4.82    7.64   0
   4  -6  49    4.51    7.29   0
   4  -3  52  191.37   10.16   0
   0  -3  24 1072.29   15.02   0
   0  -2  26 1241.80   16.02   0
   1  -4  35    5.64    6.95   0
   1   0  31    3.17    5.06   0
   3  -8  29   -5.61    7.05   0
   3  -4  49    2.96    6.53   0
   0  -4  16 1487.04   18.18   0
   0  -1  25    2.74    4.60   0
   1  -6  19   -3.81    6.05   0
   2  -7  27   -1.29    6.85   0
   2  -1  42  322.47   10.18   0
   3  -6  45   -1.54    8.00   0
   4  -4  53    6.41    8.33   0
   5  -5  55   -2.80    7.25   0
   4  -2  51    3.68    7.30   0
   0  -4  19    5.09    5.58   0
   1  -2  39    3.07    5.64   0
   2  -4  45   11.69    6.52   0
   3  -1  46  120.71    8.27   0
   4  -7  47   -5.32    6.71   0
   0  -3  27    1.13    5.91   0
   1  -6  22  196.43    8.73   0
   2  -5  43   -5.96    6.58   0
   2  -2  46  257.20    9.78   0
   3  -8  32  178.04    8.90   0
   3  -3  51   -3.90    7.82   0
   0  -2  29    2.39    5.07   0
   0   0  21   -2.49    4.06   0
   1  -4  38  153.03    8.98   0
   1  -3  40  456.65   10.78   0
   1  -1  38  258.10    9.08   0
   2  -7  30   77.32    8.05   0
   2  -3  47    2.07    7.45   0
   3  -5  50  176.70    9.37   0
   3  -2  50  160.59    9.11   0
   4  -6  52  111.21    8.70   0
   4  -5  54   44.17    8.15   0
   0  -4  22  676.78   12.16   0
   0  -1  28 1368.46   16.46   0
   3  -4  52  176.92    9.47   0
   5  -4  57    3.25    7.10   0
   1  -6  25    4.03    6.59   0
   1   0  34  894.56   14.12   0
   3  -6  48  117.66    8.93   0
   4  -3  55   -4.38    7.82   0
   0  -3  30  293.84    9.59   0
   2  -4  48  294.62   10.73   0
   2  -1  45    5.14    6.31   0
   3  -8  35    2.01    6.80   0
   4  -4  56   64.27    8.14   0
   0  -2  32  657.37   11.74   0
   1  -2  42  317.85    9.44   0
   2  -7  33   -4.34    6.63   0
   2  -5  46   40.55    8.20   0
   0  -1  31    4.64    5.45   0
   1  -6  28  373.07   10.91   0
   1  -4  41   -2.03    7.25   0
   1  -3  43   -4.39    6.95   0
   1  -1  41   -2.12    6.21   0
   2  -2  49    2.36    7.14   0
   2   0  41    2.67    5.50   0
   3  -5  53    2.21    7.53   0
   3  -3  54   84.01    8.54   0
   3  -1  49    0.36    6.68   0
   0  -3  33    6.05    6.49   0
   2  -7  36  228.09   10.16   0
   3  -8  38   48.73    7.63   0
   0  -2  35    8.24    6.22   0
   1  -6  31   -6.24    7.13   0
   1  -5  39    0.78    6.91   0
   1   0  37   -3.61    5.74   0
   2  -6  44  217.11    9.95   0
   3  -6  51    8.87    7.73   0
   3  -2  53   -1.21    7.36   0
   0  -5  11   -0.83    5.57   0
   0  -5  14  615.45   12.77   0
   0  -5  17   -1.30    5.55   0
   2  -4  51   -0.52    7.95   0
   0  -1  34  973.25   14.01   0
   1  -4  44  257.30   10.26   0
   1  -2  45   -2.75    5.96   0
   2  -5  49   -0.80    6.90   0
   2  -1  48  324.90   10.54   0
   4  -4  59   -8.56    7.74   0
   4  -3  58   95.74    9.10   0
   0  -5  20  633.33   12.22   0
   0  -3  36  821.10   13.78   0
   1  -6  34  200.12    9.53   0
   1  -3  46  120.19    8.07   0
   0  -5  23   -2.25    6.06   0
   1  -1  44  439.13   11.18   0
   2  -7  39    1.36    7.75   0
   0  -4  34  259.05    9.23   0
   0  -2  38  240.07    8.40   0
   1  -5  42  157.37    8.25   0
   2  -6  47   -2.91    7.32   0
   2  -2  52  189.82    9.46   0
   2   0  44  640.86   13.28   0
   3  -5  56   86.31    8.02   0
   3  -3  57    4.90    7.35   0
   0  -5  26  210.49    8.89   0
   1   0  40  733.94   13.43   0
   1   1  30  571.38   12.96   0
   0  -3  39   -6.15    6.62   0
   0  -1  37    2.71    5.17   0
   1  -6  37    2.48    7.15   0
   1  -4  47   -6.31    7.54   0
   2  -5  52  118.23    9.01   0
   2  -4  54   30.12    8.29   0
   3  -4  58   96.29    8.97   0
   3  -2  56  170.95    9.75   0
   1  -3  49  -11.39    7.08   0
   2  -7  42  129.32    8.56   0
  -1  -2  16 2033.40   20.42   0
  -1  -2  19   -2.28    5.27   0
   0  -5  29    3.68    5.47   0
   0  -4  37    3.40    5.91   0
   0   0  33    1.42    5.23   0
   1  -5  45   10.50    7.48   0
  -1  -2  22  476.16   10.70   0
   0  -2  41    5.11    5.76   0
   1  -1  47   -7.57    6.76   0
   2  -6  50   88.58    8.66   0
   2  -1  51    0.10    6.69   0
  -1  -1  15    4.19    5.04   0
  -1  -1  18 1184.78   15.89   0
   0  -5  32  452.09   11.37   0
   0  -1  40  700.78   12.66   0
   1  -6  40  176.12    9.50   0
   2  -3  56  181.82    9.58   0
  -1  -2  25    5.26    4.87   0
  -1  -1  21   13.67    4.83   0
   0  -3  42  295.79    9.44   0
   1  -7  29    4.01    7.58   0
   1  -4  50  184.23    9.52   0
   1   0  43    0.65    5.92   0
   1   1  33    1.34    4.89   0
   2  -7  45   11.86    7.49   0
   2  -2  55    3.63    7.58   0
   3  -3  60  105.65    9.04   0
  -1  -3  14  687.88   12.89   0
  -1  -3  17    1.35    4.37   0
  -1  -3  20  856.99   13.39   0
  -1  -1  24 1859.52   19.16   0
   0  -4  40  425.63   10.65   0
   2  -5  55   -0.40    7.43   0
   2   0  47    3.35    5.80   0
  -1  -2  28 1302.17   15.68   0
   0  -5  35   -4.36    6.85   0
   0  -2  44  697.88   13.05   0
   0   0  36  568.14   11.28   0
   1  -5  48  209.66   10.04   0
   1  -3  52  257.27    9.48   0
   2  -4  57   -1.37    7.06   0
   3  -4  61    2.71    7.59   0
  -1  -3  11   22.35    5.42   0
  -1  -1  27   -6.98    5.59   0
   1  -7  32  229.66    9.25   0
   1  -6  43    4.01    7.42   0
   3  -2  59    1.83    6.93   0
  -1  -2  31    9.10    5.88   0
   0  -3  45   -0.77    7.37   0
   1  -1  50  268.94    9.84   0
   2  -8  37    1.91    6.03   0
   2  -6  53   -7.76    7.93   0
  -1  -3  29    3.67    6.06   0
  -1  -1  30  623.87   11.86   0
   0  -5  38  186.12    9.46   0
   0  -4  43    8.90    6.28   0
   1  -4  53  -14.71    7.86   0
   2  -1  54   93.19    8.25   0
   0  -6  21    4.14    5.92   0
   0   0  39    2.89    5.63   0
   1  -7  35   12.35    6.91   0
   1   1  36  837.46   14.88   0
   2  -3  59    3.16    7.23   0
  -1  -3   8 2620.88   25.57   0
  -1  -3  32  869.88   13.76   0
  -1  -2  34  562.04   11.69   0
   0  -6  24  436.14   11.32   0
   0  -2  47    2.30    6.05   0
   0   1  26 1142.99   17.01   0
   1  -6  46   57.14    7.79   0
   1  -5  51   -0.79    7.13   0
   1  -3  55    3.86    7.85   0
   1  -2  54  105.95    8.72   0
   1   0  46  118.35    7.80   0
   2  -5  58   92.87    8.85   0
   2  -2  58   82.01    8.79   0
  -1  -1  33   -1.70    6.02   0
   0  -6  27    3.22    6.36   0
   0  -3  48  201.34    9.92   0
   2  -4  60   78.25    8.69   0
   3  -3  63    1.07    6.89   0
  -1  -4  18  381.58   10.22   0
  -1  -4  21    4.15    4.90   0
  -1  -4  24  890.50   14.35   0
  -1   0  20 1531.00   18.19   0
  -1   0  23    1.09    5.14   0
   0  -6  30  104.38    8.81   0
   0  -4  46  129.63    8.05   0
   1  -7  38   38.97    7.23   0
  -1  -4  15    8.75    5.38   0
  -1  -4  27   -4.18    6.06   0
  -1  -3  35    6.53    5.80   0
  -1  -2  37    4.12    6.47   0
   0   1  29   -0.75    4.61   0
   1  -1  53    1.29    7.13   0
  -1  -1  36  901.78   13.87   0
  -1   0  26 1162.43   15.29   0
   1  -4  56  124.70    9.45   0
   1   1  39    1.69    5.45   0
  -1  -4  12  885.40   14.80   0
  -1  -4  30  284.51    9.09   0
  -1   0  29    2.19    5.18   0
   0  -6  33   -6.73    6.90   0
   0  -2  50  178.82    8.57   0
   1  -7  41   -1.67    6.53   0
   1  -5  54   44.19    8.54   0
   2  -3  62   42.68    7.79   0
   2  -1  57    4.20    7.09   0
  -1  -3  38  167.28    8.07   0
  -1  -2  40  419.26   10.76   0
   0  -4  49    6.88    7.54   0
   0  -3  51    2.40    7.53   0
   0   1  32 1706.08   19.68   0
   1  -2  57    3.75    7.34   0
   1   0  49   -3.08    6.38   0
  -1  -4  33    0.04    5.66   0
  -1  -1  39   -4.24    6.46   0
   0  -6  36  201.26    8.98   0
   0  -1  49   -3.03    6.83   0
   2  -2  61    5.97    7.63   0
  -1   0  32 1694.78   17.85   0
  -1  -4   9    3.87    4.94   0
  -1  -3  41    9.95    6.06   0
   0   0  45   -3.02    5.20   0
   0   1  35    1.75    5.06   0
   1  -7  44  106.61    7.65   0
   1  -4  59  -11.49    7.40   0
  -1  -2  43   -1.70    5.93   0
  -1   0  35    1.33    5.80   0
   0  -6  39   -8.30    6.99   0
   0  -2  53   -2.46    6.27   0
   1  -5  57    8.06    7.20   0
   1  -1  56  185.92    9.51   0
  -1  -1  42  316.45    9.16   0
   0  -4  52  152.25    8.54   0
   0  -3  54   89.16    8.39   0
  -1  -3  44  279.54   10.05   0
   0  -1  52  299.69   10.34   0
   1  -2  60  154.22    8.98   0
   1   0  52  275.23    9.96   0
  -1  -5  22  203.36    8.68   0
  -1  -5  25   -0.03    6.12   0
  -1  -5  28  377.78   10.75   0
  -1  -2  46  132.68    8.72   0
   0  -6  42  114.42    8.47   0
   0  -5  50   58.26    8.28   0
   0   0  48  450.10   11.24   0
   0   1  38  239.81    8.74   0
  -1  -5  19   -1.65    5.64   0
  -1  -5  31   -1.35    6.73   0
   2  -2  64   81.51    8.49   0
  -1  -1  45   -3.46    6.00   0
   0  -4  55   -4.53    7.72   0
  -1  -5  34  211.53    9.22   0
  -1  -3  47    0.45    6.38   0
   0  -6  45    2.41    6.92   0
   0  -3  57   -7.66    7.54   0
   1  -1  59    0.52    6.75   0
  -1  -2  49    2.99    7.42   0
   0  -1  55    5.97    6.95   0
   0   1  41    2.45    5.34   0
  -2  -2  24 1786.35   18.50   0
  -2  -2  27    1.15    5.95   0
  -1  -5  37   -2.69    6.78   0
  -1  -4  45    2.79    6.33   0
  -1  -1  48  317.06   10.42   0
   0  -5  53    6.35    6.60   0
   1  -3  64   56.23    7.59   0
   1  -2  63    8.79    7.56   0
   1   0  55   -4.64    6.68   0
  -2  -2  30  201.13    7.79   0
  -2  -1  23   -5.13    5.57   0
  -2  -1  26  543.35   11.16   0
  -1  -3  50  172.82    9.58   0
   0   0  51    5.07    5.84   0
  -2  -2  33    2.66    5.42   0
  -2  -1  29    1.29    5.18   0
  -1  -5  40  195.09    9.42   0
  -1   0  44  408.43   10.04   0
  -1   1  28 1282.53   16.60   0
   0  -6  48  108.22    8.45   0
   0  -4  58   68.70    8.02   0
  -2  -3  25    3.99    5.94   0
  -2  -3  28  384.30   10.28   0
  -2  -1  20 1416.46   16.56   0
  -2  -1  32 1163.47   14.80   0
  -1  -4  48  177.21    9.61   0
  -1  -2  52  257.01   10.38   0
  -1   1  31   -0.72    5.02   0
   0  -3  60  137.48    8.99   0
  -2  -3  22  293.24    9.12   0
  -2  -2  36  364.59    9.74   0
  -2  -1  35    8.88    6.35   0
   0   1  44  406.02   10.72   0
   1  -1  62   44.86    8.44   0
  -2  -3  19    1.05    5.55   0
  -2  -2  15   -2.43    4.90   0
  -2  -1  17    6.01    4.64   0
  -1  -5  43    3.79    7.00   0
  -1  -3  53  -12.11    7.84   0
  -1   1  34  909.63   13.69   0
   0  -1  58  142.31    8.65   0
  -2  -2  39   -4.56    5.87   0
  -2  -1  38  316.73    9.14   0
  -1   0  47   -2.75    5.54   0
   0   0  54   37.42    7.24   0
  -2   0  28 1127.14   14.91   0
  -1  -4  51   -0.36    6.83   0
  -1   1  37   -1.30    5.41   0
  -2  -3  16 1796.49   19.51   0
  -2  -2  42  365.27    9.81   0
  -2  -1  41   -0.06    6.60   0
  -2   0  25   -2.64    4.80   0
  -2   0  31    2.03    4.94   0
  -1  -5  46   58.23    7.73   0
  -1  -2  55    2.41    6.73   0
   0  -2  62   49.67    8.38   0
   0   1  47    2.45    5.83   0
  -2  -3  40  399.67   10.30   0
  -2  -1  14 1549.91   17.92   0
  -2   0  22 1911.83   18.97   0
  -2   0  34  289.36    8.66   0
   0  -3  63   -3.08    6.61   0
  -2  -4  29    2.63    6.31   0
  -2  -2  12  735.76   12.83   0
  -2   0  37    1.64    6.23   0
  -1  -4  54   60.85    8.09   0
  -1  -3  56  119.03    8.63   0
  -1   0  50  250.23    8.90   0
  -1   1  40  701.92   12.25   0
   0  -1  61   -2.93    6.87   0
  -2  -4  23   -2.33    5.87   0
  -2  -4  32  321.24   10.30   0
  -2  -3  43   -3.37    7.26   0
  -2  -2  45    3.04    6.18   0
  -2  -1  44  334.83    9.52   0
  -2   0  19   -4.66    4.50   0
  -1  -6  35    2.40    6.37   0
  -1  -5  49   -0.88    6.97   0
   0   0  57   -3.79    6.83   0
   1  -1  65    4.37    7.06   0
  -2  -4  35   -0.21    6.80   0
  -2  -3  13   -4.51    5.21   0
  -2   0  40  791.99   13.30   0
  -1  -6  38   40.68    7.92   0
  -1  -2  58   97.01    8.45   0
  -2  -4  20  617.77   12.57   0
  -2  -4  38   79.32    8.06   0
  -2  -2  48  290.03   10.63   0
  -1  -1  57    3.74    7.72   0
  -1   1  43    2.62    4.96   0
   0  -2  65    6.25    7.57   0
   0   1  50  258.38    9.52   0
  -2  -3  46   59.12    6.89   0
  -2  -1  47   -8.89    6.15   0
  -1  -6  41    0.85    6.88   0
  -1  -3  59   -5.92    7.40   0
  -2  -4  41   -0.56    7.32   0
  -2   0  16 2993.19   24.42   0
  -2   0  43   -1.39    5.60   0
  -1  -4  57    6.06    6.41   0
  -1  -6  32  232.12    9.90   0
  -1  -1  21    6.65    4.94   0
   0  -7  37    0.88    7.06   0
   1  -5  45    3.76    7.16   0
   1  -4  44  267.26   10.35   0
   2  -2  37   -0.33    6.08   0
  -2  -6  19   -6.00    7.05   0
  -2  -4  26  381.40   10.88   0
  -2  -3  25    2.24    6.33   0
   1  -7  44   91.36    9.09   0
  -2  -2  21    2.10    5.30   0
  -2  -1   8 3224.27   27.36   0
   1  -1  29   -0.15    4.89   0
   0  -2  35   -0.23    5.28   0
   3  -6  51    4.16    8.29   0
  -2  -6  22   91.86    8.33   0
  -2  -1  11    9.19    4.81   0
  -1  -6  35   -8.13    7.71   0
  -1  -5  37   -7.06    7.85   0
  -1  -3  35   -3.11    6.12   0
  -1  -2  31   -2.42    5.53   0
   0  -6  42  134.20    9.44   0
   0  -1  28 1250.22   16.68   0
   2  -5  49    6.30    7.71   0
  -2  -4  29    1.64    7.09   0
  -2  -3  28  392.26   10.86   0
  -1  -1  24 1858.60   19.41   0
   0  -7  40  145.12    9.04   0
   1  -3  43   -4.24    6.80   0
   2  -6  50   88.92    8.51   0
  -3  -4   4  603.10   13.19   0
  -3  -3   6  429.04   10.94   0
  -2  -2  24 1855.13   18.61   0
   0  -5  44  175.56    9.65   0
  -3  -4   7    3.47    6.02   0
  -3  -4  10  359.47   10.59   0
  -3  -3   3    1.44    5.35   0
  -3  -3   9   -0.08    5.77   0
  -2  -6  25   -3.48    7.21   0
  -2  -1  14 1641.82   18.45   0
   1  -5  48  193.38   10.05   0
   1  -2  39    4.72    5.91   0
  -3  -4  13    7.03    6.69   0
  -3  -3   0  981.65   15.94   0
  -3  -3  12  745.61   13.42   0
  -2  -5  30   77.72    8.37   0
  -1  -4  39   -3.71    6.59   0
   1  -4  47   -4.53    6.42   0
  -2  -7  17    3.79    6.34   0
  -2  -4  32  324.13   10.71   0
  -2  -1  17    0.93    5.54   0
  -1  -6  38   44.20    8.07   0
  -1  -3  38  172.24    9.04   0
  -1  -2  34  589.73   12.15   0
   1  -6  49   11.17    7.41   0
  -3  -3  15   -1.05    5.12   0
  -2  -3  31    8.21    6.05   0
  -2  -2  27    0.89    5.52   0
  -1  -1  27    2.32    5.66   0
   0  -6  45   -4.51    7.74   0
   0  -2  38  233.54    8.43   0
  -2  -7  20  121.26    8.10   0
  -2  -6  28  134.82    9.54   0
   0  -1  31   -4.89    4.54   0
   1  -1  32 1663.66   20.54   0
   2  -2  40  745.60   14.63   0
  -3  -5  11    5.28    6.71   0
  -3  -4  19   -5.04    6.90   0
  -3  -3  18  390.79   10.51   0
  -3  -2   5    3.49    5.21   0
  -3  -2   8 2180.61   21.47   0
  -2  -5  33    3.94    7.94   0
   0  -4  46  135.38    9.06   0
   2  -5  52  123.47    8.89   0
  -3  -5  14  141.50    8.57   0
  -3  -2  11    1.47    4.70   0
  -2  -1  20 1435.19   16.72   0
  -1  -4  42  173.94    9.56   0
   1  -3  46  129.45    8.56   0
   2  -6  53    0.46    7.53   0
  -3  -5  17    5.72    7.07   0
  -3  -2   2  782.70   14.08   0
  -3  -2  14  362.55    9.94   0
  -2  -4  35   -6.47    7.94   0
  -2  -3  34  438.62   11.45   0
  -2  -2  30  194.54    8.42   0
  -1  -6  41    6.22    7.61   0
   1  -5  51    2.79    7.31   0
  -3  -4  22  168.26    8.97   0
  -1  -5  43   -4.64    7.82   0
  -1  -3  41    7.61    7.06   0
  -1  -2  37    6.87    6.28   0
   0  -3  45   -6.03    7.14   0
   1  -4  50  181.52    9.68   0
   2  -4  51    5.61    7.33   0
  -3  -5  20  214.18    9.73   0
  -3  -2  -1    0.55    5.05   0
  -2  -1  23    1.39    5.82   0
  -1  -1  30  586.10   11.42   0
   0  -6  48  109.48    8.52   0
   1  -2  42  323.64   10.28   0
  -2  -5  36  233.50    9.81   0
   0  -2  41    0.78    5.30   0
  -3  -4  25    2.01    6.11   0
  -3  -2  20  575.58   11.63   0
   0  -1  34  938.90   14.41   0
  -3  -5  23    2.64    7.30   0
  -2  -4  38   96.84    8.17   0
  -2  -3  37   -7.32    7.09   0
  -2  -2  33   -2.07    5.70   0
  -1  -6  44   92.88    9.11   0
  -1  -4  45    3.13    7.53   0
   0  -4  49    4.91    7.77   0
   1  -1  35    1.70    5.81   0
  -3  -3  27    3.07    6.56   0
  -2  -1  26  522.89   10.73   0
  -3  -2  23    6.30    5.41   0
  -2  -5  39   -8.04    7.49   0
  -1  -5  46   58.07    7.77   0
   1  -3  49   -2.28    6.64   0
  -3  -6  18   77.41    7.43   0
  -2  -6  37    3.12    7.03   0
   0  -3  48  187.87    9.59   0
   1  -5  54   51.16    8.23   0
  -3  -3  30  170.68    9.00   0
  -3  -2  26  597.01   12.03   0
  -2  -4  41   -3.30    7.55   0
  -2  -2  36  374.91   10.67   0
   1  -4  53    6.98    7.39   0
  -3  -6  21   -1.42    6.45   0
  -3  -5  29    1.06    7.06   0
  -2  -3  40  430.10   11.44   0
  -2  -1  29    7.15    5.25   0
   0  -2  44  639.28   12.38   0
   0  -1  37    8.17    5.43   0
   1  -2  45   -4.02    6.14   0
  -3  -1   7   12.56    5.03   0
  -1  -4  48  207.35    9.69   0
  -1   0  20 1502.56   18.68   0
  -3  -6  24  186.62    8.78   0
  -3  -1  16 2030.84   19.47   0
  -2  -5  42  124.15    8.94   0
  -1  -5  49    4.34    7.39   0
   0  -5  53   -0.11    7.72   0
   0  -4  52  135.34    9.40   0
  -3  -5  32  194.58    9.66   0
  -3  -4  34  177.80    9.41   0
  -3  -3  33   -2.25    7.33   0
  -3  -2  29   -3.14    5.83   0
  -3  -1   4 1255.78   17.19   0
  -3  -1  19   17.29    5.51   0
  -3  -6  27   -3.24    7.01   0
  -2  -4  44  223.43    9.86   0
  -2  -2  39    3.23    6.71   0
  -2  -1  32 1201.34   15.60   0
   1  -1  38  239.03    9.02   0
  -3  -1  22  347.10    9.49   0
  -2  -3  43    8.78    7.83   0
  -1   0  23    0.81    4.32   0
   0  -3  51    1.66    7.46   0
   1  -3  52  272.24   10.54   0
  -3  -2  32  712.01   12.88   0
  -4  -3  11    0.19    5.85   0
  -4  -3  14  348.77   10.18   0
  -3  -4  37    6.69    7.39   0
  -3  -3  36  284.44    9.43   0
  -3  -1   1   15.89    4.76   0
  -2  -5  45    9.47    6.83   0
  -2   0  13    0.55    4.37   0
  -2   0  16 2982.29   24.74   0
   0  -2  47    4.30    5.83   0
   0  -1  40  729.62   13.58   0
   1  -4  56  127.08    9.17   0
  -4  -4  12  224.67    9.33   0
  -4  -4  15    7.51    6.39   0
  -4  -3   8  537.10   12.08   0
  -4  -3  17    3.82    6.61   0
  -3  -1  25    3.60    5.26   0
  -2  -1  35   -4.57    6.36   0
  -1  -1  39    1.01    6.11   0
   1  -2  48  314.39   10.94   0
  -4  -4  18  176.47    8.92   0
  -4  -3  20  421.36   11.06   0
  -2  -4  47    0.14    7.51   0
  -2  -2  42  395.24   10.75   0
  -2   0  19   -2.05    4.48   0
  -1  -3  50  178.48    9.38   0
  -1  -2  46  126.38    8.48   0
   0  -4  55    1.59    7.23   0
   0   0  27    2.76    4.79   0
  -4  -4  21    1.34    6.61   0
  -4  -3  23   -3.05    6.79   0
  -3  -2  35   -7.45    6.12   0
  -3  -1  28  702.46   12.32   0
  -2  -3  46   42.80    8.11   0
  -4  -2  10  339.92    9.70   0
  -4  -2  13    6.11    4.89   0
  -4  -2  16  710.58   12.25   0
  -4  -2  19    2.31    6.22   0
  -3  -4  40  144.30    8.90   0
  -3  -3  39    5.43    6.39   0
  -2   0  22 1926.65   19.10   0
  -4  -4  24  309.57   10.57   0
  -4  -3  26  133.89    8.53   0
   1  -1  41    0.66    5.55   0
  -4  -2   7    0.06    5.44   0
  -4  -2  22  346.75    9.44   0
  -3  -2  38   79.87    8.20   0
  -3  -1  31    4.67    6.10   0
  -2  -1  38  324.73    9.18   0
  -2   0  25    1.02    5.13   0
  -1  -4  54   40.80    8.20   0
   0  -3  54   77.41    8.32   0
  -4  -4  27   -7.44    6.64   0
  -2  -2  45   -1.78    6.87   0
  -1  -1  42  332.53   10.09   0
   0  -2  50  195.71    9.21   0
   0  -1  43    4.24    5.96   0
   0   0  30  161.14    7.61   0
  -4  -5  22   65.16    7.23   0
  -4  -2   4  824.96   14.05   0
  -3  -4  43    0.41    7.21   0
  -2  -4  50  101.90    7.96   0
  -2  -3  49   -5.80    7.72   0
  -1  -3  53    2.99    7.64   0
  -1  -2  49    4.07    7.02   0
  -4  -5  25    0.99    7.40   0
  -4  -4  30   72.06    7.85   0
  -4  -2  28  425.52   10.86   0
  -2   0  28 1119.40   14.87   0
   0  -4  58   59.91    7.79   0
  -3  -1  34  502.87   10.69   0
  -1   0  32 1613.90   18.20   0
  -4  -5  28   70.90    8.20   0
  -3  -2  41   10.82    6.27   0
  -2  -1  41    0.02    5.72   0
  -4  -4  33   -7.74    6.77   0
  -4  -2  31    3.18    6.97   0
  -4  -1  12 1097.28   15.09   0
  -4  -1  15    0.95    4.91   0
  -3  -3  45   -1.40    7.46   0
  -3   0  15    2.48    5.21   0
  -3   0  18  508.02   10.66   0
  -4  -3  35   -1.99    7.47   0
  -3  -4  46   49.10    8.25   0
  -3  -1  37    1.75    6.50   0
  -3   0  21   -4.87    4.78   0
  -2  -4  53    1.45    7.10   0
  -2   0  31    0.15    4.88   0
  -1  -4  57   -6.42    6.98   0
  -1  -1  45    2.40    5.47   0
   0  -3  57   -4.82    7.18   0
   0   0  33    3.49    4.84   0
  -4  -1   9   13.97    5.45   0
  -4  -1  24  637.32   11.56   0
  -3   0  24 1633.81   17.46   0
  -1  -2  52  254.12   10.18   0
  -1   0  35    2.54    5.44   0
   0  -2  53    1.01    6.60   0
   0  -1  46  115.36    7.67   0
  -4  -4  36  112.64    7.96   0
  -4  -2  34  170.64    8.15   0
  -4  -1  27   -2.25    6.42   0
  -3  -2  44  235.83    8.99   0
  -1  -3  56  126.21    8.75   0
  -4  -3  38  113.19    8.44   0
  -3   0  27   -2.67    5.94   0
  -2   0  34  268.49    9.04   0
  -4  -1   6  354.53    9.67   0
  -3  -3  48  130.17    9.28   0
  -3  -1  40  453.07   11.32   0
  -4  -2  37   -1.94    6.20   0
  -4  -1  30  164.47    7.73   0
   0   0  36  580.34   12.18   0
  -3  -2  47   -0.06    7.64   0
  -3   0  30  556.97   10.88   0
  -1  -1  48  311.64    9.49   0
  -1   0  38  256.68    8.98   0
  -4  -3  41   -0.68    6.86   0
  -4  -1  33    9.50    6.86   0
  -2  -1  47    1.61    6.85   0
  -4  -2  40  232.87    9.99   0
  -4  -1   3    0.39    4.89   0
  -3  -1  43    8.10    7.10   0
  -3   0  33   -4.29    6.20   0
  -1  -2  55    8.56    7.16   0
   0  -3  60  128.83    8.51   0
   0  -1  49    2.54    6.08   0
  -5  -3  19    6.42    6.12   0
  -5  -3  22  109.39    8.13   0
  -3  -3  51   -2.64    6.86   0
  -1  -3  59   -7.59    6.97   0
   0  -2  56   87.07    8.22   0
  -5  -3  25  -10.10    6.55   0
  -5  -2  18  153.95    8.37   0
  -5  -2  21   -0.35    6.39   0
  -4  -3  44  131.96    8.72   0
  -4  -1  36  451.12   10.51   0
  -5  -3  28  163.02    8.97   0
  -5  -2  24  422.45   11.20   0
  -3  -2  50  171.07    9.13   0
  -3   0  36  517.53   11.32   0
  -2  -2  54   31.09    7.27   0
  -1   0  41   -2.23    5.85   0
   0   0  39    4.44    5.34   0
  -5  -4  23   -0.31    6.07   0
  -5  -2  12  365.46   10.21   0
  -5  -2  27   -2.37    6.82   0
  -4  -2  43    5.06    6.55   0
  -4   0  17   -4.14    4.82   0
  -4   0  20 1220.35   15.02   0
  -4   0  23    0.64    5.23   0
  -3  -1  46   70.58    8.10   0
  -1  -1  51    9.28    6.59   0
  -5  -4  26  120.71    7.76   0
  -5  -3  31    1.04    6.66   0
  -4  -1  39    2.39    6.23   0
  -4   0  26  704.79   11.89   0
  -2  -3  58   79.83    8.25   0
  -2  -1  50  162.31    8.91   0
  -5  -4  29    7.81    6.76   0
  -5  -2   9    1.99    6.11   0
  -5  -2  30  166.75    7.87   0
  -4  -3  47   -5.77    7.15   0
  -4  -1   0 1325.81   18.30   0
  -4   0  29    5.63    6.38   0
  -5  -3  34  115.93    8.24   0
  -5  -1  20  488.57   11.12   0
  -4  -2  46   93.89    8.34   0
  -4   0  11    6.37    4.30   0
  -3   0  39    0.94    5.73   0
  -2   0  43   -2.87    6.43   0
  -1  -2  58   92.91    8.66   0
   0  -1  52  287.31   10.36   0
  -5  -1  17    3.21    6.07   0
  -5  -1  23   -7.86    5.54   0
  -4  -1  42  220.83    9.44   0
  -4   0  32  460.09   10.61   0
  -3  -2  53   -3.18    7.08   0
  -1   0  44  433.19   11.02   0
  -5  -1  14  407.40   10.38   0
  -3  -1  49   -4.45    7.38   0
  -2  -2  57   -1.04    6.90   0
   0   0  42  746.85   13.87   0
  -5  -3  37    6.89    7.17   0
  -4   0   8 1493.95   17.53   0
  -3   0  42  244.19    9.44   0
  -2  -1  53   -5.66    7.36   0
  -1  -1  54  104.78    8.09   0
  -5  -1  11    1.38    5.53   0
  -5  -1  32  380.55   10.53   0
  -4  -2  49   -4.93    7.55   0
  -4   0  35    0.52    5.76   0
  -2   1  21    8.98    4.77   0
  -2   1  24 1843.68   19.04   0
  -5  -2  39   -3.48    6.98   0
  -4  -1  45   -2.12    6.38   0
  -2   0  46  247.97    9.26   0
  -2   1  18 1173.08   15.67   0
  -2   1  27    5.55    5.25   0
  -5  -1  35    4.97    6.97   0
  -5  -1   8  786.76   13.46   0
  -3   1  20 1431.37   16.27   0
  -3   1  23    5.93    4.85   0
  -3   1  26  541.48   11.12   0
  -2   1  15   -0.42    4.35   0
  -1  -2  61  -10.06    7.31   0
  -1   0  47    3.56    6.17   0
  -5  -2  42   79.89    7.83   0
  -5  -1  38  130.68    8.75   0
  -4   0   5    0.18    4.62   0
  -3   1  17    6.40    5.47   0
  -2  -2  60  103.93    8.04   0
  -1   1  25    2.85    3.89   0
   0   0  45   -1.08    5.83   0
  -4  -2  52   97.08    8.21   0
  -4  -1  48  138.74    8.22   0
  -4   0  41    1.30    7.06   0
  -3   1  29    3.68    4.98   0
  -2  -1  56  168.14    9.00   0
  -1   1  28 1264.03   16.78   0
  -5   0  19   -2.24    5.11   0
  -5   0  25    1.49    5.51   0
  -5   0  28  620.47   11.91   0
  -3   1  14 1579.81   17.69   0
  -3   1  32 1169.83   15.09   0
  -2   0  49    4.09    6.76   0
  -1  -1  57   -1.15    7.10   0
  -5  -2  45   -4.76    7.46   0
  -5  -1   5   -2.46    5.68   0
  -5  -1  41   -7.83    7.34   0
  -5   0  16  677.48   12.31   0
  -5   0  31    2.56    6.51   0
  -1   1  31   -0.88    5.14   0
  -4   0  44  380.18   10.62   0
  -3  -1  55   -6.55    7.59   0
  -3   1  35   -2.91    6.10   0
  -2   1  36  853.01   13.58   0
  -1   0  50  264.27    9.74   0
  -5   0  13    1.32    5.51   0
  -5   0  34  278.00    9.77   0
  -4  -1  51   -1.91    6.76   0
  -4   1  22  341.83    9.21   0
  -4   1  25   -5.86    6.04   0
  -6  -2  23    3.09    6.81   0
  -4   1  19   12.15    4.87   0
  -4   1  28  714.07   11.92   0
  -3   1  11   13.65    4.42   0
  -1   1  34  929.59   14.53   0
  -6  -2  20  171.66    8.34   0
  -6  -2  26  182.00    9.14   0
  -6  -2  29    2.92    6.57   0
  -5   0  37   -1.18    6.06   0
  -4   0   2 1314.71   17.44   0
  -4   1  31   -0.74    5.59   0
  -3   1  38  311.95    9.57   0
  -2  -1  59   -1.45    6.83   0
  -2   0  52  174.49    8.88   0
  -2   1  39    0.53    5.50   0
  -6  -2  32  180.95    9.21   0
  -5   0  10  672.15   12.38   0
  -4   0  47    1.52    7.53   0
  -4   1  16 1975.46   18.70   0
  -4   1  34  510.08   11.23   0
  -3   0  51   -6.38    7.48   0
  -6  -1  22  152.88    8.20   0
  -6  -1  25    2.61    6.46   0
  -6  -1  28  135.05    8.66   0
  -5  -1  47    6.10    7.59   0
  -4  -1  54   57.20    7.87   0
  -3  -1  58   92.33    8.30   0
  -1   1  37   -1.03    5.46   0
  -6  -2  35   -4.10    6.51   0
  -6  -1  19    8.37    6.49   0
  -6  -1  31   -1.01    6.89   0
  -4   1  13    8.75    5.36   0
  -4   1  37   -3.85    6.70   0
  -1   0  53   -3.32    7.08   0
  -6  -1  16  598.53   12.25   0
  -6  -1  34  159.03    9.09   0
  -3   1   8 3229.89   25.85   0
  -2   1  42  311.90    9.12   0
  -5   0   7    1.58    5.05   0
  -5   0  43   -4.70    7.60   0
  -5  -1  50   83.13    7.99   0
  -4   1  40  440.44   10.39   0
  -3   0  54   69.32    8.49   0
  -3   1  44  323.68    9.81   0
  -2   0  55   -1.33    7.19   0
  -1   1  40  705.40   13.07   0
  -6  -1  13   -2.15    5.67   0
  -5   1  21    9.91    6.11   0
  -5   1  24  642.33   11.59   0
  -5   1  27    6.99    5.63   0
  -5   1  30  174.04    8.27   0
  -2  -1  62   39.37    7.86   0
  -6   0  24  551.22   11.87   0
  -5   0  46   94.53    8.49   0
  -5   1  33  -11.69    6.55   0
  -3  -1  61    4.91    6.64   0
  -2   1  45    2.64    5.14   0
   0   1  29   -1.09    4.25   0
  -6   0  21   -0.31    5.67   0
  -4   0  -1    0.16    4.13   0
  -4   1  43    1.91    5.96   0
  -6   0  18  271.03    9.24   0
  -5   1  36  465.79   10.62   0
  -3   1  47   -3.42    6.93   0
  -1   1  43   -0.35    5.76   0
   0   1  32 1660.45   20.53   0
  -6  -1  43    3.31    6.41   0
  -6   0  36  145.56    8.31   0
  -5   0   4 1132.36   15.90   0
  -5   0  49   -7.01    7.15   0
  -3   0  57   -3.98    7.22   0
  -2   0  58   74.42    8.15   0
  -6   0  15   10.39    5.98   0
  -6   0  39    2.39    7.38   0
  -5   1  39    0.33    6.16   0
  -4   1   7    6.04    5.04   0
  -4   1  46   81.34    7.16   0
  -2   1  48  307.86   10.05   0
  -4   0  56   72.10    8.31   0
   0   1  35    0.12    4.42   0
  -5   1  12 1116.75   14.89   0
  -5   1  42  209.68    8.50   0
  -3   1  50  167.65    9.18   0
  -1   1  46  112.99    7.49   0
  -6   0  12  340.62    9.86   0
  -5   0  52  144.84    8.86   0
  -5   1  45    1.87    7.62   0
  -3   0  60  100.93    8.74   0
  -2   1  51    2.70    6.64   0
   0   1  38  243.65    8.92   0
  -6   0  45    6.10    7.28   0
  -6   1  29    1.67    6.96   0
  -6   1  32  350.48   10.64   0
  -4   2  27    3.30    6.17   0
  -3   2  25    9.14    5.68   0
  -3   2  28 1336.43   15.78   0
  -3   2  31   -2.04    5.80   0
  -6   1  35   -3.53    7.23   0
  -5   1   9   12.75    5.52   0
  -4   0  59   -1.27    7.51   0
  -4   2  24 1869.88   18.13   0
  -4   2  30  188.49    7.78   0
  -4   2  33   -2.49    6.01   0
  -3   1  53    6.68    7.32   0
  -3   2  22  477.46   10.62   0
  -2   0  61   -0.91    7.12   0
  -7  -1  27   -4.74    7.41   0
  -6   0   9   -0.24    5.46   0
  -6   1  20  467.38   10.46   0
  -5   0   1    0.26    4.94   0
  -5   0  55   -4.09    6.92   0
  -5   1  48  129.72    9.19   0
  -4   1   4 1261.14   16.68   0
  -4   1  52  198.72    9.45   0
  -4   2  21   -0.21    5.54   0
  -1   1  49    3.06    5.83   0
  -7  -1  24  168.44    8.41   0
  -7  -1  30   36.62    7.32   0
  -7  -1  33   -0.41    6.35   0
  -6   0  48  134.06    8.61   0
  -6   1  38  121.78    7.66   0
  -4   2  36  363.12    9.59   0
  -3   2  19    2.59    5.40   0
  -6   1  17    0.52    5.29   0
  -6   1  41   -1.57    7.76   0
  -4   2  18 1038.01   14.23   0
  -4   2  39    5.89    6.48   0
  -2   1  54   95.27    8.69   0
  -2   2  29    3.18    5.27   0
  -5   2  26  603.22   11.39   0
  -5   2  29   -0.19    5.63   0
  -5   2  32  623.00   12.29   0
  -3   0  63    0.53    7.20   0
  -3   2  40  452.57   10.36   0
  -2   2  32  614.40   11.54   0
  -7   0  26  208.95    9.20   0
  -7   0  29    2.43    7.32   0
  -7   0  32  238.27    9.41   0
  -6   1  14  397.81   10.33   0
  -5   1  51    8.96    7.59   0
  -5   2  23   -0.12    5.31   0
  -5   2  35    6.87    5.93   0
  -4   1  55    6.62    7.05   0
  -3   1  56  166.51    9.07   0
  -3   2  16 2122.60   20.21   0
  -2   2  35   -0.23    5.46   0
  -7   0  23    0.98    6.83   0
  -7   0  35   -3.12    7.46   0
  -6   1  44  141.46    8.59   0
  -5   1   6  358.22    9.58   0
  -5   2  20  576.12   11.29   0
  -5   2  38   93.52    7.88   0
  -4   2  15    7.40    5.50   0
  -3   2  43    3.30    6.45   0
  -7   0  20  149.24    8.35   0
  -7   0  38   25.17    7.17   0
  -2   2  20 3411.56   26.15   0
  -2   2  38  245.59    8.94   0
  -6   1  47    5.13    7.13   0
  -5   2  41  -10.05    7.56   0
  -7   0  17   -1.89    6.51   0
  -6   1  11   -0.60    5.82   0
  -5   2  17   -3.21    5.08   0
  -3   2  46  137.85    8.31   0
  -2   1  57    2.32    6.25   0
  -2   2  41   -0.35    5.89   0
  -5   2  44  215.37    9.75   0
  -4   1  58  101.42    8.72   0
  -3   1  59    2.65    7.38   0
  -3   2  13    9.10    4.75   0
  -7   1  25   -8.15    7.14   0
  -7   1  28  145.02    8.89   0
  -7   1  31    6.95    7.43   0
  -6   1  50   89.66    8.02   0
  -6   2  25   -5.33    6.22   0
  -6   2  31    9.22    6.09   0
  -6   2  34  156.07    8.98   0
  -4   1   1   13.68    5.12   0
  -4   2  12  754.00   12.24   0
  -2   2  17   -0.78    4.29   0
  -6   2  22  370.73   10.08   0
  -6   2  37    4.77    7.69   0
  -5   2  14  371.00    9.25   0
  -2   2  44  678.51   13.06   0
  -7   1  22  142.55    8.52   0
  -6   2  40  247.92    9.79   0
  -5   1   3    1.83    4.86   0
  -5   2  47   -6.11    6.20   0
  -3   2  49    2.92    6.71   0
  -7   1  19    5.26    6.67   0
  -6   1   8  786.58   13.40   0
  -4   2  51   -4.31    7.47   0
  -7   1  43    2.62    7.07   0
  -6   2  43    4.44    7.45   0
  -4   1  61   -3.19    6.79   0
  -2   2  47    6.84    6.82   0
  -4   2   9   -3.21    5.10   0
  -3   1  62   43.92    7.15   0
  -3   2  10 2021.27   20.03   0
  -2   2  14  341.81    9.66   0
  -1   2  30  581.57   12.07   0
  -1   2  33    3.68    5.14   0
  -7   1  16  581.92   12.14   0
  -6   2  16  704.13   12.61   0
  -6   2  46   98.65    8.30   0
  -3   2  52  258.62   10.04   0
  -1   2  27   -0.04    4.56   0
  -1   2  36  872.54   14.51   0
  -4   2  54   33.68    7.51   0
  -5   2  53    9.05    7.32   0
  -2   2  50  187.40    9.45   0
  -1   2  24 1652.72   19.28   0
  -1   2  39    3.28    5.10   0
  -7   2  33    9.23    6.12   0
  -7   2  36  158.45    9.01   0
  -6   1   5    3.17    5.35   0
  -6   2  13   -1.96    5.81   0
  -6   2  49   -2.63    7.49   0
  -7   1  13   -1.27    6.13   0
  -7   2  24  426.47   11.03   0
  -7   2  39   -1.78    7.10   0
  -5   2   8 2166.82   20.43   0
  -5   3  28  403.74   10.41   0
  -5   3  31   -3.29    5.83   0
  -5   3  34  441.72   11.18   0
  -4   3  29   -3.09    5.42   0
  -4   3  32  886.90   13.45   0
  -4   3  35    4.64    6.61   0
  -3   2  55    0.40    6.63   0
  -5   3  37   -2.61    6.07   0
  -4   3  26  648.00   11.59   0
   4  -2   9    6.72    4.80   0
   7  -4  -4  644.43   13.31   0
   8  -4  -6  201.23    9.77   0
   8  -3   2  230.72    9.11   0
   8  -2   7   -3.28    7.54   0
   9  -3  -3   -0.83    7.25   0
   5   4  16  298.47   11.12   0
   7   1  15    2.47    7.56   0
   8   0  11    4.76    7.65   0
   8   1  10   79.39    9.02   0
   9  -1   4  165.38    8.97   0
   3   3  21   -2.99    6.63   0
   4  -3   1   17.70    4.47   0
   6  -3   6  457.41   10.69   0
   6  -1  16  615.87   12.73   0
   7  -1  14  134.89    8.37   0
   7   2  14  129.04    8.83   0
   4   0  19   -4.21    6.51   0
   5  -3   5    5.07    4.95   0
   7   0  16  495.75   12.75   0
   2   0  14  323.37    9.58   0
   3  -1  13   17.07    5.02   0
   5   2  21    0.86    7.72   0
   6   2  19    2.64    8.18   0
   7  -2  12  469.86   11.72   0
   9  -3   0  305.72   10.84   0
   5  -4  -6  802.49   15.51   0
   5   0  20  648.00   12.60   0
   5   3  20  205.85    9.98   0
   7  -3   7   -2.15    5.95   0
   8  -4  -3    0.18    6.48   0
   8  -3   5    4.16    7.43   0
   8  -1  12  176.70    9.33   0
   9  -1   7    6.28    7.93   0
   1   2  17    6.75    5.01   0
   3   0  18 1304.76   16.80   0
   3   2  22  289.08    9.97   0
   4   3  22  160.87    9.39   0
   5  -2  13    1.76    5.46   0
   7  -4  -1    0.30    6.42   0
   8  -2  10  191.14    8.77   0
   8   1  13  -10.31    8.10   0
   4   2  23   -2.17    7.08   0
   5  -1  18  394.53   10.94   0
   6  -2  14  284.18    9.25   0
   6   3  18   98.36    8.87   0
   8   0  14  127.47    9.09   0
   4  -1  17    6.94    6.14   0
   7   2  17   -3.94    7.65   0
   1   3  19    7.82    5.48   0
   2   2  21   -1.84    5.37   0
   6  -3   9    5.68    5.45   0
   7  -1  17    6.97    6.69   0
   9  -4  -5    3.02    7.26   0
   9  -3   3    2.92    7.76   0
   4  -2  12  770.71   13.11   0
   6  -1  19    1.63    6.28   0
   6   0  21   -3.05    6.69   0
   7   0  19    4.25    6.99   0
   8  -3   8  461.79   12.15   0
   9  -1  10   70.76    9.24   0
   5  -3   8 2214.25   21.47   0
   7  -2  15   -1.75    6.55   0
   8  -1  15    0.59    7.57   0
   3  -2   8 3158.66   26.76   0
   4  -3   4 1260.29   17.26   0
   5   2  24  307.45   11.09   0
   6  -4   1    2.97    5.86   0
   6   2  22   99.40    9.03   0
   8  -2  13   -0.17    7.01   0
   9  -4  -2  162.35    9.85   0
   3   3  24  572.63   13.14   0
   4   0  22  670.47   12.44   0
   5  -4  -3   16.86    5.47   0
   5   3  23   -1.84    7.90   0
   8   0  17   -8.07    7.53   0
   5  -2  16 1828.15   19.30   0
   6  -2  17    0.43    7.17   0
   9  -3   6  157.05    9.03   0
   2   3  23   -4.68    5.89   0
   3   1  23    8.93    5.25   0
   6   3  21   -0.91    7.83   0
   7   2  20  132.89    8.84   0
   8  -4   3    3.26    6.98   0
   9  -2  11    1.81    7.76   0
   3  -1  16 2021.33   20.26   0
   4   3  25    3.64    7.55   0
   5  -1  21   -4.13    5.99   0
   8  -3  11    1.23    7.47   0
   9  -1  13    6.17    8.04   0
   3   0  21   -1.23    5.87   0
   3   2  25    2.69    6.37   0
   4   2  26  354.41   11.35   0
   6   0  24  452.59   12.28   0
   7  -4   5    6.67    6.50   0
   8  -2  16  334.56   11.29   0
   8  -1  18  131.37    8.72   0
   9  -4   1   -1.61    7.42   0
   2   0  17    1.70    4.45   0
   4  -1  20  893.16   13.74   0
   6  -4   4  870.22   14.63   0
   6  -1  22  207.97    8.99   0
   7  -2  18  387.49   10.56   0
   9  -3   9   -4.64    8.11   0
   4  -2  15    5.11    5.82   0
   8   0  20  124.20    9.10   0
   5  -4   0 1400.15   18.90   0
   6   2  25   -3.56    8.01   0
   8  -4   6  188.07    9.50   0
   4  -3   7   12.10    4.58   0
   5   2  27   -5.02    7.53   0
   6  -2  20  665.93   13.10   0
   6   1  26  251.68   10.93   0
   9  -4   4  121.71    8.57   0
   9  -2  14  127.46    8.54   0
   2   2  24 1708.10   20.11   0
   4   0  25   -2.94    6.70   0
   5  -2  19    3.53    6.29   0
   5   0  26  204.33    9.76   0
   5   3  26  154.08    9.57   0
   6   3  24  199.29   10.52   0
   7  -1  23    3.33    7.89   0
   7   2  23    0.43    7.18   0
   1   2  20 1362.31   19.10   0
   3  -2  11   15.09    4.73   0
   4   1  27    5.53    5.96   0
   8  -1  21   -6.14    7.80   0
   3   3  27   -5.11    6.44   0
   5  -1  24  889.13   14.02   0
   5   1  28  387.43   11.76   0
   7  -2  21   -1.53    7.24   0
   7   0  25  -10.10    7.49   0
   8  -2  19    4.71    7.18   0
   9  -3  12  133.80    8.51   0
   1   3  22  350.91   10.88   0
   6  -4   7   -0.20    5.90   0
   6  -1  25    1.83    7.67   0
   6   0  27    5.37    7.91   0
   8  -4   9    1.60    6.94   0
   3  -1  19    0.43    5.65   0
   9  -4   7    9.24    7.66   0
   9  -2  17   -2.23    7.85   0
   4  -1  23   15.06    5.66   0
   4   2  29   -7.74    7.16   0
   5  -4   3   -2.31    5.10   0
   3   0  24 1073.77   14.91   0
   4  -2  18 1042.52   14.99   0
   6   2  28  154.16    9.69   0
   7   1  27   -1.90    8.46   0
   4  -3  10 1057.75   15.41   0
   6  -2  23   -3.45    6.25   0
   6   1  29   -3.53    7.34   0
   7  -4  11    5.54    5.98   0
   7  -1  26  258.96   10.42   0
   8  -1  24  250.83   10.23   0
   2   0  20 3491.81   26.86   0
   5  -2  22  288.28    9.65   0
   5   0  29    1.94    7.40   0
   5   2  30   80.57    8.86   0
   6  -3  18  417.61   10.43   0
   7  -3  19    1.07    7.32   0
   8  -4  12  252.77   10.18   0
   8  -2  22   90.58    8.57   0
   9  -4  10  131.03    8.92   0
   5   3  29   -2.96    7.41   0
   6  -4  10  340.01   10.31   0
   6   3  27   -3.55    7.66   0
   7  -2  24  322.39   11.30   0
   7   0  28  118.71    9.49   0
   4   0  28  612.81   12.05   0
   4   1  30  269.92   10.05   0
   5  -1  27    5.68    7.16   0
   8   0  26   81.25    8.41   0
   9  -2  20  125.47    9.37   0
   3  -2  14 1641.39   18.55   0
   5  -4   6  361.54   10.19   0
   5   1  31    0.30    6.57   0
   6   0  30  112.09    9.47   0
   8  -3  20  224.59   10.13   0
   2  -1  15    3.92    4.54   0
   2   2  27   -5.54    5.49   0
   5  -3  17    5.03    6.10   0
   2   1  25    4.48    4.56   0
   3   3  30  174.27    8.97   0
   4   3  31    3.84    8.14   0
   8  -5   4  250.05    9.65   0
   9  -4  13    4.68    7.07   0
   3  -1  22  464.53   10.44   0
   3   1  29   -1.80    5.38   0
   4  -1  26  661.71   12.13   0
   4   2  32  332.51   11.18   0
   6  -2  26  375.28   11.12   0
   6   2  31    4.99    7.46   0
   7  -3  22  176.23    9.31   0
   7  -1  29  -13.44    8.02   0
   8  -4  15    3.25    6.37   0
   8  -2  25   -4.42    8.12   0
   8  -1  27   11.82    7.98   0
   1   2  23    1.25    4.81   0
   4  -2  21   -3.78    5.21   0
   6  -4  13    2.94    6.33   0
   6  -3  21    5.79    5.93   0
   6   1  32  259.35   10.45   0
   7  -5   3    0.48    5.79   0
   9  -2  23    7.40    8.10   0
   3   0  27    0.04    5.17   0
   3   2  31   -4.06    6.44   0
   5  -2  25    2.70    5.88   0
   7  -2  27   -5.95    6.87   0
   5   2  33   -2.60    7.88   0
   8  -5   7    3.21    6.55   0
   8  -3  23   -0.65    7.90   0
   1   3  25    0.55    5.23   0
   2   3  29    3.56    6.06   0
   5  -4   9   12.13    5.72   0
   6  -1  31    0.38    7.79   0
   7  -4  17    8.10    6.74   0
   9  -4  16  332.11   10.65   0
   2   0  23   -1.75    5.37   0
   5  -3  20  586.08   12.05   0
   5   1  34  216.08   10.02   0
   8  -4  18  203.11    9.58   0
   3  -2  17   10.44    4.75   0
   8  -2  28  155.49    9.40   0
   8  -1  30   67.62    8.63   0
   9  -5   8  348.49   10.93   0
   1   1  21   11.00    4.30   0
   6  -3  24  616.26   12.71   0
   6  -2  29    9.10    7.24   0
   7  -3  25    5.78    6.59   0
   7  -1  32  241.67   10.48   0
   7   1  33    0.39    8.02   0
   4  -1  29    1.89    6.22   0
   6   2  34  109.69    8.74   0
   7  -2  30   84.97    9.18   0
   8  -5  10  192.83    8.94   0
   2  -1  18 1190.39   16.12   0
   3  -1  25   -5.01    5.95   0
   3   1  32  833.50   14.26   0
   4  -2  24 1809.74   18.37   0
   5  -2  28  398.43   10.94   0
   6   1  35   -2.02    7.60   0
   8  -3  26  172.85    9.95   0
   9  -4  19   10.83    7.40   0
   9  -3  24  215.43    9.62   0
   2   1  28 1243.19   16.37   0
   2   2  30  194.46    8.66   0
   3   3  33    1.51    6.78   0
   4   2  35    0.74    7.24   0
   5  -4  12 1137.18   15.99   0
   7  -5   9   -1.53    6.15   0
   7  -4  20  426.77   11.53   0
   9  -5  11    4.24    6.70   0
   5   2  36  244.66   10.85   0
   6  -1  34  215.73   10.12   0
   8  -4  21    2.31    6.24   0
   3   2  34  407.72   11.23   0
   5  -3  23    0.84    6.24   0
   5  -1  33    2.46    7.42   0
   6  -5   5    1.95    6.05   0
   6  -4  19   -6.66    6.55   0
   7  -3  28  365.83   10.96   0
   8  -5  13    5.36    7.03   0
   8  -2  31    7.76    7.30   0
   8  -1  33    3.39    7.45   0
   1   2  26  512.97   12.30   0
   3  -2  20 1457.62   17.19   0
   5   1  37   -1.42    6.76   0
   6  -3  27   -7.20    6.85   0
   6  -2  32  331.65   10.89   0
   7  -1  35    1.76    7.79   0
   9  -5  14   79.59    8.97   0
   9  -4  22   73.12    8.71   0
   2   0  26 1237.58   16.22   0
   7  -2  33   -7.56    7.77   0
   8  -3  29    3.88    8.01   0
   9  -3  27    1.36    7.36   0
   3  -3   9    0.12    4.69   0
   4  -3  19    8.75    5.06   0
   4  -2  27    1.35    6.41   0
   4  -1  32  819.58   13.88   0
   5  -4  15    5.55    5.78   0
   6   2  37    7.87    8.53   0
   7  -4  23    7.49    7.26   0
   8  -4  24  292.31   10.60   0
   4  -4   5   -0.80    5.25   0
   5  -2  31    8.43    6.11   0
   6   1  38   43.21    8.90   0
   7   0  37   -2.48    7.94   0
   8  -5  16  409.34   11.50   0
   2  -1  21   10.88    5.62   0
   3  -1  28 1353.11   16.29   0
   6  -5   8  798.60   14.22   0
   3   1  35   -7.99    6.59   0
   4   2  38   81.37    8.32   0
   5  -3  26  614.69   12.31   0
   6  -4  22  356.59   10.62   0
   6  -1  37   -1.21    8.21   0
   7  -3  31    0.82    8.19   0
   8  -2  34  111.23    8.84   0
   9  -5  17    1.44    6.99   0
   1   0  19    0.80    4.93   0
   2   1  31    4.35    5.74   0
   5  -1  36  287.54    9.69   0
   5   2  39   -2.72    7.88   0
   6   0  39   -1.47    7.79   0
   7  -5  15    2.11    6.77   0
   9  -4  25  -11.98    7.65   0
   2   2  33   -4.13    5.78   0
   6  -3  30  179.04    8.67   0
   6  -2  35    4.70    7.70   0
   7  -1  38   51.39    8.61   0
   3  -2  23    2.17    4.90   0
   3   2  37   -1.27    6.54   0
   5  -4  18  742.87   13.10   0
   5   1  40  180.45    9.61   0
   6  -5  11    0.50    5.97   0
   7  -2  36  242.08   10.82   0
   8  -5  19    6.82    6.93   0
   8  -3  32  192.06    9.37   0
   4  -4   8 1498.49   18.85   0
   4  -3  22  344.62    9.15   0
   4   1  39    1.81    7.37   0
   2  -2  13   -0.24    5.24   0
   4  -2  30  186.56    8.05   0
   4  -1  35   -9.21    6.53   0
   7  -5  18  163.47    8.77   0
   9  -5  20   98.08    8.61   0
   6   1  41    1.40    8.05   0
   9  -4  28   90.89    8.04   0
   1   2  29    0.13    5.10   0
   3  -1  31   -0.37    5.35   0
   5  -3  29   -0.68    5.78   0
   6  -1  40  185.33    9.98   0
   7  -3  34  167.54    9.83   0
   8  -2  37    3.19    6.87   0
   2  -1  24 1841.63   18.98   0
   5  -1  39    1.12    7.20   0
   6  -5  14  378.06   10.65   0
   6  -3  33    7.01    7.12   0
   8  -5  22  112.30    8.42   0
   3   1  38  160.66    8.59   0
   4  -4  11    1.49    4.99   0
   4   2  41   -0.73    8.18   0
   5  -4  21    6.57    5.25   0
   6  -2  38   86.34    8.71   0
   8  -3  35    0.61    7.85   0
   9  -5  23  -10.42    8.19   0
   1   1  27   -0.25    4.95   0
   3  -2  26  513.98   11.09   0
   4  -3  25   -2.45    5.81   0
   5   2  42  127.65    9.23   0
   7  -5  21    1.76    6.80   0
   7  -2  39    2.16    7.05   0
   7  -1  41    1.63    7.11   0
   1   0  22  466.67   11.07   0
   2   1  34  559.85   11.56   0
   5   1  43   -0.73    8.05   0
   4  -2  33    1.07    6.83   0
   5  -2  37    6.06    6.96   0
   2  -2  16 2919.72   24.74   0
   3   2  40  408.94   11.54   0
   4  -1  38  172.22    8.68   0
   4   1  42  163.86    8.42   0
   5  -3  32  688.62   12.94   0
   6  -5  17    1.45    5.52   0
   7  -3  37    6.21    7.76   0
   8  -5  25    2.80    7.02   0
   4  -4  14  314.33    8.97   0
   6   1  44  108.94    8.57   0
   7  -4  32  267.21   10.30   0
   9  -5  26  121.49    9.02   0
   3  -1  34  569.85   11.27   0
   5  -5   7    1.25    5.53   0
   6  -3  36  304.00    9.80   0
   6  -1  43   -8.77    7.32   0
   8  -3  38   45.88    8.21   0
   2  -1  27   -3.35    4.87   0
   3  -3  18  516.39   10.78   0
   5  -1  42  145.71    8.33   0
   5   0  44  161.43    9.47   0
   6  -2  41   -3.43    7.83   0
   3  -2  29    8.93    6.09   0
   4  -3  28  675.11   12.01   0
   6   0  45    6.66    8.09   0
   7  -2  42  135.21    8.83   0
   1   2  32 1152.54   16.87   0
   3   0  39    0.98    6.60   0
   3   1  41   -5.12    6.49   0
   6  -4  31   10.31    6.12   0
   8  -5  28  152.41    8.94   0
   2  -2  19   -0.45    4.42   0
   4  -4  17    0.53    4.65   0
   4  -2  36  368.58   10.71   0
   4   0  43    9.82    7.21   0
   5  -5  10  662.53   13.05   0
   5  -2  40  431.28   11.52   0
   9  -5  29    1.27    7.38   0
   1   0  25   -1.69    5.08   0
   1   1  30  585.47   12.08   0
   2   1  37   -3.45    5.09   0
   5  -3  35   -4.79    6.13   0
   5   1  46   65.95    8.11   0
   7  -5  27    0.66    7.39   0
   7  -4  35    4.07    7.46   0
   7  -3  40  145.65    9.10   0
   8  -6  17   -3.44    6.20   0
   8  -4  36  119.85    8.55   0
   4  -1  41   -6.14    6.10   0
   4   1  45    0.21    7.37   0
   6  -3  39    8.52    7.91   0
   2   2  39   -2.27    6.03   0
   3  -3  21   -2.39    4.78   0
   3  -1  37    2.66    6.20   0
   3   2  43    3.93    6.80   0
   5  -5  13   -0.45    5.47   0
   6  -5  23    4.58    6.67   0
   2  -1  30  622.37   11.96   0
   4  -4  20 1264.48   16.23   0
   4  -3  31    6.17    5.65   0
   6  -4  34  167.71    9.37   0
   6  -2  44  215.03   10.12   0
   7  -2  45   -3.97    8.03   0
   8  -5  31    6.66    7.45   0
   3  -2  32 1160.86   15.55   0
   5   0  47   -3.89    7.29   0
   6   0  48  112.40    9.03   0
   8  -6  20  177.19    8.75   0
   2  -2  22 1909.16   19.49   0
   5  -4  30  174.36    8.61   0
   7  -5  30  173.13    9.42   0
   3   0  42  287.24    9.86   0
   3   1  44  261.18    9.95   0
   4  -2  39   -7.44    6.02   0
   5  -5  16  685.68   12.93   0
   5  -3  38   83.16    7.29   0
   5  -2  43   -9.88    8.04   0
   7  -6  16  580.04   12.66   0
   7  -4  38  137.12    9.30   0
   7  -3  43   -6.17    7.58   0
   8  -4  39    5.64    7.39   0
   0   2  25   -0.77    4.26   0
   3  -3  24 1561.34   17.53   0
   6  -5  26  204.50    8.51   0
   6  -3  42  145.54    9.26   0
   9  -6  24  137.42    8.23   0
   1   2  35    3.63    5.20   0
   2   1  40  436.32   11.18   0
   5   1  49    2.83    8.20   0
   8  -6  23   -3.06    6.59   0
   8  -5  34  106.72    9.12   0
   1   1  33    3.28    5.25   0
   4  -3  34  495.00   10.88   0
   6  -4  37    4.05    7.36   0
   6  -1  49    6.49    7.92   0
   7  -6  19    1.85    6.31   0
   1  -1  20 1541.45   18.23   0
   2  -1  33    6.58    6.12   0
   2   0  38  255.67    9.19   0
   4   1  48  199.35    9.90   0
   5  -5  19   -2.92    4.85   0
   6  -2  47   -3.42    7.66   0
   7  -5  33    4.46    7.63   0
   2  -2  25    2.52    4.80   0
   2   2  42  363.87   10.81   0
   3  -2  35    8.28    5.58   0
   5  -4  33   -2.82    5.86   0
   6  -5  29   -8.23    7.03   0
   9  -6  27    5.95    6.75   0
   3  -3  27    5.22    5.85   0
   4  -2  42  386.42   10.97   0
   5   0  50   78.09    8.31   0
   7  -4  41    0.67    7.84   0
   7  -3  46   47.01    8.57   0
   8  -6  26  172.34    8.83   0
   5  -2  46   57.98    7.44   0
   7  -6  22  158.81    8.42   0
   3   0  45   -0.89    6.97   0
   5  -5  22  218.58    8.18   0
   6  -3  45    8.32    7.13   0
   8  -5  37   -6.30    7.15   0
   3   1  47   -4.33    6.71   0
   4  -3  37   -5.46    5.93   0
   4   0  49    2.36    7.57   0
   6  -4  40  237.68   10.31   0
   1  -1  23    2.40    4.53   0
   5  -4  36  458.74   11.24   0
   7  -5  36  153.58    8.56   0
   8  -6  29   -2.86    7.15   0
   0   2  28 1058.74   16.96   0
   1   1  36  877.30   14.42   0
   1   2  38  306.96    9.81   0
   2  -2  28 1093.37   14.59   0
   2  -1  36  877.41   13.42   0
   2   1  43    4.82    6.32   0
   3  -2  38  322.77    9.40   0
   6  -6  15    0.64    6.32   0
   6  -2  50  102.55    8.76   0
   7  -6  25    2.99    6.77   0
   2   0  41    1.19    6.18   0
   3  -4   7   12.10    4.74   0
   3  -3  30  543.19   10.97   0
   4  -4  29   -1.12    5.41   0
   4   1  51   -1.16    7.47   0
   5  -5  25   -1.32    5.32   0
   5  -3  44  208.05    9.69   0
   5  -1  51   -6.53    7.41   0
   7  -4  44  138.47    9.29   0
   3  -4  10 1114.17   16.59   0
   4  -2  45    4.94    7.31   0
   8  -5  40  128.08    8.46   0
   2  -3  11   10.78    5.17   0
   2   2  45   -0.59    6.45   0
   3  -4  13    5.57    4.99   0
   5  -2  49   -0.16    7.13   0
   5   0  53   -1.29    7.09   0
   6  -6  18  263.80    9.40   0
   6  -3  48  131.22    9.21   0
   1  -1  26 1212.10   15.84   0
   3   0  48  182.21    9.29   0
   4  -3  40  440.26   10.73   0
   6  -5  35   -4.23    7.08   0
   6  -4  43   -0.60    7.18   0
   7  -6  28  156.23    8.74   0
   7  -5  39    6.61    7.31   0
   8  -6  32  178.88    8.94   0
   2  -2  31    6.10    5.93   0
   4  -4  32  457.43   11.08   0
   5  -5  28  597.65   11.85   0
   5  -4  39    6.90    6.16   0
   2  -1  39    0.07    6.30   0
   3  -4  16 2035.89   20.64   0
   3  -3  33   -1.09    5.46   0
   3  -2  41   -3.65    6.80   0
   3   1  50  166.52    9.21   0
   4   0  52  127.92    9.37   0
   6  -6  21    6.58    6.13   0
   4  -5   9   12.94    5.53   0
   5  -3  47    3.22    7.88   0
   6  -2  53   -2.81    7.37   0
   7  -4  47   -3.31    7.67   0
   0   2  31   -0.76    5.11   0
   1   1  39    3.39    5.72   0
   2  -3  17    3.98    4.50   0
   2   0  44  636.48   12.74   0
   2   1  46  131.83    7.98   0
   4  -5  12 1089.82   16.15   0
   7  -6  31   -3.89    6.79   0
   8  -6  35    5.56    7.30   0
   1   2  41    2.82    6.07   0
   3  -4  19    7.01    4.78   0
   4  -3  43    0.32    6.97   0
   4  -2  48  268.06    9.56   0
   5  -5  31   -0.97    6.88   0
   5  -2  52  125.37    9.07   0
   6  -6  24  561.01   12.30   0
   1  -1  29   -3.12    4.81   0
   2  -2  34  281.62    9.41   0
   4  -5  15    4.32    5.24   0
   4  -4  35   -6.27    6.42   0
   4   1  54   41.80    7.29   0
   5  -4  42  208.68    9.52   0
   6  -4  46   88.41    7.91   0
   6  -3  51    7.84    6.97   0
   2  -3  20 1398.30   16.59   0
   3  -3  36  532.73   10.92   0
   0   1  29    1.41    4.64   0
   1   0  37    4.35    4.87   0
   3  -2  44  304.66    9.97   0
   3   0  51    7.62    6.89   0
   4  -5  18  711.65   12.54   0
   6  -6  27    6.55    6.64   0
   7  -6  34  140.97    8.57   0
   2  -1  42  304.66    9.28   0
   4  -1  53    6.27    6.84   0
   4   0  55    3.32    7.60   0
   5  -5  34  276.53    9.47   0
   0   0  21    3.50    4.04   0
   2  -3  23    2.74    4.65   0
   4  -5  21    8.84    5.79   0
   5  -3  50  149.96    9.05   0
   1  -2  15    0.83    4.29   0
   1  -1  32 1744.18   18.09   0
   1   1  42  322.09    9.94   0
   2   0  47    0.30    6.73   0
   3   1  53    1.93    7.25   0
   4  -4  38  122.90    8.39   0
   4  -3  46   78.14    8.29   0
   4  -2  51    2.01    7.36   0
   5  -4  45    5.49    7.71   0
   6  -4  49  -10.20    7.65   0
   0   2  34  271.60    9.25   0
   2  -2  37    1.60    5.44   0
   2   1  49   -0.81    6.44   0
   3  -3  39    0.66    5.88   0
   5  -1  57   -1.62    6.94   0
   6  -3  54   42.44    7.71   0
   1  -2  18 1198.86   16.01   0
   1   2  44  305.90   10.32   0
   2  -3  26  515.01   10.85   0
   4  -5  24  641.99   11.89   0
   7  -6  37    1.98    7.51   0
   1   0  40  746.87   13.16   0
   3  -4  28  670.62   12.42   0
   3  -2  47    0.11    6.80   0
   0   1  32 1658.11   18.89   0
   1  -2  21   13.13    5.40   0
   1  -1  35    8.07    4.97   0
   3  -1  52  267.75   10.06   0
   3   0  54   75.20    7.68   0
   4  -5  27    5.49    5.30   0
   4  -4  41    5.05    6.18   0
   4  -1  56  114.26    8.82   0
   5  -6  17   -3.02    5.56   0
   5  -3  53    1.16    7.26   0
   6  -6  33   -4.25    7.07   0
   2  -3  29    2.53    5.01   0
   2  -2  40  761.42   12.69   0
   3   4   8  549.09   11.28   0
   5   2  -3    0.36    6.69   0
   5   3  -4  269.99    9.90   0
   6   1 -16  566.73   11.73   0
   1   5  14  362.93   10.69   0
   2   6   8  402.80   11.85   0
   3   3   9    7.62    5.67   0
   5   0  -7    1.37    5.63   0
   1   7   9   -2.52    7.58   0
   2   7   4  180.67    9.41   0
   4   1   3   20.33    6.27   0
   4   4   3    8.13    6.60   0
   6   0 -18  253.68    9.32   0
   6   2 -14  111.46    7.64   0
   0   5  16  645.27   13.26   0
   1   4  15    6.83    5.01   0
   3   5   7    3.73    6.43   0
   4   2   5    5.01    5.66   0
   5   4  -5   -1.78    8.11   0
   6   1 -13    2.51    6.81   0
   0   6  15   -0.59    6.32   0
   1   6  13    1.48    7.03   0
   2   5  12  383.87   10.31   0
   4  -1  -7    7.79    4.75   0
   6   3 -15   -2.22    7.43   0
   1   8   5    6.43    8.05   0
   2   2  12  778.83   13.27   0
   3   0   3   -1.42    5.05   0
   5  -1 -12 1113.62   16.27   0
   5   2   0  595.67   12.42   0
   5   3  -1    7.20    7.55   0
   6   0 -15    0.84    5.67   0
   6   2 -11    8.88    7.43   0
   0   3  15    0.67    4.73   0
   3   2  10  724.22   12.26   0
   4   5   2  173.40    9.39   0
   2   3  14  368.29    9.67   0
   3   1   8 2747.53   22.90   0
   3   4  11    2.00    6.86   0
   4   3   7    4.82    6.18   0
   5   0  -4 1135.78   15.58   0
   6   1 -10  219.78    8.56   0
   6   3 -12  155.62    8.60   0
   2   7   7   -2.16    8.14   0
   4   4   6  197.70    8.85   0
   5   4  -2  158.34    9.11   0
   0   4  17    1.88    5.30   0
   3   3  12  730.85   12.56   0
   6   0 -12  337.60   10.16   0
   1   7  12  202.04    9.83   0
   2   1  10 2077.53   21.22   0
   4   1   6  850.35   13.57   0
   4   2   8  872.21   13.92   0
   5   1   1   16.39    6.55   0
   5   3   2  230.11    9.87   0
   1   5  17    3.41    6.68   0
   4   5   5    0.25    7.83   0
   5  -1  -9   13.68    5.30   0
   5   2   3    1.93    6.85   0
   6   1  -7   13.77    5.96   0
   2   4  16  681.87   12.90   0
   2   5  15    8.16    7.38   0
   5   4   1    5.97    7.59   0
   1   6  16  573.37   13.13   0
   4  -1  -4 1307.37   17.65   0
   5   5  -3    2.89    7.57   0
   6   0  -9    4.93    6.30   0
   1   4  18  717.58   13.45   0
   3   6   9    8.67    7.86   0
   4   3  10  387.49   10.30   0
   4   4   9   -1.46    6.64   0
   5   0  -1    0.88    5.06   0
   0   6  18  244.27    9.94   0
   2   6  14  114.43    9.13   0
   2   7  10  139.37    9.16   0
   3   2  13   -0.42    5.47   0
   3   4  14  325.79   10.00   0
   5   3   5    1.59    7.71   0
   6   1  -4  257.84    9.69   0
   7   2 -22   29.59    6.75   0
   0   5  19    0.19    5.88   0
   4   0   4 1523.45   17.28   0
   5   1   4  748.47   13.02   0
   7   2 -19    2.89    7.08   0
   2   2  15    3.76    4.94   0
   3   0   6  534.55   11.24   0
   3   3  15    1.85    6.77   0
   4   2  11   -5.13    6.88   0
   4   5   8  381.33   11.64   0
   5   4   4  115.83    9.01   0
   5   5   0  195.65    9.41   0
   6  -1 -14  402.68   11.12   0
   6   0  -6  385.38   10.64   0
   6   3  -3   -1.75    7.49   0
   7   1 -18  211.72    9.48   0
   1   7  15   -2.06    8.47   0
   3   1  11   19.32    5.27   0
   4   1   9   -4.12    6.26   0
   5  -1  -6  372.06    9.62   0
   7   2 -16  149.61    9.01   0
   7   1 -15   -2.64    6.78   0
   2   5  18  154.69    9.06   0
   4   4  12  250.47   10.20   0
   6   1  -1    8.98    5.85   0
   3   6  12  164.84   10.10   0
   4   3  13   10.01    6.44   0
   6   2   1   -2.55    7.42   0
   6   3   0  306.36   10.50   0
   7   1 -12  198.55    9.40   0
   1   6  19   -2.00    7.28   0
   2   4  19   -5.56    5.62   0
   2   7  13    2.44    7.20   0
   4  -1  -1   14.79    5.07   0
   5   5   3   -2.82    8.06   0
   6  -1 -11    3.97    5.64   0
   6   0  -3    1.19    6.45   0
   0   3  18  495.81   11.78   0
   1   3  19    9.85    5.59   0
   2   1  13   18.74    5.84   0
   2   6  17  -11.74    7.38   0
   3   5  16  394.02   11.65   0
   4   5  11    3.34    7.33   0
   5   1   7   -0.61    5.82   0
   5   2   9   -1.75    7.34   0
   7   2 -10  146.59    8.70   0
   3   2  16 1783.88   18.32   0
   4   0   7    1.15    5.72   0
   5  -1  -3    0.41    5.47   0
   7   0 -14  119.46    8.29   0
   7   1  -9   -7.42    7.26   0
   1   4  21    8.62    6.22   0
   3   3  18  420.50   10.95   0
   4   2  14  287.59    9.05   0
   4   1  12  924.72   14.10   0
   5   5   6   78.60    8.87   0
   6  -1  -8  810.22   14.04   0
   6   2   4  215.92    9.73   0
   6   3   3    2.52    7.38   0
   7   2  -7   -8.00    7.11   0
   3   1  14  702.31   12.66   0
   3   6  15    7.90    7.69   0
   4   4  15    4.30    6.63   0
   5   3  11    8.90    6.65   0
   6   0   0  855.80   14.00   0
   7   0 -11   -8.83    6.75   0
  -1   4  19    8.43    4.59   0
   2   2  18 1085.01   15.26   0
   3   0   9    2.45    4.61   0
   4   3  16  403.00   10.48   0
   5   4  10  140.53    8.86   0
   7   1  -6  102.10    8.35   0
   0   5  22  215.78    9.14   0
   2   5  21   -5.27    7.16   0
   2   7  16  153.99    9.47   0
   5   1  10  470.71   11.00   0
   5   2  12  491.03   11.69   0
   6   3   6  168.43    9.26   0
   7   0  -8  609.06   12.75   0
   7   2  -4  182.78    8.88   0
   2   4  22  336.17   10.57   0
   2   6  20  169.30    9.89   0
   3   5  19   -1.55    6.79   0
   4  -1   2  845.53   13.68   0
   5  -1   0 1446.28   17.06   0
   6  -1  -5   -1.99    5.61   0
   6   2   7   -7.37    7.37   0
   7   1  -3    5.70    7.29   0
   1   5  23    3.13    6.26   0
   1   6  22  137.20    8.76   0
   3   2  19    8.05    6.49   0
   4   0  10  414.31    9.65   0
   4   2  17    5.44    5.89   0
   4   4  18  180.10    9.83   0
   5   0   8  947.37   14.17   0
   5   4  13    8.82    7.53   0
   6   0   3   -2.04    5.52   0
   7   0  -5    4.32    6.89   0
   7   2  -1   -4.20    7.05   0
   3   6  18  173.50    9.83   0
   4   1  15    9.50    6.55   0
   2   1  16 2091.52   20.76   0
   4   3  19    3.32    7.40   0
   6   1   8  611.58   12.45   0
   6   3   9   -0.07    7.45   0
   7   1   0  368.40   10.91   0
   5  -2 -11    2.56    4.86   0
   5   1  13    0.53    5.91   0
   5   2  15    6.58    6.34   0
   6  -1  -2  321.96    9.74   0
   6   2  10  180.12    9.34   0
   0   4  23    2.64    5.86   0
   1   4  24  611.83   12.73   0
   2   7  19   -3.46    6.77   0
   3   1  17   -4.58    5.07   0
   5  -1   3   14.93    5.74   0
   7  -1 -10  220.69    8.90   0
   7   0  -2  209.81    9.14   0
   2   3  23    4.85    5.33   0
   2   5  24  414.24   11.57   0
   3   0  12 2578.95   22.30   0
   3   5  22  106.86    9.04   0
   3   4  23   -1.74    6.11   0
   5   3  17    3.89    7.58   0
   5   4  16  313.73   10.59   0
   7   1   3    3.69    7.52   0
   0   3  21   -1.44    4.63   0
   2   6  23    1.97    7.77   0
   4   2  20  647.96   12.52   0
   5   0  11   -2.56    6.24   0
   6   3  12  138.56    9.34   0
   2   0  11    1.46    4.32   0
   2   4  25   -2.66    5.71   0
   4   0  13   -1.80    5.16   0
   6  -1   1    4.09    6.03   0
   6   1  11    3.46    6.25   0
   7   0   1    4.98    7.09   0
   0   5  25    1.41    5.55   0
   3   2  22  271.80    9.32   0
   3   6  21    3.81    7.80   0
   4   1  18  376.43   10.25   0
   4   3  22  165.32    9.20   0
   4   5  20  123.61    8.80   0
   5  -2  -8 2012.69   22.86   0
   5   2  18  385.92   10.86   0
   6   2  13   -6.37    6.55   0
   1   5  26  208.01    9.33   0
   5   1  16  637.60   11.82   0
   5  -1   6  848.83   13.57   0
   7  -1  -4  249.89    9.29   0
   7   1   6  192.77    9.62   0
   5   3  20  223.93   10.17   0
   5   4  19    4.51    7.39   0
   8   1  -5    0.97    6.47   0
   3   1  20  925.26   14.14   0
   3   5  25   -4.99    7.42   0
   6  -1   4  736.83   13.01   0
   6   3  15    5.75    7.90   0
   7   0   4  173.30    8.34   0
   7   2   8  189.26    8.95   0
   2   1  19   -1.89    4.73   0
   2   5  27    3.84    7.36   0
   3   4  26  156.45    9.28   0
   5  -2  -5    5.66    4.95   0
   5   0  14  632.77   12.12   0
   6   1  14  130.41    7.84   0
   6   2  16  372.67   11.39   0
   1   3  25    0.06    4.71   0
   1   4  27    2.08    6.09   0
   2   3  26  594.36   11.81   0
   2   6  26  176.21   10.41   0
   3   0  15   -1.15    4.76   0
   4  -1   8 2680.57   22.84   0
   4   2  23   -7.41    7.10   0
   7  -1  -1    2.04    6.17   0
   8   1  -2  102.06    7.87   0
   3   6  24  152.40    9.09   0
   4   0  16 1543.75   17.40   0
   4   5  23   -2.43    8.18   0
   5   1  19    1.12    6.94   0
   5   2  21    2.44    7.15   0
   6  -2  -7    4.88    5.03   0
   6   0  12  425.71   11.15   0
   8   0  -4  207.13   10.00   0
   2   4  28  405.52   11.38   0
   3  -1   7    0.98    4.23   0
   4   1  21    2.13    6.82   0
   4   3  25   13.38    7.86   0
   7   0   7  -12.28    7.14   0
   7   2  11    2.37    7.22   0
   0   4  26  671.92   13.75   0
   3   2  25    2.50    6.67   0
   3   3  27    6.63    7.07   0
   6   3  18   95.49    8.89   0
   8   1   1    9.57    7.34   0
   5   3  23    1.14    7.73   0
   5   4  22   76.85    8.07   0
   6  -1   7    1.73    5.25   0
   6   1  17    4.65    7.52   0
   7  -1   2  330.90   10.09   0
   1   2  23    0.88    5.25   0
   1   5  29   -0.59    7.40   0
   2   0  14  334.63    9.56   0
   5  -2  -2  824.44   14.51   0
   6  -2  -4  882.58   14.89   0
   6   2  19    3.41    7.62   0
   8   0  -1   -2.15    7.30   0
   3   5  28  159.23    9.72   0
   5   0  17    1.95    6.83   0
   0   3  24 1481.81   19.22   0
   3   4  29    4.48    7.88   0
   4  -1  11   14.21    5.89   0
   4   4  27    3.87    7.75   0
   6   0  15    0.17    6.71   0
   7   0  10  246.75    9.73   0
   7   2  14  145.07    9.05   0
   8   1   4  164.06    8.79   0
   3   1  23    9.54    5.59   0
   4   2  26  379.61   10.34   0
   5   2  24  316.78    9.88   0
   1   2  41   -0.50    5.61   0
   2   2  45   -2.63    6.28   0
   3   1  44  272.04   10.01   0
   4  -2  24 1772.09   17.78   0
   4  -1  35    3.80    6.51   0
   5  -3   8 2181.46   21.21   0
   6   0  42  137.99    8.70   0
   9  -2  20  115.45    8.70   0
   3  -1  31    1.95    5.18   0
   8  -3  14  130.81    8.17   0
   2  -1  24 1822.84   18.65   0
   5  -3  11    7.44    4.45   0
   6  -3  18  425.34   10.58   0
   7  -3  19   -3.42    6.37   0
   8  -2  28  135.28    8.73   0
   3  -2  17   11.24    4.58   0
   5   0  44  173.00    9.52   0
   6  -2  32  333.19   10.45   0
   8  -3  17    3.51    6.61   0
   4   0  43   -1.43    6.03   0
   5  -3  14  387.68    9.98   0
   5  -2  31   -1.28    6.44   0
   5  -1  39   -7.09    7.18   0
   7  -1  38   53.01    7.33   0
   3   2  49   -5.90    6.56   0
   4  -2  27    4.19    5.14   0
   4   2  50  110.19    8.30   0
   6  -1  40  198.83    9.56   0
   2   1  43   -0.31    6.22   0
   3   3  51    0.12    6.41   0
   4  -1  38  157.45    8.36   0
   4   1  48  180.64    9.27   0
   6  -3  21    1.58    5.29   0
   6   0  45   -0.75    7.14   0
   7  -3  22  152.23    7.56   0
   7  -2  33   -1.55    6.13   0
   8  -3  20  212.19    9.22   0
   0   1  29    1.40    4.64   0
   0   2  37   -0.29    5.45   0
   3  -2  20 1411.66   16.17   0
   3  -1  34  556.18   10.85   0
   5  -3  17    2.15    4.84   0
   5   1  49    3.63    7.77   0
   8  -2  31    2.28    7.38   0
   2  -1  27    5.38    5.35   0
   3   1  47   -1.94    7.20   0
   6  -2  35   -0.47    7.15   0
   1   2  44  295.04    9.73   0
   2   2  48  273.01    9.54   0
   4  -2  30  212.04    8.61   0
   5  -2  34  450.10   10.91   0
   7  -3  25    5.92    6.86   0
   7  -1  41   -6.22    7.29   0
   8  -3  23  -10.54    6.90   0
   1   1  39    0.87    5.55   0
   5  -1  42  162.62    8.37   0
   5   0  47    3.98    7.16   0
   7  -2  36  235.53    9.89   0
   3  -2  23    1.22    5.53   0
   6  -1  43    5.16    7.76   0
   1   0  31   -1.13    4.30   0
   4  -1  41    1.94    6.73   0
   3  -1  37    2.22    5.51   0
   3   2  52  114.15    8.77   0
   4   1  51   -0.77    7.79   0
   4   2  53   -3.97    6.82   0
   5  -3  23   -0.91    5.80   0
   6  -2  38   99.27    8.35   0
   6   0  48  115.28    8.91   0
   7  -3  28  367.58    9.90   0
   8  -3  26  165.11    8.62   0
   9  -3  21    1.17    7.30   0
   2  -1  30  586.57   11.07   0
   2   1  46  112.45    7.94   0
   4  -3   4 1291.90   18.07   0
   4  -3   7   10.37    4.97   0
   4  -3  10 1105.23   15.69   0
   4  -2  33    1.54    6.71   0
   5  -2  37    5.52    7.23   0
   0   1  32 1636.32   19.29   0
   3  -2  26  531.57   11.06   0
   3   0  45    9.31    5.75   0
   7  -2  39   -1.95    7.70   0
   7  -1  44  103.14    8.91   0
   2   0  41   -3.18    6.08   0
   3   1  50  154.22    9.18   0
   4  -3  13    7.52    4.52   0
   5  -1  45    8.64    7.80   0
   8  -3  29    2.31    7.01   0
   9  -3  24  199.34    9.15   0
   4   0  49   -2.94    7.53   0
   5  -3  26  619.32   11.47   0
   6  -3  30  183.04    8.08   0
   6  -1  46   61.64    7.89   0
   1   0  34  907.77   13.99   0
   1   1  42  307.65    9.71   0
   1   2  47   -0.62    5.99   0
   2   2  51    3.77    6.65   0
   4  -1  44  268.12   10.12   0
   6  -2  41   10.57    7.83   0
   2  -1  33    4.90    5.82   0
   3  -1  40  441.65   10.25   0
   4  -2  36  374.86   10.54   0
   7  -4   8  523.57   11.99   0
   7  -4  11    2.11    6.54   0
   9  -3  27    2.00    6.93   0
  -1   2  30  529.86   13.03   0
   3  -2  29    1.25    5.16   0
   4  -3  19    9.98    5.01   0
   5  -3  29    2.80    6.74   0
   5  -2  40  413.52   10.64   0
   7  -4  14  353.74   10.50   0
   7  -2  42  148.50    9.15   0
   8  -3  32  186.97    9.31   0
   4   1  54   56.57    7.82   0
   6  -3  33    0.62    6.07   0
   8  -4  15   -6.81    6.59   0
   2   1  49   -3.97    6.50   0
   3   2  55   -0.23    6.60   0
   5  -1  48  202.32   10.12   0
   7  -4  17    9.12    6.39   0
   0   1  35    1.33    4.97   0
   1  -1  20 1505.06   18.09   0
   2   0  44  659.12   12.94   0
   3   1  53   -1.27    7.32   0
   4  -3  22  355.03    9.31   0
   6  -1  49   -0.04    6.93   0
   8  -4  18  193.66    9.12   0
   3  -2  32 1230.69   15.55   0
   4  -2  39   -8.18    7.18   0
   4   0  52  137.15    9.00   0
   5  -3  32  697.24   12.86   0
   5   0  53   -4.14    6.95   0
   6  -4   7    3.35    6.00   0
   6  -4  10  357.47   10.51   0
   6  -4  13   -2.36    5.86   0
   6  -2  44  230.54    9.75   0
   7  -4  20  419.92   10.66   0
   8  -4  21   -2.17    6.94   0
   8  -3  35    4.01    7.14   0
   1   0  37    1.58    5.46   0
   2  -2  13    1.21    4.38   0
   2  -1  36  862.65   13.74   0
   4  -1  47    2.37    6.60   0
   5  -2  43   -9.00    6.42   0
   6  -3  36  307.22    9.84   0
   7  -3  37    1.78    7.69   0
   1   1  45    3.08    5.93   0
   2  -2  16 2993.97   24.84   0
   4  -3  25   -0.37    5.32   0
   6  -4   4  840.81   15.18   0
   7  -4  23    3.93    6.82   0
   7  -2  45    1.44    6.91   0
   1  -1  23   -0.37    4.37   0
   6  -4  19   -0.38    6.33   0
   8  -4  24  310.17   10.58   0
   2  -2  19    3.45    4.51   0
   5  -3  35   -2.62    6.80   0
   5  -1  51   -0.27    7.42   0
   7  -4  26  164.39    9.07   0
   3  -2  35    1.16    5.49   0
   3   0  51    9.22    6.33   0
   4  -3  28  709.79   12.20   0
   4   1  57    5.42    6.78   0
   6  -4  22  361.15    9.86   0
   6  -3  39   -1.32    7.46   0
   6  -2  47    0.18    7.41   0
   7  -3  40  149.31    8.99   0
   8  -4  27    6.94    7.27   0
   0   0  24 4394.40   31.63   0
   2   0  47   -2.66    6.69   0
   2   1  52  242.03    9.48   0
   4  -2  42  392.01   10.31   0
   5  -2  46   58.54    8.07   0
   0   1  38  251.30    9.02   0
   1  -1  26 1157.43   15.37   0
   2  -2  22 1936.03   19.22   0
   3   1  56  117.85    8.71   0
   4   0  55   -2.30    7.39   0
   6  -4  25    4.18    6.78   0
   7  -4  29    3.12    7.13   0
   9  -4  25    3.22    7.39   0
   1   0  40  689.59   12.38   0
   4  -3  31    4.14    6.17   0
   8  -4  30   86.86    7.99   0
   5  -3  38   93.08    7.54   0
   0   0  27    1.29    4.54   0
   1   1  48  295.77    9.58   0
   2  -2  25    1.30    4.73   0
   3  -2  38  311.35    9.12   0
   5  -4  12 1139.76   15.91   0
   5  -4  15    4.10    5.72   0
   6  -3  42  163.45    8.44   0
   7  -4  32  270.80   10.04   0
   7  -3  43   -7.64    7.55   0
   9  -4  28   69.45    7.14   0
   1  -1  29    0.43    5.14   0
   4  -2  45   -5.70    6.17   0
   5  -4   9   18.12    5.44   0
   5  -4  18  736.94   12.97   0
   6  -2  50  103.37    8.07   0
   8  -4  33    2.48    7.25   0
   4  -3  34  493.69   10.62   0
   5  -2  49    1.08    6.68   0
  -8   3  25   -2.78    5.62   0
  -7   3  29    6.25    6.61   0
  -6   3  -3    1.81    5.26   0
  -5   2  41    1.35    5.43   0
  -5   3   1   -0.07    4.61   0
  -5   3  25   -2.13    5.00   0
  -8   2  38   16.56    7.39   0
  -8   3   1    2.94    6.36   0
  -6   3  30  195.61    9.15   0
  -3   1  44  301.91   10.08   0
  -3   2  31   -0.75    5.61   0
  -8   3  28  166.65    9.64   0
  -7   2  42   78.51    8.24   0
  -7   3  -4  613.34   12.70   0
  -9   3  12  159.53    9.22   0
  -9   3  15    1.07    7.53   0
  -7   3  32  257.09   10.64   0
  -6   1  50   83.16    8.08   0
  -5   3  28  393.02   10.12   0
  -4   2  39   -1.63    5.77   0
  -1   1  25   -4.18    4.53   0
  -9   3   9    4.36    6.65   0
  -9   3  18  176.77    9.08   0
  -6   3  33    6.60    7.66   0
  -4   1  49   -5.78    7.45   0
  -4   3  11   18.42    5.94   0
  -4   3  14  678.99   12.08   0
  -4   3  17    1.61    5.95   0
  -9   3   6   70.04    7.89   0
  -9   3  21   -0.38    7.59   0
  -8   3  31    1.33    7.53   0
  -6   3  -6  434.02   11.28   0
  -5   1  51   -3.06    7.52   0
  -5   3  -2  800.12   13.42   0
  -4   3  20  897.26   13.83   0
  -3   2  34  592.32   12.28   0
  -2   1  39   -1.29    5.60   0
  -7   3  35    2.90    7.71   0
  -5   2  44  231.99    9.62   0
  -5   3  31    3.62    6.07   0
  -4   3   8 2650.57   22.39   0
  -6   2  46   97.22    8.64   0
  -6   3  36  300.87   10.67   0
  -4   3  23   10.10    6.43   0
  -4   3   5    7.96    4.68   0
  -2   2  14  326.23    9.32   0
  -2   2  17   -0.03    4.45   0
;
_shelx_hkl_checksum              10354
loop_
_space_group_symop_operation_xyz
'x, y, z'
'-y, x-y, z'
'-x+y, -x, z'
'y, x, -z+1/2'
'x-y, -y, -z+1/2'
'-x, -x+y, -z+1/2'
'x+2/3, y+1/3, z+1/3'
'-y+2/3, x-y+1/3, z+1/3'
'-x+y+2/3, -x+1/3, z+1/3'
'y+2/3, x+1/3, -z+5/6'
'x-y+2/3, -y+1/3, -z+5/6'
'-x+2/3, -x+y+1/3, -z+5/6'
'x+1/3, y+2/3, z+2/3'
'-y+1/3, x-y+2/3, z+2/3'
'-x+y+1/3, -x+2/3, z+2/3'
'y+1/3, x+2/3, -z+7/6'
'x-y+1/3, -y+2/3, -z+7/6'
'-x+1/3, -x+y+2/3, -z+7/6'
'-x, -y, -z'
'y, -x+y, -z'
'x-y, x, -z'
'-y, -x, z-1/2'
'-x+y, y, z-1/2'
'x, x-y, z-1/2'
'-x+2/3, -y+1/3, -z+1/3'
'y+2/3, -x+y+1/3, -z+1/3'
'x-y+2/3, x+1/3, -z+1/3'
'-y+2/3, -x+1/3, z-1/6'
'-x+y+2/3, y+1/3, z-1/6'
'x+2/3, x-y+1/3, z-1/6'
'-x+1/3, -y+2/3, -z+2/3'
'y+1/3, -x+y+2/3, -z+2/3'
'x-y+1/3, x+2/3, -z+2/3'
'-y+1/3, -x+2/3, z+1/6'
'-x+y+1/3, y+2/3, z+1/6'
'x+1/3, x-y+2/3, z+1/6'
loop_
_atom_site_label
_atom_site_type_symbol
_atom_site_fract_x
_atom_site_fract_y
_atom_site_fract_z
_atom_site_U_iso_or_equiv
_atom_site_adp_type
_atom_site_occupancy
_atom_site_site_symmetry_order
_atom_site_calc_flag
_atom_site_refinement_flags_posn
_atom_site_refinement_flags_adp
_atom_site_refinement_flags_occupancy
Ba1 Ba 0.0000 0.0000 0.2500 0.01163(2) Uani 1 6 d S T P
Mg2 Mg 0.0000 0.0000 0.0000 0.00926(8) Uani 1 6 d S T P
O3 O 0.1239(2) 0.8315(2) 0.12914(2) 0.02222(15) Uani 1 1 d . . .
C4 C 0.0000 0.0000 0.13038(3) 0.00966(12) Uani 1 3 d S T P
loop_
_atom_site_aniso_label
_atom_site_aniso_U_11
_atom_site_aniso_U_22
_atom_site_aniso_U_33
_atom_site_aniso_U_23
_atom_site_aniso_U_13
_atom_site_aniso_U_12
Ba1 0.01018(3) 0.01018(3) 0.01453(4) 0.000 0.000 0.00509(1)
Mg2 0.00787(11) 0.00787(11) 0.01206(18) 0.000 0.000 0.00393(6)
O3 0.0302(4) 0.0257(4) 0.0235(2) -0.0057(3) -0.0094(3) 0.0236(4)
C4 0.00945(18) 0.00945(18) 0.0101(3) 0.000 0.000 0.00473(9)
loop_
_atom_type_symbol
_atom_type_description
_atom_type_scat_dispersion_real
_atom_type_scat_dispersion_imag
_atom_type_scat_source
C C 0.0033 0.0016 'International Tables Vol C Tables 4.2.6.8 and 6.1.1.4'
O O 0.0106 0.0060 'International Tables Vol C Tables 4.2.6.8 and 6.1.1.4'
Mg Mg 0.0486 0.0363 'International Tables Vol C Tables 4.2.6.8 and 6.1.1.4'
Ba Ba -0.3244 2.2819 'International Tables Vol C Tables 4.2.6.8 and 6.1.1.4'
loop_
_geom_angle_atom_site_label_1
_geom_angle_atom_site_label_2
_geom_angle_atom_site_label_3
_geom_angle
_geom_angle_site_symmetry_1
_geom_angle_site_symmetry_3
O3 Ba1 O3 123.38(3) 35_445 26_445
O3 Ba1 O3 137.02(3) 35_445 25_455
O3 Ba1 O3 93.76(2) 26_445 25_455
O3 Ba1 O3 93.76(2) 35_445 34_545
O3 Ba1 O3 137.02(3) 26_445 34_545
O3 Ba1 O3 65.60(4) 25_455 34_545
O3 Ba1 O3 93.76(2) 35_445 36
O3 Ba1 O3 65.60(3) 26_445 36
O3 Ba1 O3 123.38(3) 25_455 36
O3 Ba1 O3 93.76(2) 34_545 36
O3 Ba1 O3 65.60(3) 35_445 27
O3 Ba1 O3 93.76(2) 26_445 27
O3 Ba1 O3 93.76(2) 25_455 27
O3 Ba1 O3 123.38(3) 34_545 27
O3 Ba1 O3 137.02(3) 36 27
O3 Ba1 O3 177.71(2) 35_445 27_545
O3 Ba1 O3 57.14(3) 26_445 27_545
O3 Ba1 O3 43.89(3) 25_455 27_545
O3 Ba1 O3 84.922(17) 34_545 27_545
O3 Ba1 O3 84.465(16) 36 27_545
O3 Ba1 O3 116.69(2) 27 27_545
O3 Ba1 O3 57.14(3) 35_445 36_455
O3 Ba1 O3 177.71(2) 26_445 36_455
O3 Ba1 O3 84.922(17) 25_455 36_455
O3 Ba1 O3 43.89(3) 34_545 36_455
O3 Ba1 O3 116.69(2) 36 36_455
O3 Ba1 O3 84.465(16) 27 36_455
O3 Ba1 O3 122.45(3) 27_545 36_455
O3 Ba1 O3 43.89(3) 35_445 34_655
O3 Ba1 O3 84.465(16) 26_445 34_655
O3 Ba1 O3 177.71(2) 25_455 34_655
O3 Ba1 O3 116.69(2) 34_545 34_655
O3 Ba1 O3 57.13(3) 36 34_655
O3 Ba1 O3 84.923(17) 27 34_655
O3 Ba1 O3 135.31(3) 27_545 34_655
O3 Ba1 O3 96.80(2) 36_455 34_655
O3 Ba1 O3 84.465(16) 35_445 25_565
O3 Ba1 O3 43.89(3) 26_445 25_565
O3 Ba1 O3 116.69(2) 25_455 25_565
O3 Ba1 O3 177.71(2) 34_545 25_565
O3 Ba1 O3 84.923(17) 36 25_565
O3 Ba1 O3 57.13(3) 27 25_565
O3 Ba1 O3 96.80(2) 27_545 25_565
O3 Ba1 O3 135.31(3) 36_455 25_565
O3 Ba1 O3 61.03(3) 34_655 25_565
O3 Ba1 O3 84.923(17) 35_445 26_345
O3 Ba1 O3 116.69(2) 26_445 26_345
O3 Ba1 O3 57.13(3) 25_455 26_345
O3 Ba1 O3 84.465(16) 34_545 26_345
O3 Ba1 O3 177.71(2) 36 26_345
O3 Ba1 O3 43.89(3) 27 26_345
O3 Ba1 O3 96.80(2) 27_545 26_345
O3 Ba1 O3 61.03(3) 36_455 26_345
O3 Ba1 O3 122.45(3) 34_655 26_345
O3 Ba1 O3 96.80(2) 25_565 26_345
O3 Ba1 O3 116.69(2) 35_445 35_435
O3 Ba1 O3 84.923(17) 26_445 35_435
O3 Ba1 O3 84.465(16) 25_455 35_435
O3 Ba1 O3 57.13(3) 34_545 35_435
O3 Ba1 O3 43.89(3) 36 35_435
O3 Ba1 O3 177.71(2) 27 35_435
O3 Ba1 O3 61.03(3) 27_545 35_435
O3 Ba1 O3 96.80(2) 36_455 35_435
O3 Ba1 O3 96.80(2) 34_655 35_435
O3 Ba1 O3 122.45(3) 25_565 35_435
O3 Ba1 O3 135.31(3) 26_345 35_435
O3 Mg2 O3 180.00(4) 30_455 18_544
O3 Mg2 O3 86.59(3) 30_455 29_445
O3 Mg2 O3 93.41(3) 18_544 29_445
O3 Mg2 O3 93.41(3) 30_455 17_554
O3 Mg2 O3 86.59(3) 18_544 17_554
O3 Mg2 O3 180.00(7) 29_445 17_554
O3 Mg2 O3 86.58(3) 30_455 28
O3 Mg2 O3 93.42(3) 18_544 28
O3 Mg2 O3 86.58(3) 29_445 28
O3 Mg2 O3 93.42(3) 17_554 28
O3 Mg2 O3 93.42(3) 30_455 16_444
O3 Mg2 O3 86.58(3) 18_544 16_444
O3 Mg2 O3 93.42(3) 29_445 16_444
O3 Mg2 O3 86.58(3) 17_554 16_444
O3 Mg2 O3 180.00(5) 28 16_444
O3 Mg2 Ba1 42.08(3) 30_455 13_444
O3 Mg2 Ba1 137.92(3) 18_544 13_444
O3 Mg2 Ba1 98.33(2) 29_445 13_444
O3 Mg2 Ba1 81.67(2) 17_554 13_444
O3 Mg2 Ba1 47.60(3) 28 13_444
O3 Mg2 Ba1 132.40(3) 16_444 13_444
O3 Mg2 Ba1 137.92(3) 30_455 25
O3 Mg2 Ba1 42.08(3) 18_544 25
O3 Mg2 Ba1 81.67(2) 29_445 25
O3 Mg2 Ba1 98.33(2) 17_554 25
O3 Mg2 Ba1 132.40(3) 28 25
O3 Mg2 Ba1 47.60(3) 16_444 25
Ba1 Mg2 Ba1 180.0 13_444 25
O3 Mg2 Ba1 98.33(2) 30_455 13_554
O3 Mg2 Ba1 81.67(2) 18_544 13_554
O3 Mg2 Ba1 47.60(3) 29_445 13_554
O3 Mg2 Ba1 132.40(3) 17_554 13_554
O3 Mg2 Ba1 42.08(3) 28 13_554
O3 Mg2 Ba1 137.92(3) 16_444 13_554
Ba1 Mg2 Ba1 77.154(1) 13_444 13_554
Ba1 Mg2 Ba1 102.846(1) 25 13_554
O3 Mg2 Ba1 81.67(2) 30_455 25_445
O3 Mg2 Ba1 98.33(2) 18_544 25_445
O3 Mg2 Ba1 132.40(3) 29_445 25_445
O3 Mg2 Ba1 47.60(3) 17_554 25_445
O3 Mg2 Ba1 137.92(3) 28 25_445
O3 Mg2 Ba1 42.08(3) 16_444 25_445
Ba1 Mg2 Ba1 102.846(1) 13_444 25_445
Ba1 Mg2 Ba1 77.154(1) 25 25_445
Ba1 Mg2 Ba1 180.0 13_554 25_445
O3 Mg2 Ba1 132.40(3) 30_455 25_455
O3 Mg2 Ba1 47.60(3) 18_544 25_455
O3 Mg2 Ba1 137.92(3) 29_445 25_455
O3 Mg2 Ba1 42.08(3) 17_554 25_455
O3 Mg2 Ba1 81.67(2) 28 25_455
O3 Mg2 Ba1 98.33(2) 16_444 25_455
Ba1 Mg2 Ba1 102.847(2) 13_444 25_455
Ba1 Mg2 Ba1 77.153(1) 25 25_455
Ba1 Mg2 Ba1 102.847(1) 13_554 25_455
Ba1 Mg2 Ba1 77.153(1) 25_445 25_455
O3 Mg2 Ba1 47.60(3) 30_455 13_544
O3 Mg2 Ba1 132.40(3) 18_544 13_544
O3 Mg2 Ba1 42.08(3) 29_445 13_544
O3 Mg2 Ba1 137.92(3) 17_554 13_544
O3 Mg2 Ba1 98.33(2) 28 13_544
O3 Mg2 Ba1 81.67(2) 16_444 13_544
Ba1 Mg2 Ba1 77.153(1) 13_444 13_544
Ba1 Mg2 Ba1 102.847(2) 25 13_544
Ba1 Mg2 Ba1 77.153(1) 13_554 13_544
Ba1 Mg2 Ba1 102.847(1) 25_445 13_544
Ba1 Mg2 Ba1 180.0 25_455 13_544
C4 O3 Mg2 139.62(7) 1_565 16_554
C4 O3 Ba1 98.82(5) 1_565 25_455
Mg2 O3 Ba1 108.98(3) 16_554 25_455
C4 O3 Ba1 89.94(5) 1_565 25_565
Mg2 O3 Ba1 102.42(3) 16_554 25_565
Ba1 O3 Ba1 116.68(2) 25_455 25_565
O3 C4 O3 119.894(7) 2_665 3_455
O3 C4 O3 119.894(7) 2_665 1_545
O3 C4 O3 119.894(6) 3_455 1_545
O3 C4 Ba1 149.19(6) 2_665 25_445
O3 C4 Ba1 67.29(5) 3_455 25_445
O3 C4 Ba1 58.69(5) 1_545 25_445
O3 C4 Ba1 58.69(5) 2_665 25
O3 C4 Ba1 149.19(6) 3_455 25
O3 C4 Ba1 67.29(5) 1_545 25
Ba1 C4 Ba1 99.056(18) 25_445 25
O3 C4 Ba1 67.29(5) 2_665 25_455
O3 C4 Ba1 58.69(5) 3_455 25_455
O3 C4 Ba1 149.20(6) 1_545 25_455
Ba1 C4 Ba1 99.055(18) 25_445 25_455
Ba1 C4 Ba1 99.055(18) 25 25_455
loop_
_geom_bond_atom_site_label_1
_geom_bond_atom_site_label_2
_geom_bond_distance
_geom_bond_site_symmetry_2
Ba1 O3 2.8518(9) 35_445
Ba1 O3 2.8518(9) 26_445
Ba1 O3 2.8518(10) 25_455
Ba1 O3 2.8518(10) 34_545
Ba1 O3 2.8518(9) 36
Ba1 O3 2.8518(9) 27
Ba1 O3 3.0426(10) 27_545
Ba1 O3 3.0426(10) 36_455
Ba1 O3 3.0426(10) 34_655
Ba1 O3 3.0426(10) 25_565
Ba1 O3 3.0426(10) 26_345
Ba1 O3 3.0426(10) 35_435
Mg2 O3 2.0589(7) 30_455
Mg2 O3 2.0589(7) 18_544
Mg2 O3 2.0589(7) 29_445
Mg2 O3 2.0589(7) 17_554
Mg2 O3 2.0589(7) 28
Mg2 O3 2.0589(7) 16_444
Mg2 Ba1 4.02389(6) 13_444
Mg2 Ba1 4.02389(6) 25
Mg2 Ba1 4.02389(6) 13_554
Mg2 Ba1 4.02389(6) 25_445
Mg2 Ba1 4.02380(5) 25_455
Mg2 Ba1 4.02380(5) 13_544
O3 C4 1.2766(7) 1_565
O3 Mg2 2.0589(7) 16_554
O3 Ba1 2.8518(9) 25_455
O3 Ba1 3.0426(10) 25_565
C4 O3 1.2766(7) 2_665
C4 O3 1.2766(7) 3_455
C4 O3 1.2766(7) 1_545
C4 Ba1 3.2984(4) 25_445
C4 Ba1 3.2984(5) 25
C4 Ba1 3.2984(4) 25_455
