#------------------------------------------------------------------------------
#$Date: 2019-12-25 22:26:10 +0200 (Wed, 25 Dec 2019) $
#$Revision: 245890 $
#$URL: file:///home/coder/svn-repositories/cod/cif/2/31/14/2311443.cif $
#------------------------------------------------------------------------------
#
# This file is available in the Crystallography Open Database (COD),
# http://www.crystallography.net/. The original data for this entry
# were provided by IUCr Journals, http://journals.iucr.org/.
#
# The file may be used within the scientific community so long as
# proper attribution is given to the journal article from which the
# data were obtained.
#
data_2311443
loop_
_publ_author_name
'Gotoh, Kazuma'
'Ishida, Hiroyuki'
_publ_section_title
;
 Crystal structures of three hydrogen-bonded 1:2 compounds of chloranilic
 acid with 2-pyridone, 3-hy-droxy-pyridine and 4-hyroxypyridine.
;
_journal_coeditor_code           LH5855
_journal_issue                   'Pt 10'
_journal_name_full
'Acta crystallographica. Section E, Crystallographic communications'
_journal_page_first              1546
_journal_page_last               1550
_journal_paper_doi               10.1107/S2056989017013536
_journal_volume                  73
_journal_year                    2017
_chemical_formula_iupac          '2C5 H6 N O + , C6 Cl2 O4 2-'
_chemical_formula_moiety         '2(C5 H6 N O 1+) , C6 Cl2 O4 2-'
_chemical_formula_sum            'C16 H12 Cl2 N2 O6'
_chemical_formula_weight         399.19
_chemical_name_common            'bis(3-hyroxypyridinium) chloranilate'
_chemical_name_systematic
'Bis(3-hyroxypyridinium) 2,5-dichloro-3,6-dioxocyclohexa-1,4-diene-1,4-diolate'
_space_group_crystal_system      monoclinic
_space_group_IT_number           14
_space_group_name_Hall           '-P 2ybc'
_space_group_name_H-M_alt        'P 1 21/c 1'
_atom_sites_solution_hydrogens   mixed
_atom_sites_solution_primary     direct
_atom_sites_solution_secondary   difmap
_audit_creation_method           SHELXL-2016/6
_cell_angle_alpha                90.0000
_cell_angle_beta                 106.968(3)
_cell_angle_gamma                90.0000
_cell_formula_units_Z            2
_cell_length_a                   8.3659(6)
_cell_length_b                   8.5492(6)
_cell_length_c                   11.7087(8)
_cell_measurement_reflns_used    13386
_cell_measurement_temperature    120.0(10)
_cell_measurement_theta_max      30.03
_cell_measurement_theta_min      3.00
_cell_volume                     800.97(10)
_computing_cell_refinement
;
RAPID-AUTO (Rigaku, 2006)
;
_computing_data_collection
;
RAPID-AUTO (Rigaku, 2006)
;
_computing_data_reduction
;
RAPID-AUTO (Rigaku, 2006)
;
_computing_molecular_graphics
;
<i>ORTEP-3 for Windows</i> (Farrugia, 2012)
;
_computing_publication_material
;
CrystalStructure (Rigaku, 2010) and PLATON (Spek, 2009)
;
_computing_structure_refinement
;
SHELXL2016 (Sheldrick, 2015)
;
_computing_structure_solution
;
SHELXS97 (Sheldrick, 2008)
;
_diffrn_ambient_temperature      120(2)
_diffrn_detector_area_resol_mean 10.000
_diffrn_measured_fraction_theta_full 0.999
_diffrn_measured_fraction_theta_max 1.000
_diffrn_measurement_device_type  'Rigaku R-AXIS RAPIDII'
_diffrn_measurement_method       \w
_diffrn_radiation_type           'Mo K\a'
_diffrn_radiation_wavelength     0.71075
_diffrn_reflns_av_R_equivalents  0.0168
_diffrn_reflns_limit_h_max       11
_diffrn_reflns_limit_h_min       -11
_diffrn_reflns_limit_k_max       12
_diffrn_reflns_limit_k_min       -12
_diffrn_reflns_limit_l_max       16
_diffrn_reflns_limit_l_min       -15
_diffrn_reflns_number            15315
_diffrn_reflns_theta_full        25.242
_diffrn_reflns_theta_max         29.983
_diffrn_reflns_theta_min         2.998
_diffrn_standards_number         0
_exptl_absorpt_coefficient_mu    0.445
_exptl_absorpt_correction_T_max  0.948
_exptl_absorpt_correction_T_min  0.903
_exptl_absorpt_correction_type   numerical
_exptl_absorpt_process_details
;
(<i>NUMABS</i>; Higashi, 1999)
;
_exptl_crystal_colour            brown
_exptl_crystal_density_diffrn    1.655
_exptl_crystal_density_method    'not measured'
_exptl_crystal_description       block
_exptl_crystal_F_000             408.00
_exptl_crystal_size_max          0.210
_exptl_crystal_size_mid          0.200
_exptl_crystal_size_min          0.120
_refine_diff_density_max         0.517
_refine_diff_density_min         -0.195
_refine_ls_extinction_method     none
_refine_ls_goodness_of_fit_ref   1.072
_refine_ls_hydrogen_treatment    mixed
_refine_ls_matrix_type           full
_refine_ls_number_parameters     124
_refine_ls_number_reflns         2329
_refine_ls_number_restraints     0
_refine_ls_restrained_S_all      1.072
_refine_ls_R_factor_all          0.0294
_refine_ls_R_factor_gt           0.0275
_refine_ls_shift/su_max          0.001
_refine_ls_shift/su_mean         0.000
_refine_ls_structure_factor_coef Fsqd
_refine_ls_weighting_details
'w = 1/[\s^2^(Fo^2^)+(0.0411P)^2^+0.3570P] where P=(Fo^2^+2Fc^2^)/3'
_refine_ls_weighting_scheme      calc
_refine_ls_wR_factor_gt          0.0738
_refine_ls_wR_factor_ref         0.0751
_reflns_number_gt                2166
_reflns_number_total             2329
_reflns_threshold_expression     I>2\s(I)
_cod_data_source_file            lh5855sup1.cif
_cod_data_source_block           II
_cod_original_cell_volume        800.98(9)
_cod_original_sg_symbol_H-M      'P 21/c'
_cod_database_code               2311443
_shelx_space_group_comment
;
The symmetry employed for this shelxl refinement is uniquely defined
by the following loop, which should always be used as a source of
symmetry information in preference to the above space-group names.
They are only intended as comments.
;
_shelx_estimated_absorpt_t_min   0.912
_shelx_estimated_absorpt_t_max   0.949
_shelx_hkl_file
;
   0  -1   1 4926.31   39.81
   0  -1   1 4812.15   40.50
   0   1   1 4818.37   40.97
   0  -1  -1 4794.31   42.67
   0  -1  -1 4706.88   40.21
   0   1  -1 4802.48   40.78
   0   1   1 4786.14   43.09
   0   1  -1 4732.36   39.24
   1  -1   0   30.90    6.84
   1   1   0   26.12    6.27
  -1   1   0   24.14    7.38
  -1  -1   0   17.87    6.77
   1   1   0   28.36    4.66
  -1   0  -1    6.00    3.65
   1   0   1    2.76    3.02
  -1   0  -1    3.64    2.78
   1   0   1    5.46    3.38
  -1  -1   1 8724.13   79.21
  -1   1   1 8746.19   75.30
   1  -1  -1 8634.86   78.57
   1   1  -1 8606.77   74.53
   1  -1  -1 8536.29   75.70
  -1  -1   1 8861.71   80.25
   1   1  -1 8872.44   80.55
   0   0  -2  951.91    9.17
   0   0   2  944.62   11.21
   0   0   2  973.76    9.12
   0   0  -2  961.82   10.94
   1   0  -2    1.45    3.67
  -1   0   2 2965.38   28.36
  -1  -1  -1 5975.12   61.42
   1  -1   1 6015.84   56.37
   1  -1   1 6193.20   50.48
   1   1   1 5901.61   60.14
  -1  -1  -1 5852.91   54.69
   1   1   1 6004.39   56.76
  -1   1  -1 5913.90   55.87
   0  -1   244390.19  463.34
   0   1  -245572.85  479.55
   0  -1  -244845.40  474.77
   0   1   244841.47  479.97
   0   1   244468.54  469.47
   0  -1   245267.76  476.10
   0  -1  -244441.90  470.94
   0   1  -245063.45  470.71
  -1  -1   2 3119.60   31.22
   1   1  -2 3314.39   38.50
  -1  -1   2 3252.19   28.11
  -1   1   2 3096.65   28.92
   1  -1  -2 3170.02   27.24
  -1   1   2 3124.55   28.69
   1  -1  -2 3120.40   31.93
   0  -2   0 2825.68   28.48
   0  -2   0 2830.63   25.11
   0   2   0 2853.44   33.41
   2   0  -1   22.77    5.08
  -2   0   1    2.21    3.98
   2   0  -1    0.85    4.27
  -2   0   1   -1.03    3.53
   1   0   211807.16  116.09
  -1   0  -211776.19  112.16
   1   0   211746.58  112.27
  -1   0  -211730.49  114.87
  -2   0   0 1229.32   17.00
  -2   0   0 1228.98   15.41
   2   0   0 1260.59   16.33
   2   0   0 1241.95   22.84
   0   2   1   78.10    8.13
   0   2  -1   68.64    8.77
   0  -2   1   77.48    5.57
   0  -2  -1   65.66    4.70
   0  -2   1   68.86    5.98
   0   2   1   74.83    9.64
   0  -2  -1   83.52    6.10
   0   2  -1   82.79    6.00
  -1   0   3    9.39    7.24
  -1   0   3    3.03    1.05
   1   0  -3    1.94    0.94
   1   0  -3    7.53    4.08
   2   0  -229862.19  298.80
   2   0  -229881.70  307.54
  -2   0   229926.71  308.40
  -2   0   229828.14  298.86
  -1  -2   0 3350.77   34.40
   1   2   0 3319.89   33.54
   1  -2   0 3308.78   38.35
  -1  -2   0 3310.41   33.82
  -1   2   0 3330.70   33.21
   1   2   0 3306.18   34.13
   2  -1  -115622.60  145.55
   2   1  -115343.14  151.98
  -2  -1   114950.38  155.48
  -2  -1   114857.65  142.42
  -2   1   115396.61  146.69
  -2   1   115342.16  148.43
   2  -1  -115184.02  147.63
   2   1  -115387.44  152.12
   0   0  -3    5.64    2.84
   0   0   3    2.58    7.24
   0   0  -3    5.19    4.28
  -1  -2   188306.22 1035.68
   0   0   3    4.01    2.75
  -1   2   189248.42 1022.66
   1   2  -189489.26 1062.59
   1  -2  -189114.80 1049.51
   1  -2  -189895.37 1030.96
  -1  -2   188018.16 1036.19
   1   2  -188890.65 1045.71
  -1   2   187731.76 1032.10
   1   1   2 6230.58   60.73
   1  -1   2 6171.14   59.92
   1   1   2 6296.84   60.56
   1  -1   2 6428.22   59.83
  -1  -1  -2 6258.19   60.53
  -1   1  -2 6095.92   64.30
  -1   1  -2 6277.25   58.02
  -1  -1  -2 6321.36   61.31
  -2   1   020689.74  196.08
  -2  -1   020843.23  214.35
   2  -1   021042.22  218.29
  -2  -1   020609.28  207.98
  -2   1   020891.45  216.03
   2   1   020862.39  218.20
   2   1   021019.61  216.68
   2  -1   021319.45  206.23
  -1   1   3 1705.82   17.36
  -1  -1   3 1689.31   21.11
  -1   1   3 1669.58   23.73
  -1  -1   3 1699.24   15.14
   1  -1  -3 1654.56   18.83
   1  -1  -3 1647.42   17.05
   1   1  -3 1657.18   20.54
  -2  -1   2 8730.82   86.37
  -2   1   2 8784.84   86.55
   2  -1  -2 8508.12   78.52
   2  -1  -2 8686.43   85.16
  -2  -1   2 8874.03   80.26
  -2   1   2 8810.51   81.40
   2   1  -2 8702.45   80.89
   2   1  -2 8540.47   90.77
  -2   0  -1   -2.05    4.97
   2   0   1    2.95    5.49
   2   0   1    8.14    4.67
  -2   0  -1    4.35    4.00
   1  -2   1  251.22    3.68
  -1  -2  -1  235.00    8.66
   1  -2   1  241.85    7.82
   1   2   1  253.23   13.99
  -1  -2  -1  244.87    8.29
   1  -2   1  245.54    3.26
   1   2   1  255.03    8.51
   1  -2   1  265.06    9.04
   0   1  -3 1803.92   21.26
   0   1   3 1829.00   26.65
   0  -1   3 1862.16   21.19
   0  -1  -3 1846.49   18.87
   0  -1  -3 1838.24   25.83
   0   1  -3 1860.54   19.63
   0  -1   3 1843.74   19.53
   0   1   3 1858.43   22.30
   0  -2  -2 1050.93   14.22
   0   2  -2 1064.18   12.95
   0  -2   2 1014.25   14.84
   0   2   2 1096.67   18.84
   0  -2   2 1078.05   13.16
   0   2   2 1045.00   13.98
   0  -2  -2 1030.39   17.96
   0   2  -2 1004.87   14.90
  -1   2   2 129677.   1610.
  -1  -2   2 125978.   1579.
  -1   2   2 128979.   1615.
  -1  -2   2 130001.   1619.
   1   2  -2 126819.   1572.
   1   2  -2 126170.   1576.
   1  -2  -2 126731.   1577.
   1  -2  -2 127859.   1578.
  -2   0   3    5.16    1.54
  -2   0   3    1.73    5.22
   2   0  -3   -2.22    0.92
   2   0  -3   -2.60    4.76
   2  -1   1 4357.61   42.55
   2  -1   1 4319.55   44.84
   2   1   1 4321.39   44.61
  -2   1  -1 4233.49   50.32
   2   1   1 4279.27   44.23
  -2   1  -1 4343.44   41.17
  -2  -1  -1 4197.83   49.51
  -2  -1  -1 4278.79   49.75
  -1   0  -3    8.48    4.43
  -1   0  -3   -0.45    7.39
   1   0   3    3.43    6.56
   1   0   3   -2.75    3.91
  -2  -1   3  410.82   11.00
  -2  -1   3  420.52    7.35
  -2   1   3  387.31   12.26
   2   1  -3  391.54   16.67
  -2   1   3  396.28   14.12
   2  -1  -3  384.38    7.66
   2  -1  -3  395.45    6.05
   2   2  -112725.36  123.49
  -2   2   112900.86  114.56
   2  -2  -112515.75  129.62
   2   2  -112421.75  124.49
  -2  -2   112700.66  127.53
   2  -2  -112734.58  123.43
  -2  -2   112792.91  124.64
  -1   2  -2 6093.63   52.75
   1   2   2 5992.42   64.47
  -1   2  -2 6088.07   65.64
   1   2   2 5989.42   65.82
  -1  -2  -2 5952.07   59.34
   1  -2   2 5961.99   59.76
  -1  -2  -2 6029.25   60.07
   1  -2   2 6111.12   53.68
  -1   0   4   10.03    1.65
   1   0  -4   11.44    1.84
  -1   0   4    3.27    8.14
   1   0  -4   15.05    5.02
   2  -2   047285.32  483.80
   2   2   047070.11  516.28
  -2   2   046522.05  513.80
  -2  -2   046674.83  511.69
   2   2   046725.83  524.01
   2  -2   046222.22  511.58
  -2  -2   047047.87  519.72
  -2   0  -2 9056.10   87.59
   2   0   2 9074.38   87.64
  -2   0  -2 9048.10   90.09
   2   0   2 8931.14   89.39
  -1  -1  -3 1401.64   18.30
  -1   1  -3 1407.71   17.52
   1  -1   3 1377.52   15.72
   1  -1   3 1430.91   22.72
   1   1   3 1405.15   18.63
   1   1   3 1398.17   22.48
  -1   1  -3 1399.03   15.62
  -1  -1  -3 1367.69   17.48
   1   2  -344125.74  466.32
  -1  -2   344297.09  489.36
  -1   2   344850.17  483.89
   1  -2  -345157.52  485.84
  -1   2   345087.20  483.18
  -1  -2   345519.67  481.52
   1   2  -343836.09  477.04
   1  -2  -344424.08  479.47
  -2  -2   2 8110.25   76.40
  -2   2   2 8062.53   75.86
   2  -2  -2 8056.32   80.31
  -2   2   2 8001.19   71.54
   2   2  -2 8087.83   75.82
   2  -2  -2 8074.55   78.64
  -2  -2   2 8176.64   82.14
   2   2  -2 8033.03   80.52
   0   3   0    2.17    4.04
   0  -3   0   -0.47    2.56
   0  -3   0    3.75    6.76
   0  -2   3   28.04    5.49
   0  -2   3   29.85    3.70
   0  -2   3   24.76    4.26
   0  -2  -3   29.73    8.78
   0  -2   3   32.02    4.16
   0  -2  -3   25.39    7.99
   0   2   3   32.56    4.75
   0   2   3   28.22    9.13
   0   0   4 2950.48   31.30
   0   0  -4 2967.32   27.47
   0   0  -4 2947.83   31.20
   0   0   4 2932.77   26.98
   3   0  -1    2.38    4.84
  -3   0   1   -4.66    4.56
  -3   0   1    2.08    7.62
   3   0  -1    8.07    4.76
  -1   1   4 4666.36   41.47
  -1  -1   4 4657.90   38.44
   1  -1  -4 4529.60   40.86
  -1  -1   4 4660.21   37.98
   1  -1  -4 4551.14   50.68
  -1  -1   4 4540.20   45.30
  -1  -1   4 4571.28   47.37
  -1   1   4 4447.09   45.21
   0  -3  -1 1871.01   27.73
   0   3   1 1832.95   22.01
   0  -3   1 1836.88   21.76
   0   3   1 1848.96   19.54
   0   3  -1 1845.01   21.46
   0  -3  -1 1849.14   22.58
   0  -3   1 1880.77   18.10
   0   3  -1 1856.94   20.34
   3   0  -246685.52  506.56
   3   0  -246668.97  520.24
  -3   0   246746.83  506.54
  -3   0   246436.73  517.98
   2   1   238129.62  420.32
  -2   1  -238606.90  418.91
  -2  -1  -238666.67  419.22
   2  -1   239033.09  409.12
   2   1   238878.58  420.39
  -2  -1  -238682.90  418.37
  -2   1  -239258.53  414.94
   2  -1   238790.99  421.24
  -2   0   4   41.39    9.60
   2   0  -4   41.95    0.99
   2   0  -4   45.21    1.04
  -2   0   4   45.76    6.89
  -2   2  -1  149.76    8.77
  -2  -2  -1  161.24   13.57
  -2  -2  -1  175.63   13.90
   2   2   1  165.32   14.56
   2   2   1  177.51    8.31
   2  -2   1  173.76    8.69
   2  -2   1  162.45    4.35
   1   3   015997.83  164.60
   1  -3   016242.07  143.31
  -1  -3   016163.99  168.05
   1  -3   016100.83  161.44
  -1  -3   016398.95  162.78
   1   3   015947.88  160.49
  -1   3   016139.58  161.99
  -1   3   016063.36  142.99
   1   3  -117366.85  174.00
   1   3  -117094.93  169.88
   1  -3  -117490.90  161.19
  -1   3   117520.91  164.56
  -1  -3   117410.09  174.50
   1  -3  -117425.70  175.58
  -1  -3   117663.71  175.25
  -1   3   117204.89  173.27
  -3   0   0   81.23    7.51
  -3   0   0   81.52   10.58
   3   0   0   97.62    6.69
   3   0   0   78.40    7.58
   0   1  -436287.88  376.80
   0  -1  -436528.27  398.13
   0  -1   437047.99  398.78
   0   1   437215.74  392.32
   0   1  -436497.13  387.45
   0  -1   437374.36  391.50
   0   1   437176.65  400.02
   0  -1  -436891.40  389.04
  -3  -1   1 7954.45   87.23
  -3   1   1 7960.10   78.90
   3  -1  -1 8046.68   75.96
  -3   1   1 7979.51   79.05
   3   1  -1 8028.27   84.49
  -3  -1   1 7839.07   77.38
   3  -1  -1 7989.48   79.51
   3   1  -1 8023.97   87.70
   3  -1  -223164.65  240.39
   3  -1  -223485.00  242.43
  -3  -1   222972.75  240.30
   3   1  -223385.83  243.70
  -3  -1   223439.65  236.63
   3   1  -223523.68  241.70
  -3   1   223496.36  237.94
  -3   1   223424.63  238.16
   2  -2  -3 2451.50   24.79
  -2   2   3 2442.54   24.41
  -2  -2   3 2481.70   35.15
   2  -2  -3 2444.19   27.71
   2   2  -3 2388.55   34.04
   2   2  -3 2383.83   25.12
  -2   2   3 2392.23   27.62
  -2  -2   3 2433.96   26.28
  -2  -1   4 1118.92   17.69
   2   1  -4 1065.19   16.93
  -2   1   4 1116.10   15.24
  -2   1   4 1126.86   16.69
  -2  -1   4 1132.12    9.94
   2  -1  -4 1112.60   11.80
   1   3   1  674.25   12.71
   1  -3   1  688.12   13.33
   1  -3   1  692.93    6.10
  -1  -3  -1  663.24   11.74
   1   3   1  655.71   12.20
   1  -3   1  695.16    6.31
  -1  -3  -1  666.18   12.76
   1  -3   1  653.01   16.85
  -3   0   3    3.20    2.86
   3   0  -3    2.81    5.03
  -3   0   3    1.61    8.37
   3   0  -3    3.04    4.54
   3  -1   018566.12  191.56
   3   1   018755.33  199.18
   3   1   018528.91  190.26
  -3  -1   018744.54  192.69
  -3   1   019041.56  186.32
  -3   1   018423.16  189.76
  -3  -1   018315.82  187.82
   3  -1   018844.90  188.47
   0   3  -2  373.89   12.76
   0  -3  -2  374.66   11.73
   0  -3   2  361.93    8.59
   0   3   2  349.38    8.12
   0   3   2  339.73   14.04
   0   3  -2  371.53    6.38
   0  -3   2  362.75    5.95
   0  -3  -2  352.41    9.43
  -1  -3   213793.88  135.27
  -1   3   213602.02  135.22
   1   3  -213461.82  136.92
   1   3  -213459.37  136.42
   1  -3  -213856.84  132.65
  -1   3   213427.11  129.88
   1  -3  -213565.19  134.73
  -1  -3   213636.36  133.95
   1  -2   3 9700.48   91.30
  -1  -2  -3 9573.38   95.11
   1   2   3 9658.65   95.77
   1  -2   3 9870.69   97.74
   1   2   3 9520.26   95.99
  -1  -2  -3 9553.63  100.71
  -1   2  -3 9261.41   97.25
  -1   2  -3 9769.90   91.85
  -3   1   3 9490.29   98.52
  -3   1   3 9514.92   90.20
  -3  -1   3 9462.24   90.89
   3  -1  -3 9394.64   96.84
   3   1  -3 9333.12   86.23
  -3  -1   3 9397.74   96.56
   3   1  -3 9273.01   94.95
   3  -1  -3 9310.40   91.22
  -3   0  -1   11.34    8.07
   3   0   1   -1.17    5.08
  -3   0  -1    6.82   10.28
   3   0   1    0.56    6.79
   1   0   4 9482.92   94.03
  -1   0  -4 9445.89   92.08
   1   0   4 9640.04   98.32
  -1   0  -4 9490.23   93.92
  -1  -2   4 1258.46   13.46
  -1  -2   4 1260.23   12.97
  -1  -2   4 1264.02   16.31
  -1  -2   4 1290.72   17.55
  -1   2   4 1257.03   17.29
   1  -2  -4 1264.84   21.01
   1  -2  -4 1222.57   14.09
  -1   2   4 1247.09   16.56
   2   0   3   -5.69    4.55
  -2   0  -3    2.44    4.13
   2   0   3   -0.76    8.66
  -2   0  -3    1.47    4.95
  -2  -2  -2 8806.83   89.87
  -2  -2  -2 8921.59   96.95
  -2   2  -2 8947.73   80.66
   2  -2   2 8811.44   96.39
   2   2   2 8941.60   91.56
  -2   2  -2 8875.76   90.91
   2   2   2 8787.43   89.47
   2  -2   2 8923.65   81.19
   2   3  -131854.60  338.79
  -2  -3   132065.11  346.96
   2  -3  -131829.68  338.90
   2   3  -132003.55  343.29
  -2  -3   132013.42  343.54
  -2   3   131978.79  312.42
   2  -3  -131502.14  346.03
  -3   1  -115715.87  156.06
  -3  -1  -115404.70  164.92
   3   1   115425.18  164.35
   3  -1   115892.30  154.63
  -3  -1  -115456.14  158.60
   3   1   115353.74  158.60
  -3   1  -115346.84  165.15
   3  -1   115262.62  158.58
   0   2   4  437.81    8.46
   0  -2   4  421.36    7.85
   0  -2   4  426.90    8.89
   0   2   4  418.88   15.35
   0  -2  -4  431.02    8.83
   0  -2  -4  395.79   10.06
   0  -2   4  429.01   11.04
   0  -2   4  449.92   10.02
  -1   0   5    2.24    1.98
  -1   0   5    0.54    4.63
   1   0  -5    0.20    7.49
   1   0  -5    1.86    2.09
  -1   1  -4 5982.63   58.37
  -1  -1  -4 5816.33   57.97
  -1   1  -4 5821.86   62.03
   1   1   4 5936.78   61.00
   1   1   4 6046.64   64.45
   1  -1   4 5971.79   62.60
   1  -1   4 6079.60   64.51
  -1  -1  -4 5889.50   65.47
  -3   2   1  210.38    8.80
  -3   2   1  218.24    4.68
   1  -3   219850.12  206.99
  -3  -2   1  246.91   15.85
   3   2  -1  208.70    8.22
  -1  -3  -219957.52  210.41
   1  -3   220296.55  191.55
  -3  -2   1  219.35    8.47
   3   2  -1  227.86    9.87
   1  -3   220499.11  191.46
   1   3   219761.35  210.16
   1  -3   219918.76  203.94
  -1  -3  -219860.11  205.11
   3  -2  -1  208.81    6.83
   3  -2  -1  229.25   13.84
   1   3   219963.25  206.08
  -2  -3   0 5754.84   59.44
   2   3   0 5766.15   60.29
  -2  -3   0 5834.23   60.86
   2  -3   0 5775.28   64.07
   2   3   0 5643.81   57.93
   2  -3   0 5671.69   60.37
  -2  -1  -3 2904.49   33.22
  -2   1  -3 2915.41   38.63
   2   1   3 2913.77   33.24
  -2   1  -3 2898.73   29.45
   2  -1   3 2892.93   33.24
   2  -1   3 2928.75   29.89
   2   1   3 2884.80   32.79
  -2  -1  -3 2932.14   38.26
  -3   2   2  301.98    8.97
   3   2  -2  288.17   10.74
  -3  -2   2  284.52   16.38
  -3   2   2  288.64    8.71
  -3  -2   2  286.93   12.17
   3   2  -2  277.68    7.73
   3  -2  -2  275.29    8.86
   3  -2  -2  291.38    8.88
  -3   0   436315.47  367.92
   3   0  -435581.13  393.13
  -3   0   434929.17  381.91
   3   0  -434791.60  353.87
   1   3  -3 1193.40   14.66
   1  -3  -3 1180.34   18.16
  -1  -3   3 1207.13   16.36
   1   3  -3 1153.45   15.56
  -1   3   3 1137.91   14.42
   1  -3  -3 1199.58   20.47
  -1  -3   3 1204.38   14.86
  -1   3   3 1211.42   16.12
   2   3  -2 4366.50   44.15
   2  -3  -2 4402.93   40.23
  -2  -3   2 4415.83   49.32
  -2  -3   2 4291.71   46.19
   2  -3  -2 4393.07   44.98
  -2   3   2 4382.77   40.35
   2   3  -2 4383.02   52.44
  -2   3   2 4362.75   44.69
   2   2  -413350.15  124.84
   2  -2  -413335.14  131.81
  -2  -2   413310.33  137.15
   2  -2  -413302.15  126.48
  -2   2   412798.70  131.08
  -2   2   413523.86  131.11
   2   2  -413422.78  143.25
  -2  -2   413893.32  127.76
   0  -3   3  760.72   12.75
   0  -3  -3  761.82   16.65
   0  -3   3  782.82   15.88
   0  -3   3  726.14    9.35
   0   3   3  756.65   12.60
   0  -3   3  766.53   13.36
   0   3   3  720.03   12.38
   0  -3  -3  741.21   12.76
  -3  -2   0 1213.12   19.35
   3   2   0 1192.67   19.18
  -3   2   0 1176.12   13.52
   3  -2   0 1192.33   24.64
   3  -2   0 1204.16   14.14
   3   2   0 1164.13   17.63
  -3   2   0 1188.36   18.34
  -3  -2   0 1189.58   17.87
  -1   1   5  779.33   10.24
   1  -1  -5  776.23    8.58
  -1   1   5  781.20   13.41
  -1  -1   5  818.40   14.96
  -1  -1   5  774.88   13.02
  -1  -1   5  797.83    9.25
   1  -1  -5  816.57   19.11
  -1  -1   5  793.99    8.49
  -2   0   5    8.35    8.08
  -2   0   5    2.88    5.68
   0   0   5   46.41    8.92
   0   0   5    4.20    5.37
   0   0  -5   -3.66    4.33
   0   0  -5    1.91    4.27
  -3   1   4 6452.98   64.26
   3   1  -4 6592.51   69.46
  -3  -1   4 6459.21   68.77
  -3   1   4 6531.32   67.08
   3   1  -4 6497.61   56.46
   3  -1  -4 6433.29   58.59
  -3  -1   4 6655.26   60.22
   3  -1  -4 6447.89   59.52
   2   3   1 1657.38   27.72
  -2  -3  -1 1642.27   22.45
   2  -3   1 1708.10   29.80
   2   3   1 1661.51   22.68
  -2  -3  -1 1654.57   22.25
   2  -3   1 1613.14   21.01
  -3  -2   3 2860.51   28.86
   3   2  -3 2801.38   33.79
   3  -2  -3 2809.97   28.80
  -3   2   3 2782.01   29.12
   3  -2  -3 2807.18   30.19
  -3  -2   3 2901.75   34.63
   3   2  -3 2793.16   28.07
  -3   2   3 2778.01   27.67
  -2  -1   513840.61  145.68
  -2  -1   514878.12  123.50
   2  -1  -514253.24  145.18
  -2  -1   514048.13  148.93
   2  -1  -514382.62  130.55
  -2  -1   514816.10  123.14
  -2   1   513953.61  142.28
  -2   1   514743.19  132.99
  -3   0  -221647.37  236.53
   3   0   222045.19  228.29
   3   0   221457.14  227.62
  -3   0  -221918.39  231.50
   0   1  -5 3181.85   33.38
   0   1   5 3316.94   35.10
   0  -1   5 3367.00   31.76
   0  -1  -5 3297.12   41.71
   0  -1  -5 3173.60   34.34
   0   1  -5 3279.49   34.92
   0   1   5 3217.93   36.19
   0  -1   5 3216.33   38.94
   2  -3  -3  150.43    6.50
  -2  -3   3  117.39    8.25
  -2   3   3  117.65    4.86
   2   3  -3  135.60    8.73
   2   3  -3  139.16   12.89
  -2  -3   3  124.31    5.90
  -2   3   3  119.86    9.91
   2  -3  -3  127.94    4.72
   0   4   0 5381.11   61.64
   0  -4   0 5431.30   50.43
   0  -4   0 5295.46   55.69
  -3  -2  -1  417.36   17.10
  -3  -2  -1  408.83   12.15
   3  -2   1  422.36    8.65
  -3   2  -1  413.10   11.89
   3  -2   1  429.03   17.80
   3   2   1  425.66   12.38
   3   2   1  391.73   17.12
  -3   2  -1  397.90    7.60
  -1   2  -4   64.33    7.09
   1   2   4   72.50   12.09
  -1  -2  -4   63.57    7.04
   1  -2   4   56.23    4.18
  -1   2  -4   63.80    6.09
   1   2   4   69.30    6.12
  -1  -2  -4   73.37   10.47
   1  -2   4   61.09    6.22
  -3   1  -2 1993.96   26.31
  -3  -1  -2 1965.62   25.03
   3  -1   2 1978.82   22.09
   3   1   2 1962.89   26.42
  -3  -1  -2 1938.94   25.80
   3   1   2 1978.77   25.62
   3  -1   2 2016.67   26.57
  -3   1  -2 1934.23   21.44
   0  -4   1   81.51    6.59
   0   4  -1   94.36    7.03
   0  -4  -1   72.99    7.67
   0   4  -1   96.61    4.15
   0  -4   1   73.85    7.14
   0   4   1  100.10    8.40
   0  -4  -1   84.92    7.68
   0   4   1   76.40    7.39
  -2  -2  -3 4590.00   55.92
  -2   2  -3 4579.72   42.09
   2  -2   3 4600.36   42.71
   2   2   3 4591.21   55.55
  -2   2  -3 4567.54   55.31
   2  -2   3 4537.04   48.90
   2   2   3 4515.91   49.75
  -2  -2  -3 4462.28   48.51
   4   0  -2 2178.15   25.75
  -4   0   2 2130.33   26.68
   4   0  -2 2121.40   32.14
  -4   0   2 2128.72   25.19
   1  -3   3 7738.83   77.65
  -1  -3  -3 7743.03   85.77
   1   3   3 7724.07   86.02
   1  -3   3 8035.48   75.29
   1   3   3 7699.96   78.93
   1  -3   3 7748.32   71.44
  -1  -3  -3 7669.73   78.65
   1  -3   3 7729.67   85.79
  -4   0   1    0.96    4.76
  -4   0   1    3.12    8.05
   4   0  -1    4.36    5.24
   4   0  -1    0.76    8.21
  -1  -4   0 2152.86   26.59
   1   4   0 2151.05   26.58
  -1  -4   0 2182.80   29.39
  -1   4   0 2118.18   26.16
   1  -4   0 2100.12   18.79
   1   4   0 2056.82   29.06
  -1   4   0 2094.46   19.31
   1  -4   0 2116.13   25.97
   1   4  -1  701.92   11.67
   1  -4  -1  704.24   13.45
  -1  -4   1  688.23   13.37
  -1  -4   1  733.25   11.77
   1   4  -1  709.89   18.15
  -1   4   1  721.20   13.47
   1  -4  -1  706.66    9.72
  -1   4   1  690.21   10.57
  -1  -2   5 1249.05   15.71
  -1   2   5 1262.75   17.93
  -1  -2   5 1254.43   14.67
  -1  -2   5 1227.62   23.92
  -1   2   5 1275.64   14.36
   1  -2  -5 1204.42   13.96
  -1  -2   5 1219.89   16.92
   1  -2  -5 1237.01   17.48
   1   3  -437054.81  410.01
   1  -3  -437717.30  408.10
  -1  -3   439511.08  432.54
  -1   3   439337.62  432.30
   1  -3  -439092.23  423.04
  -1  -3   439424.83  425.17
  -1   3   438612.55  421.35
   1   3  -437978.72  405.51
   3   0  -5   -1.54    1.15
   3   0  -5   11.15    1.47
  -3   0   5   -2.92    9.88
   2   0   413018.21  132.58
  -2   0  -412702.77  136.57
   2   0   413079.63  134.64
  -3   0   5    7.12    5.09
  -2   0  -413031.91  132.16
  -4  -1   2  155.83    9.46
   4  -1  -2  152.82   11.07
   4   1  -2  164.63    9.59
   4   1  -2  132.83    7.36
   4  -1  -2  133.43    7.73
  -4   1   2  162.58   12.17
  -4   1   2  158.94   11.02
  -4  -1   2  152.72    7.65
   2   3   2 5999.54   64.45
   2  -3   2 6194.56   52.10
  -2  -3  -2 5894.54   63.06
   4   0  -3    5.15    4.00
  -2  -3  -2 6015.87   63.62
  -4   0   3   18.11    6.96
   2   3   2 6025.70   64.02
   4   0  -3    5.49    5.64
  -2   3  -2 5829.45   62.94
  -4   0   3    6.80   10.07
   2  -3   2 6025.46   64.98
   3  -2  -4 4612.80   45.28
  -3  -2   4 4643.79   52.06
   3  -2  -4 4561.05   43.54
   3   2  -4 4606.32   58.21
  -3   2   4 4688.80   53.27
  -3   2   4 4562.35   45.84
   3   2  -4 4615.06   42.31
  -3  -2   4 4706.65   46.17
  -4   1   1  987.06   22.15
   4  -1  -1  985.05   14.24
  -4  -1   1 1007.71   16.34
  -4  -1   1  932.65   17.22
  -4   1   1  977.16   14.26
   4  -1  -1  981.85   16.66
   4   1  -1 1041.52   24.26
   4   1  -1  991.76   16.41
  -1   0  -5   -2.45    6.22
   1   0   5    1.98    4.76
   1   0   5    2.32    3.98
  -1   0  -5    0.61    3.33
  -1   4  -1  212.81    8.88
   1  -4   1  214.01   13.68
   1   4   1  223.76    9.28
   1   4   1  228.46    8.47
  -1   4  -1  216.86    4.14
  -1  -4  -1  203.91   14.90
   1  -4   1  224.93    4.13
  -1  -4  -1  214.60    8.07
  -4   0   0  922.73   16.86
  -4   0   0  922.43   20.59
   4   0   0  907.26   15.17
   4   0   0  889.83   16.32
   0   4   215598.34  162.13
   0  -3  -4    2.41    4.61
   0   3   4    1.30    7.01
   0  -3   4    0.43    6.51
   0   4   215576.73  157.01
   0   4  -215362.31  158.20
   0  -3   4    1.86    3.36
   0  -3  -4    4.66    4.74
   0   4  -215844.77  155.31
   0  -4  -215516.47  154.78
   0   3   4   -2.51    4.84
   0  -3   4    7.96    4.76
   0  -4   216081.65  154.47
   0  -3   4    4.00    5.45
   0  -4   215748.57  167.11
   0  -4  -215551.91  161.45
   2   2  -5 3085.10   26.46
   2   2  -5 3181.67   37.00
  -2  -2   5 3089.72   27.95
   2  -2  -5 3156.58   39.09
   2  -2  -5 3081.91   31.49
  -2   2   5 3146.13   29.30
  -2   2   5 3026.32   33.35
  -2  -2   5 3132.36   43.33
   3  -3  -1 5471.22   59.85
  -3   3   1 5601.85   47.31
   3   3  -1 5542.44   58.21
  -3  -3   1 5425.15   63.05
   3  -3  -1 5544.94   63.07
   3   3  -1 5652.36   61.59
  -3  -3   1 5553.32   68.08
  -1  -4   2 8921.54   88.34
  -1   4   2 8879.25   96.20
  -1   4   2 8789.02   82.92
   1  -4  -2 8862.78   91.34
   1  -4  -2 9043.22   84.54
  -1  -4   2 8867.97   95.31
   1   4  -2 8926.54   90.78
   1   4  -2 8813.33   87.23
   0   2  -5   54.48    4.66
   0  -2  -5   58.44    6.96
   0   2   5   53.05    5.02
   0  -2   5   56.09    4.43
   0  -2  -5   58.92    5.22
   0  -2   5   63.71    5.43
   0   2   5   77.44    7.36
  -2   1  -4   15.37    9.87
   3  -1  -5  345.32    6.56
  -3   1   5  328.49    9.45
  -2  -1  -4   17.19    6.31
   3   1  -5  341.09   11.87
   3  -1  -5  341.53    6.19
   2   1   4   15.24    6.17
  -2   1  -4   20.06    4.56
  -3   1   5  344.03   11.18
  -2  -1  -4   24.04   10.10
  -3  -1   5  346.18    4.96
  -3  -1   5  359.74   11.98
   2   1   4   23.72    6.36
   2  -1   4   15.59   10.02
   2  -1   4   14.88    4.84
  -3   3   2 9073.06   83.29
   3  -3  -2 9079.82   91.72
  -3   3   2 9095.78   84.97
   3   3  -2 9132.23   96.47
   3  -3  -2 9092.51   94.85
   3   3  -2 8965.15  102.01
  -3  -3   2 9141.35   96.96
  -3  -3   2 9190.42   97.81
   4  -1  -3 2637.23   35.03
  -4   1   3 2660.73   28.98
  -4   1   3 2597.16   29.88
  -4  -1   3 2619.59   39.72
  -4  -1   3 2634.50   32.33
   4  -1  -3 2576.10   32.68
   4   1  -3 2598.73   27.79
   4   1  -3 2639.92   32.80
  -2  -3   421402.35  233.35
   2   3  -420893.85  228.07
   2  -3  -421711.11  225.48
  -2  -3   421510.43  216.01
  -2   3   421218.94  216.96
  -2   3   421447.73  223.35
   2  -3  -421278.48  222.32
   2   3  -421436.13  218.47
   1  -1   5 7727.03   82.53
  -1   1  -5 7808.75   82.45
   1   1   5 7938.58   83.53
  -1  -1  -5 7647.30   79.52
  -1  -1  -5 7691.77   82.19
   1  -1   5 7815.54   78.03
   1   1   5 7645.12   86.23
  -1   1  -5 7627.80   80.73
   4  -1   018578.82  188.15
   4   1   018436.89  194.66
  -1   0   6  845.94    8.19
  -4  -1   018248.14  200.10
  -4   1   018218.47  184.83
   1   0  -6  829.21    9.67
   4   1   017957.11  197.19
  -1   0   6  864.25   15.10
  -4   1   018266.20  193.58
   4  -1   018053.84  191.99
   1   0  -6  823.64   20.44
  -4  -1   018436.64  195.09
   3  -3   0 2502.14   31.76
   3  -3   0 2575.14   20.73
   3   3   0 2569.75   40.16
  -3  -3   0 2587.56   31.90
  -3  -3   0 2513.88   32.46
   3   3   0 2568.85   30.97
  -3   3   0 2595.42   32.02
  -3  -2  -2  853.27   22.77
   3  -2   2  884.62   13.69
   3   2   2  907.38   17.23
  -3  -2  -2  891.05   16.71
   3   2   2  858.21   16.28
  -3   2  -2  852.56   10.09
  -3   2  -2  836.11   23.23
   3  -2   2  889.17   17.01
   3   0   3    5.83    5.85
  -3   0  -3   35.77    5.69
  -3   0  -3   -0.81    7.13
   3   0   3    0.40    4.96
  -2   0   6 3601.11   40.18
  -2   0   6 3551.22   49.12
  -4   0   4 1520.45   16.73
  -4   0   4 1520.41   22.17
   4   0  -4 1472.06   16.36
   4   0  -4 1520.62   22.33
  -2   4   1    9.68    2.09
   2   4  -1    1.56    4.93
   2  -4  -1    3.75    4.71
  -2  -4   1   13.92    9.62
   2  -4  -1   -3.94    5.35
  -2  -4   1   15.83    5.95
  -3  -3   3 6920.46   69.14
   3   3  -3 6883.29   74.16
  -3  -3   3 6960.50   81.69
   3  -3  -3 6740.83   72.40
  -3   3   3 6835.45   65.34
  -3   3   3 6755.68   65.62
   3   3  -3 6826.26   71.27
   3  -3  -3 6938.88   72.07
   1  -1  -6 2759.35   32.58
   1   1  -6 2745.35   23.79
  -1  -1   6 2780.98   25.41
  -1   1   6 2871.72   27.65
   1  -1  -6 2737.45   25.10
  -1  -1   6 2802.24   32.47
  -1   1   6 2790.90   32.85
  -1  -4  -2  377.27   15.12
   1   4   2  398.74   11.53
   1  -4   2  415.61    6.40
   1   4   2  404.17   10.88
   1  -4   2  403.89   10.72
   1  -4   2  415.93    5.75
  -1  -4  -2  421.78   11.74
   1  -4   2  411.04   17.62
   2  -4   0 9770.28  104.51
   2   4   0 9844.39  109.16
  -2  -4   0 9954.56  103.53
   2   4   0 9803.53  102.09
   2  -4   0 9730.46  101.21
  -2  -4   0 9857.02  109.47
  -4   0  -1    3.30    8.07
   4   0   1    0.47    4.76
   4   0   1    2.42    5.80
  -4   0  -1    3.11    6.21
  -4  -2   2 6969.28   76.91
  -4  -2   2 6951.58   76.10
   4  -2  -2 7014.93   71.36
  -4   2   2 6836.75   72.11
   4   2  -2 6757.71   81.71
   4   2  -2 6980.50   72.03
  -4   2   2 6896.20   70.17
   4  -2  -2 6983.88   79.13
  -3  -1  -3 5275.53   56.98
   3  -1   3 5328.11   58.41
   3   1   3 5303.88   58.72
  -3   1  -3 5271.58   58.33
   3  -1   3 5275.46   65.57
   3   1   3 5401.07   65.11
  -3   1  -3 5241.91   52.69
  -3  -1  -3 5229.88   64.61
  -2   1   628082.47  272.01
  -2   1   627337.72  294.57
  -2  -1   627257.94  293.47
   2  -1  -627775.69  271.43
  -2  -1   626683.76  292.80
   2  -1  -627452.13  296.09
   4  -2  -1 5156.16   49.02
   4   2  -1 5009.94   59.55
  -4  -2   1 5019.01   54.37
  -4   2   1 4961.97   47.49
  -4   2   1 5077.01   55.66
   4  -2  -1 5020.06   55.31
  -4  -2   1 4957.23   63.34
   4   2  -1 5049.41   56.97
   1  -4  -3 7855.46   86.55
  -1  -4   3 8157.24   85.81
   1   4  -3 7858.57   78.53
   1  -4  -3 7998.76   80.90
  -1   4   3 7844.09   77.18
  -1   4   3 8067.85   88.20
   1   4  -3 7945.24   80.28
  -1  -4   3 8013.49   85.83
  -4   1   4 2228.09   27.53
  -4  -1   4 2177.42   25.67
   4  -1  -4 2136.07   23.08
   0   0  -615046.66  156.89
  -4  -1   4 2215.86   36.77
   0   0   615797.59  157.09
   4   1  -4 2151.44   29.08
   0   0  -615610.08  155.41
   4   1  -4 2186.67   24.98
   0   0   615655.38  163.61
   4  -1  -4 2194.53   26.87
  -4   1   4 2210.05   23.77
   2   4  -2  484.73   10.93
  -2   4   2  475.93    6.39
   2  -4  -2  478.32    7.91
  -2  -4   2  510.23   15.95
   2  -4  -2  496.40   16.36
  -2   4   2  494.43   11.47
  -2  -4   2  508.68   17.54
   2   4  -2  455.59   11.39
   0   4   3 1143.04   16.53
   0   4  -3 1136.99   16.28
   0  -4  -3 1175.22   17.98
   0  -4   3 1157.33   21.63
   0   4  -3 1155.87   16.43
   0  -4  -3 1180.44   16.34
   0   4   3 1177.88   17.71
   0  -4   3 1192.79   13.94
  -3   3  -1 2407.58   31.71
   3   3   1 2508.46   37.45
   3  -3   1 2532.27   21.45
  -3  -3  -1 2455.33   31.17
   3  -3   1 2442.11   31.68
   3   3   1 2477.23   32.39
  -3  -3  -1 2516.65   32.28
   1  -3   418280.38  182.09
  -1  -3  -417926.59  194.75
   1   3   417994.07  190.75
   1  -3   417930.70  184.90
  -1  -3  -417628.32  185.08
   1  -3   418009.26  194.88
   1   3   418035.54  189.12
   1  -3   418866.28  190.37
  -2  -3  -3 1698.25   30.49
  -2   3  -3 1629.55   29.53
   2  -3   3 1657.51   17.22
  -2  -3  -3 1634.85   23.45
  -2   3  -3 1648.30   17.02
   2   3   3 1669.45   23.29
   2   3   3 1665.32   31.16
   2  -3   3 1659.61   30.07
  -2   2  -4 7461.74   79.09
  -2   2  -4 7545.59   72.78
  -2  -2  -4 7670.14   87.60
  -3  -2   5  877.47   11.51
   2  -2   4 7735.29   75.02
  -2  -2  -4 7500.77   79.30
   2  -2   4 7808.49   82.25
  -3   2   5  898.70   15.21
   3  -2  -5  869.83   10.56
   3   2  -5  887.26   17.19
   3   2  -5  860.51   10.58
   2   2   4 7627.79   81.90
   2   2   4 7814.32   82.33
   3  -2  -5  820.87   13.88
  -3  -2   5  884.14   17.35
  -3   2   5  871.43   17.79
   4   1   1 6897.26   74.25
   4  -1   1 6850.30   74.89
  -4   1  -1 6834.46   81.59
   4  -1   1 6895.20   69.04
  -4  -1  -1 6829.19   74.38
  -4  -1  -1 6884.94   73.86
   4   1   1 6681.85   79.47
  -4   1  -1 6743.20   67.43
  -4   2   3 3453.61   42.65
  -4  -2   3 3412.79   40.47
  -4   2   3 3449.65   36.03
   4   2  -3 3399.36   41.10
   4   2  -3 3423.54   39.83
   4  -2  -3 3470.32   38.09
   4  -2  -3 3452.39   35.85
  -4  -2   3 3399.64   41.41
   0   1  -6 3900.48   42.31
   0   1   6 3776.51   48.82
   0  -1  -6 3790.56   42.73
   0   1  -6 3757.81   39.51
   0  -1   6 3860.75   37.24
   0  -1  -6 3779.42   37.61
   0  -1   6 3831.77   46.85
   0   1   6 3870.81   41.38
  -1   2  -5  912.30   16.56
   1  -2   5  920.94   13.17
  -1  -2  -5  897.44   16.18
  -1   2  -5  908.75   19.02
   1   2   5  943.50   14.86
  -1  -2  -5  871.61   14.51
   1   2   5  918.66   17.15
   1  -2   5  899.15   14.40
  -2  -4  -1 1757.29   23.96
   2  -4   1 1759.34   23.65
   2   4   1 1743.68   24.43
   2   4   1 1734.78   23.88
   2  -4   1 1735.88   25.41
  -2  -4  -1 1730.09   31.31
   4  -2   0  550.38   14.16
  -4   2   0  518.23   11.16
  -4   2   0  545.84   13.96
  -4  -2   0  526.56   14.26
   4  -2   0  531.02    8.48
   4   2   0  554.06   14.54
   4   2   0  530.89   13.27
  -4  -2   0  521.07   13.47
   1  -3  -5 7164.60   73.82
  -1   3   5 6999.58   73.17
  -1  -3   5 6962.29   70.00
  -1  -3   5 7072.86   78.58
  -1  -3   5 7010.32   67.08
  -1  -3   5 7142.73   69.64
  -1   3   5 6870.58   76.90
   1  -3  -5 6859.82   68.86
  -3   0   618381.42  200.52
  -3   0   618703.15  202.00
  -3  -3   4 3055.53   34.95
   3  -3  -4 3029.45   32.08
   3   3  -4 2937.75   43.07
  -3   3   4 2934.78   33.80
   3  -3  -4 2972.19   33.33
  -3   3   4 2982.55   31.95
  -3  -3   4 3040.69   44.62
   3   3  -4 2952.76   30.15
  -2   4   329056.09  313.08
   2  -4  -329397.42  316.07
  -2  -4   328722.30  312.02
  -2  -4   328858.64  314.00
  -2   4   328431.80  293.63
   2   4  -328353.00  308.06
   2  -4  -328958.52  300.94
   2   4  -328394.12  304.50
  -1  -2   6 5386.04   48.17
  -1  -2   6 5357.34   49.30
   1  -2  -6 5192.60   49.82
   1  -2  -6 5312.90   62.30
  -1  -2   6 5353.08   58.62
  -1   2   6 5287.05   62.94
  -1  -2   6 5237.27   55.45
  -1   2   6 5404.51   53.80
   4   0  -5   -4.00    4.97
  -4   0   5    8.10    3.93
  -4   0   5    3.58    6.40
   4   0  -5    0.72    1.81
   2  -3  -5  662.82   11.68
   2  -3  -5  610.21   10.18
  -2  -3   5  656.48   14.37
   2   3  -5  643.48   11.30
   2   3  -5  656.33   13.80
  -2   3   5  644.70   13.63
  -2  -3   5  663.06    8.84
  -2   3   5  637.64   11.77
   0  -3   5 2803.21   34.34
   0  -3   5 2845.83   32.94
   0  -3   5 2906.77   35.57
   0  -3   5 2793.13   32.04
   0  -3  -5 2797.30   33.26
   0   3   5 2795.59   31.33
   0   3   5 2838.09   33.99
   0  -3  -5 2826.98   36.91
  -3   1   6 1015.53   18.22
  -3  -1   6 1000.34   17.08
  -3  -1   6 1035.93   19.15
  -3   1   6 1015.26   22.06
   3  -1  -6   -0.92    1.18
  -3   2  -3 5595.18   62.30
  -3  -2  -3 5611.78   68.58
   3  -2   3 5668.74   63.66
   3   2   3 5660.62   63.30
  -3   2  -3 5554.30   56.01
   3   2   3 5679.32   62.60
  -3  -2  -3 5600.47   62.43
   3  -2   3 5820.14   59.50
   1  -4   3 2803.78   34.50
   1  -4   3 2773.67   26.25
  -1  -4  -3 2697.91   33.18
  -1  -4  -3 2682.03   37.12
   1   4   3 2712.79   33.01
   1   4   3 2742.81   33.34
   1  -4   3 2762.72   27.47
   1  -4   3 2744.04   37.17
  -2   2   6    4.44    4.15
  -2  -2   6    9.89    1.85
   2  -2  -6    7.14    5.53
   2  -2  -6   11.05    4.43
  -2  -2   6    0.99    6.86
  -2   2   6   11.40    5.40
  -2  -2   6   11.79    2.67
  -2  -2   6   11.43    5.73
  -2   0  -5    0.63    8.26
   2   0   5    1.43    4.81
   2   0   5    0.73    4.86
  -2   0  -5    5.39    5.23
   4  -2  -4 8948.99   89.96
   4   2  -4 8886.92   97.00
  -4   2   4 9038.77   97.18
  -4   2   4 9088.98   94.55
   4  -2  -4 9015.78   91.87
   4   2  -4 9056.33   87.78
  -4  -2   4 9255.19   93.69
  -4  -2   4 9170.58  100.06
   4  -1  -5 1934.07   22.28
  -4  -1   5 1880.80   27.62
   4   1  -5 1871.94   17.98
  -4  -1   5 1948.34   18.87
   4   1  -5 1886.20   27.40
  -4   1   5 1871.11   23.73
   4  -1  -5 1874.11   18.46
  -4   1   5 1855.93   25.60
   4   0   2 7483.72   78.57
  -4   0  -2 7423.90   81.62
  -4   0  -2 7345.07   77.00
   4   0   2 7423.66   81.63
   3  -3   2 6344.22   77.94
   3  -3   2 6493.10   56.66
  -3  -3  -2 6283.60   76.76
   3   3   2 6358.48   69.85
   3   3   2 6298.65   78.03
  -3   3  -2 6286.38   77.19
  -3  -3  -2 6437.55   71.11
  -1  -4   4 4824.74   50.72
  -1   4   4 4722.13   53.82
   1   4  -4 4673.33   52.27
   1  -4  -4 4725.65   48.80
   1   4  -4 4674.73   53.34
  -1   4   4 4803.39   56.00
  -1  -4   4 4782.56   53.80
   1  -4  -4 4698.22   55.48
   4  -2   1  760.69   23.87
  -4  -2  -1  785.35   17.00
  -4   2  -1  757.33   10.28
  -4  -2  -1  740.92   23.84
  -4   2  -1  786.97   23.76
   4  -2   1  781.96   14.01
   4   2   1  784.06   23.05
   4   2   1  794.93   17.16
  -2  -4  -2  676.05   15.38
   2  -4   2  639.42   15.75
   2   4   2  676.72   15.11
  -2  -4  -2  680.61   14.68
   2  -4   2  672.42   13.82
   2   4   2  646.49   14.47
   2  -1   5  826.67   20.94
   2  -1   5  861.88   14.14
   2   1   5  831.23   15.21
  -2   1  -5  826.36   13.38
   2   1   5  869.83   16.46
  -2   1  -5  789.84   20.73
  -2  -1  -5  798.89   15.18
  -2  -1  -5  863.65   15.98
   0  -2   6 1184.68   16.97
   0  -2   6 1191.48   14.76
   0   2   6 1179.35   19.34
   0  -2  -6 1147.75   15.68
   0   2   6 1182.11   15.32
   1   0   6   14.07    6.27
  -1   0  -6    1.43    6.61
   1   0   6   16.37    4.71
   0   2  -6 1159.80   14.75
   0  -2  -6 1150.06   18.70
  -1   0  -6   -5.43    7.82
   0   2  -6 1144.08   16.67
   0  -5   0   -0.21    5.70
   0   5   0    6.82    5.27
   0   5   0   -2.50    3.18
   0  -5   0    4.52    2.99
   3   0   4 9622.26  103.71
   3   0   4 9738.84  101.89
  -3   0  -4 9644.76  103.69
  -3   0  -4 9399.31   98.06
   0   4   4 1427.59   20.22
   0  -4   4 1461.79   18.96
   0  -4  -4 1482.92   20.35
   0  -4  -4 1408.88   26.32
   0   4   4 1422.90   20.41
   0  -4   4 1406.81   20.46
   0  -4   4 1402.08   16.87
   0  -4   4 1445.77   23.65
   4  -1   2 9308.07   98.87
   4   1   2 9379.10  109.77
  -4  -1  -2 9138.65  107.48
  -4   1  -2 9208.55   92.84
   4   1   2 9370.29  100.13
   4  -1   2 9149.38  100.38
  -4  -1  -2 9310.50  105.53
  -4   1  -2 9349.44  101.94
  -3   4   110312.18   84.65
  -3   4   110308.28   85.07
  -3  -4   110098.69  116.37
  -3  -4   110055.37  107.20
   3  -4  -110002.08  105.03
   3  -4  -1 9861.64  114.51
   3   4  -1 9985.76  105.08
   3   4  -1 9821.97  106.52
   0  -5   1 8605.88   81.59
   0   5  -1 8188.07   93.44
   0  -5   1 8479.51   90.23
   0  -5  -1 8420.34   90.32
   0   5  -1 8358.15   79.80
   0   5   1 8284.12   89.20
   0   5   1 8293.50   82.60
   0  -5  -1 8547.73   83.33
  -3   4   221706.60  209.85
  -3  -4   221374.96  232.70
   3   4  -220703.35  220.45
  -3  -4   221414.55  229.17
   3  -4  -220972.74  234.97
   3  -4  -220752.04  221.53
   3   4  -220705.23  224.27
  -4   3   2 7462.18   72.22
  -4   3   2 7470.83   68.57
   4  -3  -2 7422.26   77.62
  -4  -3   2 7593.68   80.17
   4   3  -2 7548.82   84.45
   4  -3  -2 7372.92   79.95
   4   3  -2 7335.49   81.83
  -4  -3   2 7511.56   83.35
   4   3  -1  175.93   11.32
  -4   3   1  184.27    4.11
   4   3  -1  175.65   14.11
  -4   3   1  175.64   16.15
  -4  -3   1  204.29   11.26
  -4  -3   1  174.33    9.93
   1   1   6  698.68   12.18
  -1   1  -6  721.24   13.05
   1   1   6  708.04   14.75
  -1  -1  -6  715.29   14.70
   1  -1   6  721.71   13.52
  -1   1  -6  704.16   16.75
   1  -1   6  700.25   12.47
  -2   4   416959.33  172.27
  -2  -4   417102.02  180.35
   2   4  -416749.89  183.82
   2  -4  -416849.06  175.89
  -2   4   417108.25  178.79
   2  -4  -417218.39  173.71
   2   4  -416895.55  173.74
  -2  -4   417146.20  182.08
  -5   0   2 7883.12   84.86
   5   0  -2 7950.40   84.85
   5   0  -2 7847.11   88.99
  -5   0   2 7958.10   84.02
   1  -5   0 2053.09   19.66
   1  -5   0 2096.00   27.96
  -1   5   0 2054.42   20.50
   1   5   0 2009.86   24.83
  -1  -5   0 2065.75   27.69
  -1   5   0 2044.39   27.28
   1   5   0 2033.85   33.51
  -1  -5   0 2049.71   29.58
  -1  -5   1 1193.18   16.48
  -1  -5   1 1179.07   19.02
   1   5  -1 1143.37   24.45
   1  -5  -1 1165.21   12.30
  -1   5   1 1168.85   19.09
   1  -5  -1 1165.84   19.22
   1   5  -1 1111.53   20.35
  -1   5   1 1129.31   12.65
   3  -4   0 1181.12   25.21
   3  -4   0 1227.28   28.21
   3   4   0 1154.73   20.66
   3   4   0 1139.78   18.90
  -3  -4   0 1215.83   27.73
  -3  -4   0 1182.36   26.99
   3  -1   4 4210.13   45.15
   3   1   4 4282.57   49.98
  -3  -1  -4 4222.74   49.40
  -3  -1  -4 4184.46   47.58
   3   1   4 4177.56   55.06
  -3   1  -4 4247.91   49.53
   3  -1   4 4277.29   56.95
  -3   1  -4 4238.99   44.97
   1   0  -7   -0.82    9.77
  -1   0   7   -3.96    5.65
  -1   0   7    4.03    2.81
   1   0  -7    7.65    3.38
  -2   0   7    1.97    5.71
  -2   0   7    2.63    6.56
  -5   0   3   -0.17    5.53
   5   0  -3    6.16    6.05
  -5   0   3    4.06    7.20
   5   0  -3    4.72    4.89
  -3   2   6   86.96   13.30
   3   2  -6  114.14    9.71
   3  -2  -6   95.54    6.36
   3  -2  -6   92.14    3.65
  -3  -2   6  102.55   15.45
  -3   2   6   94.07   11.48
  -3  -2   6   94.53    2.62
  -3   3   5  163.67    7.07
   3  -3  -5  166.94    6.95
   3  -3  -5  196.29    6.30
  -2  -3  -4 7620.89   82.81
   2  -3   4 7955.43   85.86
  -3  -3   5  196.11    5.60
   2   3   4 7894.88   84.98
  -2   3  -4 7735.50   72.66
   2   3   4 7776.91   85.57
  -2  -3  -4 7681.00   90.69
   2  -3   4 7735.02   72.77
  -3   3   5  179.59    8.04
   3   3  -5  181.82    7.57
  -2   3  -4 7653.69   83.21
  -3  -3   5  205.49   10.75
   3   3  -5  181.40   10.52
  -5   0   1    0.87    5.51
   5   0  -1    5.75    9.66
  -5   0   1   -4.69    8.33
   5   0  -1    1.43    5.62
   4  -3  -3 3747.21   41.19
  -4  -3   3 3809.03   46.53
  -4  -3   3 3774.84   46.30
  -4   3   3 3793.35   36.56
   4  -3  -3 3774.09   43.15
   4   3  -3 3771.13   45.25
   4   3  -3 3824.80   46.38
  -4   3   3 3757.41   40.80
   1   3   5  707.82   13.74
   1  -3   5  725.03   13.77
   1  -3   5  670.92   10.00
   1  -3   5  683.29   11.69
  -1  -3  -5  693.17   19.80
   1   3   5  709.37   22.07
  -1  -3  -5  715.96   14.99
   5  -1  -210333.30  112.37
   5   1  -210400.76  112.67
  -5  -1   210436.31  115.86
  -5   1   210476.19  111.11
   5  -1  -210374.46  116.28
  -5  -1   210399.75  120.06
   5   1  -210310.78  109.27
  -5   1   210009.52  104.59
  -1  -5  -1 7580.50   82.86
   1   5   1 7428.42   81.06
  -1   5  -1 7647.85   67.97
   1  -5   1 7604.18   82.07
   1  -5   1 7726.72   68.03
  -1   5  -1 7544.24   87.69
  -1  -5  -1 7517.89   77.79
   1   5   1 7430.42   83.37
  -3   4   3 5983.13   57.95
   3  -4  -3 5897.47   68.27
  -3  -4   3 6069.81   63.70
   3  -4  -3 5941.76   71.79
  -3   4   3 5919.68   58.80
   3   4  -3 5888.83   66.17
   3   4  -3 5937.87   66.88
  -3  -4   3 6047.30   67.90
  -4   3   0  696.45   16.51
   4  -3   0  749.75   10.02
  -4   3   0  695.46    8.90
   4   3   0  714.93   17.54
   4  -3   0  702.95   23.74
  -4  -3   0  736.38   17.18
  -4  -3   0  749.01   15.65
   4   3   0  747.23   15.64
   4  -2  -5    6.56    3.46
  -4   2   5   13.33    5.73
  -4  -2   5    8.78    3.26
  -4  -2   5   12.67    7.72
   4  -2  -5    5.21    6.35
  -4   2   5   10.24    4.75
   4   2  -5   13.06    2.80
   4   2  -5    8.17    7.70
   0  -5   2 9657.84   92.25
   0  -5  -2 9324.90  100.30
   0  -5   2 9478.04  100.90
   0   5  -2 9478.93  100.22
   0   5   2 9370.64   95.48
   0  -5  -2 9402.01   94.23
   0   5   2 9491.37  102.03
   0   5  -2 9306.92   92.22
  -1  -1   7 3396.86   45.61
   1   1  -7 3441.47   32.21
   1  -1  -7 3359.71   33.83
  -1   1   7 3478.88   31.81
   1  -1  -7 3460.83   40.96
   1   1  -7 3408.38   39.96
  -1  -1   7 3391.27   29.75
  -1   1   7 3333.29   39.99
  -2  -1   7   50.07    7.65
   2  -1  -7   53.83   12.48
  -2   1   7   43.24    7.59
   2  -1  -7   48.22    3.13
  -2   1   7   42.77    2.74
  -2  -1   7   52.96   14.53
  -1   5   2 4010.47   46.11
   1  -5  -2 4027.28   41.62
   1  -5  -2 3956.68   52.14
   1   5  -2 3954.01   46.06
  -1  -5   2 4013.04   42.65
  -1   5   2 3953.61   39.21
   1   5  -2 4025.70   45.42
  -1  -5   2 4023.98   45.78
   5   1  -313182.89  142.93
  -5  -1   313277.34  137.41
   5  -1  -313184.52  138.08
  -5   1   313294.65  138.81
   5  -1  -313091.13  136.85
  -5  -1   313046.42  149.04
   5   1  -312894.00  139.20
  -5   1   313028.50  136.94
   5  -1  -1  848.58   14.51
   5   1  -1  913.35   18.09
  -5   1   1  918.14   17.79
   5  -1  -1  889.00   24.27
  -5   1   1  876.00   19.37
  -5  -1   1  891.69   18.01
   5   1  -1  850.97   23.53
  -5  -1   1  891.59   23.79
   4   0  -6    0.41    1.18
  -4   0   6 1530.04   24.63
   4   0  -6    1.83    5.94
   2  -2   5 1134.99   24.97
   2   2   5 1108.39   18.44
   2   2   5 1086.37   19.79
   2  -2   5 1104.42   19.07
  -2  -2  -5 1061.46   18.35
  -2  -2  -5 1107.34   19.25
  -2   2  -5 1066.75   18.37
  -2   2  -5 1087.95   18.15
  -1  -3   6 7893.17   77.56
   1  -3  -6 7874.44   89.41
  -1  -3   6 7792.14   83.86
  -1  -3   6 7834.65   85.39
  -1   3   6 7906.13   79.24
  -1   3   6 7713.80   88.71
  -1  -3   6 7955.16   78.74
   1  -3  -6 7654.49   81.29
   3   4   1  181.74   10.15
   3  -4   1  161.22    9.61
  -3  -4  -1  224.38   17.50
  -3  -4  -1  193.91   11.06
   3   4   1  198.46   11.33
   3  -4   1  176.54   11.41
  -5   0   4 6108.78   66.21
   5   0  -4 6043.29   61.68
   5   0  -4 6282.82   76.35
  -5   0   4 6021.37   74.65
  -1  -4  -4 4662.29   52.36
  -1  -4  -4 4581.07   59.09
   1   4   4 4546.84   52.40
   1   4   4 4674.12   58.45
   1  -4   4 4678.22   53.16
   1  -4   4 4630.94   50.35
   1  -4   4 4639.04   43.23
   1  -4   4 4693.52   47.77
  -4  -2  -2 4641.74   54.29
  -4   2  -2 4611.72   45.20
   4  -2   2 4730.64   50.75
   4   2   2 4701.45   62.89
  -4  -2  -2 4653.21   54.93
   4  -2   2 4743.33   64.23
   4   2   2 4675.11   63.50
  -4   2  -2 4670.55   55.28
  -5   0   0 2209.77   30.47
  -5   0   0 2194.64   28.51
   5   0   0 2169.41   34.44
   5   0   0 2194.32   30.42
   0   0   7   -1.63    7.92
   0   0   7    0.21    4.29
   0   0  -7   -1.58    4.71
   0   0  -7    0.18    5.16
   2   4   3   53.49    8.23
   2   4   3   55.24   14.45
   2  -4   3   65.08    8.59
  -2  -4  -3   67.15    8.74
   2  -4   3   53.04    3.31
   2  -4   3   44.79    3.76
   2  -4   3   58.37    7.49
  -2  -4  -3   56.28    8.36
   3  -3   3 1546.28   32.17
  -3  -3  -3 1581.44   32.11
   3   3   3 1549.66   24.37
   3   3   3 1578.22   25.52
   3  -3   3 1586.46   16.21
  -3   3  -3 1618.26   25.36
  -3   3  -3 1555.72   17.39
  -3  -3  -3 1564.53   24.49
  -4   1   6 5898.64   63.94
  -2   3   6 3485.06   38.73
   2  -3  -6 3539.84   40.03
  -2  -3   6 3548.78   35.49
  -4  -1   6 5992.09   69.34
  -4  -1   6 6177.91   54.02
  -2  -3   6 3542.81   37.00
  -2  -3   6 3569.90   49.95
  -3   0   7    3.53    9.98
   2  -3  -6 3457.59   35.86
   4  -1  -6 5962.82   53.83
  -3   0   7   -1.52    5.29
  -2   3   6 3449.93   39.30
  -4   1   6 6066.40   68.03
  -2  -3   6 3545.11   40.62
   4  -1  -6 6008.11   53.24
   4   1  -6 5908.05   67.85
  -4  -3   4 1942.72   29.17
   1  -2   611888.78  122.99
   1  -2   612034.78  127.99
   4  -3  -4 1908.23   29.77
   1   2   611796.72  135.34
  -1   2  -611887.31  122.57
  -1  -2  -611430.73  123.34
  -4   3   4 1908.46   24.61
  -1   2  -611644.20  124.08
   4   3  -4 1947.21   36.94
   1   2   611828.14  122.98
  -1  -2  -611569.36  120.46
   4   3  -4 1863.64   25.52
  -4   3   4 1926.70   26.77
  -4  -3   4 1923.41   22.94
   4  -3  -4 1899.54   23.02
   2  -5  -1    1.10    1.56
  -2  -5   1   -2.23    8.26
  -2   5   1    0.56    1.99
   2   5  -1   -5.55    5.12
  -2  -5   1    3.93    5.43
   2  -5  -1   -2.72    8.75
   2   5  -1    1.57    7.95
  -2   5   1    1.35    5.42
  -4   0  -3    0.48    4.32
  -4   0  -3   -1.22    9.58
   4   0   3   -1.40    5.59
   4   0   3    2.23    7.42
  -3   2  -4 1849.59   24.41
   3   2   4 1904.49   27.59
  -3   2  -4 1929.75   27.63
   3  -2   4 1986.60   28.76
  -3  -2  -4 1898.38   33.62
  -3  -2  -4 1856.46   27.55
   3  -2   4 1897.39   22.07
   3   2   4 1952.65   28.79
  -1  -4   5    4.51    6.44
  -1  -4   5   -0.52    5.07
  -1  -4   5    3.77    3.94
  -1  -4   5    4.63    4.41
  -1   4   5   15.21    5.31
   1  -4  -5   16.40    8.62
   1  -4  -5    7.02    5.15
  -1   4   5    7.15    4.91
  -5  -1   4  383.02   20.79
   5   1  -4  361.33   13.35
  -5   1   4  385.56   13.71
  -5   1   4  355.34   11.29
   5  -1  -4  381.41   11.45
   5   1  -4  341.70   12.61
  -5  -1   4  357.76   13.09
   5  -1  -4  342.64    9.37
   1   5   2 3706.70   42.91
   1  -5   2 3714.75   43.67
  -1  -5  -2 3691.67   41.61
   1   5   2 3658.87   50.94
   1  -5   2 3740.27   45.85
  -1  -5  -2 3719.65   44.72
   1  -5   2 3789.84   33.11
   1  -5   2 3765.14   33.73
   5   1   0 3384.02   41.89
  -5  -1   0 3504.85   43.00
   5  -1   0 3394.55   43.17
   5  -1   0 3431.53   42.85
   5   1   0 3333.54   48.99
  -5   1   0 3548.34   43.75
  -5   1   0 3360.11   42.38
  -5  -1   0 3390.36   41.91
   0   1  -7 2382.16   29.83
   0   1   7 2390.07   28.68
   0  -1  -7 2322.21   30.70
   0  -1   7 2289.33   29.53
   0   1   7 2322.49   30.75
   0   1  -7 2318.15   27.63
   0  -1  -7 2330.56   29.17
   0  -1   7 2402.88   28.21
   2  -5   0 6748.56   77.30
  -2  -5   0 7056.39   78.00
   2  -5   0 6975.10   82.75
   2   5   0 6961.06   76.39
   2   5   0 6796.96   74.23
  -2  -5   0 6930.24   75.20
  -4  -3  -1 4691.12   62.45
   4   3   1 4709.00   56.83
  -4  -3  -1 4694.74   56.33
   4   3   1 4762.83   55.66
  -4   3  -1 4660.36   55.62
   4  -3   1 4693.29   64.54
   4  -3   1 4813.56   45.13
  -4   3  -1 4783.65   43.81
  -3   1   718740.73  206.17
  -3  -1   718773.90  208.19
   3  -1  -719677.88  180.15
  -3   1   719056.28  211.57
   3  -1  -719587.07  179.07
  -3  -1   718898.38  210.87
  -3   4   4 9262.54   92.51
  -3  -4   4 9459.33  103.26
   3  -4  -4 9186.58   97.86
  -3   4   4 9144.91   89.91
   3  -4  -4 9144.24   95.62
   3   4  -4 8989.28   98.34
   3   4  -4 9059.74   96.49
  -3  -4   4 9472.98  101.19
   1   5  -3  362.73   15.71
  -1   5   3  381.55   12.72
  -1  -5   3  390.45    9.65
  -1  -5   3  394.44   11.08
   1   5  -3  367.38    9.10
  -1   5   3  383.82   11.64
   1  -5  -3  402.16    8.12
   1  -5  -3  359.59   11.71
   0  -3   611487.88  119.67
   0  -3   611294.60  112.74
   0  -3  -611131.11  120.34
   0   3   611193.69  120.72
   0   3   611339.70  121.13
   0  -3   611438.60  116.35
   0  -3   611373.28  116.20
   0  -3  -611335.08  121.22
  -2  -5   2 5767.09   63.28
   2   5  -2 5650.16   62.22
  -2  -5   2 5748.89   63.60
  -2   5   2 5874.41   64.99
   2  -5  -2 5776.92   53.32
   2   5  -2 5644.52   61.63
   2  -5  -2 5689.78   63.33
  -2   5   2 5757.50   54.75
  -5  -2   2  142.38   14.15
   5   2  -2  129.18   17.94
   5  -2  -2  135.47    6.53
  -5   2   2  141.51   10.40
   5   2  -2  130.39    8.64
   5  -2  -2  132.34   15.09
  -5   2   2  115.38    9.56
  -4   1  -3  137.83   10.98
  -4  -1  -3  172.07   11.08
   4  -1   3  118.38   12.16
  -4   1  -3  132.73   11.10
   4  -1   3  133.32   17.42
   4   1   3  125.69   11.13
  -4  -1  -3  153.26   15.38
   4   1   3  177.44   16.29
   0   5  -3 3632.67   47.45
   0  -5  -3 3663.28   43.77
   0  -5  -3 3688.97   44.58
   0   5   3 3649.89   43.49
   0   5  -3 3588.19   38.67
   0   5   3 3641.51   41.07
   0  -5   3 3794.40   43.21
   0  -5   3 3730.61   39.77
  -1   2   7 3011.68   30.03
  -1  -2   7 2982.09   35.58
  -1   2   7 2952.29   36.78
   1  -2  -7 2921.61   33.31
  -1  -2   7 2990.19   37.74
  -1  -2   7 2980.29   31.10
  -1  -2   7 2982.18   29.46
   1  -2  -7 2958.19   36.65
   2   4  -5 1624.10   23.25
   2  -4  -5 1733.23   21.65
  -2  -4   5 1735.27   20.86
  -2  -4   5 1766.33   25.21
   2   4  -5 1668.46   23.97
   2  -4  -5 1724.09   22.16
  -2   4   5 1709.59   26.88
  -2   4   5 1734.88   26.51
  -2   2   7 1461.02   17.01
  -2  -2   7 1456.19   14.25
  -2   2   7 1436.92   28.30
  -2  -2   7 1434.86   31.57
   2  -2  -7 1470.87   22.19
  -2  -2   7 1475.12   28.10
  -2  -2   7 1495.95   13.98
   2  -2  -7 1438.22   15.18
   0  -4   5  106.04    6.09
   0  -4  -5  123.12   12.94
   0   4   5   99.57   12.23
   0  -4   5   95.09    8.31
   0  -4   5  101.39    7.49
   0   4   5   94.59    8.86
   0  -4   5  111.55    6.53
   0  -4  -5   83.82    7.93
  -5   2   3 2377.34   30.23
   5   2  -3 2308.26   28.51
  -5   2   3 2233.20   31.61
  -5  -2   3 2324.76   28.72
   5  -2  -3 2309.61   29.78
  -5  -2   3 2236.09   41.97
   5  -2  -3 2304.16   32.19
   5   2  -3 2335.82   42.25
   5   2  -1   61.04   15.89
  -5   2   1   52.56    8.84
  -5  -2   1   35.90    8.35
   5  -2  -1   57.26    9.15
   5   2  -1   53.22   13.26
  -5   2   1   48.35    5.27
   5  -2  -1   53.92    5.31
  -5  -2   1   53.31    9.58
  -2  -5  -1   17.15    8.07
   2   5   1   27.88    7.70
   2  -5   1   17.85   12.21
  -2  -5  -1   17.32    6.77
   2   5   1   27.64    7.54
   2  -5   1   29.12    8.81
   5   0  -5    0.20    9.82
  -5   0   5    2.42    7.12
   5   0  -5   -0.48    2.95
  -5   0   5    6.92    5.66
   2   0   6 2947.82   41.02
   2   0   6 2996.12   37.06
  -2   0  -6 2966.92   41.72
  -2   0  -6 2969.14   42.04
  -3  -4  -2  285.43   19.09
   3   4   2  299.23   13.41
  -3  -4  -2  290.33   13.04
   3  -4   2  289.07   13.27
   3   4   2  274.61   19.14
   3  -4   2  315.92   11.46
  -5   0  -1    5.75    9.27
   5   0   1    5.50    7.86
  -5   0  -1    3.31    7.28
   5   0   1   -3.21    5.85
  -3  -3   6 1963.92   36.74
  -3  -3   6 1951.40   22.13
   3   3  -6 1934.73   21.07
   3  -3  -6 1902.91   21.46
  -3   3   6 1890.87   24.34
   3   3  -6 1862.14   27.95
  -4  -2   6 7926.92   90.31
  -4  -2   6 8094.48   75.79
   4   2  -6 7803.28   71.97
   4  -2  -6 7756.00   77.95
   4   2  -6 7684.40   87.58
  -4   2   6 7792.55   91.89
  -4   2   6 7702.16   87.21
   4  -2  -6 7762.19   73.69
   2   5  -3 1237.48   19.72
  -2   5   3 1260.06   17.71
  -2  -5   3 1261.83   19.47
  -2   5   3 1292.24   20.25
   2  -5  -3 1246.97   20.22
   2   5  -3 1289.54   19.33
   2  -5  -3 1269.84   17.02
  -2  -5   3 1256.83   19.77
  -3   0  -5    7.05    5.96
   3   0   5    7.64    7.00
  -3   0  -5   12.96   11.33
   3   0   5    5.53    6.36
  -5  -1   5  736.93   11.03
  -5   1   5  749.63   16.21
   5   1  -5  725.63   10.54
   5  -1  -5  719.43   15.40
  -5   1   5  738.96   15.45
   5  -1  -5  699.92   15.68
   5   1  -5  753.51   18.07
  -5  -1   5  722.38   18.07
   2   1   6  710.35   16.55
  -2  -1  -6  717.23   21.99
  -2  -1  -6  693.45   20.98
  -2   1  -6  691.42   14.52
   2  -1   6  671.89   20.86
   2   1   6  693.78   14.74
  -2   1  -6  701.29   13.65
   2  -1   6  686.83   13.86
  -4   3   5  433.65    9.63
   4  -3  -5  434.52   10.54
   4  -3  -5  446.57    9.37
  -4  -3   5  465.95   23.40
   4   3  -5  490.23   22.86
  -4  -3   5  449.97    8.94
   4   3  -5  434.82   11.30
  -4   3   5  450.11   10.83
   5   2  -4 5261.35   54.86
  -5  -2   4 5326.20   55.82
   5  -2  -4 5225.16   56.77
  -5   2   4 5320.12   62.40
  -5   2   4 5263.76   57.25
   5  -2  -4 5344.31   62.63
   5   2  -4 5272.61   63.13
  -5  -2   4 5264.27   71.87
   5  -1   1   24.30   14.01
  -5  -1  -1   17.25   12.47
  -5  -1  -1   33.54   14.02
  -5   1  -1   15.36   14.33
   5   1   1   11.43    7.86
   5  -1   1   14.06    5.91
   5   1   1   23.16   13.65
  -5   1  -1   16.76    9.07
  -5   2   013379.20  156.36
  -5  -2   013474.70  148.21
  -5   2   013329.57  138.50
   5  -2   013581.32  141.12
   5   2   013436.30  147.49
   5  -2   013314.33  155.58
  -5  -2   013593.63  150.18
   5   2   013280.08  147.40
   0   2   7 1941.24   22.90
   0  -2  -7 1876.70   22.83
   0   2  -7 1912.46   25.42
   0   2   7 1947.15   28.52
   0  -2  -7 1909.96   27.42
   0  -2   7 1955.58   25.68
   0   2  -7 1961.05   25.69
   0  -2   7 1954.85   25.40
  -4  -4   2    2.01    7.73
  -4   4   2    4.80    2.95
   4   4  -2   -2.01    5.64
  -4   4   2    1.74    2.73
  -4  -4   2    5.46    6.07
   4  -4  -2    9.33    5.57
   4   4  -2   -0.96    7.53
   4  -4  -2    5.38   10.81
   1  -5   3  668.42    9.05
   1  -5   3  677.00   14.91
  -1  -5  -3  646.60   19.43
  -1  -5  -3  676.47   23.34
   1   5   3  646.21   21.81
   1  -5   3  686.44    8.22
   1  -5   3  665.69   16.64
   1   5   3  662.70   15.59
  -3  -2   7 1485.99   29.59
  -3  -2   7 1496.44   12.46
   3  -2  -7 1411.20   16.88
   3  -2  -7 1432.74   16.52
  -3  -2   7 1455.50   12.29
  -3  -2   7 1472.26   33.65
  -3   2   7 1447.33   28.16
  -3   2   7 1486.05   23.97
   2   3   5  582.20   24.64
  -2   3  -5  642.85   15.01
   2  -3   5  631.67   13.02
  -2   3  -5  618.17   10.05
  -2  -3  -5  651.42   15.31
   2   3   5  629.50   14.98
  -2  -3  -5  659.63   23.03
   2  -3   5  653.75   14.95
   4   4  -1 1665.25   25.04
   4  -4  -1 1579.99   24.12
   4  -4  -1 1582.42   26.00
  -4  -4   1 1648.19   32.52
  -4  -4   1 1577.70   27.14
   4   4  -1 1646.77   27.28
  -4   4   1 1587.17   13.42
  -3   1  -5    1.25   10.09
  -3  -1  -5    8.07    6.34
  -3   1  -5    0.78    7.31
   3   1   5    8.64   11.46
  -3  -1  -5   -3.40    5.81
   3  -1   5    0.51    6.93
   3   1   5    5.35    6.77
   3  -1   5    4.69    8.58
   1   0   7    0.09    6.25
   1   0   7    4.65    4.55
  -1   0  -7   -2.82    4.59
  -1   0  -7   -4.35    6.07
   4  -2   3 1128.74   15.76
   4  -2   3 1098.16   22.35
  -4   2  -3 1074.52   21.48
   4   2   3 1134.07   30.02
  -4   2  -3 1091.50   18.10
  -4  -2  -3 1127.47   30.76
   4   2   3 1116.94   22.07
  -4  -2  -3 1108.09   20.91
  -4  -3  -2 2352.52   33.69
   4  -3   2 2329.95   42.61
  -4   3  -2 2374.87   42.72
  -4  -3  -2 2324.56   33.72
   4   3   2 2324.96   33.31
   4  -3   2 2418.50   23.67
   4   3   2 2315.62   34.15
  -4   3  -2 2357.87   24.24
  -4   0   7    8.88    7.64
  -4   0   7    1.34    6.36
   1   5  -4 6928.96   79.11
  -1   5   4 6881.60   72.30
  -1  -5   4 6965.74   74.41
   1   5  -4 6947.12   76.83
  -1   5   4 7009.90   76.65
  -1  -5   4 7099.11   73.94
   1  -5  -4 6872.17   82.30
   1  -5  -4 6938.20   71.79
   2  -4   4   20.68    4.22
   2  -4   4   17.16   10.67
   2   4   4   15.66   12.14
  -3   4   5   56.75    5.67
  -3  -4   5   56.08   15.12
   2  -4   4   14.18    3.00
  -2  -4  -4   16.71    8.22
   3   4  -5   26.14    8.33
  -2  -4  -4   20.89    7.80
   2  -4   4   14.12    8.01
   3  -4  -5   25.65    5.72
   2   4   4   -0.14   13.63
   3  -4  -5   24.54    4.83
   4   4  -3  381.39   10.68
   2  -5   2 2411.86   43.12
  -2  -5  -2 2461.49   32.45
   2   5   2 2389.09   32.88
  -2  -5  -2 2467.04   34.43
   4   4  -3  366.68   14.90
   4  -4  -3  372.08   11.22
  -4  -4   3  399.14   17.19
  -4   4   3  374.34    9.58
  -4  -4   3  368.27   14.99
  -4   4   3  376.68    6.26
   2   5   2 2439.77   33.05
   4  -4  -3  402.85   13.07
   2  -5   2 2412.76   32.18
  -1  -3  -6   32.82    8.19
   1   3   6   35.58    8.64
   1   3   6   29.34    6.81
  -1  -3  -6   25.40    7.11
  -1   3  -6   31.41    6.35
   1  -3   6   26.01    6.54
   1  -3   6   31.98    7.85
   1  -1   7 3082.05   39.73
   1   1   7 2994.48   38.45
   1   1   7 3059.88   39.65
  -1   1  -7 2987.45   36.16
  -1  -1  -7 3017.15   39.92
  -1  -1  -7 2921.42   37.51
  -1   1  -7 2962.58   33.99
   1  -1   7 2976.91   36.52
   1   4   5    2.87    6.24
  -1  -4  -5    1.62    5.75
   1  -4   5   -0.74    4.49
  -1  -4  -5   -1.24    9.36
   1   4   5   -2.73    5.39
   1  -4   5    1.54    2.81
   1  -4   5    5.29    8.57
   1  -4   5   -0.80    5.44
  -2   0   812812.43  143.65
  -2   0   812592.98  137.68
  -4  -4   0 2046.50   31.35
   4   4   0 1996.60   40.43
   4  -4   0 1973.28   28.18
   4   4   0 1975.98   28.79
  -4  -4   0 2037.80   30.40
   4  -4   0 1953.06   30.23
   3   3   4  713.97   17.08
  -3   3  -4  701.13   12.51
  -3  -3  -4  725.46   25.34
   3  -3   4  728.42   10.44
  -3   3  -4  723.92   17.18
   3  -3   4  733.05   25.27
  -3  -3  -4  714.65   17.74
   3   3   4  753.64   18.88
   0  -5   4 1821.10   24.28
   0  -5   4 1829.04   22.51
   0   5   4 1794.95   25.05
   0  -5   4 1815.71   24.72
   0  -5  -4 1784.41   26.25
   0   5   4 1831.95   32.68
   0  -5   4 1871.75   26.79
   0  -5  -4 1833.38   24.43
   3   5  -1  315.39   19.62
   3   5  -1  275.03   11.60
  -3  -5   1  274.29   12.15
  -3  -5   1  266.42   19.36
   3  -5  -1  282.18   13.56
   3  -5  -1  282.71   18.08
  -4   1   7   35.15    7.70
  -4   1   7   38.13    9.04
  -4  -1   7   32.32   10.02
  -4  -1   7   41.88    8.31
   4  -1  -7   34.60    2.77
   1   0  -8   20.46    7.29
  -1   0   8    6.72   12.07
   1   0  -8   13.11    4.10
  -1   0   8   15.14    2.40
   3  -5  -2   92.25   14.48
  -3  -5   2  108.41    8.86
   3   5  -2   86.81   15.72
   3  -5  -2  105.46   10.40
   3   5  -2   89.76    8.63
  -3   5   2   83.96    3.81
  -3  -5   2   88.76   15.92
   2   5  -4   83.47   11.57
  -2   5   4   92.88    8.26
  -2  -5   4  113.60   11.87
   2  -5  -4   86.23    8.19
   2   5  -4  106.79    8.29
  -2  -5   4   93.82    8.80
   2  -5  -4   89.48    8.36
  -2   5   4   82.79    5.86
   5  -3  -2 7087.34   88.15
   5  -3  -2 7170.55   73.21
   5   3  -2 7040.40   77.53
  -5  -3   2 7103.53   85.36
  -5   3   2 7174.49   88.56
  -5  -3   2 7083.02   83.59
  -5   3   2 7012.29   68.57
   5   3  -2 6980.89   82.01
  -4   0  -4 5219.33   58.45
  -5   2   5 1175.39   17.46
  -4   0  -4 5202.47   62.47
  -5  -2   5 1172.75   19.79
  -5   2   5 1137.24   19.09
   5  -2  -5 1165.70   19.34
   5   2  -5 1170.36   23.69
  -5  -2   5 1204.46   23.98
   4   0   4 5312.53   71.90
   5   2  -5 1170.65   15.09
   4   0   4 5328.34   60.42
   5  -2  -5 1141.68   16.62
   2  -1  -8  610.58    7.83
  -2   1   8  644.14    7.49
  -5   0   6 1547.70   16.59
  -2  -1   8  659.90   15.41
   5   0  -6 1599.65   25.96
   5   0  -6 1557.11   19.10
  -2  -1   8  602.20   17.27
  -5   0   6 1548.25   34.31
  -2   1   8  625.94   15.41
   2  -1  -8  606.55   22.22
  -1  -4   6   92.55    6.84
   2   2   6 5287.15   62.55
  -2   2  -6 5362.15   60.53
  -2   2  -6 5310.58   61.07
  -1   4   6   97.39    7.05
  -2  -2  -6 5352.84   69.41
   1  -4  -6  103.65    7.53
  -2  -2  -6 5296.40   60.77
   2  -2   6 5392.60   57.58
   2  -2   6 5419.35   61.11
   1  -4  -6   91.01    8.22
  -1  -4   6  114.45   10.07
  -1   4   6   97.98   13.54
  -1  -4   6  114.68    5.69
  -1  -4   6  123.19   12.97
   3   5   0 4743.35   56.17
  -3  -5   0 4828.19   65.82
   3  -5   0 4798.46   63.12
   3   5   0 4688.98   64.62
   3  -5   0 4716.71   67.26
  -3  -5   0 4908.75   66.40
  -1  -3   7   25.69    6.54
  -1   3   7   34.28    7.80
   1  -3  -7   38.49    8.30
   1  -3  -7   17.95    7.54
  -1  -3   7   26.31   12.73
  -1  -3   7   25.75    5.99
  -1  -3   7   32.10    4.34
  -1   3   7   35.94   12.96
  -2   3   7 2556.72   39.45
  -2  -3   7 2558.76   25.44
  -2  -3   7 2560.56   38.62
  -2   3   7 2575.27   27.36
  -2  -3   7 2556.62   42.97
   2  -3  -7 2492.53   30.44
  -2  -3   7 2555.72   26.66
   2  -3  -7 2490.69   38.52
   5  -2   1  136.36   11.96
  -5   2  -1  108.06    9.40
   5   2   1  126.74   12.26
   5  -2   1  151.22   10.45
   5   2   1  154.02   11.67
  -5   2  -1  137.03   11.89
  -5  -2  -1  127.93   11.63
  -5  -2  -1  129.82   11.84
  -5   0  -2  615.71   17.85
  -5   0  -2  602.87   14.02
   5   0   2  598.92   17.70
  -1  -1   8 2244.20   30.63
   5   0   2  608.95   14.74
  -1   1   8 2184.03   21.40
   1   1  -8 2186.88   29.85
   1  -1  -8 2194.11   24.67
   1  -1  -8 2200.07   38.03
  -1  -1   8 2215.69   20.85
  -1   1   8 2073.74   30.21
   1   1  -8 2129.08   22.43
   5  -3  -3    3.64    6.31
   5  -3  -3    3.21    3.78
   5   3  -3   -0.43    5.33
  -5   3   3   -0.34    6.14
  -5  -3   3    6.90    5.70
   5   3  -3    8.16    8.27
  -5   3   3    3.94    6.31
  -5  -3   1   36.73   14.46
   5  -3  -1   22.30    6.13
   5   3  -1   34.97   16.60
  -5  -3   1   45.36   10.42
   5   3  -1   38.58    8.31
  -5   3   1   25.20   15.11
  -5   3   1   39.57    3.93
   5  -3  -1   37.84    9.07
   3   4   3    4.79    7.81
  -3  -4  -3   10.46    8.20
  -3  -4  -3   -0.09   12.56
   3  -4   3    3.83    2.69
  -3   4  -3    5.55    7.99
   3  -4   3   14.06    7.28
   3  -4   3    1.43    1.64
   3   4   3   -6.38    7.19
  -2  -4   6 3826.83   53.09
   2  -4  -6 3693.13   41.14
  -2  -4   6 3786.18   38.70
   2  -4  -6 3733.89   48.02
   2   4  -6 3679.41   37.96
  -2   4   6 3727.47   48.60
  -2   4   6 3733.94   40.79
   2   4  -6 3691.26   44.66
  -4  -4   4 1515.80   35.29
  -4   4   4 1499.03   20.48
  -4  -4   4 1481.16   20.89
   4   4  -4 1437.89   19.97
   4   4  -4 1494.51   25.85
  -4   4   4 1475.52   18.06
   4  -4  -4 1476.00   22.92
   4  -4  -4 1489.38   21.18
   0  -6   011414.56  134.25
   0   6   011001.66  122.06
   3   2   5 1156.92   22.37
  -3   2  -5 1165.38   20.55
   0  -6   011590.33  118.21
  -3   2  -5 1139.75   21.09
   3   2   5 1196.12   21.50
  -3  -2  -5 1130.78   29.55
   0   6   011250.24  112.92
   3  -2   5 1176.76   17.15
  -3  -2  -5 1169.76   21.39
   3  -2   5 1143.25   21.58
  -3   0   8  357.72   15.03
  -3   0   8  332.28   12.80
  -4   1  -4  600.27   17.06
   4  -1   4  585.12   13.33
  -4  -1  -4  598.53   22.18
  -4   1  -4  598.43   17.12
   4  -1   4  594.35   17.08
   4   1   4  580.28   23.96
   4   1   4  615.28   17.33
  -4  -1  -4  597.37   17.08
  -3  -5   3  126.19   14.09
   5   1  -6    0.81    7.85
   3   5  -3  141.64    8.77
  -3   5   3  126.83    6.70
  -5   1   6    6.53    5.89
  -5  -1   6    3.18    4.69
   5  -1  -6    5.07    2.71
  -3   5   3  126.31    6.41
   3  -5  -3  141.83    9.36
   3  -5  -3  108.53   10.64
  -5   1   6   12.79   11.75
   5   1  -6    5.60    2.61
  -3  -5   3  132.11   10.66
   5  -1  -6    3.11    3.34
   3   5  -3  138.71   16.12
  -5  -1   6    8.65   13.51
   0   6   1    8.97    7.58
   0  -6   1    5.54   12.22
   0   6  -1    4.05    6.73
   0   6   1   15.96    7.30
   0   6  -1    5.75    5.65
   0  -6  -1   -0.99    6.26
   0  -6   1    4.75    5.87
   0  -6  -1    9.92   11.61
   5  -1   2    2.72    6.85
  -5  -1  -2    4.69    9.74
  -5  -1  -2   -7.70    7.10
  -5   1  -2   -3.71   11.39
   5   1   2    5.16    7.05
   5   1   2   -0.39   10.33
  -5   1  -2    3.17    4.25
   5  -1   2   -4.32    4.73
   4   4   1 6596.90   78.52
  -4  -4  -1 6538.95   86.02
   4   4   1 6541.38   83.50
   4  -4   1 6530.72   77.71
  -4  -4  -1 6630.05   77.94
  -4   4  -1 6569.03   77.49
  -4  -3   6 2212.98   26.10
  -4   3   6 2225.50   35.77
  -4   3   6 2055.37   26.32
   4  -3  -6 2153.49   29.63
   4   3  -6 2138.62   24.51
   4   3  -6 2229.34   33.32
  -4  -3   6 2183.43   33.31
   4  -3  -6 2175.58   28.06
   0  -4   6  481.82   11.45
   0  -4   6  452.40   15.60
   0   4   6  475.79   12.05
   0  -4   6  468.18    9.55
   0  -4  -6  474.55   12.86
   0  -4   6  469.80   14.11
   0   4   6  487.96   21.12
   0  -4  -6  462.93   19.55
   1   2   7  -11.06    5.18
   1  -2   7    0.62    5.33
  -1   2  -7    0.85    4.07
  -1  -2  -7   -5.32    7.14
  -1  -2  -7    4.31    5.51
   1   2   7    2.32    7.55
   1  -2   7   -3.01    5.10
  -1   2  -7   -4.18    6.43
   1   6   014177.84  150.29
   1  -6   014778.85  141.96
  -3   1   815240.89  171.27
   1  -6   014327.85  158.95
  -1  -6   014362.54  159.38
  -1  -6   014577.39  158.30
  -1   6   014232.88  157.36
  -3   1   815392.95  169.24
   1   6   014267.48  165.61
  -1   6   014520.22  141.12
  -3  -1   815714.02  186.38
  -3  -1   815409.75  169.81
   1   6  -1 2307.94   39.69
  -1  -6   1 2380.09   33.67
  -1   6   1 2372.00   33.14
   1  -6  -1 2400.51   33.70
  -1  -6   1 2371.01   33.23
  -1   6   1 2345.91   27.09
   1  -6  -1 2416.32   26.19
   1   6  -1 2320.06   28.39
   3  -5   1  505.33   25.07
   0   0   827435.25  308.16
  -3  -5  -1  497.28   16.25
   3   5   1  460.78   23.98
   0   0   827504.40  293.91
  -3  -5  -1  480.43   15.21
   0   0  -826688.05  285.18
   3   5   1  516.44   15.20
   0   0  -826431.50  295.40
   3  -5   1  469.90   14.27
   5   3  -4 5414.79   58.09
  -5  -3   4 5617.45   60.47
  -5   3   4 5421.97   59.08
   5   3  -4 5467.75   66.85
  -5   3   4 5450.68   62.51
  -5  -3   4 5550.75   77.61
   5  -3  -4 5469.13   68.17
   5  -3  -4 5523.83   59.80
   1   5   415737.72  174.25
   1   5   415714.59  173.86
  -1  -5  -415701.54  182.47
   1  -5   416152.11  181.48
  -1  -5  -416046.13  174.57
   1  -5   415730.83  183.34
   1  -5   416250.42  157.37
   1  -5   416528.72  164.89
   4  -2  -7  130.00    4.15
  -4   2   7  128.02   14.21
   4   2  -7  133.67   12.57
   4  -2  -7  132.67    6.88
  -4  -2   7  130.92    3.90
  -4  -2   7  133.14   19.70
  -4   2   7  150.10   10.74
  -5   3   013348.12  150.71
   5   3   013079.64  148.42
   5  -3   013150.66  157.15
  -5   3   013438.04  133.27
  -5  -3   013344.82  149.15
  -5  -3   013287.11  150.35
   5   3   013062.36  145.87
   5  -3   013495.47  134.39
   0  -3   7   34.55    6.43
   0  -3   7   38.41    4.90
   0   3   7   49.78    6.09
   0  -3  -7   45.12    6.61
   0  -3   7   52.95    7.67
   0  -3  -7   43.14    8.81
   0  -3   7   48.39    5.54
   0   3   7   30.17   14.93
   2  -5   3 4931.31   40.59
   2   5   3 4762.11   57.91
  -2  -5  -3 4709.92   57.73
  -2  -5  -3 4787.04   64.07
   2   5   3 4705.77   56.70
   2  -5   3 4739.33   67.22
   2  -5   3 4791.99   55.98
   2  -5   3 4885.33   40.84
  -6   0   2 5061.05   58.97
  -6   0   2 5064.49   66.90
   6   0  -2 5094.41   59.34
   6   0  -2 4942.57   58.35
  -6   0   3   -5.36    6.36
   6   0  -3   -8.62   10.01
  -6   0   3   -5.28   11.80
   6   0  -3   -2.73    6.99
  -3  -3   7  887.56   12.07
   3  -3  -7  882.09   16.49
  -3   3   7  899.54   11.99
  -3  -3   7  871.42   10.25
  -3  -3   7  904.45   20.17
  -3   3   7  823.13   22.03
   3  -3  -7  851.75   11.92
  -1   6  -1 2620.51   25.53
   1  -6   1 2656.59   36.23
   1  -6   1 2705.75   25.70
   1   6   1 2652.17   43.93
  -1  -6  -1 2677.13   37.19
  -1  -6  -1 2687.82   37.80
   1   6   1 2636.63   32.95
  -1   6  -1 2673.34   43.06
  -4   3  -3  923.55   21.33
   4   3   3  858.82   20.25
  -4  -3  -3  865.83   20.43
  -4   3  -3  877.59   10.93
  -4  -3  -3  899.51   21.18
   4  -3   3  891.81   11.90
   4  -3   3  896.62   20.74
   4   3   3  854.67   30.27
   2  -2  -8  753.32   12.24
  -2  -2   8  781.99   16.55
  -2  -2   8  803.33    8.43
  -2   2   8  799.59   11.75
  -2  -2   8  796.83    8.98
  -2   2   8  759.70   17.31
   2  -2  -8  757.79   23.63
  -2  -2   8  820.52   19.41
   0  -1   8 2367.70   29.33
   0  -1  -8 2255.15   25.94
   0   1   8 2378.75   26.24
   0   1   8 2368.48   33.48
   0  -1  -8 2284.76   39.87
   0  -1   8 2321.98   31.88
   0   1  -8 2332.73   31.38
   0   1  -8 2264.04   25.08
   0   6   2  330.06    9.78
   1   5  -5    6.28    4.70
   1   5  -5    0.93    4.85
   0  -6  -2  342.57   13.07
   0   6  -2  330.69   10.32
   1  -5  -5   -0.16    7.96
   0  -6   2  342.17   13.06
   0   6  -2  329.20   12.52
   0  -6  -2  344.74   20.54
  -1  -5   5    1.04    8.19
  -1   5   5    6.30    5.59
   0   6   2  346.13   13.20
  -1  -5   5    7.41    5.31
   0  -6   2  334.24    7.41
   1  -5  -5    2.42    5.95
  -1   5   5    0.13    5.97
  -1  -6   2  823.59   17.89
   1   6  -2  839.55   14.21
  -1   6   2  837.23   16.07
   1  -6  -2  877.72   14.84
   1   6  -2  847.64   17.53
  -1  -6   2  875.58   14.59
   1  -6  -2  871.58   18.61
  -1   6   2  808.66   25.04
  -1   2   8 5136.96   61.21
  -1  -2   8 5111.15   58.78
  -1  -2   8 5311.57   50.03
  -1   2   8 5246.04   54.41
   1  -2  -8 5138.54   67.75
   1  -2  -8 5082.82   50.87
  -1  -2   8 5154.16   62.07
  -1  -2   8 5238.64   50.32
   3   4  -6   -2.59    5.54
  -3  -4   6    3.30    5.68
   3  -4  -6   -0.54    6.19
   3  -4  -6   -0.69    3.58
  -3   4   6    1.58    6.75
   3   4  -6    2.56    4.22
  -3  -4   6   -1.15    7.12
  -3   4   6    2.36    7.53
   6  -1  -2 6087.25   73.78
   6  -1  -2 5908.28   76.52
  -6  -1   2 6050.49   69.45
  -6  -1   2 6001.06   71.39
  -6   1   2 5969.55   73.08
   6   1  -2 6022.89   69.79
  -6   1   2 5992.01   69.33
   6   1  -2 6077.71   71.90
  -6  -1   3 2956.51   40.68
   6   1  -3 2900.30   43.32
   6  -1  -3 2926.91   43.83
  -6  -1   3 2929.91   37.21
   6   1  -3 2964.94   40.56
  -6   1   3 2913.35   43.78
  -6   1   3 2876.97   36.41
   6  -1  -3 2855.78   43.73
   6   0  -1    0.02    7.14
  -6   0   1   -3.34    6.63
  -6   0   1    1.46    5.88
   6   0  -1    3.40    6.32
   3   5  -4  215.96    8.89
   3  -5  -4  200.11   15.42
   3  -5  -4  201.88    5.94
  -3  -5   4  196.45    9.42
  -3   5   4  194.03    9.74
  -3  -5   4  213.43   12.07
  -3   5   4  185.87    6.09
  -6   0   4  641.73   17.00
   6   0  -4  677.41   17.08
  -6   0   4  688.30   13.97
   6   0  -4  648.91   13.85
  -4   2  -4 6963.16   75.90
   4   2   4 7105.61   91.80
  -4   2  -4 7079.08   82.96
  -4  -2  -4 7006.90   80.75
   4  -2   4 7128.11   74.43
  -4  -2  -4 7064.28   83.07
   4   2   4 7176.31   84.27
   4  -2   4 7021.18   83.13
  -5   2   6 6362.78   79.45
  -5   2   6 6369.62   75.21
   5   2  -6 6480.27   77.82
   5  -2  -6 6267.47   63.86
   5  -2  -6 6339.14   66.10
  -5  -2   6 6376.62   76.69
  -5  -2   6 6479.83   65.65
   5   2  -6 6403.34   64.10
   4   4  -5  792.70   17.05
   4  -4  -5  756.48   21.43
   4   4  -5  736.55   19.32
  -4   4   5  780.42   12.46
  -4  -4   5  790.34   19.85
   4  -4  -5  780.77   19.20
  -4   4   5  758.69   13.64
  -4  -4   5  806.35   13.74
  -2  -5   5 4173.07   49.52
  -2  -5   5 4165.64   46.44
  -2   5   5 4082.65   53.34
   2  -5  -5 3992.79   53.41
   2   5  -5 4050.33   54.21
   2   5  -5 3941.01   49.22
  -2   5   5 4058.43   44.96
   2  -5  -5 4087.22   48.64
   0   5   5 3002.35   38.11
   0  -5   5 3085.37   35.64
   0  -5   5 2977.99   38.39
   0   5   5 3049.25   38.61
   0  -5   5 2983.14   41.71
   0  -5   5 3028.83   37.72
   0  -5  -5 2897.96   45.29
   0  -5  -5 3013.86   37.56
  -5  -2  -2 6165.15   83.95
  -5   2  -2 6045.20   73.32
   5  -2   2 6156.35   64.30
   5   2   2 6170.46   74.44
   5   2   2 6199.04   74.29
  -5   2  -2 5969.95   65.88
  -5  -2  -2 6106.49   72.17
   5  -2   2 6189.75   74.97
  -2   0  -7    0.37    6.33
  -2   0  -7    5.91    5.96
   2   0   7    0.98   12.19
   2   0   7   16.79   10.73
   6   1  -1   44.46    9.40
  -6  -1   1   38.51   15.06
  -3   0  -6 7204.72   80.29
  -3   0  -6 7167.10   81.96
  -6   1   1   30.73   15.16
  -6   1   1   31.41    7.28
   3   0   6 7292.43   81.77
   6  -1  -1   34.56    9.48
   6   1  -1   50.62   15.87
   3   0   6 7318.60   91.13
   6  -1  -1   26.34    7.33
   2   4   5  282.22   21.87
  -2  -4  -5  272.83   13.25
   2  -4   5  269.52   11.19
   2  -4   5  286.37    9.17
   2   4   5  303.04   12.76
  -2  -4  -5  281.89   13.23
   2  -4   5  284.81    7.15
   2  -4   5  295.31   19.47
  -6  -1   4 1517.29   36.23
   6  -1  -4 1527.01   28.51
  -6  -1   4 1522.03   27.74
   6   1  -4 1519.98   26.91
   6   1  -4 1520.81   21.89
  -6   1   4 1519.58   28.59
  -6   1   4 1503.43   24.25
   6  -1  -4 1543.03   24.25
  -3  -2   8    5.06    7.59
  -3   2   8   17.58    7.36
  -3  -2   8    4.44    9.13
   3  -2  -8   17.08    4.06
   3  -2  -8   13.49    4.11
  -3   2   8   10.73    8.56
   5  -3  -5 5388.76   59.69
  -5  -3   5 5457.66   62.27
  -5  -3   5 5480.01   68.39
   5   3  -5 5476.34   78.38
  -5   3   5 5384.95   57.27
  -5   3   5 5371.41   64.69
  -2  -6   1   -1.87    7.30
   5  -3  -5 5426.63   62.48
   2  -6  -1    7.15    7.05
  -2  -6   1    7.17    6.04
   2   6  -1    1.91    6.82
  -2   6   1    3.47    2.54
  -2   6   1    4.39    7.19
   5   3  -5 5346.39   55.74
   2  -6  -1    1.54    2.07
   2   6  -1   12.20    6.10
   2   3   6  776.59   17.04
   2  -3   6  779.47   24.09
  -2  -3  -6  738.32   17.40
   2   3   6  767.74   19.82
  -2  -3  -6  765.16   18.47
  -2   3  -6  743.43   12.42
   2  -3   6  763.57   16.97
  -2   3  -6  745.05   23.43
  -4   0   8  114.19   12.33
  -4   0   8  104.10   16.71
  -4  -4  -2 6677.86   89.40
  -4  -4  -2 6713.87   89.48
  -4   4  -2 6797.07   81.47
   4  -4   2 6679.66   80.59
   4  -4   2 6897.45   59.93
   4   4   2 6678.91   91.39
   4   4   2 6638.20   78.66
   5   0  -7   -0.71    1.80
  -1  -6  -2 2797.36   39.20
   1   6   2 2751.66   37.64
  -5   0   7   -6.87    8.17
  -5   0   7   11.09    6.76
   1  -6   2 2861.21   27.16
   5   0  -7    2.28    2.29
  -1  -6  -2 2859.59   41.04
   1   6   2 2853.96   42.82
   1  -6   2 2845.08   46.04
   3  -5   2 2104.59   30.80
   3  -5   2 2075.75   42.85
   3   5   2 2130.41   40.17
  -3  -5  -2 2133.62   33.22
   3   5   2 2085.39   32.64
  -3  -5  -2 2130.64   32.07
  -5   3  -1   17.40   15.46
   5  -3   1   -0.60    2.83
  -5  -3  -1   13.27    9.51
   5   3   1    3.02    7.79
  -5  -3  -1   15.92   15.93
   5  -3   1   -4.18    7.55
   2   6   0  121.02    9.40
  -2  -6   0  106.81    9.18
  -2  -6   0  101.24   17.87
   2  -6   0  111.46   10.88
   2  -6   0   94.24   12.20
   2   6   0  104.62   10.63
  -2  -1  -7   -0.61   10.70
   2  -1   7    8.28    8.74
   2   1   7    1.20   10.59
   2   1   7   -3.79    5.34
  -2   1  -7    3.98    5.62
  -2  -1  -7   -1.24    9.61
   2  -1   7   -0.73    5.43
  -2   1  -7    2.06    5.77
  -3  -1  -6 6615.48   75.81
   3   1   6 6785.93   78.94
   3  -1   6 6853.20   79.09
   3  -1   6 6792.54   75.24
  -3  -1  -6 6628.05   84.85
  -3   1  -6 6559.79   83.33
  -3   1  -6 6490.22   71.65
   3   1   6 6799.36   78.40
  -5   0  -3   -1.82    8.21
  -5   0  -3    4.12    5.97
   5   0   3    7.07   13.32
   5   0   3   -1.05   10.67
   1  -4   619759.91  213.07
   1   6  -3  697.79   15.52
   1   6  -3  672.89   12.70
  -1  -4  -619533.51  217.13
  -1  -6   3  657.38   22.67
   1  -6  -3  657.23   14.89
  -1  -4  -619679.73  219.73
   1  -6  -3  677.25   23.90
  -1   6   3  697.61   16.52
  -1   6   3  676.67   12.19
   1  -4   619751.59  205.17
   1  -4   619648.30  216.71
   1  -4   619294.19  210.16
   1   4   619310.33  217.26
   1   4   619638.30  215.94
  -1  -6   3  677.65   17.94
   2   6  -2 6029.75   75.98
   3   3   5   54.57   11.24
  -3  -3  -5   54.45   16.08
  -3   3  -5   41.24    7.36
   3  -3   5   55.87    5.38
  -3   3  -5   57.68   15.38
   2  -6  -2 5892.95   69.26
   3  -3   5   57.07    9.99
   3   3   5   60.52    9.73
  -2   6   2 5977.20   58.60
   2   6  -2 5823.69   72.51
  -2   6   2 5960.54   70.39
  -3  -3  -5   28.74   16.26
   2  -6  -2 6049.20   57.23
  -2  -6   2 6079.18   70.91
  -2  -6   2 6150.91   69.13
  -6   0   0 3483.48   46.22
  -6   0   0 3419.42   43.08
   6   0   0 3549.64   56.67
   6   0   0 3555.34   52.36
   0  -6  -3  122.39   10.86
   0   6  -3  140.92   15.44
   0   6  -3  117.03    5.34
   0  -6   3  133.48    8.76
   0   6   3  101.42   10.54
   0  -6  -3  103.66    7.44
   0  -6   3  125.96   10.00
   0   6   3  111.09    8.48
  -3   4  -4 9660.30  111.21
   0   2  -8 5367.37   59.05
   0   2   8 5414.67   56.87
  -3  -4  -4 9816.53  113.07
   0  -2   8 5343.63   60.73
   0   2  -8 5281.24   60.65
  -3   4  -4 9977.64   95.20
  -3  -4  -4 9964.16  113.50
   3   4   410066.91  114.44
   0  -2  -8 5302.07   61.43
   3  -4   410007.54  115.24
   3  -4   410300.23   99.26
   0   2   8 5349.29   65.20
   0  -2  -8 5454.26   72.94
   0  -2   8 5439.69   59.86
   3   4   410145.52  117.68
  -4   1   8 4785.98   60.25
  -4  -1   8 4714.07   57.32
  -4  -1   8 4728.31   71.11
  -4   1   8 4716.39   56.22
  -6   0   5   -3.47    7.54
  -6   0   5   -1.96    4.61
   6   0  -5   -3.54   11.43
   6   0  -5    2.55    6.85
   5  -1  -7  392.74    8.82
  -5   1   7  398.12   14.90
   5   1  -7  425.73   25.02
  -5   1   7  398.84   12.67
   5  -1  -7  383.16    7.70
  -5  -1   7  385.77    7.02
  -5  -1   7  355.10   25.32
   6   2  -2    9.28    7.03
   6   2  -2   12.62   14.42
  -6   2   2   -2.43   11.73
   6  -2  -2    3.31    5.15
   6  -2  -2   -2.45   12.29
  -6  -2   2    4.81    7.04
  -6  -2   2   11.74   13.97
  -6   2   2    1.46    8.15
   6  -2  -3  496.98   14.78
  -4   5   210190.85   88.98
   4   5  -2 9869.15  109.47
  -4   5   210136.70   89.96
  -6   2   3  494.13   12.07
   6   2  -3  476.40   13.52
   4  -5  -2 9825.39  109.85
  -6  -2   3  508.33   20.40
   4  -5  -210014.48  124.02
   6   2  -3  535.97   17.64
  -6  -2   3  471.80   17.74
  -4  -5   210041.51  116.53
  -6   2   3  498.47   14.56
   6  -2  -3  498.39   17.45
   4   5  -2 9812.72  113.38
  -4  -5   210038.39  112.03
  -5   1  -3 1590.45   22.77
  -4  -5   1 1046.23   29.55
   4  -5  -1 1031.04   22.81
   4   5  -1 1047.46   32.20
   5   1   3 1634.13   29.10
  -4  -5   1 1020.49   22.85
   4  -5  -1 1022.65   20.31
  -5  -1  -3 1662.74   29.20
   5   1   3 1597.46   27.29
   5  -1   3 1551.58   38.94
  -5  -1  -3 1610.36   26.39
  -5   1  -3 1596.64   38.60
   5  -1   3 1597.75   29.93
   4   5  -1 1065.59   20.72
   1   3   7 2966.28   50.81
  -1   3  -7 2915.31   34.52
   1   3   7 2974.57   36.78
   1  -3   7 2973.19   43.15
  -1  -3  -7 2864.74   36.63
  -1  -3  -7 2926.11   39.66
  -1   3  -7 2935.72   36.10
   1  -3   7 3012.30   40.39
   6  -1   0  513.86   13.36
   2   6   1   51.35    9.01
   6   1   0  517.67   16.73
  -6  -1   0  493.39   25.61
  -6   1   0  506.30   18.45
   2   6   1   31.51   15.66
  -2  -6  -1   58.46   16.98
  -2  -6  -1   46.65   13.57
   2  -6   1   45.21   11.11
   6  -1   0  527.66   17.50
   6   1   0  536.89   17.22
  -6   1   0  516.96   17.25
   2  -6   1   47.50    9.60
  -6  -1   0  484.77   16.14
  -5   4   2  213.81    6.39
   5  -4  -2  222.76   17.57
   5   4  -2  224.79   14.90
  -5  -4   2  234.37   18.74
   5   4  -2  234.80   17.37
  -5   4   2  224.88    7.37
   5  -4  -2  243.71   13.08
  -5  -4   2  231.05   14.62
   1   0   8  644.53   16.83
   1   0   8  665.82   13.20
  -1   0  -8  623.82   16.31
  -1   0  -8  633.28   12.87
  -4   0  -5    5.63    6.64
  -1  -4   7   72.91   11.13
   4   0   5  -12.98    8.23
  -1  -4   7   69.55    8.52
  -4   0  -5   -3.79    5.23
   4   0   5    0.86    7.25
  -1  -4   7   50.31    9.74
  -1   4   7   53.96    9.05
  -1  -4   7   84.35   13.89
  -1   4   7   70.06    6.94
   1  -4  -7   50.89    8.90
   1  -4  -7   73.02    7.40
   6   1  -5 1430.29   19.68
  -6   1   5 1453.55   32.20
  -6  -1   5 1467.12   24.74
   6  -1  -5 1441.21   24.33
   6   1  -5 1511.53   36.53
  -6  -1   5 1506.45   27.43
  -6   1   5 1485.17   20.78
   6  -1  -5 1409.11   20.13
  -2  -4   7   73.80    9.00
  -2  -4   7   88.11    8.14
   2  -4  -7   88.39   10.75
   2  -4  -7   64.52   13.39
  -2  -4   7   75.30    7.54
  -2   4   7   72.63   13.71
  -2   4   7   69.38    9.92
  -2  -4   7   89.08   16.11
  -4   3   7  121.80   10.17
  -4  -3   7  118.20   12.80
   4   3  -7  117.46    5.59
  -4  -3   7  114.20    4.45
   4   3  -7  126.33   12.24
   4  -3  -7  107.19    8.32
  -4   3   7  103.87   13.55
   4  -3  -7  105.74    9.41
  -5  -4   3  131.49   14.41
  -5   4   3  166.96    4.81
  -5  -4   3  164.49   10.64
   5  -4  -3  149.36    9.83
  -5   4   3  176.09    8.63
   5   4  -3  150.71   13.95
   5   4  -3  160.30   15.27
   5  -4  -3  150.96   11.56
  -3  -5   5 1172.98   30.82
   2  -5   4 2043.12   32.28
  -2  -5  -4 2037.57   31.86
   2   5   4 2000.16   30.69
   2  -5   4 2090.10   20.56
  -3   5   5 1181.91   25.16
  -2  -5  -4 1981.13   30.04
   2  -5   4 2110.41   21.73
  -3   5   5 1125.30   16.29
   3  -5  -5 1133.64   19.25
   2  -5   4 2116.09   30.13
   3   5  -5 1091.04   21.31
   3   5  -5 1153.86   22.48
  -3  -5   5 1160.78   24.01
   3  -5  -5 1161.91   19.93
   2   5   4 1973.61   40.68
   5  -4  -1  257.87   22.12
  -5  -4   1  255.22   24.19
   5   4  -1  274.85   24.42
   5   4  -1  270.00   19.60
  -5   4   1  277.44    5.67
   5  -4  -1  267.01   12.54
  -5  -4   1  302.13   13.93
   4   5  -3 6709.39   75.45
  -4   5   3 6600.91   62.90
   4   5  -3 6672.45   79.63
  -4  -5   3 6707.21   83.78
  -4  -5   3 6855.41   92.11
   4  -5  -3 6590.49   75.48
  -4   5   3 6685.48   64.47
   4  -5  -3 6667.56   79.04
   6  -2  -1   90.77   11.11
   6   2  -1   65.92   10.47
  -6  -2   1   65.58   10.92
  -6   2   1   91.87   11.33
  -6  -2   1   62.49   11.80
   6   2  -1   65.65   11.97
   6  -2  -1   71.32    6.71
  -6   2   1  115.45   11.35
   2   6  -3  946.82   25.05
  -2  -6   3  970.16   18.42
  -2   6   3  961.01   13.15
  -2   6   3  934.53   19.25
  -2  -6   3  963.96   18.95
   2   6  -3  965.22   17.60
   2  -6  -3  950.62   19.60
   2  -6  -3  970.74   12.30
   6  -2  -4 1162.83   20.19
  -6  -2   4 1188.06   19.41
  -6  -2   4 1172.74   24.83
  -6   2   4 1212.16   26.96
  -6   2   4 1107.48   19.21
   6   2  -4 1191.28   18.98
   6  -2  -4 1182.91   19.43
   6   2  -4 1226.50   25.27
   1  -5   5  438.57   14.60
   1  -5   5  441.65   12.09
   1  -5   5  399.31   12.55
  -1  -5  -5  390.17   21.03
  -1  -5  -5  399.27   14.76
   1   5   5  447.91   14.90
   1  -5   5  430.65   10.35
   1   5   5  427.55   14.41
  -2   0   9   -1.28    8.85
  -2   0   9   -6.34    7.50
  -2   3   8 4091.43   44.70
  -2  -3   8 4052.56   41.07
  -1   1  -8    0.31   11.21
   1  -1   8    1.42   10.25
  -1  -1  -8    8.71    9.21
  -1  -1  -8   15.71    8.01
  -2  -3   8 4061.07   51.80
   2  -3  -8 4106.69   57.43
  -1   1  -8    2.89    8.78
   2  -3  -8 3946.82   40.99
   1   1   8    3.15    4.95
  -2   3   8 3981.39   49.66
   1   1   8    6.75    7.37
   1  -1   8   -1.01    4.96
  -2  -3   8 4045.95   49.07
  -2  -3   8 4113.66   40.11
   4  -5   0 4578.10   59.42
  -4  -5   0 4824.41   60.38
  -4  -5   0 4716.44   70.34
   4  -5   0 4655.85   56.96
   4   5   0 4610.27   59.11
   4   5   0 4543.20   56.40
   4  -1   5  154.79   10.04
   4  -1   5  143.58   12.91
  -4   1  -5  186.29    9.23
   4   1   5  183.69   19.39
  -4   1  -5  174.21   20.48
  -4  -1  -5  166.02   13.20
   4   1   5  177.20   20.12
  -4  -1  -5  152.97   11.55
  -1  -3   8 1530.18   21.66
   1  -3  -8 1491.49   19.97
  -1  -3   8 1533.79   20.07
  -1  -3   8 1515.29   25.70
  -1   3   8 1524.51   23.20
  -1   3   8 1487.09   25.69
   1  -3  -8 1534.74   32.84
  -1  -3   8 1460.29   29.14
   2   2   7 2377.37   32.86
   2  -2   7 2380.61   32.83
   2   2   7 2454.35   45.38
  -2  -2  -7 2242.05   31.99
  -2  -2  -7 2312.30   33.94
  -2   2  -7 2283.82   29.57
   2  -2   7 2331.71   30.31
  -2   2  -7 2363.85   32.24
  -3   2  -6 2388.31   34.40
  -3  -2  -6 2478.73   43.93
  -3  -2  -6 2386.44   35.16
   1   6   3   43.72   10.02
   1  -6   3   59.13    9.66
   3  -2   6 2466.84   36.82
   3  -2   6 2493.78   35.86
  -3   2  -6 2443.17   35.39
  -1  -6  -3   60.22    7.90
  -1  -6  -3   51.53   10.55
   4   4  -6 7491.28   75.71
  -4   4   6 7499.48   85.08
   3   2   6 2550.60   37.81
  -4  -4   6 7606.65   90.51
   1  -6   3   68.82   11.07
   3   2   6 2527.81   44.12
   1  -6   3   59.08    4.77
   1   6   3   57.17    9.18
   4   4  -6 7432.99   88.68
   4  -4  -6 7476.67   81.63
   4  -4  -6 7488.96   84.24
  -4   4   6 7534.58   82.68
  -4  -4   6 7805.70   79.32
   1   0  -9   -0.32    7.02
  -1   0   9   -0.78    3.32
  -1   0   9   -0.07    6.72
   1   0  -9    3.35    3.97
  -4  -3  -4 1620.13   38.91
  -4   3  -4 1530.83   21.14
   4   3   4 1645.37   40.17
  -2   1   9   20.96   14.18
  -4  -3  -4 1602.46   37.47
   2  -1  -9   18.39    3.14
  -2  -1   9   28.27   10.13
  -2  -1   9   19.22    8.56
   4   3   4 1673.73   28.75
  -4   3  -4 1558.03   28.19
  -2   1   9   18.99    2.71
   4  -3   4 1569.65   28.76
   2  -1  -9    8.78   14.17
   4  -3   4 1685.10   24.16
  -5  -3   6  966.58   13.94
   5   3  -6  963.03   23.25
   5  -3  -6  953.85   15.79
   5   3  -6  933.49   13.08
   5  -3  -6  981.12   18.93
  -5  -3   6  968.50   23.63
  -5   3   6  930.47   17.72
  -5   3   6  968.81   16.34
  -1  -5   6 1263.78   18.97
   1  -5  -6 1224.21   20.34
  -1   5   6 1248.90   20.45
  -1  -5   6 1200.39   19.59
  -1  -5   6 1214.56   17.70
   1  -5  -6 1224.83   27.53
  -1   5   6 1266.63   28.30
  -1  -5   6 1256.66   20.32
   4  -2  -8  375.60    7.63
  -4  -2   8  364.45   16.59
  -4  -2   8  383.42   14.53
   4  -2  -8  383.14    7.81
  -4   2   8  359.73   19.98
  -4   2   8  366.46   15.15
  -5  -4   414202.40  153.73
  -5   4   413734.22  140.90
   5  -4  -413586.97  152.15
   5   4  -413885.12  170.73
  -5  -4   413775.26  159.93
   5  -4  -413790.85  150.09
  -5   4   413795.90  139.08
   5   4  -413861.33  154.89
   5   2  -7  369.31    5.65
  -5  -2   7  379.38    8.52
  -5   2   7  356.68   21.58
  -5  -2   7  339.67   26.81
   5   2  -7  375.81   26.21
   5  -2  -7  377.26    7.83
   5  -2  -7  361.04    9.76
  -5   2   7  381.69   12.47
  -5  -4   0  132.77   13.41
   6   0   1   -8.42   14.85
   5  -4   0  116.55   12.97
  -6   0  -1    3.43    6.46
  -5   4   0  113.11   12.99
   6   0   1   -3.66   12.07
  -6   0  -1   -4.96   13.82
  -5  -4   0  110.30   12.39
   5  -4   0  120.65    4.42
   5   4   0  111.84   11.59
   5   4   0  135.11   13.69
   0  -4   7 1174.17   18.92
   1  -6  -4  215.87   11.99
   0   4   7 1138.29   19.14
  -1  -6   4  171.38   10.59
  -1   6   4  202.68   11.70
  -1  -6   4  201.63   13.51
   1   6  -4  170.01   15.62
   1  -6  -4  205.48   18.46
   0  -4   7 1155.48   16.78
   0  -4   7 1155.16   18.42
   1   6  -4  180.13   12.85
   0  -4   7 1143.22   21.77
   0  -4  -7 1107.27   26.00
   0   4   7 1156.99   22.67
  -1   6   4  216.75   13.48
   0  -4  -7 1191.74   29.35
  -3   0   9    7.00   12.05
  -3   0   9    0.75    8.87
  -5  -3  -2  246.17   15.12
   5  -3   2  239.23   15.27
  -5   3  -2  245.24    6.18
  -5  -3  -2  219.42   14.72
  -5   3  -2  271.93   15.49
   5  -3   2  244.10    6.92
   5   3   2  269.07   23.05
   5   3   2  237.15   15.67
   2  -6   2 2950.99   48.10
  -3  -5  -3 3986.98   52.99
   3  -5   3 3912.85   52.63
   2  -6   2 2904.45   42.64
  -3  -5  -3 3967.75   60.22
   3   5   3 3961.30   52.68
   3   5   3 3927.69   51.15
  -2  -6  -2 2918.59   41.53
   3  -5   3 3929.80   57.99
   2   6   2 2879.39   47.68
  -2  -6  -2 2872.44   38.30
   2   6   2 2882.07   40.17
   3   4  -7 2590.06   29.99
   2  -5  -6 9593.79  103.25
   3  -4  -7 2683.25   39.73
   3  -4  -7 2565.24   34.93
   2  -5  -6 9428.31  103.41
  -2   5   6 9642.14  105.00
  -3  -4   7 2709.44   39.15
   3   4  -7 2631.36   37.63
  -3  -4   7 2698.76   31.65
  -2  -5   6 9775.82  116.24
   2   5  -6 9629.10  105.38
  -2  -5   6 9710.40  106.94
  -2   5   6 9515.86  103.51
  -3   4   7 2652.59   40.69
   2   5  -6 9424.04  112.52
  -3   4   7 2691.35   31.09
   5   2   3 1477.74   38.17
  -5   2  -3 1435.86   23.86
  -5  -2  -3 1424.42   26.35
  -5  -2  -3 1428.65   28.30
   5   2   3 1465.59   28.38
   5  -2   3 1480.32   39.05
   5  -2   3 1491.16   20.93
  -5   2  -3 1424.09   27.68
  -6   0   6 8644.06  110.45
   6   0  -6 8835.64  102.60
  -6   0   6 8826.60   93.16
   6   0  -6 8528.05   90.40
   4   5  -4   32.92   10.13
   4  -5  -4   25.05    8.90
  -4  -5   4   33.57    7.75
  -4  -5   4   34.00   10.62
  -4   5   4   24.91    6.23
   4   5  -4   26.49   10.91
  -4   5   4   29.22    6.92
   4  -5  -4   32.42    7.86
   1  -1  -9 2551.12   36.80
  -1   1   9 2647.70   46.16
   1   1  -9 2584.48   35.73
  -1  -1   9 2687.23   36.97
  -1   1   9 2644.17   28.88
  -1  -1   9 2771.26   28.30
   1   1  -9 2668.16   27.73
   1  -1  -9 2548.34   29.24
  -6  -2   0  393.04   25.19
  -6   2   0  398.23   16.44
   6  -2   0  418.86   10.75
   6   2   0  335.87   26.01
   6  -2   0  423.08   16.93
  -6   2   0  393.00   10.34
  -6  -2   0  375.99   16.42
   6   2   0  420.69   16.36
   3  -3  -8 4345.45   43.64
  -3  -3   8 4386.76   66.48
  -3  -3   8 4352.93   53.13
  -3  -3   8 4412.89   40.68
  -3  -3   8 4363.17   41.13
  -3   3   8 4481.16   46.97
  -3   3   8 4250.97   51.75
   3  -3  -8 4506.47   53.91
   4   4   3  180.57   13.32
   4  -4   3  167.09   13.73
  -4  -4  -3  207.77   13.79
  -4  -4  -3  171.55   14.35
   4   4   3  149.68   14.84
  -4   4  -3  205.55   22.51
   0  -6   4 1050.69   14.45
   0  -6   4 1020.57   13.22
   0  -6  -4  990.21   21.05
   0  -6  -4 1061.17   18.06
   0  -6   4 1049.62   21.37
   0  -6   4 1028.99   26.33
   0   6   4 1072.26   20.76
   0   6   4  984.30   25.61
   6  -2  -5  226.93    9.82
   6   2  -5  264.79   23.93
   6   2  -5  227.42   12.91
   6  -2  -5  244.13   11.30
  -6   2   5  231.81   11.31
  -6  -2   5  238.07   15.52
  -6  -2   5  247.45   13.90
  -6   2   5  258.38    9.93
   3   6  -1   57.91    9.81
  -3  -6   1   45.10   15.97
   3  -6  -1   74.38   11.90
  -3  -6   1   54.94   10.67
   3  -6  -1   45.47   10.13
   3   6  -1   38.37   10.13
   6  -1   1 4801.70   61.74
   6   1   1 4685.76   59.10
   6  -1   1 4671.88   71.52
   6   1   1 4688.64   61.02
  -6   1  -1 4712.89   60.67
  -6  -1  -1 4756.67   71.40
  -6   1  -1 4610.25   53.39
  -6  -1  -1 4582.87   57.76
  -3  -1   9  176.07   14.15
  -3  -1   9  151.47   11.83
  -3   1   9  166.67   22.22
  -3   1   9  158.65   18.92
  -4  -5  -1  491.81   18.17
  -4  -5  -1  487.48   27.34
  -3  -6   2 4923.28   60.41
   3  -6  -2 4894.41   59.91
  -3   6   2 4836.25   42.21
   4   5   1  523.64   16.84
   3  -6  -2 4867.74   71.45
   3   6  -2 4887.45   59.62
   3   6  -2 4860.20   66.77
  -3  -6   2 4975.25   68.58
   4  -5   1  557.15   23.93
   4  -5   1  530.57   18.60
   4   5   1  464.28   18.59
  -6  -1   6 5504.53   56.36
   6  -1  -6 5486.30   74.39
   6   1  -6 5443.76   68.71
  -6   1   6 5403.51   65.75
  -6   1   6 5486.88   57.43
   6   1  -6 5408.79   58.84
  -6  -1   6 5425.94   79.04
   6  -1  -6 5384.94   60.99
   0  -5   6 3987.57   55.15
   0  -5  -6 3951.42   49.23
   0  -5   6 3974.59   45.97
   0  -5   6 3932.05   46.13
   0  -5   6 3921.89   48.76
   0  -5  -6 3922.53   48.15
   0   5   6 3811.61   48.68
   0   5   6 3912.13   47.79
   2   6  -4 1206.08   20.23
  -2   6   4 1236.87   17.15
  -2  -6   4 1240.41   21.15
   2   6  -4 1223.58   20.63
   2  -6  -4 1180.63   29.46
  -2  -6   4 1228.52   21.07
   2  -6  -4 1246.91   16.44
  -2   6   4 1272.36   29.20
   1  -2   8 8210.61   97.91
  -1  -2  -8 7959.83   92.40
   1   2   8 8116.43   95.74
   1  -2   8 8322.39   89.48
  -1  -2  -8 8063.94   88.50
  -1   2  -8 8091.24   89.25
   1   2   8 8355.15   96.46
  -1   2  -8 7768.02   90.30
  -3  -6   0  198.42   19.15
   3   6   0  149.74   18.91
   3  -6   0  129.22   11.86
   3  -6   0  136.87   14.03
  -3  -6   0  136.11   13.08
   3   6   0  143.63   12.03
   0  -3  -8 6531.73   77.31
   0  -3   8 6597.15   73.54
   0  -3  -8 6541.19   71.59
   0   3   8 6716.86   72.48
   0  -3   8 6833.39   78.79
   0  -3   8 6730.11   70.69
   0   3   8 6585.14   88.47
   0  -3   8 6802.65   73.30
  -4  -2  -5   91.19   18.05
   4   2   5  101.76   12.84
   4  -2   5   87.18   12.35
  -4   2  -5   84.60   11.83
   4   2   5   89.68   12.12
  -4  -2  -5   84.93   12.60
  -4   2  -5   98.12    7.17
   4  -2   5  101.34    8.03
   6   3  -2  905.20   22.97
  -6  -3   2  831.11   22.68
   6   3  -2  844.97   19.03
   6  -3  -2  859.90   13.62
  -6   3   2  873.70   29.09
  -6   3   2  821.95   17.48
   6  -3  -2  851.61   29.27
  -6  -3   2  858.83   19.47
  -6  -3   3   41.28   19.42
   6  -3  -3   33.06    5.77
   6  -3  -3   34.88    9.18
   6   3  -3   34.51    8.01
  -6  -3   3   52.64    8.80
   6   3  -3   33.48   11.94
  -6   3   3   28.11    5.89
  -6   3   3   32.27   14.92
  -5   0   8  776.39   31.40
  -5   0   8  753.34   18.12
   5   4  -5 3964.94   44.60
  -2   2   9  550.80    7.72
   5  -4  -5 4046.88   55.84
   5   4  -5 4041.66   54.90
  -2  -2   9  533.89    6.19
   5  -4  -5 4007.52   51.89
  -5   4   5 4045.07   43.56
  -2   2   9  505.60   16.51
   2  -2  -9  547.59   16.55
   2  -2  -9  513.30   10.56
  -2  -2   9  545.47   15.83
  -5  -4   5 4172.97   47.62
  -2  -2   9  576.91   27.35
   0   0  -9    4.28    8.11
  -2  -2   9  544.68    6.51
  -5  -4   5 4071.12   55.82
   0   0   9   -0.92    5.70
  -5   4   5 4030.99   45.29
   0   0  -9    8.89    6.97
   0   0   9    3.11    7.25
  -3   6   3   90.44    4.10
  -3  -6   3   81.88    9.98
   3   6  -3   52.69   14.90
  -3   6   3   82.71    4.06
   3  -6  -3   81.72   10.25
  -3  -6   3  101.33   10.78
   3  -6  -3   86.62   11.76
   3   6  -3   75.99   10.12
  -2  -4  -6 4499.46   56.85
   2  -4   6 4504.14   52.74
  -2  -4  -6 4523.82   66.86
   2  -4   6 4588.37   47.27
   2  -4   6 4493.61   55.90
   2   4   6 4533.79   56.21
   2  -4   6 4581.69   53.65
   2   4   6 4559.79   59.08
   5   0   4  210.10   12.44
  -5   0  -4  222.70   23.09
  -5   0  -4  209.76   11.18
   5   0   4  204.25   15.02
  -5  -4  -1 1631.53   30.35
   5  -4   1 1631.87   30.35
  -5  -4  -1 1614.86   30.34
   5  -4   1 1644.29   15.28
   5   4   1 1658.55   42.92
   5   4   1 1635.70   28.97
  -5   4  -1 1581.45   41.06
  -3  -5   6 8650.98   91.64
   3   5  -6 8324.31   96.70
  -3  -5   6 8622.39  100.54
   3   5  -6 8468.90   93.87
   3  -5  -6 8361.68   98.17
  -3   5   6 8709.85   95.46
  -3   5   6 8460.17   91.34
   3  -5  -6 8771.79   93.04
   5  -1  -8   -0.44    1.53
  -5   1   8 4595.01   68.90
  -5   1   8 4472.29   62.83
  -5  -1   8 4539.34   71.77
  -5  -1   8 4553.00   57.24
   6  -3  -1 1023.86   18.53
  -6  -3   1 1019.12   35.31
  -6  -3   1 1047.74   32.55
  -6   3   1 1065.18   23.32
  -6   3   1  989.71   18.08
   6   3  -1 1040.34   25.26
   6   3  -1 1039.33   22.28
   6  -3  -1  996.59   23.38
  -6  -3   4 9475.22  113.60
  -3  -4  -5  466.25   17.35
   6  -3  -4 9273.97  104.67
  -3   4  -5  450.90   10.70
  -3  -4  -5  464.22   25.13
  -3   4  -5  468.53   16.59
   3  -4   5  495.27   16.86
   3  -4   5  481.12    8.59
  -6  -3   4 9531.75  112.67
   3   4   5  511.76   18.92
  -6   3   4 9308.77   97.00
   3   4   5  480.23   16.58
   6   3  -4 9369.93  122.95
   6   3  -4 9321.75  102.02
  -6   3   4 9406.29  105.28
  -1  -2   9 2268.79   25.73
  -1  -2   9 2291.30   24.74
  -1  -2   9 2246.19   32.45
   1  -2  -9 2192.04   33.96
  -1   2   9 2221.22   43.63
  -1  -2   9 2274.85   35.41
   1  -2  -9 2219.60   24.92
  -1   2   9 2258.23   27.77
   0   1   9   38.76   17.25
   0   1  -9   49.60   14.68
   0  -1   9   42.16   15.20
   0   1   9   34.48    8.28
   0   1  -9   34.64    8.21
   0  -1   9   41.24    8.36
   0  -1  -9   41.27    9.92
   0  -1  -9   41.59    9.19
   3  -6   1    6.37    8.54
   3   6   1   -0.32    7.44
  -3  -6  -1   -3.81    7.60
  -3  -6  -1   -1.21    8.52
   3  -6   1   -9.33   11.87
   3   6   1    3.94   12.17
  -4   5   5   13.39    8.01
   4  -5  -5   13.67    7.18
   4  -5  -5   18.03   13.25
  -4   0   9   -3.53    7.18
   4   5  -5   18.64    6.05
  -4  -5   5   18.08   10.21
  -4   0   9    6.93    8.46
   4   5  -5   16.52    9.62
  -4  -5   5   13.14   15.81
  -4   5   5    9.57    4.48
   5  -1   4 3185.53   46.85
   1  -6   4   85.81   11.80
   5   1   4 3139.72   46.57
   1  -6   4   84.71   10.33
   5   1   4 3205.81   44.87
   1  -6   4   99.97    6.61
  -1  -6  -4  121.50   12.06
  -5  -1  -4 3193.54   46.36
   5  -1   4 3223.51   40.94
  -5   1  -4 3155.88   39.06
   1   6   4   81.61   11.16
  -5   1  -4 3191.72   57.31
  -5  -1  -4 3129.88   42.29
   1   6   4   90.18   10.80
  -1  -6  -4   88.83   15.47
   1  -6   4  100.26    5.54
  -6   2  -1 2704.37   31.93
   6   2   1 2689.24   41.14
   6   2   1 2662.09   40.75
  -6   2  -1 2738.58   41.88
   6  -2   1 2752.04   52.95
   6  -2   1 2713.61   38.47
  -6  -2  -1 2693.02   52.21
  -6  -2  -1 2624.54   39.68
  -3   2   9  613.84   16.88
  -3   2   9  574.81   19.19
  -3  -2   9  587.49   30.01
  -3  -2   9  608.42   17.62
   3  -2  -9  606.18    7.42
   2  -6   3 1241.02   23.41
   2  -6   3 1163.64   25.65
  -2  -6  -3 1181.97   25.01
  -2  -6  -3 1152.49   22.26
   2   6   3 1195.88   24.14
   2   6   3 1165.55   23.60
   2   3   7 2176.98   31.77
  -2   3  -7 2081.53   32.46
  -2   3  -7 2199.80   39.37
  -2  -3  -7 2163.90   32.30
   2  -3   7 2188.39   33.27
   2   3   7 2119.65   45.27
   2  -3   7 2188.15   32.09
  -2  -3  -7 2226.59   34.34
   3   0   7   -6.96    7.25
  -3  -3  -6 1546.49   36.53
  -3   3  -6 1467.29   19.61
   3   3   6 1540.46   26.66
  -3   0  -7   -5.04   12.49
  -3   0  -7   16.14   11.76
   3   3   6 1484.39   39.63
  -3   3  -6 1473.87   35.14
   3   0   7   11.71   11.69
   3  -3   6 1538.48   27.23
   3  -3   6 1505.49   20.65
  -3  -3  -6 1477.41   27.38
   2  -5   5 1040.63   23.05
   2   5   5 1122.88   34.43
   2  -5   5 1067.76   20.48
  -2  -5  -5 1065.34   23.52
   2   5   5 1034.96   22.43
   2  -5   5 1073.27   16.16
   2  -5   5 1080.81   12.69
  -2  -5  -5 1053.64   22.40
  -6  -2   6 6939.04   76.06
   6  -2  -6 6756.01   74.61
  -6  -2   6 6842.42   96.33
   6   2  -6 6727.20   68.78
  -6   2   6 6827.18   82.35
   6  -2  -6 6705.41   71.74
   6   2  -6 6806.00   84.34
  -6   2   6 6825.44   79.77
   0  -7   0    2.50    6.01
   0  -7   0    7.35    7.73
   0   7   0    0.02    3.93
   0   7   0   -0.04   12.30
   1  -4   7 3517.01   50.80
  -1  -4  -7 3470.83   46.57
   1  -4   7 3567.30   46.81
   1  -4   7 3442.01   41.04
   1   4   7 3475.13   43.71
   1   4   7 3418.65   47.58
   1  -4   7 3498.57   39.22
  -1  -4  -7 3465.81   52.63
  -6   0  -233803.62  398.73
  -6   0  -234441.04  395.98
   6   0   234524.99  409.56
   6   0   235273.83  407.91
   4  -3  -8  496.83    9.52
  -1   6   5    3.27   12.60
   4  -3  -8  503.95   12.01
  -1  -6   5    6.65    9.92
  -4   1   9 1250.67   26.78
  -4   3   8  485.27   21.17
  -1  -6   5   22.22   11.08
  -4   3   8  503.08   24.56
   1  -6  -5   15.81    8.26
  -4  -3   8  499.13    8.09
  -4  -1   9 1252.24   33.08
  -4  -1   9 1288.34   27.98
  -4   1   9 1269.35   24.05
   1  -6  -5   13.95    9.64
   1   6  -5   13.19    6.79
  -4  -3   8  460.67   19.06
   1   6  -5   10.01    5.83
  -4  -3   8  505.87    6.50
  -4  -5  -2 2575.80   39.48
   4  -5   2 2562.45   51.20
   4  -5   2 2582.33   37.62
   4   5   2 2569.52   38.93
  -4  -5  -2 2650.35   40.54
   4   5   2 2543.43   40.87
   5   3  -7  579.34   20.11
  -5   3   7  603.79   16.14
   5   3  -7  623.81   11.74
   5  -3  -7  606.21   11.88
  -5   3   7  582.33   14.06
   5  -3  -7  611.86   10.90
  -5  -3   7  600.46   20.88
  -5  -3   7  600.52   12.90
   2   0   8 6901.11   90.92
   2   0   8 6942.35   86.14
  -2   0  -8 6497.28   74.49
  -2   0  -8 6579.41   85.43
  -4   4   7 7536.86   83.49
   4   4  -7 7448.55   73.82
   4   4  -7 7520.85  101.16
  -4  -4   7 7878.23   78.34
   4  -4  -7 7552.29   84.28
  -4  -4   7 7587.71  102.93
   4  -4  -7 7587.64   87.33
  -4   4   7 7487.85   85.52
   0   7   1   10.37   12.81
   0   7   1    7.54    7.71
   0  -7  -1   -0.80    6.11
   0  -7   1   -3.36    7.92
   0  -7   1    3.20    5.92
   0  -7  -1    3.36    7.74
   0   7  -1   -0.88    5.63
   0   7  -1    6.93   11.27
  -6   0   7    1.02    4.97
   6   0  -7   -1.99    3.03
   6   0  -7  -10.54   14.16
  -6   0   7    8.76   14.05
  -3  -1  -7 4113.33   53.03
  -3   1  -7 4071.77   52.04
   3  -1   7 4341.74   54.56
   3   1   7 4306.36   66.18
  -3  -1  -7 4104.05   61.37
   3  -1   7 4274.98   59.59
   3   1   7 4237.56   54.07
  -3   1  -7 4137.77   50.02
  -3  -6   4  570.40   21.89
   3  -6  -4  503.92   15.33
   3   6  -4  514.43   14.12
  -3  -6   4  580.63   25.01
  -3   6   4  512.67   12.92
   3  -6  -4  551.77   12.02
  -3   6   4  536.37   15.60
   3   6  -4  536.23   15.71
  -5   3  -3   17.65   10.96
   5   3   3   14.39   10.51
  -5  -3  -3    8.02   11.06
  -5  -3  -3   23.72   10.10
  -5   3  -3   10.02    6.41
   5  -3   3    3.48    7.35
   5   3   3   18.28   10.13
   5  -3   3   10.75   10.60
   1  -5   6  315.00   20.90
   1   5   6  267.72   23.46
   1  -5   6  332.56   11.09
  -1  -5  -6  284.51   14.01
   1  -5   6  308.16    8.95
   1   5   6  301.53   20.30
   1  -5   6  322.58   11.58
  -1  -5  -6  320.65   21.24
  -6   3   0 2625.94   51.91
   6  -3   0 2631.63   32.75
   6   3   0 2586.02   49.55
  -6  -3   0 2639.16   50.73
  -6  -3   0 2640.49   41.09
  -6   3   0 2588.68   32.06
   6  -3   0 2592.99   40.95
   6   3   0 2622.25   53.17
   6   1   2  123.33   12.63
  -1   7   0 5324.91   75.27
  -6  -1  -2  122.32   18.50
   6  -1   2   98.07    9.77
   6  -1   2  133.31   14.39
   6   1   2  104.12   14.51
  -1  -7   0 5211.13   65.94
   1  -7   0 5217.60   65.41
  -1   7   0 5287.64   52.87
   1   7   0 5172.72   58.52
  -6   1  -2   95.50   13.83
   1  -7   0 5333.68   52.00
  -6  -1  -2  107.46   14.06
  -1  -7   0 5349.60   59.24
   1   7   0 5232.94   74.69
  -6   1  -2   97.13    8.80
  -2  -4   8 5291.73   68.47
   2  -4  -8 5273.41   63.00
  -1   7   1 3271.81   45.08
  -2  -4   8 5274.94   73.60
  -2  -4   8 5314.87   56.12
  -2   4   8 5235.40   71.91
   1  -7  -1 3303.03   45.77
   1   7  -1 3287.99   44.98
  -1   7   1 3236.47   36.66
  -1  -7   1 3340.40   55.35
   1   7  -1 3208.49   43.65
  -1  -7   1 3339.60   38.77
   1  -7  -1 3373.85   33.32
  -2   4   8 5339.29   57.28
   2  -4  -8 5182.79   61.42
  -2  -4   8 5258.78   57.47
  -3  -5  -4 1957.98   32.27
   3   5   4 1880.24   31.75
   3  -5   4 1965.48   30.16
   3  -5   4 1928.99   18.70
   3   5   4 1878.12   33.30
  -3  -5  -4 1824.47   33.01
   3  -5   4 1966.28   19.23
   3  -5   4 1888.43   32.94
  -6  -3   5  284.76   27.98
   2  -6  -5  141.22   11.60
   6   3  -5  273.78    9.63
  -6   3   5  264.71    9.23
   6  -3  -5  291.09   10.30
  -6   3   5  294.80   16.36
   2  -6  -5  141.44   11.00
  -6  -3   5  300.05   16.30
  -2  -6   5  108.54   10.25
  -2   6   5  127.19    8.17
   6  -3  -5  270.26   17.84
   2   6  -5  137.21   15.40
   2   6  -5  132.72   14.26
  -2  -6   5  149.88    9.55
   6   3  -5  307.71   17.11
  -2   6   5  104.92   10.40
   2   1   8 8865.04   98.97
  -2   1  -8 8691.77   97.13
   2   1   8 8794.98  103.62
  -2   1  -8 8681.10   97.82
   2  -1   8 8757.84   98.33
  -2  -1  -8 8672.90  109.43
  -2  -1  -8 8542.70  104.14
   2  -1   8 8723.32   99.42
   0  -6   5  116.21    9.76
   0  -6   5  129.05   10.20
   0   6   5  121.74   11.04
   0  -6  -5  126.97    9.61
   0  -6  -5  102.02   11.57
   0  -6   5  119.27   11.51
   0   6   5  117.25   16.48
   0  -6   5  117.39    8.77
  -1  -4   8 2820.11   35.98
  -1  -4   8 3004.81   32.72
  -1  -4   8 2905.95   39.46
   1  -4  -8 2827.87   39.28
   1  -4  -8 2876.93   35.06
  -1  -4   8 2896.33   33.19
  -1   4   8 2897.07   39.92
  -1   4   8 2849.49   39.74
   6  -1  -7 1479.90   20.01
  -6  -1   7 1563.37   30.26
   6   1  -7 1559.58   40.77
  -4   0  -6  494.45   25.54
  -6   1   7 1561.94   37.41
   6   1  -7 1512.85   19.62
  -4   0  -6  467.67   21.82
   4   0   6  458.64   23.99
   4   0   6  447.33   16.97
  -6   1   7 1517.18   25.11
  -6  -1   7 1533.34   20.36
   6  -1  -7 1524.08   21.84
  -5   2   811091.51  138.15
   5  -2  -811035.14  108.07
   5   2  -811063.54  132.30
  -5  -2   811466.17  101.87
  -5   2   810952.15  123.77
   5   2  -811116.63   97.58
  -5  -2   811235.64  146.44
   5  -2  -811121.76  110.77
   5   5  -2 6753.04   83.74
   5  -5  -2 6641.47   87.12
   5  -5  -2 6702.73   92.74
  -5   5   2 6763.33   58.63
  -5   5   2 6760.22   59.25
   5   5  -2 6774.69   87.68
  -5  -5   2 6856.18   81.42
  -5  -5   2 6833.01   85.84
   7   0  -3    3.03    7.22
  -7   0   3   11.70   13.29
  -7   0   3   13.56    8.96
   7   0  -3    3.51    7.75
  -1  -7  -1  745.75   20.87
   1  -7   1  807.97   10.98
  -4   4  -4 1214.91   15.65
   0  -2  -9 1267.21   18.71
   4   4   4 1204.60   26.19
  -1   7  -1  754.74   28.15
  -1   7  -1  779.43   11.30
  -1  -7  -1  782.09   21.32
   4   4   4 1200.38   27.88
   0  -2   9 1386.28   31.25
  -4   4  -4 1131.62   25.47
   0   2  -9 1289.11   17.64
   0   2   9 1270.86   36.35
   0   2  -9 1308.40   23.04
   4  -4   4 1251.21   14.57
   1  -7   1  750.24   20.28
   1   7   1  749.05   16.14
  -4  -4  -4 1210.98   26.72
   0   2   9 1300.93   18.52
   0  -2   9 1335.24   18.02
   4  -4   4 1181.35   26.10
   1   7   1  769.39   29.34
  -4  -4  -4 1212.38   36.03
   0  -2  -9 1260.70   25.41
   5  -4  -6 1546.62   23.85
   1  -3   8 3156.17   39.26
   1   3   8 3120.68   39.27
  -1  -3  -8 3037.93   43.25
   1  -3   8 3116.69   38.90
   5   4  -6 1587.40   20.55
  -5  -4   6 1639.53   22.04
  -1  -3  -8 3039.25   46.96
   5  -4  -6 1578.62   22.45
   5   4  -6 1560.29   30.54
  -5   4   6 1572.09   26.70
  -1   3  -8 3077.34   38.18
  -5   4   6 1572.69   29.29
   1   3   8 3152.86   55.51
  -5  -4   6 1697.20   31.80
   0  -7  -2  756.60   13.72
   0  -7   2  735.28   27.88
   0  -7  -2  727.27   20.15
   0  -7   2  759.37   11.64
   0   7  -2  748.78   26.84
   0   7  -2  720.16   11.35
   0   7   2  732.67   19.56
   0   7   2  729.57   14.62
  -1   5   7 1437.16   22.70
  -4   3  -5 2671.80   34.24
  -4  -3  -5 2648.60   40.14
  -4  -3  -5 2697.36   41.36
  -4   3  -5 2743.26   41.52
  -1  -5   7 1494.23   25.12
  -1   5   7 1457.90   25.04
  -1  -5   7 1449.46   22.01
  -1  -5   7 1469.32   21.08
   4   3   5 2770.40   41.45
   4   3   5 2769.73   43.11
  -1  -5   7 1476.12   23.59
   4  -3   5 2775.19   37.07
   1  -5  -7 1489.09   24.70
   4  -3   5 2791.23   42.06
   1  -5  -7 1425.55   23.23
   5  -2   4 9645.84  116.20
  -5  -2  -4 9539.70  121.35
   5   2   4 9694.12  115.78
  -5  -2  -4 9444.90  124.82
   5  -2   4 9759.35  110.81
  -5   2  -4 9502.09  113.52
  -5   2  -4 9362.57  104.84
   5   2   4 9641.11  125.16
   3  -6   2  491.82   19.42
   3   6   2  475.97   17.92
   2  -5  -7  491.64   13.37
   2  -5  -7  511.41   14.12
   3   6   2  454.94   17.50
  -2  -5   7  503.49   17.17
  -3  -6  -2  522.00   28.15
  -2   5   7  467.58   12.49
   3  -6   2  499.33   16.73
  -2   5   7  491.33   20.63
  -2  -5   7  540.99   18.65
  -2  -5   7  524.75   23.54
  -2  -5   7  497.55   10.94
  -3  -6  -2  470.51   24.74
  -1   7   2 3355.60   36.70
   1   7  -2 3450.65   53.53
  -1  -7   2 3514.82   40.27
   1  -7  -2 3512.58   36.53
  -1  -7   2 3462.52   47.28
   1  -7  -2 3430.56   47.26
  -1   7   2 3420.85   47.00
   1   7  -2 3334.52   44.32
   7   0  -2  222.97   13.93
  -7   0   2  233.74   13.69
   7   0  -2  264.23   13.72
  -7   0   2  283.84   14.10
   5   5  -3  631.10   20.89
  -5  -4  -2  698.26   21.70
   5   5  -3  611.92   23.17
  -5   4  -2  750.21   22.03
   5  -5  -3  671.61   24.54
   5  -4   2  698.25   32.75
   5   4   2  758.15   31.11
  -5   5   3  673.36    8.73
  -5  -5   3  668.42   21.59
   5  -4   2  737.65   10.80
   5   4   2  799.33   34.03
  -5  -5   3  630.35   17.25
   5  -5  -3  623.95   19.27
  -5  -4  -2  755.74   31.96
  -4   1  -6   56.21   13.21
  -4  -1  -6   44.99   18.41
   4   1   6   54.15   11.58
   4   1   6   49.26   11.34
   4  -1   6   50.66    9.03
  -4  -1  -6   55.82   16.44
   4  -1   6   69.25   11.60
  -4   1  -6   59.73   11.36
   5   5  -1   67.06   10.51
   5   5  -1   67.28   21.02
  -5  -5   1   70.85   13.39
   5  -5  -1   56.30   12.47
  -5  -5   1   60.93   19.35
   5  -5  -1   54.00   10.66
  -7   0   4  981.34   19.48
   7   0  -4 1034.48   31.32
  -7   0   4  982.28   30.84
   7   0  -4  968.70   26.54
  -3   4   8  318.97   12.73
   3  -4  -8  288.51    8.79
   3  -4  -8  297.30   12.11
  -3  -4   8  302.41   10.57
  -3  -4   8  294.39   19.85
  -3   4   8  274.03   12.33
  -3  -4   8  308.00   15.67
  -3  -4   8  288.42    9.28
  -7   1   3   81.39   10.68
  -7   1   3   71.91    9.99
   7  -1  -3   60.78   10.43
   7   1  -3   84.97   15.76
   7  -1  -3   77.59    9.86
  -2  -3   9 1551.22   29.12
  -2  -3   9 1572.45   18.89
  -2   3   9 1590.09   22.17
  -7  -1   3   50.87   19.86
   7   1  -3   61.41   12.16
  -2  -3   9 1567.08   33.63
  -7  -1   3   87.46   10.16
   2  -3  -9 1583.50   23.10
  -2  -3   9 1559.42   15.69
   2  -3  -9 1540.79   27.19
  -2   3   9 1505.32   27.02
   4  -2  -9   -0.79    1.80
  -4  -2   9 3358.90   45.37
  -4   2   9 3370.44   48.13
  -4   2   9 3230.32   52.62
  -4  -2   9 3387.69   49.42
  -7   1   2 3873.05   50.95
  -7  -1   2 3753.43   49.72
  -7  -1   2 3691.87   51.00
   7   1  -2 3816.39   50.37
  -7   1   2 3729.24   47.23
   7  -1  -2 3673.27   50.03
   7   1  -2 3822.48   61.25
   7  -1  -2 3773.43   54.76
  -1   0  -9    0.85    7.20
   1   0   9   -5.96   14.64
   1   0   9   12.06    5.98
  -1   0  -9   -2.22    5.09
   4   6  -2 2526.85   44.70
   4  -6  -2 2521.22   46.38
  -4  -6   2 2638.56   40.77
  -4  -6   2 2662.22   38.96
   4   6  -2 2562.18   49.41
   4  -6  -2 2621.13   40.94
  -3  -2  -7 2483.57   37.58
  -4  -5   6 2446.93   38.86
   3  -2   7 2454.41   36.64
   3   2   7 2396.03   38.53
  -3  -2  -7 2357.56   36.26
   4   5  -6 2325.11   46.73
  -3   2  -7 2411.16   44.18
  -4   5   6 2369.90   29.41
  -3   2  -7 2463.02   37.88
   3  -2   7 2508.93   33.73
   4  -5  -6 2423.30   34.11
   4  -5  -6 2365.51   37.50
   3   2   7 2470.35   36.50
   4   5  -6 2366.76   29.22
  -4   5   6 2417.97   36.34
  -4  -5   6 2481.32   36.10
  -7   1   4 5619.34   67.99
  -7  -1   4 5661.47   72.25
   4  -6  -1 1745.67   43.47
   4   6  -1 1717.21   29.13
   7  -1  -4 5644.42   67.10
   4  -6  -1 1746.22   38.10
  -7  -1   4 5783.63   74.47
   7   1  -4 5877.19   84.26
   4   6  -1 1677.65   30.81
  -4  -6   1 1684.60   40.33
  -4  -6   1 1728.83   30.84
   7  -1  -4 5735.97   68.95
   7   1  -4 5699.56   66.87
   1  -3  -9  679.23   12.70
  -1  -3   9  701.02   13.09
  -1  -3   9  698.01   14.58
   1  -3  -9  650.47   18.63
  -1   3   9  698.21   19.62
  -1  -3   9  710.63   27.82
  -1  -3   9  693.34   23.70
  -1   3   9  657.27   16.17
  -6   2  -2 1148.20   17.82
   6  -2   2 1146.14   27.22
   6   2   2 1125.35   26.80
  -6  -2  -2 1146.98   26.56
   6  -2   2 1171.22   24.41
  -6   2  -2 1124.92   26.36
   6   2   2 1141.71   26.14
  -6  -2  -2 1140.70   34.75
  -7   0   1    6.42   13.66
   7   0  -1    3.41    8.94
   7   0  -1    5.55   12.99
  -7   0   1    0.31    7.22
  -2   7   1  509.14    7.49
   2   7  -1  488.06   14.48
  -2   7   1  519.86   17.48
  -2  -7   1  558.64   17.64
   2   7  -1  522.66   25.53
   2  -7  -1  511.05   17.75
  -2  -7   1  538.16   15.05
   2  -7  -1  509.89    6.90
   0   4   8 3364.07   41.47
   0  -4   8 3407.17   38.76
   0  -4   8 3320.71   42.55
   0   4   8 3309.13   46.17
   0  -4   8 3400.08   46.13
   0  -4   8 3406.20   45.65
   0  -4  -8 3394.77   46.33
   0  -4  -8 3331.94   42.06
  -2   0  10 2302.03   35.55
  -2   0  10 2361.06   39.27
   5  -5  -4  877.11   25.70
   5   5  -4  859.76   23.52
   5   5  -4  871.33   33.52
  -5   5   4  841.67   14.16
  -5  -5   4  905.52   26.35
   5  -5  -4  897.88   29.40
  -5   5   4  882.16   12.42
  -5  -5   4  917.30   24.34
  -1  -7  -2 1237.91   26.41
   1   7   2 1233.71   25.55
   1  -7   2 1265.07   14.23
  -1  -7  -2 1275.27   20.93
   1   7   2 1230.77   21.82
   1  -7   2 1221.01   33.70
   2   2   8 4210.91   56.38
   2   2   8 4294.45   52.91
  -2   2  -8 4208.13   50.55
   2  -2   8 4258.26   60.08
   2  -2   8 4236.52   51.11
  -2  -2  -8 4145.61   54.31
  -2  -2  -8 4169.44   52.21
  -2   2  -8 4204.40   58.87
   6   3   1 1317.62   28.64
  -6   3  -1 1423.76   28.84
   6  -3   1 1338.08   21.47
  -6  -3  -1 1333.08   28.06
   6   3   1 1262.68   27.22
   5   5   0   42.54   10.90
   5   5   0   41.69   12.56
  -5  -5   0   42.15   11.95
   6  -3   1 1272.41   28.43
  -6  -3  -1 1318.05   28.06
   5  -5   0   33.19   10.41
  -6   3  -1 1333.42   20.51
   5  -5   0   51.61   12.47
  -5  -5   0   38.97   12.43
   2   7   0  231.66   12.18
   0   5   7  108.43   19.23
   0  -5   7  107.48    8.15
   0  -5  -7  111.50   10.69
  -2  -7   0  246.07   11.76
   2  -7   0  242.46   14.45
   0  -5   7  121.85   13.18
   0   5   7  118.23   15.41
   2  -7   0  274.29   16.36
   2   7   0  262.18   22.06
  -2  -7   0  250.73   23.26
   0  -5  -7  141.31   11.24
   0  -5   7  116.58    9.30
   0  -5   7  121.72    7.13
  -3  -3   9  509.47   23.94
  -3   3   9  509.11   24.17
   3  -3  -9  454.46   15.55
   3  -3  -9  470.23    8.51
  -3   3   9  479.94   11.06
  -3  -3   9  495.91   18.67
  -6  -2   7 4062.61   41.13
   6  -2  -7 3986.54   41.75
   1   1   9 1586.42   38.83
   1  -1   9 1642.54   27.86
  -6   2   7 3902.09   51.36
  -1  -1  -9 1603.16   23.64
  -6   2   7 3981.53   56.02
  -1  -1  -9 1618.76   37.09
   6  -2  -7 3985.28   47.58
   1   1   9 1719.44   29.70
  -1   1  -9 1610.49   27.03
  -6  -2   7 4035.32   56.72
  -1   1  -9 1590.17   22.85
   6   2  -7 3998.67   55.83
   1  -1   9 1617.48   23.12
   6   2  -7 4064.84   43.49
  -6  -4   2  246.96   27.09
   6   4  -2  220.73   20.24
  -6   4   2  242.93    5.60
   2  -6   4 7551.85   66.58
  -3  -6   5 8731.82   97.73
  -6   4   2  217.68    9.18
  -6  -4   2  237.80   21.65
   2  -6   4 7580.70   97.80
  -2  -6  -4 7572.21   89.12
   6  -4  -2  234.05   12.84
  -3   6   5 8703.17  106.82
  -3   6   5 8622.56   94.60
   3   6  -5 8511.90  101.52
   2  -6   4 7748.42   69.21
   2   6   4 7603.14   92.36
  -2  -6  -4 7521.74   92.10
   2   6   4 7613.77   91.53
   6  -4  -2  209.55   14.32
   6   4  -2  241.87   16.42
  -3  -6   5 8704.03  101.65
   3  -6  -5 8692.55   89.52
   3   6  -5 8558.26   99.72
   3  -6  -5 8580.34  106.58
   2  -6   4 7748.25   94.78
  -6  -4   3   14.72   12.21
   6  -4  -3   24.95   16.17
   6  -4  -3   21.79   13.64
  -6   4   3   14.07    5.83
   6   4  -3   15.72   12.48
  -6   4   3   18.36    7.08
  -6  -4   3   26.60   14.07
   6   4  -3   33.64    8.46
  -4  -6   312872.69  155.77
   4   6  -312469.44  149.47
  -4   6   312633.15  120.07
   4  -6  -312359.70  150.55
   4  -6  -312381.19  146.31
   4   6  -312457.30  145.59
  -4  -6   312940.16  150.95
  -3   5   7  180.47    9.89
  -3  -5   7  162.86   13.15
   3  -5  -7  159.41    9.36
  -3   5   7  143.93    9.11
  -3  -5   7  172.32    7.77
   3  -5  -7  188.84   14.50
   3   5  -7  160.03    7.22
   3   5  -7  156.61   20.03
  -7   0   5    3.72    5.75
   7   0  -5   -7.08    6.03
   7   0  -5    0.55    8.67
  -7   0   5    0.33    8.36
   6   3  -6 4191.19   71.15
   6  -3  -6 4264.03   55.58
   6   3  -6 4235.40   45.91
  -6  -3   6 4379.21   52.98
  -6  -3   6 4377.77   60.92
  -6   3   6 4266.69   55.00
  -6   3   6 4270.86   51.86
   6  -3  -6 4273.57   52.90
  -1  -7   3  213.12   13.11
   1   7  -3  219.03    8.74
   1  -7  -3  230.43    7.74
  -1   7   3  211.21   12.88
  -1   7   3  202.78   20.62
   1   7  -3  239.73   19.57
   1  -7  -3  233.85   14.09
   2  -7  -2    4.31    9.24
   2   7  -2   13.31    7.03
  -2   7   2    0.89    4.32
  -2  -7   2   -0.47    9.87
   2   7  -2   15.83   13.88
  -2   7   2  -12.92    7.78
  -2  -7   2    1.51    7.69
   1   6   5  544.17   16.94
   1   6   5  521.15   17.21
   1  -6   5  510.86   26.21
  -1  -6  -5  462.51   17.75
   1  -6   5  520.06   10.83
   1  -6   5  525.64    9.19
   1  -6   5  512.74   15.44
  -1  -6  -5  548.89   23.25
   7  -1  -1 3693.44   54.22
   7  -1  -1 3690.14   50.96
   7   1  -1 3641.22   50.94
  -7  -1   1 3687.08   50.78
  -7   1   1 3677.30   46.28
  -7  -1   1 3695.91   61.08
   7   1  -1 3738.35   50.68
  -7   1   1 3716.56   51.50
   0  -7   3 1681.00   23.46
   4  -5   3 2322.54   44.83
   0   7   3 1671.78   24.75
  -4  -5  -3 2320.82   38.48
   4   5   3 2267.94   36.96
   0  -7  -3 1622.01   23.24
  -4  -5  -3 2247.66   36.96
   4  -5   3 2286.73   49.64
   4   5   3 2243.68   37.98
   0   7  -3 1644.63   35.96
   0  -7  -3 1631.31   29.59
   0  -7   3 1653.13   28.51
   0   7  -3 1592.64   22.58
   0   7   3 1628.29   29.03
   4  -6   0   98.39   12.10
  -3   0  10 4463.80   72.80
   4  -6   0   87.38   14.40
   4   6   0   84.27   13.25
  -4  -6   0  136.59   13.31
   4   6   0  117.16   12.06
  -4  -6   0   89.60   13.18
  -3   0  10 4480.17   67.79
  -2  -1  10  172.88   15.52
  -2   1  10  180.64   13.52
  -5   0   9    9.79   11.59
  -2  -1  10  177.41   13.54
   2  -1 -10  175.06    4.82
  -5   0   9   -4.59    8.67
  -2   1  10  184.61    4.37
   2  -1 -10  162.39   13.70
   1   0 -10 9161.06   90.43
   1   0 -10 9215.61  107.84
  -1   0  10 9409.02   91.61
  -1   0  10 9391.23  110.81
  -4   2  -6 3533.25   47.82
   4   2   6 3718.47   50.95
  -4  -2  -6 3640.04   49.34
   4  -2   6 3722.23   45.12
   4   2   6 3636.47   62.72
  -4   2  -6 3604.46   49.56
  -4  -2  -6 3577.39   60.35
   4  -2   6 3629.08   51.09
  -6  -4   1 1889.05   35.32
   6  -4  -1 1874.75   43.81
  -6  -4   1 1887.63   32.33
   6   4  -1 1920.45   31.67
  -6   4   1 1858.82   33.25
   6  -4  -1 1882.00   19.70
  -6   4   1 1891.52   22.00
   6   4  -1 1898.98   35.21
   7   1  -5  733.91   15.39
  -7  -1   5  758.57   21.51
   7  -1  -5  688.97   26.54
  -7   1   5  717.03   22.47
   7  -1  -5  733.77   16.01
  -7  -1   5  731.76   32.11
  -7   1   5  699.47   27.07
   7   1  -5  758.29   21.49
   6   0   3    6.07    8.68
  -6   0  -3  -10.49    8.84
  -6   0  -3    6.44    6.55
   6   0   3   13.12   11.24
  -5   0  -5    4.62   10.34
   6   4  -4 3775.01   54.58
  -6  -4   4 3961.78   56.69
  -6   4   4 3814.29   46.20
   5   0   5    2.85   15.64
   5   0   5    3.84    7.87
   6   4  -4 3797.60   47.04
   6  -4  -4 3773.51   50.16
   6  -4  -4 3833.52   54.68
  -6  -4   4 3792.25   55.92
  -6   4   4 3766.08   39.71
  -5   0  -5   -4.60    8.44
   2  -7   1    8.85   14.64
   2  -7   1   -1.77   12.56
   2   7   1    0.92    7.81
   2   7   1    0.38    6.85
  -2  -7  -1    1.68   10.26
  -2  -7  -1    0.88    8.32
  -7  -2   3  597.95   17.16
   7  -2  -3  574.59   14.53
   7   2  -3  593.66   31.08
  -7   2   3  574.20   17.90
   7  -2  -3  636.41   26.21
  -7   2   3  578.17   14.53
  -7  -2   3  565.07   20.64
   7   2  -3  604.83   16.40
  -1  -6   6 7871.95   83.82
   1  -6  -6 7937.28   89.44
   1  -6  -6 7729.72   90.92
  -1   6   6 7856.55   97.11
  -3   1  10 2113.90   43.34
  -3  -1  10 2162.80   37.79
  -1  -6   6 7859.80   88.64
  -3   1  10 2040.01   48.12
  -1   6   6 7764.84   90.33
  -3  -1  10 2037.23   42.27
  -1  -6   6 7993.22   88.15
  -1  -6   6 7776.49   97.85
  -5  -1   9  127.61   15.83
  -5   1   9  142.47   14.36
  -5   1   9  169.02   18.91
  -5  -1   9  144.75   13.18
  -6   0   8 5340.01   81.06
   6   0  -8 5316.79   49.62
  -6   0   8 5214.61   65.26
   7  -2  -2 2934.11   37.18
   7   2  -2 2906.95   50.44
  -7  -2   2 2910.76   41.98
  -7   2   2 2855.05   42.52
   7   2  -2 2974.94   45.13
  -7   2   2 2868.81   42.32
   7  -2  -2 2897.24   42.77
  -7  -2   2 2985.02   55.89
  -1   1  10  619.69   19.81
  -1  -1  10  675.82   11.06
  -1  -1  10  668.20   18.82
   1  -1 -10  661.34   13.19
   1  -1 -10  637.62   19.54
  -1   1  10  670.88   12.30
   1   1 -10  672.95    9.07
   2   4   7 1485.44   26.18
   5   3  -8 2745.65   27.20
   3   6   3  352.77   17.12
  -2  -4  -7 1474.14   26.88
  -5   3   8 2657.08   38.78
   2   4   7 1499.87   40.33
   5  -3  -8 2669.53   29.94
   2  -4   7 1488.59   26.12
   2  -4   7 1478.85   21.67
   5   3  -8 2721.09   54.86
   3  -6   3  359.51   24.00
   5  -3  -8 2698.06   28.95
  -2  -4  -7 1510.72   28.28
  -3  -6  -3  338.56   17.33
  -3  -6  -3  319.40   15.96
   3   6   3  356.30   16.26
  -5   3   8 2694.26   36.83
  -5  -3   8 2724.95   43.88
  -5  -3   8 2723.12   28.35
   2  -4   7 1504.02   23.52
   2  -4   7 1492.87   24.82
   3  -6   3  308.23   18.13
   2  -6  -612117.60  137.45
  -3  -4  -6 6893.79   84.72
  -3   4  -6 7001.07   74.62
   2   6  -611806.66  136.24
   2   6  -611848.28  140.92
  -2   6   611852.54  142.10
  -3  -4  -6 6935.57   85.68
   3  -4   6 6989.76   85.44
  -2  -6   612252.37  138.05
   2  -6  -611747.61  133.93
  -2  -6   612188.36  133.89
  -2   6   611913.90  131.54
  -3   4  -6 7003.37   85.12
   3   4   6 7093.34   85.33
   3   4   6 7100.48  101.39
   3  -4   6 7128.02   77.08
  -6   1  -3 6257.39   71.95
  -6  -1  -3 6264.42   76.66
  -6   1  -3 6217.65   79.60
  -7   2   4  482.86   15.37
  -7   2   4  468.84   13.91
  -6  -1  -3 6276.09   80.47
   7  -2  -4  468.21   20.53
   7   2  -4  478.35   20.98
   6   1   3 6347.90   81.96
   7   2  -4  473.04   19.65
   6  -1   3 6314.56   82.08
  -7  -2   4  459.90   14.57
  -7  -2   4  467.04   30.69
   7  -2  -4  457.62   22.82
   6   1   3 6419.53   79.28
   6  -1   3 6393.75   81.85
  -2  -7   3  997.15   25.81
  -2  -7   3  921.89   29.51
  -7   0   0 5770.75   84.92
   2   7  -3  940.67   18.14
   2   7  -3  905.14   28.39
  -2   7   3  919.25   13.35
   7   0   0 5817.80   74.64
  -7   0   0 5735.06   69.93
   7   0   0 5849.42   71.45
   2  -7  -3  913.15   21.52
  -2   7   3  929.91   30.66
   2  -7  -3  935.15   12.34
   4  -6  -412836.14  155.45
  -4   6   412799.69  127.90
   4  -6  -412793.57  160.73
  -4  -6   412964.87  146.89
   4   6  -412823.84  144.35
   4   6  -412857.10  150.57
  -4   6   412737.42  125.85
  -4  -6   413108.80  153.29
   5   1   5 1153.66   37.94
  -5   1  -5 1137.98   26.53
   5   1   5 1193.50   35.04
  -5  -1  -5 1074.32   31.85
   5  -1   5 1165.24   37.64
   5  -1   5 1184.55   21.89
  -5   1  -5 1124.70   25.58
  -5  -1  -5 1150.77   25.94
   5   5  -5  699.19   21.73
   5   5  -5  757.52   15.45
   0  -3  -9  402.00   25.21
  -5  -5   5  795.94   23.11
   5  -5  -5  727.68   18.62
   5  -5  -5  787.51   16.85
  -5   5   5  761.11   17.28
   0  -3   9  407.21   15.38
   0  -3   9  403.85   13.03
   0   3   9  393.37   10.99
  -5   5   5  764.92   15.70
  -5  -5   5  800.56   33.62
   0  -3   9  404.48   10.18
   0  -3   9  398.99   13.17
   0   3   9  366.20   17.09
   0  -3  -9  411.66   17.12
   2  -5   6 1319.80   17.33
   2  -5   6 1305.13   23.35
  -2  -5  -6 1330.64   26.66
   2  -5   6 1355.97   16.61
   2  -5   6 1316.96   34.24
   2   5   6 1303.55   27.40
  -2  -5  -6 1353.18   35.26
   2   5   6 1299.44   25.27
   4   4  -8   54.23    6.25
   4  -4  -8   51.98    6.00
  -4   4   8   79.22   10.63
  -4  -4   8   53.78    7.10
  -4   4   8   69.50   13.93
   4   4  -8   61.75   12.33
  -4  -4   8   74.20   20.57
   4  -4  -8   54.65   10.52
  -5  -3  -4  457.53   19.52
  -5   3  -4  453.95    9.52
  -5  -3  -4  450.97   18.46
   5  -3   4  484.27   15.47
   5  -3   4  488.61   30.08
   5   3   4  507.01   20.26
  -5   3  -4  441.00   19.32
   5   3   4  484.42   29.18
   5   4  -7   11.97   17.00
  -5   4   7    7.41    7.34
  -5  -4   7   22.85   11.33
   5  -4  -7    8.40    5.12
  -5  -4   7    4.66    7.60
  -5   4   7   18.11    6.24
   5   4  -7    4.21    6.45
   5  -4  -7    8.91    5.93
  -5  -5  -1 5467.45   82.83
   5   5   1 5297.67   71.22
   5  -5   1 5401.67   77.53
   5   5   1 5411.51   69.22
   5  -5   1 5443.94   72.07
  -5  -5  -1 5445.89   71.57
   6  -1  -8 1053.49   12.45
   6   1  -8 1012.33   26.04
  -6   1   8 1065.85   34.35
   6  -1  -8 1031.55   11.72
  -6  -1   8 1062.17   26.62
  -6   1   8 1010.44   21.45
  -6  -1   8 1028.79   12.67
  -1  -2  -9 1479.28   23.44
   1  -2   9 1471.49   25.17
   1  -2   9 1531.96   22.96
  -1   2  -9 1435.22   31.58
  -1  -2  -9 1510.83   28.48
  -1   2  -9 1508.30   22.40
   1   2   9 1512.28   40.37
   1   2   9 1495.98   22.78
   4  -6   1  129.71   15.46
   4   6   1  142.85   21.50
  -4  -6  -1  145.93   14.49
   4   6   1  143.20   14.71
   4  -6   1  162.45   13.52
  -4  -6  -1  176.15   15.28
   1  -7   3  939.06   12.25
  -1  -7  -3  929.94   23.81
   1  -7   3  913.60    9.61
   1   7   3  898.21   31.73
   1  -7   3  924.15   21.65
   1  -7   3  950.61   34.66
   1   7   3  933.91   27.19
  -1  -7  -3  938.08   25.12
   7   0  -6  738.31   30.08
  -7   0   6  737.60   19.38
  -7   0   6  752.88   30.75
   7   0  -6  733.41   19.31
   7  -1   0 3611.12   46.07
  -7   1   0 3541.94   62.20
  -7   1   0 3567.21   45.51
  -5  -4  -3 1259.78   27.58
   7  -1   0 3563.78   51.73
   5   4   3 1289.02   29.56
   7   1   0 3640.10   52.21
   7   1   0 3593.40   60.29
  -7  -1   0 3614.43   59.79
   5  -4   3 1265.21   17.13
  -7  -1   0 3635.76   62.61
   5  -4   3 1302.57   28.49
  -5   4  -3 1330.17   28.66
  -5  -4  -3 1306.17   28.96
   5   4   3 1272.82   27.65
  -5   4  -3 1292.40   16.03
   0  -6  -6 2373.81   34.10
   0  -6  -6 2396.37   44.76
  -3  -5  -5   -1.79   14.22
  -3  -5  -5    5.35    9.49
   0  -6   6 2449.79   40.36
   0   6   6 2447.44   44.80
   0  -6   6 2416.98   27.81
   0  -6   6 2452.45   35.99
   3  -5   5   -5.56    4.17
   3  -5   5    8.03    7.06
   0  -6   6 2429.48   29.39
   3  -5   5    1.03    2.36
   3  -5   5    1.78    8.37
   0   6   6 2363.42   35.07
   3   5   5    6.17    8.96
   3   5   5    8.59    7.73
  -6  -4   0 7686.37   94.56
   6   4   0 7578.17  108.27
  -6   4   0 7612.57   73.91
  -6  -4   0 7687.63  108.73
  -6   4   0 7518.88  106.10
   6  -4   0 7592.17   74.63
   6  -4   0 7514.10   94.17
   6   4   0 7570.45  102.78
   7  -2  -1 1516.37   29.95
  -7   2   1 1513.03   29.07
  -7   2   1 1535.03   30.09
  -7  -2   1 1540.47   30.75
  -7  -2   1 1563.88   39.78
   7   2  -1 1569.14   42.24
   7  -2  -1 1521.98   23.16
   7   2  -1 1524.92   29.46
   4  -3  -9 9494.22   94.01
  -4  -3   9 9711.68  129.60
  -2  -2  10 4106.51   33.89
  -4   3   9 9472.22  109.38
  -4  -3   9 9493.98  111.40
  -2  -2  10 4068.64   53.72
   4  -3  -9 9540.77   96.10
  -4   3   9 9583.11  114.41
   2  -2 -10 4000.43   41.31
  -2  -2  10 4199.88   34.27
   2  -2 -10 4056.50   53.81
  -2   2  10 4105.08   38.86
  -2  -2  10 4168.19   68.35
  -2   2  10 4165.78   55.71
   6   4  -5 1601.19   29.21
   6   4  -5 1553.03   31.74
  -6   4   5 1565.52   20.54
  -6  -4   5 1650.53   31.55
   6  -4  -5 1553.94   26.30
  -6  -4   5 1639.90   45.20
  -6   4   5 1617.80   27.83
   6  -4  -5 1591.25   24.62
  -4   0  10  668.47   19.48
  -4   0  10  663.75   33.63
   1  -7  -4 2630.66   36.75
  -1   7   4 2563.09   38.50
  -1  -7   4 2671.16   37.89
  -1  -7   4 2662.73   32.65
   1   7  -4 2626.21   36.97
  -1   7   4 2554.59   38.34
   1   7  -4 2544.96   36.26
   1  -7  -4 2481.48   38.09
   3   3   7 1359.02   29.07
  -2  -7  -2 6537.77   82.94
  -3  -3  -7 1270.33   25.75
  -2  -7  -2 6818.90   80.82
   2   7   2 6689.80   83.30
   2  -7   2 6698.26   98.37
  -3  -3  -7 1253.84   26.64
   2  -7   2 6775.79   82.93
   3  -3   7 1304.88   20.40
  -3   3  -7 1253.74   19.47
   2   7   2 6675.09   89.71
   3  -3   7 1310.45   25.50
   3   3   7 1300.15   25.03
  -3   3  -7 1306.62   25.32
  -7   2   5  298.74   13.21
  -7  -2   5  370.95   12.03
   7  -2  -5  303.88   19.38
   7  -2  -5  343.55   13.25
  -7   2   5  335.64   12.37
  -7  -2   5  321.50   18.54
   7   2  -5  362.43   18.09
   7   2  -5  350.83   16.85
   7   1  -6 1050.98   16.77
  -7  -1   6  989.74   25.21
  -7   1   6  963.57   22.41
  -7   1   6 1012.56   17.52
   7  -1  -6 1039.00   22.45
   7   1  -6 1003.27   36.19
   7  -1  -6 1033.48   23.36
  -7  -1   6 1005.45   21.94
  -1  -5  -7 1546.81   36.51
   1  -5   7 1548.97   21.87
   1  -5   7 1586.12   30.19
   1   5   7 1500.19   33.75
  -1  -5  -7 1485.44   27.22
   1  -5   7 1548.85   24.72
   1   5   7 1522.89   29.24
   1  -5   7 1545.92   26.25
  -6   3  -2  375.65   12.22
  -6   3  -2  383.13   19.05
  -6  -3  -2  378.23   18.42
  -6  -3  -2  405.05   27.58
   6   3   2  404.49   19.01
   6  -3   2  373.66   29.23
   6  -3   2  423.26   13.78
   6   3   2  324.26   18.55
   1   4   8  250.71   11.55
   1  -4   8  228.88   11.19
  -1  -4  -8  267.09   14.46
   1  -4   8  208.45   15.75
   1   4   8  239.25   24.48
   1  -4   8  244.39   14.35
  -1  -4  -8  215.13   12.56
   1  -4   8  216.13   14.02
   0   0  1011807.46  125.31
   0   0  1011569.61  136.04
   0   0 -1011386.79  132.84
  -3   2  10 3387.47   47.37
   0   0 -1011421.48  122.07
  -3   2  10 3478.24   50.60
  -3  -2  10 3444.20   50.99
   3  -2 -10 3371.10   31.29
  -3  -2  10 3385.75   56.01
   0  -7   4 4500.41   65.44
   0  -7  -4 4520.07   59.22
   0  -7  -4 4370.43   58.43
  -5  -2   9 2714.11   44.67
   0  -7   4 4384.72   44.08
  -5   2   9 2709.62   42.05
   5  -2  -9 2715.25   26.28
   0  -7   4 4263.33   58.02
   0  -7   4 4419.64   46.21
  -5   2   9 2615.99   37.72
   0   7   4 4369.00   57.56
  -5  -2   9 2716.04   50.92
   0   7   4 4482.77   61.59
   4   4   5 3490.19   65.55
  -4   4  -5 3525.92   38.95
  -4  -4  -5 3487.84   50.03
  -4   4  -5 3586.79   51.21
  -4  -4  -5 3522.04   62.23
   4  -4   5 3578.44   37.47
   4  -4   5 3615.95   63.24
   4   4   5 3688.98   51.28
  -3  -7   1 2960.39   41.77
   3   7  -1 2851.56   41.82
   3  -7  -1 2832.51   45.68
   3   7  -1 2908.56   50.15
   3  -7  -1 2976.54   52.97
  -3  -7   1 2907.74   43.49
  -2   3  -8  128.24    9.02
   2   3   8  129.72   17.76
  -2  -3  -8  162.99   11.81
  -4   5   7 1472.42   23.78
   4  -5  -7 1422.99   22.07
   2  -3   8  153.13   11.18
  -4  -5   7 1533.40   25.83
   2  -3   8  134.39    9.27
  -4  -5   7 1539.95   29.86
  -2  -3  -8  150.17   13.52
   4   5  -7 1480.74   28.48
   4  -5  -7 1440.39   23.77
  -2   3  -8  150.14   11.02
  -4   5   7 1466.49   22.31
   4   5  -7 1535.02   24.12
   2   3   8  168.05   15.02
  -4   1  10  940.22   22.21
  -4  -1  10  917.07   37.20
  -4   1  10 1001.31   36.60
  -4  -1  10  967.05   22.39
  -1  -2  10 5600.38   72.44
  -1  -2  10 5648.95   69.02
  -1  -2  10 5592.16   52.74
  -1   2  10 5612.27   71.35
   1  -2 -10 5608.00   57.72
  -6  -3   7  186.17    7.07
  -6  -3   7  166.28   16.54
  -1   2  10 5617.49   56.67
   6   3  -7  188.85    6.44
  -6   3   7  178.43   18.14
   1  -2 -10 5580.31   70.76
  -6   3   7  174.80   15.12
   6  -3  -7  162.24   13.40
   6  -3  -7  182.68   11.52
   6   3  -7  163.24   16.50
  -1  -2  10 5616.36   56.93
  -3   6   6  411.04   16.70
   3   6  -6  448.06   12.33
   3  -6  -6  432.74   16.02
  -3   6   6  422.59   14.17
  -3  -6   6  410.66   16.08
   3   6  -6  466.14   23.72
   3  -6  -6  441.29   14.40
  -3  -6   6  447.03   12.89
   3   7  -2   72.62   17.18
  -3   7   2   66.30    2.34
   3  -7  -2   65.53   11.75
  -3  -7   2   72.08   10.69
  -3  -7   2   76.06   18.76
  -3   7   2   66.48    2.26
   3   7  -2   73.02   10.65
   3  -7  -2   63.72   13.62
   6  -2   3  177.98   25.37
  -6   2  -3  197.62   16.60
   6   2   3  195.10   15.34
   6  -2   3  170.18    9.75
  -6  -2  -3  197.38   16.42
   6   2   3  169.59   16.09
  -6  -2  -3  182.32   14.28
  -6   2  -3  177.57   13.33
  -3   0  -8 3413.26   46.16
  -5   2  -5 4422.44   60.51
  -5  -2  -5 4467.69   61.06
   5   2   5 4587.75   73.52
   5   2   5 4527.95   61.98
  -5   2  -5 4513.16   51.81
  -3   0  -8 3437.35   54.71
  -5  -2  -5 4391.72   58.47
   3   0   8 3566.14   48.14
   5  -2   5 4518.19   60.03
   5  -2   5 4491.47   61.94
   3   0   8 3435.33   47.47
   2   7  -4 1020.81   20.90
  -2  -7   4 1036.86   19.98
  -2  -7   4 1028.52   21.34
  -2   7   4  993.06   22.41
   2  -7  -4 1073.72   15.27
   2  -7  -4 1022.54   22.80
  -2   7   4 1055.23   16.03
   2   7  -4 1047.80   26.06
  -2  -4   9  465.50   17.15
  -2   4   9  452.38   10.63
  -2  -4   9  452.42   12.61
   2  -4  -9  475.90   16.01
  -2  -4   9  469.43   11.49
   2  -4  -9  521.27   23.84
  -2   4   9  462.55   16.66
  -2  -4   9  466.33   14.80
  -2   5   8 3756.17   56.91
  -2   5   8 3906.51   52.09
   2  -5  -8 3899.66   57.02
  -2  -5   8 3862.63   59.82
   2  -5  -8 3801.49   51.96
  -2  -5   8 3831.14   43.81
  -2  -5   8 3832.10   47.21
  -2  -5   8 3824.18   41.88
   3  -7   0 6547.56   92.07
   0  -1 -10 9851.39  107.60
   3  -7   0 6436.22   84.52
   0  -1  1010052.29  102.89
   0   1  10 9950.02  118.90
  -3  -7   0 6698.73   95.66
   3   7   0 6579.80   81.48
   0   1 -10 9798.19  114.21
   0   1  1010116.81  104.56
   0  -1  1010017.25  117.72
   0  -1 -10 9837.65  117.12
   3   7   0 6456.43   79.47
  -3  -7   0 6731.46   81.43
   0   1 -10 9867.62  101.86
  -4   6   5    1.36    5.76
   4  -6  -5    3.75    7.94
   4  -6  -5    3.59    6.93
   4   6  -5   -1.06   13.63
  -4  -6   5    2.23    6.15
  -4  -6   5   -2.17    8.27
  -4   6   5    0.98    6.24
   4   6  -5    1.29    9.86
  -6  -2   8   95.78   15.01
  -6   2   8   91.03   11.95
  -6  -2   8   88.89    6.00
  -6   2   8   70.78   10.14
   6  -2  -8   95.43    4.80
   6  -2  -8   91.77    8.55
   6   2  -8   95.60    3.42
   6   2  -8   94.64   14.40
  -1  -5   8  209.75    9.56
  -1  -5   8  206.44    9.38
  -1   5   8  224.62   13.48
  -1  -5   8  207.03   12.25
  -1  -5   8  247.23   12.02
  -1   5   8  212.85   10.46
   1  -5  -8  185.20   19.59
   1  -5  -8  221.35   11.12
  -4  -3  -6 3287.37   58.90
   4  -3   6 3378.93   44.77
  -4   3  -6 3294.57   42.34
  -4   3  -6 3267.13   47.46
  -4  -3  -6 3245.27   47.76
   4   3   6 3226.42   49.62
   4   3   6 3267.20   47.61
   4  -3   6 3234.53   47.66
   7   0   1    9.14   10.16
  -7   0  -1    5.35   16.03
   7   0   1   -0.17    7.92
  -7   0  -1   -7.64   12.10
  -2  -6  -5 7455.47   99.21
   2   6   5 7330.68   89.23
   2  -6   5 7252.92   70.43
   2  -6   5 7326.35   69.54
  -2  -6  -5 7344.10   91.36
   2  -6   5 7321.73   86.89
   2   6   5 7292.51   90.21
   2  -6   5 7268.55   89.88
   7  -2   012594.99  163.84
   7   2   012535.59  149.95
  -7   2   012347.37  160.40
   7  -2   012848.94  146.27
  -7  -2   012549.26  148.92
  -7   2   012437.31  135.45
  -7  -2   012711.64  161.52
   7   2   012785.96  152.15
  -3   1  -8  250.95   12.72
   3   1   8  278.07   15.86
  -3  -1  -8  285.79   14.09
   3   1   8  300.53   14.47
  -3  -1  -8  252.34   22.51
   3  -1   8  281.71   14.07
   3  -1   8  286.78   13.57
  -3   1  -8  261.62   21.24
  -1   4   9  126.66   12.50
  -1  -4   9  117.43   10.14
  -1  -4   9  106.21   10.81
   1  -4  -9  126.85   13.32
   1  -4  -9  126.83   19.66
  -1  -4   9  143.00   18.34
  -1   4   9  124.79   12.21
   4   0   7    1.02   12.01
  -4   0  -7  -11.72   12.11
   4   0   7   -0.61    6.88
  -4   0  -7    0.02    8.67
  -7   3   3  739.64   19.88
  -4  -5  -4  388.30   19.15
  -7   3   3  718.35   20.05
   7   3  -3  736.08   26.57
   4   5   4  334.69   19.41
   4  -5   4  380.51    6.55
  -7  -3   3  707.09   19.20
   7  -3  -3  750.51   14.41
  -7  -3   3  738.41   34.93
  -4  -5  -4  370.79   27.69
   4  -5   4  386.28   16.27
   7   3  -3  743.19   23.96
   4   5   4  359.04   17.59
   4  -5   4  386.54   28.61
   4  -5   4  377.93    6.60
   7  -3  -3  687.73   19.92
   3   7  -3  525.74   23.64
   3  -7  -3  485.67   17.01
   5   5  -6  286.52   26.76
   5  -5  -6  309.92   17.37
  -5  -5   6  320.41   27.75
   5  -5  -6  302.09   13.04
   3  -7  -3  471.36   19.43
  -5   5   6  302.35   13.39
  -3  -7   3  510.45   24.42
  -3  -7   3  493.06   16.79
   3   7  -3  467.74   15.70
   5   5  -6  287.78   10.10
  -5  -5   6  315.82   16.52
  -3   7   3  479.51    9.79
  -3   7   3  488.34    7.27
  -5   5   6  314.65   10.56
   2   0   9   -1.77   13.13
   2   0   9   -1.75    6.38
  -2   0  -9    5.81    9.94
  -2   0  -9   -5.50   12.05
   4  -6   2 4573.30   64.40
   4   6   2 4632.83   63.53
  -4  -6  -2 4823.22   77.53
   4   6   2 4649.01   62.83
   4  -6   2 4730.95   61.91
  -4  -6  -2 4841.20   64.07
  -6   4  -1  160.75   16.41
   6  -4   1  187.17    7.54
  -6  -4  -1  154.17   24.75
  -6  -4  -1  178.29   16.29
   6   4   1  145.97   14.66
  -6   4  -1  171.59    6.72
   6   4   1  175.76   26.63
   6  -4   1  197.43   25.81
  -7   3   2 5645.26   61.53
  -7  -3   2 5732.59   76.21
  -7   3   2 5794.32   74.30
   7  -3  -2 5616.32   72.82
   7  -3  -2 5697.06   67.14
  -7  -3   2 5819.77   72.80
   7   3  -2 5661.07   70.79
   7   3  -2 5687.67   75.74
   5  -5   2  521.75   18.79
   5  -5   2  566.45   32.47
   5   5   2  614.32   29.50
  -5  -5  -2  532.45   20.84
  -3  -4   9  238.10    8.71
  -5  -5  -2  531.06   21.04
   3  -4  -9  234.39   19.54
   3  -4  -9  237.02   12.01
  -3  -4   9  227.96    7.66
   5   5   2  549.48   21.57
  -3   4   9  246.01   11.47
  -3   4   9  202.36   13.27
  -3  -4   9  239.33   24.20
  -3  -4   9  215.62   12.89
  -7  -1  -1  701.38   20.07
  -7   1  -1  735.59   22.98
  -7  -1  -1  750.80   33.60
   7   1   1  697.65   20.88
   7   1   1  737.74   23.35
   7  -1   1  734.10   34.65
   7  -1   1  703.83   24.74
  -7   1  -1  651.41   16.39
  -7  -2   6 3078.86   42.48
  -7  -2   6 3098.62   48.05
  -7   2   6 2944.30   49.83
  -7   2   6 3093.70   38.43
   7   2  -6 3014.43   47.71
   7  -2  -6 3070.50   41.58
   7   2  -6 3064.00   36.04
   7  -2  -6 2997.47   38.15
   7  -3  -4  601.77   19.67
   7   3  -4  645.05   32.87
  -7   3   4  662.98   18.00
  -7  -3   4  655.08   17.01
  -6   4   6 2318.56   36.93
  -7   3   4  628.45   14.47
   7  -3  -4  616.03   26.12
  -7  -3   4  644.54   22.53
   6   4  -6 2298.41   40.19
   6  -4  -6 2289.68   36.38
  -6  -4   6 2322.03   53.58
   7   3  -4  585.19   15.57
   6   4  -6 2286.49   28.90
  -6   4   6 2260.60   29.04
  -6  -4   6 2396.62   30.87
   6  -4  -6 2288.40   39.95
   1  -6   6  260.12   19.75
   1   6   6  321.48   14.51
  -1  -6  -6  306.42   15.58
   1  -6   6  289.95   10.42
  -1  -6  -6  302.36   22.27
   1   6   6  314.60   15.59
   1  -6   6  264.91   14.87
   1  -6   6  311.15   12.10
   4  -1   7 2865.12   53.22
  -4  -1  -7 2645.16   39.57
  -4   1  -7 2634.48   36.49
  -3  -5   8   28.71    8.00
   3  -5  -8   20.23   10.58
   3  -5  -8   22.83    7.83
  -7   0   7   -4.90   14.02
   4  -1   7 2737.15   38.42
   4   1   7 2745.71   52.47
  -3   5   8   12.77   10.26
  -3   5   8   22.78    8.40
   7   0  -7   -3.63    9.33
  -4   1  -7 2613.13   40.34
  -3  -5   8   28.67   10.30
   7   0  -7   -2.87    4.29
   4   1   7 2788.78   52.20
  -3  -5   8   25.90    8.63
  -7   0   7    1.80    3.99
  -3  -5   8   21.50    9.02
  -4  -1  -7 2693.21   40.92
   3  -7   1 1013.26   24.35
   3   7   1 1026.54   24.65
   3   7   1  970.10   22.62
  -3  -7  -1 1057.78   22.79
  -3  -7  -1  951.40   25.31
   3  -7   1 1029.06   38.80
   3   6   4 5984.68   86.87
   3   6   4 5823.65   75.74
  -3  -6  -4 6084.56   77.01
  -3  -6  -4 5931.28   78.09
   3  -6   4 5945.49   77.71
   3  -6   4 5904.61   73.80
   2   1   9 4790.03   64.91
  -2  -1  -9 4722.62   71.11
   2   1   9 4768.94   73.76
  -2   1  -9 4595.17   57.72
   2  -1   9 4686.15   59.69
  -2  -1  -9 4507.85   56.13
  -2   1  -9 4612.88   56.26
   2  -1   9 4731.74   57.59
   1   7   4  952.91   21.09
   1  -7   4  956.83   23.97
   1  -7   4  968.50   30.88
   1  -7   4  945.63   13.46
   1  -7   4  940.44   12.53
  -1  -7  -4  906.72   26.91
  -1  -7  -4  956.82   23.98
   1   7   4  968.20   23.02
  -4  -2  10  856.17   21.98
  -4  -2  10  905.90   25.08
  -4   2  10  888.34   21.34
  -4   2  10  895.87   24.31
  -1  -3  -9 1437.23   28.96
  -1  -3  -9 1542.20   25.02
   1   3   9 1509.45   41.81
  -1   3  -9 1479.80   22.73
   1  -3   9 1499.86   31.77
   1  -3   9 1585.74   24.33
   1   3   9 1509.15   24.14
   2  -7   3  706.58   20.00
   2  -7   3  671.60   32.54
   2   7   3  619.35   20.65
  -2  -7  -3  666.86   22.34
   2   7   3  635.27   19.54
  -2  -7  -3  637.35   18.01
  -6   0  -4 1104.88   27.77
   6   0   4 1139.30   24.30
  -6   0  -4 1103.95   29.67
   6   0   4 1197.99   40.35
   5  -6  -2  273.97   17.03
   5  -6  -2  257.55   14.57
   5   6  -2  292.22   14.08
   5   6  -2  260.97   26.00
  -5  -6   2  275.08   26.51
  -5  -6   2  283.65   15.54
  -7  -1   7 1216.14   28.55
  -7   1   7 1221.33   17.98
   7   1  -7 1243.26   28.48
   7   1  -7 1226.36   21.04
  -7   1   7 1194.73   25.51
   7  -1  -7 1216.53   22.82
   7  -1  -7 1212.51   25.98
  -7  -1   7 1226.88   17.32
  -7  -3   1   12.15   19.17
   7   3  -1   19.17   15.57
  -7   3   1   10.57   10.84
   7  -3  -1    0.82    8.27
  -7   3   1    9.39    5.23
   7  -3  -1   17.83   17.00
   7   3  -1    2.23   18.28
  -7  -3   1    9.79   10.41
   0   2  10 2330.23   38.62
   0  -2 -10 2331.04   38.05
   0  -2 -10 2322.26   34.24
   0  -2  10 2409.54   28.18
   0   2 -10 2342.51   27.94
   0   2  10 2406.57   34.12
   0  -2  10 2360.07   35.12
   2  -3 -10 1417.32   27.39
  -2  -3  10 1415.76   14.83
  -2  -3  10 1439.11   35.14
  -2  -3  10 1448.37   16.22
   0  -5   8  694.04   19.35
   0  -5  -8  668.30   17.89
   0   5   8  718.97   23.48
   2  -3 -10 1365.48   17.79
  -2   3  10 1484.82   38.19
   0  -5   8  713.06   15.70
   0   5   8  681.92   20.07
   0  -5   8  681.19   15.69
  -2  -3  10 1439.83   29.48
  -2   3  10 1433.73   20.60
   0  -5   8  700.06   13.96
   0  -5  -8  730.37   19.43
  -1   7   5 1704.70   29.80
   1   7  -5 1653.69   27.18
   1  -7  -5 1560.72   29.36
   1   7  -5 1674.50   23.57
  -1   7   5 1727.23   26.42
  -1  -7   5 1669.79   27.99
  -1  -7   5 1753.26   24.72
   1  -7  -5 1668.42   29.95
  -1   6   7  584.98   16.11
  -1  -6   7  558.03   21.24
   1  -6  -7  579.09   16.52
  -1  -6   7  571.16   17.82
  -1   6   7  549.35   16.80
  -1  -6   7  577.58   14.24
   1  -6  -7  570.14   15.96
  -1  -6   7  600.72   21.24
  -2  -6   7  332.96   11.77
   2  -6  -7  358.25   20.45
  -2  -6   7  372.52   16.75
  -2  -6   7  342.47   11.25
  -2   6   7  355.28   13.20
  -2  -6   7  342.30   21.46
  -2   6   7  355.88   19.79
   2  -6  -7  330.10   12.41
  -6   0   9   -4.57    8.03
  -6   0   9    2.80    9.57
   5  -6  -3  189.70   13.04
   5   6  -3  157.83   15.78
  -5   6   3  172.37    4.01
  -5  -6   3  197.37   13.40
  -5   6   3  176.04    4.17
   5  -6  -3  218.55   23.91
  -5  -6   3  178.84   15.90
   5   6  -3  178.88   12.28
  -6  -5   2 3065.69   54.37
   6   5  -2 2918.80   47.15
  -6   5   2 2934.93   27.30
   6   5  -2 3003.31   52.24
   6  -5  -2 2977.48   45.88
   6  -5  -2 2955.07   51.52
  -6  -5   2 3012.49   60.81
   5  -6  -1  488.06   26.68
  -5  -6   1  489.26   20.25
  -5  -6   1  469.05   18.92
   5  -6  -1  478.40   30.54
   5   6  -1  488.18   20.03
   5   6  -1  443.99   26.38
  -6   5   3  284.24    8.63
   5  -4  -8  161.27   13.14
   6  -5  -3  281.59   21.42
   5   4  -8  156.51   16.01
  -6  -5   3  334.40   18.77
   5   4  -8  165.61    8.20
  -6  -5   3  315.42   14.92
   6  -5  -3  274.18   16.14
  -5  -4   8  198.84   16.53
   6   5  -3  282.42   18.69
  -5   4   8  165.43   18.69
  -5  -4   8  171.40    9.41
   6   5  -3  294.89   13.69
  -5   4   8  169.82   10.41
  -6   5   3  292.24    7.74
   5  -4  -8  173.61   11.49
   6  -1   4 4820.11   66.93
   6  -1   4 4995.17   60.90
   7  -3  -5  177.38   18.09
  -6  -1  -4 4812.03   62.24
   6   1   4 4915.54   80.12
  -6   1  -4 4799.80   65.97
   7  -3  -5  168.14   10.30
  -6  -1  -4 4821.65   66.61
  -6   1  -4 4741.75   64.17
  -7  -3   5  206.17   16.75
   6   1   4 4844.04   63.79
  -7  -3   5  214.52   17.28
  -7   3   5  180.53    8.72
   7   3  -5  185.79   17.09
  -7   3   5  166.09   10.47
   7   3  -5  182.29    9.97
  -3  -7   4   18.40   14.95
   3  -7  -4   31.15    6.40
   3   7  -4   40.29    9.40
   3  -7  -4   39.11   10.44
  -3   7   4   23.56    9.86
   3   7  -4   39.32    9.21
  -5   0  10 5264.64   77.82
  -5   0  10 5191.09   71.42
   3  -2   8 1627.52   26.38
  -3  -2  -8 1544.49   29.84
   3   2   8 1524.30   31.37
  -3  -2  -8 1562.23   28.43
  -3   2  -8 1531.10   27.85
  -3   2  -8 1562.66   31.79
   3   2   8 1633.07   37.49
   3  -2   8 1612.79   28.53
   0  -4   9   50.04   13.13
   0  -4   9   47.81    6.29
   0   4   9   57.42    8.05
   0  -4  -9   54.48   13.88
   0  -4  -9   62.11   12.01
   0  -4   9   54.65   11.39
   0  -4   9   70.81    9.69
   0   4   9   47.12   12.47
  -3   3  10  800.53   13.29
  -3  -3  10  838.32   34.24
  -3  -3  10  806.76   20.58
   3  -3 -10  768.85   10.98
   3  -3 -10  801.72   20.51
  -3   3  10  737.44   20.53
  -5  -3   9  665.99   20.34
  -5  -3   9  684.13    7.38
  -5   3   9  700.55   29.31
  -5   3   9  668.37   17.88
  -5  -3   9  669.81    7.28
   5  -3  -9  679.84   13.01
   5  -3  -9  650.26   13.99
  -5  -3   9  717.31   23.76
   2  -7  -5  645.59   18.92
  -5  -4  -4 5518.50   73.45
   2   7  -5  653.73   16.90
   5  -4   4 5551.88   75.06
  -5  -4  -4 5594.82   87.72
  -5   4  -4 5557.57   57.08
  -5   4  -4 5559.18   74.51
  -2  -7   5  662.97   23.77
   2  -7  -5  628.26   17.87
   5   4   4 5648.63   88.80
   5  -4   4 5652.73   59.69
  -2   7   5  648.00   26.69
   5   4   4 5658.36   74.30
  -2   7   5  644.22   13.86
   2   7  -5  592.82   22.10
  -2  -7   5  653.77   25.05
   0  -7   5  117.37   10.05
   0   7   5  134.37   10.73
   0  -7  -5   84.28   12.62
   0  -7   5   93.97    5.72
   0  -7  -5  111.84   15.13
   0  -7   5  113.10   12.74
   0  -7   5  108.30   11.23
   0   7   5   88.05   19.69
   6  -1  -9 4127.87   36.57
  -6  -1   9 4237.77   74.01
  -6   1   9 4174.14   64.59
   6  -1  -9 4184.42   37.30
  -6  -1   9 4099.13   56.06
  -6   1   9 4180.61   58.91
  -1   3  10 2106.02   29.93
  -1   3  10 2110.22   36.52
  -1  -3  10 2077.54   40.06
  -1  -3  10 2113.45   25.62
  -1  -3  10 2066.61   26.74
  -1  -3  10 2148.92   45.36
   1  -3 -10 2107.88   31.15
   1  -3 -10 2109.93   45.96
  -5   0  -6  834.27   23.39
  -5   0  -6  848.81   19.63
   5   0   6  855.70   24.34
   5   0   6  854.44   30.89
   6  -5  -1 2514.84   42.32
  -6  -5   1 2623.23   52.32
  -4  -6   6 2043.47   29.41
  -4   6   6 2040.12   26.96
   4  -6  -6 1940.57   31.71
   4   6  -6 1992.94   43.10
   6   5  -1 2582.69   39.96
  -4   6   6 1942.85   25.02
   4   6  -6 1934.39   27.29
  -4  -6   6 2003.00   34.39
  -6  -5   1 2610.87   44.03
   6  -5  -1 2558.61   39.59
   6   5  -1 2537.36   43.82
   4  -6  -6 1978.07   30.13
  -7  -2  -1 1373.54   30.41
  -7  -2  -1 1342.74   29.12
   7  -2   1 1341.93   30.45
   7  -2   1 1353.84   28.05
   7   2   1 1349.45   29.64
  -7   2  -1 1318.12   26.67
   7   2   1 1425.96   30.77
  -7   2  -1 1377.57   30.53
  -6   3  -3   -2.23   17.83
  -6  -3  -3    4.02   10.98
   6   3   3    8.72   10.49
  -6   3  -3    4.29    6.89
   6   3   3   -8.26   10.36
   6  -3   3   11.83   11.03
   6  -3   3    4.84    7.77
  -6  -3  -3    6.68    9.93
  -6   5   4 3501.51   40.08
  -6   5   4 3473.78   35.39
   6  -5  -4 3387.90   48.08
  -6  -5   4 3598.75   54.49
   6  -5  -4 3526.01   54.58
   6   5  -4 3462.93   45.56
  -6  -5   4 3589.86   47.93
   6   5  -4 3494.55   53.47
   5  -3   5   35.24    6.60
  -5  -3  -5   45.14   21.57
   0  -8   0  148.23   14.92
   5  -3   5   33.50   12.78
  -5   3  -5   35.27    9.58
  -5   1  10 3871.16   69.23
  -5   3  -5   47.38   13.06
   5   3   5   21.45   13.56
  -5  -3  -5   45.51   12.50
   0   8   0  147.61   11.08
  -5  -1  10 3912.56   64.92
  -5   1  10 3800.82   52.03
   0   8   0  186.54   14.36
  -5  -1  10 3785.59   57.08
   0  -8   0  153.20    6.90
   4  -2   7 1505.83   40.48
   4  -2   7 1574.29   32.47
  -4  -2  -7 1436.73   28.83
   4   2   7 1557.50   31.35
  -4   2  -7 1443.95   29.35
  -4   2  -7 1482.24   28.84
   4   2   7 1507.25   39.53
  -4  -2  -7 1533.46   29.91
  -1   0 -10 2576.31   38.79
   1   0  10 2731.71   34.00
   1   0  10 2655.31   40.62
  -1   0 -10 2641.61   49.35
  -4  -4   9  405.41   19.55
   2   2   9   28.64   13.91
  -4  -4   9  466.12   25.27
  -5  -6   4  138.07   11.72
  -4   4   9  430.20   14.86
   2   2   9   45.79   12.44
   2  -2   9   11.21   14.08
  -5   6   4  124.63    7.09
  -4   4   9  438.21   25.19
  -5  -6   4  160.53   15.00
  -2  -2  -9   36.30    9.24
   5  -6  -4  104.60   13.47
  -2   2  -9   36.57    8.81
  -4  -4   9  435.32    9.69
  -4  -4   9  406.83    9.77
  -2   2  -9   42.78   14.02
  -5   6   4  114.17    6.56
   2  -2   9   33.47   14.50
   5   6  -4  124.34   22.96
   4  -4  -9  422.38   14.58
  -2  -2  -9   28.88   11.81
   5   6  -4  143.41   10.46
   4  -4  -9  381.55   13.37
   5  -6  -4  122.54   11.85
   3  -7   2 5544.95   83.04
  -3  -7  -2 5636.89   71.64
   3  -7   2 5536.73   87.87
   3   7   2 5550.76   72.71
  -3  -7  -2 5610.17   75.28
   3   7   2 5514.72   71.80
  -5  -6   0  122.57   24.81
   0  -6   7  233.29   19.02
   0  -6   7  230.29   12.47
   5  -6   0  121.51   15.79
   6   3  -8 1292.82   42.16
   5  -6   0  133.99   13.64
   6  -3  -8 1256.40   18.13
   0  -6   7  195.26   14.16
   6   3  -8 1256.82   17.29
   5   6   0  125.37   15.30
   5   6   0  110.00   13.84
   0   6   7  213.63   12.68
  -5  -6   0  138.32   15.01
   0   6   7  212.08   14.02
  -6  -3   8 1299.75   30.80
   6  -3  -8 1257.54   17.09
   0  -6  -7  225.12   20.79
  -6  -3   8 1301.41   18.76
   0  -6   7  204.72   10.85
  -6   3   8 1247.40   29.96
   0  -6  -7  207.69   13.00
  -6   3   8 1245.94   33.48
   0   8  -1 3742.19   44.36
   0  -8   1 3685.19   52.46
   0  -8  -1 3801.00   65.42
   0   8   1 3735.59   42.61
   0   8  -1 3735.55   52.98
   0  -8   1 3723.25   43.21
   0   8   1 3695.21   63.88
   0  -8  -1 3801.29   46.53
  -2   0  11    0.46    8.03
  -2   0  11   -1.34    9.45
  -2  -5  -7   -0.84    8.46
   2  -5   7   -4.34    7.66
   2   5   7  -12.28   15.97
  -2  -5  -7   11.20   14.32
   2  -5   7    7.50    6.47
   2  -5   7   -2.51    7.18
   2  -5   7   17.25    8.16
   2   5   7    3.78    8.29
  -5   1  -6 1571.79   31.45
   5   1   6 1684.78   31.46
  -5   1  -6 1590.03   25.99
   5  -1   6 1660.23   32.67
   5   1   6 1647.18   32.13
   5  -1   6 1581.77   35.94
  -5  -1  -6 1627.32   29.66
  -5  -1  -6 1628.63   32.23
   3   4   7  181.04   13.80
   3   6  -7 1381.84   21.14
  -3  -4  -7  213.43   15.94
   3   6  -7 1360.44   35.45
  -3  -4  -7  192.76   14.65
  -3  -6   7 1433.57   27.94
   3  -6  -7 1429.13   28.35
  -3  -5  -6    6.75    9.91
  -3   4  -7  172.59   14.07
   3  -6  -7 1434.51   32.04
   3   5   6   11.68   11.15
   3   5   6   -3.41   15.40
  -3   4  -7  199.25   11.84
  -3  -5  -6    5.48   10.01
   3  -5   6    8.47    5.65
  -3  -6   7 1457.02   37.06
   3   4   7  175.74   17.43
   3  -5   6    8.94    9.93
   3  -5   6    0.50    8.36
   3  -4   7  169.18   22.32
   3  -4   7  179.99    8.20
  -3   6   7 1444.31   24.44
  -3   6   7 1430.94   23.33
   3  -5   6    7.67    6.39
   7   0   2 3826.05   70.17
  -7   3   0 9501.93  104.35
  -7   3   0 9651.29  119.68
   7   3   0 9664.04  118.08
  -7  -3   0 9605.67  119.13
  -7   0  -2 3785.91   58.29
   7   0   2 3956.93   62.07
   7   3   0 9593.76  119.69
  -7  -3   0 9646.80  119.37
   7  -3   0 9598.60  118.94
   7  -3   0 9557.07  105.57
  -7   0  -2 3887.91   69.97
  -3   0  11    5.57   18.79
  -3   0  11    7.81    9.90
  -6  -4  -2 2602.97   43.65
  -6   4  -2 2615.03   28.31
  -6  -4  -2 2527.07   53.83
   6  -4   2 2656.85   44.45
  -6   4  -2 2583.66   44.64
   6   4   2 2570.59   42.54
   6   4   2 2705.27   57.67
   6  -4   2 2656.69   30.16
  -7   2   7 2212.19   32.07
  -1   8   0 2144.78   22.48
  -7  -2   7 2107.70   39.88
   1   8   0 2140.88   35.16
  -1  -8   0 2270.39   49.02
  -1   8   0 2139.94   36.40
   7  -2  -7 2140.58   33.91
   7  -2  -7 2160.64   26.79
   1  -8   0 2149.63   36.62
  -7   2   7 2175.63   43.92
   7   2  -7 2207.42   30.13
   1  -8   0 2200.56   24.74
  -1  -8   0 2230.09   29.75
   1   8   0 2114.74   36.43
   7   2  -7 2244.54   40.32
  -7  -2   7 2192.72   26.59
  -1   1 -10  332.59   22.24
  -1   1 -10  307.39   15.74
   1   1  10  306.06   26.36
   1  -1  10  283.95   10.64
  -1  -1 -10  289.40   25.21
   1  -1  10  291.26   15.60
  -1  -1 -10  290.46   10.99
   1   1  10  319.09   16.39
  -4  -6  -3   34.79   13.89
  -4  -6  -3   63.39   20.43
   4   6   3   46.09   12.66
   4   6   3   62.15   21.94
   4  -6   3   48.16   12.17
   4  -6   3   59.90   13.87
   1  -8  -1  744.10   22.90
  -1  -8   1  788.77   22.47
  -1   8   1  741.13   11.55
  -1  -8   1  800.80   20.61
   1   8  -1  768.11   20.96
   1  -8  -1  791.93   14.01
   1   8  -1  777.17   21.53
  -1   8   1  742.00   22.17
   4   5  -8 7097.55   73.24
   4  -5  -8 7021.26   87.04
   4   5  -8 6958.04   87.98
  -4   5   8 6946.89   92.15
  -4  -5   8 7201.82   79.60
  -4   5   8 7159.55   90.03
  -4  -5   8 7166.19   90.27
   4  -5  -8 7145.74   79.44
   5   5  -7 1579.60   21.50
   5  -5  -7 1532.62   23.87
   5  -5  -7 1576.86   32.52
   5   5  -7 1601.28   31.89
  -5   5   7 1588.36   24.80
  -5   5   7 1618.69   28.86
  -5  -5   7 1624.71   33.02
  -5  -5   7 1619.57   28.07
   2   4   8 2361.06   40.09
   2   4   8 2330.13   35.16
  -2  -4  -8 2261.43   44.36
  -2  -4  -8 2275.32   38.34
   2  -4   8 2353.49   43.63
   2  -4   8 2348.05   31.75
   2  -4   8 2267.58   35.33
   2  -4   8 2347.44   32.91
  -2  -1  11 3141.62   45.96
   2  -1 -11 3114.94   28.47
  -2  -1  11 3201.24   50.60
   2  -1 -11 3106.75   46.48
  -2   1  11 3116.09   47.21
  -2   1  11 3157.60   27.79
   6   4  -7  248.81   18.39
  -6   4   7  264.51   10.58
   6   4  -7  260.46    8.51
  -6   4   7  277.88   11.87
   6  -4  -7  282.20   17.02
  -6  -4   7  269.03   18.98
  -6  -4   7  270.53   13.68
   6  -4  -7  255.42    9.76
  -4  -7   2   84.82   20.41
   4  -7  -2   72.39   22.69
  -4  -7   2   71.79   20.17
   4   7  -2   55.57   12.12
   4   7  -2   62.15   11.33
   6  -2   4 1355.23   31.90
  -6  -2  -4 1434.80   43.54
   6   2   4 1410.35   31.71
  -6   2  -4 1474.67   31.46
   6  -2   4 1438.17   23.09
  -6   2  -4 1375.61   21.61
   6   2   4 1466.49   30.80
  -6  -2  -4 1469.48   39.60
   7   1   2 2665.62   44.34
  -7   1  -2 2584.07   43.83
   7  -1   2 2579.26   36.73
  -7  -1  -2 2615.89   56.27
   5  -5   3   32.04   13.58
   5   5   3   28.62   12.35
  -7  -3   6 1527.93   33.57
  -7   3   6 1580.25   32.85
   5   5   3   36.07   14.07
  -7   1  -2 2574.64   35.77
  -7   3   6 1563.08   29.28
   7   3  -6 1540.38   33.57
  -7  -3   6 1547.75   23.23
   7  -3  -6 1557.26   29.11
   7  -1   2 2562.66   43.88
   5  -5   3   31.81   11.52
   7  -3  -6 1577.41   32.30
  -7  -1  -2 2504.38   39.16
   7   3  -6 1574.83   28.32
   7   1   2 2589.03   40.78
  -5  -5  -3   18.37   13.21
  -5  -5  -3   34.71   12.67
   4  -7  -1 2299.74   37.90
  -4  -7   1 2318.04   38.32
   4   7  -1 2169.40   47.73
   4   7  -1 2267.15   36.82
   4  -7  -1 2212.92   40.44
  -4  -7   1 2344.77   39.17
   6  -5   0 1711.99   34.71
  -6  -5   0 1811.55   36.15
  -3   1  11 1507.14   29.61
  -3   1  11 1487.46   45.67
   6  -5   0 1775.43   32.53
   6   5   0 1770.22   35.88
   6   5   0 1755.64   33.03
  -3  -1  11 1554.71   45.66
  -3  -1  11 1514.06   40.77
  -6  -5   0 1768.55   34.20
  -1  -8  -1    5.73   10.04
  -1  -8  -1    3.91   16.89
   1  -8   1    9.04   10.39
   1   8   1   14.58    6.86
  -1   8  -1    2.20    9.84
  -1   8  -1    7.44    4.05
   1   8   1   -1.13   17.35
   1  -8   1   13.19    4.10
   0   8   2 1567.54   29.02
   0  -8   2 1641.39   23.43
   0  -8  -2 1646.86   27.95
   0   8  -2 1596.79   29.93
   0   8  -2 1574.80   23.45
   0  -8  -2 1561.89   31.76
   0  -8   2 1686.47   41.80
   0   8   2 1579.78   30.94
   6  -5  -5  424.04   24.52
  -6   5   5  427.02   14.64
   6  -5  -5  450.70   21.42
  -6  -5   5  430.94   14.74
   6   5  -5  475.67   31.98
  -6  -5   5  481.26   32.97
   6   5  -5  465.91   19.86
  -6   5   5  433.08   12.81
   1   0 -11   -8.97   14.05
  -1   0  11   -0.08   16.56
   1   0 -11   -0.90    4.46
  -1   0  11    6.18    4.70
  -4   3  10 3509.35   48.69
  -4  -3  10 3592.96   54.59
   4  -3 -10 3496.90   37.30
  -4   3  10 3628.91   53.10
  -4  -3  10 3560.73   49.78
   4  -3 -10 3504.13   36.80
  -1   8   2 3456.26   60.35
  -1  -8   2 3346.83   59.32
   1  -8  -2 3347.73   39.60
  -1  -8   2 3515.54   46.31
   1  -8  -2 3420.60   61.46
   1   8  -2 3344.55   40.07
   1   8  -2 3415.84   48.64
  -1   8   2 3342.59   37.32
  -7   0   817404.46  220.88
   7   0  -817636.42  211.69
   7   0  -817229.40  180.25
  -7   0   817266.57  181.04
  -6   2   9   -0.53    7.58
   6   2  -9    4.32   11.78
   6  -2  -9    7.30    4.52
   6  -2  -9   13.35    5.09
  -6   2   9    7.05    9.15
  -6  -2   9    1.72   18.31
   4   4   6  324.56   17.25
  -4  -4  -6  303.86   18.75
   4  -4   6  305.19    9.11
  -4   4  -6  339.20   17.66
  -4   4  -6  326.82   12.31
  -4  -4  -6  354.70   27.91
   4   4   6  287.24   19.76
   4  -4   6  313.63   27.16
   3  -7  -5   61.87   18.32
   3   7  -5  113.50    9.99
   3   7  -5   86.64   11.06
   2  -7   4 1402.84   27.68
   2   7   4 1368.61   27.55
   3  -7  -5   83.36    5.94
   2  -7   4 1376.95   41.60
  -3   7   5   67.41   11.54
  -2  -7  -4 1386.87   35.44
   2   7   4 1325.00   39.05
  -2  -7  -4 1338.89   30.19
  -3   7   5  107.81   10.65
  -3  -7   5   99.64   11.63
  -3  -7   5   88.20   10.75
   4   7  -3 2273.21   47.04
  -4  -7   3 2419.00   39.12
  -4   7   3 2287.92   19.85
   4   7  -3 2263.62   35.77
   4  -7  -3 2358.19   47.48
  -4  -7   3 2325.94   36.91
  -4   7   3 2258.84   19.59
   4  -7  -3 2334.03   40.00
   8   0  -3    4.63    8.11
  -8   0   3    2.19   15.32
   8   0  -3   -2.03    8.36
  -8   0   3  -11.03    8.95
  -5   2  10  283.35   14.66
  -5  -2  10  215.67   18.88
  -5  -2  10  256.44   16.53
  -5   2  10  218.55   26.62
   1   7   5 1474.84   27.93
   1  -7   5 1503.57   27.56
  -1  -7  -5 1500.23   30.13
   1  -7   5 1491.57   18.72
   1   7   5 1560.55   39.95
   1  -7   5 1480.26   30.18
  -1  -7  -5 1554.08   27.08
   1  -7   5 1511.08   17.19
   8   0  -4 2152.96   45.54
  -8   0   4 2079.22   35.55
  -8   0   4 2185.16   42.72
   8   0  -4 2058.70   32.98
   7  -4  -3   63.90   10.90
   7   4  -3   91.91   15.82
  -7  -4   3  100.01   16.29
  -7   4   3   99.76    8.55
  -7   4   3   87.69   10.13
   7   4  -3   78.02   17.60
   7  -4  -3   95.48   12.65
  -7  -4   3   96.95   19.38
  -5  -6   5    2.97   10.20
  -5   6   5    2.73    3.53
   5   6  -5    4.29    8.88
  -5   6   5    2.36    6.32
   5   6  -5    1.46    9.51
   5  -6  -5   -7.10   12.40
  -5  -6   5    3.99   11.46
   1   5   8   12.42   13.95
   2  -6   6 1201.17   23.58
  -1  -5  -8   21.11   15.16
  -2  -6  -6 1201.96   27.24
   2  -6   6 1183.11   36.06
   2   6   6 1173.68   27.29
   2  -6   6 1215.43   17.26
   1  -5   8   15.06    5.67
   2  -6   6 1179.09   18.73
   1  -5   8   25.42   13.70
   1  -5   8   24.82   10.86
   1  -5   8   24.67   11.23
  -2  -6  -6 1149.15   35.52
  -1  -5  -8   16.02   17.16
   1   5   8   14.18   11.56
   2   6   6 1172.49   35.60
   0  -3  10   30.64    6.15
   0  -3  10   21.23   10.59
  -4  -7   0 6634.92   84.76
   4  -7   0 6332.43   85.31
   4   7   0 6343.91   82.21
   0  -3  10   28.32    5.28
   4  -7   0 6490.52   82.80
  -4  -7   0 6714.02   98.78
   0  -3  10   41.29    9.18
   4   7   0 6476.79   92.93
   0  -3 -10   27.57    7.06
   0   3  10   22.51   12.33
   0   3  10   18.74   10.80
   0  -3 -10   18.15   11.74
  -4  -5  -5   59.21   22.90
  -4  -5  -5   62.79   13.46
   4  -5   5   87.00   22.61
   4   5   5   62.81   14.98
   4   5   5   65.26   13.52
   4  -5   5   78.98    6.49
   4  -5   5   83.47    6.43
   4  -5   5   66.38   12.19
  -1   1  11 2088.54   47.78
  -1  -1  11 2069.77   20.57
  -1  -1  11 2029.53   34.96
  -1  -1  11 2093.28   23.64
  -1   1  11 2030.98   24.79
   1  -1 -11 2013.16   25.66
   1  -1 -11 1977.87   46.36
  -1  -1  11 2035.01   37.70
   5   6   1 2841.04   59.77
   5  -6   1 2790.12   46.69
  -5  -6  -1 2929.53   47.36
  -5  -6  -1 2854.96   46.06
   5   6   1 2890.84   56.59
   5  -6   1 2883.29   44.39
   7   1  -8  530.40   12.01
  -7   1   8  495.40   19.66
   7   1  -8  509.45   21.47
  -7   1   8  526.88   25.40
  -7  -1   8  571.75   21.76
   7  -1  -8  508.30   13.80
  -7  -1   8  536.85   12.67
   7  -1  -8  529.57   12.40
   7  -4  -2  802.34   33.61
   7   4  -2  816.32   38.38
  -7   4   2  782.58   16.10
  -7  -4   2  816.98   38.74
   7   4  -2  762.47   20.95
  -7  -4   2  763.51   31.79
   7  -4  -2  802.83   16.37
  -7   4   2  817.10   23.33
   8   0  -2  799.67   29.40
  -8   0   2  730.66   31.12
   8   0  -2  683.76   21.50
  -8   0   2  723.97   20.41
   5  -2   6  835.68   35.03
   5   2   6  766.65   23.66
   5   2   6  753.87   23.73
  -5  -2  -6  731.26   34.58
  -5   2  -6  775.06   23.61
   5  -2   6  758.42   24.70
  -5   2  -6  718.86   22.28
  -5  -2  -6  743.80   32.38
  -4   0  11   35.75   13.31
  -4   0  11   14.08   11.47
  -8   1   3  270.67   15.42
   8  -1  -3  266.85   15.16
   8  -1  -3  261.19   14.28
  -8  -1   3  274.54   14.85
  -8  -1   3  283.84   17.37
   8   1  -3  255.42   14.95
  -8   1   3  276.37   21.52
   8   1  -3  280.25   16.65
   7  -4  -4  834.81   21.26
  -7  -4   4  892.54   28.67
   7  -4  -4  889.65   19.78
   7   4  -4  800.61   19.05
  -7   4   4  821.09   17.36
  -7   4   4  832.44   19.79
   7   4  -4  835.45   26.56
  -7  -4   4  863.63   27.06
   3  -3   8 3176.97   41.07
   3   3   8 3210.21   50.27
  -3  -6  -5  100.75   14.88
  -3   3  -8 3191.73   45.42
   3  -6   5  111.32    4.03
  -3  -3  -8 3098.17   59.15
  -3   3  -8 3078.40   45.42
   3   6   5  103.93   15.40
   3  -6   5  118.27    4.20
   3   6   5  100.31   22.39
  -3  -3  -8 3212.36   46.24
   3   3   8 3245.47   55.02
  -3  -6  -5  104.86   22.20
   3  -6   5  105.09   12.81
   3  -3   8 3162.09   45.54
   3  -6   5  135.25   14.68
   8   1  -4 4643.78   74.64
   8  -1  -4 4667.44   69.27
   8   1  -4 4588.14   67.18
   8  -1  -4 4548.95   59.30
  -8  -1   4 4615.22   75.77
  -8   1   4 4561.58   59.42
  -8   1   4 4619.53   68.32
  -8  -1   4 4627.50   67.52
  -2   5   9   67.21   18.60
  -2   5   9   92.62   13.11
   2  -8  -1  827.35   24.17
  -2  -5   9   93.90    6.16
  -2  -5   9  113.53   11.29
   2  -8  -1  887.55    9.81
  -2  -5   9   90.37   12.05
  -1   2 -10 3541.69   47.57
  -2   8   1  853.52   23.44
  -2  -5   9   90.23   15.85
  -2  -8   1  919.27   25.98
   2  -5  -9   95.96   13.48
   2   8  -1  846.20   25.93
   1   2  10 3683.07   66.85
  -2  -8   1  940.08   24.28
   1  -2  10 3735.65   59.14
  -2   8   1  861.67   10.19
  -1  -2 -10 3597.57   63.08
  -1  -2 -10 3615.36   51.48
   1   2  10 3748.19   52.01
   2  -5  -9   95.15   11.44
   2   8  -1  883.27   33.55
  -1   2 -10 3645.17   50.30
   1  -2  10 3716.89   51.33
  -1  -7   6  814.31   14.60
  -1  -7   6  842.68   29.07
  -1  -7   6  844.50   19.10
  -1   7   6  812.16   18.61
   1  -7  -6  881.90   18.04
   1  -7  -6  796.64   21.53
  -1  -7   6  861.04   22.76
  -1   7   6  834.64   20.84
   1  -8   2   49.99    4.24
   1  -8   2   50.28   12.54
  -1  -8  -2   47.30   13.43
   1   8   2   29.66   12.86
   1  -8   2   51.61   13.98
  -1  -8  -2   55.23    8.32
   1   8   2   37.83   14.44
  -2  -8   0 2128.68   31.63
   2   8   0 2103.56   32.30
   2  -8   0 2098.36   37.09
   2   8   0 2100.86   36.74
  -8   0   5   -6.11   15.91
   2  -8   0 2066.58   39.74
   8   0  -5   18.25   10.88
  -8   0   5   -6.11   12.03
  -2  -8   0 2101.74   49.64
   8   0  -5   20.25   13.31
  -2   2  11  722.21   11.76
  -2   2  11  741.39   22.56
   2  -2 -11  737.38   21.84
  -2  -2  11  749.51   21.02
   2  -2 -11  735.92   12.68
  -2  -2  11  738.19   34.54
   1   4   9  477.34   15.05
   1  -4   9  482.48   21.14
  -1  -4  -9  483.40   19.77
  -1  -4  -9  516.58   15.88
   1  -4   9  498.84   17.82
   1   4   9  477.28   31.42
   1  -4   9  475.90   21.42
   1  -4   9  484.48   13.66
   8  -1  -2 1563.15   36.25
   8   1  -2 1498.56   30.03
  -8  -1   2 1577.21   40.78
   8  -1  -2 1581.58   31.38
  -8  -1   2 1564.16   31.54
  -8   1   2 1609.86   36.25
  -8   1   2 1544.86   41.64
   8   1  -2 1522.71   31.05
   3  -7   3   15.25   20.28
   3   7   3   30.24   11.32
   3   7   3    4.95   18.55
  -3  -7  -3    2.23   11.43
   3  -7   3    6.29   10.97
  -3  -7  -3   11.54   15.42
   7   3   1 1063.58   27.11
   2   7  -6  434.55   20.81
   2  -7  -6  430.43   24.33
  -2  -7   6  459.87   14.76
  -4   1  11   -8.92   16.96
   2   7  -6  463.98   20.67
  -7  -3  -1  961.79   27.14
  -7   3  -1  967.45   27.51
  -2  -7   6  433.31   21.48
  -7   3  -1 1013.57   15.83
  -4   1  11   -3.03    8.89
  -4  -1  11    2.31    9.24
   2  -7  -6  467.54   18.13
   7  -3   1  910.71   27.10
   7   3   1  961.69   26.23
  -4  -1  11   -3.10   10.73
  -7  -3  -1 1041.36   27.09
   7  -3   1 1012.12   21.04
  -2   7   6  424.33   13.20
  -2   7   6  458.94   16.41
   7  -2   2  304.87   20.00
   7   2   2  327.80   18.39
  -7   2  -2  313.53   16.84
  -7   2  -2  339.51   19.78
  -7  -2  -2  347.51   19.69
  -7  -2  -2  321.82   17.50
   7  -2   2  312.87   11.89
   7   2   2  401.42   19.84
   1   8  -3  366.45   16.48
  -1   8   3  369.69   17.70
  -4   7   4  232.07    8.34
  -1  -8   3  373.03   11.12
  -4   7   4  242.27    8.27
   4   7  -4  217.15   15.04
   4  -7  -4  246.92   26.42
  -1   8   3  358.28   15.51
   1  -8  -3  383.28   13.92
   4  -7  -4  258.38   22.48
  -1  -8   3  388.71   17.34
   1  -8  -3  352.72   27.30
  -4  -7   4  281.96   14.54
   4   7  -4  241.37   13.21
  -4  -7   4  267.06   24.46
   1   8  -3  381.05   15.81
  -2  -8   2 3292.53   42.92
  -2   8   2 3210.61   59.73
  -2  -8   2 3343.50   60.15
   2   8  -2 3208.56   49.13
   2   8  -2 3139.01   47.01
   2  -8  -2 3258.71   33.68
   2  -8  -2 3320.18   49.41
  -2   8   2 3190.60   34.34
  -1  -6  -7  227.51   23.53
  -1  -6  -7  244.16   22.66
   1  -6   7  245.28   14.15
   1  -6   7  229.98   13.18
   1  -6   7  215.34   12.28
   1   6   7  221.62   13.97
   1  -6   7  245.49   11.37
   1   6   7  247.57   25.19
   3  -2 -11   13.53    2.33
  -3   2  11   22.36   12.87
  -1  -5   9  208.59   12.60
   1  -5  -9  211.56   14.27
  -3   2  11   15.10   17.65
  -3  -2  11   17.55   17.43
  -1   5   9  196.58   16.20
  -1   5   9  233.33   14.95
   1  -5  -9  182.74   17.11
   3  -2 -11    7.26    2.33
  -3  -2  11   22.22   12.86
  -1  -5   9  200.05   16.72
  -1  -5   9  195.14   19.64
  -1  -5   9  194.04   14.39
   4  -3   7   69.26    8.38
   4   3   7   63.80   23.67
  -4  -3  -7   77.82   21.73
  -4   3  -7   72.70   12.34
   4  -3   7   59.66   13.47
  -4   3  -7   58.88   12.95
  -4  -3  -7   59.36   22.12
   4   3   7   58.25   21.30
  -7   4   1  149.66    9.12
   7   4  -1  150.07   28.32
   7  -4  -1  155.45    6.29
  -7   4   1  157.44   25.53
  -7  -4   1  154.88   17.21
  -7  -4   1  161.24   24.05
   7  -4  -1  169.51   16.39
   7   4  -1  131.09   22.86
   0   8  -3  887.87   16.85
   0   8   3  913.59   24.18
   0  -8   3  895.81   23.13
   0  -8   3  888.74   13.33
   0   8   3  846.27   24.34
   0   8  -3  872.34   22.79
   0  -8  -3  926.03   17.11
   0  -8  -3  900.74   24.70
  -2  -3  -9   -0.71    7.11
   2  -3   9    2.98   12.93
   2  -4 -10 1551.10   29.52
  -2   4  10 1526.86   30.19
  -2  -4  10 1617.83   20.97
  -2  -4  10 1576.03   22.20
   2  -4 -10 1638.76   27.25
   2   3   9    5.38   11.54
  -2   4  10 1580.46   21.28
  -2   3  -9   -4.87    5.87
   2  -3   9   10.93    7.24
  -2  -3  -9    9.82    8.82
  -2  -4  10 1583.06   41.23
  -2  -4  10 1618.03   27.95
  -2   3  -9    4.56    6.65
   2   3   9    4.29   12.75
   4   6  -7  257.37   10.13
  -4   6   7  251.98   17.68
   4  -6  -7  293.29   12.42
   4  -6  -7  272.89   20.64
  -4   6   7  260.79   15.55
   4   6  -7  240.13   15.57
  -4  -6   7  264.93   16.08
  -4  -6   7  291.04   25.87
   6   5   1 2735.36   44.27
   6   5   1 2770.01   47.21
  -6  -5  -1 2742.71   58.58
  -6  -5  -1 2747.97   59.42
   6  -5   1 2667.77   59.04
   6  -5   1 2754.96   43.15
   8  -1  -5  265.06   15.32
   8  -1  -5  297.39   13.29
  -8   1   5  273.93   20.16
  -8   1   5  280.90   23.22
  -8  -1   5  260.44   12.86
  -8  -1   5  273.81   17.76
   8   1  -5  283.47   18.03
   8   1  -5  280.01   12.69
  -3   5   9   99.77   11.22
  -3  -5   9  100.11   13.25
   3  -5  -9  121.14   11.20
  -3  -5   9   89.02   17.51
   3  -5  -9   93.87   12.89
  -3  -5   9   85.68    5.68
  -3   5   9   69.26   11.95
  -3  -5   9   99.12   10.06
  -4  -7  -1  112.26   15.65
   4  -7   1  110.46   14.39
   4   7   1  105.43   22.85
   4   7   1   88.02   14.48
  -4  -7  -1   93.92   22.41
   4  -7   1  108.28   26.08
  -8   0   1   15.15    9.73
   8   0  -1   -9.77    9.02
   8   0  -1    0.79   10.52
  -8   0   1    8.23   11.48
  -7  -4   5   40.97   15.42
   7   4  -5   50.73   14.33
  -7   4   5   44.16    6.18
   7  -4  -5   73.98    9.24
   7   4  -5   84.89   24.89
  -7  -4   5   48.00   15.01
   7  -4  -5   60.35   10.85
  -7   4   5   62.06   11.81
   6   5  -6  238.22   17.84
  -6   5   6  220.32    8.42
  -6  -5   6  236.53   11.29
   6   5  -6  240.26   10.13
  -6  -5   6  202.00   29.03
  -6   5   6  244.85   14.57
   6  -5  -6  218.38   11.72
   6  -5  -6  215.52   13.19
   6   0   5    0.15    6.89
  -6   0  -5   -3.15   10.64
  -6   0  -5   -2.35    7.86
   6   0   5   -0.12    8.85
   0   7   6 3008.05   44.44
   0  -7   6 3045.25   35.25
   0  -7  -6 3070.88   42.24
   0   7   6 3020.98   43.18
   0  -7   6 3019.38   42.24
   0  -7   6 3020.02   33.71
   0  -7   6 3004.19   53.93
   0  -7  -6 2979.29   44.79
  -2  -8  -1   11.93    7.77
   2   8   1    7.20    8.76
   2  -8   1   33.02   18.34
   2  -8   1   21.86   21.38
  -2  -8  -1    2.66   11.28
   2   8   1   23.33   11.55
  -7   3   7  484.08   19.97
   7  -3  -7  436.15   11.56
   7   3  -7  453.90   10.70
  -7   3   7  437.58   15.71
   7   3  -7  439.03   33.26
   7  -3  -7  445.29   13.06
  -7  -3   7  451.09   22.32
  -7  -3   7  448.72   11.47
  -3  -4  10 3281.72   32.91
  -3  -4  10 3208.04   33.48
  -3  -4  10 3234.30   45.96
   2  -6  -8  698.62   25.07
  -2   6   8  671.45   16.68
  -3   4  10 3203.30   56.40
  -3   4  10 3243.63   39.59
   2  -6  -8  695.75   17.36
   3  -4 -10 3215.23   55.58
  -2  -6   8  738.31   15.96
  -3  -4  10 3352.74   50.36
  -2  -6   8  681.54   19.94
  -2   6   8  698.50   18.26
  -2  -6   8  718.74   15.79
   3  -4 -10 3194.55   40.36
  -2  -6   8  709.90   26.84
  -3   0  -9    6.23    8.12
  -3   0  -9   -3.31   14.54
   5  -4  -9  569.29   12.15
   3   0   9   -5.09    9.57
   5   4  -9  554.16   22.33
   5   4  -9  582.64   10.22
  -5  -4   9  589.04   11.38
  -5   4   9  547.40   18.72
   3   0   9   -4.66    8.49
  -5  -4   9  602.15   22.80
   5  -4  -9  552.36   11.18
  -5   4   9  562.75   23.42
   1  -2 -11  475.80   19.73
  -1  -2  11  490.66    8.34
  -1   2  11  496.76   12.95
  -1   2  11  527.00   30.43
  -1  -2  11  498.85   10.21
  -1  -2  11  491.63   17.96
   1  -2 -11  475.82   14.09
  -1  -2  11  505.29   20.41
   0   0 -11    7.16    9.98
   0   0  11    7.01    7.36
   0   0 -11    7.34    7.63
   0   0  11    8.38   10.76
  -7   2   8 1822.90   29.70
  -7  -2   8 1937.12   38.64
  -7  -2   8 1908.67   25.35
   7  -2  -8 1858.26   26.35
  -7   2   8 1870.17   33.22
   7   2  -8 1880.86   21.24
   7  -2  -8 1913.66   24.51
   7   2  -8 1924.13   50.86
   1  -6  -8 1741.69   38.79
  -1  -6   8 1713.70   26.75
  -1   6   8 1800.70   39.90
   1  -6  -8 1757.94   29.21
  -1  -6   8 1789.33   35.73
  -1  -6   8 1742.11   30.85
  -1  -6   8 1714.24   24.91
  -1   6   8 1766.54   36.32
  -1  -4  10 1335.36   24.53
  -1   4  10 1277.59   39.37
   1  -4 -10 1328.10   27.98
  -1   4  10 1334.00   25.69
  -1  -4  10 1336.63   17.52
  -1  -4  10 1308.69   23.18
   1  -4 -10 1269.53   26.83
  -1  -4  10 1279.08   26.98
  -4   0  -8  625.04   29.90
   4   0   8  580.65   20.62
  -4   0  -8  585.88   18.49
   4   0   8  638.25   19.94
  -6   0  1013105.17  162.77
  -6   0  1012942.17  166.51
   6  -3   4  232.76   18.82
  -6  -3  -4  229.64   17.47
  -8  -1   1 5144.88   68.28
  -8  -1   1 5181.98   81.92
   6   3   4  281.55   18.05
   6   3   4  194.21   19.21
  -8   1   1 5053.65   63.38
  -8   1   1 5182.66   70.43
   8  -1  -1 5291.32   66.24
  -6   3  -4  241.17   29.19
  -6  -3  -4  205.51   18.92
  -6   3  -4  237.97    8.64
   8  -1  -1 5151.02   70.36
   6  -3   4  220.29   14.56
   8   1  -1 5289.20   81.29
   8   1  -1 5160.16   82.17
  -8   2   3   56.81   12.33
   8  -2  -3   53.69   15.10
   8  -2  -3   68.63   12.19
  -8  -2   3   68.97   14.58
   8   2  -3   49.13   23.27
  -8   2   3   64.92    9.39
   8   2  -3   45.80   11.52
  -8  -2   3   64.34   11.69
   6  -4   3   -0.39   10.42
   6   4   3    0.19   17.31
  -6   4  -3    6.65   17.26
   6  -4   3    1.34    5.37
  -6  -4  -3   -7.72   10.07
  -6   4  -3    3.27    4.72
  -6  -4  -3    2.06   16.95
   6   4   3    2.33    9.85
   2   8  -3  461.64   17.89
   2  -8  -3  480.24   12.13
  -6  -1  -5  775.11   30.48
  -2   8   3  462.93   19.24
   6   1   5  800.21   25.73
  -6   1  -5  779.24   24.92
  -6   1  -5  801.57   18.44
  -2   8   3  465.87    9.56
   6  -1   5  831.82   20.10
   6   1   5  854.97   23.34
  -2  -8   3  496.56   21.28
   2  -8  -3  493.40   19.82
   6  -1   5  840.95   37.76
  -6  -1  -5  862.14   37.70
   2   8  -3  510.24   14.44
  -2  -8   3  443.35   18.62
  -5   4  -5 2485.92   30.94
  -5  -4  -5 2564.94   55.65
   5  -4   5 2585.12   44.42
   5  -4   5 2587.41   33.75
   5   4   5 2473.35   42.85
  -5   4  -5 2589.23   56.52
  -5  -4  -5 2505.55   44.11
   5   4   5 2537.29   45.18
  -8  -2   4  292.65   21.88
   8   2  -4  314.16   18.94
   8  -2  -4  305.78   13.52
   8   2  -4  300.31   21.24
  -8   2   4  286.55   13.41
  -8  -2   4  301.93   18.77
  -8   2   4  297.61   23.37
   8  -2  -4  287.20   15.32
   8   0  -6  743.57   22.84
   8   0  -6  713.71   16.48
   7   0   3    3.58   14.39
  -8   0   6  776.98   33.31
  -7   0  -3   -4.54    7.91
  -7   0  -3    0.08   18.33
   7   0   3  -10.19   11.81
  -8   0   6  741.55   23.18
   4   6   4 2012.93   48.50
   4  -6   4 2015.73   35.50
  -4  -6  -4 2004.15   37.15
   4   6   4 1997.32   38.92
   4  -6   4 2027.78   51.66
  -4  -6  -4 2005.85   38.56
  -5   6   6  926.24   19.31
  -5  -6   6  995.52   26.26
   5   6  -6  918.86   17.84
   5  -6  -6  844.25   21.91
   5  -6  -6  907.25   26.77
  -5   6   6  868.83   15.54
   5   6  -6  986.07   36.26
  -5  -6   6  935.46   37.28
   3  -1   9 4608.87   60.29
  -3   1  -9 4435.37   57.75
   3  -1   9 4689.01   60.78
   3   1   9 4632.35   63.66
   3   1   9 4482.77   59.20
  -3   1  -9 4428.25   58.38
  -3  -1  -9 4541.72   71.66
  -3  -1  -9 4399.61   58.20
   0  -1  11  278.66   25.07
   0   1  11  280.80   17.44
   0   1 -11  269.10   12.47
   0   1 -11  213.20   23.57
   0  -1 -11  247.55    8.98
   0  -1  11  268.52   12.19
   0  -1 -11  242.46   16.66
   6  -4  -8 3649.39   42.43
  -6   4   8 3753.99   54.41
   6  -4  -8 3665.33   50.50
  -6  -4   8 3838.89   72.52
   6   4  -8 3668.77   42.46
  -6   4   8 3690.16   50.05
   6   4  -8 3744.15   57.42
  -6  -4   8 3793.34   45.02
   6  -3  -9  144.91   10.05
  -6  -3   9  156.31    5.74
  -6  -3   9  146.64   28.83
  -6   3   9  194.12   19.00
   6   3  -9  179.55   17.47
   6  -3  -9  153.67    6.09
  -6   3   9  157.70   13.99
   5   6   2 3513.79   68.86
   5  -6   2 3407.21   68.71
   5  -6   2 3443.49   51.25
   5   6   2 3424.22   52.66
  -5  -6  -2 3353.96   53.79
  -5  -6  -2 3502.80   53.45
   3  -7  -6 1831.45   39.92
  -3   7   6 1866.66   25.85
  -3  -7   6 1874.69   29.90
  -3  -7   6 1890.77   41.66
   3   7  -6 1852.27   39.31
  -3   7   6 1917.26   31.66
   3  -7  -6 1873.64   29.79
   3   7  -6 1789.27   35.49
   8   2  -2 4303.47   59.65
   8  -2  -2 4330.31   53.89
   5  -5  -8 1297.08   29.14
  -8   2   2 4364.89   60.56
   5   5  -8 1320.08   22.04
   8  -2  -2 4216.66   60.65
   8   2  -2 4425.38   75.50
  -8   2   2 4304.67   53.46
   5   5  -8 1355.27   41.61
  -5   5   8 1308.11   22.54
  -5  -5   8 1344.39   19.09
  -5  -5   8 1367.17   43.49
  -8  -2   2 4305.32   74.64
   5  -5  -8 1300.52   21.03
  -5   5   8 1352.64   24.69
  -8  -2   2 4294.88   59.66
  -4   1  -8 7530.28  105.26
  -4  -1  -8 7626.00  106.11
   1  -8   3    8.05    3.06
   4   1   8 7984.47   99.57
   4  -1   8 7962.20   99.49
   1  -8   3    6.84    3.36
   4   1   8 8117.87  101.12
  -1  -8  -3   12.34    7.78
   1   8   3   12.64   17.32
   1   8   3    7.37    8.22
  -6   1  10 1206.71   29.57
  -6  -1  10 1204.03   30.90
  -1  -8  -3    9.98   11.55
  -4   1  -8 7535.34   90.26
  -4  -1  -8 7607.44   94.79
  -6  -1  10 1235.92   38.42
   1  -8   3   17.86   18.65
  -6   1  10 1189.72   36.46
   1  -8   3   26.03   10.00
   4  -1   8 7969.99  105.05
  -4   2  11  229.81   15.38
  -4  -2  11  198.87   15.63
  -4  -2  11  184.15   29.07
  -4   2  11  162.39   27.76
  -7   4   0 1035.01   13.51
  -7   4   0 1026.76   28.35
   7  -4   0 1123.25   41.35
   7   4   0 1019.83   26.45
  -7  -4   0 1042.47   29.30
   7   4   0 1055.83   29.72
   7  -4   0 1057.85   17.92
  -7  -4   0 1077.79   27.50
   5  -3 -10 7190.71   72.37
  -5  -3  10 7431.72  111.20
   5  -3 -10 7191.20   71.63
  -5  -3  10 7204.88   91.73
  -5   3  10 7347.34   98.98
  -5   3  10 7289.03   93.59
  -3  -6   8 1149.60   24.12
  -3  -6   8 1165.94   19.67
  -3  -6   8 1186.04   35.12
   3  -6  -8 1143.99   28.25
  -3  -6   8 1119.59   21.83
   3  -6  -8 1118.41   21.51
  -3   6   8 1140.01   22.11
  -3   6   8 1140.05   27.78
   7  -1   3   35.74    9.68
  -7   1  -3   42.55   14.67
   7  -1   3   42.11   14.41
   8   1  -6 1332.68   30.74
  -7  -1  -3   51.24   14.40
   7   1   3   52.93   23.52
   8  -1  -6 1323.50   30.29
   8  -1  -6 1376.23   37.93
  -7   1  -3   45.51    9.31
  -8  -1   6 1381.30   30.89
  -8  -1   6 1315.36   22.19
  -8   1   6 1411.69   30.17
  -7  -1  -3   28.29   18.45
   7   1   3   35.01   12.26
  -8   1   6 1311.86   27.54
   8   1  -6 1373.05   22.35
   0  -5  -9  561.76   19.71
   0   5   9  583.70   22.51
   0  -5  -9  541.41   16.47
   0  -5   9  579.38   14.54
   0  -5   9  549.97   13.97
   0  -5   9  572.04   18.50
   0  -5   9  598.01   15.81
   0   5   9  514.13   20.44
   4   7  -5  253.49   15.51
   4  -7  -5  258.21   16.55
  -4  -7   5  325.31   25.56
  -4  -7   5  277.93   21.60
   4  -7  -5  241.02   14.42
   4   7  -5  286.36   19.78
  -4   7   5  281.25   11.15
  -4   7   5  290.25   11.90
   5   5   4  148.74   17.66
   2   0  10 3134.63   47.38
  -2   0 -10 3042.02   45.35
   5   5   4  117.94   16.17
   5  -5   4  133.35    5.32
   5  -5   4  135.08   17.33
  -5  -5  -4  132.82   26.78
   2   0  10 3210.22   42.79
  -5  -5  -4  128.14   25.76
  -2   0 -10 3058.10   49.14
   1   8  -4 2476.45   38.64
   8   2  -5  319.50   20.07
  -8  -2   5  376.28   14.27
  -8  -2   5  347.56   31.97
   1   8  -4 2407.71   30.78
   8  -2  -5  321.50   14.63
   1  -8  -4 2463.40   40.46
  -1   8   4 2460.98   39.23
  -1   8   4 2535.39   51.25
  -8   2   5  369.47   15.10
  -1  -8   4 2554.01   32.46
  -1  -8   4 2564.25   49.90
   1  -8  -4 2439.40   30.98
   8  -2  -5  312.08   21.69
  -8   2   5  361.00   22.91
   8   2  -5  367.52   19.70
   2   8   2  130.38   19.57
   2  -8   2  134.05   27.64
   2  -8   2  141.54   15.14
  -5   3  -615536.35  174.66
   5   3   615729.90  190.95
   5  -3   615967.30  194.83
   2   8   2  112.43   24.40
  -5  -3  -615244.76  187.34
   5  -3   615818.93  174.38
   5   3   615938.23  209.50
  -5   3  -615612.60  190.34
  -5  -3  -615493.76  188.00
  -2  -8  -2  104.90   16.25
  -2  -8  -2  133.02   18.25
   2   7   5   23.83   11.33
  -2  -7  -5   32.26   16.90
  -5   0  11   -0.33   10.19
   2   7   5   29.95   11.45
   2  -7   5   17.57    3.05
  -2  -7  -5    9.17   20.11
   2  -7   5   17.37    2.85
   2  -7   5   41.33   19.47
  -5   0  11    2.30   14.14
   2  -7   5   18.62   16.37
  -7   4   6  273.08   17.21
   7   4  -6  267.12   15.94
  -7  -4   6  275.64   31.75
   7  -4  -6  250.26   11.50
   7  -4  -6  269.39   13.35
   7   4  -6  198.50   19.93
  -7   4   6  263.06    9.71
  -7  -4   6  243.19   11.75
   8   0   0   23.80   13.13
  -8   0   0   26.93   15.50
   8   0   0   25.22   10.67
  -8   0   0    7.34   12.36
  -7   0   9   -4.00   15.91
   7   0  -9    6.96    3.21
  -7   0   9    2.00   13.52
   7   0  -9    0.55    1.63
   1  -3  10 8202.25   99.72
   1  -3  10 8056.99   88.61
   1  -3  10 8280.71   97.44
  -1  -3 -10 8098.75  102.53
   1   3  10 8215.65  101.49
   1  -3  10 8275.20   93.60
   1   3  10 8308.50  118.95
  -1  -3 -10 7923.98   92.87
   0   6   8 2017.23   40.60
   0  -6  -8 2007.42   33.59
   0  -6   8 2061.45   34.85
   0  -6   8 2069.36   29.90
   0  -6   8 1991.90   31.36
   0   6   8 1977.30   34.94
   0  -6   8 2009.21   26.86
   0  -6  -8 2070.54   34.88
   0  -8  -4  278.39   11.63
   4  -5  -9  243.65    9.76
  -4  -5   9  252.57    8.10
  -4   5   9  283.68   15.18
  -4  -5   9  309.98   27.98
   4  -5  -9  280.22   16.23
   0  -8  -4  272.84   17.49
  -4   5   9  230.48   19.97
  -4  -5   9  261.68   14.63
   0   8   4  283.42   12.74
   0  -8   4  244.39   17.87
  -4  -5   9  269.37    7.71
   0   8   4  240.69   17.10
   0  -8   4  250.27   24.12
   0  -8   4  259.91   10.13
  -2   1 -10 3949.88   63.61
   2  -1  10 4192.93   57.27
  -2  -1 -10 4009.61   51.80
  -2   1 -10 4112.40   52.39
  -2  -1 -10 4078.13   68.50
   2   1  10 4159.65   53.02
   2  -1  10 4143.54   52.54
   2   1  10 4100.70   71.46
  -4  -7  -2   58.32   14.95
   4   7   2   60.16   22.32
   4  -7   2   73.96   13.35
   4  -7   2   31.86   15.57
   3  -8  -1 1274.46   40.25
  -3  -8   1 1354.19   26.24
   3   8  -1 1219.46   25.00
   3   8  -1 1259.02   28.51
  -3  -8   1 1294.26   29.90
   4   7   2   44.48   22.55
   3  -8  -1 1348.91   31.95
  -4  -7  -2   51.08   12.98
  -4  -4  10  126.30    3.35
  -4  -4  10  128.75    5.02
   4  -4 -10  144.59   10.83
  -4  -4  10  137.86   13.58
  -4   4  10  125.75   12.81
   4  -4 -10  122.83    9.96
  -4  -4  10  154.90   16.30
  -2   3  11 1389.37   30.06
  -2  -3  11 1337.05   30.79
  -2  -3  11 1344.42   14.64
  -2  -3  11 1360.06   37.09
   2  -3 -11 1391.56   39.98
  -2  -3  11 1344.86   15.15
   2  -3 -11 1330.16   21.37
  -2   3  11 1336.34   20.22
   6  -6  -2  516.92   21.27
  -6  -6   2  529.48   29.89
   6  -6  -2  477.14   18.66
   6   6  -2  459.35   33.94
  -6  -6   2  452.42   22.79
   6   6  -2  464.04   18.26
   3   8  -2 1261.39   27.50
   5   0   7   11.85   10.54
  -3  -8   2 1407.58   40.24
  -5   0  -7    3.51   12.24
  -5   0  -7   -0.88    6.12
   5   0   7   -3.07    9.08
   3  -8  -2 1231.83   44.21
   3   8  -2 1320.09   25.35
  -3  -8   2 1296.87   34.92
   3  -8  -2 1258.26   28.32
  -6  -6   3   10.56   12.81
   6  -6  -3    0.88   14.05
   6  -6  -3    1.51    7.56
  -6  -6   3   14.54   10.28
   6   6  -3   -2.62    7.28
   6   6  -3    3.58    9.90
  -8   2   1   16.26    7.52
  -8   2   1   17.19   12.25
   8   2  -1   23.23   12.71
   3  -5   7  116.79   12.55
   3   5   7  130.75   14.34
  -3  -5  -7  119.22   15.77
   3  -5   7  131.98   14.39
   3  -5   7  119.65    7.33
  -8  -2   1   18.98   12.07
  -8  -2   1   14.29   12.33
  -3  -5  -7  111.76   24.09
   3  -5   7  123.56   10.32
   3   5   7  110.11   16.87
   8  -2  -1   27.44   13.07
   8  -2  -1   15.90   12.72
   8   2  -1   18.00   19.91
  -5  -1  11   29.28   17.82
  -5   1  11    6.82   12.66
  -5  -1  11    2.45   13.23
  -5   1  11   13.07   17.52
  -7   3  -2  444.81   22.61
  -7  -3  -2  461.39   33.29
   7   3   2  457.28   21.98
   7  -3   2  445.23   16.32
  -7   3  -2  431.48   10.57
   7   3   2  417.99   21.27
  -7  -3  -2  450.90   20.61
   7  -3   2  432.00   22.38
  -6   2  -5   18.20   13.69
  -6   2  -5   29.17   12.11
   6  -2   5   23.90   13.13
  -6  -2  -5   31.41   13.93
   6  -2   5   21.48   13.61
   6   2   5   19.27   21.67
   6   2   5   28.20   12.76
  -6  -2  -5   34.24   11.78
   1   7   6 1418.21   39.46
   1  -7   6 1463.83   21.92
   1  -7   6 1473.11   29.66
   1  -7   6 1430.70   27.18
  -1  -7  -6 1421.00   27.10
   1  -7   6 1420.45   20.04
   1   7   6 1419.68   29.10
  -1  -7  -6 1412.00   30.13
  -8  -1   0   24.82   21.45
   8   1   0   21.91   21.47
   8   1   0   46.54   19.97
   8  -1   0   36.04    9.79
  -8  -1   0   36.46   19.45
  -8   1   0   36.65    9.29
   8  -1   0   29.98   13.61
  -8   1   0   33.50   13.84
  -2   8   4   -0.31   16.39
  -2  -8   4    3.02   15.74
  -2  -8   4   13.80    7.34
  -2   8   4    8.95    8.36
   2  -8  -4    9.29    7.37
   3  -3 -11  135.65    7.88
  -3   3  11  120.76    7.09
  -3  -3  11  105.61   13.58
   2  -8  -4   11.08   17.26
  -3   3  11  128.34   14.77
   2   8  -4   14.21    7.24
   2   8  -4    7.65   15.07
   3  -3 -11  127.58   14.37
  -3  -3  11  147.16   16.10
   6   5   2 1915.08   37.05
  -6  -5  -2 1899.70   37.87
  -6  -5  -2 1927.14   37.99
   6  -5   2 1909.83   39.15
   6   5   2 1972.58   39.65
  -7  -1   9  310.48   20.11
  -7   1   9  311.50   24.78
  -7   1   9  329.83   19.09
   7  -1  -9  288.02    5.92
   7  -1  -9  303.57    9.07
  -3  -8   0 2713.42   58.87
   3  -8   0 2712.27   45.01
   3   8   0 2660.83   43.89
   3   8   0 2662.16   50.14
   3  -8   0 2578.04   47.36
  -3  -8   0 2790.17   41.92
   0  -4  10 3537.91   48.20
   0  -4  10 3577.14   49.91
   0  -4 -10 3464.50   52.02
   0  -4 -10 3497.24   45.26
   0   4  10 3542.12   54.38
   0  -4  10 3497.37   40.51
   0  -4  10 3592.55   54.84
   0   4  10 3555.73   44.56
   3   7   4  304.24   18.11
   3  -7   4  305.63   26.08
   3  -2   9   91.36   12.10
   3   2   9   89.81   12.01
   3  -2   9   93.95   10.98
   3   2   9   96.61   15.10
  -3   2  -9  129.84   10.85
   3   7   4  277.70   18.33
  -3  -2  -9   88.24   14.50
  -3  -7  -4  260.55   30.88
  -3   2  -9   88.60   12.05
  -3  -7  -4  340.57   17.12
  -3  -2  -9  102.03   12.36
   3  -7   4  300.68   19.94
   2   5   8 3959.50   59.10
  -2  -5  -8 3881.06   55.03
  -2  -5  -8 3863.72   67.89
   2  -5   8 3905.35   50.63
   2   5   8 3824.50   53.41
   2  -5   8 3863.00   53.72
   2  -5   8 3858.89   48.58
   2  -5   8 3849.28   46.14
   0  -2  11  376.38   14.35
   0  -2  11  339.86   18.86
   0  -2  11  370.03   16.45
   0   2  11  337.82   10.39
   0  -2 -11  351.47   10.89
   0   2  11  381.79   19.09
   0  -2 -11  435.12   28.93
  -6  -5   7  169.42   14.66
  -6   5   7  163.39   10.16
   6  -5  -7  153.45   15.85
  -6  -5   7  146.09   28.68
   6   5  -7  161.44   13.29
  -6   5   7  139.88   13.62
   6   5  -7  167.96   28.11
   6  -5  -7  174.49   11.68
  -5  -1  -7  781.63   23.90
  -5  -1  -7  774.29   22.12
  -5   1  -7  683.11   34.39
   5   1   7  804.53   36.16
   5  -1   7  791.06   20.50
  -5   1  -7  746.55   18.78
   5  -1   7  748.23   24.38
   5   1   7  784.09   23.60
   4   2   8  281.58   18.67
   6  -2 -10   78.69    3.55
  -4   2  -8  247.69   18.70
   6  -2 -10   70.58    3.81
  -6   2  10   64.68   13.99
  -6  -2  10   86.76   13.86
  -4  -2  -8  248.40   16.90
   4  -2   8  263.06   20.45
  -6  -2  10   60.55   16.72
  -6   2  10   62.20   11.92
   4   2   8  221.58   16.17
   4  -2   8  288.65   25.67
  -4  -2  -8  222.03   16.56
  -6  -6   1  117.16   28.26
   6   6  -1  131.32   27.59
   6  -6  -1  120.33   16.43
   6   6  -1   92.11   22.83
   6  -6  -1  116.41   22.55
  -6  -6   1  162.87   16.20
   8   0  -7    6.59   16.09
  -8   0   7   10.36   10.54
  -8   0   7    0.24    9.35
   8   0  -7    2.09    5.38
   6  -6  -4  140.76   12.73
   6   6  -4  126.15   11.77
  -3   4  -8  131.39    8.43
   3  -4   8  145.39   22.25
  -3  -4  -8   98.53   14.42
  -6  -6   4  136.70   17.47
  -3   4  -8  138.72   13.33
   6  -6  -4  105.85   14.38
   6   6  -4  122.45   16.98
  -3  -4  -8  120.11   15.68
  -6   6   4  137.60    6.44
   3  -4   8  143.57    8.98
   3   4   8  144.47   14.12
  -6  -6   4  149.12   13.21
   3   4   8  134.07   28.21
   5  -7  -2  427.02   28.59
   5   7  -2  425.38   17.64
  -5  -7   2  468.33   19.77
   5   7  -2  394.18   20.26
  -5  -7   2  402.93   31.38
   5  -7  -2  467.38   32.80
  -8   2   6   49.25   15.25
   7  -2   3   96.55   27.23
  -7   2  -3  101.56   16.66
   7  -2   3  101.73   15.28
   7   2   3   70.38   15.44
  -8   2   6   54.21   10.99
  -7   2  -3   92.25    8.74
  -7  -2  -3   94.07   16.85
  -8  -2   6   58.57   13.53
   8  -2  -6   48.87    9.41
   8   2  -6   65.94   24.31
   8   2  -6   43.92   13.12
  -7  -2  -3  106.46   14.51
  -8  -2   6   48.52   24.70
   8  -2  -6   43.05   10.80
   7   2   3   81.69   16.26
   3   8  -3 2311.83   47.47
   3  -8  -3 2271.87   42.12
   3  -8  -3 2263.10   39.05
  -3  -8   3 2374.27   36.67
  -3   8   3 2244.26   24.38
   3   8  -3 2299.97   44.13
  -3  -8   3 2282.64   38.54
  -1  -7   7 1947.27   32.00
  -1  -7   7 1936.05   38.40
  -1   7   7 1945.92   32.88
  -1   7   7 1960.48   40.60
  -1  -7   7 1951.41   31.65
   1  -7  -7 1929.12   30.71
   1  -7  -7 1936.77   42.54
  -1  -7   7 1971.24   28.86
   1  -3 -11  737.54   18.93
  -1   3  11  749.85   17.63
  -1   3  11  758.45   34.97
  -1  -3  11  750.01   11.72
   1  -3 -11  744.62   23.24
  -1  -3  11  739.62   29.37
  -1  -3  11  753.93   34.49
  -1  -3  11  736.49   14.19
  -2   7   7  409.49   21.27
  -2  -7   7  411.08   14.64
  -2  -7   7  398.05   12.46
  -2   7   7  388.63   15.94
  -2  -7   7  400.17   22.23
   2  -7  -7  409.87   13.54
  -2  -7   7  407.63   13.97
   2  -7  -7  402.96   16.20
  -7   3   8  765.54   25.53
   7   3  -8  809.43   15.96
   7  -3  -8  800.36   14.19
  -7  -3   8  752.69   27.09
  -7  -3   8  796.54   17.44
   7  -3  -8  788.80   15.54
   7   3  -8  764.43   26.45
  -7   3   8  808.80   21.08
  -5  -7   3 2542.64   51.97
   5  -7  -3 2434.77   50.74
   5  -7  -3 2462.27   43.52
   5   7  -3 2505.38   43.04
   5   7  -3 2529.71   48.92
  -5  -7   3 2652.49   57.04
  -4  -5  -6 1571.33   33.68
   4  -5   6 1581.51   19.21
   4  -5   6 1532.65   45.78
   4   5   6 1592.38   33.03
   4  -5   6 1542.40   22.71
  -4  -5  -6 1621.06   33.86
   4  -5   6 1555.17   30.12
   4   5   6 1549.45   50.03
   5   7  -1   30.04   19.52
  -5  -7   1   23.67   12.51
   5  -7  -1   30.46   12.84
  -5  -7   1   15.74   12.38
   5  -7  -1   -0.62   11.13
   5   7  -1   10.29   10.86
  -2  -6  -7  102.15   24.00
   2  -6   7  131.79   22.78
   2   6   7  112.45   22.33
   2   6   7  130.01   25.90
   2  -6   7  139.77   12.27
   2  -6   7  152.35    9.47
  -2  -6  -7  163.84   15.44
   2  -6   7  142.22    7.24
  -3  -6  -6  910.03   26.42
   3   6   6  915.54   27.01
   3  -6   6  952.70   32.44
   3  -6   6  944.36   13.79
   3   6   6  919.40   24.91
  -3  -6  -6  903.57   25.11
   3  -6   6  907.63   25.95
   3  -6   6  903.75   14.31
   7  -4   1   15.58   12.55
   7   4   1    0.07   11.31
   7  -4   1    3.98    6.28
  -7  -4  -1    7.51   19.63
   7   4   1   16.85   12.87
  -7  -4  -1   12.79   12.15
  -7   4  -1    4.06    5.75
  -7   4  -1   11.43   12.48
   8  -3  -3  453.14   19.01
   8  -3  -3  452.44   19.26
   8   3  -3  443.26   22.96
   8   3  -3  437.11   17.70
  -8   3   3  430.93   19.46
  -8  -3   3  493.46   35.31
  -8   3   3  435.78   18.99
  -8  -3   3  485.24   27.42
  -8   1   7  631.50   21.16
  -8  -1   7  611.39   19.40
   8  -1  -7  625.02   30.39
   8   1  -7  673.47   35.21
  -8  -1   7  600.22   23.93
   8   1  -7  615.74   13.74
  -8   1   7  643.78   14.77
   8  -1  -7  619.23   20.47
   4  -4   7 8417.11   91.41
  -8   3   4 3119.92   47.56
   4   4   7 8373.96  110.03
   4   4   7 8430.01  106.59
   4  -4   7 8385.56  119.47
  -4   4  -7 8250.13  105.36
  -4   4  -7 8213.05   88.22
   8   3  -4 3108.70   44.06
  -8  -3   4 3182.49   52.95
  -8  -3   4 3188.53   55.47
   8  -3  -4 3094.07   46.47
   8   3  -4 3166.01   66.87
  -4  -4  -7 8310.26  119.13
  -4  -4  -7 8246.76  105.65
   8  -3  -4 3192.23   41.07
  -8   3   4 3191.54   57.30
   7  -5  -3    3.01   13.87
  -7  -5   3   14.23   12.85
   7   5  -3    0.36   14.05
  -7   5   3    5.59    4.72
  -7   5   3    4.48    3.42
   7   5  -3    2.05   12.19
  -7  -5   3   -5.25    9.40
   7  -5  -3    6.34   10.22
   3  -8   1  535.84   38.53
   3   8   1  595.51   33.58
  -3  -8  -1  655.86   24.32
  -3  -8  -1  643.12   29.05
   3   8   1  600.57   20.02
   3  -8   1  648.49   22.35
  -4   6   8  101.91   15.28
   4   6  -8   83.31   22.36
   2  -4   9  888.91   19.01
   2  -4   9  856.33   17.66
  -2  -4  -9  854.26   25.15
   4  -6  -8  111.62   11.25
   2  -4   9  869.42   18.17
   4  -6  -8  106.37   15.57
  -4  -6   8  120.24   23.15
  -4  -6   8  125.45   13.04
   2   4   9  935.34   30.36
  -4   6   8  108.60   11.23
   2   4   9  953.69   27.73
  -2  -4  -9  870.41   30.98
   2  -4   9  875.30   21.01
   1   8   4 3284.67   56.10
   2   2  10    8.68   10.72
   2  -2  10   10.46    8.40
  -1  -8  -4 3404.31   46.27
   1  -8   4 3490.69   66.76
   1  -8   4 3357.46   32.64
   1   8   4 3383.56   51.48
  -1  -8  -4 3405.32   53.13
   2  -2  10    4.00   12.01
   2   2  10   -3.96    7.39
  -2   2 -10   12.07    7.79
   1  -8   4 3433.38   50.60
  -2  -2 -10   -7.27   18.12
  -2   2 -10   11.00    8.82
  -2  -2 -10   15.28    8.56
   1  -8   4 3471.91   34.46
  -5   6   7  922.95   22.15
  -5  -6   7  983.44   25.12
   5   6  -7  922.43   17.31
  -5   6   7  948.82   24.51
   5   6  -7  942.66   25.93
   5  -6  -7  920.43   19.59
   5  -6  -7  939.28   21.60
  -5  -6   7  974.35   38.46
  -7  -5   2 1403.04   34.49
  -7  -5   2 1401.20   30.11
   7   5  -2 1387.37   28.98
   7   5  -2 1383.75   48.04
  -7   5   2 1368.13   14.30
   7  -5  -2 1456.29   28.82
   7  -5  -2 1341.62   43.75
   2   8   3   94.99   12.69
  -2  -8  -3   92.80   16.45
   2  -8   3   97.03   26.01
   2  -8   3  102.75   22.70
  -2  -8  -3   98.50   11.51
   2   8   3   74.27   15.23
   8  -3  -2 6339.41   71.92
  -8  -3   2 6362.00   86.73
   8  -3  -2 6348.54   96.69
  -8  -3   2 6434.03   94.71
  -8   3   2 6290.57   84.28
  -8   3   2 6260.12   76.76
   8   3  -2 6287.32   86.61
   8   3  -2 6290.22   93.77
  -4   7   6  198.47    8.50
  -4   7   6  203.83    9.17
   4  -7  -6  204.64   13.65
   4  -7  -6  211.56   24.48
  -4  -7   6  186.43   18.68
  -4  -7   6  195.21   15.91
   4   7  -6  227.37   23.30
   4   7  -6  187.11   11.37
  -4  -3  11   64.95   24.00
   4  -3 -11   60.72    4.79
   4  -3 -11   -0.29    3.78
  -4   3  11   44.94   19.28
  -4   3  11   36.31   13.82
  -4  -3  11   39.37   20.28
  -5   2  11   43.94   11.94
   1   0  11    1.63    8.28
  -5  -2  11   18.66   15.41
  -1   0 -11    0.23    7.93
   1   0  11   -0.28    4.69
  -5  -2  11   52.21   13.18
  -1   0 -11   -0.70    7.94
  -5   2  11   40.81   22.81
  -5  -6  -3  497.29   24.04
   5  -6   3  515.51   24.06
   5  -6   3  497.52   31.57
   7   5  -4 2342.89   36.15
  -5  -6  -3  475.00   33.59
   7   5  -4 2469.18   45.27
   7  -5  -4 2355.93   45.86
   5   6   3  486.50   35.89
  -7  -5   4 2434.87   61.28
   7  -5  -4 2393.70   39.92
   5   6   3  488.51   21.96
  -7  -5   4 2452.34   38.31
  -7   5   4 2361.20   29.40
  -7   5   4 2397.48   31.40
   8   2   0 4295.35   76.25
  -8  -2   0 4091.60   61.54
  -3   0  1210415.42  129.91
   8   2   0 4133.16   60.92
   8  -2   0 4169.41   52.41
  -2   0  12   83.81   22.52
  -3   0  1210237.91  148.00
   8  -2   0 4098.70   76.15
  -2   0  12   57.87   16.35
  -8   2   0 4170.25   75.91
  -8  -2   0 4171.04   74.01
  -8   2   0 4159.56   51.32
   6  -6   0 2562.85   46.53
   6   6   0 2635.69   47.00
  -6  -6   0 2633.82   46.61
   6  -6   0 2603.46   42.83
  -6  -6   0 2675.79   46.00
   6   6   0 2501.19   42.97
  -7  -4   7   60.98   13.25
   7  -2  -9  305.90   11.36
  -7  -4   7   68.16   27.23
   7  -4  -7   81.14    9.86
   7  -4  -7   71.87   13.29
   7   4  -7   88.76   11.83
   7   4  -7   71.86   17.08
   7  -2  -9  284.63    9.98
   7   2  -9  341.21   21.16
  -7   4   7   83.49   10.08
  -7   2   9  292.87   26.53
  -7  -2   9  298.47   20.80
  -7   4   7   82.38    8.46
  -7  -2   9  284.32    5.62
  -7   2   9  278.83   15.15
   5   7  -4  198.68   16.71
   5   7  -4  227.80   21.05
   5  -7  -4  187.67   26.94
   5  -7  -4  188.79   14.78
  -5  -7   4  182.70   14.61
   1  -8  -5 2545.51   34.11
  -5  -7   4  244.48   17.73
  -5   7   4  210.33    5.81
   1  -8  -5 2608.44   53.66
  -1  -8   5 2608.14   39.53
   1   8  -5 2581.77   33.13
  -1  -8   5 2596.83   40.25
   1   8  -5 2520.28   39.01
  -1   8   5 2554.13   35.74
  -1   8   5 2547.87   41.57
  -6   6   5  127.51    8.51
   6  -6  -5  124.72   21.65
   6  -6  -5  124.28   12.14
  -6  -6   5  120.69   11.96
   6   6  -5   93.84   10.73
  -6  -6   5   98.33   27.91
   6   6  -5  129.01   26.71
  -6   6   5  107.27    6.06
  -8   0  -1   -1.05    8.72
   8   0   1   -5.63   12.26
   8   0   1   12.89    9.50
  -8   0  -1   10.73   11.53
   5  -7   0  586.79   21.66
   5   7   0  544.09   32.27
   5  -7   0  558.54   36.82
   5   7   0  578.98   22.92
  -5  -7   0  652.22   34.55
  -5  -7   0  573.14   23.10
   0  -7   7  120.37   11.46
   0   7   7  129.54   13.65
   0  -7   7  128.16   18.05
   0  -7  -7  125.59   12.62
   0   7   7  162.74   21.58
   0  -7   7  135.11   13.09
   0  -7   7  134.09   12.70
   0  -7  -7  157.26   14.35
   8  -3  -5  334.74   13.42
   8   3  -5  391.89   22.31
   8   3  -5  383.16   21.43
  -8  -3   5  403.22   22.62
   8  -3  -5  389.17   16.40
  -8   3   5  340.65   16.16
  -8  -3   5  387.90   15.14
  -8   3   5  415.77   20.85
   1  -5   9 1327.97   21.66
  -1  -5  -9 1336.45   26.71
   1   5   9 1407.64   44.83
   1   5   9 1304.89   34.46
  -1  -5  -9 1307.32   41.00
   1  -5   9 1354.07   23.32
   1  -5   9 1384.08   28.51
   1  -5   9 1311.85   24.97
   5  -2   7  528.14   16.59
   5  -2   7  549.33   33.50
  -5  -2  -7  479.83   31.75
  -5  -2  -7  535.73   22.26
   5   2   7  500.63   34.52
   5   2   7  522.81   21.80
  -5   2  -7  550.75   22.06
  -5   2  -7  527.91   21.98
  -3  -7   7 3118.36   55.34
  -6  -4  -4 2221.54   42.57
   3  -7  -7 2962.99   44.23
  -6  -4  -4 2123.21   41.03
  -3   7   7 2985.53   46.14
   3   7  -7 2937.22   52.91
   6  -4   4 2279.65   57.03
   3   7  -7 2903.63   39.35
   3  -7  -7 2975.02   42.83
   6   4   4 2206.48   41.75
  -3  -7   7 3012.12   48.38
   6  -4   4 2158.65   29.70
   6   4   4 2212.78   57.45
  -3   7   7 3025.49   43.43
  -6   4  -4 2122.13   27.66
  -6   4  -4 2177.11   56.38
  -1  -1 -11   15.61    6.79
  -1   1 -11    0.73   10.40
   3   8  -4 1914.40   40.25
   1  -1  11   12.90   10.82
   3  -8  -4 1883.83   34.99
   1  -1  11   10.14   17.00
   3   8  -4 1926.58   32.82
   1   1  11   21.11   12.29
  -1  -1 -11   19.34   11.23
   1   1  11   15.06    6.90
   3  -8  -4 1892.14   21.30
  -3  -8   4 2018.40   44.71
  -3  -8   4 1964.39   32.86
  -1   1 -11    6.94   10.00
  -3   8   4 1932.63   26.23
  -3  -1  12 1265.66   47.45
   2  -1 -12  486.66    6.25
  -3   1  12 1305.76   30.02
  -3  -1  12 1347.96   29.88
  -2   1  12  561.54   32.75
  -3   1  12 1293.61   33.50
  -2  -1  12  529.46   23.72
  -2  -1  12  515.77   20.83
   2  -1 -12  495.10   21.11
   7   5  -1  910.65   24.74
   7  -5  -1  897.75   27.58
  -7   5   1  877.98   10.57
  -7  -5   1  942.47   37.53
   7   5  -1  858.03   42.52
  -7   5   1  867.91    9.11
  -7  -5   1  926.92   28.86
   7  -5  -1  878.00   24.53
   4  -7   3 4316.40   66.14
  -4  -7  -3 4500.53   64.26
   4   7   3 4359.12   63.75
   4  -7   3 4401.68   62.63
   4   7   3 4365.84   77.38
  -4  -7  -3 4486.81   81.59
  -1  -6  -8 3422.10   60.97
   1  -6   8 3543.41   48.59
   1  -6   8 3491.83   58.21
  -1  -6  -8 3568.73   62.57
   1   6   8 3439.05   49.37
   1  -6   8 3553.20   40.82
   1   6   8 3484.28   53.41
   1  -6   8 3603.14   47.32
  -2   5  10  764.29   31.98
  -2  -5  10  864.45   22.95
  -2  -5  10  807.87   14.39
   2  -5 -10  817.49   31.64
  -2  -5  10  860.72   19.94
  -2   5  10  849.54   21.86
  -2  -5  10  790.24   13.14
   2  -5 -10  805.93   22.76
   4   6   5 1370.55   43.20
  -2   8   5  284.83   16.21
   4  -6   5 1287.54   44.43
  -4  -6  -5 1285.11   30.21
  -2   8   5  257.86   15.69
  -2  -8   5  255.21   19.45
   2  -8  -5  234.98   25.37
  -2  -8   5  287.50   15.09
   2   8  -5  236.96   11.90
   2   8  -5  276.04   22.23
   4  -6   5 1322.94   28.55
  -4  -6  -5 1381.76   45.98
   4   6   5 1330.91   33.17
   2  -8  -5  263.91   13.96
  -8  -1  -1   -2.00    9.15
   8  -1   1   -7.48   11.97
  -8   1  -1    8.22    7.05
  -8   1  -1   -9.90   11.31
   8   1   1   -3.64   10.26
   8  -1   1    1.36   12.69
  -8  -1  -1    0.33   17.39
   8   1   1   -4.52   18.95
   0  -8   5 1398.59   31.55
   0  -8   5 1491.10   19.89
   0   8   5 1494.91   27.02
   0  -8   5 1480.24   21.96
   0  -8   5 1507.87   29.20
   0  -8  -5 1499.08   32.85
   0   8   5 1501.47   41.98
   0  -8  -5 1456.35   31.67
  -7   0  -4 2048.94   42.91
   6   4  -9  565.96   11.52
   6  -4  -9  573.35   12.93
  -6   4   9  548.26   27.41
  -6   4   9  564.29   23.74
  -6  -4   9  589.09   12.91
   7   0   4 2147.53   42.25
  -7   0  -4 2088.51   41.67
   6   4  -9  535.15   37.16
  -6  -4   9  512.61   37.69
   6  -4  -9  593.87   16.41
   7   0   4 2116.29   46.78
  -8   3   1  170.70   28.02
  -7   5   5  926.29   20.64
  -8  -3   1  180.99   26.36
  -8   3   1  162.06    9.34
   7   5  -5  976.15   43.33
   7  -5  -5  950.23   29.36
  -7   5   5  947.67   14.52
  -7  -5   5  944.42   21.43
   7  -5  -5  953.98   33.32
  -8  -3   1  155.80   18.44
   7   5  -5  869.50   20.13
   8  -3  -1  141.77   14.30
  -7  -5   5  963.80   44.63
   8   3  -1  117.75   25.80
   8  -3  -1  154.12   17.23
   8   3  -1  175.31   18.47
  -6  -3  -5    5.58   18.06
  -6  -3  -5    0.97   16.26
  -6   3  -5   -9.68   18.02
   6   3   5    8.54   19.01
  -8  -2   7   48.02   15.72
   6  -3   5    2.43   18.94
   8   2  -7   56.00   11.24
  -6   3  -5   -2.11    7.93
   6  -3   5    4.69    9.37
  -8   2   7   54.97   18.68
   8   2  -7   55.77   15.55
   6   3   5   -1.98   11.36
   8  -2  -7   39.89    7.33
  -8   2   7   53.64    9.76
   8  -2  -7   51.43   13.44
  -8  -2   7   53.63   12.33
  -5   4  10   49.96   19.38
   5  -4 -10   25.13    5.50
  -5  -4  10   16.50   19.01
  -5  -4  10   35.47    3.31
   5  -4 -10   22.37    7.75
  -5   4  10   30.86   10.18
  -5  -4  10   10.94   23.42
  -2  -6   9  457.31   14.60
  -2  -6   9  479.39   16.84
  -2  -6   9  474.31   18.98
   2  -6  -9  471.47   17.39
   2  -6  -9  490.13   15.41
  -2   6   9  488.32   14.60
  -2   6   9  428.06   17.60
  -2  -6   9  491.45   17.65
  -6   0  -6   45.08   23.51
  -6   0  -6   38.92   17.41
   6   0   6   20.54   22.75
   6   0   6   30.51   18.64
  -3   5  10  759.00   20.91
  -3   5  10  749.84   19.65
   3  -5 -10  762.56   21.21
  -3  -5  10  723.64   20.28
  -3  -5  10  752.01   34.10
  -3  -5  10  738.49   14.82
   3  -5 -10  758.85   20.65
  -3  -5  10  745.89   16.54
  -5   5   9   17.00   15.56
  -3   3  -9  303.54   12.58
   3   3   9  343.01   31.92
  -5   5   9   20.58   13.09
  -3  -3  -9  294.29   29.49
  -5  -5   9   18.73    7.78
   5   5  -9   10.95    6.77
   3  -3   9  332.77   13.62
  -4   0  12  359.00   21.86
   3   3   9  290.16   15.96
  -3   3  -9  314.77   15.47
   5  -5  -9   18.20    6.22
  -3  -3  -9  327.73   16.74
  -5  -5   9   16.22   21.50
   5  -5  -9   10.62   11.20
   5   5  -9   14.88   12.67
   3  -3   9  306.24   16.12
  -4   0  12  329.67   19.51
  -1   0  12 1790.08   35.62
   1   0 -12 1851.58   35.55
  -1   0  12 1800.07   19.08
   1   0 -12 1857.26   23.07
   3   8   2 5175.11   72.85
   3   8   2 5080.78   69.43
  -3  -8  -2 5081.20   74.52
   3  -8   2 5054.03   75.91
  -3  -8  -2 5340.00   70.18
   3  -8   2 5111.29   71.64
   0  -3  11   63.49   18.69
   0  -3 -11   81.66   15.30
   0   3  11   94.21   15.38
   0  -3  11   73.11   11.36
   0  -3  11   64.04    9.87
   0  -3  11   78.27   13.38
   0  -3 -11   69.58   13.55
   0   3  11   65.71    7.82
   7  -1   4 3076.67   44.05
  -7   1  -4 2944.15   49.72
  -7   1  -4 2909.15   64.51
   7   1   4 2992.10   47.31
   7   1   4 3025.21   51.75
  -7  -1  -4 2977.31   50.91
  -7  -1  -4 2939.32   45.98
   7  -1   4 2945.30   66.46
  -1  -5  10 3616.97   50.96
  -1  -5  10 3541.75   45.64
  -1   5  10 3587.64   51.69
  -1   5  10 3584.24   53.79
   1  -5 -10 3574.44   46.35
   1  -5 -10 3535.68   52.27
  -1  -5  10 3612.22   47.56
  -1  -5  10 3576.65   48.45
   5  -4   6 1615.10   22.57
  -4   3  -8 1763.69   33.66
   4  -3   8 1909.89   36.77
   5   4   6 1482.97   47.06
   5   4   6 1572.61   37.27
  -5  -4  -6 1595.37   35.80
  -4  -3  -8 1772.36   46.87
  -5   4  -6 1593.06   25.43
   4   3   8 1904.37   35.24
   4   3   8 1897.38   39.25
  -4  -3  -8 1822.58   36.28
  -5  -4  -6 1615.16   35.30
  -4   3  -8 1838.22   45.54
   4  -3   8 1893.46   35.78
  -5   4  -6 1674.78   48.22
   5  -4   6 1627.70   35.12
   6  -3 -10 1795.89   22.60
  -6   3  10 1850.06   41.04
  -6  -3  10 1689.61   35.00
  -6   3  10 1751.22   34.46
  -6  -3  10 1868.35   39.58
   6  -3 -10 1784.89   23.52
   8   0  -8 4369.69   63.60
  -8   0   8 4214.21   51.83
   8   0  -8 4329.01   53.05
  -8   0   8 4168.07   62.32
   6   5   3 1606.09   48.06
   6   5   3 1609.01   37.83
  -6  -5  -3 1650.91   36.92
  -6   5  -3 1605.94   15.03
   6  -5   3 1590.05   15.97
   6  -5   3 1572.06   37.20
  -6   5  -3 1589.42   36.64
  -6  -5  -3 1616.89   35.79
   5  -5   5  194.62    8.49
  -5   5  -5  196.14   18.66
  -5  -5  -5  200.63   29.30
   5   5   5  200.46   31.75
  -5  -5  -5  220.75   19.04
   5  -5   5  191.20   18.87
   5   5   5  195.01   17.79
  -1  -6   9  705.18   16.32
  -1  -6   9  666.45   21.49
   1  -6  -9  684.91   20.55
  -1  -6   9  717.59   26.23
  -1  -6   9  669.66   19.97
   1  -6  -9  677.33   26.07
  -1   6   9  635.08   21.14
  -1   6   9  652.47   24.81
   1  -4  10   -4.52    6.20
  -7   3  -3  523.65   12.24
  -1  -4 -10    7.07   11.64
   7   3   3  587.41   24.14
   1   4  10   19.50   16.35
  -7   3  -3  514.53   24.73
   1  -4  10    6.01    6.35
   1  -4  10   -1.75    5.18
  -7  -3  -3  512.73   22.01
  -7  -3  -3  565.14   24.75
   7   3   3  510.76   23.79
   7  -3   3  519.63   25.03
   1   4  10    5.56    6.55
   1  -4  10   -9.05   11.08
  -1  -4 -10   -9.58   16.33
   7  -3   3  548.93   13.16
   5   7  -5 1196.71   24.00
   8   3  -6 4380.45   66.86
  -6   1  -6 1735.70   49.22
  -6  -1  -6 1784.86   37.29
  -5  -7   5 1270.04   25.81
  -6  -1  -6 1668.67   32.26
   8  -3  -6 4317.33   60.72
  -5   7   5 1211.24   18.39
   5  -7  -5 1223.18   28.46
  -6   1  -6 1655.16   36.90
  -6   0  11   -0.70   19.73
   6   1   6 1806.99   37.17
  -5   7   5 1213.61   19.03
  -5  -7   5 1254.44   30.44
  -8   3   6 4206.48   58.16
  -8   3   6 4208.56   63.06
   6   1   6 1809.97   47.43
   6  -1   6 1749.66   37.27
   8   3  -6 4226.01   59.30
   5   7  -5 1197.86   29.07
  -8  -3   6 4177.01   66.05
  -6   0  11   -5.24   16.91
   8  -3  -6 4169.33   55.04
   6  -1   6 1829.19   41.19
   5  -7  -5 1205.74   35.60
  -8  -3   6 4338.44   61.56
   2  -7   6  355.17    8.36
   2   7   6  341.32   18.60
  -2  -7  -6  383.47   17.94
   2   7   6  350.69   19.44
   2  -7   6  307.01   19.21
  -2  -7  -6  319.30   31.03
   2  -7   6  367.01    9.01
   2  -7   6  360.26   25.75
  -1  -1  12 4110.23   38.95
  -1  -1  12 4157.79   42.22
  -1  -1  12 4089.00   62.74
  -4   1  12  482.74   24.11
  -4  -1  12  506.17   24.42
  -1   1  12 4077.47   44.10
  -4  -1  12  470.67   21.89
   1  -1 -12 3946.38   58.42
  -1  -1  12 4126.99   71.33
  -4   1  12  497.60   20.95
   1  -1 -12 3936.11   43.94
  -1   1  12 4100.19   61.34
   5   7   1    0.32   11.46
   5   7   1    6.73   11.03
  -5  -7  -1   10.49   15.29
  -5  -7  -1   -4.53    9.71
   5  -7   1   -3.43   12.55
   5  -7   1    9.90   10.77
  -6  -6  -1  106.22   29.16
   6  -6   1  108.51   28.50
   6  -6   1  108.52   24.53
  -6  -5   8  101.01    7.90
   6   5  -8   92.94   16.97
  -6   5   8  107.77    9.18
  -6  -6  -1  190.52   18.62
   6   6   1  103.92   15.62
   6  -5  -8   83.94    8.69
   6   5  -8   97.51    7.03
  -6  -5   8   91.47   27.43
   6  -5  -8   86.59   10.12
  -6   5   8  100.48   10.56
   6   6   1  118.00   18.08
   3  -6  -9   46.19    9.87
  -2  -4  11 2422.94   38.52
  -3   6   9   43.96   10.28
  -3  -6   9   54.09   11.74
  -3   6   9   36.57   13.37
  -2   4  11 2397.62   41.48
  -3  -6   9   35.28   10.45
  -3  -6   9   61.84   15.43
  -3  -6   9   46.52   12.26
  -2  -4  11 2372.20   24.81
   3  -6  -9   38.19    8.72
   2  -4 -11 2336.61   40.48
   2  -4 -11 2372.32   30.19
  -2   4  11 2414.26   29.41
  -2  -4  11 2398.82   42.14
  -2  -4  11 2376.21   29.16
  -4  -8   2   24.89   18.18
   4  -8  -2    7.49   11.57
   4   8  -2  -21.82   17.21
  -4  -8   2   16.15   19.67
   4   8  -2   38.41   16.90
   4  -8  -2   16.76   13.25
  -8  -1   8  777.83   26.65
  -7   0  10 2114.15   41.68
  -8  -1   8  823.69   14.34
   1  -2  11   41.32    7.78
  -8   1   8  789.84   21.05
   8  -1  -8  820.86   13.87
   8   1  -8  855.77   27.22
  -7   0  10 2038.48   48.47
   1   2  11   37.79   14.53
  -1   2 -11   25.08    7.41
  -1   2 -11   20.67   16.74
   8  -1  -8  829.36   20.48
  -8   1   8  785.41   35.62
  -1  -2 -11   10.82   20.38
   1  -2  11   22.90   11.31
   1   2  11   22.88    7.89
   8   1  -8  827.54   18.08
  -1  -2 -11   31.07   12.52
  -6   6   6 3087.03   39.79
   6  -6  -6 3072.55   56.76
   6  -6  -6 3009.63   42.94
  -6  -6   6 3176.67   43.90
  -6  -6   6 3205.11   67.21
   4  -8  -1  679.17   23.59
  -6   6   6 3116.22   42.26
  -7  -5   0 1877.02   53.42
  -4  -8   1  673.79   22.28
   7   5   0 1960.78   55.67
  -7   5   0 1873.42   17.11
   6   6  -6 3034.71   48.53
   7  -5   0 1849.14   36.46
   4  -8  -1  674.04   26.51
   6   6  -6 3111.76   51.93
  -7   4  -2  370.60    8.19
  -7  -4  -2  345.14   21.09
   4   8  -1  694.33   22.30
  -7  -4  -2  365.14   34.58
   7   4   2  329.87   21.91
   7  -5   0 1872.96   53.39
   7   4   2  336.16   21.11
  -4  -8   1  753.60   24.96
  -7   5   0 1858.58   17.09
   4   8  -1  725.76   33.73
  -7  -5   0 1982.31   51.82
  -7   4  -2  338.45   34.25
   7  -4   2  373.23   34.77
   7  -4   2  351.55   12.70
   7   5   0 1941.04   37.33
   3   7   5  306.14   20.12
  -3  -7  -5  390.70   32.69
   3  -7   5  351.43   26.92
   3   7   5  318.48   18.75
   3  -7   5  326.68   20.02
  -3  -7  -5  326.82   18.52
   0   9   0    8.28    5.37
   0  -9   0    2.83   19.98
   0   9   0   -0.87   11.76
   0  -9   0   28.06    8.07
  -3   2  12 1559.75   36.65
  -3  -2  12 1588.08   36.09
  -3  -2  12 1562.17   43.73
  -3   2  12 1573.61   33.31
  -3  -4  11   53.47   23.09
  -2  -2  12 2933.19   63.21
  -2  -2  12 2944.97   46.08
   3  -4 -11   65.18   12.28
  -3  -4  11   57.09   19.40
  -3   4  11   45.66    8.70
  -3  -4  11   51.72    4.25
  -3   4  11   49.82   13.22
  -3  -4  11   57.25    3.83
   2  -2 -12 2886.19   31.20
   3  -4 -11   42.95    9.45
  -2   2  12 2905.62   61.28
   2  -2 -12 2880.17   59.51
  -2   2  12 2853.85   27.78
  -6   1  11   89.09   16.84
  -6   1  11  103.66   22.99
  -6  -1  11   94.27   28.75
  -6  -1  11  112.47   24.40
   2  -3  10 2403.09   44.31
  -2  -3 -10 2382.31   37.48
  -2  -3 -10 2343.19   42.15
   2   3  10 2448.79   37.09
  -2   3 -10 2336.53   43.36
  -2   3 -10 2327.53   43.21
   2   3  10 2472.90   44.87
   2  -3  10 2355.29   36.15
  -8  -2  -1    3.60   11.67
  -8   2  -1    6.14    6.51
   8   2   1    6.04   11.71
   8  -2   1    5.93   11.60
   8  -2   1    2.48   12.56
  -8   2  -1    9.47   19.56
  -8  -2  -1   -6.93   10.86
   8   2   1    4.44   19.60
   0  -9  -1  682.90   24.78
   0  -9   1  687.78   23.77
   0   9   1  671.77   19.48
   0   9  -1  672.12   16.34
   0  -9   1  688.08   11.95
   0   9   1  644.69   23.73
   0   9  -1  656.61   33.97
   0  -9  -1  682.00   18.19
   2   8   4  591.38   33.82
   2   8   4  565.94   20.45
   3   8  -5  969.31   22.82
  -2  -8  -4  584.63   36.36
  -2  -8  -4  576.60   19.44
   3  -8  -5  958.08   25.34
   3   8  -5 1037.74   22.44
   3  -8  -5  992.23   14.92
  -3  -8   5 1009.94   23.58
  -3  -8   5 1041.45   32.14
  -3   8   5  990.26   24.99
  -3   8   5 1011.08   16.21
   2  -8   4  588.24   36.13
   2  -8   4  567.28   21.49
   4  -8  -3    3.42   11.30
   4   8  -3   -4.05    9.00
   4   8  -3   -1.66    8.99
  -4  -8   3    4.39   10.26
  -4  -8   3    3.85    9.93
   4  -8  -3   -5.25    9.70
  -7  -1  10 6597.39  107.13
   5  -3 -11    2.27    3.03
  -7   1  10 6602.28   85.06
  -5   3  11    2.94   10.25
  -5   3  11   -6.69    8.75
  -7  -1  10 6626.09   87.26
  -7   1  10 6763.00   91.59
   5  -3 -11    3.52    2.07
  -5  -3  11    0.67    9.86
  -5  -3  11   -0.60   11.70
   7   5  -6 1388.57   34.99
   7  -5  -6 1389.32   33.04
   7   5  -6 1430.41   31.24
  -7  -5   6 1494.20   33.69
  -7   5   6 1432.06   28.03
   7  -5  -6 1356.01   36.53
  -7   5   6 1410.18   24.97
  -7  -5   6 1451.19   51.00
   1  -7   7  904.03   17.75
   1   7   7  909.09   25.01
  -1  -7  -7  940.56   23.65
   1  -7   7  910.29   14.98
   1   7   7  951.13   24.35
   1  -7   7  875.69   34.83
  -1  -7  -7  887.61   25.28
   1  -7   7  880.12   21.80
   8  -3   0  299.01   21.64
  -8   3   0  334.60   21.44
   8   3   0  290.07   21.94
   8  -3   0  337.51   11.25
  -8   3   0  323.87   10.83
  -8  -3   0  307.42   31.50
  -8  -3   0  338.65   32.77
   8   3   0  338.46   20.33
   1   8   5  122.84   21.46
   1  -8   5  123.35    4.19
   1  -8   5  148.19   15.98
  -1  -8  -5  157.39   16.89
   1   8   5  118.09   15.32
   1  -8   5  132.00    7.08
  -1  -8  -5  137.72   12.74
   1  -8   5  133.98   22.53
   1   9   0  694.01   23.54
  -1   9   0  692.14   35.32
   1  -9   0  673.87   24.75
   1  -9   0  662.42   12.05
  -1   9   0  678.20   12.92
  -1  -9   0  678.82   15.47
   1   9   0  679.25   21.90
  -1  -9   0  663.57   24.80
  -7   3   9  -14.95   11.96
   7  -3  -9    7.33    4.87
   7   3  -9    1.57    2.91
  -7  -3   9   11.27   12.30
  -7   3   9    3.81    9.00
  -7  -3   9    3.61    5.17
   7  -3  -9    7.22    6.69
   7   3  -9   -8.27   12.26
  -1   9   1  524.50    9.93
   1  -9  -1  527.73    9.34
  -1  -9   1  568.89   33.95
  -1  -9   1  542.76   13.36
  -1   9   1  477.54   21.80
   1  -9  -1  500.60   33.70
   1   9  -1  532.45   21.48
   1   9  -1  515.52   19.09
   4   8   0   83.71   14.04
   4   8   0   85.19   14.78
  -4  -8   0   76.86   14.00
  -4  -8   0   84.79   25.79
   4  -8   0    4.18   28.27
   4  -8   0  124.91   24.55
  -1  -4  11  781.72   20.43
  -1   4  11  763.98   15.13
  -1  -4  11  783.64   13.81
  -1  -4  11  787.63   23.21
   1  -4 -11  775.90   24.00
  -1   4  11  807.51   25.89
  -1  -4  11  772.77   16.51
   1  -4 -11  729.72   21.89
  -4  -5  10 2223.25   27.56
   4   7  -7 2255.47   39.89
  -4   5  10 2161.91   35.43
   4  -7  -7 2212.69   34.85
   4  -7  -7 2130.52   37.35
  -4  -5  10 2200.10   46.90
  -4   7   7 2277.58   37.16
   4  -5 -10 2125.08   33.33
   4  -5 -10 2105.82   35.17
  -4  -7   7 2351.07   41.82
  -4   7   7 2343.89   39.40
   4   7  -7 2250.65   38.21
  -4  -5  10 2113.12   27.55
  -4  -5  10 2164.30   40.26
  -4  -7   7 2384.79   40.96
  -4   5  10 2104.97   38.04
  -7   2  -4  125.77   18.21
   7  -4  -8  952.67   18.79
   7   2   4  150.57   17.06
   7   2   4  143.34   30.14
  -7  -2  -4  123.31   18.18
   7  -4  -8  968.16   22.95
  -7   4   8 1008.91   30.35
  -7  -4   8  987.24   21.98
  -7  -4   8  996.79   30.88
   7  -2   4  127.58   18.95
   7  -2   4  154.84   17.51
  -7  -2  -4  100.12   24.45
   7   4  -8 1001.76   44.60
   7   4  -8  942.31   19.68
  -7   4   8  963.90   26.46
  -7   2  -4  106.72    9.81
   4   0   9   -6.18   16.73
  -4   0  -9    2.92    9.61
  -4   0  -9    8.90   10.15
   4   0   9    8.20   10.04
  -5   3  -7 1495.32   33.86
  -5  -3  -7 1526.36   33.77
   5   3   7 1508.80   34.01
  -5   3  -7 1467.10   29.40
  -5  -3  -7 1478.19   32.88
   5   3   7 1539.24   35.94
   5  -3   7 1501.36   32.16
   5  -3   7 1557.87   34.43
  -5  -6   8  347.05   20.40
   5   6  -8  329.44   10.69
   5  -6  -8  320.46   19.25
  -5  -6   8  310.81   16.90
  -5   6   8  310.53   13.40
   5  -6  -8  309.01   14.39
  -5   6   8  321.01   18.10
   5   6  -8  373.92   29.66
  -3   0 -10 2426.40   47.66
   3   0  10 2514.69   49.23
   3   0  10 2497.14   41.76
  -3   0 -10 2456.79   51.72
   8   4  -3  135.05   19.20
   8   4  -3  117.86   13.81
  -8  -4   3  141.88   19.18
  -8   4   3  100.76   15.72
   8  -4  -3  112.33   16.22
  -8   4   3  118.56   12.63
  -8  -4   3  134.67   14.73
  -8   0  -2  133.73   13.36
  -8   0  -2  132.28   18.23
   8   0   2  102.18   22.43
   8   0   2  141.24   18.57
  -8   4   4    0.79    4.90
   8   4  -4    8.72    9.50
  -8   4   4   11.01    5.94
   8  -4  -4   17.19    9.47
   8   4  -4   20.69   14.37
  -8  -4   4   18.81   13.53
   8  -4  -4   19.45   11.50
  -8  -4   4    5.19    9.55
  -1  -9  -1  267.95   17.10
   0  -6   9  118.54   16.29
   0  -6   9  184.79   17.61
   0  -6   9  162.92    9.96
   0   6   9  138.54   25.18
   1   9   1  267.01   29.05
  -1   9  -1  278.16   18.39
   0   6   9  140.80   19.64
   1  -9   1  266.19    7.04
  -1  -9  -1  255.96   19.68
   0  -6  -9  180.87   13.63
   0  -6   9  140.07    9.41
   1  -9   1  261.99   18.90
   0  -6  -9  126.87   24.05
  -1   9  -1  258.25    7.31
   1   9   1  283.28   18.10
  -6   2  -6  134.47   17.29
  -6  -2  -6  114.51   28.34
   6  -2   6  137.25   28.66
  -6  -2  -6  111.44   16.02
  -6   2  -6  119.42   10.28
   6  -2   6  117.43   11.36
   6   2   6  132.87   27.42
   6   2   6  142.16   17.24
  -2  -7   8 1266.50   33.72
   0  -5  10  495.11   16.79
   2  -7  -8 1287.90   25.99
   0  -5  10  516.00   14.87
  -2  -7   8 1270.09   23.73
  -2  -7   8 1292.69   23.07
  -2  -7   8 1308.83   28.64
   0   5  10  524.19   22.13
   1  -8  -6   97.52   23.04
   2  -7  -8 1307.56   32.38
  -1  -8   6  118.65   12.53
  -1   8   6   78.24   13.76
  -2   7   8 1221.11   34.06
   0  -5 -10  523.52   24.65
  -2   7   8 1325.73   25.65
   0  -5  10  509.77   12.97
  -1  -8   6   97.95    7.50
  -1  -8   6   89.68   21.77
   1  -8  -6   97.70   15.46
   0  -5 -10  535.31   32.23
  -1   8   6   85.39   10.89
  -1  -8   6  112.35    9.08
   0  -5  10  520.82   20.50
   0   5  10  562.46   22.95
  -4   2  12 3304.40   70.15
   0   9   2  520.27   13.45
   0  -9   2  502.77   21.79
   0  -9  -2  473.05   17.73
  -1  -2  12 3868.77   38.32
  -4  -2  12 3352.19   51.60
   0  -9   2  510.78   13.97
   0   9  -2  479.22   13.95
  -1  -2  12 3831.52   55.55
  -1  -2  12 3807.95   37.01
  -4   2  12 3221.23   50.99
  -1   2  12 3868.12   59.61
   0   9   2  474.97   33.25
   0   9  -2  557.13   21.15
  -1  -2  12 3890.58   60.11
   0  -9  -2  470.66   22.50
  -4  -2  12 3307.54   55.24
   1  -2 -12 3898.72   58.53
  -1   2  12 3808.05   40.77
   1  -2 -12 3741.33   45.24
   5  -6   4   75.81   14.28
  -5  -6  -4   51.88   27.23
   5  -6   4   74.43   16.63
   5   6   4   99.31   17.19
   5   6   4   56.89   15.46
  -5  -6  -4   68.54   25.27
  -1  -9   2  617.67   23.05
  -1   9   2  578.81   22.99
   1  -9  -2  662.02   24.07
   1   9  -2  590.21   22.18
  -1   9   2  577.05   11.87
  -1  -9   2  620.34   19.67
   1  -9  -2  595.07   15.09
   1   9  -2  571.65   13.62
   4  -1   9  525.82   28.81
  -4   1  -9  487.96   19.74
   4   1   9  582.36   30.51
  -4  -1  -9  475.98   29.85
  -4  -1  -9  511.23   20.65
  -1  -7   8  439.92   22.75
  -1  -7   8  433.32   20.86
  -1  -7   8  412.30   14.00
  -4   1  -9  500.06   17.81
  -1  -7   8  395.61   12.07
   1  -7  -8  357.19   16.84
   4  -1   9  530.73   21.12
   1  -7  -8  384.84   24.23
  -1   7   8  403.71   24.78
  -1   7   8  399.99   17.30
   4   1   9  532.56   22.44
   8   4  -2 4825.01   79.32
  -8   4   2 4906.27   71.16
   8   4  -2 4893.23   73.91
  -8  -4   2 5055.76   70.60
   8  -4  -2 4832.35   53.49
   8  -4  -2 4914.81   70.78
  -8  -4   2 4759.00   72.44
  -8   4   2 4950.80   54.01
   3   8   3 5278.67   75.12
   3   8   3 5303.52   73.82
   3  -8   3 5409.11   79.23
  -3  -8  -3 5449.98   92.17
   3  -8   3 5559.26   88.83
  -3  -8  -3 5448.64   74.01
   2  -8  -6  147.08    9.46
  -3  -1 -10 3935.37   63.99
   2   8  -6  173.48   12.75
  -2  -8   6  155.71   13.17
   2   8  -6  115.56   16.80
  -2   8   6  114.61   16.07
   3   1  10 4111.79   60.86
  -3   1 -10 3965.52   63.85
   3   1  10 4031.15   65.30
   3  -1  10 4081.22   56.31
   2  -8  -6  133.22   15.09
   3  -1  10 4085.87   57.27
  -2  -8   6  177.08   11.61
  -3  -1 -10 4005.98   70.16
  -4   4  11   12.89   21.71
  -4   4  11   28.82   12.01
   4  -4 -11   24.88    7.40
  -2   8   6  159.93   23.12
  -4  -4  11   46.57   12.35
  -3   1 -10 3881.43   64.83
  -4  -4  11   20.61   14.55
   4  -4 -11   16.12    4.95
  -5   0  12 2097.79   51.83
   8  -2  -8  979.79   16.22
  -5   0  12 2039.45   41.98
  -8  -2   8 1070.84   45.13
   8  -2  -8 1025.18   24.09
  -8   2   8 1005.16   22.39
  -8  -2   8 1030.29   21.43
  -8   2   8 1026.44   25.62
   8   2  -8  987.23   20.20
   8   2  -8  983.89   30.21
   0   0 -12  410.28   19.59
   0   0  12  446.51   14.64
   0   0  12  442.46   21.32
  -8  -3   7  164.91   20.00
  -4  -8   4 1079.52   26.37
  -4   8   4 1071.43   14.25
  -8   3   7  149.79   12.90
   8  -3  -7  104.18   17.56
  -4  -8   4 1102.10   26.83
   4   8  -4 1094.35   35.51
   8   3  -7  124.26    9.13
  -8  -3   7  150.23   15.28
   8  -3  -7  164.04    9.74
   8   3  -7  166.22   19.38
  -8   3   7  164.13   10.97
   4  -8  -4 1063.50   29.28
   4  -8  -4 1052.11   26.40
   4   8  -4 1043.93   24.67
   3  -5   8 5418.65   73.93
   3  -5   8 5323.81   66.67
   8  -1   2 2192.01   58.01
  -3  -5  -8 5412.65   75.81
  -8  -1  -2 2125.73   48.52
  -3  -5  -8 5324.90   85.51
   3   5   8 5453.23   94.31
  -8   1  -2 2085.30   42.06
   3  -5   8 5471.62   70.14
  -8   1  -2 2122.42   41.99
   3  -5   8 5281.28   59.10
   8  -1   2 2095.56   43.67
   3   5   8 5448.16   73.52
  -8  -1  -2 2175.86   56.67
   8   1   2 2092.54   42.15
   8   1   2 2222.64   39.26
  -6  -2  11  612.19   39.90
  -6   2  11  612.76   24.09
  -6  -2  11  584.70   23.24
  -6   2  11  624.86   21.12
   5  -7  -6    4.33    9.79
   5   7  -6    7.75   17.24
   5  -7  -6    3.77   13.62
  -5  -7   6    5.43   11.09
   4  -7   4    1.86   19.70
   4   7   4   13.01   22.76
   4   7   4   34.78   13.36
   4  -7   4   18.55   14.10
   5   7  -6    2.36    7.33
  -5  -7   6    8.01    8.01
  -4  -7  -4    3.29   12.12
  -5   7   6    3.54    4.49
  -5   7   6    3.91    4.82
  -4  -7  -4   13.03   13.42
  -4  -6   9  198.61   16.32
  -4   6   9  146.88   13.42
  -4  -6   9  145.10   13.82
   4  -6  -9  152.30   11.75
  -4   6   9  201.92   18.59
  -4  -6   9  179.14   14.04
   4  -6  -9  172.41   10.68
  -4  -6   9  147.85    8.57
  -8   4   5  189.52   15.81
   8   4  -5  199.39   32.73
   8  -4  -5  209.34   23.51
  -8  -4   5  208.38   20.73
   8  -4  -5  191.20   13.03
  -8   4   5  161.80    8.62
   8   4  -5  144.59   19.58
  -8  -4   5  199.75   20.32
  -5  -7  -2 1947.91   52.10
   5  -7   2 1848.31   41.19
   5   7   2 1883.75   39.85
   5  -7   2 1890.81   38.00
  -5  -7  -2 1948.57   56.12
   5   7   2 1875.92   38.08
  -9   0   4 3495.15   65.49
   9   0  -4 3457.39   51.15
  -9   0   4 3502.97   51.79
   9   0  -4 3500.05   64.71
  -4  -8  -1  461.40   24.01
   4  -8   1  477.84   22.12
   4   8   1  438.19   33.19
  -4  -8  -1  504.83   20.54
   4   8   1  464.96   31.27
   4  -8   1  430.66   24.39
   3  -6   7 2405.43   29.85
   3   6   7 2286.23   44.64
   3  -6   7 2356.43   49.23
   3  -6   7 2330.25   26.90
  -3  -6  -7 2392.73   43.20
   3   6   7 2379.27   41.50
   3  -6   7 2367.78   42.22
  -3  -6  -7 2276.48   43.01
  -7   5  -1  302.22   22.41
   7   5   1  301.55   30.69
  -9   0   3    1.57    9.80
   7   5   1  309.24   35.17
  -7  -5  -1  317.54   22.67
  -5   0  -8 1133.72   25.98
  -5   0  -8 1168.80   29.18
   9   0  -3   -3.23   14.95
   5   0   8 1209.76   28.37
   9   0  -3    5.41   15.04
  -7  -5  -1  342.98   21.82
   7  -5   1  315.06   21.93
   5   0   8 1187.98   42.51
  -9   0   3    4.37   15.53
  -7  -2  10 2332.20   41.48
  -5   1  12  316.79   28.60
  -5  -1  12  313.64   19.47
  -7  -2  10 2307.62   60.79
  -7   2  10 2313.43   38.16
  -7   2  10 2230.62   53.66
  -5  -1  12  318.71   35.27
   7  -2 -10    1.29    3.45
  -5   1  12  298.81   22.49
   0   1 -12 1631.84   32.67
   0   1 -12 1564.99   25.71
   0  -1 -12 1567.99   27.38
   0  -1 -12 1599.62   33.91
   0  -1  12 1634.37   32.68
   0  -1  12 1551.92   20.79
   0   1  12 1593.27   21.85
   0   1  12 1552.02   46.98
   0  -8  -6    5.93   11.09
   0  -8   6   11.41    9.46
   0  -8  -6    7.29   13.16
   0  -8   6    7.47    5.34
   0  -8   6    7.55   10.99
   0   8   6    6.62    9.20
   0  -8   6   13.47    7.15
   0   8   6    4.43   11.06
   3  -7  -8 4443.96   67.71
  -3  -7   8 4540.71   72.88
   3  -7  -8 4552.02   63.65
  -3  -7   8 4378.56   55.96
  -3  -7   8 4533.20   57.54
  -3   7   8 4436.59   57.11
   4  -5   7 3571.95   52.41
  -3  -7   8 4622.66   63.36
   6   6   2 3890.67   63.23
   6  -6   2 3934.85   60.12
   4   5   7 3508.34   54.96
   6   6   2 3956.73   75.99
   4   5   7 3422.23   58.46
  -6  -6  -2 3915.48   62.71
  -3   7   8 4421.64   58.99
   4  -5   7 3588.10   45.73
   6  -6   2 3889.31   63.93
  -6  -6  -2 3857.87   61.38
   4  -5   7 3476.67   68.19
   4  -5   7 3488.39   39.59
  -4  -5  -7 3445.74   55.49
  -4  -5  -7 3458.25   56.00
  -2  -9   1  483.03   21.88
  -2  -9   1  481.01   22.07
   2   9  -1  466.87   32.03
   2  -9  -1  508.00   22.18
   2   9  -1  456.88   23.02
   2  -5   9  157.51   21.66
   2  -5   9  154.64   10.58
  -2  -5  -9  182.34   27.25
   2  -5   9  137.47    9.32
   2   5   9  165.22   18.65
   2   5   9  162.11   14.25
  -2  -5  -9  155.42   14.92
   2  -5   9  149.71   11.28
   1  -9   2 2724.74   58.78
  -1  -9  -2 2564.31   59.93
   1   9   2 2636.12   37.88
  -1  -9  -2 2694.27   44.50
   1  -9   2 2623.06   49.45
   1   9   2 2721.05   46.65
   2   6   8  324.08   26.47
   2  -6   8  319.69    9.22
   2   6   8  376.67   21.14
  -2  -6  -8  332.91   29.48
  -2  -6  -8  323.34   18.60
   2  -6   8  319.10   15.64
   2  -6   8  325.51   14.98
   2  -6   8  327.26   17.61
   2   0  11    0.11    6.83
  -2   0 -11   10.59   10.26
   2   0  11    4.55    9.82
  -2   0 -11   -1.22   11.95
   2   9   0  198.31   12.57
   2   9   0  226.76   18.07
   2  -9   0  205.29   18.46
  -2  -9   0  227.66   12.45
   2  -9   0  239.95   20.50
  -2  -9   0  176.77   18.60
  -9   0   5   -0.72    8.23
   9   0  -5   15.09    9.37
  -9   0   5    6.76   10.25
   9   0  -5    2.65   11.46
   9  -1  -4  212.16   22.03
   6   6  -7  119.91    9.60
  -6   6   7  119.16    7.93
   6  -6  -7  129.54   13.01
   6   6  -7  121.04   28.13
  -6  -6   7  123.63   28.99
  -9  -1   4  122.86   14.16
   9   1  -4  140.86   14.25
  -6   6   7  104.10    9.10
  -9   1   4  126.69   14.24
   6  -6  -7  106.06   17.60
   9   1  -4  139.09   16.98
  -9   1   4  119.84   22.17
  -9  -1   4  154.56   16.95
   9  -1  -4  110.02   14.72
   8  -4  -1 2389.87   33.59
  -8   4   1 2341.54   31.98
  -8  -4   1 2399.21   44.04
   8   4  -1 2449.85   42.89
  -8   4   1 2442.64   59.55
   8  -4  -1 2307.61   59.09
   8   4  -1 2333.56   46.37
  -8  -4   1 2369.07   61.57
  -5  -1  -8 1082.92   38.25
   9  -1  -3 3098.31   49.93
   5  -1   8 1141.85   29.84
  -9  -1   3 3191.86   49.43
   9  -1  -3 3134.65   56.71
   9   1  -3 3239.52   63.98
  -5  -1  -8 1070.27   40.56
  -9  -1   3 3169.37   51.23
  -5   1  -8 1068.00   32.16
   5   1   8 1140.87   29.04
  -9   1   3 3168.20   47.45
  -9   1   3 3191.90   50.06
   5  -1   8 1156.32   36.29
   5   1   8 1142.91   29.87
  -5   1  -8 1079.01   28.91
   9   1  -3 3192.29   61.06
  -1  -3 -11   -7.81   10.90
   1   3  11    1.07   20.82
   1  -3  11    4.57   15.12
   1  -3  11   14.25    6.16
   1   3  11    8.44    7.42
  -1  -3 -11    2.80   11.61
   1  -3  11    9.90    6.97
   1  -3  11   -3.45   10.43
  -6   4  -5   32.50    8.75
   6  -4   5   34.31   14.99
   6  -4   5   21.77    5.94
  -6  -4  -5   23.90   24.90
   6   4   5   26.07   15.61
   6   4   5   32.39   14.52
  -6  -4  -5   24.08   23.22
  -6   4  -5   24.32   24.89
   1   9  -3   63.33   20.72
   8   0  -9    0.19    5.15
  -1   9   3   43.15   10.92
  -8   0   9    8.39   11.32
   1   9  -3   43.61   11.35
   8   0  -9    0.57    4.64
  -1  -9   3   42.46    7.17
  -1   9   3   43.55   22.27
   1  -9  -3   40.43   14.60
   1  -9  -3   38.72    6.24
  -8   0   9   -1.64    9.52
  -1  -9   3   35.57   21.13
  -2   9   2  700.90   12.22
   2   9  -2  702.98   24.76
   2  -9  -2  711.07   11.59
  -2  -9   2  778.98   24.95
  -2   9   2  777.82   25.16
   2   9  -2  755.04   23.73
  -2  -9   2  710.72   24.94
   2  -9  -2  806.42   37.61
  -3   3  12   21.03   11.96
   3  -3 -12    0.68    2.41
   2  -3 -12  107.91    6.30
  -2  -3  12   92.52   16.81
  -3  -3  12    2.51   13.14
  -3  -3  12   19.86   11.43
  -3   3  12   -1.66   13.62
  -2   3  12  119.73   26.22
  -2   3  12  107.24    5.58
   2  -3 -12  119.92   15.72
  -2  -3  12  111.77   22.55
  -7  -5   7  704.71   41.65
   7   5  -7  647.43   15.10
   7   5  -7  668.93   27.41
   7  -5  -7  622.38   27.37
   7  -5  -7  650.84   16.72
  -7   5   7  638.15   16.15
  -7  -5   7  645.67   23.12
  -7   5   7  649.64   19.90
  -9   0   2 7474.27  106.55
  -9   0   2 7253.54   95.15
   9   0  -2 7377.75  111.37
   9   0  -2 7410.72   95.17
   0  -9   3 1742.47   25.08
   0  -9   3 1750.71   35.60
   0   9  -3 1706.20   34.55
   0  -9  -3 1761.09   32.21
   0   9   3 1715.57   35.78
   0   9   3 1734.27   34.34
   0   9  -3 1792.63   25.76
   0  -9  -3 1711.82   50.52
   0  -7   8   35.90    6.56
   0  -7  -8   14.45   16.47
   0   7   8   48.21   11.10
   0  -7   8   22.36    7.38
   0  -7   8   13.50   14.64
   0  -7   8   23.32   10.53
   0   7   8   25.92   11.97
   0  -7  -8    5.50    9.77
  -3  -4  -9  394.96   18.89
   3   4   9  366.07   27.59
   3   4   9  377.23   36.55
  -3   4  -9  412.24   17.86
   3  -4   9  415.03   13.65
  -3  -4  -9  370.19   20.99
  -3   4  -9  410.24   12.92
   3  -4   9  440.78   28.09
   8  -3   1 1190.46   26.47
   8   3   1 1213.58   32.02
   8  -3   1 1138.41   47.59
  -8  -3  -1 1270.13   45.87
   8   3   1 1164.39   32.37
  -8   3  -1 1166.67   24.83
  -8   3  -1 1215.44   33.01
  -8  -3  -1 1184.45   31.06
   0  -4  11 1179.31   26.07
   0  -4  11 1218.53   24.71
   0   4  11 1166.85   27.57
   0  -4  11 1146.41   23.53
   0  -4 -11 1124.69   29.14
   0   4  11 1213.73   31.70
   0  -4  11 1191.56   26.77
   0  -4 -11 1113.60   41.31
   2  -1  11  218.98   25.92
  -2   1 -11  208.30   15.66
  -2   1 -11  191.79   19.22
  -2  -1 -11  224.12   12.69
   2  -1  11  200.05   12.52
   2   1  11  258.93   29.77
   2   1  11  235.38   12.71
  -2  -1 -11  214.62   17.23
  -9   1   5  907.86   32.13
  -9   1   5  949.08   24.47
  -9  -1   5  861.93   21.69
   4   2   9    6.39   18.20
   4  -2   9    5.49   15.25
  -4  -2  -9    1.42   13.21
   4  -2   9    1.17    7.93
   9   1  -5  923.03   27.59
  -4   2  -9   -5.61   10.22
   9   1  -5  920.93   22.35
   4   2   9   -3.91   15.22
  -4   2  -9    5.19    8.02
   9  -1  -5  902.81   24.19
   9  -1  -5  926.96   22.80
  -9  -1   5  884.14   40.24
  -4  -2  -9   -3.26    8.87
   4  -6   6 1373.25   29.84
  -4  -6  -6 1366.07   33.72
   4   6   6 1404.16   45.36
  -4  -6  -6 1414.56   48.03
   4  -6   6 1365.00   47.03
   4   6   6 1398.19   50.37
  -3   8   6  878.89   34.12
  -3  -8   6  916.88   22.50
  -3   8   6  895.54   22.64
   3   8  -6  834.59   20.81
   3  -8  -6  894.23   15.92
   3  -8  -6  900.08   23.81
  -3  -8   6  875.50   22.88
   3   8  -6  894.12   21.60
  -6  -7   2 3127.30   53.07
   6  -7  -2 3019.06   61.06
   6   7  -2 3044.38   48.20
   6  -7  -2 3114.53   53.03
  -6  -7   2 3259.92   65.10
   6   7  -2 3106.76   52.93
   6   7  -3  809.22   27.71
   6   7  -3  764.71   32.23
   6  -7  -3  856.88   35.46
  -6  -7   3  833.08   35.76
  -6  -7   3  784.06   27.72
   6  -7  -3  793.82   26.97
   4  -4   8 2082.26   35.70
  -6   4  10  260.00   17.03
   4   4   8 2091.00   43.55
  -6  -4  10  262.94   18.59
  -4   4  -8 2013.71   33.51
  -6   4  10  284.89   14.69
  -6  -4  10  276.56   21.83
  -4  -4  -8 2016.13   53.86
   6  -4 -10  258.12   13.42
   6  -4 -10  288.32   12.27
  -4  -4  -8 2070.31   39.72
  -4   4  -8 2012.11   49.46
   4   4   8 2151.71   51.43
   4  -4   8 2117.72   51.88
   6   5   4 5350.69   81.15
   3  -2  10   64.97   12.67
   6  -5   4 5273.66   52.70
  -3  -2 -10   81.01   12.84
  -6   5  -4 5511.03   81.19
  -3  -2 -10   85.74   15.76
  -3   2 -10   84.72   19.38
   3   2  10   88.62   16.42
   6   5   4 5367.45   92.66
   6  -5   4 5365.33   95.41
  -6  -5  -4 5417.08   78.85
   3  -2  10   92.49   12.45
  -3   2 -10   87.52   11.70
   3   2  10   89.97   20.06
  -6  -5  -4 5508.76   80.06
   8  -1  -9 1411.35   18.91
  -8   1   9 1397.97   32.27
   8   1  -9 1390.92   16.91
  -8   1   9 1350.69   28.48
   8   1  -9 1446.36   35.51
  -8  -1   9 1448.01   35.74
  -8  -1   9 1420.91   21.31
   8  -1  -9 1409.90   21.21
  -8  -2  -2  881.63   29.23
  -8   2  -2  837.64   29.85
  -8   2  -2  881.19   25.73
  -8  -2  -2  869.87   26.42
   8   2   2 1013.24   44.23
   8  -2   2 1017.54   30.95
   8  -2   2  927.62   27.62
   8   2   2  918.30   28.17
   2   9   1 1380.54   26.82
  -2  -9  -1 1358.03   48.33
  -2  -9  -1 1483.72   26.90
   2   9   1 1398.32   32.61
   2  -9   1 1455.32   33.26
   2  -9   1 1381.91   36.16
   7   0   5  -13.04   20.86
  -7   0  -5  -11.10   13.12
   7  -4   3   54.80    9.68
  -7  -4  -3   74.75   16.45
   7   4   3   59.56   16.40
   7   0   5    1.88   15.86
  -7   4  -3   62.20    5.54
  -7   4  -3   60.18   27.74
  -7  -4  -3   92.35   17.31
   7   4   3   68.57   28.56
   7  -4   3  104.98   17.25
  -7   0  -5   -1.01    9.20
   8   4  -6 4882.24   74.53
   8  -4  -6 4719.40   67.90
  -7  -6   3  874.90   44.25
   8  -4  -6 4691.35   72.77
  -8   4   6 4724.24   55.98
  -7  -6   3  819.48   24.32
   8   4  -6 4690.34   66.15
  -8  -4   6 4773.23   73.78
  -8  -4   6 4836.76   69.69
   7   6  -3  847.39   29.58
  -8   4   6 4764.95   58.95
   7   6  -3  828.29   22.92
   7  -6  -3  820.91   23.45
   7  -6  -3  848.00   27.08
   9   1  -2 2034.97   39.15
   9  -1  -2 2081.99   39.83
  -9  -1   2 2032.65   51.69
   9  -1  -2 2106.28   35.71
  -9  -1   2 2139.24   51.72
  -9   1   2 2095.61   39.74
  -9   1   2 2046.75   44.62
   9   1  -2 2084.28   52.08
  -4   8   5   17.94    4.59
  -4  -8   5   24.45   16.86
   4  -8  -5   10.87   13.44
  -4   8   5   18.99    7.35
   4  -8  -5   36.13   18.93
   4   8  -5   20.48   16.51
   4   8  -5   34.07   11.24
  -4  -8   5    5.96   11.36
  -7   3  -4 2512.42   63.30
  -6  -5   9  552.97   11.47
   6   5  -9  569.06   14.23
  -7   3  -4 2522.17   37.85
   6  -5  -9  557.14   13.97
  -7  -3  -4 2576.08   58.86
  -6   5   9  580.01   18.28
   7   6  -2  591.27   32.86
   7  -3   4 2542.80   49.10
   7   3   4 2608.17   48.05
   6  -5  -9  504.80   14.66
   7  -6  -2  582.33   32.21
  -6   5   9  557.40   23.06
   6   5  -9  557.88   24.84
  -6  -5   9  640.92   25.74
  -7  -6   2  600.91   25.78
  -7  -6   2  549.55   22.82
   7   6  -2  600.46   26.64
  -7  -3  -4 2608.81   63.79
   7   3   4 2517.93   62.33
   7  -3   4 2526.49   40.33
   7  -6  -2  593.83   37.23
  -9   0   6  374.50   23.14
   9   0  -6  402.95   20.36
   9   0  -6  450.58   22.71
  -9   0   6  459.41   20.74
   6   7  -1  157.00   16.59
   6  -7  -1  172.59   19.17
  -6  -7   1  169.76   19.18
  -6  -7   1  161.10   18.07
   6  -7  -1  159.40   16.57
   6   7  -1  156.21   19.06
  -5  -2  12  729.88   24.57
   2   8   5  388.17   30.45
  -5   2  12  692.71   34.48
  -2  -8  -5  352.72   17.53
  -5  -2  12  635.25   42.47
   2  -8   5  332.90   32.96
  -5   2  12  716.51   26.83
   2   8   5  322.07   19.07
   2  -8   5  364.75   18.97
  -2  -8  -5  320.24   33.07
  -7   6   4 1417.66   17.75
  -7  -6   4 1484.81   30.22
   0  -2  12   13.44    8.08
   7  -6  -4 1423.80   29.51
   0  -2 -12   10.10   10.42
   7   6  -4 1413.72   35.97
   0  -2  12   16.17   18.33
   7  -6  -4 1416.89   31.97
   0  -2  12   19.03   13.21
   0  -2  12   14.88    5.69
   0  -2 -12   29.82   13.32
   0   2  12   30.59   21.87
   0   2  12   27.55    6.16
  -7  -6   4 1477.90   52.08
   7   6  -4 1423.65   28.64
  -2   9   3 2420.25   31.56
  -2   9   3 2442.61   43.90
  -2  -9   3 2448.34   55.54
   2  -9  -3 2352.91   56.65
   2  -9  -3 2379.75   26.41
   2   9  -3 2340.66   41.64
  -2  -9   3 2400.14   35.18
   2   9  -3 2377.57   41.57
  -6  -7   4 3374.10   56.44
   6   7  -4 3299.68   68.86
   6  -7  -4 3197.59   49.24
   6  -7  -4 3227.15   65.98
  -6  -7   4 3359.62   50.93
   6   7  -4 3171.48   57.61
  -5  -5  10  336.80    7.95
  -5  -5  10  323.55   18.25
  -5  -5  10  372.90   21.28
  -5   5  10  342.11   26.68
  -5   5  10  332.88   15.70
   5  -5 -10  364.71   15.63
  -5  -5  10  367.65    7.86
   5  -5 -10  335.86   17.23
  -7  -1  -5   80.88   21.56
   7   1   5   78.90   17.34
  -7   1  -5   61.48   11.02
   7  -1   5   84.62   17.52
  -7  -1  -5   92.01   27.02
  -7   1  -5   59.13   27.78
   7  -1   5   62.55   12.18
   7   1   5   90.44   24.54
  -6   3  -6 1802.61   38.95
   6  -3   6 1885.63   35.47
  -6  -3  -6 1850.38   37.68
   6   3   6 1836.64   53.11
   6   3   6 1852.26   40.16
   6  -3   6 1868.97   40.15
  -6   3  -6 1833.61   26.67
  -6  -3  -6 1778.50   38.88
  -4  -3  12   34.41   21.68
  -4   3  12   41.82   13.57
  -4   3  12   44.19   15.70
  -4  -3  12   44.70   15.85
  -1  -3  12 3271.06   38.37
  -1  -3  12 3191.41   36.32
   1  -3 -12 3201.80   43.57
  -2  -4 -10  137.52   21.89
  -1  -3  12 3193.18   64.99
   2  -4  10  179.32   16.37
   2  -4  10  145.21   19.00
   2   4  10  204.87   19.62
   2  -4  10  156.10   17.98
  -1   3  12 3143.40   36.80
  -2  -4 -10  170.71   17.85
   1  -3 -12 3277.52   52.59
   2  -4  10  181.95   13.37
  -1   3  12 3228.27   53.60
   2   4  10  152.80   13.55
  -1  -3  12 3385.16   60.71
   4  -8   2  890.11   30.33
   4  -8   2  893.46   39.57
  -4  -8  -2  886.45   37.86
   4   8   2  859.75   27.54
  -4  -8  -2  973.10   44.22
   4   8   2  816.96   38.79
   9   2  -4   45.95   15.41
   9  -2  -4   57.51   12.72
   9  -2  -4   32.80   10.68
   9   2  -4   45.64   11.73
   1  -6   9 1483.97   22.41
  -1  -6  -9 1495.76   43.65
  -9  -2   4   56.24   19.21
   1   6   9 1482.70   28.96
  -9   2   4   42.52   17.40
   1   6   9 1420.88   34.46
   1  -6   9 1448.78   28.47
  -9  -2   4   51.64   15.87
   1  -6   9 1480.23   31.05
  -1  -6  -9 1359.51   29.40
  -9   2   4   33.95   20.61
   1  -6   9 1498.64   25.73
  -9  -1   6 4977.27   70.89
   9   1  -6 4992.97   73.48
   9  -1  -6 4956.23   69.14
   9   1  -6 4919.97   62.74
  -9   1   6 5000.28   72.61
   9  -1  -6 4940.00   72.06
  -9   1   6 4809.50   67.36
  -9  -1   6 4891.04   72.08
   9   0  -1    6.89   20.09
   9   0  -1    5.05   10.50
  -9   0   1   -4.40   10.43
  -9   0   1    4.40    8.79
   5  -5   6  914.82   17.69
   2  -7   7  725.51   24.30
   2  -7   7  666.70   14.90
   2  -7   7  683.93   21.27
   2   7   7  750.58   25.65
   2  -7   7  734.53   14.13
   5  -5   6  941.72   29.28
   5   5   6  929.32   28.13
  -5  -5  -6  903.05   29.34
  -5   5  -6  932.85   28.31
  -2  -7  -7  746.46   23.84
  -2  -7  -7  748.44   37.91
   2   7   7  723.11   22.94
   5   5   6  909.16   31.32
  -5  -5  -6  834.15   29.07
   1  -9   3   23.27   15.06
  -3  -7  -6 1286.91   30.75
   3  -7   6 1281.45   29.09
  -1  -9  -3   13.94    8.47
  -3  -7  -6 1264.95   32.43
   3   7   6 1309.86   30.79
   1  -9   3   31.62   13.05
   1   9   3   36.80   22.38
  -1  -9  -3   24.98   13.96
   3   7   6 1245.21   32.83
   3  -7   6 1223.32   44.25
   1   9   3   11.77   15.32
   9  -2  -3  546.07   22.03
   5  -2   8 1705.94   39.45
  -5  -2  -8 1594.66   34.54
   9   2  -3  518.35   23.93
   5  -2   8 1636.02   35.63
   5   2   8 1677.36   35.45
   5   2   8 1677.93   37.10
  -9  -2   3  587.99   24.75
  -5   4  11   43.73   19.05
  -9   2   3  547.29   25.55
   5  -4 -11   32.85    8.54
   9   2  -3  541.27   21.07
  -5   2  -8 1589.33   27.81
  -5  -4  11   39.61   16.64
  -5   4  11   62.39   22.23
  -9   2   3  524.40   22.10
  -5  -4  11   51.80   14.06
  -5  -2  -8 1586.83   34.10
   5  -4 -11   57.42    5.15
  -9  -2   3  540.39   21.21
   9  -2  -3  534.61   17.37
  -8  -3   8   -4.69   15.02
   8  -3  -8   12.53    9.56
  -8   3   8    7.47   10.08
   8   3  -8   13.42   23.02
  -8   3   8   19.36    8.36
  -8  -3   8   17.68    9.69
   8  -3  -8   14.12    7.07
   8   3  -8    3.80    5.43
   1   8   6 1079.21   39.74
   1  -8   6 1072.49   16.32
   1  -8   6 1061.49   17.26
   1   8   6 1134.97   37.80
  -1  -8  -6 1090.77   25.05
  -1  -8  -6 1102.83   29.75
   1  -8   6 1122.83   26.39
   1  -8   6 1056.88   28.50
   8  -4   0  746.93   17.82
  -8   4   0  774.69   28.41
  -8  -4   0  797.68   27.40
   8  -4   0  734.42   27.77
   8   4   0  715.80   25.63
  -8  -4   0  708.73   28.15
   8   4   0  803.98   28.91
  -8   4   0  749.40   16.85
  -7  -4   9   81.31   19.30
   7   4  -9   82.99   18.86
  -7   4   9   87.01   17.11
   7  -4  -9   78.27   11.58
   7   4  -9  107.43    8.76
  -7   4   9  102.18   20.01
   7  -4  -9   86.48   13.66
  -7  -4   9  102.66    6.32
  -1  -5 -10  706.48   24.22
   1  -5  10  692.34   26.18
   7   6  -1  728.89   24.83
   7   6  -1  768.27   28.75
   1  -5  10  729.65   23.28
  -6  -3  11   36.92   13.57
   7  -6  -1  762.35   27.38
   1   5  10  652.94   19.18
  -6  -3  11   13.96   16.49
   1  -5  10  678.24   17.95
  -1  -5 -10  670.60   20.37
  -7  -6   1  789.20   29.02
   7  -6  -1  722.26   24.40
   1   5  10  731.19   38.49
   1  -5  10  693.00   16.14
  -7  -6   1  785.28   39.80
  -6   3  11   21.42   11.53
  -6   3  11   28.33   13.48
   2  -6 -10 1436.00   29.53
   3  -8   4 1345.10   31.56
  -2   6  10 1462.55   30.37
   2  -6 -10 1462.07   33.45
  -3  -8  -4 1297.09   29.67
  -3  -8  -4 1310.87   34.68
   3  -8   4 1289.76   34.33
  -2   6  10 1488.18   25.07
  -2  -6  10 1505.14   30.29
  -2  -6  10 1460.29   34.27
   3   8   4 1296.75   31.28
  -2  -6  10 1405.23   28.80
   3   8   4 1340.67   45.85
  -2  -6  10 1503.07   26.56
   4   7  -8 4722.81   77.26
  -4  -7   8 4778.91   68.49
   4   7  -8 4601.73   56.35
   4  -7  -8 4678.38   64.26
  -4   7   8 4637.38   59.47
   4  -7  -8 4663.35   61.43
  -4   7   8 4636.19   58.01
  -4  -7   8 4644.90   64.21
  -5  -7   7   31.48   13.72
   5   7  -7   28.19   12.92
   5   7  -7   22.41   13.60
   5  -7  -7   36.65   10.15
  -5   7   7   23.13   10.53
  -5   7   7   29.00    7.36
   5  -7  -7   25.01   18.68
  -5  -7   7   26.35    9.09
  -2  -2 -11  675.25   18.64
   2  -2  11  631.86   18.31
  -2   2 -11  642.32   29.85
   2   2  11  679.81   25.62
   1   9  -4  364.02   28.27
   2  -2  11  649.80   21.38
  -2  -2 -11  691.93   36.54
   1   9  -4  339.60   16.22
  -1   9   4  339.42   17.97
  -1  -9   4  330.38   18.86
  -2   2 -11  643.35   17.96
   1  -9  -4  326.56   20.28
   1  -9  -4  331.98   16.39
  -1   9   4  359.95   20.10
   2   2  11  673.31   18.29
  -1  -9   4  342.98   16.68
  -2  -5  11    1.83    7.53
  -2  -5  11   11.19   10.33
   9   2  -5  846.18   30.24
  -2  -5  11    6.25    6.72
   2  -5 -11   12.03   10.87
   9   2  -5  876.57   41.73
  -9  -2   5  825.79   21.73
  -2   5  11   -2.46    9.23
   9  -2  -5  865.88   23.14
   2  -5 -11    8.06    6.77
  -9   2   5  885.69   32.68
  -2   5  11   12.09   11.11
  -9   2   5  842.37   22.26
  -9  -2   5  826.71   28.68
   9  -2  -5  806.86   30.56
  -2  -5  11    0.06    8.74
  -6   0  -7    1.06    9.26
   6   0   7   20.02   14.04
   6   0   7   10.96   11.62
  -6   0  -7    6.42   11.85
  -8   0  -3    8.00   13.86
   5  -4   7  771.25   16.08
   8   0   3  -15.53   23.79
   5   4   7  763.99   26.60
   5  -4   7  797.70   40.13
   8   0   3  -11.07   10.62
  -5  -4  -7  785.20   27.26
   5   4   7  800.16   29.80
  -5   4  -7  786.66   26.54
  -8   0  -3    4.63   15.37
  -5   4  -7  780.52   14.83
  -5  -4  -7  775.28   40.11
  -9  -1   1  544.09   22.35
  -9   1   1  474.07   35.71
  -7   0  11   -3.94   12.27
  -9   1   1  548.94   27.35
   9   1  -1  464.37   21.75
  -7   0  11   -2.10   10.69
  -9  -1   1  496.47   35.40
   9   1  -1  502.98   23.24
   9  -1  -1  510.98   23.69
   9  -1  -1  457.23   18.08
   2   9   2 1777.43   32.26
  -2  -9  -2 1886.16   41.39
   2  -9   2 1904.56   56.50
   2   9   2 1736.48   51.75
   2  -9   2 1792.11   37.50
  -2  -9  -2 1829.76   39.59
   7  -6  -5  624.23   32.85
  -7  -6   5  608.08   19.79
  -7   6   5  611.84   14.95
   7  -6  -5  592.12   19.14
  -7  -6   5  600.44   40.94
  -7   6   5  587.38   13.73
   7   6  -5  588.30   18.14
   7   6  -5  596.79   40.58
   7  -3 -10    3.18    4.23
  -7   3  10    2.84   13.96
   7   3 -10    8.14   13.27
   7  -3 -10    5.13    5.85
  -7  -3  10   13.50   13.54
  -7   3  10   -0.26   10.68
   5  -7   3 2788.70   52.69
  -7   5  -2  104.34   19.17
  -5  -7  -3 2882.47   52.73
   5   7   3 2826.66   64.29
  -7  -5  -2  104.30   18.49
   7   5   2  107.98   27.59
   5  -7   3 2858.92   49.10
  -5  -7  -3 2941.68   51.24
   7  -5   2  111.88   30.10
  -7  -5  -2  108.36   18.76
   7   5   2   94.95   30.32
   5   7   3 2856.99   51.57
  -8  -2   9  523.77   41.23
  -8   2   9  605.34   32.71
   8  -2  -9  588.91   15.41
  -8   2   9  579.07   18.85
   8   2  -9  594.64   27.14
   8   2  -9  557.47    9.94
   8  -2  -9  591.88   17.26
  -3  -5  11  125.17   13.69
  -3  -5  11  109.80    8.95
  -3  -5  11  119.09   15.79
  -3   5  11  125.30   23.69
   3  -5 -11  123.54   21.44
  -3  -5  11  109.13    5.25
   3  -5 -11   55.85   12.65
  -6  -7   0  797.14   41.38
   5  -8  -2  667.85   27.31
   6   7   0  785.52   25.49
   6  -7   0  821.47   29.02
   6   7   0  783.56   28.56
   5   8  -2  674.24   22.78
   5   8  -2  745.41   36.36
   5  -8  -2  680.17   24.10
  -5  -8   2  768.52   37.79
  -5  -8   2  739.01   37.19
  -6  -7   0  861.85   41.75
   6  -7   0  860.02   38.25
  -3   0  13   13.68   13.35
  -3   0  13   21.68   15.65
  -9  -2   2    1.78   26.05
   9  -2  -2   95.19   15.90
   9   2  -2   96.12   17.02
   9  -2  -2   72.06   17.56
   9   2  -2   91.38   15.34
  -9  -2   2   97.12   15.55
  -9   2   2   72.55   10.38
  -9   2   2   74.68   25.09
  -3  -6  10 1878.78   32.48
   3  -6 -10 1889.31   36.29
  -3  -6  10 1951.26   25.08
  -3   6  10 1862.43   33.87
  -3  -6  10 1902.45   36.59
   3  -6 -10 1854.08   32.77
  -3   6  10 1811.24   34.83
  -3  -6  10 1882.82   31.66
   5   6  -9  632.96   13.05
   0  -9  -4   26.46   22.15
   5  -6  -9  642.70   25.95
   5   6  -9  667.80   24.50
  -5   6   9  671.40   28.09
  -5  -6   9  674.54   25.99
   5  -6  -9  632.73   22.53
   0  -9   4   12.57    7.83
   0  -9   4   15.00   13.94
   0  -9   4   19.93    4.32
   0  -9   4   32.01   19.75
   0   9   4   29.03    8.85
  -5   6   9  620.90   24.28
  -5  -6   9  677.46   14.24
   0  -9  -4   22.81   12.99
   0   9   4   38.47   21.25
  -1  -8   7  546.92   18.45
  -1  -8   7  508.97   21.21
  -1  -8   7  564.33   26.38
  -1   8   7  522.59   30.02
  -1   8   7  518.55   26.76
   1  -8  -7  533.32   17.11
   1  -8  -7  535.70   31.39
  -1  -8   7  531.95   19.77
   6   7  -5  657.75   25.60
   6   7  -5  627.97   27.78
  -6   7   5  658.67   12.08
   6  -7  -5  625.21   23.53
  -6  -7   5  680.83   20.87
   6  -7  -5  686.28   21.04
  -6  -7   5  704.18   40.14
   3  -9  -1  280.72   30.01
   3  -9  -1  224.99   21.93
   3   9  -1  252.60   18.37
  -3  -9   1  261.64   14.84
   3   9  -1  203.08   14.63
  -3  -9   1  228.31   19.69
  -2  -8   7  145.02   13.36
  -2  -8   7  139.84   14.98
  -2  -8   7  121.78   20.20
   2  -8  -7  155.50   14.73
   2  -8  -7  119.05   10.48
  -2   8   7  127.20   23.13
  -2  -8   7  164.50   12.03
  -6  -1  -7  353.03   19.46
  -6   1  -7  384.58   16.17
  -5  -8   3  575.99   34.07
   6  -1   7  446.41   35.80
  -1   6  10 2552.29   45.62
  -1  -6  10 2604.73   40.08
   1  -6 -10 2564.50   53.70
   1  -6 -10 2509.26   38.89
  -6  -1  -7  334.68   34.85
   6   1   7  418.26   21.51
   5   8  -3  525.15   22.29
  -1  -6  10 2549.52   43.63
  -5  -8   3  477.40   21.50
   6  -1   7  404.25   17.89
  -1   6  10 2583.35   44.34
  -6   1  -7  401.43   22.17
   6   1   7  372.24   23.24
  -1  -6  10 2506.88   34.99
  -1  -6  10 2512.23   38.59
   5  -8  -3  509.36   32.51
   5   8  -3  521.95   20.44
   5  -8  -3  562.98   37.10
  -2   0  13   -7.19   10.27
  -2   0  13   20.67   19.03
  -6   0  12  797.82   29.83
   5   8  -1   20.24   18.84
   5  -8  -1    9.83   12.41
   5  -8  -1    9.20   23.03
   5   8  -1    4.40   12.43
   8   1   3  550.69   26.14
   8  -1   3  445.27   25.85
  -5  -8   1   11.09   12.45
   8   1   3  515.90   33.18
  -8  -1  -3  485.32   20.24
  -8   1  -3  556.51   25.85
   8  -1   3  487.02   17.87
  -3  -9   2  308.80   30.59
  -5  -8   1    7.84   12.83
   3  -9  -2  282.57   34.46
  -8   1  -3  473.17   17.09
  -8  -1  -3  470.30   25.55
  -6   0  12  807.07   37.93
   3   9  -2  250.72   18.04
  -3  -9   2  297.83   15.51
   3  -9  -2  270.52   19.22
   3   9  -2  287.99   22.58
  -1   0 -12  458.11   19.49
  -1   0 -12  434.32   20.46
   1   0  12  443.74   13.05
   1   0  12  484.38   33.45
  -7   1  11  883.15   41.95
  -7  -1  11  887.48   27.01
  -7   1  11  870.24   25.74
  -7  -1  11  896.64   31.36
   6   6   3  268.16   36.02
   6  -6   3  252.54   22.51
  -6  -6  -3  298.13   34.89
   6   6   3  288.50   21.44
  -6  -6  -3  345.96   36.44
   6  -6   3  209.36   19.92
   8  -4  -7  137.32   12.64
   8   4  -7  155.45   10.01
   8   4  -7  179.57   20.94
  -8   4   7  161.93   10.32
  -8  -4   7  169.24   16.82
   8  -4  -7  111.44   16.45
  -8  -4   7  215.34   20.74
  -8   4   7  153.28   19.02
   5  -6   5   66.52   17.29
   5  -6   5   74.91   14.94
   5   6   5   74.13   18.70
   5   6   5   63.24   16.31
  -5  -6  -5   70.37   17.99
  -5  -6  -5   85.19   16.46
  -9   0   7   -1.67   10.64
  -9   0   7   -0.89    6.34
   9   0  -7  -19.77   11.15
   9   0  -7   12.13   10.97
  -2   9   4 2961.48   49.15
   2  -9  -4 2897.26   33.69
   2   9  -4 2870.10   45.93
   2  -9  -4 2932.18   49.85
   2   9  -4 2913.83   47.57
  -2  -9   4 3068.15   49.09
  -2  -9   4 2955.24   48.36
  -2   9   4 2970.41   35.62
  -7   2  -5  274.11   19.62
   7   2   5  318.97   21.78
   7   2   5  309.82   32.98
  -7  -2  -5  309.43   18.73
  -7   2  -5  272.68   22.66
   7  -2   5  335.21   21.89
  -7  -2  -5  309.73   22.44
   7  -2   5  272.47   22.76
  -3  -1  13  371.43   21.01
  -3  -1  13  372.59   24.32
  -3   1  13  376.81   22.15
  -3   1  13  444.35   24.87
   1  -7   8  577.78   16.40
  -1  -7  -8  593.31   22.85
   1   7   8  611.43   23.76
  -1  -7  -8  589.76   32.29
   1  -7   8  588.82   20.69
   1  -7   8  554.25   18.30
   1  -7   8  597.80   26.92
   1   7   8  640.95   21.34
   3   9   0  296.36   30.58
  -3  -9   0  331.95   33.42
   3   9   0  303.03   24.86
  -3  -9   0  288.96   25.01
   3  -9   0  229.35   23.82
   3  -9   0  257.91   20.47
   4   7   5  468.79   23.10
   4  -7   5  511.97   32.02
  -4  -7  -5  506.32   24.83
   4   7   5  475.99   24.54
   4  -7   5  439.40   24.05
  -4  -7  -5  463.80   34.20
  -1  -5  11 3345.03   47.33
   1  -5 -11 3389.87   65.84
  -1  -5  11 3384.10   44.02
   1  -5 -11 3353.60   52.95
  -1  -5  11 3382.91   46.76
  -1  -5  11 3414.97   51.40
  -1   5  11 3266.63   42.76
  -1   5  11 3327.61   54.66
   6  -6  -8 2600.15   40.28
   6  -6  -8 2650.43   38.26
  -6   6   8 2726.87   38.29
   6   6  -8 2833.42   49.71
  -6   6   8 2679.59   42.63
  -6  -6   8 2680.36   49.70
   6   6  -8 2707.42   35.01
  -6  -6   8 2807.96   43.78
   7   5  -8   45.11   16.19
   7  -5  -8   26.01   15.15
  -7   5   8   29.63   15.32
  -7  -5   8   39.75   12.17
   7  -5  -8   26.66   12.80
  -7   5   8   36.37    8.04
  -7  -5   8   26.95   27.25
   7   5  -8   35.48    6.79
   4  -3   9   49.69   10.64
  -4   3  -9   51.00    9.56
  -4  -3  -9   63.22   15.33
   4   3   9   62.87   13.88
  -4   3  -9   66.03   13.74
  -4  -3  -9   86.72   13.99
   4  -3   9   75.60   13.88
   4   3   9   66.65   17.17
  -2  -1  13  688.80   37.10
  -2  -1  13  621.80   42.01
  -2   1  13  772.82   29.01
  -2   1  13  753.39   26.61
  -6  -1  12 2946.30   49.87
  -9   2   6   71.94   19.90
  -6   1  12 2973.28   62.40
   9  -2  -6   47.23   19.31
   9  -2  -6   72.73   18.07
  -6  -1  12 2879.76   53.48
  -9   2   6   63.98   18.12
  -9  -2   6   61.76   16.86
   9   2  -6   60.42   10.37
   9   2  -6   80.77   27.18
  -6   1  12 2775.46   66.94
  -9  -2   6   56.31   17.22
   1  -1  12 2796.23   42.98
  -1   1 -12 2657.44   43.96
   1   1  12 2801.39   48.88
  -1  -1 -12 2700.82   37.00
   1   1  12 2744.96   36.52
  -1  -1 -12 2744.90   46.84
  -1   1 -12 2744.69   36.57
   1  -1  12 2776.22   45.82
  -4   8   6  224.93    8.84
   4  -8  -6  170.28   27.99
   3  -3  10  577.38   18.30
  -4  -8   6  204.69   16.94
   4   8  -6  187.87   21.03
  -4   8   6  237.54   13.95
   4   8  -6  207.68   15.33
   4  -8  -6  252.89   15.97
  -3   3 -10  599.62   24.64
   3   3  10  568.40   20.38
  -3  -3 -10  602.72   23.64
  -3  -3 -10  549.58   20.19
  -4  -8   6  217.50   14.73
   3   3  10  603.90   39.52
   3  -3  10  615.83   29.56
  -3   3 -10  591.76   28.63
   8  -5  -3 2491.20   45.18
   8   5  -3 2487.80   42.13
  -8   5   3 2448.03   30.02
  -8  -5   3 2638.34   68.34
  -8  -5   3 2592.56   44.17
   8   5  -3 2541.59   50.88
   8  -5  -3 2530.28   42.21
  -8   5   3 2480.03   31.67
   7   6   0 1287.98   36.00
   7   6   0 1373.49   44.88
   7  -6   0 1362.41   50.46
  -7  -6   0 1354.72   36.08
  -7  -6   0 1411.47   35.06
   7  -6   0 1377.80   45.12
  -4   0  13   -8.56   14.19
  -4   0  13   -4.90   20.09
  -9  -1   7  127.91   18.91
   9   1  -7  138.79   10.46
  -9  -1   7  128.95   16.76
   8  -3   2 2023.34   28.95
   9  -1  -7  138.44   16.03
   8   3   2 2023.93   43.00
  -9   1   7  130.62   25.53
  -8   3  -2 2073.25   33.87
  -9   1   7  147.19   11.05
  -8   3  -2 2074.88   44.67
   9   1  -7  134.00   29.07
   9  -1  -7  129.45   11.19
   8   3   2 2093.12   43.23
   8  -3   2 2049.35   44.35
  -8  -3  -2 2077.87   41.80
  -8  -3  -2 2033.40   43.47
  -8   5   4 2864.33   35.87
  -8   5   4 2931.60   38.74
   8  -5  -4 2901.34   61.08
  -8  -5   4 3023.34   72.69
   8   5  -4 2891.01   54.60
   8  -5  -4 2829.04   44.36
  -8  -5   4 3021.91   47.50
   8   5  -4 2858.73   54.22
  -2  -7   9  653.60   19.84
  -2   7   9  614.28   20.17
   2  -7  -9  624.80   19.24
  -2  -7   9  587.44   16.15
  -2  -7   9  565.59   23.45
   2  -7  -9  615.20   27.65
  -2  -7   9  614.21   15.69
  -2   7   9  642.22   27.20
   3  -9  -3  417.07   21.31
  -3  -9   3  369.55   24.91
   3  -9  -3  390.40   23.52
   3   9  -3  370.73   29.95
   3   9  -3  396.37   24.52
  -3  -9   3  354.82   20.39
   5  -8  -4  187.22   18.89
   5   8  -4  152.88   16.87
   5   8  -4  165.07   14.72
  -5  -8   4  172.81   27.94
  -5  -8   4  178.50   16.02
   5  -8  -4  165.32   25.71
  -9   0   0 3747.55   60.81
   9   0   0 3845.30   78.47
   9   0   0 3749.97   55.71
  -9   0   0 3648.98   65.04
   5  -8   0  872.14   40.22
   0  -8   7  506.76   17.51
  -5  -8   0  796.11   26.73
   0  -8   7  513.29   27.28
   0   8   7  558.72   21.03
   0  -8  -7  510.03   22.13
   0   8   7  510.56   19.01
   0  -8   7  511.00   31.14
   0  -8   7  497.43   11.31
  -5  -8   0  823.17   29.07
   5   8   0  793.50   26.99
   0  -8  -7  533.18   26.58
   5   8   0  819.36   26.49
   5  -8   0  777.45   30.34
   9   2  -1  285.09   19.89
  -9   2   1  270.88   13.50
  -9  -2   1  244.64   20.36
  -8  -5   2  212.82   18.56
   8  -5  -2  186.06   26.29
   8   5  -2  202.09   21.87
  -9  -2   1  287.81   20.38
   9   2  -1  284.67   20.88
   8  -5  -2  168.74   19.48
   8   5  -2  192.76   16.92
  -9   2   1  268.84   20.77
  -8  -5   2  189.35   21.65
   9  -2  -1  288.20   33.61
  -4  -5  11  897.14   29.15
   4  -5 -11  904.94   23.12
   3   8  -7 3348.99   57.89
   3   8  -7 3293.42   55.02
  -4   5  11  884.25   23.98
  -4  -5  11  951.49   25.61
  -3   8   7 3351.87   60.60
   4  -5 -11  872.78   21.47
  -4   5  11  909.26   26.85
   3  -8  -7 3199.95   47.18
   3  -8  -7 3281.27   60.21
  -3  -8   7 3410.58   48.21
  -3  -8   7 3436.87   50.84
  -3   8   7 3276.67   50.29
  -5   3  12  591.27   26.16
  -1  -4 -11  256.72   30.13
   0  -3 -12  643.49   15.56
   1  -4  11  207.59   14.31
  -1  -4 -11  182.39   20.83
   0  -3  12  737.06   21.98
   0  -3 -12  633.06   37.78
   1   4  11  177.46   18.94
   1  -4  11  162.03    9.97
  -5  -3  12  594.09   41.33
   0  -3  12  677.49   13.02
  -7  -6   6 1847.08   58.95
  -5  -3  12  608.04   35.62
   0   3  12  665.34   26.47
   1   4  11  193.15   31.12
   1  -4  11  196.98   20.49
  -7   6   6 1876.32   23.85
  -7  -6   6 1892.09   32.48
   7  -6  -6 1804.02   45.78
   7   6  -6 1847.93   30.50
  -5   3  12  650.60   22.80
  -7   6   6 1883.29   25.33
   0   3  12  700.08   21.12
   0  -3  12  695.11   19.38
   7  -6  -6 1861.39   32.59
   7   6  -6 1893.54   42.01
   1  -4  11  194.63   11.48
   0  -3  12  764.66   36.17
  -4  -1  13  670.11   28.80
  -4  -1  13  650.15   25.00
  -4   1  13  676.12   37.38
  -4   1  13  655.68   43.20
  -1  -7   9   13.23   12.83
   1  -7  -9   13.46   10.16
  -1  -7   9   14.76    8.80
  -3   4  12 1770.55   25.79
   3  -4 -12 1810.29   35.91
   1  -7  -9   14.51   10.31
  -2  -4  12 2976.49   46.23
  -1   7   9   26.53   11.46
  -1  -7   9   31.63   11.61
  -3  -4  12 1813.41   38.07
  -2   4  12 2880.71   49.91
  -2   4  12 2949.53   39.79
  -3   4  12 1798.10   49.10
  -1  -7   9   13.68    8.80
  -3  -4  12 1823.62   47.34
  -1   7   9   19.43   15.97
  -2  -4  12 2945.20   50.17
   3  -4 -12 1814.97   22.93
   2  -4 -12 2962.82   61.67
   2  -4 -12 2848.82   35.06
   4   8   3 1138.39   30.78
   4  -8   3 1113.13   33.65
   4  -8   3 1088.00   29.97
  -4  -8  -3 1110.66   41.58
   4   8   3 1066.82   43.86
  -4  -8  -3 1128.80   33.98
  -8   0  10  218.36   17.57
  -8   0  10  264.41   31.59
   3  -9   1 6672.80  108.27
   3   9   1 6753.03   88.48
  -3  -9  -1 7067.14  100.91
  -3  -9  -1 6741.62   96.17
   3   9   1 6716.24   93.29
   3  -9   1 6655.43  114.23
   1  -9   4 3254.75   55.95
  -1  -9  -4 3319.41   47.51
   1   9   4 3281.58   54.38
   1  -9   4 3438.05   53.65
   1   9   4 3252.58   48.48
  -1  -9  -4 3297.40   55.91
   1   0 -13    1.72   10.66
  -1   0  13    5.75   12.26
  -8  -4  -1  163.25   31.56
  -9  -1   0 3044.67   49.64
   8   4   1  163.04   20.34
  -8  -4  -1  158.45   19.93
   8   4   1  119.57   18.43
  -8   4  -1  180.42   20.50
  -9   1   0 3007.89   45.13
  -9   1   0 3015.78   68.56
   8  -4   1  127.08   19.95
   9   1   0 3039.31   49.72
  -9  -1   0 3029.49   68.92
   8  -4   1  157.51    7.62
  -8   4  -1  155.04   10.83
   9  -1   0 3051.36   53.45
   9  -1   0 3073.20   55.86
   9   1   0 2971.93   53.03
  -4  -6  10 2327.08   29.74
  -4  -6  10 2361.85   43.52
  -4  -6  10 2343.98   39.13
  -4  -6  10 2368.12   34.02
  -4   6  10 2388.97   40.74
  -4   6  10 2320.33   37.79
   4  -6 -10 2287.48   32.97
   4  -6 -10 2291.29   34.63
   6  -7   1   94.17   19.80
   6   7   1  102.98   17.67
   6  -7   1  131.50   17.30
   6   7   1  107.93   18.96
  -6  -7  -1   86.64   29.08
  -6  -7  -1  122.56   19.31
   8   5  -5    8.41   22.98
   8   5  -5    6.53   13.69
   8  -5  -5   -0.44   16.46
  -8  -5   5   16.97   19.21
  -8   5   5    2.89    7.37
  -8  -5   5    0.38    7.63
  -8   5   5   -1.24    3.90
   8  -5  -5    4.11    8.67
   3  -7  -9  301.87   14.62
  -3  -7   9  304.05   26.49
  -3  -7   9  301.12   20.85
  -3   7   9  278.21   22.53
  -3   7   9  308.00   14.39
  -3  -7   9  250.71   17.70
   3  -7  -9  258.56   14.02
  -3  -7   9  297.34   13.12
  -2  -9  -3 1334.91   37.61
   9  -3  -4  789.28   18.97
  -6  -2  -7 1445.95   35.26
  -6   2  -7 1417.46   25.68
   6  -2   7 1432.08   27.94
   2   9   3 1360.60   33.37
   2   9   3 1253.32   38.35
   9   3  -4  826.58   29.69
   6   2   7 1533.80   36.43
   9   3  -4  754.09   31.96
   6  -2   7 1493.90   35.87
  -6  -2  -7 1437.26   45.36
  -9   3   4  786.17   18.85
  -2  -9  -3 1392.33   35.63
   2  -9   3 1326.09   32.44
   2  -9   3 1375.75   51.02
   9  -3  -4  846.17   35.74
   6   2   7 1446.83   35.20
  -6   2  -7 1452.21   49.33
  -9   3   4  846.82   35.87
  -9  -3   4  844.94   23.39
  -9  -3   4  788.97   43.66
   8   2   3  701.71   42.75
  -8  -2  -3  760.55   43.21
   8  -2   3  653.97   44.17
   8  -2   3  708.22   18.45
  -8   2  -3  718.57   24.61
  -8  -2  -3  811.11   37.26
   8   2   3  723.62   26.26
  -8   2  -3  688.91   28.95
  -7  -2  11 1040.15   33.48
  -7  -2  11 1020.54   28.84
  -7   2  11 1022.73   29.65
  -7   2  11  974.57   26.38
   9  -3  -3   16.66   19.67
   9   3  -3    7.41   11.23
  -9  -3   3   16.61   11.45
  -9   3   3   16.72   12.17
  -9   3   3    4.60    7.73
  -9  -3   3   -3.04   22.78
   9  -3  -3    6.61   12.27
   9   3  -3   16.33   14.56
   5   3   8 1198.02   33.79
  -5   3  -8 1170.45   28.47
  -5   3  -8 1134.93   30.71
  -5  -3  -8 1177.28   44.29
   5   3   8 1203.92   44.33
   5  -3   8 1185.52   22.93
  -5  -3  -8 1180.96   45.00
   5  -3   8 1176.22   31.14
   6  -7  -6  600.40   19.13
   6   7  -6  531.37   24.82
  -6   7   6  592.57   10.96
   6  -7  -6  559.22   21.79
  -6  -7   6  528.22   39.67
  -6  -7   6  607.18   19.05
   6   7  -6  548.21   17.24
  -6   7   6  563.06   16.06
  -3  -2  13   13.78   14.85
  -3   2  13    4.90   13.66
  -3  -2  13   20.74   20.38
  -3   2  13   23.30   15.35
  -8   1  10   65.82   13.80
  -8  -1  10   73.65   17.92
  -8   1  10   56.25   16.02
  -8  -1  10   76.05   15.17
   0   6  10 3517.94   49.58
   0  -6  10 3528.32   45.57
   0  -6  10 3497.79   44.82
   0  -6  10 3420.28   46.82
   0  -6 -10 3438.40   59.81
   0  -6 -10 3581.74   56.11
   0  -6  10 3548.60   48.70
   0   6  10 3530.70   70.52
   1  -9  -5   85.93   16.16
  -1   9   5   76.77   10.24
  -1  -9   5   57.50   13.38
   1  -9  -5   72.05   13.72
  -1   9   5   86.80   15.35
  -1  -9   5   98.22   13.88
  -1  -9   5   86.57   15.70
  -1  -1  13  562.24   25.73
   1  -1 -13  502.32   34.99
  -1   1  13  556.47   37.10
  -1  -1  13  538.11   22.78
   2  -3  11 1308.12   25.54
  -2  -3 -11 1299.22   26.56
   2   3  11 1286.77   34.09
   2  -3  11 1336.06   27.81
  -2  -3 -11 1340.00   33.23
   2   3  11 1301.30   34.92
  -2   3 -11 1317.56   25.50
  -2   3 -11 1331.97   26.69
  -7   4  -4  284.94   13.00
   7  -4   4  283.71   24.10
  -7   4  -4  314.62   23.37
  -7  -4  -4  311.56   33.85
   7  -4   4  305.06   14.43
   7   4   4  346.93   23.40
  -7  -4  -4  323.57   23.58
   7   4   4  288.80   22.81
   9  -3  -5   20.95    9.37
  -9  -3   5   26.38   16.53
  -9  -3   5   12.40   17.53
   9   3  -5   37.30   10.31
   9  -3  -5   10.76   18.66
  -9   3   5   41.49   11.73
  -9   3   5   25.16   15.45
   9   3  -5   23.59   15.95
  -2  -2  13 1120.07   46.85
  -2  -2  13 1090.10   29.19
   2  -2 -13 1050.83   29.57
  -2   2  13 1112.63   31.58
  -6  -2  12  727.59   29.73
  -6   2  12  727.90   27.56
  -6  -2  12  704.66   25.95
  -6   2  12  722.73   35.22
  -1   2 -12 1262.60   27.91
  -1  -2 -12 1232.28   22.71
  -1   2 -12 1226.68   27.97
   1  -2  12 1240.22   40.07
   1   2  12 1293.05   33.75
   1   2  12 1294.78   22.70
  -1  -2 -12 1279.38   32.14
   1  -2  12 1235.44   28.76
  -8  -5   1   19.06   13.07
   8   5  -1   12.13   12.45
   8   5  -1   15.47   15.22
  -8  -5   1   -4.65   14.94
   8  -5  -1    7.75   12.19
   8  -5  -1    1.14   22.19
   3   9  -4  389.46   16.16
   3  -9  -4  435.12   21.60
   3  -9  -4  413.01   24.09
  -3  -9   4  368.90   20.09
   3   9  -4  428.33   29.01
  -3  -9   4  383.23   25.12
  -6  -5  -5 3911.36   78.79
   6   5   5 3956.55   83.98
  -6   5  -5 3890.14   65.30
   6  -5   5 3997.29   65.72
  -6  -5  -5 3918.41   80.88
   6   5   5 3950.27   78.51
   8  -3  -9    2.46    8.45
  -8  -3   9   -2.66    6.73
   8   3  -9    1.89   12.35
   3   6   8 1218.22   49.15
  -8   3   9   -5.91    7.85
  -8  -3   9   22.17   13.05
   3  -6   8 1242.79   17.70
   8  -3  -9   -0.06    4.48
  -3  -6  -8 1155.72   31.49
  -8   3   9    8.41    9.15
   3   6   8 1247.89   42.13
   3  -6   8 1163.07   23.47
  -3  -6  -8 1160.76   31.30
   8   3  -9    0.77    5.77
   3  -6   8 1172.45   37.20
   3  -6   8 1169.23   29.91
  -9  -2   7  354.54   23.83
  -9  -2   7  371.98   20.35
   9   2  -7  377.66   13.30
   9  -2  -7  357.14   14.67
  -9   2   7  416.51   28.01
   9   2  -7  346.90   23.79
  -6   4  -6  421.00   15.76
   5  -8  -5 2670.55   55.68
   6  -4   6  406.99   17.65
  -9  -3   2  -14.89   12.85
   6  -4   6  453.78   24.03
   5   8  -5 2560.44   41.68
   5   8  -5 2597.74   57.53
  -5  -8   5 2806.73   48.39
  -6   4  -6  399.33   37.10
  -9   3   2    2.49   11.88
   6   4   6  389.53   23.77
  -5  -8   5 2674.03   55.00
   6   4   6  377.64   38.49
  -6  -4  -6  417.59   24.86
   9   3  -2    9.33    9.22
  -9  -3   2   -4.37   18.29
   9  -3  -2   -5.40    9.00
   9  -3  -2   -4.49   10.01
  -6  -4  -6  428.52   23.40
   9   3  -2   -0.59   10.90
  -9   3   2   10.44    6.80
   5  -8  -5 2518.85   47.41
  -2  -8  -6 1972.69   37.38
   2  -8   6 1984.04   36.71
   2  -8   6 1868.18   53.10
  -2  -8  -6 1955.87   40.79
   2   8   6 1890.67   38.36
   2   8   6 1914.27   51.24
  -4  -4  12 2512.48   62.06
   3  -5   9  251.92   10.92
  -1   4  12  486.78   24.20
   3   5   9  287.53   17.73
  -1   4  12  459.58   18.37
  -4   4  12 2481.66   61.68
  -1  -4  12  515.16   19.56
  -4   4  12 2551.29   44.18
  -3  -5  -9  273.79   28.92
   3  -5   9  253.09   14.91
  -3  -5  -9  273.65   20.70
   3   5   9  286.05   22.79
   1  -4 -12  478.80   22.85
  -1  -4  12  521.51   10.35
   1  -4 -12  492.57   13.68
  -4  -4  12 2460.58   43.26
   3  -5   9  233.08   27.13
  -1  -4  12  497.11   10.99
  -1  -4  12  476.39   22.19
   3  -5   9  248.21   18.19
   2   9  -5  405.66   18.42
   2  -9  -5  396.60   11.48
  -2   9   5  426.66   31.14
   2  -9  -5  391.10   21.30
  -2  -9   5  398.52   22.33
  -2   9   5  411.23   12.59
  -2  -9   5  424.77   29.66
   2   9  -5  438.92   20.84
  -9   0   8  353.76   17.84
  -9   0   8  322.72   21.09
   9   0  -8  318.61   17.25
   9   0  -8  315.00   33.13
   0  -5  11  613.23   14.41
   5  -8   1  297.19   23.01
   5   8   1  255.21   20.31
   5  -8   1  255.08   20.20
  -5  -8  -1  254.61   21.22
   5   8   1  268.71   31.66
   0  -5  11  615.08   17.72
   0   5  11  574.71   25.24
  -5  -8  -1  257.23   19.88
   0  -5  11  600.66   22.14
   0  -5 -11  603.90   23.86
   0  -5  11  592.15   19.70
   0  -5 -11  617.20   18.16
   0   5  11  624.85   17.22
   0  -9   5 2854.63   50.50
   0   9   5 2824.50   51.15
   0  -9  -5 2853.48   40.94
   0  -9   5 2755.95   31.14
   0  -9   5 2793.22   32.89
   0  -9  -5 2914.93   51.01
   0  -9   5 2921.18   47.92
   0   9   5 2824.29   48.94
  -4   0 -10 2236.19   39.77
   4   0  10 2323.59   55.51
   4   0  10 2418.85   53.52
  -4   0 -10 2203.65   38.83
   5  -7  -8  588.97   30.64
   4   5   8 2181.59   41.67
   4  -5   8 2119.72   35.25
   5  -7  -8  646.65   18.36
   5   7  -8  642.68   35.47
  -4  -5  -8 2104.63   41.58
  -5   7   8  674.14   17.26
  -4  -5  -8 2045.83   57.50
   4  -5   8 2176.58   38.07
   4  -5   8 2105.71   33.57
   4   5   8 2200.03   46.19
  -5  -7   8  662.54   17.01
   4  -5   8 2076.22   54.61
  -5   7   8  690.35   16.38
  -5  -7   8  656.01   25.57
   5   7  -8  621.23   22.36
   6   5 -10 1676.40   39.39
  -6   5  10 1663.36   29.71
  -6   5  10 1670.17   43.09
  -6  -5  10 1679.38   39.79
   6  -5 -10 1624.65   29.25
   6  -5 -10 1666.45   32.04
   7   6   1   20.91   15.61
   7   6   1   22.05   13.76
   7  -6   1   -3.46   15.35
   7  -6   1    9.00   13.28
  -7  -6  -1    3.10   14.45
  -7  -6  -1   12.46   14.23
   8   4  -8 1107.43   18.64
   8  -4  -8 1141.32   20.65
   8   4  -8 1135.03   34.77
  -8  -4   8 1141.28   26.23
  -8  -4   8 1150.58   34.92
  -8   4   8 1087.37   24.06
   8  -4  -8 1130.22   22.67
  -8   4   8 1117.50   21.78
   3   8   5   29.83   14.71
  -3  -8  -5   29.52   16.76
   3  -8   5   31.75   13.65
  -3  -8  -5   50.05   13.87
   3   8   5   38.25   14.72
   3  -8   5   33.73   15.55
  -4  -2  13  300.68   24.93
  -4   2  13  425.24   24.75
  -4  -2  13  388.61   22.04
  -5   0  13   -2.62   19.11
  -5   0  13   12.68   22.23
  -4  -6  -7  791.94   28.17
  -7   3  -5   23.44   16.10
  -7   3  -5   25.05    7.38
   7  -3   5   30.92   13.12
  -7  -3  -5   54.34   15.99
   7  -3   5   27.21   26.95
   4  -6   7  679.96   23.43
  -4  -6  -7  747.98   40.88
   7   3   5   19.74   25.95
   4   6   7  740.08   29.33
   7   3   5   27.34   16.21
   4  -6   7  701.20   38.91
  -7  -3  -5    5.81   14.32
  -6  -4  11   33.41   26.82
   0  -7  -9  258.29   26.13
   7  -5   3   10.54   15.83
  -6   4  11   28.30   21.58
   0  -7  -9  262.77   27.20
   6  -4 -11    5.30    7.07
   6  -4 -11   24.03    7.60
  -6  -4  11   28.54   13.71
  -7  -5  -3   -0.61   12.96
  -8  -5   6  736.73   20.03
   0  -7   9  252.60   11.84
   8  -5  -6  690.08   19.46
  -7   5  -3   13.62   13.11
   7   5   3   13.86   14.39
  -7  -5  -3  -15.68   12.44
  -8  -5   6  687.57   45.66
  -6   4  11   28.06   18.03
   0   7   9  249.55   15.76
  -8   5   6  662.42   19.30
  -8   5   6  735.66   22.24
   0  -7   9  245.96   10.63
   8  -5  -6  662.90   31.65
   8   5  -6  740.98   43.45
   0  -7   9  267.10   22.46
   8   5  -6  675.99   25.62
   0   7   9  248.10   18.28
   7   5   3   21.45   15.61
   0  -7   9  266.44   19.82
   2  -6   9   15.24   11.36
   2  -6   9    5.98   10.88
   2   6   9   14.16   17.96
   2   6   9   12.56   14.89
  -2  -6  -9   26.10   13.09
  -2  -6  -9   19.20   22.51
   2  -6   9   12.28    9.17
   2  -6   9   17.19    9.67
   5  -7   4 1837.96   57.73
  -5  -7  -4 1767.69   39.62
   5   7   4 1806.13   39.46
   5   7   4 1747.84   57.24
   5  -7   4 1801.04   37.78
  -5  -7  -4 1821.29   42.60
   3   9   2  443.64   36.13
   3  -9   2  430.86   23.01
   9   2   0 1116.46   31.20
   3   9   2  439.90   20.36
  -3  -9  -2  418.48   25.21
   9   2   0 1050.72   31.37
   9  -2   0 1085.91   22.92
  -9   2   0 1125.74   33.14
   9  -2   0 1095.46   48.20
  -9  -2   0 1129.38   30.77
  -9   2   0 1043.11   22.02
  -3  -9  -2  456.62   29.34
   3  -9   2  453.62   26.08
  -9  -2   0 1134.15   32.14
  -9  -1   8  571.11   14.40
   3   0  11  -10.42   10.47
   3   0  11   18.93   13.09
  -3   0 -11  -17.02   16.42
   9  -1  -8  596.50   22.84
  -9   1   8  621.96   34.38
  -9  -1   8  557.66   26.53
   9   1  -8  580.33   14.01
  -9   1   8  564.71   14.94
  -3   0 -11   37.03   12.23
   9   1  -8  610.71   38.75
   9  -1  -8  574.58   15.05
   4  -1  10 1953.40   37.38
   4   1  10 2003.59   37.14
   4   1  10 1993.50   40.57
  -4  -1 -10 1878.55   35.86
  -4   1 -10 1982.43   47.68
   4  -1  10 1933.69   36.74
  -4   1 -10 1931.21   34.49
  -4  -1 -10 1912.18   38.46
   9  -3  -6  778.68   21.83
  -9  -3   6  780.81   31.14
   9   3  -6  859.86   30.15
   9   3  -6  760.29   19.33
  -9   3   6  781.53   20.64
  -9   3   6  769.79   18.09
   9  -3  -6  783.50   19.46
  -9  -3   6  803.72   20.48
  -7   4  10 1631.81   30.43
   7  -4 -10 1629.88   22.20
   7   4 -10 1684.29   40.79
  -7  -4  10 1681.63   41.45
   7  -4 -10 1638.86   23.54
  -7   4  10 1622.47   33.16
  -7   0  -6 4114.55   66.43
  -7   0  -6 4042.96   69.18
   7   0   6 4214.96   62.26
   7   0   6 4365.93   69.65
  -1  -8  -7  134.49   15.16
   1  -8   7  207.96   17.33
   1   8   7  159.15   27.18
   1   8   7  189.16   16.94
  -1  -8  -7  170.73   28.17
   1  -8   7  161.80   15.41
  -5   1  13   14.72   16.37
  -5  -1  13   31.57   26.30
  -5   1  13   27.97   22.15
  -5  -1  13   20.22   14.21
  -5   0  -9   11.91   17.07
   7   6  -7  165.12   17.72
   5   0   9   -2.15   11.70
  -7  -6   7  175.37   35.00
  -5   0  -9   -0.95    9.63
   7  -6  -7  140.14   23.57
  -7   6   7  184.91    9.08
   7  -6  -7  188.63   13.22
  -7  -6   7  228.00   19.66
  -7   6   7  177.73   15.80
   5   0   9   18.97   17.94
   7   6  -7  225.03   20.94
  -8  -2  10 7752.22  109.43
  -8   2  10 7738.06   98.76
  -8   2  10 7634.15  116.12
   8   2 -10 7526.42  106.56
  -4  -7   9   70.82   14.11
   4  -7  -9   69.69   12.07
  -4   7   9   69.68   16.47
  -4  -7   9   83.27   24.02
  -4  -7   9   68.19    9.62
   4  -7  -9   53.36   10.65
   9   0   1   21.39   21.36
   9   0   1   -1.46    9.90
  -4  -7   9   59.18   12.13
  -9   0  -1    2.47   13.71
  -4   7   9   61.04   11.73
  -9   0  -1    7.18   10.04
  -2  -5 -10 1096.22   44.34
   2   5  10 1141.83   33.32
  -2  -5 -10 1087.11   37.18
   2   5  10 1090.25   36.18
   2  -5  10 1106.89   35.33
   2  -5  10 1067.74   29.23
   2  -5  10 1141.91   27.37
   2  -5  10 1093.77   22.17
   1  -2 -13   21.41   13.58
  -1  -2  13   21.76   23.45
  -1   2  13   39.24   23.42
   1  -2 -13   10.33    7.97
  -1  -2  13   -1.64   20.67
  -4   8   7  588.13   14.49
   4  -8  -7  573.59   33.99
   4  -8  -7  580.39   20.58
   4   8  -7  614.34   17.65
   4   8  -7  600.90   21.22
  -4  -8   7  589.75   18.73
  -4  -8   7  581.92   22.28
  -4   8   7  586.90   15.28
  -3  -1 -11  244.72   23.77
   3   1  11  236.81   19.75
   3  -1  11  217.07   15.36
   3   1  11  254.34   23.84
  -3   1 -11  228.09   15.13
   3  -1  11  245.75   27.24
  -3   1 -11  235.27   26.02
  -3  -1 -11  285.74   29.71
   8   0   4   71.86   14.05
  -8   0  -4   66.55   12.70
  -8   0  -4   69.89   29.88
   8   0   4   75.91   18.79
  -9   3   1   30.59   15.44
   4   9  -2  567.03   34.97
   9  -3  -1   30.05    8.49
  -9  -3   1   24.59   23.89
   9   3  -1   20.61   25.97
   9   3  -1    6.71   23.49
  -9   3   1   32.38    8.02
  -4  -9   2  678.53   38.18
   4  -9  -2  578.33   28.13
  -9  -3   1   29.94   16.25
  -4  -9   2  599.30   32.06
   9  -3  -1   41.44   15.23
   4   9  -2  592.47   22.04
   4  -9  -2  642.13   24.68
  -3  -7  -7  280.35   21.07
   3  -7   7  283.31   32.06
   3  -7   7  310.13   18.09
   3   7   7  339.25   20.26
   3   7   7  292.33   22.92
  -3  -7  -7  246.75   20.16
  -6  -6  -4  194.01   21.82
  -5  -5  11 2246.02   60.01
   6  -6   4  201.05   35.35
   6  -6   4  210.38   19.20
  -5   5  11 2073.96   36.66
  -5   5  11 2106.68   40.60
   5  -5 -11 2116.17   28.88
  -6  -6  -4  197.98   33.35
   5  -5 -11 2129.59   32.83
  -5  -5  11 2153.24   52.98
   6   6   4  186.92   36.16
   6   6   4  241.11   21.23
  -7   1  -6 2929.35   54.29
   7  -1   6 3074.07   47.31
  -7  -1  -6 2926.10   48.36
   7   1   6 3043.39   51.53
   7  -1   6 3160.54   73.14
  -7  -1  -6 3033.16   54.46
   7   1   6 3143.30   72.35
  -7   1  -6 2884.96   53.85
   4   9  -1  306.65   20.37
  -4  -9   1  304.76   22.52
   4   9  -1  347.69   18.38
  -4  -9   1  358.90   19.13
   4  -9  -1  315.11   24.52
   4  -9  -1  322.50   33.07
   8  -5   0  185.50   21.43
  -8  -5   0  191.03   20.79
   8   5   0  203.66   22.30
  -8  -5   0  225.52   22.16
   8   5   0  203.00   29.97
   6  -7   2   56.90   31.42
  -6  -7  -2   75.77   17.93
   6   7   2   92.45   17.16
  -6  -7  -2   78.60   18.99
   6  -7   2   70.40   16.89
   6   7   2   55.47   18.79
  -5   1  -9   43.29   18.91
  -5  -1  -9   39.00   22.54
   5  -1   9   41.27   23.73
   5  -1   9   44.18   20.16
  -5   1  -9   50.45   14.58
  -7  -5   9 3136.36   57.69
  -5  -1  -9   47.33   14.58
  -7   5   9 3064.03   54.84
   7   5  -9 3127.66   74.00
   7   5  -9 3118.62   41.28
  -7   5   9 3015.48   50.58
   5   1   9   -4.06   22.66
   7  -5  -9 3081.22   46.11
   5   1   9   39.90   14.76
   7  -5  -9 3081.98   49.81
  -7  -5   9 3159.82   43.18
  -2  -8   8 1605.63   37.91
  -2  -8   8 1579.42   29.90
  -2  -8   8 1742.41   38.74
  -2   8   8 1697.56   32.40
  -2  -8   8 1601.68   26.18
  -2   8   8 1654.33   30.16
   2  -8  -8 1622.51   32.47
   2  -8  -8 1657.33   37.58
   9  -1   1 1041.85   34.73
  -9  -1  -1 1092.54   40.36
  -9  -1  -1 1056.13   48.04
   9  -1   1 1053.52   33.46
  -9   1  -1 1060.93   33.50
  -9   1  -1 1058.36   33.07
   9   1   1  983.85   28.79
   9   1   1 1105.92   32.84
   2  -7   8   12.58    9.72
   2   7   8   -2.16   10.97
   2  -7   8    6.31   11.18
  -2  -7  -8   -3.69   20.87
  -2  -7  -8  -23.46   20.24
   2   7   8   -0.20   12.84
   0   0 -13    0.86    9.28
   0   0  13   -8.26   20.06
   0   0  13   -4.31    7.75
   0   0 -13   -0.79    6.81
  -6   6   9  391.40   15.83
   6   6  -9  398.20   23.54
   6  -6  -9  346.53   20.52
  -6   6   9  378.09   21.17
  -6  -6   9  384.45   12.17
  -6  -6   9  404.11   24.60
   6  -6  -9  381.60   15.84
   6   6  -9  361.34   10.87
  -1  -8   8  843.56   29.90
   8   1   4  945.20   33.04
  -4   4  -9    2.79   18.86
  -1  -8   8  849.21   25.87
  -8  -1  -4  978.89   32.96
  -1  -8   8  860.32   32.40
   4  -4   9  -13.65   18.66
   1  -8  -8  892.54   30.90
  -8   1  -4  980.11   32.88
   4   4   9   -8.82   14.46
   4  -4   9    5.29   12.05
  -1  -8   8  814.92   16.90
  -1   8   8  863.03   34.67
   4   4   9  -13.03   11.43
  -8  -1  -4  975.20   26.77
   1  -8  -8  788.80   35.49
  -4  -4  -9  -22.03   12.88
   8   1   4  947.76   40.78
   8  -1   4  990.13   49.47
  -1   8   8  861.84   23.34
  -8   1  -4  923.23   22.86
  -4   4  -9   -7.57   11.39
   8  -1   4  977.62   33.82
  -6  -3  -7    5.18   10.25
   6   7  -7 1745.71   53.85
  -6   7   7 1665.50   30.85
   6  -7  -7 1690.35   40.66
   6  -7  -7 1719.05   45.62
   6  -3   7   -2.38   13.25
   6   3   7   44.95   14.35
  -6   3  -7    0.61    5.22
   6   7  -7 1647.90   28.22
  -6  -7   7 1720.95   39.50
   6   3   7   12.23   23.90
  -6   3  -7    1.39    9.86
   6  -3   7   -1.87   14.46
  -6  -7   7 1741.46   30.35
  -6   7   7 1676.56   28.24
  -6  -3  -7   -7.56    9.52
   2   9   4 2045.48   49.57
  -3   9   5   -4.01    4.92
   3   9  -5   10.63   14.05
   3   9  -5   17.22   16.02
  -2  -9  -4 2099.77   47.48
  -3  -9   5   -7.60    8.81
   2   9   4 2041.37   41.73
  -2  -9  -4 2090.68   59.83
   3  -9  -5    3.36    7.32
  -3   9   5   -6.50   11.11
   2  -9   4 1976.89   44.13
  -3  -9   5   15.61   16.30
   3  -9  -5    4.10   11.66
   2  -9   4 2174.29   55.43
  -8  -3  -3  534.25   38.04
   8  -3   3  469.43   27.90
   8   3   3  570.22   27.28
   8  -3   3  538.63   20.99
  -8   3  -3  544.70   27.79
   8   3   3  559.62   41.28
  -8   3  -3  549.99   14.16
  -8  -3  -3  537.17   27.85
  -5  -5  -7  280.69   33.93
   5   5   7  256.72   24.11
  -5   5  -7  215.30   20.62
   5   5   7  259.42   20.84
   5  -5   7  325.07   33.33
  -5  -5  -7  277.15   22.10
   5  -5   7  305.15   13.76
   4   9  -3   98.62   23.08
  -7  -3  11 1268.38   37.02
  -7   3  11 1231.46   28.49
  -4  -9   3  133.30   17.03
  -7  -3  11 1240.49   46.19
  -4  -9   3   94.12   23.92
   4   9  -3  119.59   15.69
   4  -9  -3  118.78   17.02
  -7   3  11 1253.72   31.64
   4  -9  -3  121.51   19.65
  -3  -4 -10    7.13   10.21
   3  -4  10   11.08    9.03
   3   4  10    3.91    9.10
   3   4  10   15.60   12.39
   3  -4  10   -8.44    6.84
   3  -4  10   -1.71    7.25
  -3  -4 -10    7.28   12.33
  -3   4 -10   -1.00    9.54
   8  -4   2 2716.58   38.47
   8   4   2 2873.26   53.96
  -8  -4  -2 2808.41   52.87
  -8   4  -2 2837.95   32.85
  -8   4  -2 2846.07   70.90
   8  -4   2 2811.96   53.93
  -8  -4  -2 2851.59   52.06
   8   4   2 2812.09   51.89
   5  -6 -10  178.20   10.80
  -5  -6  10  192.98   19.47
  -5  -6  10  161.50    8.27
  -5  -6  10  152.56    8.52
   5  -6 -10  148.36   11.78
  -5   6  10  158.61   15.03
  -5  -6  10  209.01   16.18
  -5   6  10  197.15   20.42
   1  -9   5  126.78   19.02
   1   9   5  147.54   14.51
   1   9   5  129.39   17.89
  -1  -9  -5  159.36   19.85
  -1  -9  -5  169.17   13.85
   1  -9   5  124.68   25.35
  -3   3  13   37.73   15.44
  -3  -3  13   59.03   16.85
  -3  -3  13   51.24   14.26
  -3   3  13   31.76   17.94
   5   8  -6 5073.49   74.05
   4   8   4 2169.24   58.03
   5  -8  -6 5128.00   88.67
   4  -8   4 2113.97   60.66
  -5  -8   6 5393.96   82.64
  -5  -8   6 5330.63   77.67
   5   8  -6 5216.46   69.55
   4  -8   4 2183.80   42.08
   5  -8  -6 5129.21   82.44
   4   8   4 2106.09   58.31
  -4  -8  -4 2136.49   45.73
  -4  -8  -4 2168.37   41.71
   4   9   0 1704.03   38.17
  -4  -9   0 1733.08   35.29
  -4  -9   0 1766.06   39.80
   4  -9   0 1747.37   59.46
   4   9   0 1713.44   46.71
   4  -9   0 1677.00   38.83
   0  -1 -13  516.66   35.89
   0  -1  13  454.70   15.57
   9   2  -8 2512.41   49.43
   9   2  -8 2433.04   38.55
   9  -2  -8 2506.74   33.40
   0  -1 -13  493.08   17.54
   0   1 -13  502.67   21.83
   0   1 -13  492.06   16.25
  -9  -2   8 2503.66   49.54
  -9  -2   8 2493.53   33.71
  -9   2   8 2439.70   38.89
   0   1  13  487.48   11.62
   9  -2  -8 2468.80   43.12
   0   1  13  474.93   24.03
   0  -1  13  486.81   22.53
  -9   2   8 2465.19   43.25
  -4   2 -10 1678.26   44.31
   4  -2  10 1721.02   33.04
  -4   2 -10 1669.75   30.68
   4   2  10 1655.79   53.88
  -4  -2 -10 1643.41   36.42
   4   2  10 1732.00   34.85
   4  -2  10 1762.37   48.01
  -4  -2 -10 1535.87   44.94
  -5  -8  -2  813.87   30.88
   5  -8   2  861.82   46.80
  -5  -8  -2  872.69   28.97
   5   8   2  825.09   28.99
   5  -8   2  836.65   29.01
   5   8   2  913.16   29.86
   4   7   6 1476.04   37.84
  -4  -7  -6 1579.08   38.76
  -2   3  13   42.22   15.04
  -2  -3  13   12.53   20.50
   4  -7   6 1371.41   32.72
  -2  -3  13    8.45   15.38
  -4  -7  -6 1474.80   50.36
   4  -7   6 1432.25   36.08
   2  -3 -13   28.75   23.59
   4   7   6 1474.94   35.98
  -6   3  12 1795.65   53.21
   1   3  12 2608.92   45.06
  -6  -3  12 1805.59   43.55
  -1  -3 -12 2658.63   63.33
   1  -3  12 2745.29   45.21
  -6   3  12 1735.34   35.14
   1   3  12 2648.47   49.83
  -1  -3 -12 2558.16   46.47
  -6  -3  12 1786.25   51.72
   1  -3  12 2681.08   57.73
   1  -3  12 2730.77   43.82
   1  -3  12 2731.84   41.43
   5   6   6  776.80   45.43
   5   6   6  712.45   27.60
   5  -6   6  686.31   28.54
  -5  -6  -6  669.40   28.38
  -5  -6  -6  765.45   28.81
   5  -6   6  738.98   25.43
  -7   0  12  706.66   25.89
  -7   0  12  664.58   28.90
  -2   0 -12  811.91   25.55
   0  -4 -12  174.91   11.82
   0  -4 -12  175.37   18.81
   0  -4  12  214.35   15.05
  -5   4  12 2753.63   46.15
  -2   0 -12  735.74   19.36
   0   4  12  199.94   10.99
   2   0  12  794.18   19.52
   0  -4  12  179.32    9.10
  -5   4  12 2762.23   64.82
   0  -4  12  173.98   16.37
   2   0  12  801.48   26.67
   0   4  12  177.08   19.96
  -5  -4  12 2729.52   47.57
  -5  -4  12 2677.21   52.46
   0  -4  12  178.33   10.08
   8  -5  -7  341.09   25.57
  -8   5   7  292.93   20.16
  -8  -5   7  343.90   21.83
  -8  -5   7  316.35   39.55
   8   5  -7  384.04   25.22
  -8   5   7  358.04   17.50
   8   5  -7  337.80   13.37
   8  -5  -7  338.97   14.73
   0 -10   0  556.32   11.67
   0  10   0  579.05   17.42
   0  10   0  580.45   37.30
   0 -10   0  534.80   25.81
  -9  -3   7   50.88   18.24
  -9  -3   7   47.42   15.05
   9   3  -7   47.29   18.13
   9  -3  -7   55.97   14.67
   9  -3  -7   47.10   10.87
  -9   3   7   34.77   18.70
  -9   3   7   36.63   15.08
   9   3  -7   39.95   14.20
  -5   2  13  764.84   38.32
  -5   2  13  680.58   29.46
  -5  -2  13  761.34   45.78
  -5  -2  13  690.45   26.15
  -3   8   8   18.83   11.05
  -3   8   8   25.22    9.30
  -3  -8   8   31.41    9.88
   3  -8  -8   42.31   18.00
  -3  -8   8   13.25    8.70
  -3  -8   8   32.84    9.64
   3  -8  -8   21.17    8.52
  -3  -8   8   14.05   11.42
  -1  -6 -10  493.51   20.19
   1   6  10  519.44   18.84
   7  -7  -3 1226.40   41.97
   1   6  10  496.99   37.89
   7   7  -3 1182.08   35.24
   7  -7  -3 1199.84   47.16
   1  -6  10  510.15   26.18
   7   7  -3 1141.88   28.16
  -1  -6 -10  474.95   22.98
   1  -6  10  485.00   19.90
   1  -6  10  542.57   22.33
   1  -6  10  466.14   15.99
  -7  -7   3 1242.98   31.44
  -7  -7   3 1120.72   50.88
  -1   9   6 4493.20   59.98
  -1   9   6 4511.98   79.85
  -1  -9   6 4528.53   61.29
  -1  -9   6 4305.23   66.49
   1  -9  -6 4480.35   81.97
  -1  -9   6 4506.68   76.08
  -1  -9   6 4416.96   56.07
   1  -9  -6 4479.47   57.42
   3  -2  11  918.60   24.68
  -3  -2 -11  876.79   28.83
   3  -2  11  919.32   24.60
  -3   2 -11  924.61   33.69
  -3   2 -11  928.57   23.55
  -3  -2 -11  893.13   33.84
   3   2  11  965.27   31.33
   3   2  11  990.34   24.14
   7  -7  -2  259.12   22.32
   0 -10  -1  136.58   30.80
   0 -10  -1  150.33    8.66
   7  -7  -2  301.38   19.72
   7   7  -2  262.57   23.15
   0  10  -1  156.52   18.58
   0 -10   1  149.89   29.42
   7   7  -2  263.79   18.73
   2  -6 -11  295.25   14.17
   2  -6 -11  343.28   28.60
  -7  -7   2  291.77   32.99
   0  10   1  157.15   18.60
  -2  -6  11  311.81   16.73
  -2  -6  11  284.57    9.73
  -2  -6  11  273.36   15.35
  -2   6  11  288.19   18.87
   0  10   1  129.65    9.09
  -2   6  11  304.80   12.94
  -7  -7   2  308.52   36.28
  -2  -6  11  315.70   27.84
  -9   4   4  498.33   17.58
  -9  -4   4  529.72   31.56
   9   4  -4  548.57   42.24
   9  -4  -4  495.26   22.20
   9  -4  -4  466.35   19.25
  -9  -4   4  545.27   27.90
   9   4  -4  444.09   29.33
  -9   4   4  486.03   14.23
   3  -9   3  943.19   43.04
  -3  -9  -3  930.99   25.34
   3  -9   3  932.80   32.44
  -3  -9  -3  994.05   47.22
   3   9   3  979.00   27.32
   3   9   3  945.56   30.70
   2   9  -6 1464.81   30.73
   2  -9  -6 1470.53   34.34
  -2   9   6 1449.10   32.75
  -2   9   6 1487.80   33.38
   2  -9  -6 1464.08   30.16
   2   9  -6 1527.42   26.28
  -2  -9   6 1544.31   42.57
  -2  -9   6 1532.63   27.52
  -5   4  -8  135.59    9.39
  -7   1  12  618.07   26.86
  -9  -4   3  677.24   35.93
   9   4  -3  660.78   23.42
  -9  -4   3  631.11   29.76
   5  -4   8  150.72   16.06
  -9   4   3  678.40   15.02
  -5  -4  -8  145.20   19.40
  -7  -1  12  575.32   44.65
  -7   1  12  639.61   23.83
   9  -4  -3  647.66   38.09
   9  -4  -3  652.15   15.37
   5  -4   8  129.27   29.31
  -7  -1  12  623.69   25.33
   5   4   8  122.95   17.52
   9   4  -3  621.84   44.98
  -5  -4  -8  122.03   18.70
  -5   4  -8  106.50   18.24
   5   4   8  105.27   20.62
  -9   4   3  633.27   26.19
   2   1  12  700.96   18.63
  -2  -1 -12  716.49   26.05
  -2   1 -12  718.52   23.85
   2   1  12  794.06   27.27
  -7  -2  -6  246.04   19.94
  -2   1 -12  697.28   26.44
  -2  -1 -12  707.13   19.46
  -7   2  -6  248.82   19.96
   2  -1  12  725.20   24.60
   2  -1  12  693.59   19.15
  -7  -2  -6  235.55   35.56
   7  -2   6  245.38   14.58
   7   2   6  226.01   22.23
  -7   2  -6  229.90   35.34
   7   2   6  212.61   20.84
   7  -2   6  238.15   22.36
   7   7  -4 1029.49   48.26
   7  -7  -4 1014.44   30.28
   7   6   2 2339.85   47.11
   7   7  -4 1009.78   36.70
  -7  -7   4 1099.83   51.56
   7  -6   2 2296.24   45.57
   7   6   2 2311.16   49.41
  -7  -7   4 1147.39   29.06
   7  -7  -4 1095.09   39.26
  -7  -6  -2 2322.34   64.84
  -7  -6  -2 2394.20   65.04
   7  -6   2 2410.87   67.00
   4  -9  -4    5.72   22.83
   4   9  -4   14.83   10.51
   4   9  -4   -0.21   10.89
  -4  -3  13  318.47   20.51
  -4  -9   4   -6.95   17.88
  -4   3  13  298.34   24.00
   4  -9  -4   14.55   19.88
  -4   3  13  315.33   32.34
  -4  -3  13  295.65   23.55
  -4  -9   4  -12.19   12.27
   3  -6 -11   27.66   11.39
  -3  -6  11    6.40    8.35
  -3  -6  11   29.34   10.57
  -3   6  11   22.46   11.88
   3  -6 -11   10.09   12.87
  -3  -6  11   29.82   20.58
  -9   0   9    1.74    5.12
  -3  -6  11    9.05    9.60
   9   0  -9   -0.53   12.11
  -9   0   9    4.94   12.14
   9   0  -9    2.62    4.97
  -3   6  11   23.46   11.73
  -1 -10   0 1218.14   48.63
   1  10   0 1235.72   33.26
   1 -10   0 1192.22   48.69
   1  10   0 1233.14   22.45
  -1 -10   0 1238.43   28.13
  -1  10   0 1200.36   33.02
  -5   2  -9    2.95   12.36
  -5  -2  -9    3.87   19.83
   5   2   9   -2.67   12.16
  -5   2  -9   14.81    9.03
  -5  -2  -9    1.72   12.49
   5  -2   9    2.96   15.32
   5   2   9   13.31   12.96
   5  -2   9    5.30   12.10
  -1  10   1  459.14   24.53
  -1 -10   1  531.37   24.80
   1 -10  -1  457.52   25.02
   6   0   8 2260.25   45.23
   1  10  -1  560.96   35.76
  -6   0  -8 2136.93   38.38
   1  10  -1  521.80   14.17
  -6   0  -8 2138.33   58.57
   6   0   8 2237.11   54.23
  -1 -10   1  496.15   19.75
   0   8   8 2353.51   53.34
   0  -8   8 2232.79   30.94
   0  -8   8 2263.38   40.47
   0  -8   8 2222.52   34.33
   0  -8  -8 2195.32   38.79
   0   8   8 2280.14   40.86
   0  -8   8 2292.26   46.88
   0  -8  -8 2241.20   41.76
   9  -2   1  174.63   20.72
  -9   2  -1  226.98   22.74
  -9  -2  -1  209.09   31.48
   9  -2   1  246.07   22.32
   9   2   1  218.56   21.66
  -9   2  -1  255.27   19.75
  -9  -2  -1  188.85   22.07
   9   2   1  192.09   20.05
   9   3   0  123.21   30.81
  -9   3   0  137.96   10.17
  -9   3   0  155.13   32.31
   9  -3   0  167.95   16.64
   9   3   0  135.90   20.05
   9  -3   0  192.34   20.81
  -9  -3   0  164.89   19.45
  -9  -3   0  134.51   30.71
   2  -4  11  150.62   13.76
   2  -4  11  189.78   11.32
   2   4  11  152.23   21.02
   2   4  11  170.36   14.18
   2  -4  11  149.99   13.32
   2  -4  11  160.58   21.35
  -2  -4 -11  150.45   30.17
  -2  -4 -11  130.02   14.21
   9   4  -5   12.60   14.39
  -9  -4   5    4.72    8.12
   9  -4  -5   -4.71   10.53
   9  -4  -5   13.17    8.86
  -9   4   5    4.14    7.92
  -9   4   5   -0.84    6.04
   9   4  -5   -2.74    9.05
  -9  -4   5  -14.06   12.67
  -8   2  -4 1865.74   30.48
   8  -2   4 1928.87   44.69
  -8  -2  -4 1908.18   39.24
   8   2   4 1900.86   44.56
   1  -7   9    7.20   10.71
   1  -7   9   13.84    9.44
   8   2   4 1910.87   56.19
  -1  -7  -9    5.14   10.88
   1  -7   9    2.73   10.50
  -1  -7  -9    2.56   18.51
   1  -7   9    1.92    8.96
   1   7   9   20.01   10.97
  -8  -2  -4 1904.69   43.52
   8  -2   4 1903.78   31.94
  -8   2  -4 1901.17   62.28
   1   7   9   17.51   13.44
  -8   0  11   -7.70   12.29
  -8   0  11    6.88   10.24
  -6  -8   2  117.91   19.02
   6  -8  -2  156.06   17.39
   6   8  -2  126.91   30.34
   6   8  -2   96.67   16.56
  -6  -8   2  109.60   17.93
   6  -8  -2  111.24   20.03
   4  -9   1  312.42   24.42
   4   9   1  251.62   29.61
   4  -9   1  301.37   33.16
  -4  -9  -1  276.98   23.19
   4   9   1  277.59   21.28
  -4  -9  -1  262.75   18.44
   6   8  -3  192.45   31.16
   6  -8  -3  173.47   28.11
   6  -8  -3  173.33   32.69
   6   8  -3  160.43   16.61
  -6  -8   3  243.89   20.29
  -6  -8   3  186.38   18.90
   1  -5  11  113.20    9.73
  -1  -5 -11   91.59   20.32
   1   5  11   91.93   12.23
  -1  -5 -11  103.17   17.75
   1   5  11  127.13   29.76
   1  -5  11  100.73   12.36
   1  -5  11   89.38   11.51
   1  -5  11  111.79   17.61
   8   4  -9  164.17    7.79
   8  -4  -9  195.71   17.06
   8   4  -9  163.20   34.74
  -8   4   9  190.73   19.48
   0  -9   6   18.52   13.71
   0   9   6   13.95   13.51
  -8   4   9  144.96   14.34
   0  -9   6   14.77   11.86
   0  -9  -6    5.09    8.60
   0   9   6   27.51   16.86
  -8  -4   9  168.30   22.43
   8  -4  -9  151.04    9.36
   0  -9  -6    8.93   12.73
  -2  -5  12  313.35   17.54
  -3  -5  12  498.05   23.19
  -3   5  12  500.46   22.21
   2  -5 -12  338.67   12.42
   2  -5 -12  275.84   20.20
  -2   5  12  327.74   11.54
   3  -5 -12  499.25   21.48
  -3  -5  12  469.40   20.05
   3  -5 -12  512.63   18.60
  -2   5  12  305.99   21.11
  -2  -5  12  328.04   20.06
  -3   5  12  486.17   12.34
  -9  -1   9 1145.47   50.07
   9  -1  -9 1163.77   22.69
   9  -1  -9 1188.01   24.86
  -9   1   9 1216.47   44.43
   9   1  -9 1153.58   17.74
   9   1  -9 1225.63   48.56
  -9   1   9 1143.40   38.38
   7   7  -1   75.77   19.27
  -7  -7   1   81.54   30.97
   7  -7  -1   78.50   30.18
   7   7  -1   68.13   25.74
  -7  -7   1   84.54   17.85
   7  -7  -1   79.49   26.16
   9   4  -2 4700.23   94.74
   9  -4  -2 4627.41   54.68
  -9  -4   2 4801.90   85.47
  -1 -10  -1  758.00   24.26
  -9   4   2 4710.04   59.63
   1  10   1  718.02   39.92
   1  10   1  718.15   17.49
  -9   4   2 4729.76   73.67
  -9  -4   2 4787.29   76.17
  -1 -10  -1  685.55   28.59
   9   4  -2 4627.19   83.05
   1 -10   1  707.50   27.34
   9  -4  -2 4643.33   88.68
  -6   1  -8  481.87   25.15
  -8   3  10   11.95   15.28
   8  -3 -10    3.24    8.18
   6  -1   8  545.20   31.60
  -6   1  -8  532.75   18.97
   8   3 -10    7.57   14.35
  -6  -1  -8  525.22   25.46
   6   1   8  593.84   38.26
   8  -3 -10    1.94    6.97
  -8   3  10    9.89   11.63
   6   1   8  626.41   26.66
  -8  -3  10  -20.32   25.68
   6  -1   8  575.48   26.19
  -6  -1  -8  527.48   22.41
   0  10  -2 1122.70   31.22
   0 -10  -2 1147.50   33.84
   2  -7 -10  351.69   16.62
  -2  -7  10  450.68   13.50
  -2  -7  10  405.86   22.11
   2  -7 -10  425.63   18.74
  -2  -7  10  437.01   21.82
  -2   7  10  414.25   24.47
  -2  -7  10  435.77   18.31
   0  10   2 1126.45   32.55
   0 -10  -2 1181.72   25.68
  -2   7  10  428.66   29.68
   0 -10   2 1174.19   32.60
   0  10   2 1166.42   20.63
  -1   6  11 1209.27   24.08
  -1  -6  11 1219.38   33.03
  -1  -6  11 1224.60   22.25
   1  -6 -11 1294.48   31.57
   1  -6 -11 1208.42   34.23
  -1   6  11 1236.54   32.37
  -1  -6  11 1255.62   20.58
  -1  -6  11 1166.44   27.28
  -1   3  13   40.87    6.51
  -8  -5  -1  145.82   21.00
   8   5   1  149.85   21.42
   1  -3 -13   62.89   16.39
  -1   3  13   60.08   16.36
  -8   5  -1  138.32   21.56
  -1  -3  13   68.76   13.46
  -1  -3  13    0.53   25.52
  -8  -5  -1  127.06   32.63
  -6   0  13   11.50   15.35
   8   5   1  123.94   30.38
   8  -5   1  113.96   20.97
  -6   0  13   -5.98   11.13
   1  -3 -13   49.09   11.48
   0  -2 -13   65.60   16.33
   0  -2 -13   50.15    7.92
   0   2  13   61.24   16.65
   0   2  13   45.50   11.13
   0  -2  13   50.13   13.67
   0  -2  13   -0.93   15.92
  -1  10   2  104.89   17.65
   1  10  -2  126.28    9.11
   1  10  -2  126.72   27.21
  -1 -10   2   80.98    8.60
   1 -10  -2   89.15   18.92
  -1 -10   2  114.56   27.74
   7   6  -8 5117.05   68.25
  -7   6   8 5160.25   68.64
   7  -6  -8 5218.76   75.04
  -7  -6   8 5309.15   82.97
  -7  -6   8 5333.19   65.16
   7  -6  -8 5162.07   79.11
   7   6  -8 5310.18   81.32
  -7   6   8 5219.38   65.16
  -8  -1  11  100.91   16.66
  -8   1  11   83.92   15.61
  -8   1  11   84.02   29.76
  -8  -1  11   86.19   31.88
   6  -8  -1 1554.38   50.53
   6  -8  -1 1567.55   40.66
  -7  -7   5 1089.96   27.55
   7  -7  -5 1024.21   29.28
  -6  -8   1 1679.98   53.84
   6   8  -1 1622.84   48.72
   7  -7  -5 1008.26   26.57
  -7  -7   5 1029.93   50.79
  -6  -8   1 1620.92   38.73
   7   7  -5 1027.66   34.40
   7   7  -5 1056.39   48.62
   6   8  -1 1615.73   38.75
   8  -6  -3   79.03   17.09
   8  -6  -3   74.05   23.89
   8   6  -3   56.31   22.77
   8   6  -3   76.01   20.16
  -8  -6   3   91.00   20.27
  -8  -6   3   80.62   15.97
   6   8  -4  922.35   30.08
   6   8  -4  891.22   25.14
   6  -8  -4  863.15   38.78
   6  -8  -4  898.17   30.21
  -6  -8   4  948.39   27.79
  -6  -8   4  958.32   30.86
   8  -6  -4  535.46   36.13
   8   6  -4  490.16   42.07
  -8  -6   4  553.22   21.71
   8  -6  -4  557.37   30.98
  -8  -6   4  510.19   28.96
   8   6  -4  453.05   19.91
  -7  -4  -5   85.32   29.46
   7  -4   5   93.22    8.23
  -7  -4  -5  104.33   20.08
  -7   4  -5   92.88    7.38
   7   4   5  102.39   18.96
   7  -4   5   76.48   20.39
  -7   4  -5   99.23   20.12
   7   4   5   82.37   20.39
  -3   7  10  545.29   16.97
  -3  -7  10  536.29   26.30
  -3  -7  10  561.67   21.70
   3  -7 -10  568.07   18.85
  -3  -7  10  535.70   14.19
   3  -7 -10  487.10   25.20
  -3  -7  10  530.30   15.56
  -3   7  10  552.10   29.28
   5  -7  -9   93.01   19.00
  -5   7   9  143.18   19.95
  -5  -7   9  159.78   18.83
   5  -7  -9   86.17   21.34
  -5   7   9  138.35   11.73
  -5  -7   9  147.40   10.40
   5   7  -9  123.36   17.31
   5   7  -9  146.47   14.65
   9   0   2    2.68   11.01
  -9   0  -2   10.71   18.06
  -9   0  -2   19.64   16.23
   9   0   2   11.87   15.11
  -6  -1  13   88.02   20.34
  -6  -1  13   87.48   17.26
  -6   1  13  123.99   27.29
  -6   1  13   82.02   31.69
  -7  -5  -4  798.93   46.19
   7  -5   4  817.60   32.21
  -7   5  -4  905.99   32.43
  -7  -5  -4  868.31   32.35
   7   5   4  899.50   30.86
   7   5   4  799.04   32.21
  -1  -7  10  951.35   26.48
   3  -9  -6  215.13   14.00
  -3   9   6  231.47   15.99
  -3   9   6  217.21   17.90
   3   9  -6  198.16   15.46
  -3  -9   6  227.33   15.52
   3  -9  -6  252.72   18.74
  -1  -7  10  975.62   21.40
   1  -7 -10  914.71   33.51
  -1  -7  10  976.27   31.45
  -1   7  10  994.08   40.41
   3   9  -6  234.73   22.18
  -1  -7  10  949.03   27.23
  -3  -9   6  262.51   25.68
   1  -7 -10  973.89   37.47
  -1   7  10  917.12   32.70
  -9   4   6  118.57   14.78
   8  -6  -2  183.67   20.80
  -8  -6   2  187.17   36.88
   8  -6  -2  173.84   17.74
  -9   4   6  112.64   11.36
   9  -4  -6  112.64   14.59
   8   6  -2  170.82   18.15
  -9  -4   6  119.32   13.11
   9  -4  -6   82.89   12.29
   8   6  -2  206.81   22.84
   9   4  -6  110.63   20.79
  -9  -4   6  142.78   21.55
   9   4  -6  128.66   12.21
  -8  -6   2  198.59   19.39
   2   8   7  303.68   19.98
   2   8   7  291.83   21.18
  -2  -8  -7  298.07   22.14
  -2  -8  -7  289.28   19.12
   2  -8   7  306.87   28.03
   2  -8   7  296.41   31.67
  -4  -6  11  413.51   22.45
  -4  -6  11  365.40   29.63
   3   8   6 1509.99   36.08
  -3  -8  -6 1460.75   47.32
  -3  -8  -6 1423.20   37.64
   3  -8   6 1475.71   36.91
   3  -8   6 1561.03   47.29
  -4   6  11  420.54   20.47
   4  -6 -11  371.77   21.42
  -4   6  11  399.54   18.70
   3   8   6 1560.36   51.41
   4  -6 -11  418.68   13.48
  -7   2  12   98.83   18.65
  -7  -2  12  130.87   34.56
  -7   2  12   98.64   16.18
  -2   2 -12 2450.98   41.85
  -2  -2 -12 2452.85   38.71
  -6  -7  -3   63.64   18.11
   2   2  12 2545.37   65.56
  -2  -2 -12 2521.70   46.97
  -6  -7  -3   47.59   18.82
   6  -7   3   58.33   18.95
   6   7   3   65.52   18.80
   2   2  12 2524.43   47.47
   6   7   3   58.37   17.84
  -2   2 -12 2499.03   46.43
   2  -2  12 2591.16   39.17
   6  -7   3   56.21   26.42
   2  -2  12 2623.50   56.39
   5   7   5 1030.91   31.57
  -5  -7  -5 1021.24   50.10
  -5  -7  -5 1040.08   31.60
   5  -7   5 1045.86   33.45
   5  -7   5 1003.32   42.75
   5   7   5  969.02   33.75
   2 -10  -1 1710.22   43.08
  -2 -10   1 1648.40   28.60
   2 -10  -1 1712.72   39.77
   2  10  -1 1612.67   36.84
   2  10  -1 1662.46   37.79
  -2 -10   1 1748.43   53.80
  -6  -5  -6  754.78   29.71
   6   5   6  720.66   28.45
   6   5   6  731.91   31.40
   6  -5   6  644.31   29.42
  -6  -5  -6  772.57   30.90
  -6   5  -6  750.02   29.63
   4   9  -5  141.00   24.10
   4  -9  -5  178.72   19.95
   4  -9  -5  144.66   27.32
  -4  -9   5   93.75   25.09
   4   9  -5  161.82   15.37
  -4  -9   5  144.37   24.67
  -4   8   8  790.23   27.49
   4   8  -8  734.84   26.81
   4  -8  -8  784.91   22.46
   4   8  -8  740.65   34.30
   4  -8  -8  742.65   24.78
  -1  -5  12 2368.33   53.76
  -4  -8   8  849.38   20.88
  -1  -5  12 2289.08   34.37
  -4  -5  12  385.84   23.73
  -1   5  12 2381.60   46.52
   1  -5 -12 2434.58   43.30
  -1   5  12 2306.03   33.38
  -4  -5  12  375.36   20.21
  -1  -5  12 2386.71   39.27
  -4  -8   8  854.49   26.02
  -1  -5  12 2250.64   36.59
  -4   8   8  816.70   25.40
  -4   5  12  414.10   31.03
  -4   5  12  323.21   34.83
   1  -5 -12 2418.72   45.68
   4  -5 -12  357.80   10.91
   4  -5 -12  378.76   16.67
  -9  -1  -2 1948.98   39.00
  -9  -1  -2 2109.76   63.00
   9  -1   2 2050.64   64.42
   9   1   2 2100.55   46.40
  -9   1  -2 1981.94   35.01
  -9   1  -2 2069.48   45.79
   9  -1   2 2033.41   46.96
   9   1   2 2029.38   53.74
  -5  -8   7  349.05   25.05
  -1 -10  -2   80.80   16.38
  -1 -10  -2   95.77   19.48
   5  -8  -7  307.67   26.70
   5   8  -7  276.63   22.75
   5  -8  -7  348.96   30.86
   1  10   2   98.50   18.25
  -5   8   7  334.70   15.69
   5   8  -7  337.53   20.30
   1  10   2   95.86   11.22
   1 -10   2   99.47   28.28
  -5   8   7  338.76   17.16
   1 -10   2   80.54   20.40
  -5  -8   7  328.77   21.27
 -10   0   4 1431.31   33.91
 -10   0   4 1449.01   44.61
  10   0  -4 1400.12   33.09
  10   0  -4 1398.77   43.93
  -9   3   8 1295.01   34.49
  -9  -3   8 1326.97   55.71
   9   3  -8 1332.39   22.33
  -3   0  14  627.63   39.81
   9   3  -8 1386.36   55.09
   9  -3  -8 1301.39   23.17
   9  -3  -8 1307.95   33.04
  -3   0  14  621.31   30.09
  -9  -3   8 1349.68   29.67
  -9   3   8 1298.41   29.22
   6   7  -8 2588.35   36.73
   6  -7  -8 2545.47   40.13
  -6  -7   8 2734.14   47.73
  -6   7   8 2635.00   35.42
  -6  -7   8 2742.05   51.94
  -6   7   8 2643.08   37.27
   6  -7  -8 2688.23   55.28
   6   7  -8 2648.19   50.25
   2 -10   0  375.16   41.74
   2  10   0  355.64   35.16
   8   6  -5   59.14   30.63
  -2 -10   0  421.83   24.11
   4  -3  10   97.76   16.11
  -4   3 -10  145.35   15.91
   4   3  10  138.29   25.59
   2 -10   0  372.42   23.71
  -4   3 -10  122.46   12.39
   4   3  10  129.69   20.92
  -4  -3 -10  145.94   18.52
  -8  -6   5   58.41   13.34
   8   6  -5   52.46   12.08
   8  -6  -5    1.25   23.90
   8  -6  -5   66.83   12.56
  -4  -3 -10  116.57   16.34
  -8  -6   5   65.15   19.72
   2  10   0  402.59   15.93
  -2 -10   0  372.10   15.47
   4  -3  10  156.98   13.38
  -9   4   1   60.63   27.84
  -9  -4   1   60.29   18.46
  -9  -4   1   50.20   25.73
   9  -4  -1   69.69   18.78
   9   4  -1   82.11   31.08
   9   4  -1   73.44   16.81
  -9   4   1   38.85    6.99
   8  -5  -8   -3.93   12.05
   2   9   5  312.86   33.02
   8   5  -8   20.97   15.34
   2   9   5  282.41   28.92
   8  -5  -8    9.63   14.17
  -2  -9  -5  243.01   26.33
  -8  -5   8   -3.90   10.42
   2  -9   5  241.44   22.29
   8   5  -8    4.75   10.34
  -8   5   8    5.59    6.30
  -8  -5   8  -17.93   14.04
   2  -9   5  247.04   19.57
  -2  -9  -5  213.24   22.06
  -8   5   8   -5.31    7.29
  -7  -7   0   51.46   30.44
   7  -7   0   88.53   16.76
 -10   0   5    0.73    8.54
   5   8   3  469.79   25.84
   5  -8   3  410.45   26.78
 -10   0   5   -4.31   16.22
   7  -7   0   74.15   19.25
   5  -8   3  494.73   36.54
  10   0  -5   -5.58   11.95
  -5  -8  -3  474.60   27.37
  10   0  -5   -3.67   10.03
  -5  -8  -3  545.95   37.95
   7   7   0   57.08   19.81
   5   8   3  480.81   25.45
   7   7   0   72.30   16.61
  -7  -7   0   63.49   18.35
   1  10  -3  350.40   17.52
   1 -10  -3  409.08   36.78
   1 -10  -3  335.49   10.59
  -1  10   3  363.64   16.69
  -1 -10   3  350.48   21.97
  -1 -10   3  344.19   11.65
   1  10  -3  390.08   21.49
  -1  10   3  354.97   22.78
   2  10  -2 1008.97   29.92
  -2 -10   2 1088.08   22.17
  -2  10   2 1022.90   31.47
  -2 -10   2 1049.43   31.68
   2  10  -2 1045.43   30.59
   2 -10  -2 1042.79   46.20
  -5   3  13 1476.66   38.20
  -5  -3  13 1472.99   56.36
  -5   3  13 1441.08   47.58
  -5  -3  13 1444.13   49.33
  10   0  -3    0.52   10.95
   9  -2  -9  147.73    8.70
  10   0  -3    5.26   11.48
 -10   0   3   -7.68   12.75
  -6  -8   0 1530.93   38.82
  -9   2   9  157.68   17.69
   6   8   0 1508.71   36.04
  -6  -8   0 1536.41   38.51
  -9   2   9  176.15   14.67
 -10   0   3  -13.33   12.33
  -9  -2   9  196.01   22.01
   9   2  -9  162.22   21.45
   6  -8   0 1424.43   39.48
   6  -8   0 1387.76   36.15
   9  -2  -9  160.97   15.76
   6   8   0 1420.47   37.24
  -6  -5  11   33.46   28.09
  -6   5  11   36.31   11.02
   6  -5 -11   33.44    7.42
   6  -5 -11   32.80    6.67
  -6   5  11   23.49   12.99
  -6  -5  11   31.56   23.04
   0 -10   3  746.37   40.25
  -6  -2  -8  159.52   28.93
   0  10   3  761.20   27.98
  -6   2  -8  140.67   30.80
  -6  -2  -8  193.81   31.45
   6   2   8  135.52   20.30
   0 -10   3  741.52   30.15
   6   2   8  174.77   19.36
   0 -10  -3  757.11   29.29
   0  10   3  745.34   18.14
   6  -2   8  140.88   19.97
   0 -10  -3  784.64   23.59
   6  -2   8  140.02   22.69
  -6   2  -8  146.55   20.27
  -4  -9  -2  438.30   39.66
  -6  -8   5   19.86   15.94
   6  -8  -5    3.10   14.47
   4  -9   2  307.86   26.24
   4  -9   2  355.44   22.39
   6   8  -5   45.88   14.50
   4   9   2  330.49   20.99
  -4  -9  -2  349.20   20.64
   4   9   2  353.52   35.44
  -6  -8   5   45.60   20.61
   6   8  -5   -0.19   11.10
   6  -8  -5   38.91   19.70
 -10  -1   4  515.75   24.82
 -10   1   4  490.23   21.89
  10  -1  -4  505.71   23.21
  10   1  -4  544.78   24.84
  10  -1  -4  523.87   21.28
 -10  -1   4  461.77   21.36
 -10   1   4  513.19   21.38
  10   1  -4  517.64   22.07
  -2   0  14 1042.54   31.91
  -2   0  14 1105.87   35.41
  -3   1  14  192.14   32.30
  -3   1  14  223.56   24.02
   3  -3  11  101.93   22.78
  -3  -3 -11  129.29   19.06
  -3   3 -11  142.02   14.27
  -3  -3 -11  163.23   14.96
   3   3  11  128.46   33.53
   3  -3  11  157.30   13.81
  -3  -1  14  221.93   22.44
   3   3  11   95.69   22.94
  -3   3 -11  104.08   12.84
  -3  -1  14  167.32   19.75
   6   4   7   16.47   15.93
   6  -4   7    4.47   15.06
   6  -4   7    8.44   11.45
  -6   4  -7   10.64   10.02
  -6   4  -7    6.17   23.12
   6   4   7   17.99   23.00
  -6  -4  -7    1.02   14.28
  -6  -4  -7   23.78   23.53
  -8  -2  11 2338.64   50.47
  -8   2  11 2323.62   41.82
  -8   2  11 2375.55   46.97
  -8  -2  11 2359.47   60.54
   8   4   3    1.77   14.82
   8  -4   3   12.75   15.86
  -8  -4  -3   -2.45   12.26
  -8  -4  -3    6.55   19.03
  -8   4  -3   -3.10   20.41
   8   4   3    7.84   24.94
  -7  -4  11 1135.16   31.90
  -7   4  11 1094.66   26.17
  -7   4  11 1057.37   41.26
  -7  -4  11 1225.60   53.77
  -8  -6   1 1217.13   34.59
   1   0  13    7.00    9.62
  -8  -6   1 1272.73   54.45
   1   0  13   -1.88    4.94
   8  -6  -1 1239.94   50.91
   8   6  -1 1217.11   37.24
  -4   0  14 1234.15   37.91
   8  -6  -1 1260.16   44.84
   8   6  -1 1220.28   45.89
  -1   0 -13   -3.43   11.41
  -1   0 -13    7.30   10.40
  -4   0  14 1222.14   48.31
  -7  -3  -6  309.87   22.91
  -7   3  -6  353.02   25.19
  -7  -3  -6  361.66   25.68
   7  -5 -10 5333.47   68.00
   7  -5 -10 5320.04   64.74
   7   3   6  389.51   38.34
  -7   3  -6  367.36   19.37
  -7  -5  10 5465.89   85.78
   7   5 -10 5431.47   84.18
  -7   5  10 5167.57   68.38
  -7   5  10 5263.78   73.29
   7  -3   6  337.22   21.42
   7  -3   6  367.33   25.40
   7   3   6  361.38   24.82
  10   1  -5   34.14   19.36
   6   6   5  226.66   24.25
  10  -1  -5   43.02   13.21
  -6  -6  -5  159.61   35.60
  10  -1  -5   22.70   12.86
 -10   1   5   38.17   21.83
 -10   1   5   41.02   13.24
  10   1  -5   34.65   15.83
 -10  -1   5   33.16   20.42
   6   6   5  195.05   22.22
   7   7  -6  547.06   26.70
   7  -7  -6  477.66   19.82
  -6  -6  -5  198.23   21.84
 -10  -1   5   54.45   16.31
   6  -6   5  214.63   23.24
   7  -7  -6  486.76   22.30
  -7  -7   6  554.20   20.50
   6  -6   5  205.50   31.28
  -7  -7   6  593.05   42.79
   7   7  -6  515.93   26.81
   1   9   6   38.53   12.61
  -1  -9  -6   39.91   25.84
   1  -9   6   22.37   21.56
   1  -9   6   26.09   15.52
  -1  -9  -6   31.36   18.81
   1   9   6   26.54   23.77
   2 -10   1  967.74   34.91
  -2 -10  -1 1070.37   32.54
   2 -10   1 1095.44   31.97
  -2 -10  -1 1076.92   33.31
   2  10   1  986.32   32.55
   2  10   1 1036.54   32.31
 -10  -1   3  665.88   26.02
  10  -1  -3  599.32   21.91
  10   1  -3  644.67   24.56
 -10   1   3  682.35   25.47
 -10  -1   3  613.64   24.46
  10   1  -3  586.41   25.82
 -10   1   3  650.49   32.96
  10  -1  -3  599.36   25.62
   5  -3   9    0.99   17.50
  -5  -3  -9   19.40   13.56
   5  -3   9    5.00   11.91
  -5   3  -9    1.22   13.07
   5   3   9  -11.45   20.33
  -5  -3  -9   20.80   22.59
  -5   3  -9   -5.28   20.57
   5   3   9    0.43   10.82
  -3  -4  13  134.03   26.49
  -3   4  13  126.70   18.66
  -3  -4  13  166.54   20.04
   1   8   8 5076.30   88.73
  -1  -8  -8 5026.01   74.90
   1  -8   8 5060.90   69.78
  -1  -8  -8 5038.73   72.60
   1  -8   8 4991.77   73.14
   1   8   8 4925.86   84.87
  -3  -6  -9 2147.14   44.66
   3  -6   9 2160.11   54.81
  -3  -9  -4  142.98   20.87
  -3  -6  -9 2128.10   56.35
   3  -6   9 2125.38   38.02
   9   3   1   73.29   18.87
  -9   3  -1   85.48   19.44
   3  -6   9 2133.42   30.00
   3   6   9 2242.42   54.18
   3   9   4  178.64   20.01
   3  -9   4  138.07   18.10
  -3  -9  -4  111.16   16.05
   3   6   9 2245.68   47.99
  -9  -3  -1   88.30   18.48
   3  -6   9 2199.12   34.67
   3  -9   4  140.12   21.12
  -9  -3  -1   67.15   28.82
   3   9   4  151.08   17.89
   9  -3   1   84.64   31.44
  -9   3  -1   56.10    8.92
   9  -3   1   75.45   15.20
   9   3   1   75.99   18.55
  -4  -8  -5  216.20   35.70
   4   8   5  207.55   22.13
  -4  -8  -5  182.43   19.80
   4  -8   5  200.58   35.75
   4   8   5  234.18   21.43
   4  -8   5  229.68   20.01
  -6  -2  13   21.57   17.59
  -2  -1  14 1015.74   30.02
  -6   2  13   15.21   22.53
  -6   2  13   10.70   16.48
  -2  -1  14  962.08   50.01
  -2   1  14  945.88   31.29
  -2   1  14 1048.43   35.24
  -6  -2  13   40.40   15.01
  -4  -7  10  121.74   17.04
   4  -7 -10  152.93   13.63
  -4   7  10   97.07   14.54
  -4   7  10  104.68   20.73
  -4  -7  10  120.86   14.03
  -4  -7  10  126.98    9.35
  -4  -7  10  111.04   15.86
   4  -7 -10  125.76   12.09
   0  -6  11  418.70   17.28
   0  -6  11  434.05   15.27
   0  -6 -11  446.85   19.07
   0  -6  11  451.53   19.97
   0   6  11  407.33   37.09
   0  -6  11  426.07   15.25
   0   6  11  421.80   16.81
   0  -6 -11  458.30   23.52
 -10   0   6  224.59   31.10
  10   0  -6  214.50   19.60
  10   0  -6  225.74   23.59
 -10   0   6  233.21   15.39
  -8  -3  -4 4124.44   66.04
   8   3   4 4042.80   69.23
  -8   3  -4 4074.64   70.88
   8  -3   4 4063.44   70.64
  -8  -3  -4 4060.42   88.19
  -8   3  -4 4039.84   56.44
   8   3   4 4154.93   84.62
   8  -3   4 4038.95   58.85
  -2   4  13  762.07   28.43
  -8   0  -5  -10.84   23.44
  -8   0  -5   -2.37   10.18
   8   0   5   13.91   15.47
   2  -4 -13  764.25   27.94
   8   0   5    1.19   11.45
  -2  -4  13  788.25   28.36
  -2  -4  13  747.44   24.90
  -1  -4 -12  209.72   14.04
  -6  -4  12  298.21   24.58
   1   4  12  183.44   34.42
   1  -4  12  203.35   16.50
   1  -4  12  164.36   19.06
   1  -4  12  180.27   14.90
  -6   4  12  329.06   21.09
  -1  -4 -12  196.82   20.80
   1   4  12  179.22   12.91
   1  -4  12  195.30   16.35
  -6   4  12  335.45   18.52
  -6  -4  12  284.84   21.69
  -6   6  10   21.55    9.65
   6  -6 -10   26.58   12.87
  -6  -6  10   29.21   16.11
  -4  -6  -8  368.84   23.42
  -6   6  10   18.56   17.63
   6   6 -10   24.16   15.55
   4   6   8  431.02   41.84
   6  -6 -10    6.40   14.53
  -4  -6  -8  380.26   37.61
   4   6   8  419.78   34.32
   4  -6   8  365.10   19.73
   4  -6   8  451.71   35.26
  -1   1 -13   65.82    9.07
  -4   1  14  768.53   28.01
   1   1  13   51.87    8.88
   1  -1  13   68.30    8.91
   1  -1  13   84.15   24.66
  -1   1 -13   71.63   15.16
  -4  -1  14  756.97   28.09
  -4   1  14  695.86   48.02
  -4  -1  14  775.76   31.89
  -1  -1 -13   80.58   26.93
   1   1  13   90.25   27.95
  -1  -1 -13   71.38   14.87
  10   0  -2  317.44   19.90
  10   0  -2  299.51   22.38
 -10   0   2  236.57   21.27
  -2 -10   3 1419.07   33.70
   2  10  -3 1377.31   32.64
  -2 -10   3 1444.22   35.35
   2 -10  -3 1267.44   35.48
   2  10  -3 1319.61   33.11
 -10   0   2  271.12   29.35
  -2  10   3 1334.15   35.80
  -9   4   7  166.02   17.48
   9   4  -7  170.61   23.68
  -9  -4   7  189.96   12.87
   9  -4  -7  198.01   23.03
   9  -4  -7  198.07   12.96
  -9   4   7  191.12   21.11
   9   4  -7  189.23   18.87
  -9  -4   7  155.67   23.77
  -5  -9   2 1607.10   49.57
  -5  -9   2 1587.52   38.29
   5   9  -2 1568.15   48.88
   5  -9  -2 1485.80   41.14
   5   9  -2 1582.43   36.70
   5  -9  -2 1552.74   37.22
   7  -6   3  753.65   42.35
   7   6   3  795.09   32.56
  -7  -6  -3  793.88   32.03
  -8  -6   6   16.82   10.29
  -7  -6  -3  737.45   46.59
   7   6   3  695.77   30.58
   8   6  -6   22.24   25.24
   8  -6  -6   -0.07   11.45
  -2   8   9   11.48   15.37
  -8  -6   6    3.05   16.73
   2  -8  -9   -1.11    7.72
  -2  -8   9    3.72   12.94
  -2  -8   9    7.35   13.66
   7  -6   3  726.65   32.35
  -2  -8   9    3.45   11.51
  -2   8   9   -1.68    9.77
  -2  -8   9    6.77    8.94
   2  -8  -9    1.09   14.00
   8   6  -6   10.30    9.05
   8  -6  -6    8.95    9.56
   0  -7 -10 1635.47   35.51
   0   7  10 1576.47   50.76
   0   7  10 1573.15   31.48
   0  -7  10 1569.76   25.51
   0  -7  10 1552.63   35.40
   0  -7 -10 1593.77   33.06
   0  -7  10 1516.75   29.55
   0  -7  10 1560.25   35.28
  -9   2  -2  500.55   16.47
   1  -9  -7  737.07   28.14
   1  -9  -7  726.07   38.12
   9   2   2  501.80   25.28
  -9  -2  -2  447.09   23.93
   9  -2   2  487.55   28.16
  -1  -9   7  721.95   24.28
  -1   9   7  711.55   36.68
   9   2   2  478.04   27.14
  -9   2  -2  472.40   27.29
  -1  -9   7  719.13   16.94
  -9  -2  -2  452.40   26.92
  -1  -9   7  697.89   15.09
  -1  -9   7  752.28   33.39
   9  -2   2  442.39   25.63
  -1   9   7  717.59   21.31
  -2  -9   7  266.13   27.63
  -2  -9   7  249.93   17.54
   2  -9  -7  268.93   19.14
   2  -9  -7  256.64   19.08
  -2  -9   7  261.21   16.70
  -2  -9   7  259.89   14.34
  -2   9   7  279.26   21.11
  -2   9   7  261.62   18.74
   0  -3  13   19.11   11.79
   0  -3 -13    7.50   11.69
   0   3  13   12.40   24.03
   0  -3 -13   18.67   14.41
   0  -3  13   -1.73   21.33
   0   3  13    7.83    6.82
  10  -1  -6 2194.46   41.40
 -10  -1   6 2290.93   61.64
  10   1  -6 2153.63   36.34
 -10   1   6 2171.30   54.38
  10  -1  -6 2150.97   49.20
  10   1  -6 2249.66   45.97
 -10   1   6 2210.96   48.86
 -10  -1   6 2145.53   47.10
  -4  -5  -9  123.87   33.13
   4  -5   9  131.63   10.69
   4  -5   9  137.94   24.43
  -4  -5  -9  203.04   18.95
   4  -5   9  127.37   27.72
   4   5   9  130.38   35.06
   4  -5   9  135.29   10.04
   4   5   9  171.69   18.09
  -8   1  -5  164.82   21.79
  -5  -9   3   66.37   16.45
   5  -9  -3   29.14   30.48
  -8   1  -5  139.51   13.89
   8  -1   5  147.43   22.69
   8  -1   5  104.43   23.71
   5   9  -3   69.31   15.13
  -5  -9   3   57.30   25.73
   5  -9  -3   64.70   16.11
   8   1   5  152.19   35.52
   8   1   5  145.18   18.28
  -8  -1  -5  168.16   22.58
  -5  -9   1  773.03   27.42
   5   9  -1  739.28   27.53
   5   9  -1  754.92   26.82
   5  -9  -1  734.83   48.14
   5  -9  -1  774.61   42.08
  -5  -9   1  766.71   44.50
  -1 -10  -3 1270.66   52.32
  -1 -10  -3 1302.83   34.04
   3   5  10  554.76   32.60
   3  -5  10  542.20   15.47
   3   5  10  545.40   28.51
  -3  -5 -10  557.37   34.40
  -3  -5 -10  542.23   26.50
   3  -5  10  541.85   33.29
   3  -5  10  505.72   16.54
  -7   0  -7   -1.42   16.65
   3  -5  10  528.22   18.18
   1  10   3 1232.02   25.90
  -7   0  -7  -11.15   22.63
   1  10   3 1338.72   50.25
   7   0   7   -9.82   22.64
   1 -10   3 1286.67   34.40
   7   0   7   12.21   18.20
   1 -10   3 1285.69   37.72
  -9   0  10 3398.87   68.27
  -9   0  10 3501.79   60.72
  10   1  -2 1033.63   31.48
  10   1  -2  996.81   30.81
  10  -1  -2 1020.02   46.95
 -10  -1   2 1064.03   43.93
 -10   1   2  965.81   45.59
 -10  -1   2 1023.63   42.95
  10  -1  -2 1075.33   37.01
 -10   1   2  994.79   26.11
   3  -7   8 1647.87   34.12
  -4   4  13   79.16   19.32
  -4  -4  13   77.10   16.06
   3  -7   8 1745.05   52.37
  -8  -5  -2  927.83   48.26
  -4  -4  13   70.47   18.92
   8   5   2  943.50   49.88
   3   7   8 1722.43   41.66
  -4   4  13   83.41   16.85
  -3  -7  -8 1712.77   39.48
  -8   5  -2  862.82   33.60
  -3  -7  -8 1662.77   39.64
   8   5   2  841.02   31.49
  -8  -5  -2  880.03   32.65
   8  -5   2  836.53   32.93
   3   7   8 1732.33   38.01
   1  -8  -9  192.44   15.58
  -1  -8   9  194.02   17.08
  -1  -8   9  192.54   14.94
  -1  -8   9  234.82   19.88
   1  -8  -9  202.89   17.34
  -1  -8   9  187.35   20.89
  -1   8   9  192.25   25.53
  -1   8   9  235.26   26.38
   2  -6  10  361.47   18.54
   2  -6  10  334.63   15.61
   2  -6  10  348.02   20.75
  -2  -6 -10  380.43   31.61
   2   6  10  358.44   25.10
   2   6  10  369.08   19.25
   2  -6  10  292.40   28.86
  -2  -6 -10  397.10   35.20
  10  -2  -4 4812.70   66.30
  10  -2  -4 4745.75   70.99
  10   2  -4 4857.06   93.25
  10   2  -4 4722.36   68.93
 -10   2   4 4888.69   78.58
 -10   2   4 4964.15   72.99
 -10  -2   4 4963.97   84.14
 -10  -2   4 4984.92   78.04
  -3  -2  14   -2.49   12.77
  -3  -2  14    3.10   17.81
  -3   2  14    6.88   11.61
  -9   4   0 1649.60   41.84
  -9  -4   0 1679.49   58.37
  -3   2  14  -15.69   21.46
   9   4   0 1646.42   39.02
   9   4   0 1609.13   41.35
  -9  -4   0 1666.50   56.66
   9  -4   0 1655.99   42.00
  -6  -8  -1 1157.36   35.65
  -6  -8  -1 1229.57   35.30
   6  -8   1 1147.77   54.79
   6   8   1 1138.06   33.66
   6   8   1 1091.86   34.67
   6  -8   1 1157.41   47.53
  -1 -10   4  436.87   22.70
   1 -10  -4  399.08   23.93
  -1  10   4  419.07   23.86
   1  10  -4  448.91   18.19
   1 -10  -4  385.21   18.11
   1  10  -4  361.32   22.01
  -1  10   4  397.15   19.90
   3  -8  -9  494.30   16.73
  -3   8   9  480.58   18.83
  -3  -8   9  488.51   16.45
  -3   8   9  563.26   26.79
  -3  -8   9  489.21   23.64
  -3  -8   9  474.00   30.47
  -3  -8   9  461.75   17.51
   3  -8  -9  463.02   19.10
  -1   0  14   55.79   19.55
  -1   0  14   58.14   27.38
   2  10   2  362.00   17.79
   2  10   2  373.98   37.62
  -2 -10  -2  453.17   26.04
   7   1   7  274.59   32.32
  -2 -10  -2  419.88   25.89
  -7  -1  -7  197.52   18.74
  -7   1  -7  209.05   23.52
   7  -1   7  210.59   16.95
  -7  -1  -7  214.15   22.68
   2 -10   2  368.95   24.03
   7  -1   7  250.14   23.76
   2 -10   2  379.95   27.47
   7   1   7  231.85   23.36
  -7   1  -7  192.69   22.28
  -4  -9   6  291.28   18.71
   7   7   1  588.09   30.90
   4  -9  -6  283.67   21.68
   4   9  -6  260.59   17.24
  -4  -9   6  273.15   26.96
  -7  -7  -1  637.38   30.02
   7  -7   1  728.25   47.69
   7   7   1  663.09   27.91
   7  -7   1  610.91   40.66
   4  -9  -6  270.01   29.13
  -7  -7  -1  656.77   45.62
   4   9  -6  269.55   25.25
  -5  -5  12 1042.47   29.82
  -5   6  11  665.15   23.94
  -5  -5  12 1083.81   35.12
   5  -6 -11  663.76   17.56
  -9  -1  10  273.55   20.81
  -5   5  12 1113.51   39.59
  -5  -6  11  728.58   35.33
  -5  -6  11  673.95   28.30
  -5   5  12 1091.29   30.76
  -5   6  11  700.69   21.74
  -9   1  10  275.77   21.85
  -7  -3  12 1116.02   32.45
  -9   1  10  272.87   28.86
   5  -6 -11  677.09   22.50
  -9  -1  10  304.01   24.57
  -7   3  12 1033.14   28.36
  -7  -3  12 1090.38   36.21
  -7   3  12 1065.69   46.08
  10  -2  -5  236.56   27.16
  10  -2  -5  220.49   24.84
   0   5  12 2795.08   41.01
  -2  -3 -12 1196.61   33.90
   0  -5  12 2942.48   40.02
   2   3  12 1168.44   25.87
  10   2  -5  154.49   25.24
   0  -5  12 2914.84   43.96
  10   2  -5  203.05   35.63
   6   8  -6 2761.83   43.85
   2  -3  12 1156.55   27.70
 -10  -2   5  249.79   22.93
   2  -3  12 1188.29   34.84
 -10   2   5  229.96   16.59
  -2  -3 -12 1088.11   35.13
   6  -8  -6 2616.79   62.71
 -10  -2   5  229.80   17.32
   0  -5 -12 2850.04   52.96
   6  -8  -6 2645.52   45.25
   2   3  12 1194.81   36.26
  -2   3 -12 1105.41   24.12
   0  -5  12 2890.42   47.30
 -10   2   5  237.26   27.54
   0  -5 -12 2821.17   51.30
   0  -5  12 3017.79   45.30
   6   8  -6 2758.43   65.97
   0   5  12 2878.08   53.32
  -6  -8   6 2902.01   54.08
  -6  -8   6 2797.71   58.20
  -8  -6   0 1383.62   37.29
  -8  -6   0 1444.10   58.00
   8   6   0 1387.70   36.19
   8  -6   0 1352.88   39.42
   8   6   0 1438.86   57.24
   8  -6   0 1419.01   35.62
  10  -2  -3   37.11   11.04
 -10  -2   3   35.66   16.80
  10   2  -3   16.07   22.11
  10  -2  -3   13.90   15.18
 -10   2   3   38.83   15.30
  10   2  -3   16.87   26.89
 -10   2   3   28.47   11.30
 -10  -2   3   36.26   14.78
  -4  -7  -7   12.90   29.58
  -7   6   9  436.00   24.29
  -7   6   9  417.94   21.76
   7  -6  -9  405.18   24.84
   4   7   7   98.53   21.61
  -4  -7  -7  148.93   30.82
   4   7   7  131.24   18.96
   7  -6  -9  399.87   21.76
   7   6  -9  411.58   17.68
   7   6  -9  368.35   40.61
   4  -7   7  138.31   17.19
  -7  -6   9  428.26   27.67
  -7  -6   9  405.79   19.30
   4  -7   7  129.02   19.63
  -8   4  10 2246.75   47.15
  -8  -4  10 2241.92   69.90
   8   4 -10 2350.03   68.71
  -8   4  10 2214.96   41.03
   8  -4 -10 2183.03   30.64
   8  -4 -10 2159.10   34.16
   0  10   4  206.23   32.78
   0  10   4  203.14   20.09
   0 -10   4  177.27   19.22
   0 -10   4  193.05   35.01
   0 -10  -4  193.14   11.92
   0 -10  -4  224.06   21.28
  -2  -7  -9  590.44   37.94
   5  -9  -4 3131.30   67.76
   5   9  -4 3104.90   51.63
   2   7   9  634.58   23.52
  -2  -7  -9  561.89   37.61
  -5  -9   4 3357.45   70.13
  -5  -9   4 3271.65   69.12
   5  -9  -4 3294.97   59.59
   2  -7   9  627.11   30.15
   2  -7   9  645.23   35.26
   2   7   9  633.64   27.99
   5   9  -4 3214.63   66.44
  10   0  -7   -5.29   11.68
  10   0  -7    4.30    7.85
 -10   0   7    4.12    8.48
 -10   0   7    4.04   20.38
   3  10  -1   -0.82    9.19
  -3 -10   1  -10.69   15.18
  -5   0  14 1169.36   47.86
  -5   0  14 1203.32   55.06
  -1  -4  13 1290.96   33.35
   3  10  -1   15.44   12.29
   1  -4 -13 1279.13   22.20
  -1   4  13 1180.90   20.35
  -3 -10   1   -0.88   13.62
   3 -10  -1   -8.13   23.53
   1  -4 -13 1226.60   34.36
   3 -10  -1   -9.76   20.60
  -1  -4  13 1261.03   29.72
  -1   4  13 1285.46   35.71
  -2   2  14   -8.16   15.66
  -2   2  14    9.60   22.75
  -2  -2  14    2.20   12.54
  -2  -2  14   16.16   14.62
   5   9   0 1442.69   36.89
   5  -9   0 1535.43   38.43
   0  -9  -7  636.47   26.69
   5  -9   0 1508.26   42.20
   0  -9  -7  664.69   20.80
  -5  -9   0 1514.62   36.21
  -5  -9   0 1576.73   40.57
   0  -9   7  657.60   38.04
   5   9   0 1491.03   50.39
   0   9   7  646.11   25.36
   0  -9   7  721.87   23.16
   0   9   7  698.29   22.93
   9   5  -4 3258.32   80.47
   9  -5  -4 3203.54   62.71
   9  -5  -4 3237.99   55.69
   9   5  -4 3264.37   51.96
  -9  -5   4 3272.47   82.68
  -9  -5   4 3289.51   67.11
  -4   0 -11    1.11    9.66
  -1  -1  14  668.55   27.29
   1  -1 -14  714.83   28.10
  -4   0 -11   -1.03   14.19
   4   0  11   -0.21   16.12
  -1   1  14  778.92   29.00
  -1  -1  14  763.33   46.17
   4   0  11    3.36   18.45
   3  10  -2  220.49   19.65
   5  -6   7  109.41   19.48
   3 -10  -2  207.72   23.96
  -5  -6  -7  114.63   19.98
  -3 -10   2  195.98   14.99
  -5  -6  -7   97.07   32.00
  -3 -10   2  253.66   20.82
   3  10  -2  211.52   23.29
   5   6   7  140.90   21.89
   3 -10  -2  211.27   20.61
   5   6   7  107.84   19.12
   5  -6   7   89.05   16.96
  -3   9   7 1526.80   33.97
  -3  -9   7 1559.37   31.35
  -4   2  14 2625.88   50.20
  -1  -2 -13   94.37   18.28
  -3  -9   7 1528.78   31.33
  -4  -2  14 2685.89   54.66
   1  -2  13  114.46   16.08
  -1  -2 -13   84.49   10.67
   3   9  -7 1486.88   29.65
  -3   9   7 1572.81   25.99
   3  -9  -7 1497.87   24.04
   3   9  -7 1462.15   30.13
  -1   2 -13   99.77    9.88
   3  -9  -7 1498.72   34.00
  -4   2  14 2720.78   55.02
   1   2  13   91.01   16.20
  -4  -2  14 2703.29   50.15
   1  -2  13  103.97    9.94
   1   2  13   98.11   19.91
   9  -5  -3  475.70   21.61
  -9  -5   3  373.70   44.74
   9   5  -3  441.40   33.68
   9  -5  -3  498.65   25.20
   9   5  -3  472.05   45.17
   5   5   8 1054.65   46.64
  -9  -5   3  496.34   23.03
  -5  -5  -8 1059.95   33.86
  -5  -5  -8 1036.43   33.75
   5   5   8 1098.21   37.51
   5  -5   8 1194.54   48.04
  10   0  -1    0.37   16.69
 -10   0   1    3.60    8.85
  10   0  -1   -2.48   12.60
 -10   0   1   -5.11   11.09
   2  10  -4 2246.04   56.48
  -2  10   4 2310.39   61.45
   2 -10  -4 2181.90   46.41
  -2 -10   4 2307.53   43.02
  -2 -10   4 2365.99   59.37
   2  10  -4 2209.34   34.27
  -9   3   9   62.90   13.64
   9  -3  -9   39.91   12.40
   9   3  -9   40.06   30.66
  -9  -3   9   67.23   31.33
   9  -3  -9   40.37    8.97
  -9   3   9   29.62   11.30
   7   7  -7  119.06   20.41
   7   7  -7  109.91   11.94
   7  -7  -7  111.20   21.57
  -7  -7   7  158.46   21.84
  -7  -7   7  128.97   34.81
   6   3   8 1474.67   38.53
  -6  -3  -8 1386.04   36.96
   6  -3   8 1458.37   53.75
   4  -9   3  123.97   35.45
   4   9   3  150.25   29.81
  -6   3  -8 1422.31   25.61
  -4  -9  -3  137.54   18.03
   4  -9   3  158.02   30.54
  -4  -9  -3  159.19   23.18
  -6  -3  -8 1403.90   52.86
  -6   3  -8 1451.60   37.45
   6   3   8 1406.38   39.32
   4   9   3  133.32   20.28
   6  -3   8 1414.35   27.64
   3 -10   0  239.16   20.96
   3  10   0  159.29   32.42
  -3 -10   0  185.25   21.65
   3  10   0  127.10   24.24
   3 -10   0  204.40   24.23
  -3 -10   0  167.92   23.38
 -10   1   7   -1.57   11.70
  10   1  -7   32.40   24.27
 -10   1   7    7.98    8.83
  10  -1  -7    6.82   12.88
  10   1  -7    8.79    9.00
 -10  -1   7   18.99   22.61
 -10  -1   7    1.14    8.61
  10  -1  -7   15.05    9.74
  -5  -1  14  266.51   41.10
  -5  -1  14  318.20   34.75
  -5   1  14  322.99   22.11
  -5   1  14  281.28   25.86
   2   5  11  468.01   19.38
   2   5  11  433.92   27.95
   2  -5  11  491.07   17.67
   2  -5  11  441.38   19.01
  -2  -5 -11  499.43   30.71
   2  -5  11  470.28   16.47
  -2  -5 -11  462.18   25.93
   2  -5  11  484.22   23.28
 -10   2   6  286.76   26.18
   9   0   3   -5.47   11.19
   9   0   3    0.05   15.74
  -9   0  -3  -10.34   12.57
  10   2  -6  251.21   23.51
  -9   0  -3    5.62    8.86
 -10   2   6  275.39   27.53
 -10  -2   6  224.45   24.12
  10   2  -6  258.34   15.74
 -10  -2   6  229.04   24.51
  10  -2  -6  279.22   26.44
  10  -2  -6  253.96   26.89
   9   5  -5  112.60   36.11
   9   5  -5   94.98   13.94
  -5   0 -10  173.93   17.32
  -5   0 -10    2.68   25.71
  -9  -5   5  138.47   37.20
   5   0  10  176.80   19.03
   5   0  10  165.55   30.06
   9  -5  -5  112.57   16.93
  -9  -5   5   93.19   23.46
   9  -5  -5  132.17   22.62
  -8  -2  -5  626.57   25.49
   8  -2   5  704.60   47.00
   8   2   5  609.78   27.34
  -8  -2  -5  660.38   30.74
   8  -2   5  651.40   19.90
   8   2   5  613.02   30.98
  -8   2  -5  604.56   26.29
  -8   3  11  467.78   35.81
  -8  -3  11  455.59   25.35
  -8   3  11  496.42   30.83
  -8  -3  11  430.55   29.97
  -4  -1 -11  339.17   19.29
  -4   1 -11  343.61   18.94
   4  -1  11  317.56   19.71
   4   1  11  357.34   23.65
  -4  -1 -11  355.56   22.28
   4  -1  11  361.36   31.64
  -4   1 -11  319.57   19.08
   4   1  11  331.76   19.55
   5   8  -8  117.39   27.34
  -5  -8   8   -0.43   27.65
   5   8  -8  123.86   11.68
   5  -8  -8  131.82   16.11
  -5   8   8  103.10   16.18
  -5   8   8   97.20   14.72
  -5  -8   8  105.98   19.19
   5  -8  -8  109.83   14.20
  -6  -7  -4 2856.41   55.32
   6  -7   4 2706.26   50.39
   6   7   4 2596.87   52.17
   6  -7   4 2725.35   55.34
   6   7   4 2761.12   56.30
  -6  -7  -4 2828.28   75.20
   8  -6  -7  159.43   16.08
  -8  -6   7  173.53   37.82
  -8   6   7  159.03   13.70
  -8  -6   7  223.94   21.35
   8  -6  -7  138.02   21.17
  -8   6   7  142.53   15.89
   8   6  -7  177.66   23.16
   8   6  -7  148.69   18.95
 -10  -2   2 3318.07   57.32
 -10   2   2 3212.05   58.05
  10  -2  -2 3142.30   56.47
  -8   5   9   15.92   13.31
  10  -2  -2 3176.80   47.88
  -8   5   9   11.13    9.69
 -10  -2   2 3238.41   73.58
   8  -5  -9   20.06    8.07
  10   2  -2 3268.22   71.17
  10  -1  -1    5.99   14.73
 -10   1   1   13.74   17.13
  10  -1  -1   11.95   16.95
   8   5  -9    6.37   17.72
 -10   2   2 3160.60   57.30
  10   2  -2 3189.92   72.57
  10   1  -1   -1.21   13.10
  10   1  -1   14.71   23.00
  -8  -5   9    1.13   17.21
 -10   1   1   16.46   14.77
 -10  -1   1   10.35   14.86
   8  -5  -9   33.63   14.89
 -10  -1   1    1.57   13.24
  -7   0  13   -0.90   23.85
  -7   0  13    5.21   12.54
  -3 -10   3    1.38   20.23
   3 -10  -3   -6.93   23.68
   3  10  -3    3.28   18.91
   0  -8   9 2662.43   45.49
   9  -5  -2   47.74   30.13
   0  -8  -9 2809.64   48.85
   3 -10  -3   -8.70   13.06
   0   8   9 2699.40   48.95
   9  -5  -2   73.89   16.18
  -3 -10   3    5.02    9.08
   3  10  -3   -2.96    9.01
   9   5  -2   77.90   16.44
   0  -8   9 2718.53   37.65
   0  -8  -9 2805.76   47.77
   9   5  -2   86.87   34.83
  -9  -5   2   17.59   32.73
  -9  -5   2   66.06   17.06
   0  -8   9 2719.73   52.09
   0   8   9 2848.87   47.59
   0  -8   9 2787.53   41.94
  -8   0  12 1739.40   60.59
  -8   0  12 1609.02   37.14
   3   0  12  837.89   32.78
   3   0  12  839.52   28.58
  -3   0 -12  753.38   22.52
  -3   0 -12  799.20   27.27
   5  -8   4 2314.46   50.44
  -5  -8  -4 2326.16   68.83
   5   8   4 2229.39   47.03
  -5  -8  -4 2325.10   63.57
   5   8   4 2200.77   48.37
   5  -8   4 2199.98   44.81
  -6  -3  13    4.07   23.27
  -6  -3  13   -1.14   19.37
  -6   3  13   -8.97   20.35
  -6   3  13    1.47   17.39
  -9   4   8  975.61   21.34
   9  -4  -8  965.05   28.17
   9   4  -8 1005.02   35.49
  -9  -4   8  958.97   27.79
   9   4  -8  947.07   19.30
  -9   4   8  945.76   33.66
   9  -4  -8  945.54   32.19
  -9  -4   8 1020.20   36.91
  -6  -7   9 1494.42   38.90
  -9   1  -3    7.29   15.97
  -6  -7   9 1486.46   25.65
  -6   7   9 1440.14   25.39
   9  -1   3   17.56   18.15
  -9   1  -3    7.44   16.24
   6   7  -9 1494.17   38.57
   9   1   3   11.25   22.82
  -6   7   9 1481.78   36.04
  -9  -1  -3   -1.81   26.82
  -4   4 -10 1213.52   31.21
   4   4  10 1228.47   31.87
   4  -4  10 1249.25   44.85
   9  -1   3   34.79   18.18
   6  -7  -9 1452.73   36.42
  -9  -1  -3   23.34   20.43
   9   1   3  -15.07   28.58
   4   4  10 1224.92   54.83
  -4  -4 -10 1202.89   31.72
   6   7  -9 1462.59   30.60
   4  -4  10 1266.79   34.40
  -4  -4 -10 1216.19   50.89
   6  -7  -9 1478.80   41.52
  -4   4 -10 1192.51   23.47
   5   1  10    6.69   13.69
   5  -1  10   29.40   12.58
  -5   1 -10   14.27   13.15
   5  -1  10    3.51   13.62
  -5  -1 -10   12.10   21.47
   5   1  10   11.67   23.84
  -5   1 -10    1.34   18.14
  -5  -1 -10   27.48   21.10
  -7  -2  -7   10.04   20.46
  -7  -2  -7   -1.64   14.50
   7   2   7  -10.81   23.83
   7  -2   7    1.68    9.55
  -7   2  -7   -1.07   23.33
  -7   2  -7    6.18    8.40
   7   2   7   16.77   22.39
   7  -2   7   13.46   15.24
   9   2 -10  637.08   30.39
  -9   2  10  613.92   37.60
  -9  -2  10  626.67   31.28
  -9   2  10  646.05   22.04
   5  -7 -10 1885.77   43.87
  -5   7  10 1992.63   43.20
  -5   7  10 1902.87   35.40
  -5  -7  10 2012.94   58.21
  -5  -7  10 1947.83   38.29
   5  -7 -10 1917.75   40.27
  -5  -4  13  102.40   34.59
  -7   1  13   51.08   18.11
  -5   4  13  113.91   17.88
  -7  -1  13   21.92   19.60
  -7   1  13   31.59   25.31
  -5   4  13  123.38   31.75
  -7  -1  13   44.79   16.80
  -5  -4  13  168.39   18.37
   7  -5   5   -9.86   19.52
  -7  -5  -5    8.30   15.62
   7   5   5  -10.41   20.13
   7   5   5   18.02   18.88
  -7  -5  -5   10.83   24.03
  -7   5  -5    3.52   15.93
   5  -9  -5  408.63   24.71
   5  -9  -5  371.85   32.92
  -5  -9   5  380.34   32.12
  -5  -9   5  369.41   34.73
   5   9  -5  339.44   19.30
   5   9  -5  333.92   20.79
   2   9   6   -8.26   22.72
  -2  -9  -6    2.42   15.48
   2  -9   6   11.70   14.59
   2  -9   6   10.51   12.60
   2   9   6   13.87   13.13
  -2  -9  -6    0.07   12.78
  -8   1  12 1337.45   34.20
  -8   1  12 1395.20   38.45
  -3 -10  -1    5.95   18.18
  -3 -10  -1   24.05   16.57
  -8  -1  12 1398.12   35.49
   3  10   1   28.38   16.16
  -8  -1  12 1371.32   39.85
   3 -10   1   39.26   26.25
   3  10   1   25.60   12.13
   3 -10   1   -2.68   30.14
  -3   1 -12   29.95   11.51
   3   1  12   30.40   26.75
  -4  -8   9   -8.27   12.25
  -4  -8   9   10.08    9.41
   3  -1  12   50.46   12.04
  -4  -8   9   11.91   14.25
  -4   8   9    7.45    9.37
  -4  -8   9    5.74   13.49
   3   1  12   34.90   12.07
   3  -1  12   18.59   23.59
  -3   1 -12   53.59   13.48
  -3  -1 -12   27.61   19.06
  -3  -1 -12   22.22   15.51
   4  -8  -9    4.06   17.27
  -4   8   9   13.68    8.52
   4  -8  -9   19.61   12.07
   1 -10   4   54.12   18.81
   1 -10   4   47.66   16.55
  -9  -3  -2 1517.73   41.32
  -1 -10  -4   50.28   17.62
  -1 -10  -4   54.45   18.53
   9   3   2 1674.44   41.14
  -9  -3  -2 1520.99   38.35
   9  -3   2 1588.09   42.42
   1  10   4   57.87   17.35
   9   3   2 1581.95   41.66
   1  10   4   43.59   19.61
   9  -3   2 1543.67   27.17
  -9   3  -2 1525.49   42.60
  -9   3  -2 1590.08   32.57
   3  -4  11    8.32    9.85
   5  -9   1  675.25   49.15
   3   4  11   -2.41   14.38
  -3  -4 -11   20.91   18.89
   5   9   1  747.65   42.09
  -3  -4 -11    4.23   14.97
  -5  -9  -1  770.52   27.96
   3   4  11    4.86   10.15
   5   9   1  708.24   29.09
  -5  -9  -1  724.43   47.99
   3  -4  11    2.28    8.14
   5  -9   1  791.43   44.37
   3  -4  11    3.96    7.57
   3  -4  11   -6.21    8.50
   2 -10   3 1539.50   37.41
   2 -10   3 1574.57   60.39
  -2 -10  -3 1487.30   41.65
   2  10   3 1534.35   32.45
  -2 -10  -3 1551.57   41.46
   2  10   3 1554.68   39.36
   1  -2 -14   82.35   18.39
  -1   2  14   94.61   19.11
  -1  -2  14   74.08   17.12
  -1  -2  14   97.58   30.83
  -9   5   6 1055.73   20.82
  -9   5   6 1073.84   18.81
   9  -5  -6 1066.04   28.48
   9  -5  -6 1028.37   25.37
  -9  -5   6 1162.22   56.46
   9   5  -6 1026.94   24.56
   9   5  -6 1152.01   54.89
  -9  -5   6 1066.52   25.86
  -3  -8  -7  338.79   38.05
   3   8   7  373.26   22.63
   3   8   7  273.94   23.95
  -5  -7  -6   27.49   17.74
   5   7   6   32.08   17.31
   3  -8   7  335.15   23.55
   5  -7   6   45.50   25.01
   3  -8   7  333.29   31.17
   5   7   6   44.46   19.50
   5  -7   6   47.68   18.22
  -5  -7  -6   51.03   18.70
  -3  -8  -7  360.12   22.65
   1   6  11   -6.61   20.68
   1  -6  11    4.84    8.15
   1  -6  11   -2.01    7.69
  -1  -6 -11   -7.39   10.73
   1  -6  11    0.75   10.76
  -7  -4  -6  394.87   27.47
   1  -6  11   -2.12   10.52
  -7  -4  -6  432.92   25.57
   7   4   6  389.39   43.62
   1   6  11    8.45   13.90
   7   4   6  431.22   26.56
  -1  -6 -11    4.30    8.37
  -7   4  -6  399.88   41.51
   7  -4   6  406.27   27.55
   3  -9   5   58.52   15.84
   3   9   5   28.09   27.83
  -3  -9  -5   60.61   14.67
   3  -9   5   39.24   29.36
  -3  -9  -5   35.07   19.63
   3   9   5   47.89   16.12
  -2   6  12 1944.78   38.30
  -3  -6  12   25.32   14.51
   2  -6 -12 1957.50   31.92
   2  -6 -12 1993.94   40.90
   3  -6 -12   24.35   14.01
  -2  -6  12 1983.14   51.76
  -3  -6  12   27.99   12.06
   3  -6 -12   29.46   21.39
  -2   6  12 1984.61   41.78
  -2  -6  12 1911.56   35.46
  -3   6  12   35.38   13.90
  -3   6  12   15.14    8.00
   6   8   2 1015.47   51.51
   6  -8   2 1043.94   36.43
  -6  -8  -2 1098.80   34.22
   6  -8   2 1038.06   33.11
  -6  -8  -2 1114.69   37.08
   6   8   2 1036.61   49.18
   1  -7  10 2654.84   55.17
   1  -7  10 2687.52   38.54
   5   4   9   13.37   18.03
  -5   4  -9   19.93   14.28
   1   7  10 2746.93   57.51
   5   4   9   13.54   14.66
  -5  -4  -9   14.80   15.06
  -5   4  -9   15.31   12.26
  -1  -7 -10 2758.98   49.83
  -5  -4  -9   15.96   15.93
   1  -7  10 2642.82   35.71
  -1  -7 -10 2633.61   46.65
   1   7  10 2703.34   52.64
   1  -7  10 2691.02   41.40
   5  -4   9   29.69    9.16
   5  -4   9   38.40   24.94
   1 -10  -5   17.63    8.05
  -9   4  -1  300.44   26.44
  -1 -10   5   27.90   16.06
  -9  -4  -1  290.55   39.65
  -1  10   5   13.12   24.26
   9  -4   1  202.55   41.12
   1 -10  -5   28.13   15.28
  -9  -4  -1  363.17   25.89
   9   4   1  302.46   24.33
  -1 -10   5   39.77   23.04
   9   4   1  291.31   26.05
  -1  10   5   22.07    9.21
 -10  -2   7  798.12   29.42
 -10   0   8   49.00   26.39
 -10  -2   7  805.42   32.57
 -10   0   8   28.33   15.16
  10   2  -7  789.68   32.27
  10   2  -7  786.74   20.46
 -10   2   7  757.13   24.74
  10   0  -8   33.91   16.53
  10  -2  -7  790.93   22.31
  10   0  -8   32.69    9.30
  10   3  -4 1176.25   38.15
  -8  -6  -1   17.92   26.85
 -10  -3   4 1239.72   31.09
   8   6   1   23.08   29.83
  -5   2  14 1673.71   43.57
  10   3  -4 1262.73   30.70
  -8  -6  -1   12.72   28.12
   8  -6   1   23.71   29.59
  10  -3  -4 1237.74   25.93
 -10   3   4 1194.37   45.89
   8   6   1   39.44   16.85
   8  -6   1   14.32   15.39
 -10   3   4 1231.25   25.63
 -10  -3   4 1246.38   55.54
  10  -3  -4 1205.02   32.96
  -5  -2  14 1538.42   38.77
  -5   2  14 1584.67   38.02
  -5  -2  14 1560.69   43.54
  -3  -3  14 2974.51   57.68
   2  -8   8    9.52   19.10
  -2  -8  -8    4.29   11.89
  -3  -3  14 2979.52   52.11
  -2  -8  -8    2.36   13.06
  -3   3  14 2932.01   59.33
   2  -8   8    9.18   22.29
  -3   3  14 2932.30   54.68
   2   8   8    9.43   24.33
   2   8   8   20.78   13.41
  -2  -7  11   71.06   21.54
   2  -7 -11   61.62   18.85
  -2  -7  11   66.59   11.06
  -8  -4  -4  201.87   35.90
  -2   7  11   55.42   17.74
   8   4   4  191.59   23.59
   8   4   4  181.16   23.36
  -2  -7  11   48.38   13.37
  -2  -7  11   34.76   15.48
  -2   7  11   60.73   24.25
   2  -7 -11   62.84   22.97
  -8  -4  -4  179.24   37.67
  -8   4  -4  175.36   39.09
   8  -4   4  198.28   25.07
  -6  -8   7 1488.23   39.23
   6  -8  -7 1424.22   41.48
   6   8  -7 1415.80   52.02
  -6  -8   7 1465.56   40.71
   6   8  -7 1419.26   28.23
   6  -8  -7 1395.04   34.34
  -4   2 -11  698.55   22.42
   4   2  11  821.07   36.98
   4  -2  11  786.29   24.98
  -4  -2 -11  713.47   24.89
  -4  -2 -11  698.64   27.85
   4   2  11  766.96   46.15
  -4   2 -11  732.04   24.29
   4  -2  11  777.02   38.63
   9  -5  -1  501.91   25.02
   9  -5  -1  541.80   28.89
  -9  -5   1  636.43   46.35
   9   5  -1  549.95   47.35
  -9  -5   1  594.28   42.71
   9   5  -1  563.30   25.66
   3  10  -4  901.35   23.02
  -3 -10   4  892.52   29.21
   3  10  -4  889.63   40.10
   3 -10  -4  922.90   30.37
   3 -10  -4  894.01   34.06
  -3 -10   4  869.74   23.33
  10  -3  -5  268.27   15.70
  10   3  -5  291.01   17.53
 -10   3   5  269.55   19.62
  -7  -7  -2 1383.86   39.96
   7  -7   2 1421.73   37.97
  10   3  -5  281.25   25.28
 -10  -3   5  279.81   40.63
  10  -3  -5  273.10   19.34
   7   7   2 1377.66   60.16
   7   7   2 1527.74   55.11
   7  -7   2 1405.00   42.51
 -10   3   5  270.66   15.67
 -10  -3   5  319.68   28.14
  -7  -7  -2 1461.07   40.80
 -10   2   1  541.62   18.77
  10   2  -1  545.27   26.99
 -10  -2   1  565.47   27.15
  10  -2  -1  659.45   42.42
 -10  -2   1  556.14   26.13
 -10   2   1  517.74   42.83
  10   2  -1  580.41   42.35
  10  -2  -1  520.52   19.13
   1  -9   7  599.29   23.63
  -6   0  -9  -15.79   13.70
   6   0   9   -0.16   20.13
  -6   0  -9    0.93   11.26
   1   9   7  560.78   38.22
  -1  -9  -7  614.30   33.05
   6   0   9    1.74   11.16
   1  -9   7  591.84   26.13
  -1  -9  -7  645.39   41.97
   1   9   7  615.57   36.43
  -3   7  11 1394.69   26.68
  -3   7  11 1333.99   43.09
  -3  -7  11 1372.66   44.97
   3  -7 -11 1347.63   30.23
   3  -7 -11 1367.11   26.90
  -3  -7  11 1427.80   29.03
  10  -3  -3  189.84   13.52
 -10   0   0  597.76   34.53
  10   0   0  638.17   29.76
  10   0   0  617.57   24.39
  10   3  -3  216.66   22.86
  10   3  -3  226.45   19.36
 -10  -3   3  119.05   37.80
 -10   3   3  221.06   21.28
 -10   3   3  238.65   20.93
  10  -3  -3  201.78   21.23
 -10  -3   3  220.04   19.89
 -10   0   0  563.60   44.19
   0   0 -14 4640.45   72.06
   0   0  14 4710.10   74.10
   2 -10  -5  427.84   25.18
  10  -1  -8 1714.73   29.25
  -2 -10   5  477.51   23.40
   2  10  -5  463.12   15.68
  10  -1  -8 1782.37   38.72
  -2  10   5  447.66   24.37
  10   1  -8 1690.45   28.11
 -10  -1   8 1641.20   35.86
  -2 -10   5  458.20   23.54
  10   1  -8 1786.35   58.34
 -10   1   8 1630.62   28.81
 -10   1   8 1673.93   38.03
 -10  -1   8 1651.19   41.30
   2  10  -5  496.89   33.43
   2  -3 -14 8808.55  122.21
  -2  -3  14 9043.58  134.86
  -2   3  14 9118.53  145.24
  -2  -3  14 8990.30  126.90
   0   4  13   -0.56   23.27
   4   9  -7  542.67   31.36
   0  -4 -13    4.02    9.25
  -4  -9   7  559.86   34.14
  -4  -9   7  568.07   30.44
   0  -4  13   -0.79   11.58
   0  -4 -13   -5.01   10.27
   4   9  -7  465.98   28.17
   0   4  13    9.47   11.25
   4  -9  -7  507.69   33.67
   4  -9  -7  459.72   37.55
   0  -4  13    2.94   16.48
   9  -2   3  616.58   49.48
  -9  -2  -3  624.43   46.38
   9  -2   3  584.49   28.78
   7  -6   4 1699.00   55.28
   7  -6   4 1662.46   44.93
  -7  -6  -4 1711.85   43.81
  -9   2  -3  593.37   31.33
  -9  -2  -3  589.23   26.09
   0 -10   5  829.91   28.36
   7   6   4 1784.36   64.31
   9   2   3  574.18   41.63
  -9   2  -3  603.88   18.39
   0 -10  -5  813.05   20.45
   0  10   5  836.84   22.39
   7   6   4 1646.75   42.48
   9   2   3  657.89   31.29
  -7  -6  -4 1584.62   61.78
   0  10   5  860.95   29.84
   0 -10  -5  782.65   45.48
   0 -10   5  938.18   46.06
  -5   2 -10 3953.62   67.24
  -5  -2 -10 3887.07   63.19
  -5   2 -10 4078.58   78.15
  -5  -2 -10 3939.94   64.78
   5   2  10 4163.69   66.34
   5   2  10 4183.85   70.22
   5  -2  10 4106.02   61.56
   5  -2  10 4191.20   67.92
   6   5   7    1.29   33.75
  -6  -5  -7   71.67   18.94
  -6  -5  -7   46.91   31.48
  -4  -8  -6  411.67   24.19
  -6   5  -7   61.98   18.99
   4  -8   6  446.91   23.06
  -4  -8  -6  440.04   27.33
   4   8   6  381.95   26.53
   6  -5   7   65.98   19.43
   6   5   7   51.53   18.11
   4  -8   6  419.99   26.56
   4   8   6  443.34   24.92
   8   5   3  434.13   29.67
  -8  -5  -3  464.41   28.87
  -8  -5  -3  416.02   42.42
   8   5   3  468.06   27.50
  -8   5  -3  383.60   29.47
   8  -5   3  433.28   29.50
  -7   5  11  229.86   24.14
  -7   5  11  267.34   27.65
  -7  -5  11  225.21   20.85
  -7  -5  11  245.35   40.95
  -4   3  14  332.73   41.42
   1  -3  13  115.82   15.61
   1   3  13  118.04   20.92
   1  -3  13  104.68   10.84
  -4  -3  14  374.02   22.49
  -1  -3 -13  134.69   12.09
   1  -3  13   85.33   14.68
   1   3  13  135.49   11.42
  -1  -3 -13  129.20   20.86
  -4   3  14  337.76   23.62
  -4  -3  14  348.50   26.75
   6  -1   9   -0.03   10.97
   6  -1   9   -1.28    8.98
   6   1   9    6.70   17.42
  -6  -1  -9   22.57   19.95
  -6  -1  -9   -1.21   10.91
  -6   1  -9   -1.49    9.24
  -6   1  -9    0.59   20.13
   6   1   9   -0.30   10.99
  -7  -2  13  195.88   21.04
  -7  -2  13  174.41   25.57
  -7   2  13  170.39   30.19
  -7   2  13  159.44   35.23
  10   1   0 1085.10   31.98
  10  -1   0 1154.36   37.06
 -10   1   0 1041.53   26.77
  10   1   0 1173.10   36.00
 -10  -1   0 1123.11   31.41
  10  -1   0 1109.77   38.45
 -10   1   0 1145.35   36.27
 -10  -1   0 1149.61   35.64
  -3   5  13  479.62   24.88
  -3  -5  13  569.22   34.12
  -3  -5  13  499.08   38.68
   7  -8  -3   42.96   15.57
   7   8  -3   55.73   29.86
  -7  -8   3   49.58   16.94
   7  -8  -3   44.09   18.35
   3  -5 -13  532.36   23.88
   7   8  -3   33.14   14.77
  -7  -8   3   41.77   18.58
   6  -6   6 1542.67   51.70
   0  -1  14 1884.59   45.02
  -6  -6  -6 1496.13   41.38
   0  -1  14 1995.01   57.79
   0   1  14 2029.31   59.24
   6   6   6 1647.55   61.93
   6  -6   6 1515.17   41.80
   0  -1 -14 1947.30   42.52
  -6  -6  -6 1495.56   41.08
   6   6   6 1475.15   40.03
  -2  -9   8  640.34   19.57
  -8  -2  12  264.67   36.27
  -2  -9   8  608.89   21.36
  -2   9   8  631.15   23.65
   2  -9  -8  631.00   35.33
   2  -9  -8  626.04   18.88
  -8  -2  12  276.20   26.27
  -8   2  12  237.23   19.74
  -2  -9   8  635.48   22.26
  -8   2  12  255.67   35.83
  -2   9   8  641.46   20.18
  -2  -9   8  623.24   16.48
   3  -2  12 1082.79   40.42
  -3  -2 -12 1064.53   47.12
  -4   6  12 3975.28   64.90
  -3  -2 -12 1007.21   36.66
  -1  -6  12  313.67   28.56
   4  -6 -12 3936.77   58.96
   4  -6 -12 4037.67   50.74
  -4   6  12 4046.66   62.02
  -4  -6  12 4049.48   62.29
   1  -6 -12  310.75   16.02
  -4  -6  12 4085.31   67.05
  -3   2 -12 1011.47   37.83
  -1  -6  12  327.87   16.24
  -1   6  12  286.88   23.19
  -1   6  12  325.71   14.62
   3   2  12 1117.18   34.95
  -6   0  14  482.01   29.53
   1  -6 -12  370.87   21.85
  -6   0  14  480.61   39.65
   3   2  12 1070.62   26.50
   3  -2  12 1028.48   26.26
  -3   2 -12 1021.98   25.76
  -1   7  11 1198.51   26.68
  -1  -7  11 1181.81   33.18
   2   0  13   -0.98   19.64
  -1  -7  11 1241.79   27.21
  -1  -7  11 1244.23   22.49
  -2   0 -13   -4.52    8.62
  -1  -7  11 1266.02   24.51
   2   0  13   -2.02    7.86
  -2   0 -13   -8.97   20.19
   1  -7 -11 1202.79   32.02
  -1   7  11 1238.00   47.30
   1  -7 -11 1186.81   27.40
   3 -10   2  117.23   23.23
   3  10   2   90.96   32.20
   3 -10   2  114.86   19.88
  -3 -10  -2  106.62   21.29
  -3 -10  -2   95.11   23.09
   3  10   2  145.12   16.03
   7  -7  -8  161.86   21.67
   7   8  -2 1125.12   53.10
  -7  -7   8  197.60   21.03
 -10  -3   6  425.30   18.39
   7   7  -8  174.77   18.48
  10  -3  -6  364.01   19.63
 -10   3   6  393.84   15.26
   7   8  -2 1135.78   44.05
 -10   3   6  384.18   27.08
  10   3  -6  394.45   17.48
   7   7  -8  168.92   22.60
  -7  -8   2 1041.95   34.46
 -10  -3   6  387.97   43.21
  10   3  -6  408.81   27.10
  -7  -7   8  160.45   23.76
  10  -3  -6  341.83   16.96
   7  -8  -2  979.69   51.34
  -7  -8   2 1126.38   36.02
   7  -8  -2  982.71   31.25
  -1   9   8  911.02   34.80
   1  -9  -8  828.67   28.43
  -1  -9   8  854.21   35.14
  -1   9   8  823.11   27.23
  -1  -9   8  893.78   23.96
  -1  -9   8  824.83   25.68
   1  -9  -8  880.54   22.81
  -1  -9   8  874.48   19.62
  -8   3  -5   15.65   17.65
   8   3   5   20.29   27.94
  -2   5  13 2941.69   54.27
   8  -3   5    5.70   13.98
  -8   3  -5    9.61    7.83
  -2  -5  13 2805.21   47.67
  -2  -5  13 2835.04   66.35
   8  -3   5   13.80   28.91
   2  -5 -13 2783.40   50.70
   2  -5 -13 2751.58   37.29
   8   3   5   28.34   16.52
  -8  -3  -5   19.38   16.93
  -8  -3  -5   20.57   14.71
  -6   5  12 2687.67   46.01
  -6  -5  12 2782.28   56.64
  -6  -5  12 2733.61   50.94
  -6   5  12 2721.00   50.00
   1  -5  12 1041.56   32.49
  -1  -5 -12 1064.68   33.24
   1   5  12 1092.60   52.45
   1  -5  12 1050.94   28.37
  -1  -5 -12 1057.50   35.59
   1  -5  12 1011.15   26.02
   1  -5  12 1098.86   25.06
   1   5  12 1072.99   33.48
   8   6  -8  397.47   27.08
   8  -6  -8  339.98   28.29
  -9   0  11   -0.95   22.74
  -7   4  12   27.46   14.34
   8  -6  -8  381.08   24.08
   8   7  -3    1.80   10.86
  -7  -4  12   21.14   18.68
   8  -7  -3    7.54   11.13
  -9   0  11    4.99   19.17
  -8  -7   3    1.81   16.21
  -7  -4  12   15.83   15.37
  -8   6   8  353.13   18.71
   8   6  -8  394.33   14.36
   8   7  -3   -1.72   23.89
  -8  -6   8  383.49   44.35
  -8  -6   8  383.32   15.52
  -8   6   8  392.82   21.68
   8  -7  -3   -6.15   13.40
  -7   4  12   14.01   19.52
  -8  -7   3    7.50   12.92
   2  -4  12  212.49   19.66
   2   4  12  223.43   15.58
   2  -4  12  196.91   16.38
  -2  -4 -12  238.46   36.32
  -2  -4 -12  215.75   16.17
   2   4  12  253.82   24.52
   2  -4  12  254.18   15.23
   2  -4  12  217.08   16.08
 -10  -3   2 2198.76   65.89
 -10   3   2 2136.22   63.03
   7   8  -4   63.78   17.68
  -7  -8   4   80.69   19.88
  -7  -8   4   62.28   27.23
  10   3  -2 2179.10   44.67
 -10   3   2 2103.22   42.15
  10   3  -2 2165.16   49.17
   7  -8  -4   -0.91   16.18
  10  -3  -2 2086.54   46.18
 -10  -3   2 2216.42   45.38
  10  -3  -2 2083.95   42.06
   7  -8  -4   75.06   22.65
   7   8  -4    0.30   13.20
  -9  -5   7  943.31   32.58
   9   5  -7  954.57   22.04
  -9   5   7 1021.85   21.84
   9   5  -7  972.42   37.31
   9  -5  -7  947.08   26.11
  -9  -5   7 1090.85   56.39
  -9   5   7  928.30   19.21
   9  -5  -7  992.66   32.64
   8   7  -4  571.99   46.84
  -8  -7   4  554.44   24.81
   8  -7  -4  582.49   27.27
   8  -7  -4  594.97   24.02
   8   7  -4  566.51   22.36
  -8  -7   4  615.71   31.10
   6  -6 -11   68.42   16.09
  -6  -6  11   69.89   27.46
  -6   6  11   75.54   15.49
  -4  -9  -4   62.55   32.97
   4  -9   4   26.75   26.93
  -4  -9  -4   70.66   16.65
   4   9   4   40.12   17.88
   6  -6 -11   66.71   14.26
   4   9   4   44.96   27.01
  -6   6  11  123.08   13.18
  -6  -6  11   90.25   20.56
   4  -9   4   60.02   19.57
   5  -9  -6  953.02   45.66
   5   9  -6  974.05   25.28
   5   9  -6  885.22   28.89
   5  -9  -6  974.08   40.29
  -5  -9   6  970.82   38.82
  -5  -9   6  943.98   44.22
  -6  -1  14  862.57   35.96
  -6   1  14  868.87   35.04
  -6  -1  14  780.50   30.77
  -6   1  14  916.25   30.44
   2   1  13   20.89   15.19
   2  -1  13   21.64    9.33
  -2   1 -13   27.89    9.77
   2  -1  13    9.34   14.20
   2   1  13   19.00   15.91
  -2  -1 -13   11.11    9.88
  -2   1 -13   26.84   22.05
  -2  -1 -13   29.58   15.17
   5   9   2    7.49   23.06
   5  -9   2    7.84   16.48
   5  -9   2    8.25   14.40
  -1  -8  -9  369.66   32.28
   1   8   9  300.34   22.34
   5   9   2   -4.87   23.32
   1   8   9  340.85   31.53
  -1  -8  -9  299.04   21.33
  -5  -9  -2   -8.48   11.63
   1  -8   9  324.89   30.72
   1  -8   9  304.54   17.52
  -5  -9  -2   10.31   13.90
   8   7  -2 2126.04   69.52
  -8  -7   2 2125.47   45.70
  -8  -7   2 2061.77   49.89
   8   7  -2 2049.07   56.38
   8  -7  -2 2114.45   65.46
   8  -7  -2 2096.10   57.78
   7  -3   7    4.70    7.31
   7   3   7    4.04   13.16
  -7  -3  -7   -4.85   12.07
   4  10  -2 1062.33   27.78
  -7  -3  -7   -6.04   12.96
  -7   3  -7    8.10   10.46
   4 -10  -2 1038.12   54.64
   7  -3   7  -18.40   13.07
   7   3   7   -3.41   12.85
   4 -10  -2 1051.54   33.21
  -7   3  -7    1.65   12.91
   4  10  -2 1086.16   45.72
  -4 -10   2 1075.92   49.68
  -4 -10   2 1131.16   29.37
   4  -7 -11  177.10   14.21
  -9  -1  11  233.89   24.51
  -4  -7  11  202.11   19.87
  -4  -7  11  144.02   25.87
  -4   7  11  178.87   17.73
  -9   1  11  140.96   29.40
  -9   1  11  197.51   22.10
   4  -7 -11  217.66   20.38
  -4   7  11  244.36   25.21
  -9  -1  11  205.43   20.14
  -9  -3  10   76.88   22.21
   9   3 -10   80.20   35.07
  -9   3  10   76.62   15.86
  -9   3  10   82.28   13.47
  -7   6  10  233.61   13.70
   8   0   6 1377.03   59.50
  -8   0  -6 1373.33   43.11
   7   6 -10  226.46   37.79
   7  -6 -10  242.54   21.50
  -7   6  10  194.46   15.52
  -8   0  -6 1382.88   39.91
  -7  -6  10  223.60   24.78
   7  -6 -10  220.32   12.38
   8   0   6 1331.71   46.57
   4  10  -1   76.79   24.96
  -4 -10   1   80.00   15.37
  -4 -10   1  108.55   19.83
   4  10  -1   74.20   18.29
   4 -10  -1  112.44   30.32
   4 -10  -1   74.51   21.83
  -4  -5  13  740.19   45.54
  -4   5  13  769.45   44.77
  -4  -5  13  661.17   25.43
  -4   5  13  670.33   26.50
   9  -4  -9  124.52   12.40
   9  -4  -9  155.05   10.87
  -9  -4   9  140.99   24.26
   9   4  -9  164.11   23.66
  -9   4   9  138.75   15.09
  -9   4   9  119.30   12.45
   7   8  -1   -0.40   13.40
   3  -9  -8  437.85   15.11
  -7  -8   1   11.76   15.89
  -7  -8   1   10.27   16.44
   3  -9  -8  417.76   21.57
  -3  -9   8  442.65   18.85
  -3   9   8  455.45   31.86
   7   8  -1    7.97   25.26
   7  -8  -1    4.21   16.07
  -3  -9   8  459.77   23.49
  -3  -9   8  454.98   28.95
  -3  -9   8  430.86   19.63
   7  -8  -1   13.28   13.54
  -3   9   8  443.60   16.18
   6   4   8 1185.78   34.79
   6   4   8 1184.27   55.67
  -6  -4  -8 1078.11   34.75
  -6  -4  -8 1036.65   34.14
  -6   4  -8 1086.86   34.91
   6  -4   8 1069.74   21.81
   6  -4   8 1154.15   52.27
  -6   4  -8 1084.49   27.10
  -2   8  10 1264.82   28.50
   2  -8 -10 1212.34   28.43
  -2  -8  10 1228.09   24.56
  -2  -8  10 1284.98   28.12
  -2   8  10 1282.69   30.73
   2  -8 -10 1123.40   39.26
  -2  -8  10 1216.46   32.95
  -2  -8  10 1187.27   25.96
 -10   2   8 1017.04   35.05
  10  -2  -8 1016.96   21.00
 -10   2   8  974.46   28.71
  10   2  -8  972.77   28.46
  10  -2  -8 1009.97   32.29
  10   2  -8 1017.52   35.74
 -10  -2   8 1005.35   36.25
 -10  -2   8 1041.27   30.16
   9   5   0 1897.39   47.54
  -9  -5   0 1990.45   48.21
  -9  -5   0 1969.08   63.62
   9  -5   0 1925.73   46.31
   9   5   0 1907.70   60.27
   8   7  -5  431.80   44.54
  -8  -7   5  379.53   21.06
   8   7  -5  419.15   28.96
   8  -7  -5  388.30   30.71
  -8  -7   5  421.99   28.75
   8  -7  -5  405.81   24.05
   3  10  -5   30.87   14.06
   8   4 -11   -0.60   14.38
   2 -10   4 2069.21   66.48
  -1   3  14 1708.94   43.64
   3 -10  -5   44.55   26.12
  -3 -10   5   22.96   14.18
  -1  -3  14 1743.19   38.24
   2  10   4 2015.25   39.51
   2  10   4 1950.44   45.79
   3 -10  -5   34.51   18.64
  -8   4  11  114.96   26.22
  -2 -10  -4 2010.94   48.83
  -3 -10   5   26.42   11.26
   2 -10   4 2143.42   59.10
  -8  -4  11  143.70   23.66
  -1  -3  14 1632.26   40.76
  -2 -10  -4 1995.16   65.05
  -8   4  11   90.05   14.28
   3  10  -5   55.79   17.97
   1  -3 -14 1647.84   40.21
   4  10  -3  311.08   28.36
   4  10  -3  357.91   33.25
  -4 -10   3  321.31   23.24
  -4 -10   3  322.69   18.97
   4 -10  -3  300.96   22.75
   4 -10  -3  282.94   27.10
  -7  -8   5   92.85   28.03
   7   8  -5  229.23   16.65
   7  -8  -5  202.76   28.63
   7   8  -5  195.02   23.25
  -7  -8   5  177.33   35.74
   8   1   6    5.58   18.31
   8  -1   6   24.21   12.15
   8   1   6    1.24   23.70
  -8   1  -6    2.90   17.02
  -8   1  -6   25.88   17.14
  -8  -1  -6   42.00   27.98
   8  -1   6   17.08   18.17
  -8  -1  -6    3.69   12.92
  -6  -2  -9  311.12   35.08
   6   2   9  351.06   24.48
  -6  -2  -9  319.49   24.47
   6  -2   9  376.05   28.96
  -6   2  -9  289.07   23.21
   6  -2   9  331.44   39.63
  -6   2  -9  320.38   25.44
   6   2   9  364.10   40.09
   1 -10   5  964.61   34.43
   1 -10   5  988.14   44.73
   1  10   5 1037.96   32.52
  -1 -10  -5  971.17   34.67
   1  10   5 1004.91   37.17
  -1 -10  -5  995.92   34.35
 -10   2   0   -6.52   12.39
  10   2   0   -3.44   14.90
 -10  -2   0   -1.76   11.91
  10  -2   0   15.47   16.27
  10  -2   0   12.34   27.01
 -10   2   0   -7.12   21.35
 -10  -2   0    9.22   13.22
  10   2   0   25.28   15.72
   0  -2  14  286.73   21.45
   0   2  14  320.08   25.03
   0  -2  14  285.33   24.02
   0  -2 -14  332.52   24.15
  -3  -8  10 1478.23   28.45
  -3  -8  10 1385.83   25.85
  -8   5  10  233.40   16.69
  -3  -8  10 1426.90   44.26
   8   5 -10  188.54   25.87
  -3   8  10 1401.20   40.91
  -3   8  10 1391.65   29.68
   3  -8 -10 1383.42   28.85
   4  10   0  748.16   43.33
  -4 -10   0  663.61   24.45
   8  -5 -10  211.43   12.69
   8  -5 -10  240.04   11.13
  -3  -8  10 1426.62   36.53
   4 -10   0  734.71   51.38
   3  -8 -10 1364.51   40.11
  -8   5  10  212.78   14.14
   4 -10   0  696.07   29.79
  -8  -5  10  242.00   41.09
  -4 -10   0  647.77   46.24
   4  10   0  597.90   36.55
   0  -9  -8  102.76   18.01
   5  -8  -9  159.10   14.14
   0  -9   8  105.31   23.57
   0  -9  -8   99.48   23.25
   0   9   8   84.25   17.28
   0  -9   8   96.09   26.68
   5   8  -9   94.02   17.89
  -5   8   9  128.75   12.62
  -5   8   9  124.76   11.40
   5   8  -9  110.45   18.04
   0   9   8   99.20   15.81
  -5  -8   9  136.72   12.48
   5  -8  -9  143.61   16.02
  10  -3  -7  959.72   36.24
 -10  -3   7  980.87   23.77
  10  -3  -7  950.63   23.05
 -10  -3   7 1075.56   55.55
  10   3  -7  991.71   22.46
  10   3  -7 1070.27   36.45
 -10   3   7  959.16   36.50
 -10   3   7  962.97   22.45
  -5  -3  14  153.58   31.58
  -1  -5  13  806.89   35.15
  -5  -3  14  115.38   23.66
   1  -5 -13  867.27   20.33
   1  -5 -13  910.85   45.22
  -5   3  14  145.72   22.50
  -1   5  13  864.12   25.85
  -1   5  13  890.28   47.67
  -5   3  14  129.84   19.20
  -1  -5  13  829.23   40.19
  -6  -4  13   55.71   17.91
  -6  -4  13   81.73   33.55
  -6   4  13   75.31   15.73
  -6   4  13   57.03   18.27
  10   0  -9    0.77   12.48
   4  -6   9  -16.18   21.16
  -4  -6  -9   -6.39   18.83
   4  -6   9   15.83   11.11
   4   6   9   -2.67   12.85
  -4  -6  -9    2.05   11.02
   4   6   9    2.81   15.98
   1  -8 -10 1043.65   28.46
  -1  -8  10 1017.44   32.63
  -1   8  10 1011.74   38.00
  -1  -8  10 1023.08   34.77
  -1  -8  10 1087.45   31.92
   1  -8 -10 1114.19   29.01
  -1   8  10 1085.82   30.01
  -1  -8  10 1065.60   21.55
   6   9  -2  531.21   27.23
   4  -3  11  124.46   14.30
   6   9  -2  468.42   37.79
  -6  -9   2  482.08   26.98
  -4   3 -11  125.59   20.21
  -4  -3 -11   94.65   19.99
  -6  -9   2  549.87   26.54
   6  -9  -2  504.16   25.75
  -4  -3 -11   85.14   16.41
   4  -3  11   93.85   16.72
   6  -9  -2  578.33   44.80
   4   3  11   91.15   16.50
  -4   3 -11   80.25   25.14
   6   9  -3  214.23   21.86
   6  -9  -3  212.42   24.21
  -6  -9   3  228.24   22.61
   6  -9  -3  263.99   21.16
   6   9  -3  227.73   19.70
  -6  -9   3  220.59   33.68
  -3  -6 -10 1033.77   34.39
   3   6  10 1008.53   30.05
  -8  -7   1   67.61   31.04
   3  -6  10 1179.04   42.95
  -3  -6 -10 1022.09   44.38
   8  -7  -1   67.89   20.54
   3  -6  10 1126.01   26.85
   8   7  -1   59.78   17.56
   8   7  -1   52.84   34.20
   3   6  10 1109.59   38.06
  -8  -7   1   76.83   21.22
   8  -7  -1   58.18   17.50
  -6  -8  -3   -4.94   13.72
  -9   0  -4 2877.32   58.68
  -9   0  -4 2830.93   47.61
   6   8   3    2.75   15.04
   9   0   4 3026.02   51.48
   6  -8   3   16.71   16.25
  -6  -8  -3    3.43   12.16
   9   0   4 3023.98   81.89
   6  -8   3   -3.81   13.64
   6   8   3    2.51   25.22
  10   3  -1    3.61   26.60
  -6  -7  -5   15.24   16.73
 -10  -3   1   15.37   16.24
 -10   3   1   14.25    8.81
 -10   3   1   26.81   16.43
   6  -7   5   -0.56   14.65
 -10  -3   1   17.00   15.85
   6  -7   5   27.82   26.49
  10  -3  -1   11.42   14.07
   6   7   5   18.96   17.41
   6   7   5   -1.53   25.06
  10  -3  -1   17.05   16.22
  10   3  -1    4.72   14.91
  -6  -7  -5   18.12   18.02
   8  -6   2   28.93   18.51
   5   8   5   -4.35   25.43
  -5  -8  -5   14.38   19.96
   8  -6   2   36.38   25.16
   5   8   5  -15.07   24.25
  -5  -8  -5   -6.11   14.14
  -8  -6  -2   11.01   16.60
   8   6   2   -9.19   16.92
  -8  -6  -2    2.36   16.32
   8   6   2   25.87   18.50
   5  -8   5   -0.44   13.81
   5  -8   5  -10.72   15.78
   1 -10  -6    3.95   13.72
  -1 -10   6   20.77   14.87
  -1 -10   6   19.79   21.27
   1 -10  -6   23.36   14.85
  -1  10   6    9.00   14.48
  -1  10   6   15.99    9.68
  -6   2  14 1479.97   37.05
  -6  -2  14 1462.88   38.40
   3   7   9 1143.04   37.09
   3  -7   9 1174.10   29.36
  -6   2  14 1491.87   41.97
   3   7   9 1186.65   32.86
   3  -7   9 1172.65   46.45
  -6  -2  14 1459.26   61.77
  -3  -7  -9 1187.32   35.40
  -3  -7  -9 1187.22   34.91
  -9   4  -2 1642.05   63.77
  -9  -4  -2 1678.97   42.23
   9   4   2 1685.10   43.36
   9  -4   2 1732.57   45.95
  -9  -4  -2 1695.78   44.11
   9   4   2 1718.63   44.70
  -2  -2 -13  838.31   22.93
   2   2  13  871.62   33.28
  -2   2 -13  883.53   21.91
   2   2  13  877.53   30.74
  -2   2 -13  800.63   37.82
  -2  -2 -13  908.91   31.81
   2  -2  13  881.06   27.82
   2  -2  13  909.85   31.21
  10   0   1  -17.17   24.58
 -10   0  -1  -13.10   26.48
  10   0   1   -1.01   11.94
 -10   0  -1   13.50   11.75
   6  -8  -8  471.12   22.79
   0  -7  11  890.96   22.91
   0   7  11  884.45   24.71
   0  -7  11  951.39   20.34
   6   8  -8  521.88   24.79
 -10  -1   9  112.64   21.57
 -10   1   9   92.61   19.00
   0  -7 -11  966.55   29.82
   0   7  11  924.73   46.78
   6   8  -8  501.55   25.89
 -10   1   9  151.11   15.78
  -6  -8   8  526.27   19.06
   0  -7  11  947.45   23.36
  -6  -8   8  566.69   27.71
   0  -7  11  924.77   20.94
  10   1  -9  114.56   34.32
   6  -8  -8  491.00   29.65
   0  -7 -11  893.13   26.15
  -9  -3  -3   37.99   17.89
   9  -3   3   42.63   30.17
  -9   3  -3   20.54   12.99
   9   3   3   21.70   28.50
  -9   3  -3   11.48   18.77
  -9  -3  -3   10.61   16.28
   9  -3   3   13.36    8.79
   9   3   3   20.15   27.67
   5   3  10  129.96   35.61
   5  -3  10  124.83   22.78
  -5  -3 -10  135.73   33.14
   5   3  10  127.18   19.14
   5  -3  10  125.21   30.81
  -5   3 -10  107.95   13.20
  -5   3 -10  165.65   18.57
  -5  -3 -10  133.63   19.01
  -3 -10  -3  175.93   38.01
   6   9  -1   98.14   19.44
  -2 -10   6   87.67   16.52
  -6  -9   1  101.27   20.51
   4  -7   8  237.22   21.93
  -3 -10  -3  151.80   26.94
   6  -9  -1   74.57   22.33
   3  10   3  185.79   18.23
   3  10   3  142.44   22.23
  -6  -9   1  103.72   19.48
   6  -9  -1   72.32   30.46
  -2  10   6   92.71   17.93
  -2 -10   6   97.79   18.00
  -6   7  10 1861.09   44.14
   3 -10   3  231.68   24.33
  -2 -10   6   82.70   11.47
   6   9  -1   95.40   18.29
   2  10  -6   -4.08    8.20
  -4  -7  -8  209.30   35.87
  -4  -7  -8  205.74   36.15
   6  -7 -10 1872.57   44.67
   4  -7   8  219.82   19.67
   2 -10  -6  106.49   22.57
   3 -10   3  206.07   21.55
  -6   7  10 1897.66   32.40
   4   7   8  220.34   21.54
   6  -7 -10 1897.11   32.66
   4   7   8  202.05   39.99
   6   7 -10 1907.43   43.63
  -9  -2  11   74.54   36.52
  -9   2  11  102.42   18.06
  -9  -2  11   73.36   18.76
  -9   2  11   83.80   24.13
  -5   6  12  590.30   23.12
  -5  -6  12  607.18   37.19
  -7   0  -8   24.59   15.81
   7   0   8   22.14   18.09
  -5  -6  12  592.07   29.21
  -5   6  12  591.63   24.97
   7   0   8   36.67   14.93
  -7   0  -8   -0.09   12.04
  -9   1  -4 1424.39   60.51
  -9   1  -4 1323.09   29.38
   0   6  12   17.09   10.30
   9  -1   4 1390.10   31.18
  -9  -1  -4 1461.42   41.55
   0  -6 -12   17.03   17.92
   0  -6 -12   22.47   15.47
   0  -6  12   26.90    9.90
   0  -6  12   14.71   17.82
   7  -8   0  225.72   22.64
   9   1   4 1406.77   36.23
   7   8   0  224.89   25.14
   9   1   4 1349.69   43.41
   0  -6  12   23.49   14.38
   9  -1   4 1372.21   43.74
   7   8   0  234.28   35.16
  -9  -1  -4 1329.77   46.28
   0   6  12   28.87   26.62
  -7  -8   0   61.69   38.08
   0  -6  12   15.65    7.89
  -7  -8   0  252.12   24.90
   7  -8   0  251.99   40.96
   6  -9  -4    6.26   15.00
   4 -10  -4 1601.17   60.59
  -3   0  15  -19.17   26.29
   6   9  -4   -1.41   11.67
   6  -9  -4   26.82   21.20
  -6  -9   4   -8.69   21.87
  -4 -10   4 1617.13   34.58
   4 -10  -4 1620.38   54.64
  -6  -9   4   -8.14   14.46
   4  10  -4 1490.05   35.89
  -3   0  15  -20.10   18.95
   6   9  -4    8.91   13.99
  -4 -10   4 1619.86   38.81
   4  10  -4 1593.73   33.58
  -7   3  13  151.47   18.21
  -7  -3  13  137.52   24.66
  -7  -3  13  132.40   20.68
  -7   3  13  188.73   21.37
  -7  -7  -3 2193.05   52.01
   8   7  -6   54.08   18.68
   8  -7  -6    0.33   23.19
  -7  -7  -3 2255.72   51.18
   7  -7   3 2166.95   46.83
   8   7  -6    1.72   18.08
  -8  -7   6   98.48   14.90
  -8  -7   6   93.59   23.10
   7   7   3 2220.10   52.26
   7   7   3 2167.81   67.59
   7  -7   3 2144.27   69.79
  -8   3  12 9152.75  133.89
  -8  -3  12 8990.46  125.73
  -8   3  12 9011.06  125.27
  -8  -3  12 9241.79  157.75
  -3  -3 -12  635.07   23.21
   3  -3  12  661.80   34.41
   3  -3  12  712.67   33.79
  -3   3 -12  625.97   21.40
  -3  -3 -12  659.21   29.95
   3   3  12  687.19   47.70
   3   3  12  665.33   22.54
  -3   3 -12  711.56   32.67
 -10  -4   4  457.14   22.72
  10   4  -4  460.84   32.68
  10  -4  -4  428.46   36.96
 -10   4   4  407.17   18.98
  10   4  -4  386.00   28.98
  10  -4  -4  404.22   20.77
 -10  -4   4  472.96   29.46
   9  -5  -8  788.30   29.00
  -9  -5   8  773.60   20.22
   9   5  -8  770.09   26.08
  -9   5   8  772.47   26.03
   9  -5  -8  733.59   23.05
  -9   5   8  780.41   29.37
   9   5  -8  768.25   35.37
  -9  -5   8  806.22   36.68
  -3   4  14  986.59   36.10
  10  -1   1   37.19   20.73
  -3  -4  14 1042.64   34.31
  -3  -4  14  944.41   43.45
  -3   4  14 1062.19   49.26
 -10   1  -1    6.44   17.65
 -10  -1  -1  -10.89   22.24
  10  -1   1   30.13   19.56
  10   1   1   21.59   15.50
 -10  -1  -1   14.09   17.28
 -10   1  -1   39.89   17.84
  10   1   1   25.14   18.70
  -4  -5 -10  738.09   31.77
   4   5  10  807.54   40.37
   4  -5  10  817.16   34.76
   4   5  10  764.09   34.46
   4  -5  10  765.51   19.92
   4  -5  10  754.11   18.70
   4  -5  10  782.08   41.54
  -4  -5 -10  768.10   42.99
  -9  -6   4 1309.60   47.95
   9   6  -4 1196.38   61.13
   9   6  -4 1208.74   30.80
   9  -6  -4 1220.83   32.03
  -9  -6   4 1251.51   41.67
   9  -6  -4 1191.56   35.10
  -4 -10  -1 1823.93   38.17
   4 -10   1 1718.05   47.27
   4  10   1 1728.76   42.54
  -4 -10  -1 1812.01   45.76
   4 -10   1 1709.98   58.74
   4  10   1 1749.92   38.08
   2  -9   7   -9.35   11.55
   2   9   7    5.64   12.59
   2  -9   7   -3.76   13.17
  -2  -9  -7   14.45   15.57
  -2  -9  -7   -2.57   19.97
   2   9   7   -0.45   12.72
   3   9   6    9.50   23.20
  -4   0  15   16.62   27.91
  -9  -6   3 1761.82   47.24
  -9  -6   3 1724.00   55.70
   9  -6  -3 1697.65   58.08
   9   6  -3 1682.58   38.37
  -4   0  15    4.17   14.74
   9   6  -3 1811.49   67.33
   3   9   6    8.41   23.44
  -3  -9  -6   11.47   27.78
  -3  -9  -6   21.26   14.48
   3  -9   6   12.23   13.35
   9  -6  -3 1674.03   37.81
   3  -9   6   -5.41   24.54
   5   6   8  968.43   56.49
  -7  -1  -8   89.50   20.66
  -7   1  -8   84.35   33.21
   5  -6   8 1004.41   29.70
   5   6   8  961.27   33.23
   7  -1   8  111.39   26.40
  -8   2  -6  861.30   31.16
  -5  -6  -8 1023.34   50.57
   7   1   8   97.32   35.15
   7  -1   8  118.37   21.75
  -8  -2  -6  863.30   52.28
   8  -2   6  920.91   36.20
   7   1   8  107.74   19.69
  -5  -6  -8  971.22   35.29
   5  -6   8  928.78   49.34
   8   2   6  924.95   53.11
  -8  -2  -6  969.96   43.99
  -8   2  -6  870.30   34.77
   8   2   6  888.49   48.22
   8  -2   6  841.57   34.04
   7   8  -6   -0.31    8.62
 -10  -4   5  322.55   27.35
  10   4  -5  253.80   26.14
 -10  -4   5  242.77   18.42
  10  -4  -5  256.56   26.96
 -10   4   5  236.19   11.57
 -10   4   5  253.73   13.71
   7  -8  -6    2.79   11.55
  -7  -8   6    2.83   18.07
  -7  -8   6    8.17   25.27
   7  -8  -6    8.96   15.45
   7   8  -6   -5.26   13.27
  10   4  -5  268.42   17.63
  10  -4  -5  227.40   32.14
   0 -10   6  997.81   30.58
   0 -10   6 1114.42   48.73
   0 -10  -6 1034.08   33.39
   0 -10  -6 1040.75   48.81
  -3  -1  15    7.31   15.01
   0  10   6 1076.48   32.47
   0  10   6 1035.66   26.23
  -3  -1  15    5.52   13.03
  -3   1  15   -0.18   25.45
  -3   1  15   -6.72   13.69
   0  11   0   -8.97   13.80
   0 -11   0   16.14   14.29
  -5  -5  13  179.86   19.91
  -5   5  13  150.95   20.85
  -5   5  13  171.24   18.10
  -5  -5  13  177.81   36.37
  10   4  -3 1004.70   36.14
 -10  -4   3 1035.48   36.98
 -10  -4   3  987.29   31.02
 -10   4   3 1002.51   33.23
  10   4  -3  998.53   30.29
  10  -4  -3  942.10   32.92
  -4  -9   8 1618.00   49.32
   4  -9  -8 1541.02   52.28
   4   9  -8 1544.79   34.64
  -4   9   8 1600.93   28.29
  -4  -9   8 1651.47   43.34
   4  -9  -8 1555.86   47.51
   4   9  -8 1525.88   30.45
  -4   9   8 1594.85   35.34
   2  -7  10 1637.45   48.00
   2  -7  10 1654.03   42.70
   2   7  10 1634.75   43.00
  -2  -7 -10 1668.14   55.89
  -2  -7 -10 1736.69   52.49
   2   7  10 1630.48   35.92
   5   9  -7 1540.24   47.90
  -2   0  15   11.00   17.90
   5  -9  -7 1383.42   45.07
  -2   0  15   13.60   25.48
   5  -9  -7 1377.77   51.65
  -5  -9   7 1478.63   43.34
  -5  -9   7 1451.38   36.60
   5   9  -7 1395.14   40.05
  -2  -4  14   50.19   15.77
  -2   4  14   61.97   28.99
   2  -4 -14   61.31   28.98
  -2  -4  14   58.51   18.48
  -4   8  10 2288.68   48.70
   4  -8 -10 2187.75   38.40
   3   5  11   10.58   11.49
   4  -8 -10 2224.95   41.08
  -3  -5 -11    8.02   15.74
  -4  -8  10 2322.95   43.53
  -4   8  10 2276.38   40.60
   3  -5  11   -6.94   11.90
   3  -5  11   14.70   14.87
   3   5  11   19.43   16.76
  -4  -8  10 2288.04   59.39
  -3  -5 -11   18.43   20.75
  -4  -8  10 2263.66   49.41
   3  -5  11    2.84    9.25
   3  -5  11   14.09   13.61
  -4  -8  10 2279.19   36.60
   2  -6  11  168.52   13.76
  -2  -6 -11  226.34   21.90
   2   6  11  204.72   38.79
   2   6  11  188.02   17.52
   2  -6  11  240.83   16.82
   2  -6  11  184.79   13.86
  -2  -6 -11  152.33   28.66
   2  -6  11  212.26   12.51
   0  11  -1  385.96   39.13
   0  11   1  308.48   39.24
   0 -11   1  411.02   25.87
   0 -11  -1  379.59   26.92
   9  -6  -5  483.08   21.80
   9   6  -5  480.76   49.47
   9   6  -5  512.13   30.84
  -9  -6   5  555.21   33.29
   9  -6  -5  456.38   25.08
  -9  -6   5  527.81   34.52
  -4   1  15   11.40   19.40
  -1  -4 -13  532.11   27.11
   1  -4  13  497.08   16.59
  -4  -1  15   21.03   26.27
  -4  -4  14  834.65   29.54
  -4   4  14  836.89   30.57
  -1  -4 -13  529.21   27.84
   1   4  13  469.64   29.85
   1   4  13  473.15   25.50
   1  -4  13  453.57   30.82
  -4   1  15   31.20   16.25
   1  -4  13  487.89   21.81
  -4  -4  14  888.42   34.03
   1  -4  13  467.53   22.53
  -4   4  14  857.09   35.20
  -4  -1  15    8.38   18.83
   5  -7 -11 1106.48   34.85
  -5   7  11 1142.55   27.51
  -5   7  11 1122.89   29.36
  -5  -7  11 1147.75   34.89
  -5  -7  11 1159.52   42.59
   5  -7 -11 1140.56   23.66
  -7  -5  -6 3207.49   63.59
  -7  -5  -6 3198.82   62.04
   7   5   6 3180.72   80.42
  -5  -9  -3   60.59   17.68
  -7   5  -6 3168.70   63.19
   5  -9   3   43.25   20.47
   5  -9   3   43.30   18.05
  -5  -9  -3   46.21   34.29
   7  -5   6 3171.67   63.96
   5   9   3   43.81   18.47
   5   9   3   41.86   18.52
   7   5   6 3227.37   64.66
  -8   6   9  421.61   25.50
  -8  -6   9  491.81   30.21
   8  -6  -9  459.37   16.20
  -8   6   9  469.67   15.47
   8  -6  -9  452.95   28.11
   8   6  -9  400.76   29.82
  -8   0  13   -4.24   14.37
   1   0  14   31.73   27.21
  -8   0  13  -17.86   17.48
  -1   0 -14   55.76   16.84
   8  -7   0   51.26   33.78
   8  -7   0   66.18   28.57
   8   7   0   53.48   21.12
  -8  -7   0   38.91   20.05
   8   7   0   42.85   18.18
  -8  -7   0   39.98   30.78
   6   9   0  691.62   43.24
   6  -9   0  696.86   50.34
  -6  -9   0  648.48   47.44
   6  -9   0  674.89   29.37
   6   9   0  611.19   29.79
  -6  -9   0  640.68   29.36
   7  -7  -9  413.35   28.53
   7   7  -9  416.80   14.08
   1  11   0   16.96   12.93
  -7   7   9  433.54   14.78
  -5  -5  -9 1057.90   34.59
   1 -11   0  -14.63   21.79
   7   7  -9  432.24   41.85
  -1 -11   0    6.37   15.36
   5   5   9 1000.82   32.61
   5   5   9  968.80   38.61
   5  -5   9  999.22   29.51
   1 -11   0  -12.49   15.45
  -7   7   9  419.27   15.64
   5  -5   9 1061.02   49.09
  -7  -7   9  400.96   28.00
  -7  -7   9  385.30   15.44
  -5  -5  -9 1003.59   35.44
   7  -7  -9  383.82   17.00
   9  -6  -2 1044.56   31.58
   9  -6  -2 1045.56   35.39
  -1 -11   1  -29.91   25.50
  -9  -6   2 1143.00   39.57
   1  11  -1   23.32   23.83
   1 -11  -1    2.49   15.93
   9   6  -2 1052.25   39.69
   9   6  -2 1022.37   31.43
  -9  -6   2 1089.51   50.15
  -1  11   1   -5.81   15.53
   0   8  10   17.14   12.89
   0  -8  10   42.72   18.71
   0  -8 -10   28.69   22.78
   0   8  10   26.22   15.03
   0  -8 -10   21.13   22.41
   0  -8  10   12.88   10.19
   9  -5   1   -4.01   26.40
   9   5   1    8.68   14.46
  -9  -5  -1    3.70   15.63
   9   5   1   -1.62   16.43
  -9  -5  -1   -5.15   15.40
  -9   5  -1   15.64   16.15
 -10  -3   8 1790.29   38.62
 -10  -3   8 1904.95   66.61
  10   3  -8 1807.96   37.98
  10   3  -8 1771.64   46.25
  10  -3  -8 1783.20   38.05
  10  -3  -8 1775.03   32.75
 -10   3   8 1758.02   36.17
 -10   3   8 1756.61   32.17
   6  -9  -5 1854.27   61.91
   6   9  -5 1907.26   38.27
  -2   1  15    9.24   32.85
  -2  -1  15   41.34   17.15
   6  -9  -5 1931.37   54.65
  -2   1  15   31.92   18.09
   6   9  -5 1829.94   57.26
  -6  -9   5 2017.46   44.76
  -6  -9   5 1978.65   55.86
  -2  -1  15   41.29   19.77
 -10   2   9    7.98   13.12
 -10  -2   9    2.57   27.33
 -10   2   9    9.27   16.95
  10   2  -9    1.30   14.80
  10   4  -6   13.96   18.86
 -10  -4   6    2.89   18.78
  10  -4  -6    3.81   18.01
 -10  -4   6   10.65   19.15
  10  -4  -6   24.52   13.33
 -10   4   6   21.29    8.19
 -10   4   6   18.59   15.72
  10   4  -6   29.61   11.37
   8   5   4 1067.37   36.53
  -8  -5  -4 1042.51   55.44
   8  -5   4 1014.34   38.80
  -8  -5  -4  955.24   36.51
   8   5   4  954.93   37.94
  -8   5  -4 1009.63   37.82
  -8  -4  -5  147.45   21.83
  -8   4  -5  151.58   38.44
   8   4   5  221.54   24.02
   8   4   5  134.64   23.67
   8  -4   5  141.36   40.59
  -8  -4  -5  135.55   24.38
   3 -10  -6   -7.57   17.86
   3  10  -6   54.91   21.69
  -3 -10   6   30.70   11.98
   3  10  -6   37.69   11.35
   3 -10  -6   56.10   25.64
  -3 -10   6   32.53   14.43
  -5  -7  -7  135.50   22.82
  -5  -7  -7  132.97   21.62
   5   7   7  203.89   21.58
   5  -7   7  205.28   22.33
   5  -7   7  122.80   30.85
   5   7   7  130.19   24.88
   9   2   4  386.84   26.08
   9  -2   4  415.60   27.17
  -9   2  -4  383.12   29.99
  -9   2  -4  392.23   16.22
   9   2   4  391.39   29.57
  -9  -2  -4  374.61   45.34
  -9  -2  -4  372.26   24.35
   9  -2   4  442.70   30.17
  -3  -8  -8  218.42   36.43
 -10   4   2  541.95   27.78
 -10  -4   2  456.47   29.92
   3  -8   8  201.57   21.46
  10   4  -2  538.25   30.64
 -10  -4   2  496.19   40.11
  10   4  -2  484.68   38.35
   3  -8   8  194.62   29.30
  -3  -8  -8  161.99   20.73
  10  -4  -2  395.87   27.76
   3   8   8  178.18   37.76
   3   8   8  184.07   20.52
   6  -3   9    9.70   10.00
  -6  -3  -9    6.80   14.83
   1   1  14  187.23   23.05
   6   3   9   23.39   23.74
  -8  -1  13    5.30   14.02
  -8   1  13   -0.22   13.56
  -6   3  -9   16.01   23.57
  -6  -3  -9   -7.57   14.53
   6   3   9    6.00   16.42
  -8   1  13   12.49   25.78
   6  -3   9  -33.18   23.85
  -8  -1  13   11.44   17.00
   1  -1  14  238.68   21.06
  -6   3  -9    8.12    8.84
  -1  -1 -14  201.37   22.16
  -1   1 -14  206.60   20.15
   7   6   5    3.52   15.83
 -10   3   0  445.01   28.76
   7  -6   5   12.52   22.87
   7   6   5    5.46   17.26
  -7  -6  -5   23.01   18.60
  -7  -6  -5    9.98   17.36
  10  -3   0  457.29   44.60
  10   3   0  469.21   43.27
  10   3   0  452.53   42.31
 -10  -3   0  419.60   27.28
  10  -3   0  412.99   23.42
 -10  -3   0  404.17   27.89
   7  -6   5   -3.28   26.80
 -10   3   0  438.18   15.24
   1 -11   1  626.86   29.28
   1  11   1  574.50   25.16
  -1 -11  -1  619.03   45.63
   1 -11   1  586.39   32.59
  -1 -11  -1  579.09   16.87
   1  11   1  615.10   29.26
   1   9   8  595.91   26.17
  -1  -9  -8  644.84   24.55
   1  -9   8  618.05   23.26
   0  -3  14  256.91   22.75
   0  -3 -14  265.36   24.26
  -1  -9  -8  637.93   43.28
   0  -3  14  296.98   32.02
   1  -9   8  547.09   26.44
   0   3  14  286.90   25.98
   1   9   8  638.93   39.01
   4 -10  -5 1056.14   36.63
   4  10  -5 1060.02   28.18
   4  10  -5 1042.88   29.56
   4 -10  -5 1044.85   48.10
   0 -11  -2  558.52   30.51
   0  11  -2  614.55   28.66
  -4 -10   5 1079.45   29.03
   0  11   2  536.39   28.19
  -4 -10   5 1095.70   32.10
   0 -11   2  602.24   28.30
   4   9   5  909.18   34.01
   4  -9   5  978.69   36.26
   4  -9   5 1071.58   33.20
   4   9   5 1112.35   50.87
  -4  -9  -5 1056.53   33.02
  -4  -9  -5 1012.61   37.00
 -10   2  -1 1620.47   39.72
 -10   2  -1 1668.26   44.62
 -10  -2  -1 1652.25   40.28
   0  -5  13   28.73   19.62
 -10  -2  -1 1720.80   44.82
   0   5  13   63.93   29.09
  10  -2   1 1702.74   42.06
   0  -5  13   27.19   13.84
  10   2   1 1722.41   41.85
  10   2   1 1734.14   44.89
   0  -5 -13   48.99   29.98
   0   5  13   37.90   15.78
  10  -2   1 1758.46   47.35
   0  -5 -13   69.35   11.72
   1  11  -2   78.92   18.51
  -1  11   2   85.93   30.40
   1 -11  -2   71.72   32.90
  -7   0  14  759.51   52.27
  -1 -11   2   63.27   19.41
  -7   0  14  743.11   44.41
   9   6  -6   92.72   21.06
  -9  -6   6   -2.24   12.56
   9   6  -6   93.79   36.78
   9  -6  -6   71.32   22.10
   9  -6  -6   65.77   16.20
  -9  -6   6   67.91   19.91
   7  -4   7  183.16   38.58
  -7  -4  -7  236.51   23.51
   7   4   7  159.48   37.81
  -7   4  -7  144.96   38.96
   7   4   7  170.08   25.82
  -7  -4  -7  226.78   25.31
   7  -8   1 1727.86   47.43
  -7  -8  -1 1884.84   47.69
   7   8   1 1723.50   44.98
  -7  -8  -1 1759.94   63.34
   7  -8   1 1708.74   42.69
   7   8   1 1643.93   43.34
   2 -10   5 1076.47   46.94
  -2 -10  -5 1051.69   28.19
   7   2   8 6160.79   94.75
  -9   4  10 1181.80   29.77
  -9   4  10 1147.80   26.83
   7  -2   8 6192.26   95.36
  -7  -2  -8 5758.23  110.37
  -7   2  -8 5907.14   92.01
   2  10   5 1077.03   34.25
  -2 -10  -5  935.52   53.32
   9   4 -10 1120.23   40.61
   7   2   8 6009.58   94.08
  -7  -2  -8 5928.53  102.94
   2  10   5 1036.11   29.72
   7  -2   8 6261.28  117.98
   2 -10   5 1039.47   36.52
  -7   2  -8 5847.79   77.30
  -9  -4  10 1106.04   62.46
  -3  -2  15 1447.01   42.59
  -3  -2  15 1402.10   37.68
   8  -7  -7  355.81   31.51
  -3   2  15 1444.03   40.30
  -8  -7   7  270.60   26.71
  -8  -7   7  306.85   43.35
   8  -7  -7  324.30   26.93
   8   7  -7  337.56   27.63
  -3   2  15 1466.83   44.73
  -5   0  15   -1.54   14.12
  -5   0  15  -13.27   27.09
   8   7  -7  276.25   15.65
  -4  -8  -7  122.86   22.93
   4  -8   7  130.92   18.66
  -4  -8  -7  137.83   20.95
   4  -8   7  151.52   22.24
   4   8   7  124.48   20.80
   4   8   7  127.64   22.34
   2  -9  -9  783.45   22.27
  -2   9   9  787.37   25.98
  -2  -9   9  872.28   23.51
  -2  -9   9  807.66   22.79
   2  -9  -9  849.11   38.44
  -2   9   9  841.86   24.64
  -2  -9   9  846.55   27.41
  -2  -9   9  760.61   23.99
  -2  -8  -9  350.94   23.52
  -2  -8  -9  353.62   24.29
   2   8   9  390.74   26.69
   2   8   9  383.42   22.54
   2  -8   9  412.55   20.28
  -6  -3  14   44.45   29.04
  -6   3  14   58.83   16.89
  -6  -3  14   52.11   34.94
   2  -8   9  375.98   22.97
  -6   3  14   68.20   31.95
   4  10   2   82.95   32.81
   4 -10   2  100.37   23.54
   4 -10   2  105.89   20.56
   4  10   2  117.41   17.72
  -4 -10  -2   89.94   36.53
  -4 -10  -2  104.69   17.64
   2   3  13  206.41   15.29
   2  -3  13  210.32   18.50
   2   3  13  199.18   39.55
   2  -3  13  206.01   12.82
   2  -3  13  197.12   19.83
  -2  -3 -13  204.89   36.79
   2  -3  13  222.12   23.02
  -2  -3 -13  216.82   24.36
  -7   1  14  532.87   41.21
  -7  -1  14  555.28   32.01
  -7   1  14  524.68   31.17
  -7  -1  14  553.83   28.53
  -1  -4  14   33.72   21.72
   1  -4 -14   23.80   27.25
  -1   4  14   57.52   27.97
  -1  -4  14    2.22   15.69
  -9  -6   1  352.32   39.84
   9   6  -1  317.93   23.91
   9  -6  -1  299.36   26.79
   9  -6  -1  324.21   23.00
   9   6  -1  263.33   28.41
  -9  -6   1  267.11   28.22
  -4  -2  15   -2.87   15.21
 -10   0  10 2758.96   54.76
 -10   0  10 2668.77   49.69
  -4   2  15   -9.94   15.70
  -4  -2  15  -21.28   18.00
  -4   2  15  -12.62   17.83
  -9  -3  11   76.31   22.98
  -7   5  12 1323.84   33.93
  -9   3  11   80.14   27.00
  -9   3  11   59.41   14.31
  -7  -5  12 1354.59   42.58
  -7   5  12 1259.99   29.91
  -7  -5  12 1280.27   35.88
   9   3 -11   -5.93   17.50
   2  -5  12  295.85   14.41
   2   5  12  261.83   17.63
   2  -5  12  246.29   16.51
   2   5  12  299.09   26.56
  -2  -5 -12  250.99   28.32
   2  -5  12  266.70   26.87
  -2  -5 -12  241.06   24.84
   2  -5  12  293.42   24.25
   1 -10   6  582.24   29.49
  -9   0  12 1126.80   37.15
  -9   0  12 1042.80   46.83
  -1 -10  -6  577.07   29.25
   1 -10   6  604.97   38.17
  -5   1  15   21.83   16.92
   1  10   6  567.45   35.00
  -5  -1  15   32.69   31.83
  -5   1  15   14.74   19.89
  -1 -10  -6  547.06   21.42
  -5  -1  15   25.91   26.83
   1  10   6  606.67   42.82
  -1  -9   9    9.75   18.73
   1  -9  -9    3.70   17.40
   4   0  12 4533.92   68.24
  -4   0 -12 4305.49   81.89
  -4   0 -12 4216.15   64.49
   1  -9  -9   10.87   12.87
  -1  -9   9   70.52   20.05
   4   0  12 4561.82   73.22
  -1   9   9   18.10   13.10
  -1   9   9   13.60   13.44
  -1   0  15    3.32   14.54
  -1   0  15   -1.05   12.92
  -7  -8   7  442.96   30.41
   7  -8  -7  352.47   22.84
   7   8  -7  401.32   17.75
   7  -8  -7  418.37   29.75
   2  11  -1  413.36   25.65
   2 -11  -1  408.36   30.61
   7   8  -7  400.29   26.61
  -7  -8   7  361.94   44.03
   2  11  -1  408.15   16.79
   2 -11  -1  428.97   27.52
  -2 -11   1  392.10   23.75
  -2 -11   1  383.69   27.16
   5   0  11   -1.36   21.09
  -5   0 -11   -1.61   11.46
   5   0  11   12.65   22.45
  -5   0 -11   -0.84   11.31
  -3 -10  -4   37.34   25.42
  -3 -10  -4  115.51   22.13
   3  10   4  104.91   20.82
   3 -10   4   97.38   31.76
   3  10   4  117.47   18.07
   3 -10   4  129.37   23.13
  10   4  -7   53.87   11.65
 -10   4   7   60.32   10.21
 -10  -4   7   67.42   22.19
  10  -4  -7   52.13   14.27
  10  -4  -7   83.79   18.89
 -10   4   7   42.38   19.40
  10   4  -7   72.10   21.96
  -1 -11  -2    3.69    7.72
  -2  -2  15  869.27   46.71
   1  11   2   14.58   16.40
  -2   2  15  923.14   35.36
   1  11   2   10.24    9.25
  -5   4  14 1879.02   62.31
  -5   4  14 1723.07   56.28
  -5  -4  14 1785.00   45.91
   1 -11   2   28.54   25.61
  -2  -2  15  924.33   35.50
   1 -11   2   17.46   18.53
  -1 -11  -2    2.29   15.30
  -2   2  15  925.39   38.68
  -5  -4  14 1804.18   41.66
   2  11   0  883.38   22.81
  -2 -11   0  840.77   50.75
   6   9   1   66.50   19.88
   6   9   1   69.02   19.53
  -2 -11   0  852.86   30.23
   6  -9   1   58.11   22.00
   2 -11   0  883.05   36.88
   6  -9   1   65.07   19.55
   2 -11   0  866.35   33.74
  -6  -9  -1   57.00   20.94
  -6  -9  -1   56.52   18.79
   2  11   0  823.28   48.30
  -3   9   9  736.22   35.32
  -3  -9   9  598.52   21.82
  -3  -9   9  722.56   30.45
   6   6   7  159.75   25.53
  -3  -9   9  681.19   19.52
   3  -9  -9  653.07   24.15
  -3   9   9  689.91   31.16
  -6  -6  -7  231.38   24.45
   6  -6   7  119.97   22.94
   6   6   7  140.64   36.13
  -3  -9   9  680.76   23.39
   3  -9  -9  648.70   19.72
   6  -6   7  139.74   20.04
  -6  -6  -7  156.40   24.80
  -8  -6  -3  148.04   24.80
  -8  -6  -3  140.27   24.20
   8   6   3  139.29   25.22
   4   4  11  640.04   48.98
  -4  -4 -11  506.05   36.84
  -4   4 -11  577.66   23.73
   8   6   3  150.85   23.01
   8  -6   3   74.01   39.72
  -4  -4 -11  504.09   44.45
   4   4  11  555.29   37.03
   4  -4  11  619.53   37.61
   4  -4  11  543.13   28.97
   8  -6   3  134.60   34.03
  -7   6  11  330.07   28.86
  -7  -6  11  284.81   27.47
  -7   6  11  309.37   16.58
  -7  -6  11  281.25   23.19
   6  -8   4  655.29   50.44
  -6  -8  -4  623.52   33.69
 -10   1  10  717.60   25.31
  -6  -8  -4  635.83   47.49
 -10  -1  10  713.01   33.64
   6   8   4  595.19   32.08
   6   8   4  573.46   30.22
   6  -8   4  589.89   28.93
 -10   1  10  744.64   44.33
  10   1 -10  569.63   29.71
   1  -7  11   27.73   15.83
   8   3   6  893.58   50.05
   8  -3   6  803.09   29.36
   1   7  11   37.48   20.34
   1  -7  11   12.30    8.75
   1  -7  11   44.53   11.95
  -1  -7 -11   72.19   17.97
   8   3   6  787.49   35.09
  -1  -7 -11   51.67   25.12
   1   7  11   47.83   28.83
  -8  -3  -6  753.87   31.25
   8  -3   6  818.52   35.51
  -8   3  -6  810.95   34.93
  -8  -3  -6  773.18   34.33
  -8   3  -6  762.73   26.99
   6   9  -6  372.57   19.58
   6   9  -6  387.66   24.47
   6  -9  -6  443.82   22.19
  -6  -9   6  471.98   26.37
  -6  -9   6  396.01   22.69
   6  -9  -6  417.83   38.46
 -10  -4   1   73.25   31.32
 -10   4   1   90.05   32.85
  -1  11   3  205.06   23.11
  10  -4  -1   45.77   20.48
   1  11  -3  290.65   22.75
   1 -11  -3  235.80   25.02
 -10  -4   1   50.29   20.83
  -1 -11   3  217.52   23.30
  -9   1  12    2.40   25.61
  -9  -1  12   23.97   14.83
  -9  -1  12    8.87   28.13
  10   4  -1   54.55   20.42
  -9   1  12  -14.98   21.69
  10   4  -1   50.27   18.42
   1  -2  14  739.36   29.98
   1   2  14  706.95   47.66
  10   0   2 1236.28   60.30
 -10   0  -2 1215.37   31.01
   2 -11  -2  154.78   23.18
  10   0   2 1204.91   31.78
  -2 -11   2  162.20   22.42
  -1  -2 -14  676.86   44.96
   2  11  -2  230.26   20.62
 -10   0  -2 1157.89   58.40
  -2 -11   2  194.32   20.12
   2 -11  -2  169.95   26.49
   1  -2  14  717.04   41.24
   2  11  -2  195.05   21.45
  -4  -1 -12    4.14   19.69
  -2  -7  12 2395.49   44.26
  -8   2  13  512.43   25.39
  -3  -7  12  341.75   22.32
  -3   7  12  336.41   32.80
  -2   7  12 2528.57   63.07
  -3   7  12  373.17   15.30
  -8  -2  13  568.67   50.90
  -8  -2  13  515.89   43.23
  -8   2  13  495.96   28.28
  -2  -7  12 2517.48   41.53
   4  -1  12   -2.78   12.19
  -4   1 -12   21.56   12.21
   2  -7 -12 2484.93   40.96
   2  -7 -12 2586.03   47.91
  -4   1 -12   -0.37   20.55
  -2   7  12 2363.35   38.68
   4   1  12   14.38   11.88
  -4  -1 -12   10.40   14.67
   3  -7 -12  374.93   31.61
  -3  -7  12  311.62   18.14
   3  -7 -12  367.38   24.71
   4   1  12    7.15   15.19
   4  -1  12    7.37   21.41
   9  -5  -9   14.26    8.65
   5  10  -2   16.04   23.16
  -5 -10   2    6.17   13.09
  -9  -5   9   26.05   19.65
  -5 -10   2    4.73   15.16
  -9   5   9   14.76    9.07
  -9   5   9    8.81   16.77
   9   5  -9    1.08   18.88
   5 -10  -2   10.58   17.74
   5  10  -2   16.70   13.25
   5 -10  -2   -4.38   15.35
   9  -5  -9   11.18   15.91
  -1  -1  15    8.85   19.89
  -1   1  15  -12.17   14.82
  -1  -1  15    4.85   14.40
  -1   1  15    8.29   20.86
   3  -6 -13 1065.29   31.15
  -3  -6  13 1033.77   29.54
  -3   6  13 1069.52   46.47
  -3  -6  13 1039.82   33.00
  -5   1 -11  453.93   36.27
   5   1  11  422.86   40.44
  -5   1 -11  374.21   20.59
   5  -1  11  396.67   22.71
   5   1  11  401.46   23.07
   5  -1  11  348.98   23.74
  -5  -1 -11  378.53   36.74
  -5  -1 -11  386.87   23.10
   6   5   8  380.77   30.20
  -6  -5  -8  427.14   43.64
   0 -11   3    2.35   17.57
  -6   5  -8  362.58   27.38
   0 -11  -3   10.79   27.13
   6   5   8  421.67   26.62
  -6  -5  -8  373.24   27.61
   0 -11   3   18.77   24.92
   0  11   3   14.46   25.70
  -1 -10   7   -1.63   11.51
  -1  10   7   10.99    8.58
  -1 -10   7   -2.39   10.34
   1 -10  -7    4.06    9.15
   1 -10  -7   24.08   14.69
  -1  10   7  -11.13   11.62
  -2  10   7   32.83   17.46
  -2 -10   7   64.67   15.63
   2 -10  -7   59.95   10.08
  -2  10   7   63.38   25.27
   8   7   1  326.10   30.21
  -2 -10   7   34.07   10.85
   8  -7   1  459.52   29.86
   8   7   1  442.82   42.09
   2 -10  -7   71.90   28.00
  -2 -10   7   20.92   14.00
  -8  -7  -1  424.35   29.11
  -8  -7  -1  414.47   29.44
   8  -7   1  353.16   26.10
  -2 -10   7   51.13   14.55
 -11   0   5   -5.52   13.50
 -11   0   5   -4.51   11.77
  11   0  -4  626.28   26.72
  11   0  -5   16.68   14.86
 -11   0   4  674.60   40.86
 -11   0   4  616.47   26.85
  11   0  -5    7.18   21.42
  11   0  -4  678.21   26.68
   9   4   3   41.79   20.25
   9   4   3   38.94   32.91
  -9  -4  -3   37.93   19.85
  -9  -4  -3   31.26   18.52
  -9   4  -3   20.74   32.82
   9  -4   3   53.30   34.75
  -6  -8   9  849.46   49.13
   6  -8  -9  870.08   24.29
  -6  -8   9  956.81   22.69
   6   8  -9  838.21   28.24
   6   8  -9  867.96   32.22
   6  -8  -9  846.75   26.79
  -5  -4 -10 1274.15   39.03
   5  10  -3   -0.93   11.23
   5 -10  -3   15.47   23.64
   5 -10  -3   -2.96   12.80
  -5   4 -10 1412.51   50.71
   5  -4  10 1430.42   52.64
  -5 -10   3   16.52   14.42
  -5   4 -10 1310.29   24.96
   5   4  10 1441.97   37.22
   5  10  -3    3.84   11.74
  -5  -4 -10 1328.30   36.86
  -5 -10   3   21.74   15.94
   5   4  10 1406.60   43.24
   5  -4  10 1439.88   28.24
   2  -6 -13   40.09   25.00
   2  -6 -13   28.66   15.81
  -8   5  11  639.84   21.33
  -2  -6  13   40.49   15.03
  -2  -6  13   49.11   12.51
  -8   5  11  619.20   34.97
   8   5 -11  653.24   33.80
  -8  -5  11  681.45   34.11
  -2   6  13   27.45   26.80
  -2   6  13   10.47    8.95
  -6  -6  12  334.76   35.90
   5 -10  -1  257.69   36.84
  -5 -10   1  227.66   40.31
  -5 -10   1  253.82   21.04
   5 -10  -1  217.38   42.55
  -6   6  12  368.37   21.81
  -6  -6  12  378.17   27.31
   5  10  -1  258.05   22.76
   5  10  -1  234.61   33.81
  -6   6  12  320.17   28.71
  -1  -6 -12  106.28   23.44
   1   6  12   52.23   33.50
  -1  -6 -12   81.10   19.86
   1  -6  12   88.81   11.96
   1  -6  12   80.00   20.41
   1   6  12   84.06   21.39
   1  -6  12   87.19   13.34
   9   6  -7  212.80   22.14
 -10  -1  -2 1666.89   52.22
   5  -8 -10  339.18   19.50
   5  -8 -10  318.85   25.80
  -5  -8  10  372.64   23.57
  -5   8  10  314.68   26.56
 -10   1  -2 1592.73   33.56
 -10  -1  -2 1700.40   45.99
  10   1   2 1734.82   47.52
   9  -6  -7  156.83   18.27
  -5   8  10  335.02   16.24
   9   6  -7  185.98   27.02
  -5  -8  10  331.98   19.76
   9  -6  -7  221.90   24.00
  10  -1   2 1734.32   48.95
  10   1   2 1678.96   55.15
  10  -1   2 1685.72   46.53
  -9  -6   7  189.09   43.56
 -10   1  -2 1693.59   46.56
  -9  -6   7  200.38   15.93
   2  11   1    9.84   15.78
  -7   4  13   -2.34   12.45
  -2 -11  -1   21.04   18.24
  -2 -11  -1   20.32   16.74
   2 -11   1   19.47   16.04
   2 -11   1   25.32   29.36
  -7   4  13   21.48   14.22
  -7  -4  13    1.83   17.90
  -7  -4  13   18.43   23.86
   2  11   1   -3.15   16.15
  -8   4  12   47.31   13.77
  -8  -4  12   39.32   18.55
  -8   4  12   35.91   15.88
  -8  -4  12   52.87   35.40
  -3   0 -13    2.42    9.46
   3   4  12 3953.72   72.38
  -3   0 -13    0.45   12.01
   3   0  13   -6.64   17.06
   3   0  13  -10.50   14.48
   3  -4  12 3801.42   69.52
   3  -4  12 3954.55   68.37
  -3  -4 -12 3792.57   68.14
   3   4  12 3902.17   60.33
   3  -4  12 3916.86   64.65
  -3  -4 -12 3765.16   59.83
   3  -4  12 3801.43   59.31
  -6   5  13  369.39   21.52
  -6   5  13  389.39   24.51
  -6  -5  13  377.82   28.43
  -6  -5  13  396.88   24.89
  10   3  -9    8.84   24.11
  11   1  -5   14.35   12.97
  11   1  -5    5.91   25.83
  11  -1  -5   21.06   13.42
  11  -1  -4   61.92   15.84
  -7   2  14 1002.27   46.39
 -11   1   4   83.45   17.42
 -11  -1   5   10.96   18.64
 -11   1   5   -4.94   12.13
 -10   3   9    7.82   10.99
 -11  -1   4   69.46   18.67
  -7  -2  14  918.35   39.33
  -7  -2  14  902.42   33.59
  10  -3  -9   21.35   11.74
 -10   3   9   -1.64    9.01
  11   1  -4   62.51   16.63
 -11   1   4   79.25   25.10
  11  -1  -5   14.01   13.55
 -11  -1   5    8.73   14.19
  -7   2  14 1000.03   36.02
  11   1  -4   68.91   30.27
 -11  -1   4   56.02   17.07
 -10  -3   9    1.57   16.10
 -11   1   5    5.90   12.02
  11  -1  -4   74.50   17.44
  10  -3  -9   -5.82    6.37
  -7  -7  -4    8.83   16.75
   7  -7   4   21.26   17.92
   7   7   4   -4.34   18.26
  -7  -7  -4    3.11   17.87
   7  -7   4    5.11   15.43
   7   7   4   13.22   16.79
  11   0  -3    6.59   19.47
  11   0  -3   -6.10   12.77
 -11   0   3    6.73   13.81
 -11   0   3    1.14   20.21
  11   0  -6 1492.77   38.35
 -11   0   6 1548.18   39.25
  11   0  -6 1589.15   34.36
 -11   0   6 1523.22   44.83
   4 -10  -6  298.81   22.01
  -5  -9   8   -0.74   17.73
  -5  -9   8  147.14   21.29
  -5  -8  -6  -11.70   32.96
  -5  -8  -6  119.67   22.46
   5   8   6   76.45   34.42
   4  10  -6  258.63   28.40
   5   9  -8  123.66   21.55
   5  -8   6  159.98   37.00
   5  -9  -8  151.24   26.00
  -4 -10   6  336.86   32.47
   5   8   6  131.53   23.89
   4 -10  -6  277.36   25.05
   5  -9  -8  126.24   19.02
   5   9  -8  130.37   18.55
  -4 -10   6  301.76   19.68
   5  -8   6  120.36   20.02
   4  10  -6  283.08   19.14
  -9  -3  -4  313.88   25.26
   6   0  10 7076.05  105.69
  -9   3  -4  308.91   28.65
  -6   0 -10 6630.36   94.15
  -9  -3  -4  378.87   45.06
   6   0  10 7068.65  102.55
   9   3   4  156.20   43.19
  -6   0 -10 6725.04  115.70
   9  -3   4  293.79   28.74
   2  11  -3   47.91   24.61
  -5   2  15   64.31   18.51
  -2 -11   3   23.51   26.53
   2 -11  -3  -13.73   19.15
  -5   2  15   55.04   34.03
  -5  -2  15   41.19   22.30
  -5  -2  15   44.39   19.03
   2 -11  -3   35.82   17.43
  -4   6  13  486.11   35.52
  -4  -6  13  497.40   23.61
  -4  -6  13  450.74   26.98
  -4   6  13  465.67   40.39
   0   9   9  746.79   39.43
   0  -9   9  648.76   24.86
   1  -8  10  104.76   15.94
   1   8  10  109.75   19.96
   0  -9   9  724.92   33.97
  -1  -8 -10  106.40   28.76
   0  -9  -9  667.66   24.93
   0   9   9  653.88   26.51
  -1  -8 -10   93.81   17.74
   0  -9  -9  662.55   26.93
   1   8  10   68.24   26.54
   6   7   6 1821.57   49.84
   6   7   6 1875.63   46.83
  -6  -7  -6 1803.09   67.85
   6  -7   6 1911.95   66.64
  -6  -7  -6 1903.96   47.70
   6  -7   6 1840.38   42.91
  -8   0  -7  -22.47   16.85
   8   0   7   15.45   13.69
  -8   0  -7   -1.00   11.96
   8   0   7    2.02   18.00
  -3  -1 -13    1.38   13.15
  -3   1 -13  -34.57   15.59
  -3  -1 -13    3.75    9.37
  -3   1 -13    3.45   11.49
   3   1  13    7.19   23.38
   3  -1  13    6.92   12.61
   3   1  13  -17.84    9.84
   3  -1  13   19.72    9.72
  -1   7  12   25.41   29.16
  -5 -10   4 2038.82   42.73
  -5 -10   4 1997.85   60.23
  -1  -7  12   41.68   11.20
  -4  -7  12   18.53   13.53
   9   5   2  709.71   32.51
  -9  -5  -2  696.38   33.15
   5  10  -4 1808.64   39.76
   9   5   2  676.40   34.56
  -4  -7  12   18.91   16.51
  -1  -7  12   70.07   21.46
  -1   7  12   53.71   11.69
   5  10  -4 1885.83   40.87
   4  -7 -12   28.42   17.15
  -4   7  12   28.08   13.67
   5 -10  -4 1911.68   48.21
  -9   5  -2  711.85   35.52
   4  -7 -12   24.17   15.56
  -9  -5  -2  702.87   33.56
  -4   7  12   41.16   14.91
   5 -10  -4 1850.30   60.08
   1  -7 -12   19.86   14.89
   1  -7 -12   25.84   11.59
   9  -5   2  723.06   35.40
   5  -9   4  582.62   44.16
   5   9   4  600.22   31.02
  -5  -9  -4  673.15   29.57
  -5  -9  -4  608.31   33.70
   5   9   4  612.04   31.44
   5  -9   4  626.88   33.33
   9   0   5   -3.52   18.32
  -9   0  -5    0.69   18.95
  -9   0  -5  -15.25   17.57
   9   0   5  -18.08   21.22
 -10  -3  -1   88.45   21.99
 -10  -3  -1   69.78   20.06
  10  -3   1   94.05   22.82
  10   3   1   75.50   21.24
   9   6   0  556.28   32.36
   9  -6   0  536.71   49.81
  -9  -6   0  542.27   32.51
   9  -6   0  529.50   28.17
  -9  -6   0  542.77   30.32
  10   3   1   57.40   34.70
 -10   3  -1   73.39   36.37
   9   6   0  560.72   29.19
   5 -10   0  261.49   28.52
  -5 -10   0  278.07   21.91
   5 -10   0  226.11   24.67
   5  10   0  172.81   36.65
   5  10   0  318.01   33.88
  -5 -10   0  264.49   27.29
   0 -10  -7   12.21   15.36
   0 -10  -7    5.37   10.16
   0  10   7   53.05   20.24
   0 -10   7   22.80   25.80
   0 -10   7   16.94   13.61
   0  10   7    4.64   15.01
  -2  -8  11   59.05   10.41
  -2   8  11   74.16   16.08
  -2  -8  11   74.49   11.70
   2  -8 -11   59.14   13.80
  -2  -8  11   57.32   11.64
  -2   8  11   55.37   20.87
   2  -8 -11   62.51   14.77
  -2  -8  11  101.31   22.12
  11  -1  -3  374.74   39.34
 -11   1   3  378.88   21.36
 -11  -1   3  388.80   38.21
 -11  -1   3  478.01   37.83
  11   1  -3  424.08   37.87
 -11   1   3  369.68   25.14
  11  -1  -3  425.77   21.71
  11   1  -3  387.64   39.14
 -11  -1   6  488.68   21.69
 -11  -1   6  477.87   27.69
 -11   1   6  445.46   24.25
  11  -1  -6  467.08   32.62
 -11   1   6  471.28   22.08
  11   1  -6  473.59   30.81
  11  -1  -6  453.01   23.57
  11   1  -6  445.11   41.47
  -3 -10   7   38.09   12.24
   1  11   3 1104.56   53.33
  10   2 -10 1145.13   39.57
   1  11   3 1116.80   35.04
  -3 -10   7   35.05   13.75
  -3 -10   7    1.48   14.32
 -10   2  10 1102.82   40.02
   1 -11   3 1105.32   36.09
  -1 -11  -3 1108.78   38.91
  -1 -11  -3 1076.29   32.63
   1 -11   3 1053.98   57.83
   3  10  -7   57.16   12.27
 -10   2  10 1076.81   32.63
  -3  10   7   33.76   15.14
   3 -10  -7   45.82   27.13
 -10  -2  10 1086.39   58.44
   7  -3   8   70.88   12.37
   8  -7  -8  336.28   31.10
   7   3   8   45.70   21.04
  -7   3  -8   38.00   10.60
  -8  -7   8  325.23   45.84
   8  -7  -8  320.62   26.21
  -7  -3  -8   62.99   18.54
   7   3   8   44.14   34.17
   8   7  -8  346.19   22.81
  -7   3  -8   39.55   31.81
  -8  -7   8  362.45   25.92
   7  -3   8   41.16   33.46
   8   7  -8  334.87   27.97
  -7  -3  -8   50.16   32.51
   6   1  10   -5.74   23.43
   7   8   2  234.04   24.95
  -7  -8  -2  256.68   27.51
  -6   1 -10  253.16   19.16
  -7  -8  -2  231.21   41.42
  -6  -1 -10  240.81   23.80
   7  -8   2  220.33   44.61
   7  -8   2  225.90   38.21
  -6   1 -10  301.03   23.56
  -6  -1 -10  263.81   21.78
   7   8   2  228.76   26.54
   6  -1  10   -0.80   23.53
  -3   3  15   28.12   26.69
  -3  -3  15    2.97   13.38
  -3   3  15    6.23   15.03
  -9  -2  12   39.48   21.56
  -3  -3  15   -9.72   15.55
  -9   2  12   64.34   18.63
  -9   2  12   49.73   24.35
  -9  -2  12   34.36   17.88
   4   2  12 1154.66   55.88
  -4   2 -12 1032.01   41.31
  -4  -2 -12 1055.83   30.00
  -4   2 -12 1022.55   28.47
   4  -2  12 1090.93   42.94
   4   2  12 1132.60   30.44
   4  -2  12 1121.31   44.31
  -4  -2 -12 1093.75   35.29
  -3  -8  11 1435.22   34.35
   3  -8 -11 1407.00   30.44
  -3  -8  11 1439.14   29.92
  -3   8  11 1436.91   30.12
   3  -8 -11 1466.97   42.70
  -3   8  11 1424.51   32.95
  -1   2  15  431.48   28.77
  -1  -2  15  404.56   28.14
  -1  -2  15  459.03   25.54
   1  -2 -15  410.06   26.83
  -6  -7  11   85.22   19.44
  -6  -7  11   70.95   25.63
  -6   7  11   39.17   11.94
   6  -7 -11   47.46   12.38
  -6   7  11   42.31   13.68
   6  -7 -11   65.09   16.56
  -8   6  10   13.36   17.49
  -4 -10  -3  152.92   25.22
  -4 -10  -3  131.69   18.63
   4  10   3  161.27   22.84
   4 -10   3  160.90   22.16
  -5  -2 -11 1030.41   32.26
  -5   2 -11 1055.68   32.02
   5  -2  11 1114.94   30.00
  -8  -6  10   -9.69   18.68
   4 -10   3  138.63   39.78
   8  -6 -10   -4.39    8.62
   4  10   3  149.27   20.03
  -5   2 -11 1048.17   38.31
  -5  -2 -11 1131.74   33.97
   5  -2  11 1126.75   32.94
   5   2  11 1161.60   37.38
   8   6 -10    8.33   16.13
   8  -6 -10   -3.17    7.35
  -8   6  10   17.51    9.11
   5   2  11 1097.55   47.65
  -8  -1  -7  152.70   24.62
   8   1   7  171.10   40.96
   8  -1   7  205.38   28.65
   8   1   7  196.93   21.85
   8  -1   7  161.80   25.72
  -8   1  -7  173.18   25.02
  -8   1  -7  157.15   39.51
   4  -9  -9 2098.18   40.25
  -4  -9   9 2112.37   47.05
  -4   9   9 2175.41   35.83
  -4  -9   9 2194.52   47.50
  -4  -9   9 2201.89   57.38
  -4  -9   9 2101.47   49.05
   4  -9  -9 2131.17   58.59
  -4   9   9 2126.80   46.73
  10  -4  -8  345.17   15.46
 -10   4   8  327.11   27.54
  10  -4  -8  346.08   18.26
  10   4  -8  328.04   14.72
 -10  -4   8  348.68   30.76
  10   4  -8  303.41   29.46
  -6   0  15   11.52   12.80
 -10  -4   8  314.30   15.96
  -6   0  15  -16.59   14.86
 -10   4   8  347.52   15.70
  -1  -6  13  153.90   22.69
  -9   1  -5   26.58   32.74
   9  -1   5   47.88   32.73
  -9  -1  -5   -5.19   15.03
  -1   6  13   93.34   33.03
  -1  -6  13   81.76   26.46
   9  -1   5   25.23   13.25
 -10  -5   4  254.78   28.58
   9   1   5   13.20   20.73
  10  -5  -4  214.77   36.38
  10  -5  -4  281.75   30.30
 -10  -5   4  260.52   21.35
   9   1   5   16.65   26.16
  10   5  -4  241.72   20.21
  -9  -1  -5   38.84   19.76
  -9   1  -5   46.52   19.11
  10   5  -4  277.94   28.14
   1  -6 -13   83.45   31.59
   1  -6 -13  142.14   20.50
  -3  -5  14  331.01   38.13
  -3   5  14  312.59   37.26
  -3  -5  14  297.62   32.34
  -1  11   4  189.58   36.36
   1 -11  -4  151.16   22.58
  -1 -11   4  217.17   23.99
  -1 -11   4  114.57   35.47
   2 -11   2  336.28   29.32
   2  11   2  296.81   26.48
   2 -11   2  273.56   25.34
  -2 -11  -2  243.84   24.74
  -2 -11  -2  245.00   42.59
   2  11   2  239.52   39.59
  -4   3  15   49.95   35.69
  -3  -9  -7    0.43   11.15
   3   9   7   -9.54   14.16
  -4  -3  15   82.72   22.27
   3  -9   7    1.42   12.74
  -3  -9  -7   -0.19   20.72
   3   9   7  -15.62   14.40
   3  -9   7   18.51   23.82
  -4   3  15   60.21   19.78
  -4  -3  15   74.26   30.09
  10   5  -5   23.62   21.61
   7  -7 -10    5.99    9.92
  10  -5  -5   27.46   26.22
 -10  -5   5   30.12   14.74
  -7   7  10   13.01   10.33
  -7   7  10   15.08    9.37
  10   5  -5   19.80   21.20
 -10  -5   5   44.76   34.84
  10  -5  -5   35.89   13.23
   7  -7 -10    6.97   14.08
  -7  -7  10   32.01   29.41
   7   7 -10   12.25   25.94
  11   0  -2  125.58   29.87
  10  -2   2    3.05   18.70
   6   4   9 2376.38   50.98
  11   0  -2  149.54   21.46
 -10  -2  -2   12.03   20.35
 -10  -2  -2    2.75   16.06
 -10   2  -2   -0.08   16.10
  -6  -4  -9 2355.31   51.72
 -11   0   2  130.69   34.40
  -6   4  -9 2299.71   34.97
  -6  -4  -9 2307.66   52.08
 -10   2  -2    0.87    8.51
   6   4   9 2558.20   77.57
  10   2   2    5.65   15.84
 -11   0   2  129.45   17.99
  10   2   2   -1.08   17.69
  -6   4  -9 2399.09   51.23
  10  -2   2   32.31   17.09
   6  -4   9 2345.37   51.52
 -11   0   7    9.78   15.11
  11   0  -7   -1.05   14.60
  11   0  -7   15.84   16.33
 -11   0   7    5.31   17.11
 -10  -5   3   79.80   23.97
   6  -9   2   -6.52   23.64
   6   9   2  -13.92   15.52
  10   5  -3   91.15   23.28
  10  -5  -3   66.04   17.49
   6   9   2    5.27   14.73
 -10  -5   3  101.39   19.01
  10   5  -3   89.47   27.77
  10  -5  -3   87.95   20.14
  -6  -9  -2    8.80   16.81
  -6  -9  -2   28.21   30.16
   6  -9   2   28.38   17.26
  10   4   0   70.91   33.39
 -10  -4   0   57.92   20.29
  10  -4   0   75.28   35.07
  10   4   0   42.58   19.59
 -10  -4   0   53.86   20.99
 -10   4   0   36.62   21.08
   0   4  14  420.25   29.67
   0  -4  14  505.93   34.40
   0  -4  14  464.33   37.36
   0  -4 -14  466.78   43.16
   0 -11   4 5398.02   89.05
   0  11   4 5194.96   68.79
   0  11   4 5326.34   86.53
   0 -11   4 5502.51   86.44
   0 -11  -4 5373.60   88.42
  -6   1  15  117.92   21.06
  -6   1  15  117.01   24.41
  -6  -1  15  123.77   34.44
  -6  -1  15  127.63   40.68
  -2   3  15  712.12   32.69
  -1  -8  11  153.82   12.92
   3 -11  -1   34.80   20.27
  -2  -3  15  774.10   33.16
   3 -11  -1   28.10   28.51
  -1   8  11  204.04   24.71
  -3 -11   1   26.01   18.54
  -1  -8  11  189.63   12.71
  -1  -8  11  154.89   14.64
  -2  -3  15  721.99   28.95
  -3 -11   1   15.34   29.61
  -1  -8  11  159.55   14.86
   3  11  -1   11.55   16.48
   1  -8 -11  138.11   26.76
   3  11  -1   13.97   11.41
  -1   8  11  161.13   19.94
   2  -3 -15  768.33   32.09
   1  -8 -11  135.45   28.51
   2  -5 -14  635.73   28.70
  -2  -5  14  656.02   43.15
  -2   5  14  700.21   46.63
  -2  -5  14  679.15   25.37
  -2  -9  -8  786.43   31.51
  11   2  -4  309.51   31.83
 -11   2   4  278.58   18.34
 -11  -2   5   -1.36   12.89
  11   2  -5   12.26   16.11
 -11   2   4  306.10   22.92
   2  -9   8  715.28   29.77
  11  -2  -4  226.87   35.13
   2  -9   8  736.62   26.99
 -11   2   5    9.28   13.64
 -11  -2   5   23.03   17.32
   2   9   8  712.04   45.89
  11   2  -4  264.53   24.93
 -11  -2   4  271.34   33.01
   2   9   8  818.67   29.92
  11   2  -5    7.35   12.21
 -11  -2   4  270.33   26.03
  -2  -9  -8  797.69   28.55
  11  -2  -4  183.31   27.69
  11  -2  -5    8.14   18.69
  11  -2  -5   -6.84   21.16
 -11   2   5   26.62   19.21
  -7  -8   8  190.67   16.15
  -7  -8   8  220.66   24.56
   7  -8  -8  167.36   18.24
   7  -8  -8   96.11   24.16
   7   8  -8  157.05   35.98
   7   8  -8  160.02   20.82
  -6  -9   7    0.70   16.04
   6  -9  -7    9.04   12.49
   6  -9  -7   17.24   14.44
   6   9  -7   13.30   10.81
  -6  -9   7    0.83   12.80
   6   9  -7    0.97   14.47
   3  11  -2  230.63   35.79
   3 -11  -2  234.21   27.78
  -3 -11   2  300.93   24.57
   3 -11  -2  205.71   24.75
  -3 -11   2  221.47   24.60
   3  11  -2  231.82   25.27
   1  -5  13    7.50   19.56
   1   5  13   25.14   11.18
  -4   5  14 1503.71   42.48
  -4  -5  14 1441.49   36.99
  -4  -5  14 1545.74   58.63
  -1  -5 -13   51.12   29.49
  -4   5  14 1456.81   54.40
   1  -5  13   57.48   13.21
  -1  -5 -13   29.85   12.36
   1   5  13   25.10   20.48
   8   8  -3   -7.91   14.24
   8  -8  -3   -2.86   13.67
   8  -8  -3   -2.39   18.59
   8   8  -3   15.35   17.25
  -8  -8   3   12.78   23.43
  -8  -8   3    1.54   17.06
 -11  -1   2   21.58   28.30
 -11  -1   2   40.79   29.78
  11  -1  -2   62.98   22.76
  11   1  -2   17.87   17.35
 -11   1   2   57.57   19.00
 -11   1   2   79.03   14.70
  11   1  -2   45.90   28.37
  11  -1  -2   31.12   29.04
  11   1  -7    7.57   27.87
 -11  -1   7   28.94   16.85
  11   1  -7   49.73   17.82
  11  -1  -7    3.97   15.05
  11  -1  -7   15.26   11.89
 -11   1   7   -0.47   14.35
 -11   1   7   24.20   11.51
 -11  -1   7    2.48   11.21
  -1  -3 -14   78.48   20.13
   1  -3  14    0.35   17.43
   1   3  14   62.38   19.75
  -8   3  13   30.85   16.37
  -8   3  13    1.62   14.03
  -8  -3  13   22.74   20.73
   1  -3  14   82.87   24.17
  -1  -3 -14   52.96   18.01
  -8  -3  13   26.82   17.14
   2 -11  -4  459.07   43.08
   2  11  -4  407.82   37.85
  -2 -11   4  443.94   26.16
  -2  11   4  487.89   27.65
   8  -8  -4   -1.63   33.11
   8  -8  -4   90.16   17.79
   8   8  -4  106.09   16.63
   8   8  -4   86.00   22.75
   0   0 -15  -10.15   15.24
  -8  -8   4   98.53   30.40
  -8  -8   4  109.13   22.81
   0   0  15   31.74   28.61
   5 -10  -5 1513.64   43.51
   5  10  -5 1487.72   35.27
  -5 -10   5 1614.17   38.24
   5 -10  -5 1482.79   38.35
   5  10  -5 1485.24   49.10
  -5 -10   5 1573.66   52.57
  -3 -11   0  600.84   31.90
  -3 -11   0  583.95   31.90
   2  10   6 3184.72   56.57
   2  10   6 3145.48   78.61
  -2 -10  -6 3201.30   53.94
   3 -11   0  577.45   30.52
   3 -11   0  553.96   33.95
   2 -10   6 3340.13   63.99
   3  11   0  553.65   45.85
   3  11   0  595.66   33.17
   2 -10   6 3248.47   58.77
  -2 -10  -6 3059.22   61.93
   3   2  13  644.49   32.94
   3  -2  13  718.12   27.15
  -3  -2 -13  635.74   45.19
  -3  -2 -13  673.48   34.64
  -6  -4  14 3717.31   66.31
  -3   2 -13  712.28   24.95
  -3   2 -13  681.65   32.81
   3   2  13  718.91   33.46
  -6  -4  14 3730.25   94.87
  -6   4  14 3672.83   67.85
   3  -2  13  687.50   23.24
  -6   4  14 3698.99   78.28
   2  -4  13  189.92   15.42
  -2  -4 -13  158.56   16.11
   2   4  13  242.72   26.32
   2  -4  13  219.23   28.33
   2   4  13  183.59   24.71
   2  -4  13  188.99   27.10
  -2  -4 -13  168.88   23.31
   9  -6  -8 1695.19   35.88
   9   6  -8 1758.02   30.55
   9  -6  -8 1751.79   33.11
  -9  -6   8 1833.05   71.41
   9   6  -8 1688.17   48.47
  -9  -6   8 1764.90   42.03
   5 -10   1 1810.96   44.83
   5  10   1 1682.97   56.70
   5 -10   1 1756.65   69.85
  -5 -10  -1 1849.45   42.64
  -5 -10  -1 1831.42   67.82
   5  10   1 1671.36   44.67
  10   5  -6  385.00   29.08
  10  -5  -6  391.98   34.69
 -10  -5   6  389.76   49.59
  10  -5  -6  373.66   19.30
  10   5  -6  394.17   30.66
 -10  -5   6  378.50   31.07
  -4  -6 -10 1120.25   37.40
  -4  -7  -9  161.39   22.25
   4  -6  10 1195.79   49.78
   4   7   9  154.51   25.22
  -4  -7  -9  149.53   37.13
   4  -7   9  124.79   28.87
   4  -7   9  200.22   21.63
   4  -6  10 1166.40   29.98
   4   6  10 1157.95   41.09
   4   7   9  145.70   21.04
   4   6  10 1055.82   33.20
  -4  -6 -10 1047.36   34.64
 -11  -2   3  135.59   35.72
 -11   2   3  144.68   15.92
 -11  -2   3  160.29   20.80
  11   2  -3  141.43   22.42
  11  -2  -3  141.33   21.56
  11  -2  -3  111.65   24.21
  11   2  -3  107.39   19.89
 -11   2   3  158.16   33.61
   8   5   5  193.71   40.36
  -8  -5  -5  235.86   27.76
  11  -2  -6 1329.25   44.18
  -4  -9  -6 1093.87   35.86
   4   9   6 1160.01   52.74
  -8  -5  -5  304.52   25.65
  -4  -9  -6 1188.15   40.98
 -11   2   6 1359.41   45.49
  11  -2  -6 1316.26   33.50
  -8   5  -5  190.63   27.18
 -11   2   6 1289.32   32.20
  11   2  -6 1309.99   41.76
   8   5   5  223.05   43.68
 -11  -2   6 1322.06   42.96
   4  -9   6 1153.64   39.17
   4  -9   6 1157.84   34.83
 -11  -2   6 1276.44   40.92
   8  -5   5  188.94   44.48
   4   9   6 1182.01   38.17
  11   2  -6 1285.95   39.86
   8  -8  -2   33.16   18.61
  -8  -8   2   13.33   27.39
   8   8  -2    3.15   15.20
   8  -8  -2   21.08   15.77
   8   8  -2   14.39   19.56
  -8  -8   2   22.31   19.47
   4  -8 -11  742.53   31.90
  -9  -4  11 2985.96   65.39
   9   4 -11 2928.39   63.83
   3   7  10 2777.96   59.40
   4  -8 -11  707.90   34.88
  -9   4  11 2773.19   57.94
  -4   8  11  747.93   25.97
  -4   8  11  741.13   34.55
  -9   4  11 2874.68   64.97
   3   7  10 2785.84   52.73
  -3  -7 -10 2757.94   53.03
   3  -7  10 2830.83   52.83
  -4  -8  11  780.95   28.22
  -3  -7 -10 2732.15   56.31
   3  -7  10 2974.91   61.20
   6   2  10  469.83   46.96
   6  -2  10  618.17   45.34
  -6   2 -10  601.18   40.64
   6  -2  10  566.79   23.34
  -6  -2 -10  501.49   28.07
  -6   2 -10  469.40   30.36
  -6  -2 -10  536.88   27.36
   6   2  10  545.83   28.56
  10   5  -2  447.30   25.42
  -3 -10  -5  230.47   25.86
  10   5  -2  476.87   32.11
   3 -10   5  169.04   33.94
  -3 -10  -5  103.69   29.39
  10  -5  -2  418.69   29.10
 -10  -5   2  404.01   31.61
   3 -10   5  154.42   38.31
   3  10   5  145.32   20.08
   3  10   5  147.49   22.40
  10  -5  -2  415.42   25.04
 -10  -5   2  497.49   41.46
   8   7   2 1183.74   41.87
   8   7   2 1164.21   38.39
   8  -7   2 1156.17   41.83
  -8  -7  -2 1232.13   41.56
  -8  -7  -2 1141.87   40.35
   8  -7   2 1098.65   36.64
  -5   6  13 1850.73   43.09
  -5   6  13 1905.53   53.40
  -5  -6  13 1874.01   46.12
  -5  -6  13 1891.83   41.83
   2   0  14  940.44   33.28
   0  -1  15  114.42   20.70
  -2   0 -14  926.19   22.58
   0   1  15  112.82   22.77
   2   0  14  897.05   22.45
   0  -1 -15   92.01   32.76
  -2   0 -14  876.08   31.45
   0  -1  15  140.64   23.36
   7  -9  -3  343.42   27.53
   7   9  -3  362.59   34.63
   7  -9  -3  320.60   24.45
   7   9  -3  377.81   26.92
  -7  -9   3  428.20   40.13
  -7  -9   3  377.12   27.94
  -3 -11   3  289.81   25.93
   3 -11  -3  309.73   28.42
   3  11  -3  303.21   36.05
  -3 -11   3  331.61   25.31
   3  11  -3  268.26   16.78
   3 -11  -3  276.16   25.74
   8   2   7  316.67   27.59
   8  -2   7  266.08   18.04
  -8   2  -7  248.94   15.97
  -8   2  -7  275.16   27.34
   8   2   7  304.57   26.17
   8  -2   7  255.84   45.80
  -8  -2  -7  236.28   27.42
 -10   0  11   -1.94   12.01
 -10   0  11    6.18   14.55
  -9   2  -5  294.88   24.19
  -9   2  -5  224.18   28.38
   9  -2   5  285.10   17.06
   9   2   5  226.41   25.16
   9  -2   5  293.50   45.96
  -9  -2  -5  302.65   28.80
  -9  -2  -5  308.42   35.58
   9   2   5  278.42   44.56
  -3  -6 -11  124.71   35.31
   3  -6  11  111.72   17.11
  -3  -6 -11  123.74   29.88
  -7   3  14 1430.62   41.66
  -7   3  14 1405.54   51.36
   3   6  11   84.36   16.77
  -7  -3  14 1382.09   40.18
  -7  -3  14 1452.50   65.73
   3   6  11  104.73   23.64
   8   8  -5  391.34   28.57
   8   8  -5  340.83   20.12
   8  -8  -5  314.23   21.52
  -8  -8   5  360.48   29.45
  -8  -8   5  331.07   35.04
   8  -8  -5  358.84   25.47
   7  -9  -2  393.89   28.70
  -7  -9   2  384.60   28.42
   7   9  -2  396.37   28.62
  -7  -9   2  478.51   43.89
   7  -9  -2  348.97   38.88
   7   9  -2  360.63   24.05
   7   5   7   -1.91   19.24
   7   5   7   -2.10   17.31
   7  -5   7   29.18   17.87
  -7  -5  -7    1.54   15.00
  -7   5  -7    5.76   15.17
  -7  -5  -7   -2.48   15.56
  -8  -4  -6 1428.94   44.46
   8   4   6 1443.41   43.97
  -8   4  -6 1346.56   62.85
   8  -4   6 1468.62   45.19
  -8  -4  -6 1407.02   41.68
   8   4   6 1368.07   43.45
   7  -6   6    1.19   23.86
  -5  -7  12  137.06   34.33
   0  -7 -12  688.02   29.51
   0  -7  12  692.68   19.22
   0  -7  12  671.72   18.28
  -7  -6  -6    1.67   14.85
   7   9  -4  324.77   26.65
  -5   7  12  162.96   15.96
   7   9  -4  315.57   21.78
   7  -9  -4  353.92   23.41
  -7  -6  -6   -0.48   25.71
   0   7  12  711.10   46.66
  -9   5  10  172.30   20.85
  -9   5  10  119.91   24.27
  -7  -9   4  360.64   24.39
  -5  -7  12  108.77   28.18
   7  -9  -4  237.02   41.76
   0  -7 -12  692.22   35.68
  -5   7  12   99.72   18.27
   0  -7  12  709.30   29.91
   0  -7  12  674.56   22.26
   0   7  12  619.43   22.11
   7   6   6    3.02   16.69
   9   5 -10  115.71   26.20
   7  -6   6    3.72   17.51
   7   6   6   23.56   29.41
  -7  -9   4  363.99   27.79
  -9  -5  10  106.31   43.17
  -5  -3  15   93.86   33.34
  -5  -3  15  106.69   24.55
  -5   3  15  123.64   24.67
  -5   3  15  142.82   21.47
  -1 -10  -7 1827.93   63.62
   1 -10   7 1841.92   45.48
   1 -10   7 1869.78   55.17
  -1 -10  -7 1871.90   37.95
   1  10   7 2011.44   60.37
   1  10   7 1915.20   40.57
  -2  -1 -14   70.90   31.30
   2   1  14   70.75   32.20
   2  -1  14   92.09   29.49
   7   0   9   18.07   18.55
  -2   1 -14   67.13   17.61
  -2   1 -14  109.04   12.45
  -7   0  -9    0.98    9.69
   7   0   9   23.63   15.75
  -7   0  -9   -3.58   20.32
   2   1  14   62.44   18.66
   5   6   9  137.49   21.93
   5  -6   9  140.81   35.60
   5   6   9  177.79   42.34
  -5  -6  -9  149.70   23.30
  -5  -6  -9  159.79   24.10
   5  -6   9  155.49   29.80
 -10  -1  11    5.80   20.62
 -10   1  11   -2.34   13.44
 -10   1  11    0.02   11.44
   3 -11   1   64.87   22.65
 -10  -1  11  -16.69   24.84
  -3 -11  -1  132.22   24.17
   3  11   1   61.59   19.91
   3  11   1    1.53   22.05
   3 -11   1   79.77   31.18
   9  -6   1    4.15   14.90
  -9  -6  -1    7.74   18.74
   9   6   1   -7.42   18.20
  -9  -6  -1   18.92   18.64
   9  -6   1   12.80   17.69
   9   6   1   10.88   16.08
  -6  -2  15   14.28   16.68
   1 -11   4   32.17   17.16
  -6   2  15   12.87   16.34
   1  11   4    6.79   12.04
  -1 -11  -4   55.59   33.65
   1 -11   4   35.84   19.49
  -6   2  15   11.71   19.02
   1  11   4   40.68   17.86
  -6  -2  15   54.13   32.15
  -1 -11  -4   58.20   19.18
 -11   0   1    2.65   12.46
  11   0  -1   -3.06   15.73
 -11   0   1   11.72   24.73
  11   0  -1   -6.77   20.30
   4  10  -7  244.20   18.12
   4 -10  -7  254.04   23.81
   4 -10  -7  229.69   21.19
   4  10  -7  247.52   18.11
 -11   0   8  942.39   33.55
 -11   0   8  950.95   33.90
  11   0  -8  993.16   33.03
  -4 -10   7  288.58   30.62
  -4 -10   7  230.54   19.53
  11   0  -8  958.89   34.45
  -1  -9  -9  251.49   37.69
   1  -9   9  296.79   21.13
  -9  -7   4   10.99   25.69
   1   9   9  268.42   33.21
   9   7  -4   18.81   19.56
   9  -7  -4   19.94   26.14
   8  -6   4 1078.35   36.55
   9   7  -4    0.81   21.60
  -1  -9  -9  293.81   21.31
   8   6   4 1113.72   39.48
   1   9   9  243.00   35.02
   8  -6   4 1073.05   41.13
   1  -9   9  259.73   18.82
  -8  -6  -4 1158.49   41.59
  -9  -7   4   35.59   21.12
   9  -7  -4   18.17   14.12
  -8  -6  -4 1049.08   40.83
   2 -11   3 2655.76   55.00
   2  11   3 2499.66   55.22
 -10   0  -3   -9.46   15.52
  10   0   3    8.23   13.99
   2  11   3 2561.10   45.37
   1  -5 -14  113.86   21.04
 -10   0  -3   13.81   17.05
  -1  -5  14  101.70   29.06
  -1   5  14   82.37   35.25
   2 -11   3 2717.83   60.79
  -2 -11  -3 2663.88   55.88
  10   0   3   22.69   19.38
  -2 -11  -3 2606.65   59.31
  -1  -5  14  101.78   26.10
 -10   3  10   65.09   16.99
  10   3 -10  119.00   40.43
 -10  -3  10   97.30   24.79
 -10   3  10   86.71   14.38
  -9  -7   3   57.20   30.36
  -8  -8   1   73.98   21.85
   8   8  -1   78.52   23.21
   9   7  -3   82.30   17.49
   9  -7  -3   85.14   20.98
   9  -7  -3   60.53   28.94
   8   8  -1   81.99   31.00
   8  -8  -1   77.96   20.08
  -8  -8   1   93.43   23.74
   9   7  -3   75.31   24.33
   8  -8  -1   63.97   37.10
  -9  -7   3   79.36   38.19
   5   7   8  792.24   57.10
  -5  -7  -8  800.80   34.53
   5   7   8  870.24   48.54
  -5  -7  -8  782.18   51.48
   5  -7   8  820.45   34.18
   5  -7   8  788.51   29.56
   6  -8   5  695.62   35.40
  -6  -8  -5  681.02   49.41
   6  -8   5  737.20   46.87
  -6  -8  -5  772.45   55.28
   6   8   5  736.87   53.71
   6   8   5  715.50   33.48
  -9  -3  12  954.78   41.94
  -8   0  14  307.07   29.48
 -11  -2   2  694.18   31.26
  -9  -3  12 1033.66   51.49
  11   2  -2  665.14   30.89
  -8   0  14  263.80   24.46
 -11   2   2  732.84   33.55
 -11   2   2  757.14   32.01
  -9   3  12  937.29   32.52
 -11  -2   2  768.03   47.41
  11   2  -2  711.71   29.98
  11  -2  -2  707.04   32.19
  -9   3  12 1004.90   29.37
  11  -2  -2  661.79   33.66
 -11   2   7   51.74   15.29
 -11  -2   7   62.01   21.11
 -11  -2   7   44.71   20.34
  -4  -3 -12  221.14   24.04
   4  -3  12  246.52   20.67
  -4   3 -12  222.96   19.16
  11  -2  -7   52.02   15.90
  -4  -3 -12  235.13   19.86
   4  -3  12  245.10   28.98
  11   2  -7   37.49   21.73
 -11   2   7   38.71   13.74
   4   3  12  221.24   26.80
  -4   3 -12  219.29   16.33
   4   3  12  261.43   19.71
  11  -2  -7   87.10   15.25
  11   2  -7   99.09   13.30
   1  -3 -15   -8.46   15.96
  -1  -3  15   20.81   21.40
  -1  -3  15    1.41   15.30
  -1   3  15   -1.77   16.69
  -7   1  -9    0.14   10.44
   7  -1   9   -6.60   25.67
   7   1   9    7.59   15.85
   7   1   9   -0.96   14.82
  -7   1  -9    4.02   14.79
   7  -1   9    9.54   12.73
  -7  -1  -9    1.87   12.91
  -7  -1  -9    5.20   14.91
   7  -9  -1  519.16   52.21
  -7  -9   1  676.10   32.56
   7  -9  -1  582.31   29.65
   7   9  -1  667.67   32.24
  -7  -9   1  594.23   32.90
   7   9  -1  571.59   43.44
  -2 -10   8  274.27   20.35
  -2  10   8  332.03   25.67
   5   3  11  -11.77   13.26
   5   3  11    5.97   26.98
  -2 -10   8  268.36   19.73
   2 -10  -8  207.45   34.18
   2 -10  -8  273.58   22.39
  -5   3 -11   12.85   10.48
  -5   3 -11   11.76   22.58
   5  -3  11   15.81   17.41
  -5  -3 -11    3.13   26.80
  -5  -3 -11   12.40   23.47
   5  -3  11   32.97   22.08
   3   8   9  315.92   27.55
  -2  -9  10   44.70   21.41
  -2  -9  10  119.09   14.73
   3  -8   9  310.87   23.40
   3  -8   9  320.12   32.32
   3   8   9  282.49   23.34
   1 -11  -5  330.27   40.87
   2  -9 -10   84.98   22.82
  -3  -8  -9  370.65   41.88
  -3  -8  -9  343.19   25.41
  -1  11   5  290.48   24.62
  -1 -11   5  328.54   24.10
  -2  -9  10  139.90   14.17
  -2  -9  10   98.12   12.20
  -2   9  10  105.48   16.14
  -2   9  10   92.34   15.94
  -1 -11   5  319.58   41.32
   2  -9 -10   91.78   25.84
  10  -5  -7  437.60   19.29
  10   5  -7  414.41   27.38
  10  -5  -7  466.56   34.48
 -10  -5   7  387.75   18.97
 -10  -5   7  492.72   51.54
  10   5  -7  416.20   31.95
  -5  -5  14   52.60   34.09
  -5  -5  14   61.89   17.69
  -5   5  14   69.65   27.57
  -5   5  14   35.09   19.47
 -11   1   1  361.79   26.81
  11   1  -1  322.21   24.07
   0  -6  13   25.41   20.16
 -11  -1   1  381.46   24.14
   0   6  13   28.15   16.90
 -11  -1   1  337.01   26.64
  11   1  -1  346.04   27.30
   0  -6 -13   20.32   25.73
  11  -1  -1  350.93   42.16
   0   6  13   28.13   30.09
   0  -6  13    6.94   18.16
   0  -6 -13   11.58   10.92
 -11   1   1  347.32   30.92
  11  -1  -1  357.45   31.46
 -11  -1   8 1285.41   40.70
 -10  -4   9  154.73   45.55
  11  -1  -8 1293.27   38.92
 -11   1   8 1275.52   36.42
  11   1  -8 1339.27   57.02
 -11   1   8 1269.14   28.07
  11   1  -8 1229.24   36.11
   0  -8 -11  139.64   28.52
   0  -8  11  191.96   16.48
   0   8  11  162.36   22.56
   0   8  11  244.04   17.81
 -10   4   9  238.43   17.75
  11  -1  -8 1283.82   35.46
 -10   4   9  213.32   23.35
  10   4  -9  202.40   27.46
  10  -4  -9  139.27   22.91
  10  -4  -9  193.86   12.75
   0  -8  11  196.33   14.22
   0  -8 -11  166.63   19.88
  -2  -7 -11   -4.59   12.61
   2  -7  11   -0.04   10.72
   2   7  11   16.32   20.73
   2   7  11   11.98   28.65
  -2  -7 -11    3.83   10.68
   2  -7  11   23.21   12.67
   1 -10  -8  892.78   32.91
   9   7  -5  267.01   19.54
  -9  -7   5  318.48   30.56
  -1 -10   8  911.01   43.66
  -1  10   8  956.50   26.97
   9  -7  -5  252.16   36.50
  -1  10   8  880.24   30.95
   9   7  -5  277.69   28.41
   9  -7  -5  242.66   20.60
  -9  -7   5  316.61   33.82
  -1 -10   8  910.34   28.10
   1 -10  -8  949.53   34.76
 -10  -1  -3   28.75   35.07
  10   1   3   39.78   22.82
  10  -1   3   22.44   36.01
 -10   1  -3   52.60   21.45
  10  -1   3   51.95   14.43
 -10   1  -3   41.90   13.06
 -10  -1  -3   26.17   16.40
  10   1   3   43.62   17.40
   4   5  11  308.28   22.06
   4  -5  11  290.21   34.66
  -4  -5 -11  359.92   36.11
   4   5  11  334.56   29.41
  -4  -5 -11  351.93   27.06
   6  -8 -10   68.53   22.23
  -4  -8  -8    2.87   15.01
   6  -8 -10   54.26   19.99
   4   8   8  -14.26   14.58
  -6   8  10   26.57   10.10
   4   8   8    8.02   12.49
  -6   8  10   24.85   10.88
   4  -8   8   -2.78   11.30
   4  -8   8    8.97   13.18
  -4  -8  -8   -6.04   13.75
   6   8 -10   52.98   18.52
  -6  -8  10    1.41   17.54
   7   9  -5  223.57   24.95
  -7  -9   5  291.60   22.15
   7   9  -5  247.92   19.10
  -7  -9   5  229.62   41.52
   7  -9  -5  223.96   33.58
   7  -9  -5  251.23   24.38
   3 -11  -4  275.15   40.61
   3 -11  -4  325.92   45.14
   3  11  -4  290.47   22.77
  -3 -11   4  316.00   37.70
  -3 -11   4  322.27   26.43
   3  11  -4  291.80   25.82
  -9   4  -4   87.84   39.20
  -9  -4  -4   97.85   38.40
   9  -4   4   75.52   24.34
   9   4   4   82.11   23.16
  -9  -4  -4   95.44   22.25
   9   4   4   82.06   23.16
  -8  -1  14  656.39   30.28
  10  -5  -1  216.23   27.95
 -10  -5   1  340.27   26.37
  10  -5  -1  256.34   23.95
  -8   1  14  696.51   33.71
  -8  -1  14  656.85   55.67
  10   5  -1  243.88   24.22
  -8   1  14  612.00   29.37
 -10  -5   1  240.80   28.52
  10   5  -1  297.52   29.01
 -10  -3  -2  605.86   32.64
 -10   3  -2  590.84   51.98
  10   3   2  581.16   31.43
  -8  -7   9   -8.98   19.08
   8  -7  -9   20.12   18.86
  10   3   2  629.59   49.63
   8  -7  -9    5.76    9.91
 -10  -3  -2  572.68   30.06
   8   7  -9   14.05   18.13
  10  -3   2  552.92   33.95
   0   2  15  124.25   37.85
   0  -2  15  147.16   32.06
   0  -2 -15  114.56   21.49
  -8  -8   6 1879.96   50.17
   7   8   3  222.96   25.07
   8   8  -6 1769.56   47.72
   7   8   3  156.46   42.04
  -7  -8  -3  177.47   40.66
   8  -8  -6 1678.26   42.22
  -7  -8  -3  169.53   26.98
   7  -8   3  162.71   28.06
  -8  -8   6 1915.86   53.91
   8   8  -6 1688.49   35.49
   7  -8   3  173.40   38.33
   8  -8  -6 1808.97   51.50
   4 -10   4  654.38   34.92
  -4 -10  -4  782.27   55.40
   4  10   4  753.29   33.47
  -9  -7   2   86.24   38.59
   4  10   4  721.56   45.07
   4 -10   4  729.40   47.71
   9   7  -2   83.11   25.19
  -4 -10  -4  759.72   29.78
   9  -7  -2   99.00   22.08
   9   7  -2   87.62   19.11
   9  -7  -2   93.18   19.55
  -9  -7   2   84.87   20.95
  -9   0  13   -6.67   26.35
  -5 -10   6  506.45   24.90
  -3   9  10    6.77   19.86
  -3  -9  10   31.13   16.74
   5  10  -6  490.96   22.82
   5 -10  -6  470.08   29.33
   3  -9 -10   -4.47   19.91
  -9   0  13   12.69   22.83
  -5 -10   6  503.92   36.76
  -3   9  10   13.44   11.94
   5 -10  -6  534.76   25.97
  -3  -9  10   26.56   20.54
   5  10  -6  485.42   23.83
   3  -9 -10   30.21   16.82
  -5  -9   9 1979.99   43.71
   5  -9  -9 1830.84   51.01
   5   9  -9 1807.39   33.35
  -5  -9   9 1932.42   46.45
   5  -9  -9 1784.25   40.78
   5   9  -9 1851.51   40.90
   2 -11  -5  638.97   47.03
   2  11  -5  612.83   27.42
  -2 -11   5  617.30   28.23
  -2  11   5  656.88   29.75
 -11  -3   4    0.52   21.07
  11  -3  -4   -3.25   13.55
 -11  -3   4   25.08   26.79
  11  -3  -4   -9.90    9.41
  11   3  -4   14.23   12.43
 -11   3   5  107.87   18.80
 -11  -3   5   35.20   36.90
  11   3  -5   87.75   25.71
 -10   4  -1  102.58   24.34
 -10  -4  -1   83.26   22.11
  10   4   1   71.43   22.80
 -11  -3   5   88.93   27.51
  11  -3  -5   89.10   18.24
  11  -3  -5   80.92   13.99
  10   4   1   92.76   22.69
  10  -4   1  122.58   24.06
  11   3  -5  126.34   36.94
 -10  -4  -1   83.79   22.89
  11   3  -4  -18.42   26.52
 -11   3   4   14.18   22.29
 -11   3   4   -6.49   14.96
   0 -11   5  260.66   25.10
   0 -11   5  206.68   22.36
   0  11   5  211.51   15.54
   9  -5   3  287.36   47.52
   0 -11  -5  182.18   24.84
   9   5   3  302.56   27.83
   0 -11  -5  200.48   13.83
   0  11   5  188.57   24.28
  -9  -5  -3  281.55   44.67
   9   5   3  255.39   28.73
  -9   5  -3  330.32   30.30
  -9  -5  -3  261.15   27.78
   5   5  10  226.33   23.04
  -5  -5 -10  238.92   23.56
   5  -5  10  343.81   36.97
   5   5  10  139.86   45.54
  -5  -5 -10  253.43   26.63
   1  -9 -10  258.46   20.81
   1  -9 -10  315.24   19.45
  -1   9  10  337.83   32.44
   5  10   2 1704.72   44.79
  -5 -10  -2 1787.37   50.26
  -1  -9  10  255.48   18.55
  -1   9  10  280.97   19.91
   5  10   2 1797.22   58.45
  -1  -9  10  299.85   26.37
  -5 -10  -2 1796.78   42.80
   5 -10   2 1658.27   63.10
   5 -10   2 1626.91   49.55
  -7  -6  12   40.50   17.69
  -7   6  12   68.08   21.02
  -7  -6  12   46.97   21.45
  -7   6  12   49.21   15.20
   6  -9   3  250.32   24.70
   7   4   8 2124.05   53.36
   6  -9   3  238.23   44.93
  -6  -9  -3  249.30   30.50
  -6  -9  -3  283.05   25.70
   6   9   3  187.47   41.51
  -7   4  -8 2132.47   51.38
   7   4   8 2143.89   69.08
   2   6  12 1042.77   58.42
  -7  -4  -8 2010.48   49.64
   2  -6  12  978.25   32.03
   7  -4   8 2095.33   71.11
  -2  -6 -12 1016.82   36.55
  -2  -6 -12 1003.51   42.29
  -7  -4  -8 2047.95   69.78
   2   6  12  996.88   39.62
   2  -6  12  922.02   27.53
   2  -6  12 1005.17   33.24
   2  -6  12  965.14   24.39
   6   9   3  192.28   39.52
  -3   4  15 1496.44   40.67
  -3  -4  15 1509.66   53.24
  -3   4  15 1472.24   46.32
  -3  -4  15 1428.50   42.61
  -5  -9  -5  434.67   28.21
   5   9   5  454.10   29.07
  -5  -9  -5  471.71   33.22
   5  -9   5  483.33   48.82
   5  -9   5  460.60   42.27
   5   9   5  425.18   46.32
   2  -2  14 1842.29   57.17
   2   2  14 1972.21   48.01
   2   2  14 1850.84   33.80
  -7   5  13   63.77   26.93
  -7  -5  13  143.71   25.45
  -7   5  13  146.06   31.37
  -7  -5  13  137.10   21.80
  -2   2 -14 1749.71   38.92
  -2  -2 -14 1808.86   44.30
  -2  -2 -14 1909.59   45.55
   7  -7   5  467.23   28.70
   7  -7   5  505.52   33.10
  -7  -7  -5  446.64   30.59
   7   7   5  475.87   51.49
  -3  10   8 1117.12   32.72
   3 -10  -8 1150.10   46.03
   7   7   5  507.43   30.67
  -3 -10   8 1154.34   42.03
  -7  -7  -5  485.36   32.63
  -3 -10   8 1119.05   28.40
  -3 -10   8 1035.80   30.36
  -9   1  13  303.53   37.05
  -9  -1  13  276.05   24.75
  -9   1  13  301.93   27.21
  -9  -1  13  277.71   28.88
 -10   2  11   96.47   33.25
 -10  -2  11  147.14   21.80
  -8   5  12   22.08   14.83
 -10  -2  11  122.91   26.38
 -10   2  11  164.45   17.69
  -8  -5  12   31.02   21.53
  -8  -5  12   34.02   28.81
  -8   5  12   33.97   19.78
   3   5  12  486.42   22.77
  -3   3 -13  210.72   17.16
   3  -3  13  178.63   17.13
   3  -5  12  479.05   22.53
   3   3  13  196.76   17.08
   3   3  13  171.18   26.68
   3  -3  13  163.02   28.63
  -3  -5 -12  453.13   44.95
   3   5  12  440.40   32.59
  -3  -3 -13  227.89   23.95
   3  -5  12  451.86   27.85
  -3  -5 -12  457.31   34.92
  -3  -3 -13  184.05   17.82
   2   8  10 1368.76   48.92
   2   8  10 1372.49   41.30
  -2  -8 -10 1260.27   53.41
   2  -8  10 1277.25   31.08
  -2  -8 -10 1364.30   38.62
   2  -8  10 1307.52   34.64
   3 -11   2  533.63   51.10
   3 -11   2  432.16   28.69
   3  11   2  473.89   22.16
  -3 -11  -2  470.39   31.11
   3  11   2  514.45   45.23
  -3 -11  -2  480.82   32.65
  -6  -9   8   -2.42   27.53
  -6  -9   8   35.50   20.04
   6  -9  -8   49.84   22.72
   6   9  -8   47.15   19.07
   6   9  -8   42.89   17.15
   6  -9  -8   25.39   16.49
  -3   0  16  153.70   23.54
  -3   0  16   77.35   42.76
 -11   3   3 2376.11   51.99
 -11  -3   6  784.82   56.03
 -11  -3   6  863.54   26.79
 -11  -3   3 2428.09   51.36
  11  -3  -3 2299.55   51.03
 -11   3   3 2347.64   39.09
  11   3  -6  894.60   55.68
  11  -3  -6  821.83   24.97
 -11   3   6  831.02   21.71
  11   3  -3 2379.90   64.85
 -11  -3   3 2323.03   74.52
 -11   3   6  838.93   36.20
  11   3  -6  803.62   25.31
  11   3  -3 2403.32   55.84
  11  -3  -6  841.94   40.74
   9   7  -6 3321.54   69.36
   9  -7  -6 3314.61   55.63
  -9  -7   6 3511.92   58.13
   9   7  -6 3255.57   53.72
  -9  -7   6 3577.17   72.46
   9  -7  -6 3338.06   60.26
  -4  -4  15  115.17   19.57
  -4   4  15   90.92   24.83
  -4   4  15   99.79   21.98
  -5  -8  11   57.15   29.04
  -5   8  11   59.12   22.44
   5  -8 -11   73.54   12.59
  -5   8  11   34.88   19.93
   5  -8 -11   65.60   22.64
  -6  -3 -10  131.95   22.40
  -6   3 -10  152.32   21.87
   6  -3  10  177.29   25.96
   6  -3  10  132.11   23.00
   7   9   0   21.81   18.15
  -6   3 -10  159.87   14.20
  -6  -3 -10  140.58   23.21
  -7  -9   0   -4.17   18.28
   7   9   0   11.86   16.48
   6   3  10  197.98   22.47
  -7  -9   0   18.25   17.16
   7  -9   0    8.33   19.93
   7  -9   0   17.22   27.92
   6   3  10  231.59   26.18
  -4   0  16  399.86   27.03
  -4   0  16  295.02   50.09
  -7   0  15   17.69   27.25
  -8  -8   0 3963.06   94.64
  -7   0  15   16.17   20.70
   8  -8   0 3874.67   69.67
   8   8   0 3862.16   69.80
  -8  -8   0 3965.37   74.00
   8  -8   0 3884.33   75.28
   8   8   0 3863.95   73.83
   9   6  -9   46.25   23.05
   9  -6  -9   60.18   21.45
  -9  -6   9   61.41   24.14
   9  -6  -9   56.48   11.72
  -7   2  -9   44.45   12.69
   7  -2   9    7.36   20.94
   7   8  -9   28.91   10.59
  -7  -2  -9   38.91   20.12
   7  -8  -9   53.73   14.56
  -7  -8   9   -5.40   16.95
   7   8  -9   51.66   32.06
   7   2   9   17.83   18.19
   7  -2   9   21.52   19.16
   7  -8  -9   40.00   12.74
  -7   2  -9   37.61   19.40
  -7  -2  -9   -0.25   27.95
   7   2   9   18.91   28.46
   6  -6   8 1624.53   40.73
   6   6   8 1753.83   62.92
  -6  -6  -8 1620.60   64.76
  -6  -6  -8 1639.24   46.47
   6  -6   8 1658.78   45.87
   6   6   8 1676.77   49.94
  -8  -3  -7   10.19   16.72
   8  -3   7    5.72   26.15
   8   3   7    4.37   15.67
  -8   3  -7   10.29   17.20
   8   3   7   -3.45   15.22
  -8  -3  -7   -1.70   15.10
  -8   3  -7   -0.31   13.27
   0 -10   8   34.50   28.73
   0 -10   8   74.30   25.22
   0 -10  -8   65.08   19.17
   0 -10  -8   61.53   14.31
   0  10   8   29.81   25.24
   0  10   8   83.63   18.10
   2  -4 -15    4.69   14.96
  -2  -4  15   -2.16   13.46
  -2   4  15   15.56   16.85
  -2  -4  15    7.64   15.31
   9   3   5  339.14   29.24
  -9  -3  -5  270.51   25.22
  -9  -3  -5  278.75   28.76
   9  -3   5  264.78   47.35
  -9   3  -5  307.86   29.50
   9   3   5  305.29   27.55
  11  -2  -1   13.76   17.18
  11   2  -1    5.89   26.31
 -11   2   1  -10.20    9.99
  11   2  -1   10.74   16.21
 -11   2   1   -9.89   16.53
  11  -2  -1  -16.64   27.91
 -11  -2   1    6.55   15.74
 -11  -2   1   11.23   24.53
 -11  -2   8   33.01   27.82
  11   2  -8   10.61    9.74
 -11   2   8    7.21   17.03
  11  -2  -8   18.19   14.82
 -11   2   8   -1.04   13.23
  11   2  -8   10.55   18.17
  -3  -1  16 4546.92   84.91
  -3   1  16 4913.42   83.31
  -3  -1  16 4901.44  100.99
  -3   1  16 4810.19   88.13
 -10   2  -3  301.47   25.57
  10  -2   3  279.21   17.35
 -10  -2  -3  258.84   37.85
 -10  -2  -3  301.62   47.32
  10   2   3  289.88   45.77
  10  -2   3  279.11   47.17
  10   2   3  266.27   39.27
 -10   2  -3  304.48   30.07
   6  10  -2    2.86   15.09
  -6 -10   2   -5.13   16.02
   8   6 -11   92.60   23.56
  -8  -6  11   80.96   25.04
  -8   6  11  111.70   21.30
   6  10  -2   14.21   25.10
   6 -10  -2   17.34   26.00
  -8   6  11  118.44   24.65
   6 -10  -2   31.84   30.12
  -6 -10   2  -10.77   15.49
  -9  -7   1   21.60   18.82
   5   8   7   22.10   24.06
   9  -7  -1   24.95   17.12
   5  -8   7   17.21   25.43
   9  -7  -1   19.59   31.97
   5   8   7   -4.47   26.94
   9   7  -1   29.66   20.85
   9   7  -1   24.02   16.92
  -9  -7   1   19.80   34.10
   5  -8   7   -5.38   13.55
  -5  -8  -7   37.57   31.89
  -5  -8  -7   10.05   28.96
   6  10  -3   79.16   18.29
  -6 -10   3   33.00   31.28
   4  11  -2 2419.69   67.61
   6 -10  -3   47.83   18.88
   6  10  -3    0.66   27.89
  -4 -11   2 2482.97   54.11
   4 -11  -2 2398.84   53.02
   6 -10  -3   76.97   22.23
  -4 -11   2 2378.89   44.82
  -6 -10   3   57.56   18.51
   4 -11  -2 2310.06   58.25
   4  11  -2 2318.78   44.55
  -7  -9   6 1582.68   37.60
   7   9  -6 1422.25   33.89
   7  -9  -6 1498.16   40.45
  -7  -9   6 1570.03   62.56
   7  -9  -6 1536.05   49.98
   7   9  -6 1476.05   59.20
  -8   2  14  381.22   25.22
   4 -11  -1 1265.66   44.52
  -8   2  14  411.46   28.94
  -4 -11   1 1261.97   41.05
  -8  -2  14  488.05   32.87
   4 -11  -1 1268.72   58.09
   4  11  -1 1286.99   39.55
  -4 -11   1 1361.07   32.89
  -8  -2  14  421.16   43.41
   4  11  -1 1235.21   44.53
  -4  -1  16  700.48   36.81
  -4  -1  16  688.12   48.27
  -4   1  16  684.59   32.69
  -4   1  16  682.48   36.87
  -8   4  13   14.63   24.34
   1  -4  14 4711.01   71.00
   1  -4  14 4621.47   86.86
  -1  -4 -14 4555.77   98.06
   1   4  14 4346.26   70.22
  -8  -4  13    9.51   16.93
   1   4  14 4665.35   83.16
  -8   4  13   21.52   20.99
  -1  -4 -14 4554.90   73.34
  -8  -4  13    6.19   20.25
  -7  -1  15  274.20   30.84
  -7   1  15  299.21   25.27
  -7  -1  15  280.03   26.36
  -7   1  15  317.00   29.19
  11   0   0 3107.43   63.31
  11   0   0 3002.97   69.11
 -11   0   0 3045.29   53.40
 -11   0   0 3061.19   81.88
  11   0  -9   -9.98   16.23
 -11   0   9   16.76   17.06
  10  -5  -8  392.43   18.05
  10   5  -8  463.04   32.28
 -10  -5   8  413.88   33.68
  10  -5  -8  387.97   20.89
  10   5  -8  384.75   16.39
  -6   3  15   65.64   36.27
  -6  -3  15   67.39   24.08
  -6   3  15   84.22   19.47
  -6  -3  15   65.63   33.03
  -6   6  13  342.41   21.30
  -6  -6  13  337.70   28.83
  -6  -6  13  407.27   24.22
  -6   6  13  380.75   23.84
  -4   9  10  374.46   29.49
  -2   0  16  545.63   31.04
  -4  -9  10  367.82   26.48
  -2   0  16  575.34   53.56
   4  -9 -10  376.02   20.16
  -4   9  10  402.08   27.50
  -4  -9  10  374.42   23.24
   4  -9 -10  352.56   34.90
  -6  -7  -7  513.97   31.96
   6  -7   7  540.94   32.74
  -6  -7  -7  491.58   31.35
   6   7   7  558.12   34.78
   6   7   7  534.57   30.93
   6  -7   7  528.20   27.59
   2  11   4 2233.34   43.73
   3 -11  -5  147.19   24.48
   3 -11  -5  148.23   22.47
   3  11  -5  127.32   19.21
  -2 -11  -4 2410.04   56.25
  -2 -11  -4 2397.40   43.53
   2  11   4 2316.36   53.73
   2 -11   4 2347.49   52.07
   2 -11   4 2319.69   76.14
   3  11  -5  109.21   14.28
  -3 -11   5  134.32   23.08
  -3 -11   5  116.69   31.58
   8   7   3  180.75   26.29
   8  -7   3  195.09   27.89
  -8  -7  -3  198.79   45.72
   8   7   3  180.13   44.46
   8  -7   3  174.28   24.53
  -8  -7  -3  237.55   28.25
  -7  -7  11  286.62   22.84
   4 -11  -3  492.01   33.91
   4  11  -3  497.65   22.58
   4  11  -3  519.15   26.94
  -7   7  11  272.41   25.12
  -4 -11   3  576.75   23.69
  -4 -11   3  491.60   45.96
  -7  -7  11  259.90   28.03
  -7   7  11  314.12   28.05
   4 -11  -3  469.35   29.56
   6 -10  -1  176.56   27.71
   6  10  -1  140.17   22.83
  -6 -10   1  145.72   24.56
   6 -10  -1  212.44   23.97
   6  10  -1  184.90   35.98
  -6 -10   1  216.76   22.75
  -8  -8   7  148.86   26.07
   8   8  -7  141.35   14.83
   8   8  -7  129.48   24.52
   8  -8  -7   92.67   26.25
  -8  -8   7  106.01   41.44
 -11  -3   2 1170.94   37.14
 -11   3   2 1063.05   37.64
 -11  -3   2  998.96   57.12
  -6 -10   4  138.83   21.38
   6   5   9  214.84   37.79
   6   5   9  215.96   29.37
  -6  -5  -9  294.75   26.66
   6  -5   9  196.62   39.95
   6  10  -4  127.71   20.70
  11  -3  -2 1083.07   37.51
  -6  -5  -9  305.32   26.90
   6 -10  -4  160.71   33.35
  11   3  -2 1048.68   38.28
  11   3  -2 1033.13   35.81
  -6 -10   4  166.74   34.81
   6 -10  -4  152.16   24.84
  11  -3  -7  234.97   29.07
  11   3  -7  215.23   43.68
 -11   3   7  220.87   14.81
 -11  -3   7  220.07   28.01
  11   3  -7  209.45   15.90
  11  -3  -7  221.35   15.84
 -11  -3   7  221.24   17.19
 -11   3   7  195.23   17.82
  -1 -11  -5  452.75   30.71
   1 -11   5  441.59   41.25
   1  11   5  457.66   20.94
   1 -11   5  426.92   30.28
   1  11   5  418.54   29.01
  -1 -11  -5  404.05   19.37
  11   1   0  832.63   35.78
 -11   1   0  694.19   24.38
 -11  -1   0  756.08   33.37
 -11   1   0  672.80   51.89
  11  -1   0  769.95   35.30
  11  -1   0  772.84   38.26
 -11  -1   0  733.47   28.92
  11   1   0  767.68   31.75
   9   0   6 1175.69   42.98
  10   5   0 2352.61   70.27
  10  -5   0 2414.09   78.59
  -9   0  -6 1112.07   31.28
  -9   0  -6 1161.38   62.63
   9   0   6 1203.10   34.54
 -10  -5   0 2400.61   79.41
  10   5   0 2298.44   79.04
 -10  -5   0 2419.99   55.34
 -11   1   9    1.61   14.18
 -11   1   9    2.52   11.45
  -3  -7  13   83.93   15.21
  -3   7  13   80.96   17.80
 -11  -1   9    8.98   16.09
  11   1  -9   -7.08   27.56
  -3  -7  13   55.94   28.31
   0  -5  14 2947.69   54.01
   0  -5 -14 3063.01   61.06
   3  -7 -13   62.95   16.58
   0  -5  14 3040.51   64.10
   0   5  14 3010.33   62.00
  -9   2  13 1077.02   37.25
  -9   2  13 1118.28   47.20
  -9  -2  13 1133.95   37.58
   4  11   0    9.17   18.72
  -9  -2  13 1098.89   42.85
  -4 -11   0    0.20   31.64
   4 -11   0   -2.94   17.60
   4  11   0   17.57   24.47
  -4 -11   0   34.11   14.28
   4 -11   0   -3.00   15.72
   0  -9  10    0.71   10.97
   0   9  10    2.07   23.28
   0  -9  10    9.34   12.05
   0  -9 -10   11.51   13.50
   0   9  10   25.89   13.21
   0  -9 -10   -0.06   12.51
  -9  -6  -2    3.51   17.17
   9  -6   2   15.35   19.49
  -9  -6  -2  -14.37   17.89
   9   6   2   -1.24   31.46
   9   6   2    1.76   17.35
   9  -6   2   22.43   26.99
   1   0  15   -5.18   15.76
  -1   0 -15   12.41   25.51
  -7   4  14  142.49   19.10
  -2   1  16  539.49   30.88
  -7  -4  14   43.62   41.40
  -2  -1  16  462.33   28.95
  -2   1  16  467.24   34.78
  -7   4  14  142.84   34.84
  -7  -4  14  117.68   35.60
  -2  -1  16  467.22   32.99
  -5   0  16  417.64   29.03
  -5   0  16  466.13   33.62
  -2   7  13  368.88   37.62
   2  -7 -13  340.63   27.18
   2  -7 -13  296.22   35.06
  -2  -7  13  346.79   18.52
  -2  -7  13  320.79   21.27
  -2   7  13  292.82   23.92
  -6   7  12  227.33   16.53
  -6  -7  12  191.52   38.88
  -6   7  12  160.79   19.15
  -2 -10  -7 1665.29   47.37
   2  10   7 1658.85   60.64
  -2 -10  -7 1595.47   38.30
  -1  -7 -12 1072.98   42.82
  -1  -7 -12 1127.00   36.09
   1   7  12 1092.52   56.27
   1  -7  12 1100.89   33.63
   1  -7  12 1071.93   38.90
   2  10   7 1599.31   56.43
   2 -10   7 1676.29   44.66
   1   7  12 1059.78   28.71
   2 -10   7 1779.88   40.83
   3  10   6  224.96   38.35
   3 -10   6  202.60   22.93
   3  10   6  221.40   35.59
  -3 -10  -6  231.65   34.20
  -3 -10  -6  293.62   44.81
   3 -10   6  222.49   42.00
  -5  -4  15  620.04   30.11
  -5  -4  15  686.65   34.07
  -5   4  15  601.69   30.14
  -5   4  15  617.58   51.18
  -3  -9  -8  418.20   40.32
   3   9   8  465.81   40.74
   3  -9   8  401.66   23.64
  -3  -9  -8  474.63   29.61
   3   9   8  363.62   45.15
   3  -9   8  368.11   42.65
  -9  -7   7  336.04   19.70
  -9  -7   7  338.79   32.74
   9   7  -7  382.23   30.58
   9  -7  -7  278.18   22.32
   9   7  -7  324.68   17.29
   9  -7  -7  281.41   18.97
   0  -3  15    0.47   18.22
   0  -3 -15   63.50   33.70
   0   3  15   49.97   33.10
   0  -3  15   44.33   16.46
   9   1   6  390.48   25.53
  -9   1  -6  348.77   29.85
  -9   1  -6  361.54   31.59
   9  -1   6  284.62   31.42
   9   1   6  397.10   50.29
  -9  -1  -6  370.12   23.50
  -9  -1  -6  492.01   48.53
  -1  11   6   45.57   18.57
   1 -11  -6   42.71   30.84
  -1 -11   6   34.46   30.84
  -1 -11   6   54.22   17.24
  -4 -10   8   92.25   21.73
  -4 -10   8   -3.39   14.29
  -6  -5  14  482.94   27.60
   4 -10  -8    9.82   14.14
  -6   5  14  452.70   28.32
   4 -10  -8   21.09   16.11
  -6   5  14  497.14   24.93
  -6  -5  14  520.30   48.42
 -10  -6   4 1146.79   43.55
 -10  -6   4 1158.89   34.41
  -1  -1 -15  281.80   25.31
   2  -5  13 1007.21   27.38
   1   1  15  286.74   43.62
  10  -6  -4 1062.96   36.42
  10   6  -4 1072.98   43.42
   1  -1  15  359.02   40.14
  -2  -5 -13 1041.68   28.95
  -2  -5 -13 1081.18   38.28
  10  -6  -4 1091.44   32.19
  10   6  -4  991.69   45.27
   2  -5  13 1113.39   27.90
   5  10  -7  590.18   25.90
   2   5  13 1049.90   39.52
   5  10  -7  633.47   23.98
   5 -10  -7  688.34   27.80
   2   5  13 1083.92   41.72
  -5 -10   7  692.86   27.81
   5 -10  -7  689.54   45.75
  -5 -10   7  758.12   38.41
  -3  -6  14  204.88   23.44
  -3   6  14  203.21   23.83
  -3  -6  14  210.27   19.61
   3  -6 -14  203.80   21.52
  -3   2  16    5.50   26.69
  -3   2  16    0.19   19.17
  -3  -2  16    7.35   17.74
  -3  -2  16    3.38   15.32
  -5  -1  16  579.10   45.89
  -5   1  16  506.98   34.05
  -5   1  16  484.24   29.56
  -5  -1  16  436.68   52.53
  -8   0  -8    2.31   12.92
  -3 -11  -3   49.25   23.30
 -10   4  10  607.36   24.06
   3  11   3   -0.01   17.03
   3 -11   3   19.09   18.34
  -3 -11  -3   11.25   34.94
  -8   0  -8   15.81   17.49
   8   0   8   13.21   15.37
   8   0   8   18.09   31.23
 -10   4  10  586.61   30.92
 -10  -4  10  617.40   36.44
   3  11   3    1.03   12.69
  10   4 -10  611.81   36.51
   3 -11   3   15.25   16.46
   7   9   1  127.66   36.00
  -9   5  11   98.04   13.63
  -9   5  11   42.00   24.95
  -7  -9  -1   69.75   39.21
  -2  11   6  495.81   43.80
   9   5 -11   60.95   24.50
  -9  -5  11   94.51   25.59
   7  -9   1  125.07   23.08
  -7  -9  -1   91.03   22.63
   7  -9   1   94.79   41.90
   2 -11  -6  548.53   29.57
   7   9   1   93.58   38.96
  -2 -11   6  558.58   29.02
  -2 -11   6  584.07   39.85
   1   8  11    1.18   19.72
   1  -8  11   10.86   11.71
  -1  -8 -11   -2.42   13.17
  -1  -8 -11   -3.63   14.17
   1   8  11    6.75   16.04
   1  -8  11   -0.01   16.03
  -5 -10  -3 1355.78   38.23
  -5 -10  -3 1494.55   66.55
 -10  -6   5  122.22   28.31
   5  10   3 1284.01   39.63
  10   6  -5  122.91   26.09
  10   6  -5   92.08   17.06
 -10  -6   5  167.79   19.24
   5 -10   3 1325.13   44.90
  10  -6  -5  115.42   27.58
  10  -6  -5  129.99   32.05
 -10   0  12  346.26   24.09
 -10   0  12  237.19   43.98
   5 -10   3 1379.11   41.19
   5  10   3 1297.91   60.42
  -4   2  16   87.99   36.40
  -4 -11   4  489.72   27.44
   4 -11  -4  453.22   43.25
  -9   4  12 2266.45   43.13
  -4   2  16  132.79   41.41
   4  11  -4  449.43   25.91
  -4   7  13  577.75   25.30
  -9   4  12 2242.82   46.90
  -4  -7  13  520.27   24.21
   4  11  -4  463.24   33.08
  -4  -7  13  521.55   42.01
   4 -11  -4  504.75   31.65
  -4 -11   4  435.16   22.04
  -4   7  13  513.59   41.78
  -9  -4  12 2397.77   53.22
  -4  -2  16  106.72   25.49
  -9  -4  12 2462.13   83.64
  -4  -2  16  108.86   21.63
   4   4  12  251.49   46.46
   4  -4  12  233.65   27.17
  -5   0 -12 1793.74   40.92
  -4  -4 -12  290.36   32.69
   5   0  12 1839.37   42.07
   4  -4  12  276.12   21.75
   4   4  12  291.76   21.40
   5   0  12 1859.37   61.64
  -5   0 -12 1722.50   55.11
  -4  -4 -12  231.97   41.59
  -2  -8  12  320.00   16.93
  -3  -8  12 1291.95   39.61
  -3   8  12 1298.23   34.04
  -7  -2  15   66.71   41.67
   3  -8 -12 1329.06   45.26
   2  -8 -12  295.90   21.22
  -7  -2  15   78.61   21.65
  -7   2  15   85.60   20.00
   3  -8 -12 1297.20   29.73
  -2  -8  12  294.28   19.71
  -3  -8  12 1254.73   47.37
  -7   2  15   77.94   23.92
   2  -8 -12  261.21   28.85
  -3   8  12 1269.38   38.20
  -2   8  12  311.58   26.80
  -2   8  12  355.29   23.33
   6 -10   0  151.37   43.59
   2  -3  14  317.13   21.87
 -10  -6   3  424.26   33.65
   6  10   0  142.79   23.27
   1  -4 -15   18.14   17.74
  10  -6  -3  393.65   24.63
 -10  -6   3  396.93   26.18
   2  -3  14  284.20   35.32
   2   3  14  262.76   47.06
  -1  -4  15   16.42   23.65
   2   3  14  309.89   25.58
  -1  -4  15   -2.52   27.59
  -1   4  15   30.45   19.31
   6 -10   0  152.91   37.39
  10  -6  -3  453.02   29.24
  -2  -3 -14  321.84   27.13
   6  10   0  165.54   35.21
  10   6  -3  432.45   25.05
  -2  -3 -14  311.42   42.42
  -6 -10   0  202.21   22.53
  10   6  -3  453.30   33.07
  -6 -10   0  165.75   42.51
   4  -9   7  367.37   24.66
   4  -9   7  358.59   28.39
  -4  -9  -7  290.77   30.69
   4   9   7  313.40   44.87
   4   9   7  255.69   41.92
  -4  -9  -7  352.13   25.87
   5  -4  11   24.13   27.27
  -5  -4 -11   38.92   28.21
  -5  -4 -11   34.98   20.63
   5   4  11   24.03   16.77
  -5   4 -11   47.16   11.18
   5  -4  11   39.76   12.07
   5   4  11   40.31   22.25
  -5   4 -11   51.55   17.02
 -10   3  11   63.20   23.03
  10   3 -11   26.88   21.73
 -10  -3  11   69.15   38.25
 -10   3  11   28.04   27.41
   2  -9   9  154.94   34.50
   2   9   9  171.43   23.83
  -2  -9  -9  188.41   21.58
  -2  -9  -9  217.18   23.53
   2   9   9  171.68   34.35
   2  -9   9  207.48   18.61
   6 -10  -5  379.21   38.41
  -6 -10   5  420.43   25.79
  -6 -10   5  444.65   26.77
   6 -10  -5  486.24   45.63
   6  10  -5  374.17   23.03
   6  10  -5  396.79   24.72
   9  -7   0  122.81   35.12
   9   7   0   94.09   36.11
   8  -8   1   -3.15   15.92
  -2  -6  14  419.14   21.63
   9  -7   0  146.43   26.11
   8   8   1   -9.74   13.90
   8  -8   1   20.46   22.06
  -8  -8  -1    8.85   31.36
   8   8   1    8.98   25.20
  -2  -6  14  393.40   24.71
   2  -6 -14  422.14   26.05
  -9  -7   0  110.76   40.97
   9   7   0  147.76   26.39
  -2   6  14  433.46   43.11
  -9  -7   0  127.91   24.60
  -8  -8  -1   21.73   31.54
  -4   0 -13    1.44   10.68
  -4   0 -13   -0.37   19.90
   4   0  13   -1.66   15.00
   4   0  13   -6.00   11.61
   4  11   1   28.37   14.99
   4 -11   1   26.26   19.64
  -4 -11  -1   23.45   14.72
   4  11   1   44.12   19.48
   4 -11   1   24.35   22.58
  -4 -11  -1   37.75   20.84
   8   1   8   48.26   21.90
  -8  -1  -8   -1.55   31.33
  -4   6  14 1140.81   56.01
  -1  -6 -13  215.80   18.34
   8  -1   8   61.92   15.98
  -4  -6  14 1142.38   33.34
  -8   1  -8   31.84   12.75
   1   6  13  225.63   16.72
  -8   1  -8   11.53   19.18
  -1  -6 -13  183.21   39.86
   1  -6  13  244.53   17.74
  -4   6  14 1116.21   34.98
  -4  -6  14 1149.67   37.69
   8  -1   8   18.44   35.60
   8   1   8   49.19   30.92
   1   6  13  172.18   43.11
  -8  -1  -8   -1.96   14.90
   1  -6  13  190.71   15.64
  -8  -5  -6  800.39   55.65
  -8   5  -6  756.30   37.70
   8   5   6  728.01   52.47
   8   5   6  671.62   37.23
  -8  -5  -6  747.05   35.94
   8  -5   6  711.89   37.26
 -10  -1  12  854.14   46.57
 -10  -1  12  817.73   38.14
 -10   1  12  807.41   34.33
 -10   1  12  827.78   29.72
   0 -11   6  851.93   31.59
   0 -11  -6  752.97   32.14
   0 -11  -6  860.62   51.52
   0 -11   6  892.28   34.63
   0  11   6  856.67   25.19
   0  11   6  904.22   34.11
  -5  -1 -12  312.38   37.99
  -5  -1 -12  251.83   21.84
  -5   1 -12  261.74   22.02
  10   4   2  157.20   25.13
   5  -1  12  290.05   23.14
 -10  -4  -2  130.14   25.07
  -5   1 -12  330.08   20.97
  10   4   2  122.18   25.54
   5   1  12  231.16   35.30
   5  -1  12  311.91   22.99
 -10  -4  -2  120.44   24.17
  10  -4   2  127.70   26.61
 -10   4  -2  140.35   26.62
   5   1  12  233.30   41.48
 -11  -2   0  372.16   26.33
 -11   2   0  381.69   28.08
   7  -3   9 1967.89   50.89
   7   3   9 1951.47   72.40
  -7  -3  -9 1949.00   47.33
 -11  -2   0  370.13   29.51
  11   2   0  292.50   45.16
   7  -3   9 1971.94   37.15
  -7   3  -9 1959.47   49.13
  -7   3  -9 1861.33   33.96
  11  -2   0  460.00   48.47
  11   2   0  327.95   43.54
 -11   2   0  386.37   30.27
  -7  -3  -9 1941.63   48.92
   7   3   9 2100.80   68.59
  11  -2   0  364.28   28.96
   7   9  -7   87.46   13.95
   7  -9  -7    1.03   18.86
   7  -9  -7   66.04   25.12
  -7  -9   7   67.47   16.07
   7   9  -7   51.38   32.57
  -7  -9   7   71.16   21.62
 -11   2   9    0.30   13.70
  11   2  -9   12.61   19.12
 -11  -2   9    9.60   18.38
 -11   2   9   11.54   17.36
   1 -10   8   82.22   19.34
  -1 -10  -8   58.31   25.54
   8   7 -10 1787.58   49.10
   1  10   8   88.07   30.88
  -1 -10  -8   89.36   33.30
   1 -10   8   61.91   27.12
  -8  -7  10 1700.99   50.05
   8  -7 -10 1677.86   34.65
   1  10   8   71.33   18.10
   8  -7 -10 1678.92   41.67
   4 -10   5 1369.30   56.24
  -4 -10  -5 1333.54   37.70
   4 -10   5 1321.03   43.77
   4  10   5 1302.66   40.82
  -4 -10  -5 1326.99   44.70
   4  10   5 1310.75   39.40
  11   3  -1   46.47   19.09
  -1  -7  13  275.57   19.80
  -1   7  13  300.18   40.67
 -11  -3   1   14.67   19.05
   1  -7 -13  305.57   18.05
 -11   3   1   32.47   31.53
  -1   7  13  311.00   24.91
 -11  -3   1   37.42   31.19
  11   3  -1   32.14   20.52
   1  -7 -13  261.36   36.51
  -1  -7  13  254.44   16.70
  11  -3  -1   13.95   20.78
   4  -1  13  113.43   32.72
  -2  -2  16  394.51   31.56
  -2   2  16  422.16   48.56
   4   1  13  147.71   23.35
  -4  -1 -13  134.81   34.40
  10   0   4 1391.70   49.97
  11   4  -4 1202.52   48.07
  11  -4  -4 1220.54   33.04
  11  -4  -5  412.66   25.06
  -4   1 -13  123.59   29.80
 -11  -4   4 1265.89   44.04
 -10   0  -4 1269.45   44.47
  -2   2  16  443.17   33.73
 -11  -4   4 1290.21   36.06
   4   1  13  163.95   27.25
  11  -4  -4 1200.32   36.73
  11   4  -5  373.31   21.94
  11   4  -5  396.85   33.34
  11  -4  -5  469.47   32.69
 -10   0  -4 1297.74   34.18
  11   4  -4 1226.48   65.11
  -2  -2  16  447.16   42.82
  10   0   4 1346.78   46.30
  -4   1 -13  168.35   28.11
   4  -1  13  107.21   17.75
 -11  -4   5  396.63   33.95
 -11  -4   5  499.80   36.59
  11   3  -8  588.30   51.66
  11  -3  -8  549.10   22.07
 -11   3   8  554.97   23.90
  11  -3  -8  484.53   18.47
 -11  -3   8  538.61   34.59
 -11   3   8  523.43   20.28
  10  -6  -6   81.11   28.60
   7  -8   4  589.58   36.57
  -7  -8  -4  591.20   37.26
  10  -6  -6   55.38   15.43
 -10  -6   6   64.44   23.62
 -10  -6   6    0.99   23.12
   7  -8   4  693.59   32.85
   7   8   4  695.69   36.80
   7   8   4  631.78   33.37
  10   6  -6   76.96   14.39
  10   6  -6   31.73   24.94
  -7  -8  -4  673.72   53.08
  10  -3   3  903.16   60.72
 -10  -3  -3  894.15   52.45
  10   3   3  907.54   54.96
  -8  -6  -5  401.87   30.16
  10   3   3  900.17   38.76
 -10   3  -3  933.86   60.66
   8   6   5  357.99   32.92
 -10  -3  -3  891.44   39.16
  -8  -6  -5  380.87   32.71
   8  -6   5  354.92   28.65
   8   6   5  393.05   30.06
   8  -6   5  409.54   32.66
  -1   0  16   25.32   33.44
  -1   0  16   17.68   29.74
  -6  -9  -4   80.77   21.18
   6   9   4   53.66   22.85
   6  -9   4   80.95   21.13
   6  -9   4   56.34   23.80
  -6  -9  -4   -4.41   39.01
   6   9   4   60.80   35.62
  -8  -3  14  556.76   31.71
 -10  -6   2 1064.76   42.65
  -8  -3  14  680.34   37.15
  -8   3  14  598.77   46.91
 -10  -6   2 1089.97   36.76
  10   6  -2 1067.72   51.06
  10   6  -2 1034.52   43.73
  10  -6  -2 1000.43   38.47
  10  -6  -2 1009.59   49.99
  -8   3  14  625.33   27.75
  -6   0 -11   -2.60   12.70
   6   0  11   14.54   15.55
   6   0  11    1.99   15.34
  -6   0 -11    9.19   13.82
   9  -2   6  713.22   23.86
  -9  -2  -6  762.49   37.08
   9   2   6  632.80   36.29
  -9   2  -6  694.51   36.01
   9  -2   6  791.87   39.31
  -9  -2  -6  727.42   44.65
   9   2   6  732.05   33.10
  -9   2  -6  709.11   22.00
   6  -8   6   23.65   28.93
  -6  -8  -6   29.50   28.75
   6   8   6   32.92   21.70
  -2  10   9  796.18   25.06
  -2  10   9  814.35   41.06
   6  -8   6   15.35   20.70
   6   8   6   30.85   19.55
   2 -10  -9  758.93   32.76
  -2 -10   9  765.85   25.84
   2 -10  -9  827.05   44.12
  -6  -8  -6    0.01   18.99
  -3  -4 -13   26.44   26.07
  -3  -4 -13   -0.57   11.52
  -4  -8  12  101.77   30.89
  -1  -8  12  370.53   16.72
   3  -4  13    3.42   18.09
  -4   8  12   93.44   25.71
   1  -8 -12  317.20   31.33
   4  -8 -12  113.51   23.90
  -1   8  12  375.42   19.38
  -4   8  12  156.43   29.18
  -1  -8  12  344.89   29.11
   3  -4  13   17.28   10.78
   3   4  13  -37.63   17.88
   3   4  13    6.61   28.04
   4  -8 -12  109.67   14.10
  -1   8  12  366.96   25.54
   1  -8 -12  379.37   23.91
   1   2  15   21.74   18.77
   1  -2  15   16.26   16.00
   1  -2  15   -1.84   27.81
  -1  -2 -15   17.15   18.31
 -10   1  -4  246.44   27.66
  10  -5  -9   13.91   18.22
  10   5  -9   -0.11   20.94
 -10  -5   9   18.73   22.65
  10  -1   4  280.66   30.16
 -10   5   9   35.88   18.59
 -10   1  -4  259.82   30.03
  10  -5  -9   15.41   15.43
  10   1   4  284.92   31.19
 -10  -1  -4  233.72   21.56
 -10  -1  -4  221.04   29.44
  10  -1   4  259.78   19.74
 -10   5   9   10.45   15.86
  10   1   4  231.84   23.65
   6  -9  -9   39.83   22.99
  -6  -9   9   48.25   12.58
   6  -9  -9   49.78   16.43
  -6  -9   9    7.25   18.61
   6   9  -9   38.81   29.34
  -5  -2  16 1243.88   39.58
  -5   2  16 1183.73   65.72
  -5  -2  16 1172.05   44.58
  -5   2  16 1295.88   58.50
 -11  -4   3 3324.49   67.82
  11  -4  -6  897.09   38.37
 -11  -4   3 3124.29   60.49
  11  -4  -3 2957.26   60.10
  11  -4  -6  901.99   30.77
  11   4  -3 3015.14   57.01
 -11  -4   6  919.31   28.93
   3  11  -6 3428.82   63.18
  -3 -11   6 3678.61   64.35
  11   4  -6  922.20   27.45
  11   4  -3 3244.35   91.33
 -11  -4   6  955.01   41.39
   3 -11  -6 3546.69   66.48
   3 -11  -6 3550.86   69.83
  11   4  -6  895.78   39.60
   3  11  -6 3582.38   61.73
  -1  -1  16  531.67   51.22
  -1   1  16  443.09   33.82
  -1   1  16  491.63   30.01
  -1  -1  16  461.63   29.66
  -7  -6  -7  823.19   36.81
   7   6   7  854.87   37.11
   7   6   7  837.34   40.93
  -7  -6  -7  831.77   38.65
   7  -6   7  899.32   49.79
   7  -6   7  807.35   38.54
  -8  -8   8 1886.79   36.52
   8  -8  -8 1735.66   40.43
  -9  -6  10 1442.40   48.66
  -8  -8   8 2013.52   73.08
   8   8  -8 1708.61   49.10
   8   8  -8 1812.97   44.23
   8  -8  -8 1731.47   36.13
   9   6 -10 1407.18   47.73
 -11   0  -1   19.14   18.99
  -6  -4 -10 1620.63   43.51
  -9  -5  -4  131.14   24.85
  11   0   1    8.45   17.39
  -6  -4 -10 1614.22   45.45
  -9   5  -4  104.03   26.53
  11   0   1  -10.19   13.31
   9   5   4  112.65   26.42
   9  -5   4   96.49   27.35
  -6   4 -10 1479.26   59.40
   6  -4  10 1737.39   44.69
   6   4  10 1711.57   50.18
  -9  -5  -4  122.27   26.30
 -11   0  -1   -1.34   21.94
   6   4  10 1684.76   61.28
   9   5   4  127.40   24.95
   0 -12   0  977.64   56.21
   0  12   0  919.62   36.42
  -6  -1 -11   -1.68   16.14
   6  -1  11    0.05   28.68
   6   1  11    5.23   17.72
  -5  -9  10 1770.44   59.00
   6  -1  11   34.85   16.21
   6   1  11   46.16   18.66
   5  -9 -10 1587.90   38.05
  -6   1 -11    2.53   13.71
  -6  -1 -11   43.76   16.09
   5  -9 -10 1622.83   35.39
 -11   0  10  706.12   27.77
 -11   0  10  758.42   33.67
  -6   1 -11   33.98   25.98
  -1 -10   9  435.74   36.44
  -1 -10   9  441.82   22.51
  -1  10   9  427.55   25.02
   1 -10  -9  493.60   20.92
   1 -10  -9  486.92   26.11
  -1  10   9  506.48   34.17
   6  -8 -11  294.90   27.94
  -6   8  11  293.34   28.09
   6  -8 -11  256.54   16.32
  -6  -8  11  289.64   27.14
  -6   8  11  318.55   16.88
  -9   3  13  566.94   37.38
  -9  -3  13  670.27   55.82
  -9   3  13  460.68   44.29
  -9  -3  13  584.33   48.28
   4  11  -5  188.01   17.36
  -8   4  -7 1098.35   41.37
  -4 -11   5  263.09   29.58
   4 -11  -5  220.32   23.59
   4 -11  -5  189.46   41.93
   4  11  -5  167.41   20.20
  -4 -11   5  216.19   23.14
  -8  -4  -7 1127.83   39.02
  -8  -4  -7 1122.09   41.71
   8   4   7 1044.50   62.55
   8  -4   7 1136.60   62.85
   8   4   7 1061.80   59.93
  -9  -4  -5   55.83   20.94
   9   7  -8 1558.39   40.79
   9  -7  -8 1542.71   33.49
   9  -4   5   28.83   36.00
   9   4   5   29.09   34.50
  -9  -7   8 1648.81   73.78
  -9  -4  -5   50.38   23.64
  -9   4  -5   55.69   37.96
   9  -7  -8 1562.92   36.82
   9   7  -8 1554.30   48.59
   9   4   5   34.15   21.94
  -9  -7   8 1709.08   45.41
  -3   0 -14 2404.00   43.07
  10   5   1   43.96   22.98
  10  -5   1   41.69   23.55
 -10  -5  -1   17.28   20.63
 -10  -5  -1   31.15   32.91
 -10   5  -1   23.80   21.26
  -3   0 -14 2538.04   67.49
  10   5   1   31.87   32.91
   3   0  14 2620.53   74.84
   3   0  14 2540.08   56.02
   6  10   1  118.53   36.64
   6 -10   1  109.21   26.66
  -6 -10  -1  125.95   34.32
  -6 -10  -1  104.40   25.21
   6 -10   1  105.89   22.47
   6  10   1  116.22   22.12
;
_shelx_hkl_checksum              52700
_shelx_res_file
;
TITL 10032318
    shelxl.res
    created by SHELXL-2016/6 at 17:51:52 on 14-Sep-2017
CELL  0.71075 8.36590 8.54923 11.70870 90.000 106.968 90.000
ZERR  2 0.00055 0.00053 0.00073 0.000 0.002 0.000
LATT 1
SYMM    -X, .50+Y, .50-Z
SFAC C H O N CL
UNIT 32 24 12 4 4
SHEL 99999.000000 0.000000
L.S. 20
FMAP 2
PLAN -20
WPDB -2
HTAB
BOND $H
CONF
LIST 4
TEMP -153.0
ACTA
SIZE 0.210 0.200 0.120
LIST 4
WGHT    0.041100    0.357000
FVAR       2.57294
CL1   5    0.931568    0.739120    0.688345    11.00000    0.01596    0.01889 =
         0.01530   -0.00478    0.00420    0.00248
O1    3    1.247310    0.581358    0.693289    11.00000    0.01431    0.02100 =
         0.01445   -0.00296    0.00035    0.00171
O2    3    0.683956    0.616007    0.460945    11.00000    0.01181    0.02240 =
         0.01511   -0.00235    0.00180    0.00466
O3    3    0.410123    0.514224    0.304745    11.00000    0.01410    0.02032 =
         0.01418    0.00338    0.00317   -0.00102
H3    2    0.508684    0.534005    0.348151    11.00000   -1.50000
N1    4    0.488197    0.712165    0.055407    11.00000    0.01477    0.01597 =
         0.01553    0.00052    0.00505   -0.00204
H1    2    0.566239    0.771775    0.039275    11.00000   -1.50000
C1    1    1.130172    0.547893    0.605345    11.00000    0.01286    0.01334 =
         0.01213    0.00060    0.00343    0.00103
C2    1    0.964281    0.608229    0.583480    11.00000    0.01338    0.01505 =
         0.01222   -0.00211    0.00358    0.00208
C3    1    0.833956    0.567080    0.485513    11.00000    0.01321    0.01440 =
         0.01203    0.00064    0.00340    0.00159
C4    1    0.511671    0.661803    0.167343    11.00000    0.01221    0.01418 =
         0.01425    0.00007    0.00253   -0.00067
AFIX  43
H4    2    0.609229    0.691448    0.228545    11.00000   -1.20000
AFIX   0
C5    1    0.392879    0.565933    0.193880    11.00000    0.01209    0.01271 =
         0.01437    0.00008    0.00371    0.00103
C6    1    0.251627    0.524297    0.101521    11.00000    0.01286    0.01798 =
         0.01938    0.00003    0.00308   -0.00332
AFIX  43
H6    2    0.169400    0.457667    0.116909    11.00000   -1.20000
AFIX   0
C7    1    0.231810    0.580690   -0.012948    11.00000    0.01668    0.02088 =
         0.01686   -0.00187   -0.00009   -0.00306
AFIX  43
H7    2    0.135178    0.553857   -0.075971    11.00000   -1.20000
AFIX   0
C8    1    0.352902    0.675931   -0.035065    11.00000    0.01975    0.01988 =
         0.01318   -0.00048    0.00311   -0.00139
AFIX  43
H8    2    0.340534    0.715121   -0.113094    11.00000   -1.20000
AFIX   0
HKLF 4
REM  10032318
REM R1 =  0.0275 for    2166 Fo > 4sig(Fo)  and  0.0294 for all    2329 data
REM    124 parameters refined using      0 restraints
END
WGHT      0.0410      0.3586
REM Instructions for potential hydrogen bonds
EQIV $1 -x+2, -y+1, -z+1
HTAB O3 O1_$1
HTAB O3 O2
EQIV $2 x, -y+3/2, z-1/2
HTAB N1 O2_$2
HTAB C4 Cl1_$2
EQIV $3 -x+1, y-1/2, -z+1/2
HTAB C7 Cl1_$3
EQIV $4 x-1, y, z-1
HTAB C8 O1_$4
HTAB C8 O3_$2
REM Highest difference peak  0.517,  deepest hole -0.195,  1-sigma level  0.060
Q1    1   0.4510  0.6081  0.1801  11.00000  0.05    0.52
Q2    1   1.0454  0.5752  0.5944  11.00000  0.05    0.49
Q3    1   0.8945  0.5864  0.5363  11.00000  0.05    0.47
Q4    1   1.1462  0.4873  0.5586  11.00000  0.05    0.47
Q5    1   0.3208  0.5426  0.1474  11.00000  0.05    0.46
Q6    1   0.3025  0.6226 -0.0244  11.00000  0.05    0.44
Q7    1   0.2481  0.5541  0.0433  11.00000  0.05    0.40
Q8    1   0.4973  0.6726  0.1075  11.00000  0.05    0.35
Q9    1   0.4207  0.6869  0.0114  11.00000  0.05    0.34
Q10   1   0.7537  0.5915  0.4827  11.00000  0.05    0.29
Q11   1   0.3980  0.5433  0.2442  11.00000  0.05    0.28
Q12   1   0.9444  0.6590  0.6270  11.00000  0.05    0.26
Q13   1   1.1840  0.5591  0.6507  11.00000  0.05    0.25
Q14   1   0.8221  0.7570  0.6666  11.00000  0.05    0.25
Q15   1   1.0232  0.7741  0.7026  11.00000  0.05    0.21
Q16   1   1.3155  0.5548  0.6911  11.00000  0.05    0.18
Q17   1   0.9553  0.6980  0.7632  11.00000  0.05    0.18
Q18   1   0.9042  0.8153  0.6379  11.00000  0.05    0.18
Q19   1   0.6714  0.6702  0.5012  11.00000  0.05    0.17
Q20   1   1.2347  0.6409  0.7147  11.00000  0.05    0.17
;
_shelx_res_checksum              60720
loop_
_space_group_symop_operation_xyz
'x, y, z'
'-x, y+1/2, -z+1/2'
'-x, -y, -z'
'x, -y-1/2, z-1/2'
loop_
_atom_site_type_symbol
_atom_site_label
_atom_site_fract_x
_atom_site_fract_y
_atom_site_fract_z
_atom_site_U_iso_or_equiv
_atom_site_adp_type
_atom_site_calc_flag
_atom_site_occupancy
Cl Cl1 0.93157(3) 0.73912(3) 0.68834(2) 0.01680(8) Uani d 1
O O1 1.24731(9) 0.58136(9) 0.69329(7) 0.01740(16) Uani d 1
O O2 0.68396(9) 0.61601(9) 0.46095(7) 0.01689(16) Uani d 1
O O3 0.41012(10) 0.51422(9) 0.30475(7) 0.01640(16) Uani d 1
H H3 0.509(2) 0.5340(19) 0.3482(15) 0.025 Uiso d 1
N N1 0.48820(11) 0.71217(11) 0.05541(8) 0.01529(17) Uani d 1
H H1 0.566(2) 0.7718(19) 0.0393(15) 0.023 Uiso d 1
C C1 1.13017(12) 0.54789(11) 0.60534(9) 0.01283(18) Uani d 1
C C2 0.96428(12) 0.60823(12) 0.58348(9) 0.01358(18) Uani d 1
C C3 0.83396(12) 0.56708(12) 0.48551(9) 0.01327(18) Uani d 1
C C4 0.51167(12) 0.66180(12) 0.16734(9) 0.01383(18) Uani d 1
H H4 0.609229 0.691448 0.228545 0.017 Uiso calc 1
C C5 0.39288(12) 0.56593(11) 0.19388(9) 0.01309(18) Uani d 1
C C6 0.25163(13) 0.52430(13) 0.10152(10) 0.0171(2) Uani d 1
H H6 0.169400 0.457667 0.116909 0.021 Uiso calc 1
C C7 0.23181(14) 0.58069(13) -0.01295(10) 0.0192(2) Uani d 1
H H7 0.135178 0.553857 -0.075971 0.023 Uiso calc 1
C C8 0.35290(14) 0.67593(13) -0.03506(9) 0.0180(2) Uani d 1
H H8 0.340534 0.715121 -0.113094 0.022 Uiso calc 1
loop_
_atom_site_aniso_label
_atom_site_aniso_U_11
_atom_site_aniso_U_22
_atom_site_aniso_U_33
_atom_site_aniso_U_12
_atom_site_aniso_U_13
_atom_site_aniso_U_23
Cl1 0.01596(13) 0.01889(13) 0.01530(13) 0.00248(8) 0.00420(9) -0.00478(8)
O1 0.0143(3) 0.0210(4) 0.0144(3) 0.0017(3) 0.0004(3) -0.0030(3)
O2 0.0118(3) 0.0224(4) 0.0151(3) 0.0047(3) 0.0018(3) -0.0023(3)
O3 0.0141(3) 0.0203(4) 0.0142(3) -0.0010(3) 0.0032(3) 0.0034(3)
N1 0.0148(4) 0.0160(4) 0.0155(4) -0.0020(3) 0.0050(3) 0.0005(3)
C1 0.0129(4) 0.0133(4) 0.0121(4) 0.0010(3) 0.0034(3) 0.0006(3)
C2 0.0134(4) 0.0151(4) 0.0122(4) 0.0021(3) 0.0036(3) -0.0021(3)
C3 0.0132(4) 0.0144(4) 0.0120(4) 0.0016(3) 0.0034(3) 0.0006(3)
C4 0.0122(4) 0.0142(4) 0.0142(4) -0.0007(3) 0.0025(3) 0.0001(3)
C5 0.0121(4) 0.0127(4) 0.0144(4) 0.0010(3) 0.0037(3) 0.0001(3)
C6 0.0129(4) 0.0180(5) 0.0194(5) -0.0033(3) 0.0031(4) 0.0000(4)
C7 0.0167(5) 0.0209(5) 0.0169(5) -0.0031(4) -0.0001(4) -0.0019(4)
C8 0.0198(5) 0.0199(5) 0.0132(4) -0.0014(4) 0.0031(4) -0.0005(4)
loop_
_atom_type_symbol
_atom_type_description
_atom_type_scat_dispersion_real
_atom_type_scat_dispersion_imag
_atom_type_scat_source
C C 0.0033 0.0016 'International Tables Vol C Tables 4.2.6.8 and 6.1.1.4'
H H 0.0000 0.0000 'International Tables Vol C Tables 4.2.6.8 and 6.1.1.4'
O O 0.0106 0.0060 'International Tables Vol C Tables 4.2.6.8 and 6.1.1.4'
N N 0.0061 0.0033 'International Tables Vol C Tables 4.2.6.8 and 6.1.1.4'
Cl Cl 0.1484 0.1585 'International Tables Vol C Tables 4.2.6.8 and 6.1.1.4'
loop_
_geom_angle_atom_site_label_1
_geom_angle_atom_site_label_2
_geom_angle_atom_site_label_3
_geom_angle_site_symmetry_3
_geom_angle
C5 O3 H3 . 109.0(11)
C4 N1 C8 . 123.22(9)
C4 N1 H1 . 119.0(11)
C8 N1 H1 . 117.8(11)
O1 C1 C2 . 124.03(9)
O1 C1 C3 3_766 117.27(8)
C2 C1 C3 3_766 118.70(8)
C3 C2 C1 . 123.17(9)
C3 C2 Cl1 . 120.15(7)
C1 C2 Cl1 . 116.69(7)
O2 C3 C2 . 126.33(9)
O2 C3 C1 3_766 115.54(8)
C2 C3 C1 3_766 118.13(8)
N1 C4 C5 . 119.86(9)
N1 C4 H4 . 120.1
C5 C4 H4 . 120.1
O3 C5 C4 . 121.95(9)
O3 C5 C6 . 119.64(9)
C4 C5 C6 . 118.41(9)
C7 C6 C5 . 119.69(9)
C7 C6 H6 . 120.2
C5 C6 H6 . 120.2
C8 C7 C6 . 119.88(9)
C8 C7 H7 . 120.1
C6 C7 H7 . 120.1
N1 C8 C7 . 118.94(9)
N1 C8 H8 . 120.5
C7 C8 H8 . 120.5
loop_
_geom_bond_atom_site_label_1
_geom_bond_atom_site_label_2
_geom_bond_site_symmetry_2
_geom_bond_distance
Cl1 C2 . 1.7409(10)
O1 C1 . 1.2302(12)
O2 C3 . 1.2735(12)
O3 C5 . 1.3387(12)
O3 H3 . 0.850(18)
N1 C4 . 1.3384(13)
N1 C8 . 1.3414(14)
N1 H1 . 0.891(17)
C1 C2 . 1.4319(13)
C1 C3 3_766 1.5409(14)
C2 C3 . 1.3778(13)
C4 C5 . 1.3915(13)
C4 H4 . 0.9500
C5 C6 . 1.3952(14)
C6 C7 . 1.3880(15)
C6 H6 . 0.9500
C7 C8 . 1.3818(15)
C7 H7 . 0.9500
C8 H8 . 0.9500
loop_
_geom_hbond_atom_site_label_D
_geom_hbond_atom_site_label_H
_geom_hbond_atom_site_label_A
_geom_hbond_site_symmetry_A
_geom_hbond_distance_DH
_geom_hbond_distance_HA
_geom_hbond_distance_DA
_geom_hbond_angle_DHA
_geom_hbond_publ_flag
O3 H3 O2 . 0.852(17) 1.803(17) 2.6277(12) 162.5(16) y
O3 H3 O1 3_766 0.852(17) 2.438(17) 2.9738(12) 121.6(14) y
N1 H1 O2 4_575 0.889(17) 1.807(17) 2.6684(12) 162.6(16) y
C8 H8 O1 1_454 0.95 2.45 3.1481(13) 130 y
loop_
_geom_torsion_atom_site_label_1
_geom_torsion_atom_site_label_2
_geom_torsion_atom_site_label_3
_geom_torsion_atom_site_label_4
_geom_torsion_site_symmetry_1
_geom_torsion_site_symmetry_4
_geom_torsion
O1 C1 C2 C3 . . -178.76(10)
C3 C1 C2 C3 3_766 . 0.78(16)
O1 C1 C2 Cl1 . . 1.08(14)
C3 C1 C2 Cl1 3_766 . -179.38(7)
C1 C2 C3 O2 . . 179.87(10)
Cl1 C2 C3 O2 . . 0.03(15)
C1 C2 C3 C1 . 3_766 -0.78(16)
Cl1 C2 C3 C1 . 3_766 179.39(7)
C8 N1 C4 C5 . . 0.55(16)
N1 C4 C5 O3 . . -179.23(9)
N1 C4 C5 C6 . . 0.30(15)
O3 C5 C6 C7 . . 178.57(10)
C4 C5 C6 C7 . . -0.97(15)
C5 C6 C7 C8 . . 0.83(17)
C4 N1 C8 C7 . . -0.70(16)
C6 C7 C8 N1 . . -0.01(17)
