#------------------------------------------------------------------------------
#$Date: 2019-12-26 21:22:11 +0200 (Thu, 26 Dec 2019) $
#$Revision: 246100 $
#$URL: file:///home/coder/svn-repositories/cod/cif/2/31/17/2311750.cif $
#------------------------------------------------------------------------------
#
# This file is available in the Crystallography Open Database (COD),
# http://www.crystallography.net/. The original data for this entry
# were provided by IUCr Journals, http://journals.iucr.org/.
#
# The file may be used within the scientific community so long as
# proper attribution is given to the journal article from which the
# data were obtained.
#
data_2311750
loop_
_publ_author_name
'Ende, Martin'
'Effenberger, Herta'
'Miletich, Ronald'
_publ_section_title
;
 Evolution of the \a-BaMg(CO<sub>3</sub>)<sub>2</sub> low-temperature
 superstructure and the tricritical nature of its \a-\b phase transition.
;
_journal_issue                   'Pt 5'
_journal_name_full
'Acta crystallographica Section B, Structural science, crystal engineering and materials'
_journal_page_first              827
_journal_page_last               835
_journal_paper_doi               10.1107/S2052520617009295
_journal_volume                  73
_journal_year                    2017
_chemical_formula_sum            'C6 Ba3 Mg3 O18'
_chemical_formula_weight         845.01
_space_group_crystal_system      trigonal
_space_group_IT_number           167
_space_group_name_Hall           '-R 3 2"c'
_space_group_name_H-M_alt        'R -3 c :H'
_audit_creation_method           SHELXL-2014/7
_cell_angle_alpha                90
_cell_angle_beta                 90
_cell_angle_gamma                120
_cell_formula_units_Z            2
_cell_length_a                   5.01870(10)
_cell_length_b                   5.01870(10)
_cell_length_c                   33.5273(9)
_cell_measurement_reflns_used    9472
_cell_measurement_temperature    340(2)
_cell_measurement_theta_max      45
_cell_measurement_theta_min      1.5
_cell_volume                     731.33(3)
_computing_structure_refinement  'SHELXL-2014/7 (Sheldrick, 2014)'
_diffrn_ambient_temperature      340(2)
_diffrn_measured_fraction_theta_full 0.993
_diffrn_measured_fraction_theta_max 0.996
_diffrn_measurement_device_type  StoeStadiVari
_diffrn_radiation_type           MoK\a
_diffrn_radiation_wavelength     0.71073
_diffrn_reflns_av_R_equivalents  0.0291
_diffrn_reflns_av_unetI/netI     0.0138
_diffrn_reflns_Laue_measured_fraction_full 0.993
_diffrn_reflns_Laue_measured_fraction_max 0.996
_diffrn_reflns_limit_h_max       9
_diffrn_reflns_limit_h_min       -10
_diffrn_reflns_limit_k_max       10
_diffrn_reflns_limit_k_min       -9
_diffrn_reflns_limit_l_max       66
_diffrn_reflns_limit_l_min       -34
_diffrn_reflns_number            9472
_diffrn_reflns_point_group_measured_fraction_full 0.993
_diffrn_reflns_point_group_measured_fraction_max 0.996
_diffrn_reflns_theta_full        25.242
_diffrn_reflns_theta_max         45.575
_diffrn_reflns_theta_min         3.646
_exptl_absorpt_coefficient_mu    8.231
_exptl_absorpt_correction_T_max  0.8
_exptl_absorpt_correction_T_min  0.7
_exptl_absorpt_correction_type   numerical
_exptl_absorpt_process_details   '(Stoe & Cie GmbH 2016)'
_exptl_crystal_density_diffrn    3.837
_exptl_crystal_description       prismatic
_exptl_crystal_F_000             768
_exptl_crystal_size_max          0.060
_exptl_crystal_size_mid          0.030
_exptl_crystal_size_min          0.030
_refine_diff_density_max         0.773
_refine_diff_density_min         -0.548
_refine_diff_density_rms         0.120
_refine_ls_extinction_method     none
_refine_ls_goodness_of_fit_ref   0.980
_refine_ls_hydrogen_treatment    undef
_refine_ls_matrix_type           full
_refine_ls_number_parameters     17
_refine_ls_number_reflns         700
_refine_ls_number_restraints     0
_refine_ls_restrained_S_all      0.980
_refine_ls_R_factor_all          0.0241
_refine_ls_R_factor_gt           0.0109
_refine_ls_shift/su_max          0.000
_refine_ls_shift/su_mean         0.000
_refine_ls_structure_factor_coef Fsqd
_refine_ls_weighting_details
'w=1/[\s^2^(Fo^2^)+(0.0119P)^2^+0.6958P] where P=(Fo^2^+2Fc^2^)/3'
_refine_ls_weighting_scheme      calc
_refine_ls_wR_factor_gt          0.0224
_refine_ls_wR_factor_ref         0.0246
_reflns_Friedel_coverage         0.000
_reflns_number_gt                474
_reflns_number_total             700
_reflns_threshold_expression     'I > 2\s(I)'
_cod_data_source_file            xk5041sup1.cif
_cod_data_source_block           norse_340
_cod_original_cell_volume        731.33(4)
_cod_original_sg_symbol_H-M      'R -3 c'
_cod_database_code               2311750
_shelx_shelxl_version_number     2014/7
_shelx_space_group_comment
;
The symmetry employed for this shelxl refinement is uniquely defined
by the following loop, which should always be used as a source of
symmetry information in preference to the above space-group names.
They are only intended as comments.
;
_shelx_estimated_absorpt_t_min   0.638
_shelx_estimated_absorpt_t_max   0.790
_shelx_res_file
;

    norse_340.res created by SHELXL-2014/7


TITL norse_100K_woo_a.res in R-3c
REM Old TITL norse_100k_woo in R-3c

REM SHELXT solution in R-3c
REM R1 0.027,  Rweak 0.000,  Alpha 0.038,  Orientation as input
REM Formula found by SHELXT:  C2 O6 Mg Ba

CELL  0.71073   5.0187   5.0187  33.5273   90.000   90.000  120.000
ZERR    2.000   0.0001   0.0001   0.0009    0.000    0.000    0.000
LATT  3
SYMM -Y, X-Y, Z
SYMM -X+Y, -X, Z
SYMM Y, X, 1/2-Z
SYMM X-Y, -Y, 1/2-Z
SYMM -X, -X+Y, 1/2-Z
SFAC C O MG BA
UNIT 12 36 6 6
L.S. 20
TEMP 66.85
SIZE 0.06 0.03 0.03
BOND $H
ACTA
LIST 4
FMAP 2
PLAN 20
REM EXTI    0.000000
WGHT    0.011900    0.695800
FVAR       0.21948
BA1   4    0.000000    0.000000    0.250000    10.16667    0.01049    0.01049 =
         0.01495    0.00000    0.00000    0.00524
MG2   3    0.000000    0.000000    0.000000    10.16667    0.00826    0.00826 =
         0.01216    0.00000    0.00000    0.00413
O3    2    0.125617    0.833262    0.129124    11.00000    0.03246    0.02622 =
         0.02442   -0.00623   -0.01028    0.02490
C4    1    0.000000    0.000000    0.130349    10.33333    0.00959    0.00959 =
         0.01073    0.00000    0.00000    0.00479
HKLF 4

REM  norse_100K_woo_a.res in R-3c
REM R1 =  0.0109 for     474 Fo > 4sig(Fo)  and  0.0241 for all     700 data
REM     17 parameters refined using      0 restraints

END

WGHT      0.0118      0.7041

REM Highest difference peak  0.773,  deepest hole -0.548,  1-sigma level  0.120
Q1    1  -0.1308 -0.0596  0.1308  11.00000  0.05    0.34
Q2    1   0.0078  0.7072  0.1168  11.00000  0.05    0.33
Q3    1   0.3298  0.9856  0.1189  11.00000  0.05    0.31
Q4    1   0.0364  0.5203  0.1186  11.00000  0.05    0.30
Q5    1   0.1667  0.2945  0.2738  11.00000  0.05    0.30
Q6    1  -0.0225  0.5625  0.1357  11.00000  0.05    0.28
Q7    1   0.4540  1.0348  0.1358  11.00000  0.05    0.26
Q8    1  -0.2250  0.5674  0.1248  11.00000  0.05    0.26
Q9    1  -0.0723  0.6805  0.1352  11.00000  0.05    0.25
Q10   1   0.4099  1.1041  0.1527  11.00000  0.05    0.25
Q11   1   0.0231  0.6320  0.1035  11.00000  0.05    0.24
Q12   1  -0.0536  0.0381  0.2651  11.00000  0.05    0.23
Q13   1  -0.1641  0.6295  0.1581  11.00000  0.05    0.23
Q14   1   0.4298  1.0803  0.1114  11.00000  0.05    0.22
Q15   1  -0.0473  0.5290  0.1559  11.00000  0.05    0.21
Q16   1   0.2965  1.0086  0.0981  11.00000  0.05    0.21
Q17   1   0.2060  0.7916  0.1451  11.00000  0.05    0.21
Q18   1  -0.0739  0.1772  0.2681  11.00000  0.05    0.20
Q19   1  -0.0384  0.7419  0.1555  11.00000  0.05    0.20
Q20   1   0.2123  0.7307  0.1310  11.00000  0.05    0.19
;
_shelx_res_checksum              71930
_shelx_hkl_file
;
   0   2  19   -3.53    4.66   0
   0   5  -2  313.34    8.90   0
   0   5   1   -3.08    5.07   0
   1   0 -26  695.39   17.22   0
   2   2  36  352.45    9.84   0
   0   4  14  314.48    8.48   0
   1   3  28  692.56   12.03   0
   1   0  25    1.61    6.15   0
   1   2  29    1.88    4.83   0
   0   1  14 1763.14   25.23   0
   0   4 -13   -5.03    5.91   0
   0   4  11    2.63    4.79   0
   0   3  15   -1.26    6.04   0
   1  -2   0 3002.81   31.95   0
   1  -2   3   15.15    5.73   0
   1   1  27    4.03    5.31   0
   2  -1  30  564.59   18.03   0
   0   4 -10  423.37   11.47   0
   0   4   8 1541.01   17.05   0
   1   4  21    3.90    4.75   0
   2   1  34  572.10   12.97   0
   1   5 -13    3.51    5.64   0
   0   4  -7    2.61    5.57   0
   0   4   5    3.43    4.99   0
   2   2  33    0.07    4.71   0
   0   4   2 1407.71   16.87   0
   1   2  26  521.66   11.57   0
   1   5 -10  435.37   10.51   0
   0   2  13   -1.67    5.77   0
   0   4  -4 1374.99   17.31   0
   1   4  18  715.65   12.16   0
   0   1  11    0.02    5.56   0
   0   3 -15   -1.78    5.48   0
   1   5  -7   -1.00    5.24   0
   1   5   2  305.24    8.96   0
   2   0  32  609.18   14.47   0
   0   2 -17   -0.12    7.54   0
   1   5  -1    3.64    4.82   0
   0   3   9   -3.83    4.74   0
   1   3  22  338.05    8.90   0
   0   0  -6 1580.59   51.55   0
   1   4  15    2.12    4.66   0
   0   2  10  188.67    8.29   0
   0   3 -12 2567.72   28.08   0
   0   3   6 2064.94   20.94   0
   1   1  24 1729.13   20.86   0
   2  -3  17    5.41    5.11   0
   2   2  30  190.41    8.03   0
   1   0  22  466.48   14.25   0
   2   1  31    1.49    5.37   0
   0   3   3   -3.43    5.65   0
   1  -2   9   23.02    6.15   0
   1   3  19    8.21    5.67   0
   1   4  12 1086.44   13.71   0
   0   1   8 9333.30   60.39   0
   0   3  -9   -1.30    4.84   0
   0   3   0 2572.63   24.26   0
   3   1  35    1.18    5.19   0
   0   2   7   -2.83    6.01   0
   0   3  -3   -1.62    5.12   0
   1   4   9    3.22    4.67   0
   0   0  -9   -1.00    7.90   0
   1   3  16 2017.25   19.09   0
   1   4 -15    6.58    5.05   0
   1   4   6  347.43    8.90   0
   1   2  20 1431.17   17.33   0
   2   2  27    4.36    5.18   0
  -2   1  30  567.28   10.75   0
  -1   0  20 1497.86   18.24   0
  -1   1  22  465.46   11.40   0
   0   0  -6 1665.26   35.03   0
  -3  -1  25    0.88    4.40   0
  -3  -2  14  369.95    9.90   0
  -3   0  30  542.70   10.30   0
  -1   2  21   11.70    5.35   0
  -2  -2   9   -1.05    5.04   0
  -2  -1  20 1435.64   17.05   0
   0   0  -9   -4.38    6.61   0
  -2   2  29    0.58    5.43   0
  -1  -1  12 4093.09   33.11   0
  -4  -2  13    3.06    5.41   0
  -2   0  25   -1.75    5.06   0
   0   2   1    0.67    6.24   0
  -4  -1  24  612.86   10.98   0
  -2   1  27    1.93    5.81   0
  -1   0  17   -0.85    6.34   0
   0   0 -12  297.24   12.22   0
  -3  -2  11    3.48    5.71   0
  -3   3  33   -2.56    6.52   0
  -2   4  24 1766.34   28.58   0
  -1   1  19    0.83    7.11   0
  -3   0  27   -3.04    6.01   0
  -1   3  17    6.66    9.71   0
  -2  -1  17    5.08    6.51   0
   0   2   4 4759.66   36.36   0
   0   3   3   -1.85    4.55   0
  -3   6  12  700.72   11.77   0
  -2   5  11    0.02    5.16   0
  -2   6   7   -4.48    4.64   0
   1   2  -4 3010.38   28.36   0
   1   4 -12  922.60   13.64   0
  -4   3  17    1.87    5.57   0
   2   2 -24 1717.90   25.90   0
   0   4   2 1389.10   16.28   0
  -4   5  18  350.88   10.19   0
  -3   0   6 1932.53   27.10   0
  -3   4  17   -0.33    5.67   0
  -3   5  16 1716.90   18.41   0
   0   5  -2  324.26    8.48   0
   1   4  -9    0.73    5.21   0
   2   1 -20 1385.20   30.01   0
  -4   6  17    1.63    5.37   0
  -1   3  11    8.55    5.75   0
  -1   4  10 1141.20   15.23   0
   1  -1 -16 5182.10   45.13   0
   1   5 -19    2.98    5.03   0
  -4   4  19   -1.98    5.42   0
  -3   6  15    0.15    4.81   0
   0   3   6 1986.80   20.15   0
  -1   5   9   12.94    5.29   0
   0   5   1    3.39    5.17   0
   1   1  -3   16.98    6.71   0
   0  -1  -8 9999.99   58.74   0
   0   4   5    4.39    5.44   0
   1   4  -6  842.17   12.71   0
  -4   1  10 1043.73   25.16   0
  -2   2  14  325.93   12.14   0
   1   2  -1   25.05    5.80   0
   1   5 -13    7.28    5.29   0
   1  -1 -19    1.52    4.56   0
  -2   3  16 2003.68   22.77   0
   0   2   7   -2.03    5.87   0
   2   1 -17    8.44    6.87   0
  -3   3  18 1273.28   20.64   0
  -2   6  13   -2.26    4.41   0
   1   5 -10  431.11    9.81   0
   2   2 -15    0.48    5.34   0
  -3   1  11    9.89    9.91   0
  -3   5  19    4.78    5.72   0
  -1   4  13    7.19    5.20   0
   2   3 -19    3.68    5.17   0
  -4   6  20  583.93   11.61   0
   0   1   5   -0.73    6.22   0
   0   5   4 1106.86   13.66   0
  -4   5  21    2.84    5.15   0
  -3   6  18  389.74    9.31   0
  -1   5  12 1102.36   14.05   0
  -2   5  17   -0.36    5.44   0
   0   4   8 1531.65   16.69   0
   1   5  -7    1.27    5.34   0
   2   3 -16 1761.05   20.69   0
  -3   4  20  862.98   14.77   0
  -1   3  14 1584.97   18.76   0
   0   3   9    2.00    4.52   0
   1   3   1    9.81    4.81   0
  -2   4  18 1006.62   14.55   0
   2   2 -12  772.48   15.28   0
   0  -1 -11    1.17    3.86   0
   2   3 -13    3.69    5.54   0
  -3   2  16 2027.28   36.52   0
   0   5   7    3.72    5.20   0
   1   2   2  683.36   13.63   0
   1   5  -4  709.54   11.73   0
   2   1 -14 1622.23   28.49   0
  -2   0   4 4697.71   48.04   0
  -3   6  21    2.05    5.40   0
  -1   4  16 1967.13   18.80   0
  -1   5  15    1.89    4.53   0
   1   1   0 3998.84   38.62   0
   2   2  -9   -0.07    4.75   0
   2   3 -10  711.52   13.02   0
  -4   6  23    3.33    5.32   0
  -3   5  22  269.92    8.77   0
   0   4  11    1.94    4.51   0
   1   3   4 1257.63   15.67   0
   1   4   3    0.74    5.15   0
   1   5  -1   11.66    5.37   0
  -2   5  20  561.07   10.94   0
   0   2  10  185.10    8.11   0
   2   4 -14  248.90    8.44   0
  -2   3  19    1.05    4.91   0
   0   3  12 2004.68   19.98   0
   0   5  10  686.17   10.94   0
  -1   1  10 3746.47   47.73   0
   2   3  -7    4.79    5.10   0
   2   4 -11   -0.86    4.83   0
  -2   4  21    5.19    5.48   0
   2   1 -11   11.51    5.86   0
   1   2   5    1.78    4.42   0
   2   2  -6  819.87   14.75   0
  -3   4  23    7.11    5.24   0
   2   4  -8  814.62   12.88   0
   0   4  14  304.79    8.15   0
   1   3   7   12.46    4.79   0
   2   3  -4  687.79   12.36   0
  -3   3  21    0.58    4.88   0
   0   5  13    4.67    4.35   0
  -2   2  17   -1.22    4.50   0
  -2   5  23    0.63    5.30   0
   2   4  -5   -3.67    4.92   0
  -3   5  25   -2.21    5.02   0
   0   1   8 9466.37   60.43   0
   0   3  15   -1.25    5.44   0
   2   2  -3    1.78    4.94   0
   1   4   9    9.35    5.25   0
   2   1  -8 3364.35   35.73   0
   0   2  13   -1.18    4.38   0
   1   1   3   16.30    5.63   0
   2   3  -1   -3.18    4.48   0
   1   3  10 1099.81   14.59   0
   2   4  -2  571.88   10.91   0
   0   4  17   -3.37    5.23   0
   0   5  16  644.34   10.50   0
   1   2   8 3282.50   26.19   0
  -2   4  24 1739.27   18.97   0
  -2   3  22  453.30   11.59   0
  -1   0   2 1917.08   42.15   0
   2   3   2  785.00   12.65   0
   2   4   1   -1.24    4.93   0
   1   4  12 1088.30   13.35   0
  -2   5  26  595.59   11.17   0
  -3   4  26  606.97   12.98   0
   2   1  -5    6.47    5.03   0
   1   3  13    4.02    5.44   0
   0   4  20 1208.22   14.15   0
   1   2  11   14.17    5.56   0
   0   2  16 2934.87   25.35   0
   1   1   6 1959.30   24.16   0
   1   4  15    2.28    4.39   0
  -2   4  27    1.79    5.08   0
  -1   4  25    1.60    4.34   0
  -3   3  24 1023.48   18.73   0
  -1   3  23   -1.41    4.33   0
   0   1  11    1.84    6.35   0
  -2   0  -2 4954.73   38.78   0
   1   3  16 2099.42   18.95   0
   2   3   8 2089.64   18.70   0
  -2   5  29    0.27    4.36   0
   0   3  21    3.63    5.17   0
   3   3  -9    6.31    5.20   0
  -2   2  20 3436.20   35.29   0
   0   4  23    1.27    4.29   0
   1   4  18  700.95   11.13   0
   2   2   6  773.24   12.69   0
  -2   3  25    3.14    5.08   0
   1   2  14 1655.49   18.21   0
   3   2 -14  364.82   11.43   0
   3   3  -6  439.39   10.16   0
   1   0  -5    0.18    9.74   0
   3   2 -11    2.41    5.32   0
  -3   4  29   -1.32    5.09   0
   2   1   1   22.36    5.59   0
   2   3  11    8.84    4.37   0
   3   2  -8 2140.27   22.76   0
   3   3  -3    4.77    4.93   0
  -3   2  19    0.52    6.75   0
   0   2  19    2.04    5.22   0
   1   1   9   25.57    6.33   0
  -1   4  28  664.68   11.28   0
   1   0 -23   -0.68    4.66   0
   1   3  19    6.60    4.53   0
   2   2   9   -1.22    5.23   0
   2   4  13    0.49    4.82   0
  -1   2  21    7.68    4.05   0
   1   4  21    3.97    4.76   0
   3   2  -5    6.58    5.34   0
   3   3   0 1015.48   13.96   0
  -2   4  30  189.85    7.78   0
  -1   3  26  499.57   10.91   0
  -3   1   8 3303.73   43.91   0
   0   3  24 1494.07   16.20   0
  -1   0  -1    0.24    5.56   0
   1   2  17    4.22    5.46   0
   2   3  14  383.04    8.66   0
   3   2  -2  805.00   13.61   0
   2   1   4 3021.90   27.21   0
   3   3   3    3.09    4.55   0
   0   1  14 1618.26   22.34   0
   1   0 -20 1514.18   26.17   0
   2   2  12  758.34   12.06   0
   1   3  22  357.18    8.50   0
   3   2   1    1.85    4.80   0
  -2   3  28 1282.63   17.84   0
  -1   4  31    0.35    5.14   0
   3   3   6  428.18    9.54   0
   0   2  22 1849.12   19.59   0
   1   1  12 3936.38   30.64   0
   2   3  17   -0.60    4.32   0
  -3   3  27   -0.66    4.62   0
   2   1   7   -1.25    4.19   0
   3   2   4  689.03   12.10   0
  -1   0  -4 2576.46   34.06   0
  -1   3  29    4.31    5.15   0
   1   2  20 1429.19   16.10   0
   2   2  15    2.22    4.97   0
   3   3   9    4.35    4.63   0
  -2   2  23    2.20    4.97   0
  -2   4  33   -0.10    5.09   0
  -1   2  24 1771.97   20.92   0
   1   0 -17   -1.29    5.07   0
   1   3  25    2.53    4.98   0
   3   1 -10 1094.60   20.02   0
   2   3  20  570.36    9.99   0
   3   1  -7   10.98    5.84   0
   3   2   7    9.21    5.06   0
  -1   0  -7    2.39    4.69   0
  -3   1 -16 1910.82   49.32   0
  -5   1  21    0.06    4.88   0
  -1  -2  40  417.03   11.48   0
  -1  -1  33    4.18    5.96   0
  -1   0 -19   -0.18    5.92   0
  -4   1  22  358.98    9.31   0
  -2   1   9   26.14    6.14   0
  -3   1  20 1429.98   17.51   0
  -2  -1  38  294.35    9.75   0
  -2   1  12 3970.83   33.39   0
   0  -1  28 1306.17   20.72   0
   1  -2  30  573.68   16.32   0
  -4   1  25   -4.22    5.12   0
   1  -1 -10 3645.41   34.47   0
   0   0   6 1582.99   42.95   0
  -3   1  23   -3.21    5.43   0
  -2   0  31    2.60    5.18   0
  -5   2   2  791.65   14.22   0
  -5   2   5    5.63    5.92   0
  -2   1  15    0.45    5.03   0
  -1  -1  36  876.73   15.25   0
  -6   2   4  857.10   13.92   0
  -5   2  -1   -1.01    5.75   0
  -5   2   8 2104.09   20.89   0
  -4   1  28  695.66   12.35   0
  -6   2   1   -1.01    5.44   0
  -6   2   7   -1.02    4.99   0
  -3   0  36  492.56   11.22   0
  -1   0  26 1149.19   17.77   0
  -6   2  -2  573.77   12.51   0
  -6   2  10  321.51    8.98   0
  -5   2  -4  679.59   14.51   0
  -2  -1  41    0.13    6.19   0
   0   0   9    0.50    8.41   0
  -6   2  13    4.79    5.49   0
  -5   2  14  372.23    9.73   0
  -3   1  26  537.36   11.17   0
  -2   1  -9   22.67   10.31   0
  -2   1  18 1182.32   17.44   0
  -6   2  -5    0.34    5.78   0
   1  -1  -7    0.48    5.10   0
   1  -1  17    0.32    7.08   0
  -4   1  31    3.22    6.06   0
  -4   2   0 4131.98   33.19   0
  -4   2   9   -2.61    5.09   0
  -2   0  34  266.80    8.96   0
   0  -1  31   -2.95    5.64   0
  -5   2  -7    4.15    6.09   0
  -5   2  17   -0.03    4.96   0
  -4   2  12  769.71   13.66   0
  -5   2  20  580.45   11.32   0
  -4   2  -3   -0.87    5.43   0
  -4   2  15    9.46    5.91   0
  -3   1  29    7.42    5.90   0
  -2   1  21    7.05    5.24   0
  -1  -1  39    2.71    5.63   0
   0   0  12  259.96   14.22   0
  -1   0  29   -0.15    6.08   0
  -2   0 -23   -0.21    5.67   0
   1  -2  33    2.57    5.47   0
  -5   2  23    4.00    5.45   0
  -4   2  18 1078.37   14.86   0
  -5   2 -10  680.12   15.93   0
  -2   0  37   -3.34    5.89   0
  -1   0 -16 4918.87   54.20   0
  -4   2  -6  779.58   17.19   0
  -2   1  24 1790.96   20.11   0
   1  -1  -4 2389.22   33.69   0
  -4   2  21   -0.63    5.15   0
   0   0  15   -0.39    6.47   0
   0  -1  34  887.76   17.03   0
  -4   2  24 1878.92   18.96   0
  -1   0  32 1635.35   19.98   0
  -3   2   7    2.09    4.85   0
  -3   2  10 2000.53   21.99   0
  -3   1  35    2.13    5.82   0
  -3   2   4 2984.78   28.97   0
  -3   2  13   11.25    5.35   0
  -2   0  40  764.64   13.54   0
  -4   2  27    6.86    5.00   0
  -3   2  16 2054.04   21.10   0
  -4   2  -9    2.34    6.05   0
  -3   2  19   -0.48    5.18   0
   1  -1  -1   -0.83    7.45   0
  -1   0  35   -0.62    5.93   0
  -6   3   6  443.42   10.73   0
  -6   3   9    2.94    4.94   0
  -6   3  12  679.43   11.88   0
  -6   3  15    1.76    5.80   0
  -4   2  30  184.38    7.42   0
   0  -1  37   -0.23    5.55   0
   0   0  21    0.22    5.28   0
   2  -2   7    1.16    5.71   0
   2  -2  13   -0.15    7.18   0
  -3   2  22  473.20   10.71   0
  -6   3   3    4.21    5.55   0
  -2   0  43   -2.83    4.92   0
  -2   1  33   -0.59    5.80   0
  -1   1  10 3657.18   37.11   0
  -1   1  13    1.05    5.42   0
  -6   3   0 1039.54   15.73   0
  -5   3   7   12.59    5.73   0
  -5   3  16 1780.56   18.41   0
  -4   2  33   -1.58    4.83   0
  -3   2  25    8.65    5.20   0
  -1   1   7    1.10    7.84   0
  -1   1  16 5161.65   39.54   0
   1  -1  23    0.53    6.28   0
  -5   3   4  700.33   13.17   0
  -5   3  19    3.60    4.86   0
  -1   0  38  259.40    9.40   0
   0   0  24 4626.34   39.30   0
  -5   3  22  288.44    8.90   0
  -3   2  28 1318.50   16.30   0
  -1   1  19   -4.39    4.86   0
  -6   3  -3   -1.38    5.84   0
  -5   3   1    1.21    5.56   0
  -2   1  36  854.54   14.07   0
  -1   1   4 2362.24   35.68   0
  -5   3  25   -0.37    4.82   0
  -4   2 -12  727.44   20.58   0
  -3   2  31    1.93    5.64   0
  -3   2  -5    5.48    5.38   0
   0   0  27   -1.38    6.18   0
   1  -1   2 1789.22   38.30   0
  -5   3  -2  778.13   14.75   0
  -4   3  14  673.32   12.55   0
  -4   3  11    9.49    5.20   0
  -4   3  17   -5.07    5.15   0
  -1   0  41    0.49    5.74   0
  -4   3  20  875.93   13.18   0
  -2   0 -20 3132.24   40.55   0
  -2   1  39    3.10    5.62   0
   1  -1  26 1103.60   24.68   0
  -4   3  23    8.73    5.13   0
  -2   2  14  341.43   10.13   0
  -2   2  17    6.78    5.96   0
  -2   2  11    0.48    4.98   0
  -1   1  28 1308.46   18.21   0
  -4   3  26  632.49   11.28   0
  -2   2  20 3411.15   27.09   0
   0   0  30  163.06    8.74   0
  -5   3  -5    3.92    5.75   0
  -3   2  37   -1.03    5.04   0
  -2   2   8 2149.08   24.96   0
  -1   1   1   -2.06    8.85   0
  -4   3   2  847.83   15.02   0
  -4   3  29    0.66    5.33   0
  -2   1  42  313.43    9.44   0
  -2   2  23   -3.30    5.20   0
  -1   1  31   -1.59    5.63   0
  -6   4  14  255.03    8.69   0
  -2   2  26 1228.98   16.19   0
  -6   4  11    2.21    5.47   0
  -4   3  32  801.70   12.72   0
  -2   2   5   -1.22    6.36   0
   1  -1  29    1.76    5.67   0
   0   0  33   -1.31    5.19   0
  -6   4   8  823.64   13.43   0
  -4   3  -1   12.95    5.54   0
  -3   2  -8 3164.73   40.26   0
  -2   1  45   -0.94    5.36   0
  -1   1  34  932.36   15.39   0
  -6   4   5   -4.87    5.44   0
   0  -1 -11   -0.86    3.51   0
  -5   3  -8 2079.17   26.22   0
  -2   2  32  623.66   12.26   0
  -5   4  18  371.31    9.39   0
  -3   3  15    0.90    5.20   0
  -3   3  18 1322.76   16.45   0
  -3   3  21   -2.19    5.61   0
  -5   4  21   -3.65    4.75   0
  -3   3  12 2549.67   23.48   0
  -3   3  24 1064.81   14.94   0
  -2   2   2 5133.10   42.18   0
  -6   4   2  580.70   12.13   0
  -1   1  37   -0.38    5.61   0
   0   0  36  577.36   13.69   0
  -5   4   9    3.10    5.59   0
  -3   3  27   -4.51    5.78   0
  -2   2  35   -1.19    5.59   0
   1  -1   5    1.84    9.31   0
   1  -1  32 1659.91   28.29   0
  -3   3   9    5.28    4.84   0
  -4   3  -4 1310.04   20.16   0
  -3   3  30  284.30    9.08   0
  -5   4   6  869.05   14.07   0
  -6   4  -1   -1.76    5.64   0
  -3   3   6  524.19   12.40   0
  -2   2  38  244.86    8.84   0
  -1   1  40  698.37   13.53   0
   0   0  39    0.93    5.24   0
  -5   4   3   11.78    6.04   0
  -4   4  19   -6.56    5.00   0
  -2   2  -1    0.80    6.46   0
  -2   2  41   -1.32    5.60   0
  -5   3 -11    2.61    6.35   0
  -4   4  16 1521.13   17.02   0
  -4   4  25    3.36    4.91   0
  -3   3   3    1.94    4.44   0
  -1   1  -2 1762.30   40.39   0
  -6   4  -4  834.38   15.61   0
  -4   4  13   -3.16    4.99   0
  -4   4  28  618.24   11.80   0
  -1   1  43   -1.39    5.68   0
  -5   4   0 1419.01   18.76   0
  -4   4  10  390.05   10.49   0
  -4   3  -7    6.34    6.01   0
   0  -1  -8 9594.33   63.39   0
  -3   3  -9   -0.87    4.73   0
  -2   3  22  451.57   10.39   0
  -5   5  -1   -3.24    4.67   0
  -3   4  11    7.92    5.91   0
  -3   4  14  691.45   11.92   0
  -3   4  17   -2.34    4.75   0
  -3   4  20  900.84   13.57   0
  -2   2  41   -1.85    5.49   0
  -1   2  15   -3.19    5.59   0
  -1   2  18 1157.07   17.68   0
   0  -1  -8 9639.84   62.87   0
  -3   4  23    3.78    5.43   0
  -2   3   7    2.09    4.50   0
  -1   2  12 3990.21   32.95   0
  -5   4 -15    2.34    5.74   0
  -3   4   8 2673.32   22.39   0
  -4   4  -8 1465.79   18.56   0
  -2   3  28 1301.34   16.23   0
   0   0  33   -0.74    5.46   0
  -5   5  -4 1093.15   14.87   0
  -1   2   9   27.89    5.68   0
  -1   2  24 1752.90   20.51   0
  -4   5  15   11.32    5.39   0
  -4   5  18  373.41    9.16   0
  -3   4   5    6.54    4.85   0
  -2   3   4 2920.02   25.62   0
  -4   5  12  914.08   13.37   0
  -4   5  21    5.52    4.54   0
  -3   4  29    2.65    4.44   0
   1  -2   6 1927.30   26.63   0
  -2   4  18 1020.26   13.44   0
  -2   5  32  648.31   11.93   0
  -2   5  35    6.54    5.80   0
  -2   5  38   78.78    6.29   0
  -1   4   7   10.20    4.59   0
  -1   6  26  207.23    7.92   0
  -1   6  38  129.01    8.07   0
  -1   6  29    4.24    5.75   0
  -1   6  35    0.57    5.85   0
   0   6  18  243.91    8.25   0
   3   6  21    5.51    6.59   0
  -2   4  45   -5.90    5.55   0
  -1   3   5    5.34    4.09   0
  -1   5  51    3.51    6.47   0
   1   5   5    1.20    5.66   0
   2   6  17    7.81    6.76   0
  -2   4  21    0.99    4.52   0
  -1   5  15    2.02    5.71   0
   0   6  21   -4.95    6.33   0
   0   6  45   -7.27    6.79   0
   1   3  -5    4.57    4.36   0
   2   3  -7    5.04    4.52   0
   3   6  24  153.17    8.51   0
   3   6  27   -1.82    6.73   0
  -2   4  42  349.17    9.90   0
  -1   5  48  106.47    8.08   0
   0   6  24  558.03   11.71   0
   0   6  42  114.93    7.84   0
   2   4  -2  556.19   11.41   0
   2   6  20  180.94    8.84   0
   3   5   7    5.84    5.52   0
  -2   4  39   -3.26    5.74   0
  -1   4  10 1111.94   14.21   0
  -1   5  18  736.59   12.11   0
   0   5  10  672.38   11.30   0
   0   6  27   -9.07    6.85   0
   0   6  39    2.21    7.19   0
   1   4   0 1384.00   16.44   0
  -2   4  27   -0.71    5.36   0
   0   6  30  134.77    7.60   0
   0   6  33   -0.39    7.21   0
   0   6  36  121.66    7.78   0
   1   6  22  133.73    7.46   0
   1   6  43   -3.65    7.07   0
   2   6  23    1.28    7.30   0
  -2   3  43    3.53    5.61   0
  -2   4  30  187.97    7.77   0
  -2   4  33   -0.28    5.51   0
  -2   4  36  350.29    8.97   0
  -1   5  45    2.89    6.34   0
   1   5   8  785.37   12.71   0
   1   6  25   -4.45    6.75   0
   1   6  40  180.71    9.03   0
  -1   5  21    0.72    6.13   0
   1   6  28  125.10    8.33   0
   1   6  37   -1.24    6.98   0
   2   6  32  153.86    8.34   0
   2   6  35   -8.36    6.89   0
  -1   4  52  172.14    9.03   0
  -1   5  42  186.81    8.65   0
   0   4   5   -0.96    5.08   0
   0   5  13    3.17    5.53   0
   0   5  52  133.85    8.42   0
   1   6  31    0.07    6.62   0
   1   6  34  152.40    8.22   0
   3   5  10  181.17    8.23   0
  -2   2  23   -0.61    4.17   0
  -2   3  25    4.27    4.78   0
  -2   3  40  432.56   10.46   0
  -1   3   8 3289.43   24.74   0
  -1   5  24  636.20   11.13   0
   0   4  59    1.84    5.53   0
   2   5   9    0.07    5.69   0
  -1   4  13    1.49    4.52   0
  -1   5  27    4.10    6.05   0
  -1   5  39    2.18    5.64   0
   4   5  17    9.18    5.97   0
  -2   3  28 1287.76   16.10   0
  -2   3  37    3.97    5.11   0
  -1   5  30  150.70    7.30   0
  -1   5  33   -2.36    6.45   0
   0   5  49    2.15    7.09   0
  -2   2  26 1210.29   16.80   0
  -2   3  31    3.00    5.02   0
  -2   3  34  573.18   11.51   0
  -1   4  49   -3.19    6.17   0
   0   5  16  676.74   11.29   0
   2   4   1    0.82    5.19   0
   3   5  13   -0.23    5.98   0
  -2   2  29    1.17    4.86   0
  -2   2  35   -3.92    4.83   0
   0   5  46   73.03    7.74   0
   1   4   3    3.39    4.25   0
   2   5  12  372.47   10.16   0
   3   4   2  223.48    8.80   0
   4   5  20  101.78    7.84   0
  -1   4  16 2041.08   18.43   0
   0   4  56   61.47    6.86   0
   1   3  -2  844.64   13.76   0
  -1   4  46   66.11    7.17   0
   0   4   8 1429.91   15.76   0
   0   5  19    3.30    5.20   0
   2   3  -4  677.76   12.76   0
   3   5  16  392.47   10.71   0
   4   5  23   -0.41    6.72   0
  -1   3  11   10.36    4.93   0
   0   3   3    0.29    4.67   0
   4   5  26  116.99    7.76   0
  -1   4  19    6.25    5.23   0
   0   5  22  219.65    7.88   0
   0   5  40  191.14    8.91   0
   1   5  47   -0.45    6.66   0
   2   5  15    1.86    6.41   0
   4   5  29    8.61    6.89   0
  -1   4  43    2.47    6.10   0
   0   4  53   -0.27    6.05   0
   0   5  25   -0.80    6.10   0
   0   5  37    5.79    6.95   0
   1   5  17   -3.44    5.37   0
   3   5  19   -9.73    6.44   0
  -1   3  50  147.33    7.81   0
   0   5  28  600.30   11.86   0
   0   5  31   -3.34    6.32   0
   0   5  34  262.50    9.40   0
   1   4  57    1.33    6.22   0
   1   5  44  135.62    8.43   0
   2   4   4  849.90   13.35   0
   2   5  45    2.32    7.19   0
  -1   4  22  353.01    8.79   0
  -1   4  40  446.46   10.66   0
   0   4  11   -0.60    5.31   0
   1   4   6  349.52    8.68   0
   1   5  20  460.68   10.59   0
   2   5  18  167.29    7.54   0
   3   4   5    7.67    5.72   0
   3   5  22  100.75    7.92   0
  -1   4  37    0.15    5.92   0
   1   5  41    7.80    6.83   0
   2   5  42   74.77    7.88   0
   3   3  -3    2.98    5.17   0
   3   5  25   -8.45    7.10   0
   3   5  37   -6.31    7.21   0
  -1   3  14 1622.15   17.50   0
  -1   4  25   -3.68    4.78   0
  -1   4  28  669.80   11.85   0
   0   3  57    2.77    5.65   0
   0   4  50  136.09    8.32   0
   1   5  23   -2.62    6.65   0
   1   5  38  117.71    8.47   0
   3   5  34  107.04    8.27   0
   4   4   9   -2.25    5.94   0
  -1   3  47   -5.23    5.55   0
   1   4  54   42.46    6.95   0
   1   5  26  221.74    8.98   0
   1   5  35   -0.58    7.01   0
   2   5  24  402.67   10.61   0
   2   5  39   -6.83    7.37   0
   1   5  29   -4.79    5.92   0
   1   5  32  358.40    9.60   0
   2   5  27    6.22    6.90   0
   2   5  33    1.25    7.41   0
   2   5  36  162.60    9.04   0
   0   3   6 1994.05   19.49   0
   0   4  14  293.88    8.29   0
   0   4  47   -6.37    6.70   0
   1   3   1   11.84    5.00   0
   2   4   7    5.80    5.59   0
   2   5  30  169.22    7.99   0
   5   4  19   -1.60    5.85   0
  -1   3  44  279.52    9.06   0
   3   4   8  517.70   11.02   0
  -1   3  17    8.45    4.24   0
   0   3  54   65.45    6.92   0
   1   4  51    4.00    6.76   0
   2   3  -1   -1.21    4.59   0
   4   4  12  230.47    8.85   0
   5   4  22   62.40    7.40   0
   0   4  17    2.62    4.76   0
   0   4  44  358.39    9.44   0
   5   4  25   -0.22    6.17   0
  -1   3  41    6.11    5.50   0
   1   3  58   78.32    7.13   0
   5   4  28   74.31    7.55   0
  -1   3  20 1439.76   16.34   0
   1   4  12 1069.90   13.72   0
   2   4  10  325.55    9.24   0
   4   4  15    3.61    6.05   0
   0   3  51   -0.39    7.08   0
   0   4  20 1252.68   14.69   0
   2   4  49   -0.21    7.15   0
   3   3   0 1011.38   14.89   0
   3   4  11    0.03    5.09   0
  -1   3  38  294.85    8.57   0
   0   4  23   -0.56    5.85   0
   3   4  47  -14.33    7.27   0
  -1   2  45    3.79    5.01   0
  -1   3  23    2.53    4.23   0
  -1   3  35   -5.30    4.95   0
   0   3   9   -2.17    4.14   0
   0   4  26  720.37   12.21   0
   0   4  35    0.58    5.30   0
   4   4  18  181.98    8.75   0
  -1   3  29    1.91    5.12   0
  -1   3  32 1125.43   14.85   0
   0   4  29   -5.66    5.12   0
   0   4  32  476.56   10.17   0
   1   3  55   -3.04    6.21   0
   1   4  15    3.74    4.89   0
   2   4  13   -3.38    5.75   0
   2   4  46   82.58    8.02   0
   3   4  14  339.47    9.55   0
   4   4  21   -0.49    6.93   0
   4   4  39    9.28    6.85   0
   0   3  48  293.73    9.54   0
   1   4  42  201.79    8.77   0
   3   4  44  124.86    8.15   0
   4   4  36  111.20    8.21   0
   1   4  18  707.57   11.82   0
   2   3   2  793.81   12.95   0
   4   4  24  299.04    9.99   0
   4   4  27    1.48    6.99   0
   4   4  30   74.86    7.94   0
  -1   2  42  289.37    9.12   0
   1   4  39   10.20    6.80   0
   2   3  56   88.25    7.35   0
   2   4  43    3.13    6.86   0
   3   4  17    0.43    6.48   0
   3   4  41   10.37    6.93   0
   4   3   4  592.38   11.88   0
   6   3  21    4.90    6.95   0
   0   3  12 2042.30   19.08   0
   1   2  59   -3.38    5.83   0
   1   3  52  166.93    8.73   0
   1   4  21    6.62    5.69   0
   0   3  45    0.69    6.13   0
   1   4  24  625.51   11.57   0
   1   4  36  451.51   10.29   0
   2   4  40  225.81    8.73   0
   3   3   3    1.64    5.03   0
   3   4  20  397.49   10.28   0
   3   4  38  119.26    8.17   0
   6   3  27    0.67    5.98   0
  -1   2  39   -0.42    4.85   0
   0   2  52  168.02    8.21   0
   1   4  27   -4.21    6.26   0
   1   4  30  162.08    8.27   0
   1   4  33    3.14    5.62   0
   2   4  19   -1.57    5.30   0
   2   4  37   -4.25    7.00   0
   3   2  -5    3.52    4.41   0
   3   4  35    7.71    7.36   0
   5   3  11    0.33    6.01   0
   1   3   7    6.05    5.01   0
   2   3  53    5.46    6.72   0
   2   4  22  331.51    9.55   0
   2   4  34  165.14    8.63   0
   3   4  29    5.02    6.84   0
   3   4  32  253.28    8.81   0
   0   3  42  214.75    8.64   0
   1   3  49    2.01    6.46   0
   2   2  60   90.13    7.28   0
   2   4  25   -7.44    6.56   0
   2   4  28  393.36   10.18   0
   2   4  31   -3.56    6.50   0
  -1   2  36  867.96   13.71   0
   0   3  15   -0.39    4.19   0
   2   3   5    1.21    4.97   0
   4   3   7    3.14    5.43   0
   0   3  39   -1.08    5.81   0
   1   2  56  157.91    8.62   0
   3   3  51   -0.52    6.97   0
   5   3  14  139.13    7.79   0
  -1   2  24 1681.36   18.41   0
  -1   2  33    3.85    4.78   0
   0   2  49   -2.44    5.69   0
  -1   2  27    0.27    4.68   0
  -1   2  30  576.82   11.41   0
   0   3  18  511.09   10.07   0
   1   3  46   68.95    6.60   0
   3   3   6  445.53    9.81   0
   4   3  46   51.25    8.00   0
   5   3  17   -0.14    5.87   0
   1   3  10 1082.35   14.02   0
   3   3  48  143.31    8.47   0
   4   3  10  360.00    9.80   0
   0   3  21    1.15    4.47   0
   2   2  57   -6.17    6.80   0
   3   2  58   81.08    7.94   0
   5   3  20  209.07    8.89   0
   0   3  24 1593.18   16.54   0
   0   3  27   -1.24    5.21   0
   0   3  30  520.84   10.35   0
   1   2  53   -3.84    6.33   0
   2   3   8 2129.25   19.66   0
   4   3  43   -1.84    7.03   0
   5   3  23   -1.43    6.47   0
   5   3  26  165.17    8.70   0
   5   3  29   -5.39    7.07   0
   5   3  32  190.77    8.88   0
   3   3   9    2.85    5.47   0
   3   3  45    6.79    7.62   0
  -1   1  37   -0.31    4.68   0
   1   3  13    6.72    4.51   0
   2   1  61   -0.24    5.79   0
   2   3  44  231.60    9.40   0
   4   3  13    2.56    6.07   0
   4   3  40  124.63    8.50   0
   4   2  -1    1.08    4.50   0
  -9   3  18  170.76    9.00   0
  -4   0  35   -0.98    6.37   0
  -9   4   8  314.61   10.14   0
  -8   3  22  121.06    8.96   0
  -7   4  10  361.90    9.62   0
  -6   3  21   -0.29    5.95   0
  -5   0  37   -0.87    7.13   0
  -5   1  33    3.83    6.90   0
  -3   2  16 2047.44   19.99   0
  -8   4  12  248.84    9.54   0
  -7   1  34  159.37    8.84   0
  -7   3  23    3.05    7.45   0
  -4   1  31    1.81    6.10   0
  -8   2  29   -4.82    7.11   0
  -7   2  30  151.82    8.33   0
  -4   2  24 1878.01   18.95   0
  -4   3  11   15.78    4.87   0
  -9   3  21   14.13    7.22   0
  -8   1  33    2.26    7.39   0
  -7   4  13    0.88    6.07   0
  -6   1  35    5.05    6.26   0
  -5   3  19   -0.13    5.45   0
  -3   0  33    2.21    5.57   0
  -2   0  28 1058.93   15.74   0
  -8   4  15   -0.91    7.54   0
  -8   3  25    5.53    7.35   0
  -7   0  38   29.95    7.51   0
  -6   0  39    2.86    7.35   0
  -6   3  24  602.06   12.36   0
  -6   4  11    1.97    6.00   0
  -5   4  -9    5.33    5.04   0
  -5   4  -6  340.58    9.19   0
  -5   4  -3   -3.67    4.95   0
  -9   4  14   68.02    7.97   0
  -7   3  26  149.60    9.12   0
  -5   4   0 1387.39   16.79   0
  -9   3  24  161.68    9.19   0
  -4   3  14  668.40   11.58   0
  -3   2  19    3.01    4.51   0
  -8   4  18  183.88    9.16   0
  -7   1  37   -1.59    7.26   0
  -5   1  36  450.17   11.78   0
  -5   3  22  278.10    9.43   0
  -5   4   3    8.34    5.53   0
  -9   4  17    7.78    6.94   0
  -6   4  14  262.32    8.57   0
  -5   0  40  197.67    9.60   0
  -4   0  38  116.06    7.96   0
  -4   2  27   -5.11    5.62   0
  -3   1  29    5.01    4.78   0
  -8   3  28  149.79    9.02   0
  -8   5  -4  248.91    9.28   0
  -7   4  19    5.66    6.78   0
  -6   1  38  108.22    8.70   0
  -4   1  34  488.21   11.41   0
  -9   5  -5    3.30    6.00   0
  -9   5  -2  160.31    8.48   0
  -8   5  -7   -5.31    6.10   0
  -8   5  -1    0.68    6.32   0
  -6   2  34  159.40    9.31   0
  -6   3  27   -4.06    6.12   0
  -9   3  27    2.49    6.76   0
  -9   5   1   -2.63    6.62   0
  -8   4  21   -1.37    7.78   0
  -8   5   2  209.88    9.13   0
  -6   4  17    4.02    6.57   0
  -4   3  17    5.30    4.75   0
  -9   4  20  101.90    7.93   0
  -9   5   4  108.71    7.98   0
  -8   5   5   11.04    6.71   0
  -5   4   9    5.27    4.82   0
  -3   0  36  499.13   11.63   0
  -8   2  35    0.69    6.83   0
  -7   2  36  143.33    9.02   0
  -7   4  22  146.64    8.95   0
  -7   5  -6  416.08   10.53   0
  -7   5  -3   -3.78    5.83   0
  -6   0  42  108.40    8.14   0
  -5   3  25    4.36    5.52   0
  -3   2  22  459.19   10.04   0
  -9   5   7    1.61    7.34   0
  -8   3  31    0.09    7.52   0
  -8   5   8  447.46   11.40   0
  -7   5  -9    1.98    6.07   0
  -7   5   0  573.68   11.41   0
  -2   0  31   -1.25    4.82   0
 -10   5   0  168.57    8.41   0
 -10   5   3    1.55    7.32   0
  -9   4  23   -1.75    7.66   0
  -8   4  24  299.12   10.48   0
  -7   1  40  194.44    9.48   0
  -7   5   3    2.97    5.44   0
  -5   1  39    2.27    6.83   0
  -5   4  12  885.36   13.47   0
  -2   1  24 1759.08   19.22   0
  -9   5  10  117.30    7.99   0
  -8   5  11   -2.99    6.47   0
  -7   5   6  144.54    8.25   0
  -6   4  20  622.25   11.58   0
  -4   3  20  875.25   12.93   0
  -3   1  32 1159.77   15.69   0
 -10   5   6   70.34    7.10   0
  -6   1  41    6.64    6.84   0
  -6   2  37   -3.78    7.65   0
  -5   2  35    2.64    6.83   0
  -4   0  41   -2.81    6.90   0
  -4   1  37   -1.06    6.23   0
  -3   3   6  511.63   10.68   0
  -9   5  13    3.41    6.96   0
  -7   4  25   -2.16    7.73   0
  -7   5   9   -0.74    6.33   0
  -5   0  43    0.60    6.91   0
  -5   3  28  399.22   10.55   0
  -5   4  15    6.34    6.18   0
  -2   2  11   -0.69    4.27   0
  -1  -1  30  552.18   13.12   0
  -8   4  27    3.42    7.80   0
  -9   4  26  137.42    7.97   0
  -8   3  34  125.16    8.65   0
  -7   2  39    2.04    7.13   0
  -6   4  23    1.15    5.92   0
  -3   2  25    4.74    4.67   0
  -3   3   9   -0.51    5.00   0
  -6   3  33    7.94    7.17   0
  -4   3  23    7.22    6.08   0
  -8   5  17   -1.39    6.24   0
  -7   1  43    4.79    7.52   0
  -6   5  -2  303.06    9.29   0
  -6   5   1    1.73    5.68   0
  -5   4  18  385.63    9.69   0
  -4   2  33   -7.08    6.12   0
  -7   5  15   -9.20    6.75   0
  -6   5  -5   -3.12    5.23   0
  -6   5   4  714.49   12.52   0
  -3   0  39    2.59    5.63   0
  -2   2  14  333.65    9.44   0
  -9   4  29   -8.86    7.01   0
  -9   5  19    0.65    6.79   0
  -8   4  30   89.37    8.27   0
  -6   2  40  233.82    9.76   0
  -6   4  26  355.31   10.49   0
  -6   5  -8  736.64   13.14   0
  -5   3  31    4.57    6.31   0
  -3   3  12 2529.79   21.54   0
  -2   1  27   -1.26    4.74   0
  -8   5  20  199.19    8.87   0
  -6   1  44  145.20    9.33   0
  -6   5   7    3.38    5.20   0
  -5   2  38   91.74    7.06   0
  -4   4  -2 1320.01   16.47   0
  -4   4   1    0.07    3.99   0
  -3   1  35    1.16    5.58   0
  -2   0  34  265.60    9.05   0
  -7   5  18  368.57   10.53   0
  -5   4  21    3.50    6.08   0
  -4   1  40  412.16   11.04   0
  -4   4  -5   -1.70    4.35   0
  -9   5  22   69.77    7.89   0
  -7   4  31   -5.86    7.79   0
  -4   3  26  639.22   11.44   0
  -8   5  23   -2.99    7.33   0
  -4   4  -8 1393.40   18.36   0
  -3   3  15   -2.32    4.45   0
  -8   4  33    0.36    7.18   0
  -7   5  21    1.39    6.73   0
  -6   4  29    2.84    6.83   0
  -4   4  10  394.63    9.75   0
  -2   2  17    0.51    4.26   0
  -9   6   0  278.67    9.71   0
  -9   6   3   -6.75    6.98   0
  -4   2  36  350.82    9.50   0
  -9   5  25    7.96    6.52   0
  -9   6   6  163.05    8.20   0
  -6   2  43   -0.93    7.61   0
  -5   4  24  882.27   13.16   0
  -9   6   9   -2.11    6.51   0
  -8   3  40  111.17    8.17   0
  -8   5  26  176.40    8.95   0
  -8   6   1   -5.68    6.47   0
  -5   1  45   -3.93    6.98   0
  -5   2  41    7.90    6.77   0
  -4   3  29   -2.35    5.85   0
  -4   4 -11    1.00    4.40   0
  -4   4  13   -1.85    4.67   0
  -3   3  18 1282.75   15.30   0
  -8   6  -2  207.35    8.80   0
  -8   6   4  209.88    9.12   0
  -8   6   7    0.13    6.70   0
  -7   4  34  152.41    8.27   0
  -7   5  24  324.32   10.55   0
  -6   3  39   -5.65    7.73   0
  -3   2  31   -0.96    5.49   0
  -2   1  30  554.67   11.11   0
  -9   5  28   73.08    8.18   0
  -9   6  12  137.40    8.49   0
  -8   4  36  109.37    8.47   0
  -7   2  45   -4.97    7.91   0
  -7   3  41    4.38    7.23   0
  -6   4  32  342.36   10.36   0
  -6   5  19    2.61    6.30   0
  -3   1  38  325.82    9.74   0
  -2   2  20 3460.78   25.66   0
  -8   6  10  177.11    8.07   0
  -5   4  27    7.19    6.25   0
  -4   1  43    1.66    6.32   0
  -4   4  16 1451.86   16.40   0
  -9   6  15   -2.62    7.45   0
  -8   5  29    1.46    7.45   0
  -8   6  13    1.23    7.12   0
  -2   0  37   -1.95    4.94   0
  -7   5  27    4.06    6.21   0
  -5   5   2  325.82    9.30   0
  -5   5   5   -1.63    5.38   0
  -4   2  39   -2.93    6.04   0
  -3   3  21   -2.19    4.67   0
  -9   6  18   87.60    7.88   0
  -8   6  16  343.64   10.55   0
  -7   4  37    0.31    7.44   0
  -6   5  22  201.69    8.30   0
  -5   5  -1   -0.27    4.29   0
  -5   5   8  927.84   13.70   0
  -4   3  32  838.37   13.54   0
  -4   4  19   -5.07    5.83   0
  -7   6  -1    5.06    5.81   0
  -7   6   2  325.43    9.70   0
  -7   6   5    1.42    6.27   0
  -6   2  46   92.77    8.34   0
  -5   5  -4 1081.18   15.42   0
  -1   0  29    2.16    4.15   0
  -8   5  32  183.07    9.58   0
  -7   6   8  643.93   11.97   0
  -6   4  35    5.80    6.18   0
  -5   2  44  221.79    9.60   0
  -5   4  30  281.70    9.66   0
  -2   2  23    0.90    4.96   0
  -7   3  44  128.44    8.48   0
  -7   5  30   64.84    8.58   0
  -7   6  -4  241.20    8.92   0
  -7   6  11    1.08    6.57   0
  -6   5  25   -3.33    6.62   0
  -3   3  24 1081.81   14.40   0
  -2   1  33    1.54    5.31   0
  -5   5  -7   -1.86    4.64   0
  -5   5  14  611.62   11.23   0
  -4   4  22  701.39   12.25   0
  -7   6  14  123.28    7.42   0
  -5   3  40  397.03   11.08   0
  -3   1  41   -6.07    5.80   0
  -9   6  24  201.26    9.27   0
  -8   6  22   85.26    7.57   0
  -5   5  17   -0.98    6.13   0
  -4   1  46   81.72    7.57   0
  -8   5  35    0.97    7.15   0
  -7   5  33   -3.08    7.39   0
  -6   4  38   91.59    8.30   0
  -6   5  28  411.94   11.02   0
  -5   4  33   -3.87    6.93   0
  -4   4  25   -2.98    6.10   0
  -3   3  27    0.12    5.64   0
  -1   1  22  437.98   10.66   0
  -9   6  27   -2.73    6.98   0
  -8   6  25    4.83    6.68   0
  -7   6  20  233.03    9.51   0
  -6   2  49   -5.01    7.65   0
  -6   3  45   -0.22    7.30   0
  -5   5  20  632.97   11.53   0
  -7   3  47    4.99    6.97   0
  -5   2  47    2.70    6.95   0
  -3   2  37   -0.54    4.97   0
  -6   5  31   -6.27    6.84   0
  -8   5  38   45.44    7.71   0
  -8   6  28  154.39    8.81   0
  -7   4  43    0.28    6.68   0
  -7   6  23   -4.15    6.18   0
  -6   6   3    5.07    5.65   0
  -6   6   6  236.47    8.75   0
  -6   6   9    5.62    5.94   0
  -5   3  43   -2.49    6.03   0
  -5   4  36  304.89    9.96   0
  -5   5  23    1.46    5.67   0
  -4   3  38  158.95    8.33   0
  -4   4  28  634.25   11.99   0
  -2   1  36  859.04   14.02   0
  -1   0  32 1644.41   20.26   0
  -9   7   5   -0.36    6.03   0
  -9   7   8  189.93    9.12   0
  -6   6   0  821.36   13.61   0
  -6   6  12  388.04   10.13   0
  -9   7  11    2.01    6.44   0
  -3   1  44  317.14   10.08   0
  -3   3  30  304.58    8.55   0
  -9   7  14  110.94    7.80   0
  -7   6  26  244.49    9.00   0
  -6   6  -3    1.04    5.36   0
  -5   5  26  223.85    8.70   0
  -4   2  45   -0.49    6.51   0
  -3   4   8 2588.47   21.61   0
  -2   3   7    3.75    4.71   0
  -1   1  25   -2.19    4.56   0
  -9   7  17    4.52    7.11   0
  -8   6  31    0.34    6.88   0
  -6   3  48  130.17    8.70   0
  -6   5  34  197.26    8.51   0
  -6   6  18  341.60   10.18   0
  -3   4   2  856.96   13.36   0
  -3   4  11   11.24    4.64   0
  -2   3  10 1982.24   19.60   0
  -8   7   6  171.77    8.54   0
  -8   7   9   -0.94    6.64   0
  -7   5  39   -7.50    7.27   0
  -4   4  31    1.78    5.40   0
  -3   2  40  432.82   10.82   0
  -3   4  14  674.98   11.72   0
  -9   7  20  117.07    8.57   0
  -8   7   3    1.99    6.32   0
  -8   7  12  167.84    8.49   0
  -7   4  46   45.46    7.58   0
  -7   6  29   11.19    7.32   0
  -5   2  50  158.56    9.10   0
  -3   4  -1   10.98    4.65   0
  -2   3  13   14.24    4.55   0
  -8   7  15    5.38    6.79   0
  -6   6  21    3.10    5.88   0
  -5   3  46   46.54    7.20   0
  -5   5  29   -7.04    5.77   0
  -4   3  41    6.35    5.48   0
  -4   5   6  840.09   13.19   0
  -3   4  17    1.54    5.48   0
  -8   6  34  103.41    7.97   0
  -6   5  37    4.40    7.32   0
  -4   5   3   12.71    5.20   0
  -4   5  12  877.93   13.33   0
  -2   1  39   -1.23    5.11   0
  -2   2  32  629.35   11.83   0
  -2   3  16 2011.07   19.15   0
  -9   7  23   -3.62    7.17   0
  -8   7  18  122.86    8.16   0
  -4   5  15   12.30    5.94   0
  -7   5  42  125.28    8.73   0
  -4   4  34  228.16    8.50   0
  -4   5   0 1359.70   16.80   0
  -3   4  20  873.26   12.75   0
  -1   0  35   -0.14    4.57   0
  -1   1  28 1272.00   16.73   0
  -8   7  21    0.64    6.58   0
  -5   4  42  176.50    8.97   0
  -5   5  32  460.84   10.53   0
  -4   2  48  283.34   10.14   0
  -4   5  18  369.28    9.65   0
  -2   3  19   -1.01    4.47   0
  -8   6  37    8.08    7.86   0
  -6   3  51   -4.13    7.41   0
  -6   6  27    1.97    7.22   0
  -3   2  43    2.71    6.18   0
  -7   7   7    3.57    6.05   0
  -7   7  10  217.25    8.85   0
  -7   7  13    7.81    6.86   0
  -6   4  47    6.99    7.05   0
  -6   5  40  194.55    9.56   0
  -4   3  44  268.36    9.92   0
  -4   5  -3   -2.15    4.64   0
  -4   5  21   -1.29    6.19   0
  -3   3  36  785.32   12.62   0
  -3   4  23   11.57    5.16   0
  -7   6  35    4.91    7.17   0
  -7   7   4  168.72    8.40   0
  -5   3  49    3.12    6.99   0
  -2   3  22  464.25    9.84   0
  -8   7  27    4.34    7.46   0
  -7   7   1    1.56    6.05   0
  -7   7  16  480.99   11.08   0
  -6   6  30   98.11    8.23   0
  -5   5  35   -3.19    6.94   0
  -5   6   7   -1.93    5.86   0
  -5   6  10  461.12   10.06   0
  -2   2  35   -2.14    4.56   0
  -7   7  19    1.62    7.33   0
  -5   6   4  702.19   12.53   0
  -4   5  24  854.83   13.39   0
  -3   4  26  647.24   11.82   0
  -1   2  15    0.94    4.14   0
  -5   4  45   -0.33    7.53   0
  -5   6   1    2.91    5.31   0
  -4   5  -6  326.27    9.42   0
  -2   1  42  311.69    9.53   0
  -2   3  25    0.18    5.23   0
  -1   1  31   -2.19    4.70   0
  -8   7  30   66.11    8.32   0
  -7   6  38   49.22    8.28   0
  -5   6  19   -6.08    5.58   0
  -3   3  39   -0.55    6.06   0
  -1   2  18 1180.41   15.88   0
  -6   6  33   -4.89    6.65   0
  -4   2  51    4.11    6.61   0
  -4   5  27    5.85    5.63   0
  -7   7  25   -2.92    6.92   0
  -6   4  50  108.46    8.82   0
  -5   6  -2  308.69    9.18   0
  -5   6  22  212.88    8.09   0
  -4   3  47   -6.07    6.60   0
  -3   2  46  117.47    7.83   0
  -3   4  29    9.92    5.24   0
  -5   3  52  115.59    9.28   0
  -2   2  38  240.93    8.64   0
  -2   3  28 1292.31   15.67   0
  -1   2  21   10.77    4.95   0
  -8   7  33    9.05    7.54   0
  -7   6  41    3.18    7.33   0
  -5   6  25   13.35    6.79   0
  -4   5  30  296.58    9.36   0
  -7   7  28  132.82    7.87   0
  -6   5  46   55.22    8.22   0
  -6   7  11   -0.25    6.43   0
  -6   7  14  125.39    8.09   0
  -5   4  48  189.71    9.26   0
  -5   5  41   -7.32    7.37   0
  -5   6  -5    2.04    4.79   0
  -4   5  -9    7.86    4.61   0
  -3   3  42  288.04    9.61   0
  -3   4  32  854.19   12.93   0
  -1   1  34  921.92   14.62   0
  -7   7  31   -4.33    7.40   0
  -6   7   8  626.70   11.89   0
  -6   7  17    1.66    6.71   0
  -5   6  28  398.66   10.10   0
  -4   4  43    0.32    7.18   0
  -4   5  33   -2.19    5.88   0
  -2   1  45   -4.09    5.23   0
  -8   8  11   -3.00    6.75   0
  -8   8  14  119.70    8.22   0
  -7   6  44  100.67    8.24   0
  -6   4  53    0.37    6.63   0
  -6   6  39    1.78    7.63   0
  -8   8   8  215.18    8.83   0
  -8   8  17   -3.20    6.63   0
  -6   7  23    2.97    6.94   0
  -5   6  31   -3.20    6.08   0
  -3   2  49    0.74    6.04   0
  -3   4  35   11.48    6.40   0
  -2   2  41   -1.64    5.59   0
  -7   7  34  132.33    8.44   0
  -6   5  49    3.58    7.64   0
  -6   7  -1    0.22    5.43   0
  -6   7  26  242.05    9.62   0
  -5   4  51   -4.41    6.66   0
  -4   5  36  305.09    9.36   0
  -8   8  23   14.02    7.25   0
  -5   6  34  213.26    9.70   0
  -4   4  46  140.97    8.45   0
  -3   3  45   -0.63    6.37   0
  -3   5  13    0.12    4.73   0
  -3   5  16 1750.46   17.81   0
  -1   1  37    0.76    4.73   0
  -8   8  26   75.99    8.22   0
  -7   7  37    1.44    7.34   0
  -6   7  29   -1.33    7.46   0
  -3   5  19   -4.12    5.15   0
  -4   6  11   -1.86    5.73   0
  -4   6  17   -1.28    6.26   0
  -2   4  12  754.49   12.07   0
  -2   4  15    0.37    4.62   0
  -1   2  30  551.35   11.20   0
  -5   6  37    7.12    7.63   0
  -4   5  39    5.27    7.07   0
  -4   6   8  815.29   13.13   0
  -3   5   4  677.49   12.08   0
  -3   5  22  271.48    8.44   0
  -2   4   9    2.97    4.13   0
  -2   4  18 1046.35   13.89   0
  -6   7  32  245.15    9.84   0
  -5   5  47   -0.51    7.48   0
  -4   3  53    3.62    6.42   0
  -3   5  25    0.24    6.36   0
  -2   2  44  663.01   12.79   0
  -2   3  37    0.66    5.77   0
  -2   4  21   -2.75    5.34   0
  -7   8   9   -2.64    6.50   0
  -7   8  12  156.12    8.56   0
  -7   8  15   -6.42    7.28   0
  -7   8  18  119.95    8.19   0
  -6   6  45   -2.89    7.23   0
  -4   6   5    3.21    4.64   0
  -4   6  23    5.25    5.67   0
  -7   8  21   -0.25    6.82   0
  -5   4  54   61.08    7.46   0
  -4   4  49    6.32    7.15   0
  -3   3  48  186.20    9.01   0
  -3   4  41   -5.51    6.41   0
  -3   5   1    1.82    4.69   0
  -2   4  24 1861.04   18.25   0
  -7   8   6  164.59    8.39   0
  -7   8  24  227.86    9.63   0
  -6   7  35    4.69    7.26   0
  -5   6  40  187.62    9.65   0
  -5   7  15    6.27    6.60   0
  -4   6   2  563.08   11.53   0
  -3   5  28  375.49    9.53   0
  -1   2  33    3.73    5.13   0
  -5   7   9   -3.22    6.08   0
  -5   7  12  463.54   10.48   0
  -1   1  40  681.65   12.98   0
  -5   5  50   74.58    8.50   0
  -4   6  29    4.26    5.97   0
  -2   3  40  451.28   10.80   0
  -2   4  27   -1.54    4.99   0
  -5   7   6  144.87    7.72   0
  -5   7  24  292.69   10.06   0
  -3   5  31   -3.13    5.60   0
  -7   8  30   76.69    7.78   0
  -6   7  38   49.95    7.37   0
  -4   6  -1   -1.10    4.99   0
  -4   6  32  326.41   10.41   0
  -3   4  44  271.67    9.71   0
  -3   5  -2  754.96   13.12   0
  -2   2  47   -1.15    5.68   0
  -2   4  30  205.32    7.94   0
  -1   3  14 1635.54   17.49   0
  -1   3  17    4.58    4.49   0
  -5   6  43  -11.25    6.78   0
  -5   7   3    3.84    5.56   0
  -5   7  27    3.28    6.00   0
  -4   5  45   -4.49    7.21   0
  -2   4   0 3974.26   28.85   0
  -1   2  36  870.23   13.92   0
  -1   3  11   10.88    4.34   0
  -4   4  52  135.72    9.08   0
  -3   3  51    3.05    6.67   0
  -3   5  34  411.66   10.03   0
  -1   3  23    1.53    5.34   0
  -7   8  33    6.02    7.38   0
  -6   7  41   -4.17    7.33   0
  -5   4  57    2.63    6.87   0
  -5   7  30   77.50    7.37   0
  -4   6  35    5.30    7.40   0
  -1   3   8 3272.20   25.30   0
   0   1  23    2.03    4.24   0
  -2   3  43    5.37    5.21   0
  -2   4  33    2.00    5.21   0
  -1   1  43   -5.23    5.47   0
  -6   8  13    3.03    6.74   0
  -6   8  16  351.93   10.23   0
  -6   8  19    4.63    7.10   0
  -6   8  22   83.48    8.24   0
  -5   5  53   10.09    7.27   0
  -5   7  33    8.28    7.31   0
  -4   6  -4  827.29   13.97   0
  -3   5  37    4.96    6.58   0
  -1   3  26  531.80   10.43   0
  -6   8  10  172.43    8.68   0
  -3   4  47   -1.35    6.88   0
  -3   5  -5   -0.08    5.14   0
  -1   3   5    3.20    4.63   0
   0   0  33    0.14    4.02   0
   0   1  26 1136.99   16.19   0
  -6   7  44  109.59    8.19   0
  -6   8   7    3.21    6.38   0
  -4   6  38   84.30    7.22   0
  -1   2  39   -4.82    5.36   0
  -1   3  29    2.72    5.22   0
  -6   8  28  142.40    8.76   0
  -2   4  -3   -2.10    4.42   0
  -4   4  55   -4.79    7.14   0
  -3   5  40  406.90   11.02   0
  -2   3  46  127.92    7.99   0
  -6   8   4  200.24    8.66   0
  -6   8  31   -2.73    6.92   0
  -5   6  49    4.13    7.13   0
  -4   6  41    0.78    7.50   0
  -3   3  54   75.81    7.62   0
   0   1  29   -0.98    4.44   0
  -5   7  39    0.00    7.24   0
  -3   6  15   -1.34    6.02   0
  -3   6  18  384.00    9.52   0
  -3   6  21    3.91    6.09   0
  -4   5  51   -0.86    6.73   0
  -3   4  50  156.26    8.70   0
  -3   6  24  580.08   11.65   0
  -1   2  42  320.12    9.51   0
  -6   8  34  114.65    7.75   0
  -4   7  13   10.20    6.28   0
  -4   7  16  389.85    9.82   0
  -4   7  22  170.53    8.40   0
  -3   6   9   -1.48    5.69   0
  -2   5  14  357.15    9.54   0
  -2   5  17   -0.37    4.96   0
  -2   5  20  570.68   10.71   0
  -4   6  44  210.77    9.58   0
  -4   7  25    6.30    6.73   0
  -3   6  27   -2.96    5.83   0
  -2   5  23    3.89    5.29   0
  -1   3  35    2.98    5.65   0
   0   1  32 1640.96   19.09   0
  -7   9  17   -0.35    6.84   0
  -7   9  20  128.28    8.26   0
  -6   8  37   -1.88    7.01   0
  -5   7  42  126.26    8.72   0
  -4   7  10  347.35    9.28   0
  -3   6  30  183.39    8.55   0
  -2   4  42  365.89   10.50   0
  -2   5  11    2.44    4.64   0
  -2   5  26  615.73   11.27   0
  -7   9  14  112.24    7.97   0
  -7   9  23   -0.51    6.27   0
  -4   7  28  347.56    9.75   0
  -3   6   6  419.79    9.66   0
  -2   3  49   -1.56    6.32   0
  -4   7   7    0.47    5.92   0
  -4   7  31    5.87    7.12   0
  -3   6  33    2.29    7.12   0
  -2   5  29   -1.22    5.44   0
  -5   8  14  125.49    8.34   0
  -5   8  17    0.77    6.88   0
  -5   8  20  204.68    9.23   0
  -4   5  54   40.90    7.36   0
  -3   4  53   -4.26    6.58   0
  -3   5  46   50.93    6.60   0
  -1   3  38  315.81    9.48   0
   0   2  16 3038.67   24.67   0
   0   2  19   -0.28    4.13   0
   0   2  22 1891.12   19.33   0
  -5   7  45  -11.05    6.51   0
  -4   7  34  170.81    9.24   0
  -3   6   3    0.38    5.41   0
  -2   5  32  679.73   11.95   0
  -1   2  45    0.02    5.57   0
   0   1  35   -1.12    4.60   0
  -5   8  11   -3.36    6.41   0
  -4   7   4  606.98   11.96   0
  -3   6  36  268.54    9.84   0
  -2   4  45   -0.12    6.59   0
  -2   5   5    1.88    4.45   0
  -1   4  16 2011.03   18.83   0
  -1   4  19    7.30    4.82   0
  -1   4  22  361.75    9.02   0
   0   2  13    0.81    4.09   0
  -5   8   8  430.05   10.82   0
  -2   5  35   -2.74    6.63   0
  -1   4  13   11.38    5.08   0
  -1   4  25    2.90    5.06   0
  -5   8  32  194.01    8.95   0
  -4   7  37    1.70    7.23   0
  -3   5  49   -3.05    7.21   0
  -2   3  52  254.39    9.49   0
  -1   3  41    3.00    6.01   0
  -1   4  28  676.44   12.17   0
   0   2  28 1023.52   14.17   0
  -4   6  50   95.57    8.57   0
  -1   4  10 1100.43   14.58   0
  -5   8   5   -9.44    6.12   0
  -5   8  35   -4.81    7.22   0
  -4   5  57    2.80    6.94   0
  -4   7   1    8.75    5.56   0
  -3   6   0  982.41   14.48   0
  -2   5   2  780.49   13.00   0
  -1   4  31   -0.95    6.12   0
   0   1  38  241.51    8.87   0
   0   2  31   -1.53    5.02   0
  -4   7  40  123.79    8.67   0
  -3   4  56  119.28    8.40   0
  -2   4  48  269.15    9.76   0
  -1   2  48  294.59    9.61   0
  -6   9  15    0.53    7.34   0
  -6   9  18   81.30    7.96   0
  -6   9  21   -2.19    6.98   0
  -6   9  24  182.50    8.58   0
  -3   6  42  124.49    8.66   0
  -6   9  27   -0.87    6.61   0
  -5   8  38   47.95    7.46   0
  -1   3  44  285.02    9.43   0
  -1   4   7    9.93    4.49   0
  -4   7  43    7.09    6.95   0
  -3   5  52  121.07    8.79   0
   0   2  34  264.45    8.11   0
  -4   6  53   -1.84    7.39   0
  -4   7  -2  202.97    8.18   0
  -3   6  -3    1.82    4.89   0
  -3   7  20  384.97   10.47   0
  -3   7  23   -2.98    6.85   0
  -2   4  51   -4.40    6.88   0
  -2   5  -1    2.20    4.63   0
   0   1  41    0.58    5.30   0
  -3   7  26  147.89    8.74   0
  -2   5  44  232.73    9.69   0
  -2   6  19   -0.32    6.39   0
  -2   6  22  345.60    9.95   0
   0   2  37    1.40    5.23   0
  -4   7  46   55.26    7.56   0
  -3   7  29    6.76    7.23   0
  -2   6  16  699.24   12.22   0
  -2   6  25    0.36    5.74   0
  -1   3  47    1.46    5.95   0
  -4   8  18  195.16    9.22   0
  -4   8  21    1.70    5.85   0
  -4   8  27   -1.52    7.34   0
  -3   5  55    1.16    7.11   0
  -3   7  11   -2.03    6.30   0
  -3   7  32  278.43   10.15   0
  -2   6  28  398.84    9.94   0
  -1   4  40  440.90   10.74   0
   0   3  21   -6.22    4.62   0
  -4   8  15    5.30    6.87   0
  -4   8  30   68.99    8.22   0
  -3   6  48  132.13    8.45   0
  -2   6  31    1.15    6.99   0
   0   3  27   -4.10    4.75   0
  -4   8  12  235.36    9.13   0
  -3   7  35   -2.58    7.14   0
   0   3  15    1.57    4.45   0
  -4   8  33    4.45    6.94   0
  -3   7   8  506.09   11.18   0
  -2   4  54   34.93    7.38   0
  -2   5  47    2.40    6.17   0
  -2   6  34  153.40    7.94   0
  -1   5  21   -4.63    6.27   0
   0   2  40  746.73   13.07   0
  -4   8   9    3.07    6.25   0
  -2   5  -4  648.94   12.69   0
  -1   4   1   12.90    4.91   0
  -1   4  43   -1.27    5.58   0
  -1   5  18  705.25   11.68   0
  -1   5  24  628.72   11.44   0
  -1   5  27    1.35    6.19   0
   0   3  12 2004.85   19.05   0
  -5   9  19    7.06    6.58   0
  -5   9  22   57.93    7.46   0
  -5   9  25    2.67    6.54   0
  -4   8  36  126.39    8.39   0
  -3   7  38  116.71    8.18   0
  -2   6  37    9.60    7.02   0
  -1   3  50  144.68    8.24   0
  -1   5  15    3.18    5.72   0
  -1   5  30  162.11    8.22   0
   0   3  33   -2.19    4.86   0
  -5   9  16  298.84    9.71   0
  -5   9  28   79.98    7.40   0
  -3   6  51   -1.99    7.30   0
  -3   7   5    6.20    5.88   0
  -2   6   7   -0.42    4.71   0
  -4   8   6  182.49    8.27   0
  -4   8  39   -7.81    6.94   0
  -3   5  58   87.13    7.83   0
  -3   7  41    4.97    7.04   0
  -2   5  50  158.72    8.59   0
  -1   5  12 1080.40   14.39   0
  -1   5  33   -1.65    5.66   0
   0   2  43   -1.00    5.52   0
   0   3  36  498.79   10.85   0
  -5   9  13   -3.04    6.71   0
  -2   6  40  227.16    8.62   0
  -1   4  46   69.55    7.67   0
   0   3   9   -2.25    4.24   0
  -2   6   4  826.99   13.21   0
  -1   5  36  442.80   10.97   0
  -5   9  10  119.81    7.82   0
  -3   7   2  211.07    8.29   0
  -3   7  44  131.51    8.26   0
  -1   5   9    9.64    4.89   0
   0   3  39   -5.37    5.95   0
  -4   8   3    1.69    5.78   0
  -2   6  43  -10.10    6.70   0
  -2   5  53   -3.57    6.71   0
  -1   4  -2  800.31   13.19   0
  -1   4  49    4.41    6.89   0
   0   3   6 1994.60   19.64   0
   0   4  20 1288.89   15.50   0
   0   4  23    0.68    5.89   0
   0   4  26  709.75   12.24   0
  -3   7  47   -5.19    7.32   0
  -2   5  -7    6.48    4.92   0
  -2   6   1    1.47    5.36   0
   0   3  42  228.46    8.77   0
   0   4  29   -0.52    6.07   0
   1   1  21    7.67    4.59   0
   1   1  24 1694.48   19.01   0
  -3   8  25   -6.51    7.18   0
  -2   7  24  413.00   10.84   0
   0   4  17   -0.06    4.91   0
   0   4  32  457.09   10.72   0
   1   1  27    2.43    3.74   0
  -3   7  -1    0.86    5.30   0
  -3   8  19    1.18    6.80   0
  -3   8  28  157.15    8.98   0
  -2   7  21   -0.26    5.86   0
  -2   7  27   -4.32    6.02   0
  -2   7  30  171.46    9.24   0
   0   4  14  296.47    8.83   0
   1   1  30  590.25   11.81   0
  -3   8  16  386.35   10.57   0
  -3   8  31   -3.14    7.33   0
  -1   4  52  184.41    9.69   0
   1   0  31    0.69    4.00   0
  -3   8  34  131.27    8.47   0
  -2   5  56   99.22    8.18   0
  -2   6  49   -2.45    6.78   0
  -2   7  33    9.22    6.22   0
  -1   5   3   -4.68    5.11   0
  -1   5  45   -3.48    7.04   0
   0   3  45    4.24    5.68   0
   1   1  33    2.64    5.33   0
  -4   9  20   93.60    7.76   0
  -4   9  23   -0.63    7.05   0
  -4   9  26  112.28    8.39   0
  -3   8  13   -1.06    6.69   0
  -2   7  36  162.00    8.83   0
  -1   6  20  473.00   10.76   0
  -1   6  23    1.36    5.70   0
  -1   6  26  202.01    8.36   0
  -1   6  29    3.91    7.03   0
   0   3   3    2.24    4.08   0
   0   4  11    3.17    5.39   0
   0   4  38  111.59    7.79   0
  -4   9  17    7.60    6.54   0
  -3   8  37    0.53    7.11   0
  -2   7  12  378.53    9.51   0
  -1   6  17   -3.34    6.33   0
  -1   6  32  371.95   10.46   0
   1   0  34  869.11   15.53   0
  -3   8  10  201.54    8.71   0
  -2   6  -2  551.08   11.33   0
  -2   7  39   10.73    6.96   0
   1   2  20 1436.07   16.32   0
   1   2  29   -1.78    4.43   0
  -4   9  14   69.70    7.40   0
  -3   8  40  125.52    8.24   0
  -2   6  52   92.76    7.76   0
  -2   7   9   -4.41    6.17   0
  -1   4  -5    2.02    4.29   0
  -1   5  48  117.20    8.05   0
  -1   6  14  369.61   10.06   0
  -1   6  35    6.09    7.47   0
   0   4  41   -1.31    6.46   0
   1   1  36  823.48   13.78   0
   1   2  32 1147.27   15.26   0
  -1   4  55    1.28    6.56   0
   0   3  48  282.17    9.54   0
   0   4   8 1462.20   16.10   0
   1   2  17    5.51    4.40   0
  -4   9  11   -0.63    6.15   0
  -3   8   7    0.20    6.11   0
  -2   7  42   87.15    8.30   0
  -1   5   0 1364.70   16.44   0
  -1   6  38  121.44    7.61   0
   1   2  35    0.11    5.33   0
   1   1  39   -3.20    5.23   0
  -2   7   6  412.80   10.33   0
  -1   5  51    6.57    6.55   0
  -1   6  41    2.75    6.75   0
   0   4  44  355.70    9.72   0
   0   5  25   -9.39    5.57   0
   0   5  28  597.10   11.78   0
   1   2  14 1650.94   17.59   0
  -4   9   8  314.99    9.76   0
  -2   7  45   -0.80    6.22   0
   0   5  19   -1.98    6.15   0
   0   5  31   -4.12    5.77   0
   1   2  38  316.56    9.37   0
  -3   8   4  235.21    9.35   0
   0   3  51    1.16    6.20   0
   0   4   5   -2.28    4.46   0
   0   5  34  260.09    9.49   0
   1   3  22  365.52    9.58   0
   1   3  25    2.18    4.74   0
  -2   6  -5    1.66    4.90   0
   0   4  47    0.20    6.58   0
   0   5  16  646.17   11.37   0
  -2   7   3    3.95    5.83   0
   0   5  37   -4.91    5.76   0
   1   2  11    4.53    4.48   0
   1   3  19   13.76    4.81   0
   1   3  34  487.88   10.85   0
  -1   5  54   40.97    7.55   0
   0   5  13   -1.34    5.18   0
   1   2  41   -1.99    5.47   0
   1   3  16 2092.98   19.20   0
  -2   8  26  178.96    8.61   0
  -2   8  29   -2.99    6.82   0
  -1   5  -3   12.54    5.10   0
  -1   6   5   -0.03    4.87   0
  -1   6  47   -1.12    6.94   0
   1   3  37   -5.59    6.05   0
  -3   8   1    1.56    6.25   0
  -2   8  32  158.39    8.54   0
  -3   9  21    1.17    6.58   0
  -3   9  24  164.66    8.10   0
  -2   8  17   -5.48    6.65   0
  -2   8  35   -4.08    6.93   0
  -1   4  -8 2588.01   25.05   0
  -1   7  22  125.81    7.92   0
  -1   7  25   -5.04    6.08   0
  -1   7  28  144.77    8.82   0
  -1   7  31   -5.08    7.47   0
   0   4  50  136.91    8.25   0
   0   5  10  671.71   11.30   0
   1   3  13    5.16    5.20   0
  -3   9  18  168.87    8.27   0
  -1   7  19   -0.40    6.80   0
  -1   7  34  163.50    8.94   0
   0   5  43    8.07    5.60   0
   1   2   8 3364.52   25.22   0
   1   2  44  289.39    9.20   0
   1   3  40  429.58   10.51   0
  -2   7   0  571.61   11.54   0
  -2   8  14  102.87    7.69   0
  -1   5  57   -1.84    6.43   0
  -1   6  50   63.69    7.34   0
  -1   6   2  297.64    8.49   0
  -8   7  18  128.03    8.73   0
  -8   8   8  218.83    9.20   0
  -6   8 -14   95.85    7.95   0
  -5   7   0  603.43   11.47   0
  -4   5  15   10.37    5.76   0
  -6   5  25   -0.14    5.87   0
  -6   8 -20  161.27    8.44   0
  -6   8 -11   -9.18    6.21   0
  -5   7 -33    0.58    6.89   0
  -4   6   5    2.45    6.35   0
  -7   6  23    2.19    6.89   0
  -7   7  16  487.96   12.18   0
  -6   8 -23    1.33    6.42   0
  -6   8  -8  421.13   10.49   0
  -2   4   3    3.75    5.32   0
  -8   9 -11   -5.33    6.95   0
  -7   8   6  180.12    9.43   0
  -6   8 -26  175.37    8.40   0
  -6   8  -5   -7.13    7.32   0
  -5   7   3    2.12    6.82   0
  -4   4  22  677.37   12.95   0
  -1   3  -4 2987.43   25.12   0
  -9   8  13    3.32    6.51   0
  -8   8  11   -2.36    7.32   0
  -8   9  -8  127.70    8.79   0
  -3   5   7    2.34    5.54   0
  -8   9  -5   -3.78    7.09   0
  -6   6  21    4.14    6.46   0
  -6   8 -29    3.69    6.68   0
  -6   8  -2  208.09    9.33   0
  -5   6  16  617.63   12.33   0
  -3   3  21    1.17    4.52   0
  -5   5  23    1.40    5.84   0
  -5   7   6  156.37    8.53   0
  -4   6   8  847.25   12.79   0
  -8   7  21    3.56    7.04   0
  -6   7  14  120.95    7.53   0
  -3   6 -18  408.21   10.30   0
  -3   6 -15    5.34    5.86   0
  -7   7  19   -3.55    7.13   0
  -6   8 -32  139.77    7.80   0
  -6   8   1   -3.88    6.22   0
  -4   5  18  370.49    9.94   0
  -3   4  17   -4.47    5.07   0
  -3   6 -21    1.13    5.59   0
  -3   6  -9    1.81    5.99   0
  -2   4   6  789.60   12.54   0
  -1   3  -1   21.82    4.63   0
  -8   8  14  101.76    7.92   0
  -8   9   1   -0.80    7.01   0
  -4   7 -20  405.04   10.44   0
  -4   7 -17   -6.03    5.44   0
  -7   9 -19   -2.20    6.81   0
  -7   9 -10  154.34    8.87   0
  -6   8   4  218.37    9.74   0
  -5   7   9   -6.90    6.93   0
  -4   7 -23   -0.94    6.27   0
  -4   7  -8  514.49   11.37   0
  -3   5  10  701.20   11.79   0
  -3   6 -24  567.97   11.60   0
  -3   6  -6  421.27    9.68   0
  -2   5 -16 1721.39   18.36   0
  -2   5 -13   -5.77    5.27   0
  -7   8  12  158.93    9.28   0
  -7   9 -22   28.19    6.91   0
  -7   9  -7    5.71    7.29   0
  -4   6  11   -1.55    5.42   0
  -2   5 -19    4.16    4.49   0
  -6   7  17    7.69    6.81   0
  -5   6  19    1.54    5.36   0
  -4   7 -26  146.92    7.98   0
  -4   7  -5    4.83    5.67   0
  -3   6 -27   -1.44    5.38   0
  -3   6  -3    4.66    5.27   0
  -2   5 -22  261.97    8.92   0
  -2   5  -7    8.93    5.48   0
  -7   9  -4  178.30    9.15   0
  -6   6  24  429.73   11.36   0
  -5   8 -19    5.23    6.96   0
  -5   8 -16  368.71   10.64   0
  -8   8  17   -6.28    6.79   0
  -6   8   7   -4.26    6.20   0
  -5   8 -22  109.87    8.15   0
  -5   8 -10  188.78    8.21   0
  -4   4  25    0.45    5.21   0
  -4   7  -2  216.55    8.23   0
  -2   4   9   -0.33    4.42   0
  -2   5 -25    2.80    5.63   0
  -1   3   2  670.11   12.24   0
  -7   7  22   93.94    8.20   0
  -7   9  -1    7.69    6.81   0
  -5   8  -7    2.18    6.07   0
  -4   7 -29    4.44    5.93   0
  -3   6   0 1019.40   13.72   0
  -2   5  -4  656.50   11.38   0
  -7   8  15    5.88    7.09   0
  -5   5  26  202.16    8.79   0
  -5   8 -25   -8.84    6.28   0
  -5   8  -4  252.77    9.54   0
  -4   5  21    4.18    5.83   0
  -4   7   1    2.66    6.75   0
  -3   5  13   -2.16    4.97   0
  -3   6 -30  164.26    7.77   0
  -7   9   2   66.12    8.01   0
  -6   7  20  238.72    9.78   0
  -6   8  10  168.93    8.14   0
  -5   8 -28  131.10    8.25   0
  -5   8  -1    5.73    7.06   0
  -3   4  20  869.08   13.68   0
  -3   6   3   -2.28    5.30   0
  -2   5 -28  349.48    9.99   0
  -2   5  -1    0.09    4.75   0
  -8   9  10   72.73    7.68   0
  -5   6  22  192.56    8.76   0
  -4   7   4  615.68   12.21   0
  -3   3  24 1027.05   16.43   0
  -8   8  20  105.40    7.97   0
  -7   9   5   -6.26    7.38   0
  -6   9 -18  167.27    8.43   0
  -5   8   2  222.93    9.69   0
  -1   3   5    5.71    4.96   0
  -1   4 -14  657.02   12.16   0
  -7   8  18  122.90    9.18   0
  -6   9 -21    3.19    6.42   0
  -6   9  -9   -5.11    6.75   0
  -2   4  12  766.66   12.45   0
  -2   5   2  775.46   12.16   0
  -1   4 -17   -0.15    4.68   0
  -1   4 -11    9.32    4.29   0
  -7   7  25   -0.40    6.84   0
  -6   6  27    1.51    6.47   0
  -6   9  -6   67.64    7.68   0
  -4   6  17   -0.70    5.75   0
  -3   6   6  427.80    9.84   0
  -1   4 -20  847.64   14.06   0
  -8   9  13    0.85    6.74   0
  -7   9   8  188.06    9.04   0
  -6   9 -24  140.48    8.38   0
  -6   9  -3   -2.05    7.25   0
  -5   8   5    2.65    7.05   0
  -4   7   7    1.03    5.77   0
  -1   4  -5    1.94    5.16   0
  -6   7  23    1.51    6.53   0
  -6   9 -27    3.12    6.41   0
  -6   9   0  297.69   10.16   0
  -4   5  24  892.24   14.52   0
  -2   5   5    6.80    4.95   0
  -1   4 -23    8.48    4.92   0
  -3   6   9    7.22    5.43   0
  -7   8  21    3.62    7.43   0
  -6   8  16  329.52    9.77   0
  -6   9   3    0.53    7.12   0
  -5   6  25    5.69    6.24   0
  -5   8   8  449.36   10.68   0
  -4   7  10  380.22    9.84   0
  -2   3  19   -1.44    4.45   0
  -1   3   8 3378.16   25.99   0
  -1   4  -2  852.23   13.18   0
  -3   4  23    6.61    5.25   0
  -3   7 -16  410.71   10.53   0
  -3   7 -13    7.83    5.38   0
  -4   6  20  593.03   11.46   0
  -4   8 -18  182.00    8.87   0
  -4   8 -15   -4.46    6.97   0
  -3   7 -19    0.35    6.17   0
  -3   7  -7    0.53    6.52   0
  -2   5   8 2193.57   19.69   0
  -1   4 -26  550.58   12.22   0
  -6   9   6  161.42    8.88   0
  -5   8  11   -2.65    7.53   0
  -4   8 -21   -2.61    6.82   0
  -4   8  -6  178.93    8.76   0
  -3   5  19    7.26    5.00   0
  -3   7 -22  148.81    8.18   0
  -3   7  -4  609.40   12.02   0
  -4   7  13    4.77    6.79   0
  -3   6  12  693.43   11.90   0
  -2   6 -17    2.48    5.70   0
  -2   6 -14  266.51    8.87   0
  -2   6 -11    3.56    5.80   0
  -1   4   1   15.53    4.69   0
  -6   8  19    2.70    7.32   0
  -5   7  21    5.36    5.91   0
  -4   8 -24  310.36    9.93   0
  -4   8  -3    2.17    5.98   0
  -3   7 -25    5.26    6.66   0
  -3   7  -1    1.89    6.22   0
  -6   9   9   -7.23    6.92   0
  -5   9 -17    3.91    6.81   0
  -5   9 -14   81.41    8.19   0
  -5   9  -8  351.47   10.36   0
  -4   8   0  491.90   11.74   0
  -2   6 -20  599.85   11.91   0
  -2   6  -5    0.11    6.05   0
  -7   8  24  216.33    9.19   0
  -5   9 -20  101.81    7.67   0
  -5   9  -5    3.61    7.09   0
  -4   5  27   -0.49    6.46   0
  -7   9  17    1.89    7.45   0
  -4   8 -27    3.70    6.27   0
  -3   3  27   -1.85    4.68   0
  -3   7   2  228.10    8.35   0
  -2   5  11    1.62    5.06   0
  -2   6 -23   -4.95    5.38   0
  -2   6  -2  565.10   10.85   0
  -1   3  11    7.38    4.95   0
  -1   4   4 1284.66   15.43   0
  -5   6  28  358.21   10.72   0
  -5   9 -23   -2.07    6.89   0
  -4   6  23   -7.57    6.23   0
  -4   8   3    5.20    6.18   0
  -3   6  15    1.09    5.35   0
  -3   5  22  292.74    9.24   0
  -2   6   1   -4.52    6.13   0
  -6   8  22  100.24    8.56   0
  -5   7  24  311.12   10.23   0
  -5   9 -26  106.15    7.38   0
  -5   9   1    2.91    6.50   0
  -3   7   5   -0.06    5.78   0
  -2   6 -26  325.49    9.70   0
  -4   8   6  188.26    8.20   0
  -3   4  26  598.33   12.29   0
  -5   9   4  118.68    8.78   0
  -2   3  22  429.61   10.50   0
  -2   5  14  384.93    9.70   0
  -2   6   4  846.16   13.02   0
  -1   4   7   13.10    4.76   0
  -1   5 -15    9.22    5.36   0
  -1   5 -12  880.75   13.21   0
  -7   9  20  127.75    8.66   0
  -4   7  19   -4.75    6.69   0
  -3   7   8  511.87   10.77   0
  -1   5 -18  355.01    9.56   0
  -6  10  -1   -0.07    6.94   0
  -4   8   9    6.33    6.26   0
  -5   9   7   -0.67    6.57   0
  -1   3  14 1531.43   17.75   0
  -1   5 -21    0.40    5.13   0
  -1   5  -3   11.31    4.99   0
   0   3 -12 2457.49   23.47   0
  -6   8  25   -4.54    7.00   0
  -6  10   2   74.73    7.78   0
  -5   8  20  216.40    9.68   0
  -4   6  26  338.79    9.76   0
  -2   6   7    0.08    5.43   0
   0   3 -15    1.44    4.50   0
   0   3  -9    0.87    4.42   0
  -4   5  30  278.67    9.77   0
  -4   8  12  233.31    9.59   0
  -3   7  11    2.05    5.91   0
  -2   4  21    3.50    5.02   0
  -1   4  10 1112.78   14.43   0
  -1   5   0 1373.13   16.01   0
  -6   9  18   88.75    8.49   0
  -5   7  27   -3.02    6.86   0
  -5   9  10  114.44    8.22   0
  -3   5  25    1.38    5.62   0
   0   3 -18 1211.62   17.99   0
  -4   7  22  152.06    8.28   0
  -3   8 -14  135.64    8.36   0
  -3   8 -11    3.85    5.68   0
  -2   6  10  337.88    9.63   0
  -1   5 -24  812.73   13.87   0
  -4   9 -16  292.61    9.94   0
  -4   9 -13   11.09    6.92   0
  -4   9 -10  121.10    8.73   0
  -3   6  21    5.37    5.36   0
  -3   8 -17    4.44    6.85   0
  -3   8  -5   -2.28    5.87   0
  -1   5   3    3.22    5.74   0
   0   3  -3    0.12    3.99   0
  -5   9  13    4.46    6.99   0
  -4   8  15    4.43    7.46   0
  -4   9 -19   -1.19    7.61   0
  -4   9  -4  121.59    8.27   0
  -3   7  14  347.07    9.54   0
  -3   8 -20  193.47    8.48   0
  -3   8  -2  216.55    9.33   0
  -2   7 -12  454.69   10.71   0
  -2   7  -9    0.69    5.91   0
  -5   8  23   -5.37    6.86   0
  -4   9  -1    1.75    6.98   0
  -2   7 -15   -3.74    5.46   0
  -6   8  28  141.08    8.77   0
  -6   9  21    3.48    7.18   0
  -4   9 -22   57.58    7.37   0
  -3   4  29    1.63    4.93   0
  -3   8 -23   -4.47    6.38   0
  -3   8   1    0.40    6.00   0
  -2   7 -18  369.41   10.25   0
  -2   7  -3   -0.91    6.49   0
  -1   4  13    4.02    4.71   0
  -1   5   6  359.22    9.54   0
   0   3   0 2568.39   22.23   0
  -4   6  29   -7.57    6.20   0
  -4   9   2  155.51    8.80   0
  -2   3  25    3.18    4.41   0
  -2   6  13    2.17    5.37   0
  -5  10  -3    2.64    6.87   0
  -3   7  17    1.96    6.75   0
  -3   8   4  247.25    8.78   0
  -2   7 -21   -4.30    6.04   0
  -2   7   0  575.61   11.13   0
  -5   7  30   70.65    7.68   0
  -4   7  25   -4.71    5.87   0
  -4   9   5    1.60    7.10   0
  -3   6  24  584.76   12.11   0
  -2   4  24 1798.35   19.07   0
  -5  10   0  183.53    8.43   0
  -3   5  28  390.09   10.32   0
  -3   8   7    7.73    7.05   0
  -2   7 -24  269.24    9.63   0
  -2   7   3    0.63    5.82   0
  -1   5   9    7.68    5.94   0
   0   3   3    1.04    4.16   0
  -6   9  24  191.71    9.44   0
  -5   8  26  148.97    9.00   0
  -5  10   3    4.28    7.45   0
  -1   6 -10  433.50   10.44   0
  -4   9   8  355.66   10.85   0
  -2   6  16  716.70   11.97   0
  -2   7   6  406.75   10.52   0
  -1   4  16 2036.78   19.31   0
  -1   6 -13    1.82    4.91   0
   0   4 -13    0.24    4.75   0
   0   4 -10  400.83    9.89   0
  -5   9  19    7.18    7.22   0
  -1   6 -16  605.81   11.52   0
   0   4  -4 1526.20   17.11   0
  -5  10   6   76.28    7.27   0
  -4   8  21   -4.23    7.38   0
  -1   6 -19    0.97    5.63   0
  -1   6  -1   -1.74    5.37   0
   0   3   6 2084.78   19.89   0
   0   4 -16 1443.85   17.76   0
  -4   7  28  334.22   10.73   0
  -4   9  11   -0.66    7.39   0
  -2   5  23   -1.70    5.70   0
  -2   7   9    1.51    6.57   0
  -1   5  12 1096.67   14.21   0
   0   4  -1   -4.32    4.93   0
  -4   6  32  308.48   10.02   0
  -1   6   2  322.42    8.90   0
   0   4 -19    2.71    4.59   0
  -3   6  27   -3.10    5.27   0
  -3   8  13    2.87    6.09   0
  -2   6  19    4.85    5.44   0
  -1   6 -22  198.35    8.47   0
  -6   9  27   -1.95    6.97   0
  -5   8  29   -5.26    6.83   0
  -5   9  22   68.24    8.36   0
  -4   9  14   70.27    7.91   0
  -1   6   5    3.56    5.98   0
   0   4   2 1380.31   15.70   0
  -3   5  31   -2.71    6.27   0
  -3   7  23    0.72    6.97   0
  -3   9  -9  -12.02    7.25   0
  -2   4  27   -1.41    5.04   0
  -2   7  12  365.85    9.72   0
  -3   9 -12  131.61    8.53   0
  -1   5  15    4.17    5.06   0
   0   3   9   -0.02    4.34   0
   0   4 -22  600.17   12.74   0
  -3   8  16  387.77   10.08   0
  -3   9 -15   -1.24    6.91   0
  -2   3  28 1254.94   17.52   0
  -2   8 -10  162.91    8.40   0
  -2   8  -7    6.78    6.70   0
  -1   6   8  785.89   12.73   0
   0   4   5    1.85    4.68   0
  -4   9  17   -3.74    7.10   0
  -4  10  -2   71.98    7.96   0
  -3   9 -18   87.42    7.24   0
  -3   9   0  273.78    9.19   0
  -2   5  26  615.86   11.91   0
  -2   8 -13   -7.43    5.77   0
  -5   9  25    3.99    6.66   0
  -4   7  31    2.14    6.59   0
  -3   9   3    4.54    7.06   0
  -2   7  15    4.62    5.90   0
  -2   8 -16  320.24   10.12   0
  -2   8  -1    2.39    5.88   0
  -4  10   1    2.53    6.22   0
  -3   6  30  160.67    8.31   0
  -3   9 -21    1.46    5.82   0
  -2   8 -19   -3.35    6.28   0
  -2   8   2  194.90    9.04   0
   0   5 -11    0.76    5.28   0
   0   5  -8  954.98   14.01   0
  -4   8  27   -5.55    7.11   0
  -4  10   4  112.51    7.94   0
  -3   7  26  128.59    8.45   0
  -3   8  19    2.64    7.29   0
  -3   9   6   69.94    7.74   0
  -1   5  18  707.83   11.78   0
  -1   6  11    5.02    5.68   0
   0   3  12 2000.52   19.38   0
   0   4   8 1552.23   16.44   0
   0   5 -14  618.67   11.85   0
   0   5  -2  321.38    9.29   0
  -5   8  32  170.87    9.05   0
  -2   8   5   -5.10    7.39   0
  -1   3  23    3.10    4.57   0
  -1   4  22  332.18    9.18   0
  -1   7  -8  593.84   12.07   0
  -2   7  18  156.11    7.77   0
  -1   7 -14  124.87    7.82   0
  -1   7 -11    2.40    5.52   0
   0   5 -17    1.69    5.18   0
   0   5   1    1.92    5.80   0
  -3   9   9    2.81    6.52   0
  -2   8   8  402.44   10.81   0
  -1   6  14  396.19   10.15   0
  -5   9  28   73.15    7.40   0
  -2   4  30  190.88    7.96   0
  -2   6  25    5.26    5.46   0
  -1   7 -17    3.98    6.13   0
   0   4  11   -5.17    4.75   0
   0   5   4 1103.10   14.49   0
  -3   5  34  392.33   10.55   0
  -2   5  29   -2.65    5.71   0
  -1   7   4  256.15    9.41   0
   0   5 -20  617.75   12.15   0
  -4   7  34  146.80    8.64   0
  -4   9  23   -4.31    6.99   0
  -3   7  29    2.14    7.02   0
  -2   7  21  -10.45    6.89   0
  -2   8  11   -3.93    7.20   0
  -1   7 -20  225.90    9.19   0
  -4   8  30   80.61    8.27   0
   0   3  15   -2.49    4.14   0
   0   5   7    7.07    5.11   0
  -3   6  33    2.17    6.12   0
  -1   6  17    1.81    5.77   0
  -1   7   7    2.58    6.03   0
   0   4  14  303.36    8.99   0
  -3   9  15   -5.17    6.72   0
  -2   8  14  103.53    8.26   0
  -1   4  25   -3.12    5.14   0
  -3   8  25   15.88    6.68   0
  -2   3  31    1.88    4.83   0
  -2   6  28  405.71   10.46   0
  -1   7  10  186.27    8.71   0
   0   5  10  706.03   12.11   0
  -4   9  26  126.18    8.31   0
  -1   3  26  498.39   10.96   0
   0   6  -9    1.97    6.08   0
   0   6  -6  230.51    8.74   0
  -3   9  18  151.92    8.58   0
  -2   9  -5   -1.83    7.25   0
  -1   5  24  627.80   11.28   0
   0   6 -12  398.32   10.17   0
   0   6   0  862.27   13.53   0
  -3   7  32  270.57   10.06   0
  -2   8  17    1.23    6.11   0
  -2   9 -11    3.53    6.36   0
  -1   7  13   -3.24    6.73   0
   0   3  18  507.29   10.67   0
  -4   8  33   -6.98    7.15   0
  -2   5  32  654.44   12.48   0
  -2   9 -14  103.73    7.42   0
  -2   9   1    7.85    7.05   0
   0   4  17    2.50    4.79   0
   0   5  13    0.95    5.34   0
   0   6 -15    0.21    5.82   0
   0   6   3    4.68    5.46   0
   1   3  -8 2668.20   23.11   0
  -3   8  28  142.55    8.48   0
  -2   9   4  173.19    8.67   0
   1   3 -11   14.03    4.85   0
   1   3  -2  835.50   12.78   0
  -2   9 -17   -2.18    5.76   0
  -1   8  -9    0.06    6.77   0
  -1   8  -6  171.93    8.66   0
  -1   8  -3   -7.90    6.82   0
   0   6 -18  336.45    9.49   0
   0   6   6  363.71    9.40   0
   1   2  -1   21.77    4.97   0
   1   3   1    9.48    5.13   0
  -4   9  29   -4.67    6.51   0
  -2   6  31   -0.61    5.86   0
  -2   7  27   -2.80    6.85   0
  -2   8  20  175.63    8.58   0
  -2   9   7    5.98    6.84   0
  -1   4  28  654.89   12.00   0
  -1   7  16  571.03   11.47   0
  -1   8 -12  162.85    8.52   0
  -1   5  27    9.18    6.00   0
  -1   8   3    2.07    6.85   0
   0   5  16  661.60   11.44   0
   0   6   9   -8.04    6.34   0
   1   3 -14  661.28   12.68   0
   1   4  -6  834.36   13.14   0
  -2   9  10  159.29    8.84   0
  -1   8 -15    1.66    6.49   0
   0   4  20 1252.86   15.35   0
   1   2   2  669.01   12.16   0
   1   3   4 1267.64   15.17   0
   1   4  -9   -1.81    5.06   0
  -1   7  19   -1.31    7.24   0
  -1   8   6  103.54    7.09   0
   0   2  19   -0.74    4.44   0
   1   4 -12  888.31   13.83   0
   1   4   0 1359.50   15.52   0
  -3   7  35    5.26    6.45   0
  -3   8  31   -0.52    7.18   0
  -3   9  24  132.05    8.73   0
  -1   8 -18  111.99    7.41   0
   1   3 -17   -1.33    4.69   0
   1   4   3   -0.71    5.26   0
  -2   9  13    8.87    7.50   0
  -1   3  29    3.40    4.56   0
  -1   8   9   -2.52    6.41   0
   0   5  19   -4.07    6.17   0
   1   2   5    3.23    4.15   0
   1   3   7    7.86    4.53   0
  -2   5  35   -1.97    5.47   0
  -2   7  30  162.73    8.73   0
  -1   6  26  210.78    8.11   0
   0   7  -7    0.06    6.46   0
   0   7  -4  160.08    8.57   0
   1   4 -15    8.02    5.02   0
   1   4   6  356.51    9.37   0
  -1   8  12  177.92    8.90   0
   0   6  15    0.31    6.44   0
   0   7 -10  191.98    8.56   0
  -2   6  34  147.41    8.27   0
  -2   9  16  131.96    8.83   0
  -1   5  30  156.25    7.94   0
  -1   7  22  143.60    7.99   0
   0   7 -13   -6.54    6.70   0
   0   7   2  200.92    8.23   0
   1   3  10 1070.14   13.87   0
  -3   9  27    2.97    7.13   0
  -2   8  26  171.59    9.16   0
  -1   4  31    4.07    5.35   0
   0   7   5   -1.17    6.92   0
   1   2   8 3324.18   25.02   0
   1   4 -18  368.85   10.23   0
   1   4   9    4.11    5.09   0
   1   5  -7    2.12    5.73   0
   1   5  -4  716.03   11.90   0
  -1   8  15   -0.78    7.04   0
   0   5  22  226.22    8.70   0
   1   3 -20  783.84   14.86   0
   1   5 -10  456.15   10.66   0
   1   5   2  330.40    9.62   0
  -3   8  34  115.35    8.14   0
  -2   9  19   -7.55    6.86   0
  -1   6  29    8.13    6.59   0
   0   3  24 1454.75   16.49   0
   0   6  18  242.51    8.58   0
   0   7 -16  412.52   10.82   0
   0   7   8  537.11   11.14   0
   1   5 -13    6.66    5.77   0
   1   5   5   -3.68    6.19   0
  -2   7  33    1.39    7.05   0
   1   3  13    5.46    4.58   0
   1   4  12 1091.33   14.38   0
  -1   8  18  189.17    9.26   0
   0   7  11   -4.93    7.38   0
   1   2  11   15.99    5.15   0
   1   5   8  797.10   12.77   0
  -2   8  29   10.60    6.83   0
  -1   9  -7    3.93    7.41   0
  -1   9  -4  140.48    7.92   0
  -1   9  -1   -5.53    6.90   0
   0   4  26  703.38   12.24   0
   1   5 -16  604.26   11.97   0
  -2   9  22   34.40    7.17   0
  -1   9 -10   59.30    7.40   0
   0   6  21   -4.11    5.92   0
  -2   6  37   -3.07    6.30   0
  -1   3  32 1107.38   16.18   0
  -1   5  33    1.03    5.92   0
  -1   9   5    1.83    6.69   0
   0   7  14  125.12    7.90   0
   1   4  15    2.03    5.10   0
   1   5  11    0.03    5.50   0
  -1   7  28  134.83    8.54   0
  -1   8  21    7.94    7.26   0
  -1   9 -13    1.56    5.61   0
   1   3  16 1999.40   18.43   0
   1   6  -2  305.48    9.77   0
  -3   8  37   -0.16    6.40   0
  -1   4  34  488.32   10.95   0
  -1   6  32  349.59   10.26   0
  -1   9   8  133.91    7.74   0
   1   2  14 1672.75   17.98   0
   1   5 -19    2.44    5.13   0
   1   6  -8  623.17   12.13   0
   1   6  -5    1.32    5.51   0
  -2   7  36  154.40    8.87   0
  -1   9  11   -8.73    7.33   0
   0   3  27    1.77    4.14   0
   0   6  24  550.35   11.93   0
   0   7  17    3.03    6.37   0
   0   8  -5   -2.00    6.80   0
   0   8  -2   93.10    7.69   0
   1   5  14  365.07    9.35   0
   1   6   4  240.18    9.30   0
  -2   8  32  158.18    9.29   0
   0   8  -8  217.67    8.78   0
   0   8   1   -2.96    6.30   0
   1   4  18  685.59   11.46   0
   1   6 -11    0.21    5.53   0
   1   6   7    8.54    6.46   0
  -1   8  24  204.58    9.14   0
   0   4  29    2.21    5.56   0
   0   5  28  560.27   11.50   0
   0   8 -11    0.94    6.82   0
   0   2  25   -2.47    4.48   0
   0   7  20  133.01    8.96   0
   0   8   7   -1.95    7.42   0
   1   3  19    9.05    4.78   0
   1   5  17    0.22    6.48   0
   1   6 -14  118.43    7.60   0
   1   6  10  197.01    8.52   0
  -1   7  31   -0.45    7.15   0
   0   8 -14  101.73    7.66   0
   0   8  10  132.43    8.77   0
  -1   5  36  421.62   10.71   0
   1   2  17   -1.68    4.21   0
   1   4  21    0.97    5.78   0
   1   6 -17   -4.02    6.25   0
   1   6  13   -8.59    7.05   0
  -1   6  35   -0.08    5.71   0
  -2   8  35   -7.41    7.23   0
   0   7  23   12.25    6.40   0
   0   8  13    3.72    6.63   0
   1   5  20  465.92   10.27   0
  -2   7  39   -3.18    6.33   0
   0   3  30  523.77   11.08   0
   0   5  31   -8.81    6.41   0
   1   6  16  584.11   11.81   0
   2   3  -4  680.93   11.94   0
   2   3   2  791.30   12.52   0
  -1   3  35   -0.40    4.95   0
  -1   4  37   -2.44    5.23   0
   0   4  32  460.29   10.60   0
   0   8  16  157.52    8.62   0
   1   7  -6  172.13    8.44   0
   1   7  -3   -6.54    6.95   0
   1   7   0  334.59    9.82   0
   2   3  -7    4.24    5.32   0
   2   4  -5    6.61    5.58   0
  -1   7  34  154.15    8.98   0
   0   6  30  120.04    8.43   0
   1   4  24  614.67   11.64   0
   1   7  -9   -0.31    6.50   0
   1   7   6   90.38    7.82   0
   2   3   5    2.19    4.79   0
   2   4  -8  850.71   13.40   0
   2   4   4  835.94   12.55   0
  -1   8  30   41.65    7.34   0
   0   7  26  189.63    9.31   0
   1   5  23    3.35    5.60   0
   1   6  19   -3.08    7.05   0
   2   3 -10  721.64   12.53   0
   2   3   8 2132.28   19.09   0
   2   4   7   -0.14    5.75   0
   0   8  19   -6.34    6.77   0
   1   7 -12  154.12    8.30   0
   1   7   9   -3.72    6.31   0
   2   4 -11    2.35    5.28   0
  -1   5  39    6.51    5.79   0
  -1   6  38  114.96    7.87   0
   0   2  28 1063.54   15.52   0
   1   7  12  176.87    8.99   0
   2   2   0 4142.99   27.40   0
   2   2   3    0.08    4.98   0
   2   4  10  332.67    9.42   0
   2   5  -3    8.36    6.39   0
   0   5  34  252.41    9.20   0
   2   2  -6  813.00   13.28   0
   2   3 -13    6.19    4.67   0
   2   3  11    5.57    5.01   0
   2   5  -6  145.51    7.62   0
   0   8  22   54.86    7.64   0
   1   5  26  197.44    8.69   0
   1   6  22  149.09    7.61   0
   2   2   6  784.19   12.22   0
   2   4 -14  256.60    8.70   0
   2   4  13    8.29    6.16   0
   2   5   6  415.43    9.85   0
  -1   7  37    0.28    6.74   0
  -1   8  33   -8.67    7.27   0
   0   6  33    2.34    6.65   0
   1   7  15    1.93    6.50   0
   2   2  -9    0.17    4.34   0
   2   5  -9    5.30    5.26   0
   2   5   9    4.91    6.66   0
   0   3  33    3.63    4.95   0
   0   4  35   -3.06    5.57   0
   1   2  23   -0.41    4.71   0
   2   2   9    4.68    4.40   0
   2   3  14  362.67    8.92   0
   2   4  16  690.67   12.01   0
   2   5 -12  464.35   10.89   0
   2   5  12  390.44    9.72   0
   0   8  25   -0.54    6.72   0
   1   6  25    3.57    6.14   0
   2   3 -16 1698.92   19.52   0
   2   4 -17   -1.34    5.64   0
   0   7  32  238.66    9.77   0
   1   3  28  653.82   11.91   0
   1   8  -1   -0.24    6.99   0
   1   8   2   90.02    7.79   0
   2   2 -12  739.07   13.40   0
   2   2  12  775.57   12.11   0
   2   3  17   -3.08    5.04   0
   2   5  15    7.47    6.50   0
   2   6  -1   -4.34    6.64   0
   2   6   2  192.34    8.90   0
  -1   6  41    4.55    6.46   0
   0   5  37    0.07    6.21   0
   1   4  30  147.62    7.79   0
   1   8  -4  149.51    8.00   0
   1   8   5   -1.36    6.67   0
   2   4  19    0.98    6.04   0
   2   5 -15   -3.22    5.57   0
   2   6  -4  209.36    9.13   0
   0   6  36  138.92    8.14   0
   1   8  -7    1.82    5.90   0
   2   6  -7    2.52    6.61   0
   2   6   8  393.43   10.04   0
  -1   7  40  176.10    8.54   0
   1   8  11    1.04    6.82   0
   2   2  15    4.57    5.30   0
   2   5  18  152.20    7.56   0
   2   6  11   -3.14    6.88   0
   0   2  31   -2.78    4.31   0
   1   2  26  504.10   10.68   0
   1   8 -10   60.47    7.10   0
   2   3  20  556.01   10.56   0
   2   6 -10  162.21    8.47   0
   0   4  38  118.23    7.34   0
   1   7  24  187.44    8.79   0
   2   3 -19    2.90    4.88   0
   2   4  22  343.38    9.86   0
   2   6  14   95.15    8.17   0
   0   7  35    2.22    6.73   0
   1   3  31   -1.63    5.58   0
   1   5  32  338.18    9.42   0
   2   2 -15   -1.34    4.65   0
   2   5  21   -3.57    6.86   0
   2   6 -13   -0.75    6.24   0
   1   4  33   11.37    5.73   0
   2   2  18 1054.52   13.77   0
   2   6  17    5.71    6.99   0
   1   7  27    0.09    6.76   0
   2   1   1   18.92    4.49   0
   2   1   4 3070.82   24.72   0
   2   3  23   -0.56    5.04   0
   0   5  40  178.75    8.34   0
   0   6  39   11.71    7.00   0
   2   1   7    1.99    4.84   0
   2   4  25   -1.66    6.38   0
   2   5  24  408.63   10.97   0
   2   7   1    3.10    6.50   0
   2   7   4  170.83    8.80   0
   2   6  20  169.19    8.78   0
   2   7  -5   -1.98    7.35   0
   2   7  -2   61.08    7.80   0
   1   1  21    7.50    4.69   0
   1   2  29   -0.02    4.90   0
   1   5  35   -0.59    6.86   0
   2   2  21    0.85    5.33   0
   2   7  10  160.18    8.31   0
   3   3   3   -2.87    5.53   0
   3   4  -1    3.59    6.10   0
   3   4   5    5.01    6.46   0
   0   7  38   23.71    6.81   0
   2   1  10 2050.80   19.77   0
   2   7  -8  178.99    8.39   0
   2   7  13    6.23    7.08   0
   3   3  -3    0.54    5.32   0
   3   3   6  426.56    9.67   0
   3   4  -4  618.86   12.02   0
   3   4   8  504.24   10.93   0
   1   3  34  489.65   10.92   0
   1   6  34  143.24    8.58   0
   2   5  27    5.76    6.91   0
   2   6  23   -3.49    7.06   0
   3   3   9    7.26    5.19   0
   0   2  34  254.83    8.96   0
   0   4  41   -4.02    5.59   0
   1   4  36  428.08   10.23   0
   2   7  16  134.00    8.43   0
   3   3  -6  429.82    9.68   0
   3   3  12  706.39   12.15   0
   3   4  -7   -0.14    5.89   0
   3   4  11   -0.67    5.69   0
   2   1  13   14.58    4.55   0
   3   4  14  360.59    9.89   0
   3   5  -2  232.52    9.18   0
   3   5   1    0.19    5.58   0
   3   5   7   -3.69    6.79   0
   0   3  39    3.68    5.29   0
   0   6  42  110.31    7.76   0
   3   2   1    6.20    5.20   0
   3   2   4  689.45   11.85   0
   3   3  -9    4.23    5.31   0
   3   4 -10  356.94    9.88   0
   3   5  10  196.45    8.79   0
   0   5  43   -6.66    6.23   0
   1   5  38  110.63    8.21   0
   1   7  33    5.37    6.46   0
   2   3  29    0.80    6.07   0
   2   6  26  172.86    8.32   0
   2   7  19   -5.68    6.47   0
   3   2   7   12.16    4.81   0
   3   3  15    5.03    5.27   0
   3   4  17   -2.35    6.82   0
   3   5  13   11.62    7.35   0
   1   6  37    1.17    6.49   0
   2   1  16 2051.28   19.63   0
   2   4  31   -4.03    6.10   0
   3   2  10  728.30   12.08   0
   3   5  -8  413.34   10.64   0
   1   2  32 1121.27   15.34   0
   2   7  22   44.40    7.40   0
   3   2  -5    6.93    5.16   0
   3   3  18  417.51   10.17   0
   3   5  16  393.37   10.67   0
   3   2  13    2.45    4.81   0
   3   3 -12  733.06   12.88   0
   3   4 -13    6.40    5.52   0
   3   4  20  410.79   10.43   0
   1   3  37    6.61    5.29   0
   1   4  39    0.16    6.15   0
   2   2  27    0.82    5.43   0
   3   5 -11    2.00    6.27   0
   3   6   0  272.57    9.62   0
   3   6   3    5.54    6.56   0
   3   6   6   61.48    8.03   0
   2   1  19    0.35    4.87   0
   2   5  33    2.36    7.05   0
   3   2  -8 2151.31   20.21   0
   3   2  16 1800.68   17.67   0
   3   3  21    6.54    6.52   0
   3   5  19   -5.71    6.05   0
   3   6  -3    4.27    6.24   0
   2   3  32  657.34   12.28   0
   2   4  34  145.68    8.36   0
   3   4  23   -1.64    6.51   0
   3   6  -6  159.54    8.69   0
   3   6  12  144.95    8.25   0
   1   5  41   -4.15    6.19   0
   1   6  40  166.07    8.91   0
   3   3 -15   -0.99    5.02   0
   3   5  22  117.16    8.16   0
   3   6  15    7.09    6.90   0
   3   2  19   -2.21    5.87   0
   3   3  24  586.70   11.70   0
   1   1  27    3.03    4.35   0
   3   2 -11    3.31    4.80   0
   3   4  26  151.79    8.69   0
   3   6  -9    4.07    6.42   0
   3   6  18  173.59    8.57   0
   1   2  35    0.23    5.01   0
   2   2  30  190.15    7.81   0
   2   5  36  145.65    8.56   0
   3   5  25   -6.99    7.03   0
   1   4  42  188.88    8.69   0
   3   1   2  868.22   13.24   0
   3   1   5    5.39    4.48   0
   3   2  22  287.91    8.93   0
   3   6  21  -11.58    7.16   0
   1   3  40  400.10   10.41   0
   2   3  35    7.21    6.11   0
   2   4  37    1.74    6.33   0
   2   6  35   -1.01    6.65   0
   3   1   8 2663.23   21.40   0
   3   3  27   -1.15    6.06   0
   3   1  11   20.02    4.88   0
   3   4  29    1.62    6.74   0
   1   5  44  129.38    8.78   0
   1   6  43    5.90    6.07   0
   3   2 -14  360.92    9.89   0
   3   5  28  155.28    8.19   0
   3   6  24  142.04    8.28   0
   4   3   7    5.68    6.05   0
   4   4   3   -5.98    6.54   0
   2   1  25    2.95    4.83   0
   3   1  -4 1253.57   16.03   0
   3   1  14  681.65   11.39   0
   3   2  25    0.95    5.56   0
   4   3   1    5.62    5.30   0
   4   3  10  381.30    9.54   0
   4   4   0  481.66   11.38   0
   4   4   9    1.93    5.82   0
   2   2  33   -6.09    5.52   0
   2   5  39   -4.99    6.39   0
   4   3  -2  219.71    7.91   0
   4   3  13   13.67    5.80   0
   4   4  -3   -2.57    6.30   0
   3   1  17   -0.02    5.30   0
   3   6  27   -4.43    6.75   0
   4   3  16  393.19   10.48   0
   4   4  15   -3.39    5.89   0
   4   5   5   -4.14    7.01   0
   1   1  30  546.05   11.57   0
   2   3  38   82.37    6.87   0
   2   4  40  214.11    9.01   0
   3   1  -7   10.03    4.61   0
   3   5  31   -0.67    6.43   0
   4   2   5   11.00    5.96   0
   4   2   8  818.12   12.67   0
   4   3  -5    2.66    4.87   0
   4   4  -6  179.52    8.31   0
   4   5   2  146.48    8.57   0
   4   5  11   -6.54    6.90   0
   1   2  38  291.81    9.14   0
   4   2  11   -4.44    6.13   0
   4   3  19    4.97    6.56   0
   4   4  18  182.32    8.43   0
   4   5  -1   -2.22    7.05   0
   4   5  14   81.93    7.87   0
   3   1  20  881.38   13.11   0
   4   2  -1    0.43    4.85   0
   4   2  14  259.33    8.73   0
   4   3  -8  503.96   11.14   0
   4   5  -4  120.55    7.73   0
   4   4  21   -2.63    6.05   0
   4   5  17    0.90    6.56   0
  -4   9 -10  117.07    8.46   0
  -3   7   5    1.04    6.41   0
  -2   6   4  842.03   13.19   0
  -1   6 -10  447.04   10.49   0
  -3   6  12  714.20   12.79   0
  -2   7  -6  142.97    7.48   0
  -5   8  11   -2.23    7.03   0
  -4   6  17    2.50    5.77   0
  -3   5  16 1714.82   18.73   0
  -3   8  -5    8.83    6.06   0
   0   3   0 2553.11   22.00   0
   0   5 -29   -3.94    5.37   0
   0   5 -26  209.30    8.43   0
   0   5 -23    0.55    4.94   0
   0   5 -20  630.20   11.93   0
  -1   4   7    9.01    4.63   0
  -4   7  13    3.44    5.67   0
  -2   7  -3   -0.35    6.41   0
  -1   6  -7   -0.55    5.33   0
   0   4  -4 1559.85   16.98   0
   0   5 -17    1.78    4.79   0
  -6   9   9    5.31    6.57   0
  -5   9   4  112.52    7.98   0
  -4   9  -4  107.84    8.56   0
  -3   8  -2  215.53    9.22   0
  -1   5   3    6.18    5.86   0
   1   3 -26  582.09   12.55   0
   1   3 -23    7.29    5.17   0
  -2   6   7    1.61    6.23   0
   0   5 -14  609.83   11.10   0
   1   3 -20  860.43   14.02   0
  -2   4  15   -1.01    4.75   0
  -1   6  -4  716.07   12.45   0
  -4   5  21    4.03    5.24   0
  -2   7   0  585.52   11.74   0
  -2   8 -28  139.54    7.92   0
  -2   8 -25   -1.20    6.73   0
  -2   8 -22   99.32    8.03   0
  -2   8 -19   -1.20    7.19   0
   1   3 -17   -0.14    4.62   0
  -6  10   2   68.69    7.44   0
  -5   8  14  135.14    8.41   0
  -5  10  -6   88.15    7.63   0
  -4   8   9   -5.55    7.35   0
  -4   9  -1    0.83    7.37   0
  -3   8   1   -8.84    6.18   0
  -3   9 -27   -1.74    6.30   0
  -3   9 -24  176.78    8.94   0
  -2   8 -31    4.52    6.17   0
  -1   3  11    8.10    4.12   0
  -5   9   7    2.81    6.80   0
  -3   6  15    4.32    5.11   0
  -1   7 -26  231.39    9.34   0
  -1   7 -23    6.14    6.75   0
   0   3   3    4.66    4.96   0
   0   4  -1   -0.00    4.56   0
  -6   9  12  140.00    8.63   0
  -4   7  16  402.05   10.92   0
  -3   4  20  851.62   14.59   0
  -3   9 -15    0.85    7.51   0
  -2   8 -34   93.53    7.07   0
  -2   8 -13   -2.95    7.24   0
  -1   6  -1    0.92    5.99   0
  -1   7 -29   -2.77    6.16   0
  -1   7 -20  219.96    8.59   0
   0   5  -8  928.61   13.47   0
   1   3 -14  675.05   12.30   0
  -5  10  -3   -5.50    6.99   0
  -3   9 -12  124.15    8.38   0
  -2   5  14  353.33    9.63   0
  -1   4  10 1086.72   14.29   0
  -1   7 -32  208.76    9.38   0
  -1   7 -17   -0.50    5.50   0
  -4   9   2  155.57    8.39   0
  -3   5  19    4.86    5.38   0
  -3   8   4  240.76    9.65   0
  -2   6  10  338.50    9.16   0
  -2   7   3   -1.95    5.87   0
  -2   8 -10  153.32    9.06   0
  -3   9  -9   -1.35    7.10   0
   1   3 -11   15.40    4.88   0
  -5   9  10  114.00    8.36   0
  -4   8  12  245.76    9.78   0
  -2   8  -7    2.05    7.09   0
   0   5  -5    3.17    5.04   0
  -1   6   2  329.59    9.06   0
   0   4   2 1370.34   15.59   0
  -5   8  17   -1.09    6.67   0
  -3   9  -6  162.97    8.23   0
  -2   7   6  402.16   10.72   0
  -1   7  -8  595.80   11.90   0
   0   6 -24  454.34   11.04   0
   0   6 -21   -2.87    6.15   0
  -6   9  15    0.10    7.02   0
  -3   6  18  384.57   10.48   0
  -3   8   7   -1.47    7.19   0
  -2   8  -4  202.47    9.14   0
  -1   5   9   16.73    5.93   0
   0   6 -27    2.40    6.16   0
   0   6 -18  320.17    9.73   0
   1   4 -27    3.88    5.52   0
   1   4 -24  855.44   14.06   0
   1   4 -21    3.43    5.12   0
  -5  10   3   -4.77    6.70   0
  -3   7  14  334.33    9.42   0
  -2   4  18 1021.08   14.89   0
   0   3   6 1980.34   19.23   0
   0   5  -2  317.44    8.70   0
   0   6 -30   87.88    6.99   0
   0   6 -15   -4.75    5.79   0
   1   4 -18  363.04    9.72   0
  -4   7  19    3.50    6.45   0
  -3   9  -3    7.44    6.44   0
   1   4 -15    5.21    5.28   0
  -5   9  13   -3.85    6.73   0
  -4   8  15    5.41    7.04   0
  -1   4  13    9.38    5.26   0
  -1   6   5    6.70    5.52   0
   0   6 -12  382.60   10.10   0
  -4   9   8  334.48   10.21   0
  -2   5  17    7.19    4.61   0
   0   4   5    1.36    5.15   0
  -3   9   0  290.26   10.18   0
  -2   7   9   -2.85    5.94   0
  -1   7  -2  316.05    9.74   0
   1   4 -12  880.88   13.07   0
  -5  10   6   77.50    8.07   0
  -4   6  23   -4.52    6.07   0
  -4  10  -2   68.50    7.65   0
   0   5   1   -2.67    5.09   0
  -5   8  20  195.27    9.38   0
  -3   5  22  266.30    8.96   0
  -2   8   2  202.49    9.23   0
  -2   9 -20  115.15    8.30   0
  -1   5  12 1109.09   14.66   0
   1   4  -9   -3.41    5.33   0
  -3   7  17    1.95    6.73   0
  -3   9   3    6.45    7.48   0
  -2   9 -17   -3.92    6.80   0
  -1   6   8  781.85   13.01   0
   0   6  -6  215.55    8.00   0
  -4   9  11   -0.20    7.40   0
  -4  10   1    0.42    6.80   0
  -2   6  16  720.19   12.66   0
  -1   7   1   -0.75    5.95   0
  -1   8 -24  223.03    8.93   0
  -1   8 -21   10.63    6.62   0
  -1   8 -18  111.92    7.85   0
  -5   9  16  293.84   10.36   0
  -4   8  18  180.52    9.39   0
  -3   4  23    7.11    4.62   0
  -3   6  21    6.65    5.95   0
  -2   7  12  381.88   10.59   0
  -2   9 -11   -2.23    6.66   0
  -1   8 -27   -0.39    6.77   0
  -1   8 -15   -2.26    6.79   0
   0   3   9    0.98    4.97   0
  -4   7  22  153.62    8.28   0
  -3   8  13    3.85    7.28   0
  -2   8   5  -10.89    7.19   0
   0   4   8 1491.45   16.49   0
   0   5   4 1094.09   14.05   0
   0   6  -3   -4.68    6.46   0
   1   3  -2  824.02   12.62   0
  -2   9  -8  176.06    8.94   0
   1   2  -1   23.50    4.43   0
   1   5 -25    7.00    5.44   0
   1   5 -22  211.92    8.46   0
   1   5 -19    5.77    5.76   0
  -3   9   6   56.00    7.31   0
  -2   5  20  589.96   11.78   0
  -1   8  -9    2.11    6.87   0
   1   5 -16  611.56   11.91   0
  -4   9  14   70.45    8.39   0
  -2   4  21   -0.28    4.68   0
  -2   9  -5   -6.64    7.33   0
  -1   6  11   11.29    5.52   0
   0   6   0  851.81   13.48   0
   0   7 -22   95.82    7.32   0
   0   7 -19   -6.52    6.44   0
   1   5 -13    5.25    6.09   0
  -1   5  15    1.59    4.89   0
  -1   8  -6  169.34    8.80   0
   0   7 -25   -4.31    6.68   0
   0   7 -16  449.48   11.30   0
   1   4  -3   11.58    4.96   0
  -3   7  20  406.40   10.38   0
   0   5   7    0.60    5.25   0
   0   7 -13    1.11    7.06   0
   1   5 -10  449.22   10.61   0
  -5   9  19   -0.36    6.53   0
  -3   8  16  365.86   11.08   0
  -2   6  19    1.31    6.19   0
  -2   9  -2   70.69    7.90   0
  -1   3  17    2.35    3.93   0
  -1   7   7   12.11    6.60   0
   1   3   1   15.32    4.56   0
  -4   8  21   -0.68    6.91   0
  -1   8  -3    1.64    6.23   0
   0   6   3    1.78    6.76   0
   0   4  11   -0.03    4.69   0
   1   4   0 1335.65   15.35   0
  -3   6  24  583.02   12.22   0
  -2   8  11   -3.71    7.45   0
  -2   9   1   -0.05    7.03   0
  -1   6  14  369.30   10.14   0
   0   3  12 1936.82   18.97   0
   1   2   2  655.73   12.07   0
  -4   7  25   -1.79    6.45   0
  -4   9  17   -2.82    7.39   0
  -1   8   0  359.25    9.79   0
   0   5  10  664.34   11.42   0
   0   7  -4  144.60    7.73   0
  -3   8  19   -2.04    7.31   0
  -2   7  18  159.94    8.32   0
  -2   9   4  168.10    9.10   0
  -1   4  19    7.01    5.12   0
   0   6   6  355.82    9.56   0
   1   3   4 1275.82   15.26   0
  -3   7  23   -1.73    6.68   0
  -2   5  23    0.40    5.50   0
  -1   8   3    1.32    7.22   0
   1   4   3   -0.12    4.73   0
   1   6 -23   -2.56    6.23   0
   1   6 -20  237.30    9.08   0
   1   6 -17    3.72    6.12   0
  -2   6  22  346.89   10.09   0
   0   7  -1    0.40    5.98   0
   1   5  -1    8.50    5.34   0
   1   6 -14  123.46    7.93   0
  -4   8  24  314.18   11.35   0
  -1   9 -13    0.50    6.98   0
   0   4  14  308.93    8.99   0
   1   6 -11    3.42    6.52   0
   2   2 -18  975.59   16.15   0
   2   3 -19    2.25    4.77   0
  -4   9  20   93.59    8.39   0
  -3   9  15    4.16    6.87   0
  -2   9   7   10.78    7.03   0
  -1   7  13    2.56    7.10   0
   2   2 -21   -0.24    4.68   0
   2   2 -15    1.14    4.69   0
   2   3 -22  246.55    8.88   0
   2   3 -16 1743.59   19.30   0
  -2   4  24 1695.30   19.35   0
  -1   8   6   98.32    7.39   0
   0   5  13    0.34    5.25   0
   0   6   9    0.29    5.83   0
   0   7   2  212.46    8.32   0
   1   2   5    4.46    4.85   0
   1   5   2  324.43    9.46   0
   1   6  -8  598.91   11.42   0
   2   3 -13    0.16    4.84   0
  -1   9  -7   -1.14    6.83   0
   0   3  15    1.35    4.92   0
   0   8 -20  118.07    7.58   0
   0   8 -17    1.19    6.46   0
   1   3   7    7.28    5.43   0
   1   4   6  347.57    8.79   0
   2   2 -12  759.57   13.48   0
  -3   6  27   -5.83    6.43   0
  -2   7  21    9.16    6.55   0
   0   8 -23   -2.53    5.84   0
   0   8 -14  103.59    8.36   0
   2   3 -10  730.34   12.55   0
  -3   8  22   94.78    8.08   0
  -2   9  10  152.18    8.79   0
  -1   5  21    7.48    5.80   0
  -1   9  -4  153.95    8.52   0
   0   7   5    6.11    7.14   0
   0   8 -11    0.59    6.50   0
   2   4 -20  589.30   12.06   0
   2   4 -17    3.40    5.21   0
  -1   8   9    9.52    6.60   0
   0   8  -8  210.79    9.06   0
   1   6  -2  310.75    9.85   0
   2   2  -9    0.39    4.31   0
   2   3  -7    4.82    5.05   0
   2   4 -14  268.37    8.96   0
  -3   7  26  146.26    8.60   0
  -3   9  18  161.07    8.88   0
  -1   4  22  334.26    9.33   0
  -1   7  16  584.12   11.87   0
  -1   9  -1    7.86    7.23   0
   0   6  12  335.98    9.32   0
   1   5   5    2.01    5.42   0
   2   4 -11   -0.60    5.54   0
  -2   5  26  591.32   11.86   0
  -2   6  25    4.34    5.89   0
   0   4  17    5.90    4.79   0
   0   5  16  675.58   11.88   0
  -4   9  23    2.89    7.13   0
   0   7   8  600.08   12.39   0
   1   4   9   15.73    5.08   0
   1   6   1   -0.12    6.80   0
   2   4  -8  819.49   13.17   0
  -2   9  13   -2.35    6.93   0
  -1   8  12  186.37    9.18   0
  -1   9   2   94.25    7.90   0
   0   8  -2   94.31    7.83   0
   1   3  10 1123.36   14.59   0
   1   7 -18  122.29    8.73   0
   2   2  -6  775.89   12.81   0
  -2   8  20  171.76    9.11   0
   1   2   8 3295.10   25.09   0
   1   5   8  801.42   12.96   0
   1   7 -21   -2.22    5.97   0
   1   7 -15    7.13    6.97   0
   1   7 -12  171.72    8.43   0
   2   4  -5    3.21    5.63   0
  -3   8  25   -2.51    6.85   0
  -2   7  24  408.71   10.60   0
   0   6  15    9.79    6.76   0
   1   7  -9   -0.91    7.10   0
  -3   9  21    3.34    6.82   0
  -1   9   5   -1.43    6.97   0
   0   8   1   -1.64    6.27   0
   1   6   4  243.95    8.70   0
   2   5 -21   -5.61    6.21   0
   2   5 -18  372.90   10.26   0
   2   5 -12  465.04   10.94   0
  -1   5  24  626.94   12.07   0
   1   4  12 1103.18   14.50   0
   1   7  -6  171.62    8.92   0
  -2   4  27   -2.00    5.32   0
  -1   6  23    0.74    6.61   0
  -1   8  15   -2.19    7.18   0
   0   5  19   -1.80    6.19   0
   0   8   4  202.20    9.46   0
   2   5  -9    3.64    5.41   0
  -3   7  29   -0.27    6.59   0
   1   5  11    6.21    5.57   0
   1   6   7    7.14    7.03   0
   2   5  -6  136.44    7.97   0
  -2   3  25    2.62    4.54   0
  -2   6  28  411.10   10.69   0
  -1   3  23    3.19    4.38   0
  -1   9   8  127.96    8.43   0
   1   3  13    4.01    5.21   0
   2   3   2  771.97   12.43   0
   2   4   1   -1.79    5.85   0
  -2   8  23   -0.63    7.76   0
  -1   4  25   -2.95    5.23   0
   0   6  18  241.25    8.61   0
   0   7  14  125.60    8.73   0
   1   7   0  349.95   10.41   0
   2   2   0 4099.28   27.67   0
   2   5  -3    0.62    6.20   0
  -2   7  27    1.53    7.14   0
  -1   7  22  127.79    8.63   0
   0   8   7    4.10    7.44   0
   1   2  11    9.75    5.13   0
  -3   8  28  166.90    9.06   0
  -3   9  24  144.00    8.46   0
  -2   5  29   -0.52    5.57   0
  -2   9  19   -1.83    6.81   0
   1   6  10  191.54    9.14   0
  -1   9  11    6.01    7.40   0
   1   4  15    8.72    5.01   0
   1   7   3   -3.08    7.39   0
   2   4   4  856.83   13.15   0
   0   8  10  130.10    8.85   0
   2   3   5    1.02    4.71   0
   2   6 -19    1.17    7.10   0
   2   6 -16  330.06    9.86   0
   2   6 -13   -7.18    6.27   0
  -1   5  27    4.75    5.77   0
  -1   6  26  193.00    7.97   0
   2   6 -10  168.58    8.92   0
   0   6  21   -3.67    6.78   0
   1   7   6   93.83    8.36   0
   1   8 -13    6.94    6.09   0
   2   2   3   -4.71    4.25   0
   2   5   3    7.60    6.64   0
   2   6  -7   -2.20    6.98   0
  -2   8  26  166.07    9.51   0
   1   3  16 2030.46   18.68   0
   1   6  13   -2.40    6.02   0
   2   4   7   -9.61    6.12   0
   2   6  -4  219.68    9.39   0
  -2   9  22   43.83    7.22   0
  -1   7  25    4.36    5.92   0
   0   8  13   -9.37    7.41   0
   1   8  -7   -2.78    6.97   0
  -3   9  27    4.31    6.38   0
  -2   6  31    5.95    5.61   0
   1   4  18  709.81   11.63   0
   1   5  17    1.76    5.67   0
   1   7   9    9.25    7.58   0
   1   8  -4  146.25    8.20   0
   2   3   8 2088.14   18.70   0
   2   5   6  403.53   10.33   0
  -2   7  30  159.29    8.94   0
   0   7  20  140.25    8.93   0
   1   2  14 1611.56   17.49   0
  -1   4  28  643.39   12.19   0
   0   2  19    0.25    4.38   0
   2   2   6  793.18   12.39   0
   2   4  10  345.37    9.59   0
  -2   4  30  173.16    7.72   0
   0   5  25   -6.00    5.32   0
   1   6  16  576.45   11.50   0
  -2   5  32  628.73   12.96   0
  -1   3  26  502.18   11.21   0
  -1   6  29    2.94    5.67   0
  -1   8  24  195.36    9.88   0
   0   8  16  155.44    9.16   0
   1   7  12  179.97    9.15   0
   2   5   9    1.66    6.68   0
   3   3 -12  716.49   12.74   0
  -2   8  29   -6.51    6.94   0
  -1   5  30  164.97    8.02   0
   1   3  19    9.41    5.60   0
   1   5  20  462.38   10.71   0
   2   3  11   -1.55    4.96   0
   3   3 -15   -3.61    5.00   0
   3   3  -9   12.02    5.29   0
  -1   7  28  145.94    8.74   0
   0   3  24 1488.33   17.16   0
   0   4  26  691.25   12.14   0
   1   8   5    1.32    7.20   0
   2   7 -14  114.91    7.47   0
   2   7 -11   -2.39    6.32   0
   2   7  -8  187.24    9.03   0
   3   3  -6  441.25   10.40   0
   3   4 -16  413.33   10.54   0
   3   4 -13    2.15    5.77   0
   1   4  21   10.28    5.19   0
   2   4  13    6.52    6.22   0
   2   7  -5    1.45    7.17   0
   3   4  -7    0.40    6.08   0
   0   8  19    1.57    7.61   0
   1   6  19    5.87    6.11   0
   1   7  15   -4.90    7.30   0
   2   2   9    0.39    4.41   0
   3   3  -3   -1.33    5.23   0
   3   4  -4  606.98   11.79   0
  -2   7  33   -2.79    7.51   0
   1   2  17    5.32    5.14   0
   1   8   8  126.57    8.59   0
   2   6   8  407.13   10.06   0
   2   7  -2   74.48    7.64   0
   3   2 -14  359.57    9.87   0
   3   2 -11    3.46    4.91   0
  -2   6  34  148.99    8.06   0
   0   5  28  577.27   11.69   0
   0   6  27    2.55    6.76   0
   2   3  14  379.61    9.38   0
   3   2  -8 2195.92   21.12   0
   3   4  -1    5.80    6.07   0
  -1   8  27    0.01    7.55   0
   1   5  23    0.82    6.62   0
   2   7   1   -1.49    6.95   0
   3   2 -17    1.94    4.52   0
   3   2  -5    5.68    5.01   0
   3   3   0 1037.50   13.87   0
   3   5 -14  131.89    8.04   0
   3   5 -11    0.95    6.39   0
  -1   6  32  326.66   10.34   0
   2   4  16  714.16   12.36   0
   2   5  15    2.81    6.64   0
   2   6  11   -1.46    7.14   0
   3   5  -5    0.44    6.79   0
  -2   8  32  141.51    9.09   0
  -1   4  31    6.76    5.49   0
  -1   7  31    3.98    6.77   0
   0   7  26  183.94    9.11   0
   1   3  22  351.96    8.88   0
   1   4  24  618.88   11.72   0
   1   6  22  141.00    8.92   0
   1   7  18  183.77    8.86   0
   1   8  11    0.67    6.42   0
   2   1   4 3036.79   24.79   0
   2   2  12  766.24   12.40   0
   3   5  -2  235.15    9.33   0
   3   2  -2  810.38   12.59   0
  -1   5  33    1.74    5.52   0
   0   4  29   -4.77    5.83   0
   3   5   1    4.50    6.67   0
   0   3  27    2.36    4.95   0
   1   8  14   68.37    7.70   0
   2   3  17    2.31    5.01   0
   2   6  14   98.03    7.41   0
   2   7   7   -2.99    6.48   0
  -1   3  29    4.08    4.58   0
  -1   8  30   54.49    7.92   0
   1   7  21    3.46    7.10   0
   2   4  19    0.16    6.00   0
   2   5  18  164.37    8.63   0
   3   3   6  428.59    9.67   0
   0   5  31    4.37    5.98   0
   1   2  20 1418.40   16.60   0
   1   6  25   -3.46    7.20   0
   3   4   8  531.70   11.05   0
   3   6 -12  130.01    8.10   0
   3   6  -9    1.10    6.50   0
   0   7  29   -9.65    7.38   0
   2   1   7    0.55    4.04   0
   2   7  10  160.92    8.14   0
   3   2   4  691.55   11.91   0
   3   6  -6  156.70    8.70   0
   2   2  15    2.00    4.59   0
   2   6  17    4.10    7.59   0
   3   3   9    4.62    5.97   0
   3   5   7   -1.87    6.74   0
   3   6  -3    1.04    6.49   0
  -1   6  35   -6.25    6.63   0
  -1   7  34  151.88    8.45   0
   3   6   0  299.27    9.94   0
   1   7  24  189.00    9.19   0
   2   3  20  567.37   10.64   0
   2   5  21    3.04    5.79   0
   2   7  13    8.71    7.38   0
   3   4  11    3.74    5.75   0
   2   4  22  338.01    9.12   0
   3   2   7    3.05    4.65   0
   3   5  10  189.34    8.79   0
   3   6   3   -4.91    7.04   0
  -1   4  34  481.05   11.51   0
  -1   8  33   -0.23    7.84   0
   0   4  32  447.46   10.70   0
   0   6  33    1.35    7.00   0
   2   6  20  175.60    9.05   0
   3   1 -10 1108.16   16.50   0
   3   1  -7    6.63    4.58   0
   3   3  12  689.83   11.56   0
  -1   5  36  422.92   10.87   0
   1   1  15    2.08    3.99   0
   2   1  10 2034.27   19.64   0
   2   7  16  138.81    8.97   0
   3   1 -13    4.70    4.61   0
   3   1  -4 1266.75   16.54   0
   3   4  14  334.29    9.96   0
   0   2  25    2.12    4.39   0
   0   5  34  249.62    9.22   0
   0   7  32  226.80    9.25   0
   2   2  18 1056.15   13.82   0
   3   5  13    1.42    7.01   0
   0   3  30  510.57   10.60   0
   2   5  24  423.22   10.90   0
   3   1  -1    8.60    4.87   0
   3   2  10  723.10   11.59   0
   3   6   9   -1.48    7.09   0
   1   4  30  163.70    8.06   0
   2   3  23    5.26    6.02   0
   3   3  15   -5.14    5.79   0
  -1   7  37    6.37    6.74   0
   2   4  25    1.99    5.56   0
   2   6  23    2.52    7.55   0
   2   7  19  -10.15    7.10   0
   3   4  17    3.07    6.84   0
   4   3  -8  520.81   11.30   0
  -1   3  32 1118.46   16.64   0
  -1   6  38  109.89    7.65   0
   3   5  16  363.36   10.78   0
   3   6  12  147.83    8.47   0
   4   3 -11    1.66    5.46   0
   4   3  -5   11.40    6.03   0
   4   3  -2  237.72    8.66   0
   4   4 -12  224.22    9.20   0
   4   4  -9   -4.00    6.07   0
   4   4  -6  176.66    8.56   0
   4   4  -3    2.24    6.53   0
   1   5  32  346.74   10.31   0
   1   6  31   -5.81    6.63   0
   2   1  13   17.38    4.48   0
   3   2  13   -1.64    5.67   0
   4   4   0  492.54   11.52   0
   0   6  36  119.24    8.02   0
   2   2  21   -7.76    5.11   0
   2   5  27   -8.47    7.29   0
   4   3   1    9.94    6.07   0
   0   4  35   -6.31    5.78   0
   0   7  35    7.91    6.76   0
   1   7  30   37.32    7.76   0
   3   1   5    7.67    5.03   0
   3   3  18  405.78    9.52   0
   4   4   3    5.48    6.93   0
   2   3  26  610.74   11.59   0
   2   6  26  177.35    9.05   0
   2   7  22   43.91    6.94   0
   3   4  20  404.29    9.88   0
   3   5  19   -3.45    7.41   0
   3   6  15    3.21    6.53   0
   4   2  -7   -2.02    5.15   0
   4   2  -4  846.80   13.37   0
   4   3   4  633.20   11.43   0
   4   5  -7    4.20    6.59   0
   4   5  -4  123.08    7.90   0
   0   5  37    1.35    6.52   0
   1   2  26  484.46   10.48   0
   1   4  33    2.32    6.23   0
   2   4  28  408.69    9.95   0
   4   2 -10  325.69    9.42   0
   4   2  -1    7.49    5.61   0
   4   4   6  179.99    8.94   0
   4   5  -1    1.76    6.95   0
  -1   4  37   -3.36    5.18   0
   3   2  16 1719.76   17.04   0
   4   2 -13   -2.36    5.31   0
   4   5   2  156.73    8.65   0
   0   2  28 1073.02   15.52   0
   0   3  33    1.80    5.17   0
   1   3  31    3.71    4.78   0
   1   6  34  153.73    8.63   0
   2   1  16 2107.03   19.70   0
   3   1   8 2646.19   21.45   0
   3   3  21   -5.63    6.45   0
   3   6  18  165.39    8.69   0
   4   2   2  596.38   11.36   0
   4   5   5    3.78    7.02   0
   1   5  35    2.86    6.67   0
   2   5  30  164.67    8.64   0
   3   4  23   -5.39    6.87   0
   3   5  22  110.41    8.48   0
   1   7  33    2.27    7.32   0
   2   2  24 1800.71   17.66   0
   2   6  29    3.26    6.89   0
   4   3  10  364.51    9.30   0
   4   5   8  318.32   10.35   0
   0   6  39   -3.71    6.44   0
   0   7  38   26.77    7.78   0
   4   4  12  238.00    9.27   0
   3   1  11   15.79    4.78   0
   3   2  19   -0.77    5.08   0
   3   6  21    3.29    7.08   0
   3   3  24  585.10   11.69   0
   4   3  13    8.69    5.58   0
   0   4  38  119.66    7.27   0
   1   4  36  417.54   10.72   0
   3   4  26  133.53    8.38   0
   3   5  25    1.09    6.37   0
   4   4  15   -0.35    6.79   0
   0   5  40  170.96    8.54   0
   1   2  29    2.06    5.12   0
   1   6  37    4.90    6.85   0
   2   1  19   -4.31    4.29   0
   4   2  11   -0.37    6.05   0
   4   5  14   71.43    7.86   0
   1   3  34  489.37   11.02   0
   3   1  14  676.59   11.34   0
   3   6  24  145.78    8.52   0
   4   3  16  393.15    9.80   0
   1   5  38  121.46    7.47   0
   2   2  27   -0.74    4.72   0
   3   2  22  272.93    8.24   0
   4   1  -6  359.05    9.64   0
   4   1  -3    1.96    4.90   0
   4   4  18  173.24    8.73   0
   0   3  36  506.35   11.26   0
   2   4  34  159.85    8.50   0
   3   5  28  165.56    8.98   0
   4   1  -9   11.53    5.37   0
   4   1   0 1426.17   16.35   0
   4   2  14  268.08    8.74   0
   4   5  17   -6.08    7.13   0
   0   2  31    0.70    4.53   0
   3   3  27   -3.98    5.66   0
   4   1   3    8.76    4.72   0
   0   6  42  109.92    8.07   0
   3   1  17    2.14    5.49   0
   3   6  27   -4.31    7.33   0
   4   3  19    0.81    5.81   0
   2   1  22  447.04   10.09   0
   2   5  36  138.90    8.68   0
   4   1 -12 1036.42   15.82   0
   4   4  21   -4.90    7.51   0
   1   4  39   -5.34    6.43   0
   1   6  40  188.16    9.16   0
   2   6  35    3.51    6.44   0
   3   2  25    2.39    5.33   0
   4   2  17    6.24    5.45   0
   4   5  20  102.56    8.29   0
   5   3  -4  247.81    9.10   0
   5   3  -1   -2.55    6.39   0
   3   5  31   -5.68    7.17   0
   4   1   9    0.79    4.81   0
   4   3  22  164.42    8.53   0
   5   3  -7    7.47    6.06   0
   5   3   2  219.33    8.87   0
   5   4  -5    1.25    5.88   0
   5   4  -2  158.82    8.65   0
   5   4   1    1.07    6.21   0
   0   4  41   -2.50    5.72   0
   0   5  43   -0.67    6.37   0
   1   2  32 1094.70   14.59   0
   1   3  37    2.24    5.97   0
   1   5  41    8.81    6.84   0
   3   3  30  187.50    8.27   0
   5   3   5    1.96    6.85   0
   5   4   4  118.83    8.09   0
   2   3  35    4.05    6.28   0
   2   4  37   -2.44    6.93   0
   3   1  20  901.76   13.01   0
   3   4  32  263.21    9.84   0
   4   4  24  313.76   10.47   0
   4   5  23   -1.53    7.21   0
   5   3   8  430.18   11.00   0
   5   4   7    4.72    6.46   0
   3   0   3   -0.93    4.57   0
   4   2  20  602.79   11.14   0
   5   2  -6  400.47   10.83   0
   5   2  -3    2.61    5.72   0
   5   2   0  605.71   11.89   0
   5   2   3    3.52    6.15   0
   3   2  28  390.28    9.80   0
   5   4  10  132.83    8.35   0
   5   5   0  163.69    7.97   0
   5   5   3   -3.02    6.60   0
   2   0  11    0.75    4.12   0
   2   1  25    2.22    4.43   0
   2   5  39    5.12    6.67   0
   3   0   6  533.81   11.03   0
   4   3  25   -0.32    6.05   0
   5   2  -9    1.86    5.34   0
   5   2   6  154.99    7.26   0
   5   5   6   78.39    7.53   0
   0   3  39   -0.33    5.25   0
   3   5  34  101.55    8.15   0
   4   1  15   12.61    5.04   0
   4   4  27    0.90    7.14   0
   4   5  26  132.31    8.66   0
   5   2   9    6.79    5.89   0
   0   2  34  264.89    9.11   0
   1   6  43    5.52    6.18   0
   2   2  33   -2.39    5.78   0
   3   1  23    1.15    5.56   0
   3   3  33   -6.55    5.63   0
   4   2  23  -11.29    5.60   0
   1   1  27    2.00    4.85   0
   3   0   9    3.08    4.13   0
   1   2  35   -4.06    5.25   0
   1   5  44  128.57    9.01   0
   2   4  40  220.62    9.11   0
   4   1  18  385.83    9.64   0
   4   3  28  333.44   10.19   0
   5   3  17    1.64    6.85   0
   1   3  40  412.03   10.59   0
   2   0  14  337.93    9.04   0
   2   3  38   84.05    6.61   0
   3   2  31   -1.30    6.18   0
   3   0  12 2561.00   21.35   0
   4   2  26  361.71   10.17   0
   4   4  30   78.64    7.55   0
   4   5  29   -9.47    6.43   0
   5   1   1    4.15    5.66   0
   5   2  15    3.75    5.65   0
   5   4  19    6.26    6.98   0
   2   5  42   78.60    7.52   0
   5   1  -2  301.44    9.21   0
   5   1   4  725.77   12.49   0
   3   1  26  609.21   11.00   0
   3   4  38  120.79    8.47   0
   4   1  21    3.96    5.89   0
   5   1  -5    4.65    5.33   0
   5   1   7    7.05    5.88   0
   5   2  18  364.18   10.23   0
   4   0  -2 1386.16   17.03   0
   4   0   1    1.60    4.10   0
   4   3  31   -4.22    6.03   0
   5   4  22   54.37    7.44   0
   2   0  17   -0.43    4.14   0
   2   2  36  360.37    9.22   0
   3   0  15    4.18    4.38   0
   4   0   7    1.11    5.10   0
   4   4  33   -5.63    7.23   0
   5   1  -8  757.30   13.36   0
   5   3  23    3.74    7.23   0
   1   4  45   -2.12    6.37   0
   2   4  43   -3.38    6.80   0
   4   0  -5   -0.97    4.51   0
   4   2  29   -6.12    5.89   0
   5   1  13    8.57    6.26   0
   1   1  30  572.50   11.49   0
   2   3  41   -1.69    6.02   0
   3   5  40  112.16    8.46   0
   4   1  24  878.42   13.07   0
   5   2  21   -3.91    5.99   0
   1   2  38  308.01    9.25   0
   3   1  29   -5.19    5.83   0
   5   4  25    1.62    6.40   0
   0   2  37   -2.37    4.77   0
   1   3  43   -1.34    5.51   0
   2   1  31    2.17    4.57   0
   2   5  45   -1.42    6.89   0
   3   0  18 1249.80   15.02   0
   3   3  39    0.99    6.79   0
   4   0  -8 1496.65   18.81   0
   4   0  13   -3.71    5.53   0
   4   3  34  165.72    7.97   0
   5   1  16  633.71   11.35   0
   5   3  26  158.26    8.67   0
   6   3   0  269.60    9.62   0
   6   3   3    3.08    6.25   0
   2   0  20 3565.08   25.91   0
   3   4  41   -3.96    7.05   0
   4   2  32  318.77    9.98   0
   4   4  36  121.19    8.26   0
   6   3   6  153.58    8.62   0
   6   3   9   -1.79    7.04   0
   5   4  28   67.01    7.71   0
   6   2   1   -2.49    6.35   0
   0   1  29    2.41    4.16   0
   2   2  39    2.66    5.75   0
   3   2  37   -2.04    6.23   0
   4   0  16 1479.35   16.26   0
   4   1  27    6.20    5.43   0
   5   1  19    9.38    5.50   0
   6   2  -2  203.69    8.56   0
   6   2   7   -2.72    6.72   0
   6   3  12  130.84    8.15   0
   3   0  21   -2.62    4.54   0
   5   3  29   -4.33    7.45   0
   6   2  10  162.28    8.59   0
   6   3  15   -8.13    7.13   0
   2   4  46   82.79    7.24   0
   4   0 -11   -1.24    4.34   0
   4   3  37   -2.32    6.74   0
   5   2  27    2.80    5.97   0
   6   2  13    9.42    6.86   0
   1   1  33    2.46    4.85   0
   2   3  44  199.50    8.98   0
   3   3  42  137.24    8.50   0
   4   0  19    0.42    5.35   0
   5   1  22  193.86    7.86   0
   2   0  23   -0.91    4.19   0
   2   1  34  547.17   10.68   0
   3   4  44  116.08    8.55   0
   4   1  30  295.31    9.21   0
   4   2  35    7.65    5.88   0
   5   0   2  317.86    9.10   0
   5   0   5    2.95    4.55   0
   1   2  41    2.06    5.45   0
   3   0  24 1064.91   14.18   0
   5   0  -1   -1.83    4.34   0
   5   3  32  181.95    8.84   0
   6   1   5    4.00    6.24   0
   1   3  46   67.90    6.93   0
   3   2  40  403.03   10.61   0
   5   0  -4 1096.00   15.26   0
   5   0  11    4.60    4.99   0
   5   1  25    2.44    6.60   0
   5   2  30   78.92    7.15   0
   6   1  -1   -4.55    5.88   0
   6   1   2  323.68    9.07   0
   6   1   8  597.93   12.00   0
   4   0  22  671.83   11.25   0
   5   0  14  626.36   11.43   0
   6   1  11   -3.65    6.60   0
   2   2  42  360.51   10.00   0
   6   1  -4  245.53    8.82   0
   1   0  22  440.92   10.63   0
   4   1  33   -0.32    6.17   0
   5   0  -7   -0.72    5.30   0
   5   0  17    3.35    5.87   0
   5   3  35    1.65    7.25   0
   6   2  22  107.42    8.14   0
   6   3  24  186.08    8.68   0
   2   4  49    7.44    6.13   0
   3   0  27    7.84    5.24   0
   3   3  45   -6.29    6.81   0
   5   1  28  370.94    9.67   0
   5   2  33    0.85    7.30   0
   4   0  25    0.15    5.02   0
   3  -3  24 1530.76   17.07   0
   5  -6  23   -6.47    6.34   0
   5  -4  30  158.61    8.95   0
   5  -2  31    5.78    6.77   0
   7  -8  18  176.45    9.17   0
   6  -7  22  135.41    8.44   0
   6  -2  32  326.58   11.18   0
   2  -1  21    9.36    4.79   0
   3  -2  26  512.44   10.72   0
   3   0  24 1014.38   15.00   0
   5  -1  30  280.63    9.59   0
   6  -3  33   13.99    7.65   0
   8  -8  22   66.42    8.19   0
   3  -5  17   -0.37    5.32   0
   4  -5  24  596.16   11.94   0
   4  -2  30  201.30    8.69   0
   5  -3  32  633.98   12.26   0
   7  -7  26  191.52    9.24   0
   7  -1  29   -1.85    7.49   0
   8  -4  33   -5.02    7.65   0
   8  -3  32  189.32    9.46   0
   5  -7  18  152.06    8.12   0
   6   0  27   -2.62    6.56   0
   7  -5  33    5.82    7.81   0
   4  -6  19   -0.08    5.81   0
   6  -5  32  336.24   10.98   0
   6  -1  31    2.63    6.61   0
   7  -6  31   -0.39    7.53   0
   6  -4  34  159.41    8.53   0
   7  -8  21   -0.59    6.97   0
   7  -2  33   -4.17    8.08   0
   8  -6  32  163.79    9.39   0
   8  -2  31    1.86    7.73   0
   2  -2  22 1880.99   19.45   0
   4  -4  29   -2.63    6.30   0
   4   0  28  618.74   12.76   0
   5  -6  26  216.79    9.25   0
   7  -4  35    6.60    6.86   0
   8  -5  34  107.40    8.70   0
   2  -4  15   -2.00    4.05   0
   4  -3  31   10.60    5.85   0
   5  -4  33    4.12    7.35   0
   5   0  29    7.01    6.45   0
   6  -7  25    5.02    6.75   0
   2  -3  20 1357.06   16.61   0
   3  -3  27    4.27    5.15   0
   8  -8  25   -2.30    7.28   0
   2   1  19   -0.30    4.63   0
   5  -5  31    1.31    6.13   0
   6  -3  36  275.75   11.13   0
   6  -2  35   -1.56    6.49   0
   7  -7  29    4.20    7.61   0
   8  -3  35    4.44    7.59   0
   3  -5  20  553.88   11.77   0
   3  -2  29    7.73    6.30   0
   3   1  23    8.33    5.27   0
   4  -5  27    5.50    6.41   0
   5  -7  21   -0.84    5.99   0
   5  -3  35    4.33    6.48   0
   5  -1  33   -0.59    6.06   0
   7  -1  32  235.38   10.10   0
   2  -1  24 1880.58   19.59   0
   3   0  27   -1.69    4.79   0
   4  -6  22  350.46   10.12   0
   4  -2  33   -0.35    6.89   0
   4  -1  32  858.27   14.41   0
   6  -5  35    3.87    8.02   0
   7  -8  24  194.50    9.11   0
   7  -6  34  140.55    9.25   0
   7  -5  36  143.35    8.91   0
   6  -4  37   10.26    7.93   0
   8  -6  35   -4.59    7.60   0
   8  -2  34  104.10    9.52   0
   7  -4  38  119.56    9.18   0
   7  -2  36  244.08   10.72   0
   8  -5  37  -12.18    8.17   0
   4  -4  32  444.32   11.30   0
   5  -6  29    2.21    5.76   0
   6  -7  28  132.90    8.74   0
   2  -4  18 1041.51   15.57   0
   4  -3  34  493.25   11.00   0
   5  -4  36  437.01   11.33   0
   2  -3  23    3.91    5.15   0
   2  -2  25   -3.92    4.92   0
   3  -3  30  548.63   11.69   0
   4   0  31    3.15    5.22   0
   5  -5  34  242.78    9.90   0
   5   0  32  475.06   12.12   0
   7  -7  32  222.23    9.40   0
   3  -1  31   -0.33    6.30   0
   4   1  27    1.67    6.10   0
   5  -7  24  389.23   10.91   0
   6  -3  39   -4.61    6.75   0
   6  -2  38   82.41    7.84   0
   7  -8  27    2.26    7.79   0
   8  -3  38   41.01    8.03   0
   3  -6  15   -0.53    5.64   0
   3  -5  23    0.66    5.78   0
   4  -6  25   -3.57    6.36   0
   5  -3  38   84.80    7.65   0
   5  -1  36  289.89   10.55   0
   7  -5  39   -8.87    7.16   0
   7  -1  35    3.62    8.39   0
   3  -2  32 1193.35   15.45   0
   4  -2  36  354.26   10.42   0
   6  -5  38  109.88    7.96   0
   7  -3  40  144.18    9.51   0
   2  -1  27    0.21    5.30   0
   2   1  22  461.08   11.25   0
   3   0  30  307.54    9.67   0
   3   1  26  606.76   12.86   0
   4  -1  35   -4.82    5.82   0
   6  -7  31    0.86    7.34   0
   6  -4  40  209.71   10.42   0
   6  -1  37    5.94    7.80   0
   7  -4  41    4.25    8.50   0
   8  -5  40  126.30    8.98   0
   8  -2  37   -0.49    8.36   0
   5  -6  32  340.74    9.91   0
   7  -2  39   -6.89    8.10   0
   4  -4  35    8.86    6.00   0
   7  -7  35   -0.60    7.25   0
   1  -2  18 1190.24   16.50   0
   2  -4  21   -0.05    4.48   0
   4  -3  37    1.14    6.20   0
   5  -7  27    5.50    6.71   0
   5  -5  37   11.42    7.05   0
   5  -4  39   13.87    6.51   0
   1  -1  20 1551.29   18.54   0
   1   0  19   -1.69    4.24   0
   2  -5  13    1.67    4.65   0
   2  -3  26  514.65   11.06   0
   2  -2  28 1067.24   14.50   0
   3  -3  33   -0.57    5.54   0
   4   0  34  225.95    9.54   0
   6  -3  42  147.39    9.75   0
   7  -8  30   37.55    7.01   0
   3  -6  18  388.13   10.57   0
   3  -5  26  578.74   12.22   0
   3  -1  34  587.28   12.22   0
   4  -6  28  400.97   10.82   0
   5  -3  41    3.62    8.09   0
   5   0  35   -0.87    6.86   0
   6  -2  41    9.78    6.97   0
   7  -6  40  195.76    9.42   0
   7  -5  42   81.32    8.80   0
   3  -4  31    6.81    5.54   0
   4   1  30  280.02   10.34   0
   5  -1  39   12.38    7.41   0
   6  -5  41   -4.16    8.05   0
   3  -2  35    3.12    5.74   0
   4  -2  39    9.31    6.80   0
   5  -6  35    6.47    7.52   0
   6  -7  34  157.14    8.73   0
   6  -4  43    0.14    7.82   0
   7  -3  43    5.21    7.42   0
   4  -1  38  174.17    8.96   0
   7  -4  44  105.69    9.07   0
   2  -1  30  610.09   11.56   0
   3   0  33    5.65    5.96   0
   3   1  29    4.04    5.53   0
   4  -4  38  122.67    8.61   0
   6  -1  40  203.86   10.14   0
   7  -7  38   31.09    7.36   0
   7  -2  42  118.03    9.71   0
   2  -5  16 1667.96   20.10   0
   2  -4  24 1797.58   19.24   0
   2   1  25    6.51    5.32   0
   4  -3  40  429.91   11.51   0
   5  -7  30  160.13    8.84   0
   5  -5  40  174.76    9.45   0
   5  -4  42  195.93   10.12   0
   7  -8  33   -3.49    6.40   0
   1  -2  21    7.36    4.74   0
   3  -6  21    4.68    6.11   0
   3  -3  36  509.72   11.67   0
   1  -1  23   -2.23    5.39   0
   2  -3  29    2.98    5.05   0
   2  -2  31   -0.55    5.21   0
   3  -5  29   -5.97    5.23   0
   4  -6  31    4.06    6.73   0
   6  -2  44  200.17   10.56   0
   7  -6  43    9.18    7.51   0
   7  -5  45   -5.94    7.73   0
   1   0  22  462.21   10.60   0
   3  -1  37    2.86    6.60   0
   4   0  37    5.13    6.50   0
   5  -3  44  218.33   10.26   0
   5   0  38  187.44    9.64   0
   6  -5  44  125.73    9.14   0
   3  -2  38  313.19    9.97   0
   5  -6  38  112.32    8.54   0
   5  -1  42  153.64    9.78   0
   6  -7  37   -8.82    7.57   0
   7  -3  46   60.15    8.22   0
   4  -2  42  364.31   10.35   0
   4   1  33    4.44    6.59   0
   6  -4  46   89.28    8.68   0
   7  -4  47    7.50    7.80   0
   1  -3  19    0.95    4.93   0
   2  -5  19    5.68    5.28   0
   2  -4  27   -2.70    5.76   0
   2  -1  33    1.55    6.27   0
   4  -4  41    4.81    7.37   0
   4  -1  41    4.11    5.92   0
   5  -7  33    7.68    6.53   0
   3  -6  24  567.81   12.15   0
   3   0  36  771.02   13.83   0
   4  -3  43    9.89    7.11   0
   5  -5  43   -3.49    7.53   0
   5  -4  45   -1.64    7.76   0
   6  -1  43   -5.01    7.59   0
   7  -2  45   -7.35    8.13   0
   1  -2  24 1793.18   18.82   0
   2  -3  32 1101.18   15.28   0
   3  -5  32  645.93   12.69   0
   3   1  32  850.38   14.68   0
   4  -6  34  148.11    8.85   0
   2  -2  34  275.39    8.73   0
   2   1  28 1264.21   16.77   0
   3  -4  37   -1.98    6.81   0
   3  -3  39    2.92    5.94   0
   1  -1  26 1193.68   15.48   0
   1   0  25    0.56    5.21   0
   5  -3  47    4.87    7.75   0
   6  -7  40  162.82    8.81   0
   6  -5  47   -3.06    7.87   0
   6  -2  47  -10.98    7.69   0
   1   1  21    8.13    4.80   0
   2   2  21    2.05    4.30   0
   3  -2  41    5.75    7.24   0
   4   0  40  407.72   11.44   0
   5  -6  41    0.67    7.46   0
   5   0  41   -4.56    7.17   0
   2  -5  22  266.19    9.15   0
   4  -2  45    4.98    7.21   0
   5  -7  36  131.18    8.93   0
   5  -1  45   -2.59    7.45   0
   6  -4  49   -7.27    8.08   0
   2  -4  30  191.65    7.80   0
   3  -6  27   -0.74    5.86   0
   4  -4  44  369.85   11.43   0
   4  -1  44  274.99   10.33   0
   1  -2  27    1.74    5.30   0
   3  -5  35   -6.39    6.78   0
   4  -7  29    2.41    7.01   0
   4  -3  46   88.82    8.88   0
   5  -5  46   63.54    8.32   0
   5  -4  48  113.15    9.25   0
   2  -3  35   -5.07    5.34   0
   3  -3  42  227.10    9.69   0
   3   0  39   -2.36    5.46   0
   4  -6  37    3.40    6.05   0
   6  -1  46   52.69    8.45   0
   1  -1  29   -0.08    5.50   0
   2  -2  37   -1.76    5.57   0
   2   1  31    2.30    5.52   0
   3  -4  40  424.05   11.33   0
   3   1  35    1.84    5.81   0
   1   0  28 1361.28   16.87   0
   2  -5  25    2.16    5.75   0
   5  -6  44  124.83    9.09   0
   5  -2  49   -3.04    7.72   0
   6  -7  43    6.72    7.53   0
   6  -5  50   70.47    8.40   0
   1   1  24 1713.66   19.81   0
   3  -2  44  314.63   10.68   0
   5  -7  39   -3.02    8.06   0
   5  -3  50  156.24    8.85   0
   6  -2  50  103.18    8.98   0
   1  -4  17    1.50    4.61   0
   2  -4  33   -1.90    5.21   0
   2   2  24 1687.91   21.43   0
   4  -2  48  292.04   10.94   0
   4   0  43   -1.82    7.06   0
   5   0  44  159.20   10.26   0
   6  -4  52   97.88    8.78   0
   1  -2  30  569.38   11.45   0
   2  -1  39   -8.60    6.72   0
   4  -4  47    2.62    6.66   0
   5  -1  48  206.13   10.09   0
   2  -3  38  300.95    9.69   0
   3  -5  38   94.18    7.06   0
   4  -6  40  240.00    9.94   0
   4  -3  49    7.47    8.30   0
   4  -1  47   -1.91    7.71   0
   5  -5  49    5.31    7.85   0
   5  -4  51   -6.99    7.82   0
   2  -5  28  366.85   10.35   0
   2  -2  40  757.70   13.47   0
   3  -4  43   -3.14    7.26   0
   3  -3  45   -4.44    7.41   0
   3   0  42  281.06   10.14   0
   1  -4  20  846.71   14.44   0
   1   0  31    1.43    5.59   0
   2   0  38  237.55    8.63   0
   2   1  34  576.88   12.20   0
   6  -1  49    2.91    7.86   0
   1   1  27    3.05    4.87   0
   3  -6  33    2.64    6.48   0
   3   1  38  157.77    8.46   0
   5  -6  47    6.60    7.07   0
   5  -2  52  120.95    9.62   0
   3  -2  47   -4.10    7.21   0
   5  -7  42   76.55    8.19   0
   5  -3  53   -2.89    8.41   0
   1  -2  33    5.19    5.19   0
   2   2  27    1.93    5.44   0
   4  -7  35   -0.36    6.71   0
   4  -4  50  144.43    9.73   0
   4  -2  51   10.96    8.02   0
   4   0  46  133.78    8.93   0
   6  -2  53   -4.76    8.10   0
   2  -5  31   -6.33    6.08   0
   2  -3  41   -4.31    6.62   0
   2  -1  42  327.28    9.60   0
   3  -5  41   10.43    5.94   0
   4  -6  43    0.47    7.40   0
   5  -1  51    9.15    8.11   0
   5   0  47   -5.64    7.41   0
   0  -1  19   -1.99    5.03   0
   1  -4  23    9.00    5.36   0
   1  -1  35    1.73    5.80   0
   2  -2  43    0.65    7.12   0
   4  -3  52  170.91    9.65   0
   4  -1  50  154.56    9.58   0
   5  -5  52  127.99    8.79   0
   5  -4  54   50.59    8.40   0
   1   0  34  954.08   14.38   0
   2   0  41   11.46    6.40   0
   3  -4  46   66.33    7.30   0
   3  -3  48  288.20    9.84   0
   3   0  45    4.62    6.63   0
   1   1  30  567.02   11.82   0
   2   1  37   -0.66    5.99   0
   3  -6  36  258.78    9.78   0
   5  -6  50   55.16    8.34   0
   1  -2  36  868.85   13.87   0
   3   1  41    0.01    6.18   0
   5  -7  45   -2.43    6.72   0
   0  -1  22  454.15   10.47   0
   0   0  21   -4.83    5.22   0
   1  -4  26  603.57   12.33   0
   2  -5  34  402.81   10.72   0
   3  -5  44  214.54    9.87   0
   3  -2  50  148.76    9.40   0
   5  -3  56   78.35    8.85   0
   5  -2  55    0.13    8.25   0
   2  -3  44  294.46   10.01   0
   2  -1  45   -9.51    6.76   0
   2   2  30  175.13    8.25   0
   4  -6  46   85.93    7.96   0
   4  -4  53    3.97    7.73   0
   1  -1  38  245.62    8.59   0
   2  -2  46  237.53    9.99   0
   4   0  49   -2.94    7.44   0
   5  -5  55    4.26    7.95   0
   1   0  37   -5.20    6.20   0
   3  -6  39   -1.61    6.41   0
   3  -4  49   -0.72    8.05   0
   3  -3  51    2.37    8.12   0
   4  -3  55   -2.83    7.77   0
   4  -1  53    1.74    7.46   0
   5  -4  57   -5.25    7.59   0
   5  -1  54   57.47    8.16   0
   0  -1  25   -1.71    4.67   0
   0   0  24 4806.18   30.87   0
   1  -4  29    2.25    5.78   0
   1   1  33    4.81    5.53   0
   1   2  23    1.57    4.83   0
   2   0  44  624.08   12.42   0
   3   0  48  176.75    9.67   0
   1  -2  39   -2.84    5.65   0
   2  -5  37   -1.76    6.51   0
   2   1  40  446.40   11.24   0
   4  -7  41   -4.20    6.43   0
   0  -2  23   -2.55    4.43   0
   1  -3  37    7.73    6.31   0
   3  -5  47    6.98    7.29   0
   3   1  44  250.24    9.72   0
   1  -1  41  -10.11    6.76   0
   2  -3  47   -9.33    7.42   0
   2  -1  48  304.24   10.60   0
   2   2  33    0.14    5.51   0
   4  -6  49   -9.08    7.09   0
   5  -2  58   85.55    8.53   0
   0  -1  28 1367.93   16.30   0
   0   0  27    2.07    4.62   0
   1  -4  32  845.58   13.85   0
   2  -2  49    7.14    7.61   0
   3  -6  42  136.14    8.99   0
   4  -4  56   58.89    7.98   0
   0  -2  26 1232.49   16.17   0
   1   0  40  683.99   12.41   0
   1   1  36  842.31   14.01   0
   1   2  26  503.54   12.00   0
   3  -4  52  163.99    9.54   0
   3  -3  54   70.79    8.75   0
   4   0  52  135.81    9.04   0
   2  -5  40  385.77   10.97   0
   2   0  47    7.24    6.94   0
   4  -3  58   83.50    9.02   0
   4  -1  56  105.14    9.27   0
   1  -3  40  434.53   10.86   0
   2   1  43   -0.28    6.32   0
   3   0  51    0.49    7.65   0
   5  -1  57    4.53    7.78   0
   0  -2  29   -2.97    5.71   0
   0  -1  31   -2.32    4.96   0
   0   0  30  166.46    7.26   0
   1  -4  35    4.71    6.29   0
   3  -5  50  149.62    9.08   0
   0  -3  15   -0.32    4.67   0
   0  -3  18 1256.80   17.61   0
   1  -1  44  405.60   10.44   0
   1   2  29    1.18    5.06   0
   2  -3  50  155.22    8.50   0
   2  -1  51   -8.58    7.61   0
   2   2  36  353.43   10.69   0
   3  -2  56  179.01   10.21   0
   3  -1  55   -6.35    8.08   0
   3   1  47   -8.09    6.84   0
   4  -6  52  101.30    8.03   0
   1   0  43    2.28    6.59   0
   2  -2  52  180.49    9.62   0
   3  -6  45   -5.92    7.19   0
   4  -4  59   -5.83    7.57   0
   0  -3  21   -1.78    5.00   0
   0  -1  34  954.07   14.24   0
   1  -2  45    0.66    6.86   0
   1   1  39   -0.45    5.15   0
   2  -5  43   -1.26    7.18   0
   3  -4  55   -3.20    7.61   0
   0  -2  32  614.62   11.64   0
   0   0  33   -0.43    5.07   0
   1  -3  43   -2.18    6.89   0
   2   0  50  198.72    9.40   0
   3  -3  57   -2.10    7.58   0
   4  -7  47    3.85    6.69   0
   4   0  55   -3.29    7.11   0
   0  -3  24 1047.16   15.17   0
   2   1  46  114.47    8.18   0
   3   0  54   81.21    8.61   0
   4  -3  61    9.61    6.90   0
   4  -1  59   -5.27    8.05   0
   1  -5  27    0.90    5.88   0
   1  -1  47    3.63    7.26   0
   1   2  32 1104.92   16.35   0
   2  -6  35   -3.27    6.34   0
   2  -3  53    6.98    8.08   0
   3  -5  53    7.63    7.24   0
   0  -3  27    0.49    5.45   0
   0  -1  37    0.50    6.31   0
   2  -1  54   80.65    8.94   0
   2   2  39    0.24    5.65   0
   3  -6  48  115.55    8.34   0
   3  -2  59   12.34    7.75   0
   3   1  50  140.40    9.84   0
   0  -2  35    5.21    5.25   0
   1   1  42  303.20   10.10   0
   2  -5  46   43.59    8.04   0
   2  -2  55   -0.77    7.88   0
   3  -1  58   96.30    8.98   0
   0  -3  30  296.02    9.39   0
   1  -5  30  270.44    9.50   0
   1  -4  41    5.80    6.78   0
   1  -3  46  108.54    7.61   0
   3  -4  58   96.57    8.63   0
   1   2  35   -4.40    5.48   0
   2  -6  38   84.18    7.68   0
   2   0  53   -0.62    7.39   0
   3  -3  60  106.48    8.76   0
   0  -2  38  234.40    8.97   0
   0  -1  40  734.96   13.18   0
   1  -1  50  254.14    9.79   0
   2   1  49   -1.13    6.76   0
   4   0  58   51.32    9.02   0
   0  -3  33    0.83    5.88   0
   0   0  39    3.85    5.45   0
   1  -5  33    0.38    6.09   0
   2  -3  56  168.72    9.52   0
   3  -5  56  104.95    8.37   0
   1  -4  44  264.39    9.99   0
   1  -2  51   -0.67    7.72   0
   1   1  45   -0.78    6.76   0
   2  -5  49   -1.46    7.50   0
   2  -1  57    0.13    8.18   0
   3  -6  51   -1.56    7.47   0
   1  -3  49   -5.57    6.26   0
   2  -6  41   -4.35    6.61   0
   2  -2  58   76.26    8.84   0
   3  -2  62   35.99    8.25   0
   3  -1  61   -0.33    8.21   0
   3   1  53   -0.09    7.02   0
   0  -3  36  788.26   13.70   0
   0  -2  41    8.94    6.66   0
   1  -5  36  294.74    9.79   0
   1   2  38  305.06    9.82   0
   3  -4  61   -3.13    8.17   0
   0  -1  43   -6.42    6.03   0
   0   0  42  726.31   12.66   0
   2   0  56  100.25    8.63   0
   3  -3  63   -3.35    7.60   0
   1  -1  53    0.90    6.66   0
   2   1  52  242.54    9.89   0
   0   2  25    0.21    4.02   0
   1  -5  39   -1.81    7.35   0
   1  -4  47   -4.00    7.21   0
   1   1  48  302.69   10.22   0
   2  -5  52  132.71    9.31   0
   2  -3  59  -15.59    7.65   0
   0  -4  22  658.76   13.62   0
   0  -3  39    4.61    5.66   0
   0  -2  44  671.59   13.29   0
   0   2  28 1072.09   16.17   0
   1  -3  52  250.65    9.55   0
   1  -2  54  106.22    8.08   0
   1   2  41   -2.77    5.88   0
   2  -6  44  192.23    9.31   0
   3   0  60  131.98    9.46   0
   0  -4  19    1.39    4.83   0
   0  -4  25    3.29    5.23   0
   0  -1  46   98.86    7.62   0
   0   0  45   -5.25    7.13   0
   2  -2  61    2.42    7.93   0
   0  -4  28  584.68   12.59   0
   0   2  31   -8.52    5.13   0
   3  -1  64   61.55    8.17   0
  -1   0  23    0.43    5.20   0
   1  -5  42  154.08    8.96   0
   1  -4  50  160.50    9.64   0
   1  -1  56  200.98   10.28   0
   2   0  59    2.96    7.49   0
  -1  -1  21   10.73    4.68   0
  -1  -1  24 1752.74   18.91   0
  -1  -1  27    4.50    5.63   0
  -1   0  20 1496.32   18.25   0
  -1   0  26 1196.76   15.65   0
   0  -4  31    0.96    6.02   0
   0  -2  47   -4.68    7.03   0
   1   1  51    0.27    6.98   0
   2  -6  47    1.90    7.12   0
   2   1  55    4.73    7.12   0
  -1  -1  18 1199.21   17.03   0
  -1  -1  30  588.65   11.84   0
  -1   0  29   -4.50    4.96   0
   0  -1  49   -0.14    7.56   0
   0   2  34  269.61    9.24   0
   1  -3  55  -12.18    7.28   0
   1  -2  57   -3.69    7.24   0
   1   2  44  296.16   10.13   0
   2  -5  55    2.94    7.57   0
   2  -3  62   34.87    8.34   0
   0  -4  34  235.67    9.33   0
  -1  -1  33    6.32    5.24   0
   1  -5  45   -1.47    6.79   0
   2  -2  64   92.23    8.86   0
   3   0  63    2.01    7.72   0
  -1   0  35    3.66    5.96   0
   0  -4  37    1.28    6.15   0
   0  -2  50  178.02    9.37   0
   0   2  37   -2.56    5.04   0
   1  -4  53    0.23    7.56   0
   1  -1  59   -4.18    7.94   0
  -1  -2  25    5.20    5.49   0
  -1  -1  36  871.69   14.12   0
  -1   1  25    1.39    5.50   0
  -1   1  28 1346.31   17.00   0
   0  -1  52  273.49   10.75   0
   0   1  47    1.48    6.58   0
   1   1  54   89.96    8.85   0
   2  -6  50   76.71    7.74   0
   2   0  62   53.32    8.62   0
  -1  -2  22  438.23   10.54   0
  -1   1  22  461.18   10.86   0
  -1   1  31    5.23    5.88   0
   0   0  51    5.93    6.51   0
   1  -3  58   91.56    8.11   0
   1  -2  60  151.34    9.56   0
   1   2  47   -2.18    6.60   0
   2  -5  58   74.05    7.98   0
   2   1  58   91.59    8.43   0
  -1  -2  19    2.07    5.12   0
  -1  -1  39   -6.51    6.71   0
  -1   0  38  244.99    8.63   0
   0  -4  40  416.86   11.33   0
   0   2  40  765.37   13.82   0
   1  -5  48  184.91    9.19   0
  -1   1  19    0.86    4.34   0
  -1   1  34  938.61   14.41   0
  -1   0  41   -1.55    6.49   0
   0  -2  53   -0.95    6.75   0
   0   1  50  266.84   10.27   0
   1  -4  56  112.23    9.16   0
  -1  -1  42  318.42   10.20   0
  -1   1  37   -2.09    6.31   0
   0  -4  43   -9.20    6.96   0
   0  -1  55   -3.30    8.41   0
   0   0  54   39.13    8.30   0
   0   2  43   -3.96    6.48   0
   1  -1  62   24.86    8.98   0
   1   2  50  164.12    9.12   0
   2  -6  53   -6.43    7.08   0
  -1  -2  16 1935.00   22.05   0
   1  -5  51    3.34    7.53   0
   1  -3  61   -2.99    7.88   0
   1   0  61    4.16    7.80   0
   1   1  57   16.22    7.88   0
  -1   0  44  416.48   11.10   0
  -1   1  40  741.84   13.50   0
   1  -2  63   -1.20    7.40   0
   2   0  65   -1.34    7.91   0
   2   1  61   -2.34    7.74   0
  -1  -1  45    0.84    7.27   0
   0  -4  46  138.25    8.78   0
   0  -2  56   81.73    9.25   0
   0   1  53   -7.10    7.98   0
   0   2  46  249.61    9.82   0
   1  -4  59    0.08    7.88   0
  -1  -3  29   -0.37    5.90   0
  -1  -2  43    1.01    6.08   0
  -1   0  47    5.52    7.10   0
  -1   1  43    0.66    6.86   0
   0  -1  58  137.04    9.06   0
   0   0  57   -7.90    6.79   0
   1  -1  65    6.52    7.87   0
   1   2  53    4.19    7.03   0
  -1  -3  26  629.99   12.95   0
  -1  -3  32  837.99   14.53   0
  -1  -1  48  330.92   10.73   0
   1  -5  54   52.31    8.35   0
   1  -3  64   59.64    8.18   0
   1   1  60  140.42    9.09   0
  -1  -3  23   10.21    5.83   0
  -1  -3  35    5.35    6.76   0
  -1  -2  46  122.49    8.95   0
  -1   2  27    1.44    5.30   0
  -1   2  30  554.17   11.47   0
  -1   2  33    0.51    5.75   0
   0  -4  49   -5.34    7.18   0
   0  -2  59    3.98    8.32   0
   1  -2  66   56.21    8.29   0
   1   0  64   76.27    8.86   0
  -1  -3  38  158.31    8.92   0
  -1   1  46  112.91    8.45   0
  -1   2  24 1672.50   19.81   0
   0   1  56  202.41   10.38   0
   0   2  49    0.72    7.13   0
  -1   0  50  253.43    9.54   0
  -1   2  36  842.51   13.72   0
   0  -1  61   -6.85    8.13   0
   0   0  60  150.10   10.01   0
  -1  -3  20  891.95   15.43   0
  -1  -3  41    3.29    7.18   0
  -1  -2  49    6.83    7.98   0
  -1  -1  51   -3.05    6.73   0
  -1   2  39    3.61    6.33   0
   0  -4  52  130.21    9.15   0
   0   3  30  519.42   12.52   0
   0   3  33    1.81    5.87   0
   1  -5  57   -5.41    7.56   0
  -1   1  49   -6.87    7.04   0
  -1   2  21    7.41    5.07   0
   0   3  27   -1.92    4.91   0
  -1   0  53   -4.11    7.97   0
  -1   2  42  324.43   10.32   0
   0  -5  41    6.83    6.45   0
   0  -2  62   56.84    8.47   0
   0   2  52  180.42    9.68   0
   1   1  63   -2.45    8.09   0
  -1  -3  44  263.63    9.57   0
   0   1  59   -5.62    7.70   0
   0   3  24 1462.77   21.32   0
   0   3  39   -2.91    6.55   0
  -1  -3  17   -0.84    5.12   0
  -1  -2  52  252.07   10.83   0
   0  -5  44  157.32    9.83   0
   0  -4  55    1.21    7.54   0
   0  -1  64   71.58    8.92   0
  -1  -3  47    0.84    7.48   0
  -1   2  45  -11.63    7.10   0
  -2   0  28 1091.27   15.49   0
  -2   0  31    0.75    5.35   0
  -2   0  34  268.45    8.97   0
  -1   0  56  197.68   10.35   0
   0   2  55    6.48    7.17   0
   0   3  42  230.40    9.61   0
  -2  -1  32 1121.81   15.99   0
  -2   0  37    6.71    6.09   0
  -1  -2  55    7.72    8.47   0
  -1  -1  57    0.90    8.08   0
   0  -5  47   -4.62    7.39   0
  -2  -1  29   -2.20    5.25   0
  -2  -1  35    2.75    5.80   0
  -2  -1  38  315.16   10.44   0
  -2   0  25   -3.33    5.01   0
  -2   0  40  771.09   13.42   0
  -2   1  33    9.96    6.21   0
  -1   2  48  322.42   10.82   0
   0  -4  58   59.52    8.62   0
   0   1  62   33.87    8.20   0
  -2   0  43   10.75    6.88   0
  -2   1  30  570.40   11.67   0
  -2   1  36  881.91   13.97   0
   0   3  45   -0.71    6.35   0
  -2  -1  41   -0.61    6.37   0
  -2   0  22 1910.46   20.38   0
  -2   1  27   -5.32    5.27   0
  -2   1  39   -6.78    5.94   0
  -1  -4  30  275.62   10.38   0
  -1  -4  33    2.31    6.36   0
  -1   0  59   -8.76    8.18   0
  -2  -1  44  321.99   10.55   0
  -2   0  46  258.72   10.11   0
  -2   1  42  314.06    9.74   0
  -1  -4  27    0.65    6.62   0
  -1  -4  39    2.18    6.97   0
  -1  -3  53   -9.71    7.70   0
  -1  -2  58  108.59    9.07   0
  -1  -1  60  142.68    9.94   0
  -1   2  51    6.57    7.51   0
   0   2  58   83.97    8.99   0
  -2   1  24 1808.26   19.46   0
  -1  -4  42  153.26    9.15   0
  -2  -2  33   -3.30    6.65   0
  -2  -1  47   -6.93    7.90   0
  -2   1  45    6.89    6.38   0
   0   1  65    1.30    7.66   0
  -2  -2  30  200.42    8.85   0
  -2  -2  39   -0.53    7.21   0
  -2   0  19    2.28    5.73   0
  -2   0  49   -8.88    6.96   0
  -1  -4  45   -3.12    7.43   0
  -1   0  62   31.91    8.62   0
  -1   2  54   95.21    9.20   0
  -1   3  32 1136.71   17.00   0
  -1   3  35   -3.02    5.84   0
  -1   3  38  309.03   10.45   0
  -2  -2  27   -2.87    6.13   0
  -2  -2  42  370.38   11.24   0
  -2   1  21   11.19    5.13   0
  -2   1  48  318.53   11.13   0
  -1  -3  56  122.23    9.75   0
  -1  -2  61    6.52    7.90   0
  -1  -1  63    6.89    8.06   0
  -1   3  29    7.33    5.75   0
  -1   3  41   -1.72    6.53   0
   0   2  61   -1.61    7.84   0
  -2  -1  50  153.76    8.93   0
  -2   0  52  175.85   10.18   0
  -2  -2  45    3.38    7.85   0
  -2   1  51  -11.11    8.52   0
  -1  -4  48  188.74   10.08   0
  -1   3  26  494.95   12.21   0
  -1   3  44  313.92   10.64   0
  -2  -2  24 1835.93   20.69   0
  -2  -1  53   -5.67    8.61   0
  -1  -3  59    6.18    8.38   0
  -1   2  57    8.20    7.65   0
  -2  -2  48  278.17   11.40   0
  -2   2  26 1225.46   16.45   0
  -1  -4  51    0.93    7.74   0
  -1  -2  64   71.03    9.08   0
  -1   0  65    6.06    8.63   0
  -1   3  47    2.62    7.04   0
  -2   0  16 2925.75   26.03   0
  -2   1  18 1205.67   16.89   0
  -2   1  54   90.74    9.22   0
   0   2  64   88.76    9.44   0
  -2  -2  21    0.44    5.60   0
  -2  -1  56  175.36   10.65   0
  -1   1  64   60.74    9.10   0
  -2   0  58   71.86    9.75   0
  -2   2  23   -0.97    5.84   0
  -2   2  50  182.24    9.67   0
  -1  -4  54   57.11    8.73   0
  -1   2  60  137.55    9.32   0
  -1   3  23   -1.68    4.98   0
  -1   3  50  160.48    9.13   0
  -2  -3  34  392.41   11.70   0
  -2  -3  37    4.27    6.98   0
  -2   1  57    5.05    8.68   0
  -2  -3  31   -6.17    6.72   0
  -2  -3  40  411.57   11.35   0
  -2  -3  43   -5.05    7.73   0
  -2  -1  59   11.58    8.88   0
  -2   2  53    0.75    8.51   0
  -1   3  53   -7.79    7.26   0
  -2  -3  28  389.12   11.44   0
  -2  -3  46   42.24    8.55   0
  -2   0  61   -8.07    8.39   0
  -1  -4  57    1.92    7.78   0
  -1   2  63    2.02    8.37   0
  -3   0  36  519.53   12.60   0
  -3   0  39    2.30    7.30   0
  -2  -2  18 1059.05   16.86   0
  -2   1  15    2.74    5.76   0
  -2   1  60  147.94   10.33   0
  -2   2  20 3291.27   27.39   0
  -2   3  37    3.83    6.61   0
  -2   3  40  434.06   11.91   0
  -3   0  42  238.74    9.48   0
  -3   1  35    5.89    7.39   0
  -3   1  38  326.42   10.08   0
  -3   1  41   -0.34    7.36   0
  -2  -3  49   -2.76    8.20   0
  -2  -1  14 1496.31   19.60   0
  -2  -1  62   40.45    8.98   0
  -2   0  13   -2.87    5.65   0
  -2   2  56   83.44    9.68   0
  -2   3  34  553.00   12.04   0
  -2   3  43   -1.26    6.85   0
  -1   3  56  165.78   10.91   0
  -3   0  30  567.59   12.58   0
  -3   0  45   -3.09    7.12   0
  -3   1  32 1184.80   16.06   0
  -3   1  44  319.22   11.36   0
  -2  -3  25   -1.86    6.12   0
  -2   3  31    1.49    6.22   0
  -2   3  46  126.77    9.10   0
  -3   0  48  299.38   11.21   0
  -3   1  47   -4.90    7.93   0
  -2  -3  52  120.77    9.06   0
  -2   0  64   82.17    9.57   0
  -3   1  29    3.37    5.93   0
  -2   1  63    6.33    7.69   0
  -2   2  59    1.48    8.15   0
  -2   3  28 1312.64   18.01   0
  -2   3  49   -2.51    7.13   0
  -3   0  27    4.22    5.78   0
  -3   1  50  157.84    9.28   0
  -9   6 -12  134.16    8.38   0
  -9   6   0  300.98   10.33   0
  -6   5  10  472.09   11.18   0
  -5   3  28  380.50   10.66   0
  -5   4  18  354.62   10.14   0
  -4   2  30  185.58    8.49   0
 -10   6  -1   -6.32    7.08   0
  -9   6 -15   -1.14    7.32   0
  -9   6   3    9.13    7.37   0
  -8   6 -11    1.01    7.30   0
  -8   6  -8  427.61   11.60   0
  -8   6  -2  209.80    9.44   0
  -4   4   7   -0.70    4.93   0
  -3   3  12 2546.59   22.62   0
 -10   6   2   67.54    7.90   0
  -8   6   1    4.76    7.76   0
  -6   5 -23    3.79    6.09   0
  -4   3  23   12.07    5.59   0
  -4   4 -20 1159.30   16.75   0
  -9   6 -18  155.64    8.96   0
  -9   6   6  159.12    9.55   0
  -8   6 -14   86.65    8.43   0
  -8   6   4  221.33    9.99   0
  -7   4  28  349.48   11.14   0
  -7   5  18  372.68   10.25   0
  -6   5  13    3.68    6.06   0
  -5   5  -4 1068.91   14.72   0
  -4   4  10  401.04   10.09   0
  -9   4  29   -4.82    6.56   0
  -9   5  22   74.97    8.02   0
  -9   6   9    0.86    7.98   0
  -8   4  30   89.07    9.28   0
  -8   6 -17   -0.40    7.19   0
  -8   6   7    0.58    7.53   0
  -6   3  33    0.52    6.41   0
  -6   4  26  362.18   10.78   0
  -5   5 -10  682.16   12.30   0
  -5   5  -1   -3.66    6.01   0
  -3   2  25    3.30    4.84   0
  -9   6 -21    2.18    6.21   0
  -7   6  -7   11.24    6.99   0
  -5   5   2  319.34    9.60   0
  -9   6  12  146.68    9.14   0
  -8   5  23    0.92    6.89   0
  -8   6 -20  159.90    8.47   0
  -7   6 -10  205.63    9.16   0
  -7   6  -1   -0.26    6.22   0
  -6   5  16  613.79   12.45   0
  -5   5 -13    0.03    4.70   0
  -3   3  15    1.66    4.54   0
  -7   6 -13   -0.45    6.27   0
  -7   6   2  339.97    9.74   0
  -5   5   5   -0.82    6.17   0
  -4   4 -23    0.32    4.85   0
  -4   4  13   -4.91    5.87   0
  -7   6   5   10.01    6.98   0
  -5   3  31   -1.83    5.99   0
  -5   5 -16  656.72   12.43   0
  -9   5  25    4.65    7.65   0
  -9   6  15    5.76    7.30   0
  -8   6  13    1.46    7.56   0
  -7   4  31    6.43    7.21   0
  -7   6 -16  578.42   12.40   0
  -4   3  26  617.98   12.35   0
  -7   6   8  620.03   12.56   0
  -6   4  29   -2.72    6.79   0
  -5   4  24  886.63   14.22   0
  -5   5   8  951.26   13.66   0
  -4   2  33    4.07    5.35   0
  -8   4  33   -6.38    7.99   0
  -8   5  26  166.36    9.09   0
  -7   5  24  308.20   10.47   0
  -7   6 -19    5.91    7.08   0
  -6   5  19    0.12    5.76   0
  -5   5 -19   -4.83    5.26   0
  -8   6  16  349.41   11.01   0
  -7   6  11   11.08    7.40   0
  -5   5  11    6.22    6.41   0
  -4   4  16 1475.19   16.67   0
  -2   2  17   -1.90    3.90   0
  -9   6  18   85.13    7.79   0
  -9   5  28   78.44    7.83   0
  -3   2  28 1284.26   17.72   0
  -7   6 -22  135.78    7.90   0
  -7   6  14  137.54    8.50   0
  -6   6  -9    4.35    6.33   0
  -6   6   0  845.60   13.55   0
  -5   5 -22  214.71    8.85   0
  -9   7  -7   -2.48    6.81   0
  -9   7  -1    6.48    7.26   0
  -8   5  29   -3.62    7.02   0
  -8   6  19   -1.38    6.74   0
  -7   4  34  163.24    9.31   0
  -7   5  27    4.82    7.23   0
  -5   5  14  625.77   11.52   0
  -9   7 -10  149.03    8.98   0
  -9   7   2   80.96    7.66   0
  -6   6 -12  336.27   10.04   0
  -5   3  34  408.90   11.08   0
  -5   4  27    1.54    6.39   0
  -4   3  29    1.25    5.53   0
  -9   7 -13   -7.91    6.65   0
  -9   7   5   -2.59    7.60   0
  -6   4  32  327.67   10.58   0
  -6   6   6  235.17    8.53   0
  -3   4  -4 1244.49   16.00   0
  -3   4  -1   10.25    5.43   0
  -9   7   8  187.34    9.68   0
  -8   7  -6   96.28    8.48   0
  -7   6  17    3.22    6.41   0
  -6   6 -15    3.59    6.06   0
  -3   3  21    1.94    4.37   0
  -2   3  -2  658.73   12.67   0
  -9   7 -16  140.76    8.03   0
  -8   7  -9    0.59    6.83   0
  -8   7   0  370.48   10.23   0
  -6   5  25    5.41    6.75   0
  -6   6   9    1.28    6.03   0
  -5   5  17   -5.19    5.57   0
  -3   4 -10 1048.06   15.13   0
  -3   4   2  864.38   13.08   0
  -2   3   1   23.21    5.38   0
  -9   6  24  192.84    9.02   0
  -9   7  11    7.01    7.82   0
  -8   7   3    2.49    6.69   0
  -8   7   6  156.81    9.56   0
  -7   5  30   72.40    8.06   0
  -7   6  20  237.99    9.83   0
  -6   6 -18  251.18    9.15   0
  -4   5  -3   -3.24    5.65   0
  -3   4   5    0.47    4.69   0
  -8   7 -15   -2.41    6.66   0
  -4   5  -9   10.81    5.47   0
  -4   5   0 1348.64   15.86   0
  -3   4 -13    3.67    4.62   0
  -2   3   4 2958.73   24.66   0
  -9   7  14  132.75    8.52   0
  -8   6  25   -3.84    7.34   0
  -8   7   9    0.02    6.86   0
  -5   4  30  275.70    9.61   0
  -5   5  20  632.82   11.75   0
  -4   5   3   14.09    5.26   0
  -3   4   8 2720.58   22.34   0
  -9   6  27    2.16    6.86   0
  -6   4  35   -6.72    6.93   0
  -6   6 -21   -1.60    5.73   0
  -4   5 -12 1070.77   14.95   0
  -4   5   6  846.71   13.25   0
  -8   7 -18  182.83    8.84   0
  -8   7  12  150.53    8.99   0
  -6   5  28  393.22   11.05   0
  -4   3  32  839.92   14.43   0
  -3   2  31    8.86    4.88   0
  -3   3  24 1046.54   15.11   0
  -2   3   7   -2.34    4.27   0
  -9   7  17    7.28    7.63   0
  -7   7  -8  569.87   12.39   0
  -7   7  -5    7.40    5.72   0
  -7   7   1   -1.33    7.45   0
  -3   4 -16 1922.22   20.94   0
  -3   4  11   10.01    5.76   0
  -8   7  15    9.69    7.34   0
  -7   5  33   -0.58    7.41   0
  -7   7   4  163.75    8.22   0
  -4   4  25    5.70    5.78   0
  -4   5 -15    2.74    5.14   0
  -4   5   9   -4.18    5.21   0
  -8   5  35   -5.41    6.77   0
  -8   6  28  155.31    9.14   0
  -7   7 -11   -1.39    5.88   0
  -7   7   7    3.17    7.27   0
  -6   6  18  334.89    9.83   0
  -5   6  -2  297.20    8.86   0
  -5   6   1    4.69    6.10   0
  -2   3  10 2043.02   20.49   0
  -9   7  20  115.05    8.47   0
  -7   7 -14  109.76    8.15   0
  -5   6  -8  759.20   13.00   0
  -5   6   4  700.34   12.41   0
  -4   5  12  925.68   13.81   0
  -2   2  23    1.37    4.48   0
  -8   7  18  131.71    8.72   0
  -7   6  26  253.55   10.30   0
  -7   7  10  223.54    9.80   0
  -5   4  33    4.64    6.26   0
  -5   6 -11    0.43    6.03   0
  -3   4  14  701.00   12.24   0
  -6   5  31   -0.91    6.94   0
  -6   6  21   -6.23    6.96   0
  -5   6   7   -2.86    5.65   0
  -4   5 -18  678.86   12.60   0
  -3   4 -19    4.33    5.08   0
  -7   7 -17   -0.76    6.22   0
  -7   7  13    4.94    7.36   0
  -9   8  -5    0.44    6.61   0
  -9   8  -2   76.52    7.92   0
  -8   6  31    3.56    7.67   0
  -5   5  26  220.99    8.92   0
  -5   6 -14  376.77   10.08   0
  -5   6  10  462.36   10.37   0
  -4   5  15    8.69    5.33   0
  -3   3  27   -1.59    5.14   0
  -2   3  13   12.26    4.55   0
  -9   8  -8  121.53    8.02   0
  -9   8   4  158.17    8.77   0
  -8   7  21   -0.17    6.89   0
  -7   5  36  245.09   10.27   0
  -4   4  28  631.02   12.38   0
  -9   8 -11   -1.55    6.81   0
  -9   8   7    1.69    7.15   0
  -7   6  29   -7.18    7.24   0
  -7   7 -20  121.43    8.56   0
  -7   7  16  493.95   11.19   0
  -5   6  13    6.38    6.44   0
  -4   3  35    2.23    5.57   0
  -3   4  17    1.15    4.64   0
  -6   7  -4  232.81    9.13   0
  -5   6 -17    3.10    5.56   0
  -4   5 -21    3.54    5.48   0
  -9   8  10   80.55    7.51   0
  -6   7   2  331.64    9.42   0
  -4   5  18  378.38    9.41   0
  -8   8  -4  193.36    8.98   0
  -8   8   2   84.41    8.08   0
  -7   7  19   -1.09    7.83   0
  -6   5  34  198.50    9.26   0
  -6   7   5    4.86    6.06   0
  -5   4  36  290.65   10.55   0
  -5   6  16  612.65   11.97   0
  -2   3  16 2024.49   20.19   0
  -9   8  13    2.47    6.59   0
  -8   6  34  103.55    8.73   0
  -8   8  -7    0.64    6.67   0
  -8   8   5   -1.23    7.18   0
  -6   7 -10  201.40    8.09   0
  -6   7   8  607.65   11.70   0
  -5   5  29  -10.30    5.58   0
  -3   4 -22  302.44    9.72   0
  -8   8 -10  139.89    8.21   0
  -6   6  27    3.87    7.55   0
  -5   6 -20  457.33   10.90   0
  -2   2  26 1212.36   17.40   0
  -7   6  32  229.02   10.40   0
  -7   7  22   75.57    8.26   0
  -6   7 -13   -1.22    6.40   0
  -6   7  11    6.20    6.11   0
  -4   4  31   -2.13    5.78   0
  -4   5  21    5.04    5.27   0
  -8   7  27    4.80    7.52   0
  -8   8 -13   -4.00    6.40   0
  -8   8  11    6.82    7.61   0
  -5   6  19   -7.06    5.73   0
  -3   3  30  312.51    9.59   0
  -6   7 -16  557.01   11.94   0
  -6   7  14  127.07    7.61   0
  -8   8  14  111.77    8.86   0
  -8   8 -16  136.70    8.31   0
  -6   5  37   -0.20    6.77   0
  -5   5  32  453.14   11.37   0
  -5   6  22  196.16    8.88   0
  -3   4  23    6.13    5.57   0
  -8   6  37    3.11    6.35   0
  -8   7  30   69.30    8.31   0
  -7   8  -3   -6.35    7.30   0
  -7   8   3   -5.57    7.50   0
  -6   6  30  110.94    7.62   0
  -6   7  17    0.02    6.23   0
  -4   6  -1    3.33    5.92   0
  -3   5  -2  731.69   12.01   0
  -3   5   1   -0.69    4.68   0
  -3   5   4  665.52   11.88   0
  -7   6  35    9.98    7.42   0
  -7   8  -6   86.74    7.85   0
  -7   8   6  163.46    8.92   0
  -6   7 -19   -3.66    6.13   0
  -4   6   2  591.33   11.17   0
  -4   6   5    1.05    5.84   0
  -7   8  -9   -5.40    6.86   0
  -7   8   9    7.41    7.61   0
  -4   6  -7   -3.05    5.70   0
  -3   5  -8 2070.30   20.01   0
  -3   5   7    5.50    5.01   0
  -8   8  20  114.83    8.70   0
  -6   7  20  245.73    8.95   0
  -4   4  34  228.49    8.92   0
  -4   6   8  814.32   12.70   0
  -3   5  10  719.69   12.13   0
  -7   7  28  121.57    8.19   0
  -7   8 -12  179.00    8.66   0
  -4   6 -10  320.05    9.33   0
  -4   6  11   -0.05    6.31   0
  -2   2  29   -1.09    4.97   0
  -2   3  22  426.32   10.23   0
  -2   4   0 4109.55   27.58   0
  -2   4   3    1.31    5.09   0
  -6   6  33    2.76    7.18   0
  -5   7   3   -4.61    5.61   0
  -4   5  27   -1.78    6.12   0
  -3   3  33   -1.35    5.32   0
  -3   4  26  615.62   11.79   0
  -3   5 -11    3.20    4.23   0
  -2   4  -3   -0.03    4.15   0
  -8   7  33   -0.59    6.76   0
  -7   8  15    4.34    7.15   0
  -6   7  23   -2.28    7.08   0
  -5   5  35    1.62    6.50   0
  -5   7  -6  418.13   10.61   0
  -5   7   6  144.58    7.51   0
  -3   5  13    3.33    4.99   0
  -2   4   6  801.33   12.55   0
  -8   8  23    1.34    6.55   0
  -7   6  38   56.20    8.38   0
  -7   8 -15    0.14    6.15   0
  -5   7  -9   -5.22    6.23   0
  -5   7   9    6.82    5.86   0
  -4   6 -13   -4.58    5.56   0
  -4   6  14  257.88    8.45   0
  -7   7  31   -0.12    7.69   0
  -5   6  28  374.33   10.69   0
  -3   5 -14  358.19    9.63   0
  -2   4   9   -2.38    4.52   0
  -7   8  18  129.66    8.42   0
  -5   7  12  456.31   10.48   0
  -3   5  16 1769.85   17.57   0
  -2   4  -9    1.72    3.73   0
  -5   7 -12  364.25   10.07   0
  -4   6 -16  709.88   12.72   0
  -4   6  17    3.86    5.62   0
  -2   4  12  771.05   12.56   0
  -8   9   1    5.40    7.35   0
  -5   7  15   -2.51    6.03   0
  -4   4  37    0.67    6.45   0
  -4   5  30  273.39    8.70   0
  -3   4  29    1.84    5.59   0
  -2   3  25    3.49    4.84   0
  -8   9  -5    2.19    6.86   0
  -8   9  -2   86.65    8.26   0
  -8   9   7    3.82    7.39   0
  -7   8  21    8.85    6.84   0
  -6   6  36  170.56    9.36   0
  -6   8  -5    9.72    6.98   0
  -6   8  -2  196.82    8.23   0
  -6   8   4  198.98    8.42   0
  -6   8   7    5.70    6.92   0
  -8   9  10   74.72    8.33   0
  -5   5  38  172.86    8.97   0
  -5   7 -15    4.75    5.72   0
  -5   7  18  386.04   10.43   0
  -4   6  20  597.11   11.36   0
  -3   5 -17    3.52    4.60   0
  -3   5  19    6.72    5.04   0
  -2   4 -12  717.59   13.01   0
  -2   4  15    4.92    5.28   0
  -8   9  -8  130.53    7.77   0
  -7   7  34  140.27    8.59   0
  -6   7  29    8.49    7.57   0
  -6   8  -8  404.77   10.92   0
  -5   6  31    4.47    5.64   0
  -8   9  13   -1.33    6.99   0
  -7   8  24  226.98    9.74   0
  -6   8  13    3.04    7.23   0
  -4   6 -19   -4.92    5.17   0
  -3   3  36  768.90   14.14   0
  -8   9 -11    0.61    5.91   0
  -6   8 -11   -1.97    6.41   0
  -5   7  21   -2.23    6.98   0
  -2   2  32  597.04   12.86   0
  -6   8  16  342.11   10.46   0
  -5   7 -18  138.57    7.68   0
  -4   5  33    0.37    6.22   0
  -4   6  23   -0.68    5.53   0
  -3   5  22  271.46    8.45   0
  -2   4  18 1063.39   14.45   0
  -6   6  39    2.13    7.78   0
  -3   4  32  840.47   13.98   0
  -2   4 -15   -1.25    4.20   0
  -1   3   2  689.16   12.63   0
  -6   7  32  221.24    9.79   0
  -6   8 -14   96.01    7.60   0
  -5   6  34  202.35    9.34   0
  -2   3  28 1275.10   16.75   0
  -1   3  -1   18.70    4.46   0
  -1   3   5    5.35    4.34   0
  -7   7  37    5.03    6.60   0
  -7   9  -1   -6.36    6.99   0
  -7   9   5   -5.14    7.19   0
  -6   8  19    0.79    6.93   0
  -5   7  24  287.41   10.28   0
  -3   5 -20  507.09   11.44   0
  -7   9  -4  168.90    8.49   0
  -7   9   8  193.12    9.03   0
  -1   2  21   11.95    4.63   0
  -1   3   8 3304.09   25.26   0
  -7   9  -7   -2.81    7.02   0
  -7   9  11    4.77    7.22   0
  -6   8 -17    0.61    6.03   0
  -6   8  22   93.34    8.47   0
  -4   7   4  626.22   11.89   0
  -3   6   0  975.50   13.80   0
  -3   6   3    6.81    5.93   0
  -7   8  30   63.48    7.56   0
  -4   7   7    2.23    5.76   0
  -3   6   6  431.70    9.85   0
  -1   3  11   13.16    4.47   0
  -7   9 -10  158.24    8.31   0
  -7   9  14  120.27    7.99   0
  -4   5  36  282.08    9.76   0
  -4   7  -5    5.99    5.30   0
  -4   7  10  369.37    9.63   0
  -3   6   9    1.71    5.29   0
  -6   7  35   -3.82    7.02   0
  -5   8   5    7.74    7.28   0
  -4   6  29   -1.76    6.53   0
  -4   7  13    6.19    6.58   0
  -3   6  -6  433.72    9.68   0
  -7   9  17   -0.89    6.60   0
  -6   8  25   -2.63    7.27   0
  -5   6  37    4.87    7.00   0
  -5   8  -1    0.34    5.68   0
  -4   7  -8  500.44   10.46   0
  -3   4  35    0.04    5.58   0
  -3   5  28  387.00   10.24   0
  -2   4 -18  949.67   15.74   0
  -2   4  24 1735.39   18.20   0
  -1   3  14 1632.62   18.06   0
  -7   9 -13   -2.41    5.87   0
  -5   8  -4  237.80    8.46   0
  -5   8  11    9.23    7.25   0
  -3   6  -9    3.28    5.52   0
  -3   6  15    1.88    6.24   0
  -2   3  31    1.66    4.87   0
  -2   5   2  790.62   12.24   0
  -2   5   5    6.68    4.87   0
  -7   8  33    2.63    7.36   0
  -7   9  20  127.27    8.32   0
  -5   7  30   72.42    8.05   0
  -5   8  -7   -2.03    6.23   0
  -4   7 -11    7.95    5.76   0
  -2   5  -1    3.58    4.53   0
  -2   5   8 2123.88   19.00   0
  -5   8  14  137.35    7.75   0
  -2   5  11   -1.24    5.53   0
  -1   2  24 1773.53   20.38   0
  -5   8 -10  195.04    8.55   0
  -4   6  32  328.47   10.22   0
  -4   7  19    9.77    5.84   0
  -3   6 -12  707.00   12.39   0
  -3   6  18  401.84    9.81   0
  -1   3  17    3.62    5.01   0
  -7   9  23    5.67    6.79   0
  -6   7  38   46.34    7.82   0
  -6   9   6  161.98    8.99   0
  -5   8  17    4.14    6.15   0
  -4   5  39    5.01    6.20   0
  -2   5  -7    2.26    5.32   0
  -2   5  14  386.78    9.56   0
  -6   9  -3    2.47    7.32   0
  -6   9   0  271.31    9.37   0
  -6   9   9    4.47    6.84   0
  -5   6  40  179.99    9.78   0
  -4   7 -14  340.59    9.68   0
  -3   5  31    1.47    4.97   0
  -2   4  27   -8.10    5.40   0
  -6   9  12  126.61    8.44   0
  -5   7  33   -5.75    6.93   0
  -5   8 -13    1.08    6.25   0
  -5   8  20  212.18    9.38   0
  -4   7  22  149.07    7.80   0
  -3   6  21    3.05    5.55   0
  -6   8  31   -3.32    7.26   0
  -6   9  -6   60.70    7.48   0
  -3   4  38  156.17    8.37   0
  -2   5 -10  698.89   12.45   0
  -2   5  17    7.16    4.99   0
  -6   9  15   -5.20    6.93   0
  -3   6 -15    1.90    5.19   0
  -6   9  -9    1.42    6.33   0
  -5   8  23   -0.83    7.50   0
  -4   6  35    2.69    6.49   0
  -4   7 -17    6.31    5.52   0
  -4   7  25   -2.87    6.98   0
  -3   6  24  570.25   11.59   0
  -2   3  34  564.02   11.89   0
  -6   7  41   -5.79    7.36   0
  -6   9  18   93.50    7.85   0
  -5   8 -16  359.03   10.20   0
  -2   5  20  572.42   10.79   0
  -6   8  34  108.13    8.52   0
  -5   7  36  238.99    9.76   0
  -3   5  34  412.81   10.65   0
  -2   4  30  196.22    8.18   0
  -1   2  27    0.39    4.14   0
  -6   9 -12  147.85    8.20   0
  -5   8  26  161.97    8.78   0
  -2   5 -13   -1.54    4.87   0
  -1   4   1   17.91    4.57   0
  -1   4   4 1286.86   15.31   0
  -1   4   7    8.24    4.66   0
  -3   6 -18  386.19   10.08   0
  -1   3  23   -1.00    4.00   0
  -1   4  -2  868.95   13.37   0
  -1   4  10 1116.47   14.28   0
  -4   8   6  184.33    9.18   0
  -3   7   5    7.09    6.49   0
  -6   9  24  190.52    9.28   0
  -4   6  38   80.78    7.75   0
  -4   8   9   -3.45    7.05   0
  -3   7   8  498.99   10.68   0
  -1   4  13    2.01    4.72   0
  -4   8  -3   -1.03    6.51   0
  -4   8  12  255.03    9.73   0
  -3   7  11   -3.95    5.68   0
  -6   8  37    1.96    7.11   0
  -5   7  39  -12.27    7.20   0
  -4   7  31   -9.58    6.83   0
  -4   8  15   -7.09    7.13   0
  -3   5  37    2.30    6.02   0
  -3   7  -4  627.70   12.12   0
  -3   7  14  349.82   10.20   0
  -2   4  33    0.97    5.46   0
  -1   4  16 2114.09   19.50   0
  -6   9  27   10.10    6.76   0
  -5   9   1    4.71    6.77   0
  -5   9   7    3.72    6.35   0
  -5   9  10  116.24    8.36   0
  -4   8  -6  189.85    8.71   0
  -3   6  30  172.68    7.75   0
  -2   3  37    1.13    5.28   0
  -2   5 -16 1669.54   18.97   0
  -2   6   4  840.24   13.21   0
  -5   9  -2  152.34    8.32   0
  -5   9  13   -1.58    6.89   0
  -4   8  18  174.94    9.02   0
  -3   7  -7    1.40    6.01   0
  -3   7  17    6.82    5.82   0
  -2   6   1    6.61    5.83   0
  -2   6  10  330.17    9.27   0
  -1   3  26  509.52   10.47   0
  -5   8  32  188.21    8.84   0
  -5   9  -5    3.95    7.06   0
  -4   8  -9   -1.27    6.36   0
  -2   6  13    3.72    6.32   0
  -1   2  30  564.65   12.22   0
  -1   4  -8 2586.66   22.50   0
  -1   4  19    9.31    5.55   0
  -5   9  16  306.84    9.89   0
  -4   8  21    6.07    7.42   0
  -3   7  20  404.17   10.81   0
  -4   6  41    1.27    6.67   0
  -4   7  34  163.83    8.92   0
  -3   6  33    0.96    6.60   0
  -3   7 -10  356.10    9.88   0
  -2   5  29   -2.88    6.00   0
  -2   6  -5   -0.64    5.37   0
  -2   6  16  715.12   12.49   0
  -5   9  -8  337.57   10.23   0
  -5   9  19   -4.56    6.75   0
  -4   8 -12  234.07    9.47   0
  -6  10   2   57.37    7.01   0
  -5   7  42  103.64    7.76   0
  -4   8  24  295.29   10.12   0
  -3   7  23    0.02    5.98   0
  -2   6  19   -0.25    6.04   0
  -1   4 -11   11.47    4.75   0
  -5   8  35   -7.06    7.30   0
  -5   9  22   80.66    8.08   0
  -3   5  40  395.31   10.76   0
  -2   4  36  351.49    9.90   0
  -2   5 -19    1.98    4.61   0
  -2   6  -8  803.37   13.05   0
  -1   3  29    0.39    5.15   0
  -5   9 -11    5.48    6.39   0
  -3   7 -13    3.81    5.71   0
  -4   7  37    2.32    6.64   0
  -4   8  27    8.02    6.90   0
  -3   7  26  141.00    8.55   0
  -2   5  32  677.19   12.61   0
  -2   6  22  349.70    9.87   0
  -1   5   6  359.53    9.37   0
  -5   9  25    1.67    6.38   0
  -4   8 -15    1.13    6.01   0
  -3   6  36  277.11    9.89   0
  -2   6 -11    0.08    5.32   0
  -1   4  25   -2.23    4.58   0
  -1   5   3   -5.46    4.70   0
  -1   5   9    9.18    5.08   0
  -1   5   0 1371.54   15.57   0
  -1   5  12 1099.70   14.10   0
  -5   8  38   39.78    7.05   0
  -2   6  25    8.70    6.05   0
  -1   2  33    2.89    4.48   0
  -1   5  15    1.15    5.98   0
  -5   9  28   74.35    8.03   0
  -1   4 -14  648.03   12.64   0
  -3   8   7    7.19    6.74   0
  -3   8  10  188.03    8.94   0
  -1   3  32 1140.97   15.71   0
  -1   5  18  703.78   12.06   0
  -4   7  40  135.61    8.29   0
  -4   9   2  151.47    8.44   0
  -4   9   8  342.42    9.78   0
  -4   9  11    0.20    6.86   0
  -3   8  13   -5.89    7.01   0
  -2   4  39   -2.01    5.38   0
  -2   5  35    0.84    5.72   0
  -2   6 -14  261.41    8.66   0
  -1   4  28  657.86   11.63   0
   0   3   3   -0.83    4.89   0
   0   3   6 2074.08   19.66   0
   0   3   9    1.30    4.26   0
  -4   9  -1   -2.13    7.01   0
  -4   9  14   77.13    7.81   0
  -3   6  39    2.32    6.55   0
  -3   8  -2  211.77    9.12   0
  -3   8  16  376.62   10.86   0
  -1   5  -6  817.78   12.59   0
   0   2  19   -3.21    3.65   0
   0   3  12 2050.26   19.32   0
  -4   8  33   -1.69    6.98   0
  -3   7  32  254.76    8.80   0
  -2   7   3    5.57    6.53   0
  -2   7   6  417.30    9.97   0
  -2   7   9   -5.41    6.65   0
  -1   5  21    2.36    5.18   0
   0   3   0 2659.53   22.88   0
  -5  10   6   74.96    7.97   0
  -4   9  -4  113.62    7.79   0
  -3   8  -5    2.69    6.26   0
  -2   7  12  371.85    9.63   0
   0   3  15    4.58    4.33   0
  -5  10   3    1.26    6.31   0
  -2   7  15    1.43    5.80   0
  -1   5  -9   -2.30    5.03   0
  -5  10   0  170.63    8.16   0
  -4   9  -7    1.06    6.62   0
  -3   8  22  110.08    8.26   0
  -2   6  31   -1.90    6.43   0
  -2   7  -3    2.34    6.29   0
  -2   7  18  149.38    8.33   0
  -1   4  31   -1.94    5.55   0
   0   3  -3   -0.08    4.66   0
  -5  10  -3    0.76    6.66   0
  -4   7  43   -3.95    7.26   0
  -4   8  36  115.88    8.49   0
  -4   9  23    0.14    7.21   0
  -3   7  35   -8.95    6.69   0
  -3   8  -8  417.25   10.68   0
  -2   5  38   97.47    7.25   0
  -2   6 -17   -2.62    5.05   0
   0   3  18  504.62   10.19   0
  -3   6  42  157.48    9.15   0
  -2   7  -6  141.14    7.81   0
  -2   7  21    8.35    6.55   0
  -1   3  35    0.53    4.93   0
  -1   4 -17   -1.74    4.11   0
  -4   9 -10  124.92    7.94   0
  -3   8  25   -3.62    6.47   0
  -4   9  26  123.54    8.20   0
  -3   8 -11   -1.68    5.92   0
  -1   5 -12  903.92   13.96   0
  -1   5  27   -2.59    5.18   0
  -1   6   5    4.58    5.25   0
  -1   6   8  776.75   12.24   0
  -1   6  11    9.92    6.44   0
  -2   6  34  154.92    7.72   0
  -2   7  -9    2.06    5.87   0
  -2   7  24  423.03   10.15   0
  -1   6   2  318.78    8.76   0
  -1   6  14  370.28    9.48   0
   0   4   5   -4.13    5.40   0
   0   4   8 1491.24   16.12   0
   0   4  11   -3.10    5.18   0
  -3   7  38  115.58    8.22   0
  -3   8  28  136.94    8.74   0
  -1   4  34  485.53   10.96   0
   0   2  25   -0.24    4.22   0
   0   4   2 1372.09   15.84   0
   0   4  14  318.56    8.85   0
  -4   8  39   -0.01    6.78   0
  -2   5  41    5.88    5.85   0
  -2   7  27    5.81    5.79   0
  -1   5  30  159.35    7.36   0
  -1   6  -4  679.68   12.16   0
  -1   6  20  467.85   10.72   0
   0   3  24 1495.46   16.91   0
   0   4  -1   -1.81    5.19   0
   0   4  17    1.54    5.70   0
  -2   7 -12  459.81   10.70   0
  -2   6  37    0.28    6.61   0
  -1   5 -15    2.75    4.81   0
   0   3  -9   -1.31    4.11   0
   0   4  20 1240.48   15.22   0
  -3   9   9   -0.55    6.77   0
  -3   9  12  146.64    8.45   0
  -1   6  -7    0.30    5.66   0
  -1   6  23    5.17    5.66   0
  -3   7  41    0.90    6.53   0
  -3   9   3    5.24    6.97   0
  -2   8   8  403.54   10.70   0
  -1   4  37   -1.23    5.47   0
  -1   5  33   -0.57    6.07   0
  -3   8  34  118.28    8.09   0
  -3   9   0  287.76    9.51   0
  -3   9  18  175.03    8.72   0
  -2   8  11    8.21    5.92   0
  -2   8  14   97.16    8.19   0
  -1   4 -20  771.67   14.62   0
   0   2  28 1043.50   15.42   0
   0   3  27    2.02    4.11   0
  -4  10   1   -1.54    6.07   0
  -2   8  17   10.38    6.92   0
  -3   9  -3   -6.18    6.98   0
  -3   9  21   -6.60    7.15   0
  -2   6  40  219.06    9.19   0
  -2   7  33   -4.28    6.86   0
  -2   8  -1   -5.33    6.63   0
  -1   6 -10  436.45   10.39   0
   0   4  -7   -0.24    4.79   0
   0   5   7    7.50    5.50   0
   0   5  10  687.94   11.91   0
  -2   8  20  191.94    9.11   0
   0   5   4 1113.21   14.55   0
   0   5  13    1.32    5.28   0
  -3   9  -6  149.66    7.94   0
  -2   8  -4  196.46    8.64   0
  -1   7   7    6.61    6.70   0
  -1   7  10  208.65    9.03   0
   0   4  26  703.06   11.78   0
   0   5   1   -3.59    5.55   0
   0   5  16  691.81   11.51   0
  -3   7  44  120.90    8.37   0
  -3   8  37    1.65    6.96   0
  -2   8  23   10.44    7.34   0
  -1   5 -18  363.18   10.01   0
  -1   5  36  421.11   10.25   0
  -1   7   4  244.00    8.88   0
  -1   7  13   -1.80    5.92   0
   0   3 -12 2430.24   23.81   0
   0   3  30  522.72   11.03   0
  -2   7  36  140.60    8.53   0
  -1   7  16  596.69   11.38   0
   0   5  19   -4.43    5.38   0
  -3   9  -9   -4.45    6.03   0
  -3   9  27   -0.35    6.55   0
  -2   8  -7    0.47    6.40   0
  -2   8  26  169.39    8.64   0
  -1   4  40  404.80   10.34   0
  -1   6 -13    7.70    5.37   0
  -1   7  19    8.29    7.05   0
   0   2  31   -1.34    4.32   0
   0   4 -10  419.37   10.11   0
  -1   6  32  369.65    9.61   0
  -1   7  -2  315.25    9.53   0
   0   4  29    2.61    4.71   0
   0   5  22  218.26    7.92   0
  -2   6  43   -1.22    6.06   0
  -1   7  22  140.85    8.76   0
   0   5  -5    0.86    5.35   0
  -2   8 -10  171.83    8.19   0
  -1   5  39    1.55    6.03   0
  -1   7  -5    1.26    6.34   0
  -2   7  39    8.08    7.07   0
  -1   7  25   11.05    6.86   0
   0   3  33   -5.71    4.96   0
  -1   6  35    2.23    6.90   0
   0   4  32  441.61   10.49   0
  -2   8  32  161.12    9.09   0
   0   5  -8  938.89   13.73   0
   0   6   6  369.21   10.11   0
   0   6   9   -3.70    6.53   0
   0   6  12  328.15    9.66   0
  -2   8 -13   -0.68    6.90   0
  -1   7  -8  595.23   11.90   0
   0   4 -13   -1.56    4.58   0
   0   5  28  582.43   11.17   0
   0   6  15   -3.16    5.71   0
   1   2   8 3338.45   25.12   0
   1   2  11   14.40    4.33   0
   1   3  10 1135.69   14.53   0
  -2   9  10  141.50    8.35   0
  -2   9  13   12.99    6.67   0
   0   2  34  250.92    8.91   0
   0   6  18  240.21    9.12   0
   1   2   5    2.67    4.26   0
   1   2  14 1566.36   17.28   0
   1   3   7    5.87    4.66   0
   1   3  13    4.00    4.60   0
  -2   9   4  170.03    8.42   0
  -2   9  16  145.37    8.58   0
   1   3   4 1314.89   15.37   0
   1   3  16 2051.88   18.76   0
  -2   7  42   67.98    7.34   0
  -2   8  35    4.44    7.20   0
  -2   9   1   -2.85    6.53   0
  -2   9  19   -4.76    6.85   0
  -1   5  42  204.11    8.54   0
  -1   6  38  122.11    8.15   0
  -1   7  31   -0.91    6.86   0
   0   3  36  485.21   11.35   0
   0   5  31   -7.65    6.28   0
   0   6  21    5.30    5.94   0
  -1   7 -11   -3.08    5.93   0
  -1   8  12  171.74    8.81   0
   0   4  35   -1.97    5.69   0
   0   5 -11    0.17    5.23   0
   0   6  -3   -1.81    5.97   0
   1   2   2  672.28   12.04   0
   1   3   1   11.47    4.51   0
   1   3  19    2.87    4.50   0
  -2   9  -2   77.24    7.19   0
  -2   9  22   47.53    7.75   0
  -1   8   6   95.33    7.55   0
  -1   8  15    7.12    6.35   0
   0   6  24  561.68   11.08   0
   1   4   6  374.35    9.48   0
   1   4   9   15.05    4.98   0
   1   4  12 1116.24   14.13   0
   1   4  15    1.74    5.08   0
  -2  -5  18  382.82   12.39   0
  -2  -4  20  595.18   14.02   0
  -2  -3  19   12.53    6.26   0
  -1  -3  29   -0.50    6.86   0
  -1  -2  25    2.84    6.33   0
   0  -6  36  170.09   11.09   0
   1  -2  33   -1.93    6.00   0
   2  -2  34  266.62   11.03   0
  -1  -5  31   -1.96    9.39   0
   0  -4  37    3.95    7.79   0
   1  -4  41    1.24    8.41   0
  -1  -6  29    1.98    8.89   0
  -1  -1  18 1204.23   17.89   0
   0  -5  38  173.92   10.09   0
   1  -1  26 1098.54   17.97   0
   0  -3  36  810.59   15.57   0
   1  -7  41   -2.99    9.30   0
   2  -7  45   10.49    9.51   0
  -2  -5  21   -4.17    8.16   0
  -2  -4  23   -3.18    7.80   0
  -1  -4  33   13.54    8.80   0
   0  -2  32  645.26   13.24   0
   1  -6  43    2.55    8.88   0
   2  -5  46   39.62    9.77   0
   3  -6  48  126.68   10.34   0
   3  -5  47    7.42    9.72   0
   0  -1  25    0.17    5.54   0
   2  -3  41   -0.16    8.06   0
   4  -6  49    2.07    8.54   0
  -1  -3  32  833.20   14.92   0
  -1  -2  28 1292.80   17.60   0
   0  -6  39    5.63    8.39   0
   2  -4  45    4.67    9.24   0
   2  -1  27   -0.42    5.58   0
  -1  -7  27    9.49    8.88   0
  -1  -5  34  204.33   10.22   0
  -1  -1  21   17.19    6.47   0
   0  -7  37    9.49    9.06   0
   0  -4  40  393.47   13.42   0
   3  -2  35    0.07    7.04   0
  -2  -6  19   -0.95    8.25   0
  -2  -5  24  283.79   11.97   0
  -2  -4  26  347.04   11.94   0
   0  -5  41    0.10    7.97   0
   1  -5  45    1.19    7.91   0
   1  -2  36  837.15   15.21   0
   3  -4  46   72.53    9.57   0
  -2  -2  21   -3.30    6.02   0
   1  -7  44  103.10    9.95   0
   2  -2  37   -1.11    7.09   0
   3  -3  42  236.52   11.10   0
  -1  -4  36  303.52   12.09   0
   0  -3  39    6.69    7.42   0
   1  -6  46   54.62    9.59   0
   1  -1  29    1.73    5.99   0
  -2  -6  22   98.49    9.93   0
  -1  -7  30   65.45    8.87   0
  -1  -3  35    6.06    7.73   0
  -1  -2  31    1.64    7.69   0
   0  -2  35    5.14    6.46   0
  -2  -5  27    0.34    8.96   0
  -1  -5  37   -4.68    9.59   0
   0  -6  42  123.18   10.02   0
   0  -1  28 1327.35   18.31   0
   2  -5  49    1.10    9.16   0
   3  -6  51    1.48    8.46   0
   3  -5  50  142.88   10.92   0
  -2  -3  28  369.95   11.90   0
  -2  -2  24 1783.26   20.58   0
  -1  -1  24 1788.87   20.66   0
   0  -7  40  128.74    9.59   0
   0  -4  43    0.38    9.17   0
   1  -3  43    3.80    8.45   0
   2  -6  50  103.36   10.72   0
   2  -3  44  292.56   11.77   0
  -3  -3   9    3.11    6.41   0
  -2  -1  14 1539.44   19.95   0
   0  -5  44  163.81   11.62   0
   1  -5  48  189.88   11.61   0
   2  -4  48  278.10   12.49   0
  -2  -6  25   -5.97    8.17   0
  -1  -7  33   -2.88    8.90   0
  -1  -4  39   13.95    9.23   0
   1  -2  39    0.97    7.56   0
  -3  -4  13    0.39    7.08   0
  -3  -3  12  704.25   14.84   0
  -2  -5  30   60.94    9.62   0
   0  -3  42  289.28   11.64   0
   2  -1  30  579.59   14.51   0
  -2  -1  17    7.47    5.56   0
  -1  -5  40  180.70   11.21   0
  -1  -3  38  153.47   10.43   0
  -1  -2  34  600.26   13.60   0
   0  -6  45    3.46    9.30   0
   0  -2  38  232.81   10.57   0
   1  -6  49   11.94    9.70   0
   3  -4  49   -2.02    8.46   0
  -3  -4  16  387.38   12.12   0
  -3  -3  15    1.72    6.07   0
  -2  -3  31    1.59    7.10   0
  -2  -2  27    3.72    6.49   0
  -1  -1  27    3.40    5.81   0
   1  -1  32 1726.83   21.97   0
   2  -2  40  781.68   16.02   0
   3  -3  45   -4.78    7.72   0
  -2  -6  28  145.64   10.46   0
   2  -5  52  130.19   10.57   0
  -3  -3  18  384.95   11.87   0
  -3  -2   8 2108.04   24.30   0
  -2  -5  33   -3.29    8.72   0
  -2  -1  20 1471.97   19.09   0
   0  -5  47  -15.53    9.41   0
   2  -6  53   -0.99    8.61   0
  -3  -2   5    4.78    5.59   0
  -3  -2  11    3.79    6.22   0
  -1  -4  42  153.45   11.13   0
   2  -3  47   -7.35    8.36   0
   3  -5  53   -4.69    9.46   0
  -3  -3  21    0.56    7.51   0
  -3  -2  14  371.01   11.41   0
  -2  -6  31   -5.75    8.87   0
  -2  -4  35   -8.25    7.51   0
  -2  -3  34  410.15   12.42   0
  -2  -2  30  183.54    9.17   0
  -1  -6  41    4.85    8.83   0
   1  -4  50  153.93   11.29   0
   2  -4  51    1.29    8.85   0
  -3  -4  22  156.49    9.65   0
  -1  -5  43   -2.71    8.77   0
  -1  -3  41  -11.67    7.56   0
  -1  -2  37    0.05    6.97   0
  -1  -1  30  604.34   12.87   0
   0  -6  48  113.45   10.95   0
   0  -3  45    1.47    7.56   0
   1  -2  42  300.66   10.69   0
  -3  -2  17    0.81    6.57   0
  -2  -1  23   -6.37    5.91   0
  -3  -5  20  207.78   10.69   0
  -3  -3  24  591.99   13.74   0
  -2  -5  36  224.68   10.80   0
   1  -1  35   -1.94    6.64   0
   2  -1  33    1.49    6.29   0
  -3  -4  25    2.78    8.36   0
  -3  -2  20  582.46   13.09   0
  -2  -6  34  100.93   10.01   0
  -2  -4  38   88.06   10.29   0
  -2  -2  33    8.86    7.87   0
   0  -4  49   -3.64    9.34   0
   2  -2  43    3.48    7.35   0
   3  -4  52  182.07   11.23   0
  -2  -3  37    1.34    7.67   0
  -1  -6  44   96.61    9.79   0
  -1  -4  45    2.18    8.21   0
   1  -3  49   -1.79    9.22   0
   2  -5  55   -1.95    8.89   0
  -3  -5  23    2.45    8.04   0
  -3  -3  27  -10.23    8.08   0
  -2  -1  26  503.97   11.70   0
  -1  -5  46   54.48    9.74   0
  -1  -3  44  274.29   11.67   0
  -1  -2  40  468.33   12.92   0
  -1  -1  33    0.63    7.45   0
   1  -5  54   56.53   10.07   0
  -3  -4  28  336.64   12.01   0
  -3  -2  23   11.11    7.22   0
   2  -3  50  158.09   10.88   0
   3  -5  56   83.27   10.24   0
  -3  -5  26  153.81   10.44   0
   1  -4  53   -1.25    8.95   0
   1  -2  45   -0.82    8.04   0
   2  -4  54   39.09    9.33   0
  -2  -6  37    9.16    8.74   0
  -2  -4  41   -0.90    8.93   0
  -2  -1  29   -9.98    7.33   0
   0  -1  37   -3.19    6.16   0
  -3  -4  31   -0.43    8.79   0
  -3  -3  30  163.99    9.12   0
  -2  -3  40  402.82   11.93   0
  -1  -4  48  197.87   11.44   0
  -1   0  20 1510.08   20.05   0
   0  -4  52  125.28   11.03   0
   1  -1  38  247.79   10.46   0
  -3  -5  29    1.64    8.66   0
   0  -5  53   -1.39    8.29   0
   2  -1  36  869.70   17.44   0
  -3  -1  10 1048.89   17.30   0
  -3  -1  13    3.63    6.02   0
  -1  -5  49   -0.16    9.56   0
  -1  -2  43    8.74    7.41   0
   2  -2  46  251.37   11.73   0
  -2  -1  32 1177.37   17.27   0
  -1   0  23    2.14    6.26   0
   1  -5  57    3.57    9.58   0
   1  -3  52  233.46   10.90   0
   2  -5  58   85.16    9.64   0
  -3  -4  34  154.08   10.35   0
  -3  -1   7    8.76    5.59   0
  -2  -4  44  196.53   11.35   0
  -2  -3  43    0.82    9.05   0
  -2  -2  39    9.77    7.42   0
   0  -2  47    1.18    8.43   0
   0  -1  40  689.92   13.97   0
   1  -4  56  124.26   10.94   0
   1  -2  48  291.97   11.74   0
   2  -3  53   -5.23    9.67   0
  -3  -2  32  673.55   14.06   0
  -1  -4  51  -12.78    9.22   0
  -1  -1  39   -6.53    7.70   0
   0   0  27    0.77    4.94   0
   2  -4  57    2.93    8.78   0
  -2  -5  45   -1.82    8.95   0
  -2   0  13    0.11    6.00   0
  -2   0  16 2938.83   27.33   0
  -1  -2  46  130.31    9.82   0
  -1   0  26 1130.04   16.88   0
   1  -1  41   -3.63    7.08   0
  -3  -5  35    3.69    8.15   0
  -3  -4  37    2.31    9.05   0
  -3  -1  25    4.84    7.06   0
  -2  -2  42  376.43   12.27   0
  -2  -1  35    0.02    6.78   0
  -1  -3  50  153.51    9.89   0
  -2  -4  47    5.64    8.93   0
  -2  -3  46   46.83   10.13   0
  -2   0  19    1.83    5.40   0
   2  -1  39    5.14    6.97   0
  -3  -2  35    6.84    7.09   0
  -2   0  22 1884.38   21.34   0
  -1   0  29    2.93    6.67   0
   0  -3  54   69.08    9.89   0
   0   0  30  157.68    8.63   0
   1  -3  55    3.30    9.12   0
   2  -2  49   -7.71    8.43   0
  -4  -3  17    6.65    7.08   0
  -3  -3  39    0.62    9.11   0
  -3  -1  28  677.88   13.24   0
   0  -2  50  184.29    9.88   0
   0  -1  43    0.33    6.49   0
  -3  -4  40  134.94   10.68   0
  -2  -1  38  318.29   10.55   0
  -1  -4  54   42.95    9.71   0
  -1  -1  42  307.92   10.43   0
   1  -4  59   -3.04    8.65   0
   1  -2  51    2.76    8.36   0
  -4  -3  23    6.85    7.54   0
  -3  -1  31   -3.23    7.75   0
  -2  -2  45   -0.32    8.91   0
  -2   0  25   -3.43    5.82   0
  -1  -2  49    2.11    9.15   0
   1   0  28 1241.97   19.88   0
  -4  -3  26  130.19    9.72   0
  -4  -2  13   -3.59    6.35   0
  -4  -2  16  695.23   14.56   0
  -4  -2  19    0.74    7.13   0
  -3  -2  38   76.94    8.59   0
  -2  -4  50   99.86   10.27   0
  -2  -3  49   -4.78    9.60   0
  -1  -3  53    7.10    8.62   0
  -1   0  32 1737.50   20.62   0
   0  -4  58   51.19   10.14   0
   1  -1  44  410.89   12.51   0
   2  -4  60   86.69   10.04   0
   2  -3  56  149.60   10.89   0
  -4  -4  24  287.25   11.32   0
  -4  -2  22  338.94   11.21   0
  -3  -3  42  129.15   10.40   0
  -2   0  28 1099.48   16.56   0
   0   0  33    0.97    6.31   0
  -4  -4  27   -8.47    9.10   0
  -2  -1  41   -0.54    8.51   0
   0  -1  46  105.17    9.58   0
  -4  -3  29    7.83    7.16   0
  -4  -2  25   -0.75    6.55   0
  -3  -2  41   -0.33    9.07   0
  -3  -1  34  493.32   12.19   0
   0  -3  57    7.81    9.47   0
   0  -2  53  -10.26    8.82   0
   1  -3  58   92.85   10.22   0
  -4  -2  28  397.53   12.33   0
  -2  -2  48  277.57   12.19   0
  -2   0  31    0.11    6.14   0
  -1  -4  57    4.05    8.72   0
   1   0  31   -2.21    5.58   0
  -4  -4  30   78.92    9.54   0
  -4  -3  32  244.24   11.09   0
  -3  -3  45   -9.67    8.71   0
  -2  -4  53  -10.41    9.50   0
   1  -2  54   89.40   10.12   0
  -3  -1  37  -10.11    7.25   0
  -2  -3  52  125.84   10.20   0
  -1  -3  56  115.86    9.85   0
   0   0  36  569.64   12.77   0
  -4  -4  33    0.65    7.85   0
  -4  -2  31   -3.72    6.88   0
  -3   0  18  510.27   11.85   0
  -3   0  21   -4.83    5.71   0
  -2  -1  44  317.74   10.91   0
  -2   0  34  282.08   10.50   0
   1  -1  47    5.74    7.38   0
  -4  -3  35    4.27    8.77   0
  -4  -1  15    6.17    6.55   0
  -4  -1  18  693.29   14.13   0
  -4  -1  21    3.92    6.55   0
  -3  -2  44  200.85   10.23   0
  -3   0  24 1540.04   18.73   0
   0  -1  49   -7.97    8.41   0
  -4  -1  24  640.82   13.89   0
  -3  -1  40  441.32   12.93   0
  -3   0  27   -2.12    7.21   0
  -2  -2  51    2.07    9.21   0
   1   0  34  891.95   16.67   0
  -4  -4  36   96.09    9.23   0
  -4  -1  12 1091.11   17.59   0
  -4  -1  27    4.28    7.60   0
  -3  -3  48  127.48   10.02   0
   0  -3  60  138.31   11.29   0
   0  -2  56   98.34   10.60   0
  -4  -3  38  114.10   10.09   0
  -3   0  30  547.33   12.93   0
  -2  -3  55   -0.06    9.30   0
  -2  -1  47    5.75    8.30   0
  -2   0  37    1.05    6.70   0
   0   0  39    1.44    5.82   0
   1  -3  61    5.69    8.61   0
  -3  -2  47    6.14    7.73   0
  -3   0   9    1.57    5.41   0
  -4  -4  39   -0.71    7.95   0
  -4  -1   9   11.52    6.28   0
  -3  -1  43    4.01    8.37   0
   1  -2  57    1.26    8.64   0
   1  -1  50  258.91   11.86   0
  -4  -3  41    0.02    8.39   0
  -3  -3  51    1.95    9.09   0
  -3   0  33    1.95    6.55   0
  -2   0  40  754.78   14.97   0
  -1  -1  51   12.38    7.59   0
   1   0  37   -1.27    6.42   0
   0  -1  52  283.02   11.12   0
   0   0  42  723.28   14.95   0
  -3  -2  50  161.35   10.97   0
  -2  -1  50  157.42   10.70   0
   0  -2  59   -2.82    9.37   0
  -4  -1  36  422.74   11.89   0
  -3  -1  46   94.76    9.89   0
  -1   0  44  411.82   12.14   0
   0  -3  63   -3.62    9.39   0
  -4  -3  44  125.43   10.62   0
  -2   0  43   13.44    7.96   0
  -4  -1  39   -7.41    8.73   0
  -3  -3  54   35.61    9.26   0
  -3   0  39   -2.58    8.36   0
  -1  -1  54   90.20    9.99   0
   1   0  40  710.11   15.23   0
  -4   0  20 1229.51   17.65   0
  -2  -2  57    3.53    8.35   0
   0   0  45   -3.74    7.73   0
   1  -2  60  127.43   10.34   0
   1  -1  53   -9.06    7.83   0
  -4  -3  47   -4.54    9.21   0
  -4   0  17    1.30    6.40   0
  -3  -2  53    0.96    9.41   0
  -3  -1  49   -5.89    9.04   0
  -2  -1  53   11.22    9.49   0
   0  -1  55   -6.49    8.89   0
  -5  -2  21   -2.76    7.15   0
  -5  -2  24  400.49   12.53   0
  -5  -2  27   -5.37    8.16   0
  -4  -2  46   89.57    9.75   0
  -4  -1  42  199.65   11.08   0
  -4   0  29    6.48    6.59   0
  -2   0  46  251.09   10.99   0
  -1   0  47   -2.52    7.98   0
  -5  -2  30  150.80   10.40   0
  -4   0  14  303.41   10.37   0
  -4   0  32  455.37   12.49   0
  -3   0  42  226.92    9.99   0
  -2   1  21    8.67    5.70   0
  -2   1  24 1810.90   20.72   0
  -2   1  27   -0.85    6.78   0
  -1  -2  61   -1.73    8.45   0
  -1   1  22  437.05   11.68   0
  -1   1  25    3.10    6.21   0
   0  -2  62   42.44    9.44   0
  -5  -3  31   -4.72    7.68   0
  -2   1  18 1184.91   17.83   0
  -1   1  19    0.25    5.86   0
   1   0  43   -4.79    7.47   0
  -5  -3  34  104.01   10.26   0
  -5  -2  33   -5.89    7.96   0
  -4   0  35   -1.08    8.14   0
  -2  -2  60   94.26    9.94   0
  -2   1  30  595.11   12.71   0
  -1  -1  57   -7.14    9.30   0
  -5  -1  23    5.46    7.39   0
  -5  -1  26  209.06   10.37   0
  -4  -2  49   -4.24    9.03   0
  -4  -1  45   -2.75    7.80   0
  -3  -2  56  109.47    9.45   0
  -3  -1  52  179.09   10.73   0
  -3   0  45   11.18    8.76   0
  -2   1  33   -0.65    7.32   0
   0   0  48  415.02   12.68   0
  -5  -2  36  152.02   10.01   0
  -5  -1  20  459.16   12.54   0
  -5  -1  29   -0.80    7.85   0
  -4   0  11    2.27    5.77   0
  -4   0  38  129.03    9.58   0
  -2   1  15    5.60    5.28   0
  -1   0  50  252.19   10.34   0
   0  -1  58  141.01   10.42   0
  -5  -3  37   -3.50    8.36   0
  -5  -1  17   -2.17    6.81   0
  -5  -1  32  364.14   12.09   0
  -3   1  23   -1.82    6.01   0
  -3   1  26  509.91   11.80   0
  -3   1  29   -2.23    7.38   0
  -1   1  34  861.64   15.06   0
  -5  -2  39    3.31    8.30   0
  -4  -1  48  115.66   10.37   0
  -3   1  20 1398.04   18.21   0
  -2   1  36  850.04   14.87   0
  -5  -1  35   -6.50    8.86   0
  -4  -2  52   95.85    9.99   0
  -4   0  41   -0.26    7.46   0
  -3  -1  55    3.11    9.04   0
  -3   0  48  294.22   11.10   0
  -3   1  17    0.43    6.49   0
  -3   1  32 1147.68   16.50   0
  -1   1  37   -4.27    6.84   0
   0  -2  65   -5.00    9.17   0
   1   0  46  113.42    8.63   0
  -5  -1  14  378.08   11.73   0
  -3   1  35   -8.69    7.37   0
  -2   1  39    6.72    7.71   0
  -1  -1  60  135.81   11.23   0
   0   0  51    2.04    7.76   0
   0   1  26 1075.14   18.23   0
  -5  -2  42   74.25    9.40   0
  -5  -1  38  103.89   10.22   0
  -4   0   8 1466.35   20.48   0
  -1   0  53    1.63    8.74   0
   0   1  29    4.14    5.66   0
  -4  -1  51   -1.73    9.17   0
  -4   0  44  375.82   11.74   0
  -3   1  38  316.24   10.98   0
   0   1  32 1693.04   21.91   0
  -5  -1  41   -0.74    8.68   0
  -5   0  25   -5.43    7.64   0
  -5   0  28  610.87   13.94   0
  -3   1  14 1533.38   19.73   0
   0  -1  61   -7.42    9.34   0
  -5  -2  45   -2.49    9.03   0
  -5   0  22  223.71   10.22   0
  -5   0  31    4.73    7.88   0
  -3  -1  58  101.30    9.93   0
   0   1  35   -1.80    6.33   0
  -5   0  19   -6.26    6.98   0
  -4   0  47    4.56    7.91   0
  -4   1  22  348.43   10.78   0
  -4   1  25    3.63    6.21   0
  -4   1  28  684.54   13.49   0
  -4   1  31    4.26    8.05   0
  -3   1  41    5.13    7.09   0
  -2   0  55   -0.58    7.82   0
  -4  -1  54   47.49    9.31   0
  -4   1  34  509.68   12.78   0
  -2  -1  62   33.75    9.25   0
  -1  -1  63    0.63    8.74   0
  -1   0  56  195.21   10.98   0
  -1   1  43   -0.83    7.53   0
   0   0  54   28.36    8.77   0
  -3   0  54   63.20   10.35   0
  -3   1  11   12.17    6.07   0
   0   1  38  247.15   10.25   0
  -5   0  16  667.88   14.21   0
  -4   0   5   -0.22    6.08   0
  -4   1  37  -10.55    7.21   0
  -3   1  44  323.82   11.08   0
  -5   0  40  187.47    9.71   0
  -3  -1  61   13.06    8.90   0
  -1   1  46  115.90    9.24   0
  -4  -1  57    9.60    8.84   0
  -4   1  40  443.90   12.15   0
  -2   0  58   71.76    9.63   0
   0   1  41   -3.43    6.88   0
  -5   0  13    1.96    6.45   0
  -5   0  43    4.04    9.06   0
  -3   0  57    0.22    8.89   0
  -3   1  47   -6.15    7.58   0
  -1   0  59   -9.53    9.22   0
  -4   0  53   -4.68    9.78   0
  -4   1  43    0.67    7.62   0
   0   0  57    8.65    8.52   0
  -5   0  46   72.03   10.06   0
  -4   1  13    1.16    6.10   0
  -1   1  49   -2.91    7.96   0
  -6  -1  28  140.76    9.57   0
  -6  -1  31   -2.96    8.15   0
  -4   1  46   87.21   10.15   0
  -3   1  50  146.31   10.59   0
  -2   1  51   -0.50    8.78   0
   0   1  44  407.11   12.40   0
  -6  -1  25    4.90    7.73   0
  -6  -1  34  133.65   10.18   0
  -5   1  24  615.92   13.69   0
  -5   1  33   12.03    8.51   0
  -6  -1  37   11.20    8.38   0
  -5   0  10  667.89   14.94   0
  -5   0  49    0.59    8.89   0
  -5   1  36  455.94   12.37   0
  -4   0  56   75.00   10.20   0
  -6  -1  40  176.83   11.71   0
  -5   1  21    7.25    7.29   0
  -5   1  39   -5.38    8.43   0
  -4   1  49   -9.36    9.59   0
  -1   0  62   47.15    9.85   0
  -2   1  54   88.97    9.95   0
  -1   1  52  304.82   11.96   0
   0   1  47   -4.12    7.19   0
  -6  -1  43   -3.07    9.45   0
  -6   0  27    8.18    7.74   0
  -6   0  33   11.25    8.30   0
  -5   0  52  124.64   11.01   0
  -5   1  18  723.18   14.35   0
  -5   1  42  191.77   11.46   0
  -4   1  10 1067.01   17.20   0
  -3   2  28 1335.29   17.77   0
  -3   2  31   10.33    6.42   0
  -6   0  24  555.75   13.71   0
  -6   0  36  129.68   10.36   0
  -4   0  59    4.77    9.01   0
  -3   2  25    7.55    6.22   0
  -3   2  37    8.31    7.59   0
  -2   0  64  102.72   10.77   0
  -2   2  29    2.87    5.94   0
   1   1  30  543.18   14.63   0
  -6   0  39    8.12    8.51   0
  -5   1  45    0.17    9.10   0
  -4   1  52  184.26   11.18   0
  -3   0  63    0.44    8.69   0
  -2   2  26 1227.80   17.38   0
   1   1  33    3.36    5.64   0
  -6   0  21    1.41    7.27   0
  -4   2  27    6.54    7.36   0
  -4   2  30  193.93    9.14   0
  -4   2  33   -4.27    7.06   0
  -3   2  22  428.24   11.23   0
  -3   2  40  405.92   11.68   0
  -2   1  57    0.25    9.36   0
  -2   2  23   -0.07    6.57   0
  -1   1  55    7.74    8.81   0
   0   1  50  243.15   10.84   0
  -6   0  42  124.07    9.73   0
  -5   0   7   -1.05    6.47   0
  -5   0  55    0.10    8.83   0
  -5   1  15    2.57    6.81   0
  -4   2  36  358.17   11.32   0
  -1   0  65   -0.89    9.82   0
  -6   0  18  241.43   11.12   0
  -5   1  48  135.81    9.85   0
  -4   1  55  -16.57    9.24   0
  -4   2  24 1747.71   19.92   0
  -4   2  39   11.55    7.18   0
  -3   2  19    4.99    6.73   0
  -3   2  43    5.63    7.42   0
  -2   2  41   -2.31    6.75   0
  -6   0  45    7.78    8.21   0
  -2   2  20 3452.24   29.10   0
  -6   1  32  349.99   12.55   0
  -5   1  51   -6.69    9.25   0
  -4   1   7   10.25    5.90   0
  -4   2  21    7.13    6.12   0
  -3   1  59  -10.75    8.98   0
  -2   2  44  648.45   13.89   0
  -1   2  33   -2.94    6.67   0
  -6   0  48  113.35    9.96   0
  -6   1  29    1.39    7.18   0
  -6   1  35   -5.68    7.42   0
  -6   1  38  129.83   10.73   0
  -4   2  45   -4.09    8.81   0
  -2   1  60  144.85   11.12   0
  -1   1  58  129.88   10.64   0
  -1   2  30  540.66   12.65   0
  -1   2  36  877.80   16.25   0
  -6   1  26  211.82    9.78   0
  -5   1  12 1069.30   16.86   0
  -5   2  29   -1.24    7.70   0
  -5   2  32  673.07   13.76   0
  -5   2  35   -0.52    8.29   0
  -4   1  58   92.35   10.35   0
  -3   2  16 2006.54   22.38   0
  -2   2  47   -2.03    8.32   0
  -1   2  27    4.31    5.29   0
  -1   2  39   -7.85    7.28   0
  -6   1  23    3.65    7.49   0
  -5   1  54   54.39   10.35   0
  -5   2  38   89.99    8.79   0
  -4   2  18 1014.01   15.84   0
  -5   2  41   -4.25    9.13   0
  -4   2  48  279.53   11.21   0
  -2   2  17    3.28    5.51   0
  -1   2  24 1773.41   22.03   0
  -1   2  42  320.42   11.50   0
  -6   1  20  456.31   12.85   0
  -3   1  62   38.59   10.07   0
  -2   2  50  183.95   10.96   0
  -6   1  47   -8.38    9.36   0
  -5   2  44  223.40   10.50   0
  -4   1  61   -3.55    8.99   0
  -4   2  51    1.38    9.67   0
  -2   1  63   -3.97    9.36   0
  -5   1  57   -0.61    8.90   0
  -4   2  15   -5.49    5.79   0
  -1   1  61    0.86    8.95   0
  -1   2  45   -5.41    7.61   0
  -5   1   9   10.02    6.65   0
  -5   2  47   -9.42    8.07   0
  -3   2  13   12.11    5.79   0
  -6   1  17   -8.97    7.24   0
  -6   1  50   80.47   10.20   0
  -4   2  54   43.84   10.14   0
  -3   2  55    5.71    9.19   0
  -2   2  53   -4.78    8.91   0
  -7   0  32  218.54   10.64   0
  -7   0  35    5.26    7.85   0
  -7   0  38   27.28    9.56   0
  -5   2  50  150.92   11.18   0
  -2   2  14  329.24   10.70   0
  -1   2  48  313.74   11.84   0
  -6   2  37   -8.92    9.39   0
  -5   2  17    0.05    5.99   0
  -4   1   4 1241.70   20.02   0
  -6   2  28  401.77   11.72   0
  -6   2  40  247.42   10.67   0
  -6   1  14  369.05   12.02   0
  -6   2  25   -6.50    7.76   0
  -6   2  43   -5.72    8.48   0
  -5   2  53   -2.58    9.02   0
  -3   2  58  107.91   10.38   0
  -2   2  56  100.80   10.37   0
  -1   2  51    1.92    8.04   0
  -7   1  34  161.90   10.89   0
  -6   2  46   96.88   10.31   0
  -4   3  35   -2.49    8.55   0
  -7   1  31   -1.63    8.56   0
  -7   1  37   -0.57    9.17   0
  -7   1  40  169.46   11.20   0
  -6   2  22  361.69   11.95   0
  -5   2  14  354.61   11.34   0
  -4   3  29   -4.90    7.95   0
  -4   3  32  851.58   15.26   0
  -4   3  38  166.76    9.61   0
  -3   3  33   -3.40    7.71   0
  -3   3  36  770.34   15.12   0
   0   2  34  260.36   11.05   0
  -7   1  28  133.00   10.07   0
  -7   1  43    3.27    9.21   0
  -6   2  49    8.05    9.06   0
  -5   2  56  101.11   10.60   0
  -4   3  41   -1.05    7.79   0
  -3   2  10 1943.53   22.65   0
  -3   3  30  306.75   11.20   0
   0   2  31   -2.13    5.99   0
   0   2  37   -0.07    6.38   0
  -5   1   6  345.79   11.45   0
  -5   3  34  413.65   12.59   0
  -5   3  37   -3.96    8.53   0
  -4   2  60   88.83   10.74   0
  -4   3  26  659.47   13.51   0
  -4   3  44  269.06   11.12   0
  -3   2  61  -11.62    9.82   0
  -2   2  59   -4.38    8.72   0
  -1   2  54   91.56    9.26   0
  -7   1  25    2.91    8.30   0
  -6   2  19    2.17    7.71   0
  -5   3  31    2.88    7.48   0
  -3   3  27   -3.40    6.47   0
  -3   3  45    5.47    8.57   0
  -2   2  11   -3.66    6.34   0
   0   2  28 1051.40   18.70   0
  -6   1  11    4.54    7.61   0
  -6   2  52  112.02   10.66   0
  -5   3  28  388.25   11.58   0
  -5   3  43   -8.47    8.15   0
  -4   3  23   10.21    7.20   0
  -4   3  47    0.60    7.90   0
  -7   1  22  143.27    9.96   0
  -5   3  25   -2.96    8.24   0
  -5   3  46   44.79   10.23   0
  -3   3  24 1083.80   16.42   0
  -3   3  48  182.67   11.61   0
  -5   2  11   -0.72    6.76   0
  -2   3  34  577.05   13.02   0
  -2   3  37   -3.12    6.45   0
  -2   3  40  460.26   13.06   0
  -7   2  33   -4.53    9.12   0
  -7   2  36  152.17   10.38   0
  -7   2  39    4.12    8.94   0
  -6   2  16  713.29   14.78   0
  -5   3  49   -5.20    9.52   0
  -3   2  64   55.23    9.45   0
  -2   2  62   61.71    9.21   0
  -2   3  31    3.94    6.16   0
  -2   3  43    2.13    8.22   0
   0   2  25   -3.21    5.75   0
  -7   2  30  169.44   11.07   0
  -7   2  42   64.69   10.70   0
  -6   3  33    5.80    8.98   0
  -6   3  36  276.20   11.03   0
  -6   3  39    2.66    9.91   0
  -5   3  22  277.00   10.08   0
  -4   3  20  871.60   14.91   0
  -3   3  21   -2.61    7.26   0
  -3   3  51    4.07    9.51   0
  -7   2  27  -11.48    8.51   0
  -7   2  45    2.26    8.77   0
  -6   3  30  194.39    9.77   0
  -6   3  42  147.03    9.81   0
  -5   3  52  119.92   10.83   0
  -2   3  46  125.28    9.66   0
  -6   3  45   15.28   10.11   0
  -3   2   7    3.90    6.66   0
  -7   2  24  410.73   13.05   0
  -6   3  48  139.18   10.70   0
  -5   3  19    1.91    7.79   0
  -4   3  56  113.45   10.72   0
  -3   3  54   61.94   10.60   0
  -2   3  49    5.91    8.39   0
  -5   3  55   -0.43    9.13   0
  -4   3  17   -8.43    6.31   0
  -3   3  18 1328.09   18.55   0
  -6   2  13    8.40    7.42   0
  -6   3  51   -8.35    9.57   0
  -5   1   3   -3.97    6.20   0
  -7   2  21   -4.61    7.85   0
  -5   2   8 2159.77   24.17   0
  -4   2   6  773.56   15.49   0
  -3   3  57    4.75    8.67   0
  -2   3  22  445.87   12.35   0
  -2   3  52  254.33   11.60   0
  -6   3  21    2.63    7.62   0
  -4   3  59   -7.71    9.89   0
  -7   3  35    1.80    9.24   0
  -5   3  16 1685.16   20.16   0
  -7   3  32  259.24   12.35   0
  -7   3  44  123.15   10.64   0
  -4   3  14  688.00   13.72   0
  -2   3  55   -1.75    8.87   0
  -1   3  35   -2.64    7.19   0
  -1   3  38  318.65   11.53   0
  -7   2  18  150.37    9.77   0
  -7   3  29   10.63    8.77   0
  -7   3  47    5.37    9.97   0
  -3   3  15   -1.03    6.01   0
  -3   3  60  136.66   11.45   0
  -1   3  41    2.96    7.44   0
  -6   2  10  326.31   11.43   0
  -6   3  18  413.95   11.78   0
  -5   4  33    7.15    8.74   0
  -5   4  36  309.65   11.30   0
  -5   4  39    6.44    8.11   0
  -5   4  42  175.33   11.37   0
  -4   4  37    5.27    7.51   0
  -4   4  40  421.46   13.47   0
  -2   3  19    1.13    6.65   0
  -1   3  32 1099.37   18.12   0
  -1   3  44  307.83   11.74   0
  -7   3  26  143.12   10.87   0
  -5   4  30  277.39   11.74   0
  -5   4  45    1.65    9.65   0
  -4   4  31   -3.56    8.05   0
  -8   2  32  159.06   11.50   0
  -8   2  35  -11.31    9.04   0
  -5   4  48  205.85   12.10   0
  -1   3  29   -1.32    6.62   0
  -1   3  47   -2.49    7.60   0
  -7   3  23    7.33    8.53   0
  -6   4  32  349.14   12.89   0
  -6   4  35   -2.48    8.16   0
  -6   4  41    3.63    8.40   0
  -6   4  44  216.77   12.52   0
  -5   4  27    7.22    8.61   0
  -4   4  28  609.77   13.67   0
  -4   4  49    8.88    9.83   0
  -3   3  63  -11.13    8.47   0
  -8   2  29   -5.70    8.10   0
  -7   2  15    1.60    7.56   0
  -6   3  15   -6.07    7.59   0
  -5   2   5    4.00    6.87   0
  -5   4  51    4.24    9.16   0
  -3   4  38  143.37   10.43   0
  -3   4  41    3.50    8.83   0
  -6   4  29   -1.13    7.87   0
  -6   4  47    6.77    9.20   0
  -5   4  24  885.34   16.27   0
  -4   3  11   10.68    6.23   0
  -4   4  25   -2.07    7.79   0
  -4   4  52  127.45   12.00   0
  -3   4  44  261.35   11.73   0
  -1   3  26  529.35   13.30   0
  -6   4  50   82.71   10.77   0
  -4   2   3   -3.80    6.04   0
  -3   3  12 2552.29   25.28   0
  -3   4  47   -0.69    9.34   0
  -2   3  16 2028.86   23.27   0
  -7   3  20  410.84   12.24   0
  -6   4  26  356.76   11.72   0
  -8   3  37    2.19    8.75   0
  -8   3  40  118.42    9.98   0
  -7   4  37    4.25    9.31   0
  -7   4  40  145.20   10.95   0
  -6   2   7   -1.53    6.72   0
  -6   4  53   -2.20    9.24   0
  -4   4  22  691.51   14.74   0
  -4   4  55   -2.22    9.47   0
  -3   4  50  152.73   11.40   0
  -5   4  21    1.41    7.20   0
  -4  -5  10  114.53    9.54   0
  -1  -2  37    1.63    5.80   0
  -4  -4  18  169.64    9.85   0
  -4  -3  17    6.03    7.31   0
  -4  -2   4  842.62   14.59   0
  -4  -2   7    3.11    6.26   0
  -4  -2  10  346.37   10.33   0
   0  -1  31    3.97    5.81   0
   1  -2  39    1.36    5.97   0
  -4  -5  13    1.25    7.75   0
  -4  -2   1   -2.73    5.75   0
  -3  -5  32  176.85   10.13   0
  -3  -1  19    7.38    5.39   0
  -1  -4  45    7.70    8.15   0
   1  -5  51  -10.48    7.98   0
  -4  -5  16  304.38   10.89   0
  -4  -2  -2  547.10   12.95   0
  -4  -2  13   -5.05    5.60   0
  -3  -4  34  160.04    9.90   0
  -3  -2  29    1.29    7.27   0
  -2  -4  41    4.62    8.14   0
   0  -3  45   -0.45    6.82   0
  -4  -4  21   -5.58    6.61   0
  -3  -3  33  -11.25    6.80   0
   0  -5  50   69.08    8.66   0
  -4  -5  19    3.86    7.38   0
  -3  -1  22  352.43    9.72   0
  -2  -5  42  134.18    8.94   0
  -2  -3  40  417.94   11.17   0
  -2  -2  36  343.91   10.11   0
  -2  -1  29   -5.32    5.58   0
  -1  -3  44  266.85   10.70   0
   0  -4  49   -4.84    8.15   0
   1  -3  46  110.56    8.51   0
  -4  -4  24  297.40   11.27   0
  -3  -5  35    4.33    7.85   0
  -1  -2  40  454.49   11.75   0
   0  -2  41    7.87    6.61   0
  -4  -5  22   62.61    8.70   0
  -2   0  13   -0.15    4.68   0
  -1  -1  33    0.73    6.14   0
  -3  -4  37    7.42    7.40   0
  -3  -3  36  267.39   10.86   0
  -3  -2  32  676.79   12.79   0
  -3  -1  25    8.43    6.72   0
  -4  -3  26  132.55    8.21   0
  -4  -2  22  333.29   10.64   0
  -2  -4  44  185.14    9.74   0
  -1  -5  49   -0.43    7.79   0
  -1  -4  48  178.13   10.16   0
   0  -1  34  921.24   15.61   0
  -4  -5  25    1.23    7.41   0
  -3  -5  38   37.99    8.85   0
  -2  -5  45   -4.30    7.86   0
  -2  -2  39   -1.27    6.99   0
  -2  -1  32 1195.01   16.27   0
  -2   0  16 2919.52   25.29   0
  -4  -1   9   12.14    5.97   0
   0  -3  48  194.60    9.69   0
   1  -2  42  299.01   10.77   0
  -4  -3  29    4.69    7.99   0
  -4  -2  25   -7.56    6.24   0
  -4  -1   6  344.82    9.53   0
  -4  -1  12 1087.37   15.23   0
  -3  -2  35    4.02    7.38   0
  -3  -1  28  686.99   12.85   0
  -2   0  19    0.65    5.68   0
  -1  -3  47   -3.37    7.74   0
   0  -5  53   -5.60    7.37   0
  -4  -4  30   91.94    8.58   0
  -4  -1   3    1.15    5.43   0
  -3  -4  40  143.36    9.00   0
  -3  -3  39    6.75    8.59   0
  -1  -2  43    1.57    6.72   0
  -1  -1  36  890.76   14.93   0
   0  -4  52  130.26    9.86   0
  -4  -1  18  702.67   12.96   0
   0  -2  44  640.33   13.82   0
  -4  -3  32  257.88   10.91   0
  -4  -1   0 1339.65   18.27   0
  -2  -1  35    4.74    6.34   0
  -4  -4  33   -9.26    7.77   0
  -4  -1  21   -0.20    6.77   0
  -3  -1  31    2.38    6.62   0
  -3   0   9    1.55    4.52   0
  -3   0  12 1966.29   20.61   0
  -2   0  22 1915.66   20.04   0
  -1  -4  51  -11.00    8.52   0
  -3  -4  43    1.01    8.21   0
  -3  -2  38   85.86    8.90   0
  -3   0  15   -2.49    5.75   0
   0  -1  37    2.14    5.69   0
  -5  -3   7   -3.05    6.73   0
  -5  -3  10  189.00    9.41   0
  -5  -3  13    0.75    6.68   0
  -4  -2  31   -3.12    7.25   0
  -3  -3  42  146.31   10.00   0
  -5  -4  14   66.35    8.83   0
  -5  -3  16  372.71   11.45   0
  -4  -3  35   -6.99    7.84   0
  -4  -1  -3    7.89    5.65   0
  -4  -1  24  639.45   12.10   0
  -3   0   3    2.02    5.07   0
  -3   0  18  508.08   10.88   0
  -2   0  25    2.65    5.95   0
   0  -3  51   -3.44    7.60   0
   1  -1  35    1.47    5.53   0
  -5  -4  17    1.20    7.62   0
  -5  -3  19   -4.19    7.15   0
  -4  -4  36  107.02    9.29   0
  -1  -2  46  113.51    8.79   0
  -1  -1  39    4.27    6.46   0
  -5  -2   9   -2.50    6.50   0
  -5  -2  12  362.97   10.91   0
  -5  -2  15    6.76    6.98   0
  -3   0  21    3.69    5.17   0
  -2  -4  50   97.00    9.07   0
  -5  -4  20  110.56    8.75   0
  -5  -3  22   92.83    8.97   0
  -5  -2   6  417.14   11.22   0
  -5  -2  18  161.78    9.04   0
  -4  -2  34  158.25    8.53   0
  -4  -1  27    1.59    6.16   0
  -3  -2  41   -4.71    6.77   0
  -2  -2  45    1.51    7.54   0
   0  -4  55   -1.42    7.87   0
   0  -2  47   -1.07    6.59   0
  -5  -4  23   -2.56    7.73   0
  -5  -2   3   -3.61    6.68   0
  -4  -3  38  124.51    9.35   0
  -3  -4  46   46.17    7.85   0
  -3  -3  45    6.84    7.80   0
  -2  -3  49    3.54    7.32   0
  -1  -4  54   44.74    8.22   0
  -5  -3  25    0.69    7.72   0
  -5  -2  21    2.78    6.18   0
  -4  -4  39    4.50    7.66   0
  -3   0  24 1586.31   17.64   0
   0  -1  40  743.66   14.35   0
  -5  -4  26  114.61    9.01   0
  -4  -1  30  168.18    8.32   0
  -3  -1  37   -2.93    6.24   0
  -1   0  29   -1.57    4.67   0
  -5  -3  28  148.04    9.18   0
  -4  -2  37   -0.59    6.94   0
  -2  -1  41    4.49    6.62   0
  -1  -3  53    9.01    8.14   0
  -1  -1  42  320.15   10.64   0
  -4  -3  41   -9.12    8.33   0
  -3  -2  44  217.38   10.42   0
  -3   0  27   -3.50    5.54   0
  -1  -2  49   -4.38    7.30   0
  -5  -4  29   -1.24    7.16   0
  -5  -1  11    4.60    6.43   0
  -5  -1  14  390.85   10.67   0
  -4  -1  33    4.38    7.54   0
  -4   0  14  297.31    8.93   0
  -4   0  17   -0.80    6.05   0
  -3  -3  48  123.73    9.52   0
  -2  -2  48  278.65   10.75   0
  -2   0  31    1.24    5.22   0
  -5  -1   8  778.88   13.90   0
  -5  -1  17   -3.25    5.82   0
  -4   0   8 1484.06   17.65   0
  -4   0  20 1259.29   16.21   0
  -3  -1  40  450.16   11.87   0
  -2  -3  52  125.70    9.26   0
   0   0  27    1.88    5.01   0
  -5  -2  30  180.34    9.49   0
  -4  -2  40  247.30    9.55   0
  -3   0  30  562.13   11.37   0
  -1   0  32 1626.07   19.36   0
   0  -2  50  172.70    9.42   0
  -5  -1   5    7.23    5.77   0
  -4   0   5    0.86    5.06   0
  -4   0  23   -3.80    5.70   0
  -5  -3  34  120.40    9.10   0
  -4  -3  44  123.55    9.10   0
  -4  -1  36  436.56   11.17   0
  -2  -1  44  309.90   10.63   0
   0  -1  43   -1.09    5.87   0
  -5  -2  33   -3.75    7.75   0
  -5  -1  26  217.02    9.67   0
  -4   0  26  696.46   12.91   0
  -1  -1  45   -5.41    6.26   0
  -4  -2  43    5.35    8.00   0
  -4   0   2 1323.12   17.86   0
  -3   0  33   -6.74    5.80   0
  -2  -2  51   10.75    7.74   0
  -1  -3  56  107.31    8.87   0
  -1  -2  52  246.48   10.60   0
  -5  -3  37    5.14    7.49   0
  -5  -1  29   -1.79    7.19   0
  -1   0  35    5.80    5.54   0
   0   0  30  159.23    8.10   0
  -5  -2  36  141.24    9.34   0
  -4  -1  39   -1.86    6.65   0
  -4   0  29    0.03    5.98   0
  -2  -3  55   -0.05    8.19   0
  -4  -3  47   -7.03    7.05   0
  -3   0  36  512.49   11.81   0
  -2   0  37   -1.58    5.45   0
  -5  -1  32  354.33   10.34   0
  -4   0  32  465.37   11.49   0
  -3  -2  50  145.20    8.96   0
  -2  -1  47    3.14    6.35   0
  -6  -3  18  150.93    9.18   0
  -5  -3  40  131.92    8.92   0
  -4  -2  46   79.71    8.54   0
  -6  -3  21   11.62    6.75   0
  -6  -2  14   98.88    8.00   0
  -6  -2  17   -3.99    7.12   0
  -6  -2  20  182.79    9.46   0
  -5  -2  39    5.48    7.45   0
  -5   0  13   -0.51    6.21   0
  -4  -1  42  206.18    9.20   0
  -4   0  -1    0.03    4.66   0
  -3  -3  54   30.53    7.76   0
  -1  -1  48  303.22   10.73   0
   0  -1  46  105.74    8.03   0
  -6  -3  24  147.86    8.57   0
  -6  -2  11    0.50    6.82   0
  -6  -2  23   -4.97    7.19   0
  -5  -1  35    0.99    6.75   0
  -5   0  10  707.01   13.09   0
  -5   0  22  234.63    8.64   0
  -2  -2  54   35.26    7.81   0
  -1   0  38  248.38    9.33   0
   0   0  33   -3.28    5.20   0
  -6  -3  27   -6.52    8.01   0
  -5   0  25    5.20    7.02   0
  -4   0  35    0.60    6.32   0
  -3   0  39    1.77    5.99   0
  -2   0  40  748.99   13.34   0
  -1  -2  55    8.10    7.58   0
  -6  -2  26  162.16    9.03   0
  -5  -2  42   78.88    8.95   0
  -5   0   7   -0.61    5.73   0
  -3  -2  53   -7.79    8.03   0
  -2  -3  58   81.85    8.70   0
  -6  -2  29  -10.07    7.64   0
  -6  -1  16  565.11   12.73   0
  -6  -1  19    7.41    7.40   0
  -5  -1  38  120.21    8.53   0
  -5   0  28  580.93   11.88   0
  -4  -2  49   -1.11    7.31   0
  -4  -1  45    0.37    7.81   0
  -3   1  17    2.80    5.87   0
  -2  -1  50  163.20    9.60   0
  -6  -1  13   -2.59    6.70   0
  -6  -1  22  130.84    9.11   0
  -4   0  38  128.58    8.91   0
  -3  -1  49    7.68    6.46   0
  -3   1  14 1596.89   18.32   0
  -3   1  20 1418.31   16.99   0
  -6  -2  32  164.11    9.78   0
  -6  -1  10  206.67    8.96   0
  -6  -1  25   -6.19    7.32   0
  -5   0   4 1089.05   16.03   0
  -5   0  31    6.92    6.33   0
  -3   1  11    8.91    5.52   0
  -3   1  23   -3.90    5.24   0
  -2   1  15    1.88    4.56   0
  -2   1  18 1164.28   16.26   0
  -2   1  21   16.87    5.73   0
  -5  -2  45   -6.41    8.05   0
  -5  -1  41    0.86    7.82   0
  -4   0  -4 1419.53   20.28   0
  -3   1  26  530.76   11.60   0
  -2   0  43    0.86    5.84   0
  -1  -1  51    2.95    6.65   0
  -1   0  41   -3.58    6.13   0
   0   0  36  569.38   12.95   0
  -6  -1   7    1.95    6.12   0
  -5   0  34  267.19   10.28   0
  -4   1  16 2016.86   20.03   0
  -4   1  19    8.59    5.38   0
  -4   1  22  346.71   10.07   0
  -2  -2  57    2.38    7.94   0
  -2   1  24 1743.15   19.16   0
  -4  -1  48  118.47    8.87   0
  -4   0  41   -7.59    6.58   0
  -4   1  13    6.70    5.83   0
  -3   1   8 3222.58   27.00   0
  -3   1  29   -3.39    6.39   0
  -4   1  25    5.36    5.51   0
  -3  -2  56   75.40    8.10   0
  -3  -1  52  185.90   10.06   0
  -2  -1  53    4.19    7.65   0
  -5  -1  44  146.91    9.42   0
  -5   0   1   -0.60    5.09   0
  -4   1  28  704.63   12.93   0
  -3   0  45    0.30    6.35   0
  -6  -1  34  162.03    8.98   0
  -6   0  18  253.88    9.94   0
  -6   0  21    5.57    7.22   0
  -3   1  32 1156.57   15.48   0
  -2   0  46  250.05    9.76   0
  -6   0  15   -2.26    6.69   0
  -4   1  31    0.21    6.59   0
  -1   0  44  395.51   11.31   0
   0   0  39   -2.43    5.86   0
  -6  -1  37  -11.00    7.54   0
  -6   0  12  336.30   10.11   0
  -5   0  40  180.20    9.86   0
  -5  -1  47   -0.54    8.10   0
  -5   1  18  678.47   12.17   0
  -5   1  21    5.55    5.86   0
  -5   1  24  621.44   12.33   0
  -3   1  35   -0.77    5.58   0
  -2  -2  60   75.69    8.31   0
  -2   1  33    4.75    5.83   0
  -6   0   9   -1.65    6.24   0
  -6   0  30  138.08    8.07   0
  -5   1  27    8.43    6.76   0
  -4   1  34  503.54   11.22   0
  -3  -1  55   -4.62    7.38   0
  -3   0  48  273.87    9.89   0
  -6  -1  40  182.88    9.80   0
  -5   1  12 1052.27   15.24   0
  -2  -1  56  155.77    9.47   0
  -5   0  43   -7.72    7.21   0
  -5   1  30  167.86    8.22   0
  -4   1  37  -12.05    7.35   0
  -2   0  49    2.30    7.08   0
  -1   1  25   -1.00    4.99   0
  -7  -2  22   36.26    7.44   0
  -6   0   6  357.09   10.61   0
  -5  -1  50   79.78    8.83   0
  -5   1   9   11.85    5.84   0
  -4  -1  54   28.40    8.33   0
  -4   1   4 1291.13   17.41   0
  -2   1  36  873.53   14.01   0
  -1   0  47   -0.09    6.33   0
  -6  -1  43   -0.56    7.62   0
  -6   0  36  142.67    8.60   0
  -5   1  33    7.56    6.47   0
  -1   1  28 1272.64   17.69   0
  -7  -1  18  176.42    9.49   0
  -7  -1  21    2.85    6.73   0
  -7  -1  24  181.27    9.76   0
  -3   0  51   -0.75    7.86   0
  -7  -1  15   -0.33    7.13   0
  -7  -1  27   -3.58    7.26   0
  -6   0  39   -3.36    7.83   0
  -5   0  46   76.70    7.89   0
  -4   1  40  427.34   10.95   0
  -3  -1  58   88.72    9.16   0
  -3   1  41   -2.81    6.85   0
  -7  -1  30   39.83    7.55   0
  -6   0   3    4.04    6.42   0
  -5   1   6  345.57   10.01   0
  -2   1  39    1.50    5.33   0
  -1   1  31    1.75    4.40   0
  -6   1  17    2.35    6.65   0
  -6   1  26  190.38    9.11   0
  -4  -1  57   -3.19    7.97   0
  -2  -1  59   -2.84    7.22   0
  -2   0  52  169.33    9.59   0
  -7  -1  33   -6.28    7.03   0
  -6   1  29   -1.53    7.08   0
  -5   1  39    8.64    6.66   0
  -4   1   1   15.93    5.10   0
  -1   0  50  246.65   10.70   0
  -7   0  20  133.99    8.91   0
  -7   0  23   -5.10    7.21   0
  -6   1  14  393.84   10.14   0
  -5   0  49    0.07    7.34   0
  -3   0  54   83.53    8.89   0
  -3   1  44  291.79   10.24   0
  -1   1  34  894.52   15.06   0
  -7   0  17   -3.82    6.80   0
  -7   0  26  184.14    9.35   0
  -6   1  32  344.92   10.36   0
  -4   0  53    3.45    8.40   0
  -2   1  42  334.35   10.38   0
  -6   0  45    8.30    8.26   0
  -6   1  11    8.89    6.34   0
  -6   1  35   -4.60    7.74   0
  -5   1   3    0.39    5.54   0
  -5   1  42  214.22    9.12   0
  -7   0  32  227.78   10.15   0
  -3  -1  61   -0.43    6.98   0
  -3   1  47   -1.72    7.29   0
  -2   0  55   -1.41    7.50   0
  -1   1  37    0.27    5.45   0
  -7   0  11   -6.45    6.77   0
  -6   1   8  761.65   13.73   0
  -6   1  38  109.24    8.45   0
  -5   1  45    6.12    7.77   0
  -4   2  21   -1.93    5.44   0
  -4   2  24 1831.89   18.77   0
  -4   2  27   -0.90    6.69   0
  -6   0  48  142.41    9.22   0
  -5   2  23    2.53    6.85   0
  -4   0  56   68.45    8.20   0
  -4   2  18 1015.46   14.44   0
  -4   2  30  197.05    8.72   0
  -3   0  57    3.61    7.91   0
  -2   1  45    1.58    5.86   0
  -7   0  38   36.56    7.23   0
  -6   1  41    2.61    8.04   0
  -5   2  20  584.11   11.53   0
  -5   2  26  625.80   12.00   0
  -5   2  29    1.81    7.25   0
  -4   1  49    8.01    7.62   0
  -4   2  15   -5.71    5.94   0
  -3   2  22  453.34   10.96   0
  -3   2  25    8.95    6.11   0
  -7   1  22  144.74    9.05   0
  -7   1  25    3.43    7.86   0
  -5   2  17    3.95    6.27   0
  -4   2  33    0.92    5.94   0
  -3   2  19    0.04    5.42   0
  -3   2  28 1325.62   16.49   0
  -1   1  40  698.03   13.88   0
  -7   1  19    5.38    7.12   0
  -6   1   5   -1.65    6.04   0
  -5   1   0 1366.03   18.29   0
  -5   1  48  127.25    9.48   0
  -5   2  32  675.16   12.59   0
  -4   1  -2  803.76   15.04   0
  -3   1  50  154.09    9.45   0
  -7   1  16  583.27   12.72   0
  -6   1  44  129.08    9.43   0
  -5   2  14  358.35    9.55   0
  -5   2  35   10.11    7.21   0
  -4   2  12  761.19   13.10   0
  -4   2  36  344.55   10.01   0
  -3   2  16 2072.34   20.83   0
  -7   1  34  157.74    9.29   0
  -2   1  48  306.10   10.71   0
  -7   1  13    2.45    6.84   0
  -6   2  22  341.75    9.79   0
  -6   2  25    7.66    6.18   0
  -6   2  28  413.94   10.82   0
  -5   2  38   89.28    8.44   0
  -4   0  59    5.56    7.94   0
  -4   1  52  162.85   10.19   0
  -7   1  37    7.08    7.93   0
  -6   1  47    2.45    7.68   0
  -6   2  31    5.11    6.46   0
  -3   0  60   97.44    8.48   0
  -3   2  13   11.10    5.88   0
  -3   2  37   -2.15    6.49   0
  -1   1  43    2.49    5.62   0
  -4   2   9    5.28    5.42   0
  -3   1  53   -1.33    7.66   0
  -7   1  10  190.70    8.99   0
  -7   1  40  203.79    9.82   0
  -6   1   2  315.38   10.01   0
  -5   2  41   12.06    6.63   0
  -8   0  22   66.08    7.41   0
  -8   0  25   -3.87    7.33   0
  -6   2  13   -2.53    5.98   0
  -6   2  37   -4.80    6.81   0
  -3   2  40  436.73   11.22   0
  -2   1  51   -1.07    6.62   0
  -7   1  43    9.13    8.04   0
  -6   1  50   65.69    8.55   0
  -5   1  54   41.09    8.25   0
  -5   2   8 2086.32   20.47   0
  -4   1  55    1.90    8.30   0
  -2   2  29   -3.63    5.52   0
  -6   2  40  230.27    9.46   0
  -5   1  -3    7.46    5.53   0
  -5   2  44  202.82    9.22   0
  -4   2  45    2.96    7.58   0
  -3   2  10 1978.92   20.72   0
  -2   2  20 3411.25   27.12   0
  -2   2  32  642.31   12.74   0
  -1   1  46  111.35    7.89   0
  -7   1   7    3.36    6.31   0
  -6   2  10  330.56   10.06   0
  -3   2  43   -6.12    7.05   0
  -7   2  21  -12.97    7.48   0
  -7   2  30  163.61    8.74   0
  -7   2  33    0.51    8.09   0
  -6   2  43    0.34    7.87   0
  -3   1  56  181.53    9.62   0
  -2   2  35    0.88    5.96   0
   0   1  32 1592.99   21.61   0
  -8   1  24  195.25    9.75   0
  -8   1  27   -6.31    7.14   0
  -8   1  30   42.91    8.30   0
  -7   2  18  157.34    8.64   0
  -2   2  17    1.13    4.56   0
  -8   1  21   -0.30    7.16   0
  -8   1  33   -6.65    7.72   0
  -7   2  36  153.53    9.76   0
  -6   1  -1    2.64    5.69   0
  -5   1  57    6.55    7.24   0
  -5   2   5    3.25    5.66   0
  -4   1  58  102.75    8.67   0
  -4   2  48  270.92   10.73   0
  -8   1  18  177.85    9.67   0
  -7   2  15   -1.57    7.02   0
  -6   2   7    0.52    6.06   0
  -6   2  46   97.38    8.86   0
  -3   2  46  133.82    8.37   0
  -2   2  38  227.83    9.28   0
   0   1  35   -1.92    5.01   0
  -7   2  39    3.50    7.50   0
  -3   2   7    3.54    4.57   0
  -8   1  15   -5.17    7.25   0
  -5   2  50  149.81    9.35   0
  -2   2  14  324.13    9.56   0
  -7   2  12  391.08   11.14   0
  -7   2  42   64.73    8.28   0
  -6   2  49   -2.69    7.99   0
  -5   3  25    1.82    7.03   0
  -5   3  28  373.55   10.97   0
  -5   3  31    1.10    7.49   0
  -4   2  51   -3.11    7.54   0
  -3   1  59    6.44    7.12   0
  -2   2  41   -6.59    6.30   0
  -6   3  27    9.84    7.62   0
  -5   3  22  279.60    9.15   0
  -5   3  34  422.19   11.62   0
  -3   2  49   -0.39    7.26   0
  -7   2  45   -8.29    7.81   0
  -6   3  24  582.00   11.98   0
  -6   3  30  175.72    8.71   0
  -6   3  33    1.95    7.97   0
  -5   3  19    1.76    6.36   0
  -4   1  61    6.29    7.18   0
  -4   3  26  657.98   12.79   0
  -4   3  29   -5.26    6.82   0
  -8   2  26  179.42    9.41   0
  -8   2  29    2.26    7.36   0
  -7   2   9   -5.32    6.47   0
  -6   2   4  835.75   14.39   0
  -6   3  21   -0.54    6.26   0
  -5   2   2  785.88   13.57   0
  -5   2  53    2.86    7.46   0
  -5   3  37   -0.25    6.43   0
  -4   3  23   11.80    5.72   0
  -4   3  32  876.22   14.50   0
  -2   2  44  633.74   13.49   0
  -8   2  23    1.52    7.79   0
  -8   2  32  159.33    8.79   0
  -6   3  18  409.10   10.78   0
  -6   3  36  287.77    9.94   0
  -5   3  16 1705.65   18.66   0
  -4   2  54   25.21    8.77   0
  -4   3  20  909.63   14.36   0
  -8   2  20  165.08    9.43   0
  -6   3  39    6.56    7.98   0
  -5   3  40  407.11   11.03   0
  -8   2  17    3.05    8.38   0
  -7   3  26  141.22    8.93   0
  -7   3  29    7.47    7.69   0
  -7   3  32  271.07   10.87   0
  -3   2   4 2908.16   26.11   0
  -3   2  52  249.31   10.55   0
  -7   3  35  -11.71    7.91   0
  -6   3  42  152.05    9.63   0
  -5   2  56   92.67    8.65   0
  -5   3  13    5.38    6.34   0
  -4   3  17    4.82    5.20   0
  -2   2  47   -2.00    7.29   0
  -7   2   6  415.72   11.18   0
  -4   3  41   -1.76    7.35   0
  -8   2  14   97.02    8.00   0
  -7   3  38  113.10    8.88   0
  -4   2  57   -1.49    8.72   0
  -7   3  17    3.81    6.13   0
  -7   3  41   -7.22    7.85   0
  -6   2   1    3.30    5.71   0
  -6   3  45    4.51    7.24   0
  -4   2   0 4021.26   30.81   0
  -4   3  14  682.74   12.19   0
  -4   3  44  270.55   10.71   0
  -3   3  27   -1.62    5.29   0
  -3   3  33    2.59    6.43   0
  -1   2  27    0.39    4.24   0
  -1   2  30  561.44   12.37   0
  -1   2  33    1.44    5.35   0
  -5   2  -1   -0.49    5.49   0
  -5   3  10  697.65   12.87   0
  -3   2  55    2.23    7.72   0
  -3   3  24 1051.91   14.97   0
  -8   2  11    2.64    6.98   0
  -7   3  14  365.90   10.87   0
  -7   3  44  127.62    9.48   0
  -6   3  48  128.88    9.60   0
  -3   3  21    5.12    5.86   0
  -3   3  36  779.21   13.62   0
  -2   2  50  181.25    9.30   0
  -1   2  36  851.12   15.12   0
  -5   3  49   -2.89    8.27   0
  -3   3  39    4.46    6.74   0
  -1   2  21   10.37    5.22   0
  -8   3  25    3.83    7.87   0
  -8   3  34  126.41    9.08   0
  -7   2   3    7.13    6.05   0
  -6   3   9   -3.59    5.58   0
  -4   3  11   19.38    5.42   0
  -4   3  47    7.97    6.56   0
  -8   3  22  100.09    9.01   0
  -8   3  37  -11.54    7.72   0
  -7   3  47    5.09    7.82   0
  -4   2  60   91.44    8.33   0
  -3   3  18 1294.22   16.44   0
  -1   2  39   -0.80    5.60   0
  -8   3  19    4.09    7.65   0
  -8   3  40  126.63    9.60   0
  -7   3  11   -1.22    5.63   0
  -5   3  52  123.29   10.08   0
  -3   3  42  292.43   10.26   0
  -9   2  22   38.32    7.64   0
  -4   3  50  164.16    9.54   0
  -8   3  16  390.66   11.61   0
  -6   2  -2  564.54   12.75   0
  -3   3  15    3.74    5.76   0
  -1   2  42  297.65   10.20   0
  -6   3   6  441.08   10.60   0
  -6   3  54   49.48    8.00   0
  -6   4  26  357.37   11.02   0
  -6   4  29    2.76    6.70   0
  -4   3   8 2670.00   23.45   0
  -3   3  45    4.90    7.07   0
  -7   3   8  536.64   12.31   0
  -6   4  23   -0.00    7.12   0
  -6   4  35    3.30    7.06   0
  -5   3  55   -2.21    8.38   0
  -5   4  30  292.52   10.57   0
  -8   3  13    2.27    7.37   0
  -7   4  25   11.26    7.76   0
  -7   4  28  354.45   10.62   0
  -7   4  31  -11.51    6.94   0
  -7   4  34  171.78    9.80   0
  -6   4  38   80.51    8.03   0
  -5   4  27    3.82    6.33   0
  -5   4  33    5.78    6.46   0
  -4   2  -3    1.51    4.88   0
  -4   3  53   -0.35    7.37   0
  -7   4  22  172.66    9.61   0
  -7   4  37    4.41    8.55   0
  -6   4  20  610.98   12.32   0
  -6   4  41   10.47    8.03   0
  -5   2  -4  661.65   13.88   0
  -5   4  24  891.31   14.09   0
  -3   3  48  179.64    9.69   0
  -5   3   4  694.19   12.70   0
  -5   4  21   -4.87    7.14   0
  -3   3  12 2566.62   22.95   0
  -9   3  24  149.95    9.39   0
  -9   3  27    5.03    7.68   0
  -6   4  17   -0.96    7.14   0
  -6   4  44  196.65   10.33   0
  -2   3  28 1280.14   17.29   0
  -2   3  31    9.02    5.97   0
  -2   3  34  585.32   12.66   0
  -8   3  10  186.43    9.39   0
  -8   4  30   85.17    8.70   0
  -7   3   5    8.47    6.48   0
  -7   4  43   -9.59    7.80   0
  -6   3   3   -3.65    6.18   0
  -5   3  58   79.64    8.38   0
  -2   3  25    3.41    5.55   0
  -9   3  21   -1.08    7.01   0
  -8   4  36  113.23    9.25   0
  -4   3   5    1.73    4.87   0
  -4   3  56  123.68    9.60   0
  -4   4  28  604.21   12.63   0
  -3   3  51   -0.66    7.31   0
  -2   3  37    0.29    6.30   0
  -8   4  39    2.79    7.82   0
  -7   4  46   58.07    8.56   0
  -6   4  14  272.37    9.21   0
  -5   4  45    2.14    6.65   0
  -4   4  25    0.39    6.40   0
  -4   4  37   -0.32    7.25   0
  -9   3  18  167.35    8.95   0
  -8   4  21    2.52    8.09   0
  -5   4  15   10.97    6.76   0
  -2   3  40  435.98   11.70   0
  -6   4  50   89.63    9.49   0
  -5   4  48  201.52   10.48   0
  -4   4  22  690.63   12.50   0
  -4   4  40  408.84   12.03   0
  -3   3   9   -1.54    4.79   0
  -8   3   7    1.84    7.03   0
  -8   4  18  185.04    9.92   0
  -7   4  13    1.44    6.14   0
  -5   3   1    8.78    5.70   0
  -2   3  43    1.33    6.23   0
  -7   3   2  223.53    9.99   0
  -4   4  19   -5.08    5.69   0
  -4   4  43    1.25    7.43   0
  -8   4  15   -0.20    7.98   0
  -6   3   0 1023.91   16.01   0
  -5   4  12  907.92   14.00   0
  -9   4  29   11.47    7.29   0
  -6   4  53    1.90    8.16   0
  -5   4  51    3.95    7.42   0
  -4   4  46  133.52    9.55   0
  -2   3  46  117.83    8.82   0
  -9   4  26  131.65    9.48   0
  -4   4  16 1476.28   17.23   0
  -9   4  23    7.91    7.42   0
  -2   3  16 1940.39   20.55   0
  -8   4  12  226.42   10.19   0
  -7   5  30   72.34    9.31   0
  -7   5  33   -6.12    8.74   0
  -5   2  -7    6.39    5.07   0
  -5   4   9    1.47    6.46   0
  -5   4  54   60.81    8.84   0
  -4   4  49    0.85    7.64   0
  -3   3   6  518.53   11.78   0
  -9   4  20  105.04    9.07   0
  -7   5  27   -7.63    8.59   0
  -6   5  28  417.28   11.82   0
  -6   5  31    2.49    8.03   0
  -6   5  34  207.37   10.40   0
  -3   4  29    5.48    6.49   0
  -3   4  32  829.71   14.51   0
  -3   4  35    0.42    6.73   0
  -7   4   7   -0.45    7.00   0
  -7   5  24  308.67   11.27   0
  -7   5  39   -7.80    8.61   0
  -6   5  25    7.49    7.50   0
  -6   5  37    7.59    7.07   0
  -4   4  13    1.86    5.51   0
  -3   4  38  162.75    8.90   0
  -9   4  17   -3.32    7.23   0
  -8   5  29    1.46    7.91   0
  -8   5  32  194.51   10.32   0
  -8   5  35   14.28    8.25   0
  -7   3  -1    3.50    6.76   0
  -7   5  21    1.71    7.80   0
  -7   5  42  118.37    9.31   0
  -6   5  40  187.04   10.44   0
  -8   4   9   -1.96    7.23   0
  -8   5  26  171.08    9.61   0
  -8   5  38   43.67    8.17   0
  -6   5  22  191.03    8.92   0
  -5   3  -2  778.17   13.84   0
  -5   4  57   -8.17    8.61   0
  -4   4  52  130.44    9.04   0
  -3   4  23    1.85    5.58   0
  -3   4  41    0.57    6.88   0
  -2   3  13   19.49    4.99   0
  -7   5  45   -4.42    7.86   0
  -6   3  -3    1.95    5.74   0
  -6   4   5   -2.12    5.52   0
  -5   5  29    0.95    7.81   0
  -5   5  32  486.31   12.12   0
  -9   4  14   66.22    7.85   0
  -7   5  18  370.42   10.67   0
  -6   5  19   -1.20    6.43   0
  -6   5  46   49.46    9.45   0
  -5   4   6  834.92   14.05   0
  -5   5  26  214.32    9.60   0
  -3   4  20  904.75   14.42   0
  -3   4  44  254.71   10.27   0
  -5   5  41    3.66    8.37   0
  -4   4  10  395.82    9.96   0
  -7   4   4  618.65   12.65   0
  -6   5  16  605.63   12.87   0
  -5   5  23    1.90    6.32   0
  -4   4  55   -9.03    7.05   0
   0   2  31    0.05    5.10   0
  -9   5  28   74.19    8.86   0
  -8   4   6  190.63    9.47   0
  -8   5  17    6.97    8.14   0
  -6   5  49   -2.14    7.87   0
  -3   3   3    4.26    4.72   0
  -3   4  47   -1.81    6.69   0
   0   2  28 1012.17   18.03   0
  -9   4  11   -5.21    6.92   0
  -9   5  25    5.42    8.12   0
  -5   5  20  660.27   12.62   0
  -3   4  17   -3.34    5.25   0
  -9   5  22   69.79    8.33   0
  -6   4   2  573.41   12.52   0
  -2   3  10 1990.20   21.07   0
  -1   3  32 1112.01   17.60   0
  -8   5  14  149.83    9.61   0
  -6   5  13   -0.36    6.38   0
  -5   5  17   -1.71    6.69   0
  -5   5  47   -3.57    7.49   0
  -4   4   7    1.20    6.09   0
  -1   3  29    5.73    5.55   0
  -1   3  35    0.39    5.98   0
  -9   5  19    8.62    7.39   0
  -4   5  33    5.41    7.23   0
  -7   4   1    2.55    6.52   0
  -5   3  -5   10.07    5.60   0
  -5   5  50   68.97    9.21   0
  -4   5  27    1.93    7.12   0
  -4   5  36  303.10   10.88   0
  -3   4  14  677.80   12.40   0
  -1   3  26  488.68   11.87   0
   2   6  17   -0.27    7.32   0
   4   0  10  403.49    9.48   0
   7  -1  -7    6.37    5.79   0
   7   0  -2  226.00    9.25   0
   8   0 -16  147.97    8.34   0
   1   3  19    9.20    5.18   0
   1   5  20  457.06   11.60   0
   4   5  14   67.91    8.19   0
   5  -2  -5    5.98    4.74   0
   6   1   8  594.48   12.02   0
   8   0 -13   -0.43    6.27   0
   8   1 -11    0.10    6.30   0
   2   3  20  563.23   11.30   0
   3   6  15    5.10    7.54   0
   6  -1   1    3.10    5.80   0
   6   0   6  232.39    8.68   0
   7   2   2   72.70    8.06   0
   1   2  17    5.54    4.04   0
   1   4  21    0.38    5.63   0
   4   1  15    8.07    5.52   0
   4   2  17    2.93    5.67   0
   5   1  13    7.95    6.25   0
   5   4  13   -5.12    7.98   0
   6  -2  -7   -2.23    5.08   0
   6   2  10  174.43    9.41   0
   6   3   9   -0.21    7.26   0
   7  -1  -4  243.88    9.23   0
   3   4  20  391.94   10.93   0
   5   2  15    7.50    7.19   0
   7   0   1   -3.06    7.11   0
   8   0 -10  151.42    8.53   0
   8   1  -8  127.13    7.93   0
   2   5  21    2.25    6.90   0
   3   0  12 2639.74   22.40   0
   3   2  19    1.66    5.29   0
   3   5  19   -1.06    7.32   0
   4   4  18  177.26    9.58   0
   5   0  11    0.40    5.26   0
   2   1  16 2029.93   20.18   0
   2   4  22  321.51    9.45   0
   3   1  17   -2.40    5.72   0
   3   3  21    0.73    5.48   0
   4  -2  -3   -2.69    4.61   0
   6   1  11   -1.31    6.85   0
   7   2   5   -4.82    7.04   0
   8   0  -7   -4.33    6.67   0
   8   1  -5    5.12    7.00   0
   2   6  20  171.14    9.50   0
   4   0  13   -2.13    4.92   0
   4   5  17    5.05    7.14   0
   6  -1   4  747.93   12.78   0
   7  -1  -1   -1.83    6.18   0
   2   0  11   -3.44    4.97   0
   3   6  18  170.48   10.14   0
   5  -2  -2  803.14   13.56   0
   5   3  17    1.58    7.27   0
   6  -2  -4  869.33   14.01   0
   6   2  13   -1.92    7.69   0
   6   3  12  137.06    8.89   0
   7   0   4  167.21    7.91   0
   7   1   6  176.59    8.43   0
   5   1  16  602.64   12.06   0
   7  -2  -9    2.88    5.54   0
   8  -1  -9    4.20    7.28   0
   8   0  -4  178.56    9.01   0
   1   5  23    4.15    5.98   0
   4  -1   8 2655.02   22.18   0
   4   1  18  376.83    9.78   0
   4   2  20  595.28   11.51   0
   8   1  -2   88.53    8.11   0
   5   2  18  365.49    9.90   0
   7   2   8  188.51    9.25   0
   1   3  22  326.18    9.60   0
   2   3  23    1.83    5.00   0
   3  -1   7    0.13    4.08   0
   3   4  23   -0.51    5.98   0
   3   5  22  112.53    8.44   0
   4   4  21    2.74    7.54   0
   5   0  14  633.57   11.79   0
   6   1  14  138.91    8.28   0
   7  -1   2  331.28    9.89   0
   5  -1   9    6.02    5.67   0
   6  -2  -1   -0.89    5.43   0
   7  -2  -6  412.25   10.61   0
   7   1   9   -3.46    6.43   0
   8  -1  -6   89.17    7.71   0
   8   0  -1   -3.84    6.63   0
   2   5  24  397.92   11.46   0
   4   5  20  107.82    8.41   0
   6   0  12  402.26    9.89   0
   6   2  16  355.89   10.99   0
   6   3  15    4.28    7.00   0
   8   1   1   -9.82    6.46   0
   1   4  24  603.98   12.42   0
   3   0  15   -0.77    4.73   0
   3   3  24  555.16   12.20   0
   5  -2   1    0.34    4.83   0
   5   3  20  192.07    9.61   0
   2   4  25   -1.11    6.31   0
   3   1  20  905.46   13.71   0
   3   6  21   -3.49    7.86   0
   4  -2   0 4153.68   30.83   0
   4   0  16 1455.12   16.22   0
   7   2  11    2.30    7.38   0
   8  -1  -3    1.43    6.50   0
   5   1  19   -4.13    5.88   0
   7  -2  -3    0.42    5.77   0
   7  -1   5    3.54    6.65   0
   8   0   2   99.21    7.72   0
   2   1  19    1.20    5.11   0
   4   2  23    5.08    6.84   0
   5   2  21   -2.79    6.28   0
   7   1  12  150.68    8.84   0
   8   1   4  155.65    8.19   0
   0   4  23    0.02    5.14   0
   4  -1  11   13.71    4.76   0
   4   1  21    3.55    5.59   0
   6  -2   2  595.23   11.83   0
   6   1  17   -3.72    6.23   0
   4   4  24  307.52   10.32   0
   5   0  17    5.26    5.60   0
   6   0  15    5.84    5.78   0
   6   3  18   85.65    7.65   0
   8  -1   0  363.93   10.36   0
   0   3  21    3.42    4.32   0
   2   0  14  346.37    9.64   0
   3   4  26  140.73    8.03   0
   3   5  25    4.61    7.27   0
   4   3  25    8.29    6.98   0
   6   2  19    8.09    6.71   0
   7   2  14  119.06    8.35   0
   8   0   5    3.36    6.70   0
   2   3  26  571.88   12.04   0
   4   5  23    2.77    7.52   0
   5  -2   4  701.58   12.55   0
   5   4  22   76.43    8.04   0
   7  -2   0  583.16   11.95   0
   7  -1   8  615.56   12.13   0
   2   2  24 1723.85   18.55   0
   3  -1  10 2016.66   20.21   0
   7   1  15    3.28    7.65   0
   2   5  27   -2.87    6.86   0
   3   3  27   -0.10    6.73   0
   4  -2   3   -0.03    4.50   0
   4   0  19   -0.62    6.06   0
   5   1  22  210.24    8.85   0
   7   0  13    2.88    6.11   0
   8  -1   3    1.89    6.61   0
   1   3  25   -2.28    5.31   0
   3   0  18 1332.84   16.08   0
   5   2  24  314.33   10.63   0
   6  -2   5   -3.96    5.70   0
   6   1  20  230.16    9.72   0
   8  -2  -5   -0.84    6.11   0
   2   4  28  388.10   10.84   0
   3   1  23   10.29    5.16   0
   4   2  26  348.65   10.23   0
   6  -1  13    7.55    5.42   0
   6   0  18  358.99   10.22   0
   6   3  21   -3.54    7.25   0
   7  -2   3    4.39    5.97   0
   8   0   8  229.16    9.11   0
   1   4  27    3.65    5.40   0
   4  -1  14  683.05   11.98   0
   4   1  24  899.27   13.88   0
   5   0  20  657.09   12.30   0
   6   2  22   99.41    8.51   0
   7  -1  11    1.30    6.65   0
   7   2  17   -0.38    6.56   0
   4   4  27    0.92    6.96   0
   5  -1  15   12.77    5.16   0
   8  -2  -2  212.03    8.71   0
   8  -1   6  184.12    9.08   0
   3   4  29    5.31    7.18   0
   3   5  28  149.57    9.90   0
   4   3  28  352.21   10.65   0
   4   5  26  130.05    9.44   0
   5  -2   7    3.23    4.54   0
   5   4  25   -5.35    7.17   0
   7   0  16  494.61   11.67   0
   7   1  18  118.79    8.59   0
   1   2  23    2.54    4.06   0
   2   1  22  445.58    9.96   0
   5   1  25    0.47    7.10   0
   6  -2   8  802.13   12.82   0
   7  -2   6  142.96    7.69   0
   8   1  13   -0.60    6.81   0
   9  -1  -2   85.13    7.14   0
   5   2  27    4.40    7.11   0
   6  -1  16  638.71   11.61   0
   6   1  23   -3.46    6.38   0
   6   3  24  183.89    9.06   0
   7   2  20  134.98    8.52   0
   8  -2   1    7.79    6.32   0
   2   0  17    0.56    4.91   0
   2   3  29    4.77    6.09   0
   3  -1  13   18.24    4.71   0
   3   3  30  175.73    8.94   0
   4  -2   6  780.39   13.06   0
   6   0  21   -0.12    6.14   0
   8  -1   9   -7.39    7.08   0
   2   2  27   -1.57    4.70   0
   5   0  23    0.04    6.58   0
   6   2  25    6.05    6.98   0
   9  -1   1   -2.39    6.79   0
   3   0  21    0.17    4.71   0
   3   1  26  630.42   11.97   0
   4  -1  17    2.25    5.51   0
   4   1  27    5.03    6.76   0
   5  -1  18  381.38    9.40   0
   7   1  21    0.70    7.62   0
   2   4  31   -2.67    6.26   0
   4   4  30   74.23    8.60   0
   5  -2  10  705.52   12.02   0
   5   3  29   -4.61    7.55   0
   5   4  28   80.42    8.40   0
   6  -3  -3    0.54    5.27   0
   7  -2   9    2.55    5.99   0
   8  -2   4  212.02    9.13   0
   0   3  24 1458.22   19.08   0
   4   3  31    9.62    7.45   0
   4   5  29    4.08    7.92   0
   6  -2  11   -3.48    5.04   0
   8  -1  12  161.38    8.87   0
   3   5  31    3.10    7.94   0
   6  -1  19   -4.90    6.24   0
   6   1  26  231.23    9.73   0
   7   2  23   13.07    6.99   0
   9  -1   4  163.07    8.45   0
   1   4  30  151.15    7.92   0
   3   4  32  248.78   10.06   0
   5   1  28  390.74   10.10   0
   6   0  24  437.94   11.36   0
   7  -3  -2  201.07    8.30   0
   5   2  30   63.73    6.96   0
   6   2  28  144.99    8.78   0
   8  -2   7   -0.44    6.66   0
   3   2  31    0.50    6.34   0
   4   0  25    3.81    5.42   0
   6  -3   0 1034.43   15.55   0
   7  -2  12  471.56   10.92   0
   7   0  22   76.40    7.22   0
   7   1  24  238.19    9.52   0
   9  -1   7   -3.20    6.32   0
   1   2  26  489.32   11.05   0
   3  -1  16 2071.35   19.93   0
   5  -1  21    1.74    5.50   0
   5   0  26  205.07    8.29   0
   6  -2  14  270.46    9.10   0
   8  -1  15   10.13    6.88   0
   3   3  33    1.06    5.87   0
   4  -1  20  896.99   13.48   0
   7  -3   1    5.66    5.56   0
   2   0  20 3505.08   25.69   0
   2   2  30  178.06    7.83   0
   3   0  24 1050.96   14.02   0
   3   1  29   -5.02    5.99   0
   4   1  30  274.66    8.95   0
   4   4  33   -0.06    7.11   0
   5   3  32  167.42    9.14   0
   6  -1  22  200.00    8.92   0
   7  -1  20  225.61    9.40   0
   8  -2  10  180.07    8.60   0
   5  -3  -1    1.67    5.01   0
   6  -3   3    4.78    5.26   0
   6   1  29   -2.10    7.89   0
   8   0  20  116.71    8.26   0
   9  -1  10   86.04    7.39   0
   4   3  34  140.81    8.77   0
   5   1  31   -6.61    6.84   0
   6   0  27    4.93    7.68   0
   7  -2  15   -5.90    6.62   0
   2   4  34  143.94    8.33   0
   6   2  31    1.79    7.00   0
   7  -3   4  632.70   12.50   0
   7   0  25   -4.20    6.55   0
   7   1  27    1.61    7.40   0
   9  -2   5   -1.58    6.06   0
   3   4  35    3.96    6.90   0
   8  -2  13   -1.52    6.92   0
   1   3  31   -0.13    5.28   0
   4   0  28  596.67   11.26   0
   5  -1  24  885.31   13.08   0
   5   0  29   -3.55    6.99   0
   9  -1  13   -2.50    6.34   0
   3   2  34  405.61   10.69   0
   5  -3   2  797.04   13.92   0
   6  -3   6  435.33   10.53   0
   7  -1  23   -0.69    6.13   0
   8   0  23    6.96    7.01   0
   9  -2   8  185.73    8.78   0
   0   3  27   -1.05    5.02   0
   3  -1  19    0.66    4.57   0
   4  -1  23   13.32    5.07   0
   4   2  35    1.98    7.00   0
   5   3  35   -5.01    7.68   0
   6  -1  25    8.97    6.01   0
   7  -3   7    2.44    5.77   0
   3   3  36  268.19    9.96   0
   4   1  33    0.84    5.85   0
   4   4  36  100.35    8.78   0
   6   1  32  230.34    9.44   0
   7  -2  18  368.61    9.77   0
   8  -3   5    6.77    6.19   0
   2   3  35    1.98    6.11   0
   3   0  27    0.33    4.95   0
   6   0  30  106.56    7.61   0
   7   0  28  123.88    7.95   0
   7   1  30   68.83    7.82   0
   8  -2  16  346.04   10.36   0
   1   1  24 1730.57   18.91   0
   1   2  29    5.48    5.04   0
   2   0  23   -1.65    4.30   0
   2   2  33    2.05    5.47   0
   4  -2  15   -3.59    5.13   0
   4   3  37   -2.09    7.07   0
   5   1  34  205.77    8.67   0
   9  -2  11   -4.84    6.30   0
   5  -3   5    6.84    4.95   0
   5  -2  19    0.91    5.17   0
   5   2  36  234.21    9.42   0
   6  -3   9    4.08    4.66   0
   7  -3  10  367.73   10.01   0
   7  -1  26  242.09    9.82   0
   4   0  31   -3.18    6.21   0
   5  -1  27   -5.35    5.75   0
   5   0  32  478.47   11.32   0
   8  -3   8  436.99   11.15   0
   8   0  26   74.85    8.36   0
   2   4  37   -1.64    6.05   0
   3   4  38  120.72    8.25   0
   6  -1  28  387.25   10.64   0
   4  -1  26  665.93   11.89   0
   8  -2  19    3.70    7.19   0
   9  -2  14  117.40    7.85   0
   3  -1  22  445.14    9.74   0
   3   2  37    8.69    6.34   0
   4   2  38   77.33    8.02   0
   5   3  38   47.98    7.37   0
   6   0  33   -1.35    7.26   0
   7  -3  13    1.86    6.20   0
   7   0  31    2.47    6.83   0
   7   1  33  -11.73    6.97   0
   8  -3  11    2.29    6.31   0
   1   3  34  472.77   11.19   0
   2  -1  15    0.00    4.10   0
   2   1  31   -2.45    5.38   0
   5  -3   8 2181.54   20.76   0
   6  -2  23    3.83    5.59   0
   3   0  30  293.39    8.57   0
   3   3  39    0.50    7.14   0
   4  -2  18 1026.99   13.88   0
   4   4  39   -0.86    6.54   0
   5  -2  22  271.92    9.07   0
   5   1  37    0.04    7.16   0
   7  -1  29    0.51    7.18   0
   3  -2  11    4.09    4.91   0
   4   3  40  133.96    9.23   0
   5  -1  30  298.14    9.70   0
   5   2  39    8.61    7.18   0
   9  -2  17    0.21    6.52   0
   0   2  25   -0.25    4.26   0
   2   0  26 1273.47   15.76   0
   2   3  38   88.47    7.28   0
   5   0  35    2.64    6.65   0
   6  -1  31   -7.38    7.19   0
   8  -3  14  125.33    8.34   0
   8  -2  22  100.81    7.64   0
   8  -1  27    3.99    7.41   0
   2   2  36  337.69    9.75   0
   5  -3  11    6.61    5.12   0
   6  -3  15    0.99    5.66   0
   7  -3  16  408.31   10.53   0
   1   1  27   -2.55    4.73   0
   4  -1  29   -3.63    6.26   0
   6   1  38   37.15    7.89   0
   7   0  34  133.29    8.79   0
   1   0  19    3.60    4.55   0
   3  -1  25    5.57    5.61   0
   6  -2  26  376.26    9.70   0
   6   0  36  176.94    9.52   0
   9  -2  20  115.19    8.45   0
   4  -2  21    4.47    5.43   0
   4   2  41    0.35    7.37   0
   5  -2  25   -1.90    5.92   0
   7  -1  32  225.51    9.55   0
   2  -1  18 1180.41   15.42   0
   3   2  40  392.32   10.84   0
   7  -2  27    7.81    5.90   0
   8  -3  17    6.06    5.72   0
   8  -2  25    1.86    6.46   0
   8  -1  30   60.52    7.70   0
   3  -2  14 1551.55   17.45   0
   3   0  33    5.37    5.29   0
   5  -3  14  373.81    9.75   0
   5  -1  33   11.44    6.55   0
   6  -3  18  389.90   10.21   0
   7  -3  19    4.33    5.54   0
   3   1  38  148.52    7.87   0
   3   3  42  137.22    8.44   0
   4  -3   4 1264.14   17.60   0
   5   2  42  111.08    8.54   0
   6  -1  34  205.95    8.62   0
   9  -3  15    9.74    7.26   0
   1   3  37    1.20    5.38   0
   4   0  37   -9.09    6.86   0
   4   3  43    7.99    6.94   0
   6  -2  29   -6.38    6.84   0
   7   0  37    4.63    7.24   0
   9  -2  23    1.27    6.32   0
   2   0  29   -2.85    4.63   0
   4  -1  32  863.92   13.70   0
   8  -3  20  214.66    9.25   0
   2   2  39    1.00    5.67   0
   2   3  41   -0.92    6.35   0
   4  -2  24 1847.06   18.31   0
   5  -2  28  398.30   10.14   0
   6   0  39    7.24    6.68   0
   7  -3  22  161.94    8.28   0
   7  -2  30   68.83    7.84   0
   7  -1  35   -1.03    7.31   0
   3  -1  28 1286.99   15.16   0
   4  -3   7    9.48    4.66   0
   5  -3  17    5.89    5.39   0
   6  -3  21    9.46    5.35   0
   8  -1  33    2.15    7.41   0
   9  -3  18   87.12    7.93   0
   0   2  28 1006.96   15.67   0
   1   0  22  443.09   10.48   0
   1   1  30  537.50   10.75   0
   1   2  35   -1.32    5.27   0
   2  -1  21    7.89    4.86   0
   3  -2  17    4.06    4.45   0
   4   1  42  170.48    9.03   0
   4   2  44  195.78    9.72   0
   5  -1  36  306.52    9.31   0
   6  -1  37    0.84    7.75   0
   7  -4   8  534.40   11.66   0
   8  -3  23    5.77    6.60   0
   0   3  33   -1.70    4.87   0
   3   2  43    3.25    6.78   0
   5   0  41  -12.43    7.59   0
   6  -2  32  324.92   10.01   0
   2   1  37   -2.20    5.77   0
   3   1  41    0.60    6.59   0
   4  -3  10 1089.50   15.03   0
   5   2  45   -4.18    6.93   0
   7  -3  25    3.09    6.85   0
   7   0  40  141.45    8.01   0
   9  -3  21    0.59    6.81   0
   3   3  45    3.02    6.45   0
   4  -2  27   -5.12    6.02   0
   4  -1  35   -0.55    6.39   0
   4   0  40  404.68   10.19   0
   5  -2  31   -2.30    6.36   0
   6  -4   4  842.59   14.75   0
   6   0  42  115.73    8.56   0
   7  -4  11    0.24    5.66   0
   7  -2  33   -1.96    6.07   0
   7  -1  38   49.65    7.62   0
   8  -4  12  244.28    9.59   0
   4   3  46   51.37    7.77   0
   3  -2  20 1407.48   16.07   0
   3  -1  31    6.91    5.00   0
   6  -4   7    2.40    5.71   0
   8  -3  26  171.93    9.03   0
   2  -1  24 1852.43   18.54   0
   4  -3  13    3.38    4.35   0
   5  -1  39   -5.68    7.14   0
   6  -1  40  185.55    9.43   0
   7  -4  14  357.51   10.03   0
   8  -4  15   -1.22    6.89   0
   9  -3  24  187.42    9.06   0
   2   3  44  200.11    8.82   0
   4   1  45   -1.16    7.02   0
   5   1  46   63.84    8.17   0
   6  -2  35   -1.42    7.25   0
   8  -2  34  100.17    8.12   0
   1   0  25    3.27    3.97   0
   1   1  33   -2.65    5.03   0
   4   2  47    1.15    7.19   0
   5   0  44  163.73    9.40   0
   6  -4  10  341.64    9.73   0
   7  -2  36  243.90    9.66   0
   3   2  46   45.33    7.44   0
   4  -2  30  197.64    8.37   0
   5  -2  34  412.76   10.79   0
   7  -4  17    8.96    6.12   0
   7  -1  41    9.74    7.22   0
   8  -3  29   -2.38    7.06   0
   0   2  31    2.46    4.47   0
   2   1  40  416.30   10.56   0
   3  -2  23    2.46    5.35   0
   4  -1  38  148.48    7.66   0
   6   0  45   -0.22    7.21   0
   8  -4  18  190.89    8.80   0
   3  -1  34  566.47   11.43   0
   6  -4  13    5.15    5.44   0
   9  -3  27    5.12    6.84   0
   5  -3  26  602.74   11.80   0
   2  -1  27    1.06    4.52   0
   5  -1  42  159.35    9.21   0
   6  -3  30  176.17    7.96   0
   6  -2  38   92.97    7.37   0
   6  -1  43  -11.14    6.65   0
   7  -4  20  415.98   10.78   0
   8  -4  21   -2.18    6.73   0
   8  -2  37   -6.95    6.32   0
   6  -4  16  740.86   13.06   0
   7  -2  39    3.58    7.16   0
   8  -3  32  178.53    8.82   0
   9  -4  19    1.81    6.01   0
   2   2  45    0.05    6.27   0
   4  -2  33   -9.82    5.94   0
   4   1  48  178.85    9.42   0
   5  -2  37   -0.20    5.95   0
   5   1  49   -1.34    6.86   0
   1   1  36  844.41   13.62   0
   3  -2  26  515.47   10.20   0
   4   2  50   88.07    7.89   0
   7  -1  44  103.91    7.72   0
   0   1  26 1095.09   16.04   0
   4  -1  41   -0.08    5.87   0
   5  -3  29   -0.76    6.00   0
   6  -4  19   -0.03    5.99   0
   7  -4  23    0.58    6.48   0
   8  -4  24  309.51   10.02   0
   9  -4  22   73.76    7.50   0
   1   2  41   -1.33    5.64   0
   2   1  43    5.21    6.14   0
   3  -1  37    1.25    5.34   0
   3   1  47    4.38    6.62   0
   3   2  49    3.67    6.58   0
   4  -3  22  348.97    9.41   0
   5  -4   3   -1.29    4.91   0
   6  -3  33    5.28    5.99   0
   0   2  34  254.67    9.14   0
   5  -4   6  364.81   10.14   0
   6  -2  41   -1.21    6.16   0
   6  -1  46   41.62    7.89   0
   5  -4   9    7.87    5.09   0
   6  -4  22  363.06   10.08   0
   7  -2  42  128.40    8.20   0
   2  -2  13    0.95    3.98   0
   3  -2  29    6.40    5.70   0
   4  -2  36  343.41    9.28   0
   5  -2  40  428.04   10.41   0
   7  -4  26  152.88    7.68   0
   8  -4  27   -0.08    6.89   0
   9  -4  25   -5.65    6.19   0
   4  -3  25    2.70    5.70   0
   5  -4  12 1118.49   15.14   0
   5  -3  32  672.68   12.35   0
   7  -3  37    2.16    7.43   0
   3   0  45    3.96    6.38   0
   4  -1  44  267.42    9.41   0
   4   1  51    0.84    7.03   0
   6  -3  36  297.23    9.22   0
   2  -2  16 2878.49   23.80   0
   3  -1  40  414.37   10.57   0
   5  -4  15    5.19    5.45   0
   6  -4  25   -0.51    5.99   0
   0   1  29    1.15    4.59   0
   1   1  39    3.02    4.54   0
   2  -1  33    8.75    5.57   0
   4   0  49   -1.90    5.87   0
   4   2  53   -1.91    6.84   0
   6  -2  44  192.79    8.82   0
   7  -4  29   -3.64    5.75   0
   8  -4  30   81.12    7.65   0
   9  -4  28   75.14    7.67   0
   2   0  41    4.21    5.91   0
   2   1  46  115.92    7.84   0
   3  -2  32 1184.25   14.96   0
   3   1  50  149.38    8.85   0
   5  -4  18  732.82   12.64   0
   5  -1  48  177.82    9.24   0
   6  -1  49    3.69    7.17   0
   7  -2  45    0.11    6.44   0
   1   2  44  281.64    9.28   0
   3  -3   9   -1.29    4.60   0
   3   2  52  106.23    8.26   0
   4  -3  28  670.30   11.45   0
   4  -2  39    0.75    5.72   0
   5  -3  35    4.38    6.45   0
   5  -2  43    1.20    6.25   0
   7  -3  40  131.46    8.58   0
   1  -1  20 1516.20   17.81   0
   2  -2  19   -3.21    4.37   0
   6  -4  28  416.39   10.65   0
   6  -3  39   -4.49    6.00   0
   0   2  37   -0.84    4.86   0
   1   0  34  860.38   13.46   0
   5  -4  21    0.82    5.43   0
   7  -4  32  277.13   10.07   0
   8  -4  33   -0.05    6.75   0
   3   0  48  184.28    8.83   0
   4  -1  47   -6.72    5.95   0
   5   0  53    2.34    6.95   0
   2  -2  22 1892.34   18.73   0
   2  -1  36  861.13   13.17   0
   3  -1  43    4.95    5.46   0
   4  -3  31   12.80    5.91   0
   4   1  54   44.96    7.82   0
   6  -2  47   -1.26    6.93   0
   8  -5  19   -0.01    7.01   0
   1   1  42  311.57    9.39   0
   3  -2  35   -2.23    5.19   0
   4  -2  42  349.94   10.25   0
   4   0  52  132.88    8.59   0
   5  -4  24  639.22   12.06   0
   5  -3  38  101.14    7.84   0
   7  -5  15    5.78    6.39   0
   7  -3  43   -6.22    6.78   0
   0   1  32 1625.16   18.58   0
   1  -1  23   -0.65    4.22   0
   2   0  44  610.60   12.07   0
   2   2  51   -2.33    6.41   0
   3  -3  18  520.29   10.38   0
   5  -2  46   49.61    6.90   0
   5  -1  51   -7.41    6.85   0
   6  -3  42  140.72    8.59   0
   7  -4  35    2.94    7.02   0
   8  -4  36  122.31    8.42   0
   2   1  49   -1.26    6.25   0
   3   1  53   -3.52    7.18   0
   7  -5  18  144.90    8.01   0
   8  -5  22  106.94    7.95   0
   2  -2  25    3.64    5.03   0
   3  -3  21    0.70    5.22   0
   1   0  37   -2.03    4.47   0
   1   2  47   -1.09    5.74   0
   4  -3  34  492.27   10.41   0
   7  -5  21    4.16    6.13   0
   1  -1  26 1166.20   15.22   0
   2  -1  39    3.10    5.55   0
   3  -2  38  300.27    8.78   0
   3   0  51    8.59    6.63   0
   5  -3  41   -7.95    6.95   0
   6  -2  50   90.05    7.81   0
   8  -5  25    3.23    6.73   0
   3  -3  24 1562.51   16.84   0
   4  -2  45   -2.30    6.63   0
   6  -3  45    6.80    6.98   0
   7  -3  46   47.84    7.05   0
   8  -4  39    1.77    6.59   0
   2  -2  28 1090.84   14.31   0
   4   0  55    5.64    6.74   0
   4   1  57    0.97    6.27   0
   5  -2  49   -3.43    6.63   0
   7  -5  24  420.91   11.07   0
   0   1  35    0.39    4.80   0
   1   1  45    1.90    5.68   0
   2   0  47   -2.06    6.41   0
   4  -3  37    1.62    6.20   0
   6  -4  37    3.73    6.84   0
   8  -5  28  151.43    8.82   0
   4  -4   8 1505.11   18.75   0
   4  -4  11   -2.03    4.72   0
   4  -4  14  295.93    8.97   0
   6  -5  11    3.74    5.23   0
   6  -5  14  385.42   10.46   0
   7  -5  27    0.61    6.84   0
   9  -5  29   -0.28    7.12   0
   1  -1  29    2.61    4.45   0
   1   0  40  704.71   12.44   0
   2   1  52  235.74    9.33   0
   3  -3  27    2.96    4.74   0
   3  -2  41    3.38    6.20   0
   3   1  56  106.79    8.93   0
   4  -4  17    3.07    5.16   0
   5  -3  44  238.56    9.46   0
   6  -5  17    3.54    5.48   0
   2  -2  31    1.33    5.64   0
   5  -4  33   -0.57    5.64   0
   6  -5  20  459.29   10.90   0
   6  -2  53   -4.34    6.91   0
   8  -5  31    2.63    6.55   0
   3   0  54   68.27    7.78   0
   4  -4   5    0.28    4.30   0
   4  -4  20 1230.53   15.12   0
   6  -3  48  140.79    8.38   0
   3  -3  30  544.38   11.08   0
   4  -3  40  450.96   10.35   0
   5  -2  52  132.47    8.14   0
   6  -5  23   -2.42    6.03   0
   6  -4  40  216.04    8.71   0
   7  -5  30  164.05    7.97   0
   0   0  27   -0.66    4.76   0
   0   2  43    0.66    5.29   0
   1  -1  32 1689.45   17.77   0
   5  -1  57    3.28    7.35   0
   8  -5  34  123.35    8.42   0
   0   1  38  239.31    8.35   0
   3  -2  44  305.27    9.69   0
   4   0  58   56.36    7.86   0
   5  -4  36  442.72   10.33   0
   5  -3  47   -7.71    7.63   0
   7  -4  44  114.60    8.24   0
  -1   2  30  532.88   12.37   0
   1   0  43    2.47    5.60   0
   1   1  48  309.82    9.68   0
   2  -2  34  264.53    8.12   0
   7  -5  33    1.53    7.04   0
   3  -3  33   -2.66    5.18   0
   6  -4  43    0.84    7.08   0
   6  -3  51    2.71    7.24   0
   2   1  55    7.97    6.49   0
   3  -1  52  236.53    9.65   0
   4  -3  43    6.96    5.84   0
   4  -2  51  -12.25    6.45   0
   4  -1  56  116.44    7.91   0
   6  -5  29   -4.53    6.47   0
   8  -5  37    3.56    6.42   0
   0   0  30  149.41    6.61   0
   3   1  59    5.01    6.71   0
   4  -4  29   -1.50    5.17   0
   5  -4  39   -3.06    5.75   0
   5  -2  55    1.06    6.84   0
   7  -5  36  143.44    8.52   0
   2  -2  37   -1.78    5.11   0
   3   0  57    7.42    6.88   0
   7  -4  47    4.09    7.39   0
   0   1  41    1.61    5.06   0
   3  -3  36  485.13   10.26   0
   3  -2  47    6.25    6.75   0
   5  -3  50  158.68    8.42   0
   6  -5  32  359.19   10.60   0
   2   0  53   -3.25    6.67   0
   4  -4  32  454.74   10.02   0
   4  -3  46   81.20    8.11   0
   6  -4  46   96.94    8.26   0
   8  -5  40  116.10    7.66   0
  -1   2  33    0.80    4.25   0
   0   0  33    2.17    4.83   0
   1   0  46  104.14    7.40   0
   1   1  51   -0.65    5.96   0
   2  -1  48  289.38    9.56   0
   5  -5  16  693.89   12.59   0
   5  -5  19   -3.03    5.58   0
   5  -4  42  207.86    8.29   0
   6  -3  54   37.51    7.22   0
   7  -5  39   -0.86    6.77   0
   2  -2  40  720.67   12.49   0
   3  -1  55   -2.19    7.11   0
   4  -2  54   26.32    6.75   0
   5  -5  13    0.74    5.16   0
   5  -5  22  219.70    8.61   0
   6  -5  35  -10.06    7.12   0
   3  -3  39    3.88    5.48   0
   4  -4  35   -3.33    5.60   0
   4  -1  59   -0.77    6.33   0
   5  -5  10  681.20   12.91   0
   5  -2  58   77.06    7.67   0
   5  -5  25    3.76    5.00   0
   2  -1  18 1199.72   15.93   0
   6  -6   6  378.16   10.76   0
   8  -6  14  101.34    8.34   0
   6  -5  17   -0.03    5.48   0
   9  -6  15    5.43    6.89   0
   9  -4  25   -0.22    7.54   0
   9  -3  27    1.34    7.14   0
   2  -2  13   -1.20    4.09   0
   3  -4   4 1253.23   17.79   0
   5   1  31   -1.62    7.58   0
   7  -4  26  146.89    8.90   0
   7   0  31   -4.08    6.90   0
   8  -5  22  115.84    8.58   0
   8  -3  29   -7.33    7.45   0
   8  -1  30   57.46    8.31   0
   3  -3  15    1.59    4.38   0
   3  -1  25    3.19    4.79   0
   3   0  27   -2.15    4.60   0
   4  -3  22  359.17    9.65   0
   4   1  30  264.08    9.69   0
   5  -4  21    4.51    6.16   0
   5  -3  26  605.55   11.49   0
   5   0  32  437.85   11.50   0
   7  -6  13   -1.16    6.69   0
   7  -1  32  219.67   10.20   0
   8  -4  27   -0.71    7.93   0
   4  -5   3   -0.32    5.11   0
   5  -5  13    7.71    5.61   0
   6  -4  25    1.97    6.57   0
   2   2  24 1807.04   21.64   0
   4  -2  27    4.58    5.22   0
   4   0  31   -2.85    6.28   0
   6  -2  32  311.69   10.29   0
   6   0  33    2.81    6.97   0
   9  -5  23    0.04    7.26   0
   6  -6   9   -2.84    5.62   0
   6  -3  30  176.79    8.96   0
   7  -3  31    2.99    7.59   0
   8  -6  17   -0.79    7.09   0
   9  -6  18  173.57    9.04   0
   5  -2  31   11.18    6.73   0
   6  -1  34  200.66    9.79   0
   3  -2  23    8.95    5.50   0
   3   1  29   -3.29    5.51   0
   3   2  28  358.45   10.52   0
   8  -5  25   -1.66    7.19   0
   9  -4  28   71.56    7.48   0
   2   1  25    4.90    4.94   0
   7  -6  16  571.26   12.16   0
   7  -4  29    5.71    7.70   0
   8  -3  32  202.79    9.71   0
   8  -1  33   -5.04    7.42   0
   9  -7  10  139.97    8.46   0
   3  -4   7   10.22    4.59   0
   4  -5   6  357.15    9.88   0
   5  -5  16  662.48   12.14   0
   5  -3  29   -5.05    6.22   0
   7   0  34  123.73    8.93   0
   8  -4  30   84.90    8.34   0
   2  -1  21   10.64    4.65   0
   3  -3  18  529.62   10.90   0
   4  -3  25    4.00    6.04   0
   5  -4  24  604.08   11.39   0
   6  -6  12  318.72    9.73   0
   7  -1  35    1.16    7.91   0
   8  -6  20  173.56    8.99   0
   8  -2  34   98.86    8.31   0
   9  -5  26  123.85    8.09   0
   2  -2  16 2947.96   24.11   0
   5   0  35   -6.21    6.81   0
   5   1  34  195.27    9.53   0
   9  -6  21   -6.01    7.40   0
   3  -1  28 1270.01   15.56   0
   3   0  30  297.92    9.31   0
   4  -2  30  192.52    8.50   0
   4   1  33    7.18    6.15   0
   6  -2  35    1.87    7.52   0
   7  -3  34  167.36    9.14   0
   9  -7  13   -0.07    6.81   0
   6  -3  33    3.11    6.15   0
   6   0  36  175.18    9.11   0
   7  -6  19    5.43    7.02   0
   8  -5  28  155.38    8.96   0
   4   0  34  220.49    9.04   0
   5  -2  34  391.65   10.52   0
   7  -5  27    5.28    7.19   0
   8  -7  12  173.41    8.82   0
   4  -5   9   10.66    5.02   0
   5  -1  36  284.14   10.13   0
   6  -1  37   11.84    7.61   0
   7  -4  32  265.51    9.47   0
   8  -3  35    9.84    7.10   0
   3  -4  10 1078.81   15.21   0
   3  -2  26  516.65   10.45   0
   5  -6   5   -1.55    4.88   0
   5  -5  19   -0.48    5.00   0
   6  -6  15   -1.33    5.32   0
   8  -6  23    1.11    7.73   0
   8  -4  33   -0.75    6.92   0
   9  -6  24  151.46    8.52   0
   9  -5  29    2.47    6.36   0
   5  -4  27    3.14    5.58   0
   5  -3  32  656.83   11.92   0
   6  -4  31    6.01    6.65   0
   9  -7  16  136.53    8.04   0
   2   2  27   -0.15    4.93   0
   3  -3  21   -0.29    5.40   0
   3   1  32  829.19   14.21   0
   4  -3  28  705.61   12.42   0
   7  -1  38   41.84    7.88   0
   7   0  37   -3.03    6.51   0
   8  -2  37    3.62    6.65   0
   2  -1  24 1857.95   18.98   0
   2   1  28 1268.56   16.99   0
   7  -6  22  149.87    8.73   0
   7  -3  37    9.53    7.79   0
   8  -7  15   -2.46    6.68   0
   2  -2  19    0.08    4.43   0
   5  -6   8  754.78   13.82   0
   5   0  38  177.41    9.22   0
   8  -5  31   -1.56    6.78   0
   3  -1  31    0.43    4.98   0
   4  -5  12 1125.08   15.55   0
   4  -4  23    3.93    5.81   0
   4  -2  33   -2.49    5.42   0
   5   1  37    7.52    6.34   0
   6  -6  18  240.35    9.07   0
   7  -5  30  168.29    8.46   0
   7  -4  35   -4.17    7.75   0
   7  -2  39   -0.55    7.69   0
   8  -6  26  179.91    8.90   0
   9  -7  19    1.15    7.35   0
   3  -4  13    9.10    4.95   0
   3   0  33    1.01    4.81   0
   4   1  36  301.90   10.05   0
   5  -5  22  224.31    8.67   0
   5  -2  37    1.81    6.85   0
   6   0  39   -1.66    7.53   0
   8  -4  36  114.35    8.62   0
   8  -3  38   51.26    7.73   0
   9  -6  27   -2.82    7.38   0
   4   0  37   -5.27    6.41   0
   5  -4  30  172.35    8.61   0
   6  -1  40  181.69    9.35   0
   8  -7  18  186.87    9.65   0
   3  -2  29    1.85    5.57   0
   5  -3  35    3.40    6.62   0
   5  -1  39   -1.21    5.90   0
   6  -4  34  151.11    9.07   0
   7  -6  25   -5.36    7.18   0
   3  -3  24 1571.35   17.16   0
   4  -3  31    4.19    6.39   0
   5  -6  11    2.87    5.29   0
   6  -5  29   -2.02    6.49   0
   7  -7  14  118.16    7.90   0
   2   0  29    2.94    5.19   0
   4  -5  15    1.59    5.35   0
   6  -6  21   -1.58    6.25   0
   7  -1  41   -0.54    7.03   0
   8  -5  34  116.77    8.71   0
   9  -7  22   45.67    7.23   0
   6  -3  39    3.88    7.33   0
   7  -5  33   -4.96    6.49   0
   8  -6  29    7.55    6.98   0
   2  -2  22 1880.05   18.64   0
   2  -1  27   -2.25    5.34   0
   3  -4  16 2005.56   19.83   0
   3   1  35    3.44    5.77   0
   4  -4  26  689.53   11.79   0
   4  -2  36  351.41   10.04   0
   4  -1  38  139.46    7.94   0
   7  -4  38  132.62    8.79   0
   8  -7  21    7.69    6.74   0
   5   0  41    6.54    7.13   0
   8  -4  39    1.30    7.24   0
   2   1  31    2.01    5.36   0
   2   2  30  182.16    8.10   0
   5  -6  14  374.16   10.04   0
   5  -4  33    4.75    6.72   0
   5  -2  40  387.78   10.15   0
   6   0  42  109.20    9.35   0
   7  -7  17    4.55    6.36   0
   7  -6  28  151.54    8.59   0
   3   0  36  762.50   12.77   0
   5  -3  38   92.45    8.04   0
   6  -5  32  342.66   10.09   0
   6  -4  37    1.80    6.27   0
   6  -1  43    3.37    7.12   0
   1   1  24 1756.12   20.24   0
   3  -3  27   -4.26    5.70   0
   3  -2  32 1134.89   14.62   0
   4  -5  18  704.80   12.02   0
   4   0  40  391.69   10.70   0
   4   1  39   -3.86    6.25   0
   5  -1  42  154.03    9.15   0
   6  -6  24  554.94   11.41   0
   8  -5  37   -1.48    7.28   0
   4  -3  34  488.71   10.60   0
   7  -5  36  146.46    8.93   0
   8  -7  24  200.43    9.00   0
   8  -6  32  155.87    8.25   0
   4  -4  29   -7.18    5.98   0
   5  -6  17    4.60    5.68   0
   7  -7  20  145.15    8.22   0
   7  -3  43    0.89    7.11   0
   7  -1  44   93.25    8.00   0
   2  -2  25   -2.71    5.41   0
   2   0  32  601.71   11.77   0
   6  -3  42  127.17    8.22   0
   6  -2  44  195.77    9.45   0
   7  -4  41   12.07    7.26   0
   2  -1  30  606.91   11.60   0
   4  -2  39    5.83    6.80   0
   4  -1  41    1.04    6.73   0
   7  -6  31    3.90    6.53   0
   7  -2  45   -1.52    7.16   0
   2  -3  17    7.56    4.41   0
   3   1  38  163.86    8.87   0
   4  -5  21    2.57    5.65   0
   5  -4  36  430.66   10.52   0
   6  -6  27   -3.50    6.90   0
   6  -5  35    5.12    6.90   0
   6  -4  40  209.73    9.49   0
   5   0  44  171.97    8.86   0
   8  -7  27   -0.73    6.60   0
   1  -1  20 1543.29   18.00   0
   3  -3  30  540.40   11.18   0
   3  -2  35    2.04    5.81   0
   3   0  39    1.76    6.21   0
   4  -3  37   12.37    6.65   0
   5  -6  20  454.61   10.78   0
   5  -3  41    1.81    6.08   0
   6  -1  46   53.28    8.34   0
   7  -7  23    3.37    6.51   0
   7  -5  39   -0.58    7.22   0
   1   2  26  491.42   12.11   0
   2   1  34  576.88   11.86   0
   4  -4  32  466.52   10.75   0
   5  -1  45    2.44    7.01   0
   4   0  43    1.62    6.63   0
   4   1  42  159.08    8.76   0
   1   1  27   -0.16    4.51   0
   2  -3  20 1403.83   16.48   0
   2  -2  28 1126.49   14.75   0
   4  -5  24  622.93   11.85   0
   6  -6  30  133.94    8.25   0
   6  -3  45    2.99    6.96   0
   7  -4  44  114.72    8.97   0
   4  -2  42  361.65   10.45   0
   5  -6  23   11.28    6.22   0
   5  -4  39    5.67    7.13   0
   6  -5  38  107.97    8.48   0
   6  -2  47   -8.23    7.51   0
   7  -7  26  202.37    9.27   0
   8  -7  30   48.17    6.98   0
   2  -1  33    1.60    5.63   0
   2   0  35   -0.80    4.69   0
   3  -5   5    5.23    5.01   0
   4  -1  44  261.46    9.78   0
   6  -4  43    4.27    7.63   0
   3  -4  25   -1.65    5.63   0
   6  -7  19   -2.48    5.80   0
   1  -1  23    2.44    4.93   0
   3  -3  33    7.00    5.26   0
   3  -2  38  301.20    9.60   0
   4  -3  40  408.37   10.70   0
   5  -3  44  201.82    8.46   0
   7  -5  42   88.97    7.83   0
   3  -5   8 2029.33   21.90   0
   3   1  41   -1.79    5.82   0
   4  -5  27    3.88    5.79   0
   4  -4  35    5.04    5.69   0
   5   0  47    0.93    6.55   0
   6  -6  33    0.38    7.06   0
   1  -2  15    4.25    4.77   0
   2  -3  23   -0.91    4.42   0
   3   0  42  285.34    9.55   0
   5  -6  26  203.06    8.52   0
   5  -1  48  187.41    9.07   0
   6  -1  49    2.61    7.45   0
   7  -7  29   -4.96    6.69   0
   8  -7  33   11.19    6.92   0
   2  -2  31   -4.96    4.81   0
   2   1  37   -2.72    5.35   0
   3  -5  11    1.41    4.67   0
   4   0  46  127.60    8.50   0
   5  -4  42  202.25    9.52   0
   6  -7  22  135.71    7.85   0
   6  -5  41    6.95    7.44   0
   6  -3  48  138.01    8.76   0
   7  -4  47   -1.59    6.51   0
   3  -4  28  679.79   12.07   0
   1   1  30  586.11   11.94   0
   1   2  29    2.27    4.51   0
   2  -1  36  843.85   13.37   0
   4  -2  45   -6.31    5.93   0
   5  -5  37   -0.46    6.89   0
   6  -4  46   88.54    7.99   0
   6  -2  50   84.48    7.83   0
   2   0  38  237.40    8.62   0
   3  -5  14  346.60    9.78   0
   3  -3  36  518.78   10.62   0
   4  -6  13    0.71    5.06   0
   4  -1  47   -0.34    6.75   0
   5  -3  47   -9.93    7.56   0
   5  -2  49    2.10    7.54   0
   7  -5  45    6.69    7.21   0
   1  -2  18 1211.67   15.92   0
   1  -1  26 1191.31   15.05   0
   2  -3  26  518.06   10.74   0
   3  -2  41   -1.76    6.62   0
   3  -1  43    0.85    5.47   0
   4  -4  38  108.73    7.22   0
   4  -3  43   14.53    5.98   0
   5  -6  29    7.50    6.47   0
   6  -7  25    0.37    5.99   0
   6  -6  36  125.04    8.62   0
   7  -7  32  227.91    9.19   0
   2  -4   9    0.72    4.47   0
   2  -2  34  273.80    8.71   0
   3  -5  17    1.14    5.06   0
   4  -6  16  701.46   12.87   0
   6  -5  44  136.84    8.98   0
   2  -4  12  744.48   13.19   0
   3  -4  31   -3.31    5.21   0
   3   0  45    0.90    5.93   0
   3   1  44  262.93    9.47   0
   5  -4  45   -2.06    6.51   0
   5  -1  51   -3.66    7.06   0
   5   0  50   63.58    7.93   0
   5  -5  40  184.69    8.07   0
   6  -7  28  143.23    8.18   0
   6  -4  49    2.39    7.12   0
   1  -2  21    8.54    4.49   0
   2  -3  29    3.70    5.40   0
   2   1  40  441.97   10.90   0
   3  -3  39   -3.26    5.57   0
   4  -6  19    1.50    5.51   0
   4  -4  41    6.46    6.97   0
   4   0  49   -0.40    6.46   0
   5  -6  32  365.86    9.74   0
   6  -2  53   -1.29    7.33   0
   7  -7  35   -1.65    6.52   0
   1  -1  29    1.13    4.59   0
   1   1  33    4.31    4.97   0
   2  -4  15   -4.88    4.76   0
   3  -5  20  566.79   11.03   0
   4  -3  46   79.41    8.06   0
   5  -3  50  159.11    9.12   0
   1   2  32 1085.84   16.73   0
   2   0  41    1.25    4.93   0
   3  -2  44  309.26    9.89   0
   4  -1  50  150.36    8.67   0
   5  -2  52  142.33    8.57   0
   2  -2  37   -2.53    6.09   0
   3  -4  34  485.40   10.34   0
   4  -6  22  336.47    9.72   0
   1  -2  24 1816.44   18.45   0
   2  -4  18 1006.90   14.12   0
   3  -5  23    3.81    5.38   0
   5  -6  35    1.98    7.08   0
   5  -5  43   -7.19    6.93   0
   5  -4  48  120.69    8.56   0
   6  -7  31    9.97    6.66   0
   6  -5  47   -4.59    6.63   0
   1   0  34  900.16   13.36   0
   2  -3  32 1170.09   15.02   0
   7  -7  38   33.23    6.69   0
   3  -3  42  235.55    8.47   0
   3   0  48  196.64    8.83   0
   4  -6  25    8.98    5.99   0
   5  -7  21   -1.51    6.33   0
   5  -1  54   50.97    7.95   0
   6  -4  52   99.83    8.12   0
   1  -1  32 1724.71   17.62   0
   2  -4  21   -1.75    4.48   0
   1   1  36  842.21   13.88   0
   2   1  43    0.14    5.66   0
   3  -5  26  605.44   11.74   0
   3  -4  37   -7.40    5.60   0
   4  -3  49   -6.29    7.48   0
   4   0  52  131.32    8.77   0
   1  -2  27    0.99    4.57   0
   2  -2  40  764.89   12.80   0
   2   0  44  666.03   12.66   0
   3  -2  47   -1.81    5.83   0
   3  -1  49   -0.75    6.66   0
   4  -5  39   -3.04    6.94   0
   5  -7  24  402.20   11.04   0
   5  -6  38  115.33    8.14   0
   5  -2  55   -7.26    7.42   0
   2  -3  35    1.40    6.16   0
   4  -6  28  421.46   10.45   0
   4  -1  53   -7.36    7.29   0
   5  -5  46   75.65    7.87   0
   6  -5  50   75.37    8.15   0
   1   0  37    0.59    5.35   0
   1   2  35    1.31    4.86   0
   5  -4  51    1.20    6.73   0
   0   0  21    2.66    4.57   0
   1  -1  35   -0.96    5.68   0
   3  -5  29    0.36    5.13   0
   3  -3  45   -0.15    6.08   0
   4  -4  47    1.89    7.20   0
   1  -2  30  583.53   11.28   0
   3  -4  40  414.73   10.70   0
   5  -7  27   -2.75    6.35   0
   6  -7  37   -5.60    7.17   0
   3   0  51   -7.44    6.42   0
   4  -6  31    1.50    6.55   0
   4  -5  42  198.77    9.16   0
   4  -3  52  176.43    9.46   0
   4  -2  54   39.86    7.35   0
   5  -6  41   -5.96    6.75   0
   5  -1  57   -2.12    7.91   0
   2  -3  38  312.41    9.55   0
   2  -2  43   -0.09    6.22   0
   0   0  24 4624.06   30.49   0
   0   1  26 1081.04   15.87   0
   1   1  39    0.15    5.36   0
   2   0  47    5.45    5.97   0
   2   1  46  124.69    7.79   0
   3  -5  32  630.54   11.66   0
   3  -1  52  235.58    9.72   0
   5  -7  30  153.84    8.36   0
   5  -5  49   -1.72    7.37   0
   1  -3  19    0.95    4.20   0
   2  -4  30  195.36    8.22   0
   4  -1  56  112.54    8.81   0
   5  -4  54   46.57    7.73   0
   5  -2  58   81.04    7.75   0
   6  -7  40  182.56    9.05   0
   1  -2  33    4.22    4.96   0
   1  -1  38  257.33    8.19   0
   1   0  40  719.82   12.29   0
   3  -4  43   10.39    6.60   0
   3  -3  48  299.20    9.42   0
   4  -6  34  148.06    8.66   0
   4  -4  50  147.69    8.85   0
   1  -3  22  449.45    9.82   0
   2  -3  41   -2.32    6.59   0
   2  -1  48  305.32    9.78   0
   4  -5  45    4.32    6.06   0
   5  -7  33   -0.06    6.59   0
   0  -1  19    3.49    4.25   0
   0   1  29   -0.62    4.82   0
   1  -3  25    3.97    5.37   0
   2  -4  33    4.47    5.63   0
   4  -3  55  -10.13    7.14   0
   4  -2  57    2.59    6.80   0
   1  -2  36  870.19   13.37   0
   3   0  54   65.53    7.63   0
   4  -6  37   -1.06    6.89   0
   5  -5  52  144.37    8.32   0
   6  -7  43   -2.82    6.50   0
   1  -1  41    0.63    6.01   0
   1   1  42  297.28    9.59   0
   2   0  50  181.80    8.88   0
   3  -4  46   79.85    7.97   0
   5  -4  57    3.64    7.45   0
   0   2  28 1030.28   16.66   0
   1  -3  28 1263.36   15.49   0
   1   0  43   -5.29    5.89   0
   2   1  49   -3.21    6.19   0
   3  -3  51   -4.93    6.21   0
   3  -1  55    0.22    6.72   0
   4  -4  53    3.14    7.06   0
   5  -7  36  138.03    8.66   0
   2  -4  36  345.94    9.99   0
   2  -3  44  289.09    9.77   0
   3  -6  15   -1.72    4.94   0
   3  -6  18  403.12   10.43   0
   4  -5  48  113.94    8.62   0
   4  -1  59    6.65    6.61   0
   0  -1  25    2.22    4.46   0
   0   1  32 1694.00   19.04   0
   2  -1  51   11.50    6.88   0
   3  -6  21    1.46    5.44   0
   4  -6  40  237.38    9.24   0
   1  -3  31   -0.71    5.83   0
   1  -2  39    1.44    5.28   0
   2  -2  49    8.28    5.96   0
   2  -5  16 1715.32   19.25   0
   3  -6  24  574.86   11.80   0
   4  -2  60   94.37    8.64   0
   5  -7  39    1.88    6.99   0
   5  -5  55   -3.53    6.33   0
   0  -1  28 1364.40   15.92   0
   1   1  45   -1.32    5.79   0
   2  -5  13    2.36    4.86   0
   2  -5  19    5.00    5.30   0
   2  -4  39   -4.99    6.52   0
   3  -4  49    3.23    6.13   0
   3  -3  54   86.88    8.52   0
   0   2  31   -1.35    4.43   0
   1   0  46   99.69    7.50   0
   2  -5  22  273.65    9.02   0
   2  -3  47   -0.18    7.16   0
   2   0  53   -1.82    6.75   0
   3  -6  27    5.49    5.80   0
   3   0  57    5.55    7.06   0
   4  -6  43    1.05    7.21   0
   4  -5  51    2.96    7.07   0
   4  -4  56   56.26    7.71   0
   0   1  35    2.30    5.07   0
   1  -3  34  560.30   10.86   0
   2  -5  10  677.06   13.43   0
   2  -5  25   -5.42    5.70   0
   3  -1  58   99.71    8.24   0
   4  -7  26  139.65    8.15   0
   0  -1  31    3.28    4.70   0
   1  -2  42  302.39    9.05   0
   2  -2  52  187.52    9.08   0
   3  -6  30  176.05    8.44   0
   3  -5  44  221.76    9.27   0
   5  -7  42   87.95    7.58   0
   2  -5  28  381.79    9.97   0
   2  -4  42  353.24   10.22   0
   2  -1  54   86.31    8.33   0
   4  -7  29    4.20    5.86   0
   1  -3  37    0.78    6.37   0
   2  -5   7    5.30    4.96   0
   3  -4  52  162.89    9.52   0
   0  -1  34  951.92   13.90   0
   0   2  34  253.38    9.15   0
   3  -6  33    4.31    6.46   0
   3  -3  57   -2.90    7.45   0
   3  -2  59   -1.91    7.14   0
   4  -7  32  256.01   10.16   0
   4  -6  46   87.19    8.24   0
   0  -2  17   -2.64    4.15   0
   0  -2  20 3475.82   25.60   0
   0  -2  23    1.19    5.29   0
   0   1  38  242.35    8.70   0
   1  -2  45   -8.26    6.41   0
   1   0  49   -2.54    6.41   0
   1   1  48  308.35    9.59   0
   2  -5  31    2.39    5.10   0
   2  -3  50  161.34    8.09   0
   4  -5  54   53.48    7.25   0
   4  -4  59   -3.14    7.16   0
   5  -7  45   -1.31    7.06   0
   0  -2  14  347.66    9.83   0
   2  -4  45   13.85    7.06   0
   2   0  56   95.83    8.21   0
   3  -5  47   -9.43    6.10   0
   0  -2  26 1270.60   15.40   0
   0   0  39    2.67    4.80   0
   1  -4  17    1.54    4.94   0
   1  -4  20  880.66   13.48   0
   1  -4  23    8.99    5.52   0
   1  -3  40  435.06   10.81   0
   3  -6  36  289.81   10.06   0
   3  -1  61    7.08    6.84   0
   4  -7  35    2.24    6.71   0
   0  -1  37   -6.37    5.13   0
   1  -4  14  664.13   12.69   0
   2  -1  57    0.54    7.30   0
   3  -4  55    4.80    7.30   0
   0  -2  29    0.98    4.83   0
   0   1  41    0.77    5.50   0
   0   2  37   -1.10    4.75   0
   1  -2  48  313.02   10.11   0
   2  -3  53    3.10    6.26   0
   3  -6  39   -0.65    6.61   0
   3  -5  50  153.84    8.79   0
   4  -7  38  118.68    8.34   0
   4  -5  57   -7.92    6.88   0
   0  -2  32  638.11   11.40   0
   0   0  42  707.27   12.71   0
   1  -4  11   15.45    5.04   0
   1  -3  43    0.50    5.95   0
   1   0  52  301.77    9.77   0
   2  -4  48  266.74    9.29   0
   3  -3  60   90.42    7.85   0
   3  -2  62   40.52    7.97   0
   0  -1  40  736.71   12.32   0
   1   1  51   -0.25    6.09   0
   2   0  59   -4.59    7.83   0
   3  -6  42  144.10    8.93   0
   0  -2  35    0.35    5.34   0
   1  -4  35    5.84    6.09   0
   1  -1  53   10.77    7.18   0
   3  -4  58   90.88    8.66   0
   4  -7  41   -3.36    6.90   0
   0   1  44  419.56   10.81   0
   0   2  40  734.97   13.66   0
   1  -3  46  124.18    7.55   0
   1  -2  51    3.28    6.12   0
   2  -4  51    4.54    7.24   0
   2  -3  56  176.87    9.19   0
   2  -1  60  138.83    8.74   0
   3  -5  53    4.41    7.14   0
   0  -2  38  250.08    8.95   0
   0  -1  43    5.31    5.51   0
   0   0  45   -0.59    5.12   0
   1  -4  38  152.78    7.60   0
   1   0  55   -1.42    6.64   0
   3  -6  45   -3.97    6.97   0
   4  -7  44  112.23    8.39   0
   1   1  54   95.75    8.33   0
   1  -3  49    6.92    7.26   0
   2  -2  61   -3.43    7.24   0
   3  -4  61    2.90    7.77   0
   0  -3  24 1019.07   14.57   0
   0  -3  27   -0.47    5.77   0
   0  -2  41    2.33    5.76   0
   0  -1  46   99.53    7.14   0
   0   0  48  408.71   10.97   0
   1  -4  41   -1.87    5.93   0
   1  -2  54   87.04    7.53   0
   1  -1  56  181.36    8.34   0
   2  -4  54   42.62    7.82   0
   2  -3  59  -14.05    7.59   0
   3  -5  56   89.59    8.35   0
   0  -3  30  303.01    9.42   0
   0   1  47   -1.46    5.24   0
   2  -1  63    9.68    8.19   0
   2   0  62   40.17    7.73   0
   3  -6  48  123.21    8.48   0
   4  -7  47   -1.85    6.54   0
  -1   0  23   -2.44    4.98   0
  -1   0  26 1146.31   15.57   0
  -1   1  22  443.88   10.97   0
  -1   1  25    1.50    4.48   0
   2  -6  23   -0.95    5.79   0
   2  -6  26  356.50   10.34   0
  -1   0  29    3.47    5.27   0
  -1   1  28 1252.39   16.41   0
   0  -3  33   -6.23    5.47   0
   0  -2  44  686.15   12.81   0
   1  -4  44  269.07    9.93   0
   1  -3  52  258.58    9.99   0
   1   0  58  130.24    8.88   0
   2  -6  20  602.11   12.42   0
   2  -6  29    0.90    5.99   0
  -1   0  20 1488.96   17.98   0
  -1   1  31   -0.27    4.95   0
   0  -3  15    1.98    5.08   0
   2  -6  32  324.72   10.20   0
   2  -5  49    3.14    7.58   0
   3  -7  31   -1.54    6.41   0
  -1   0  32 1676.16   17.87   0
   0   0  51    0.07    6.65   0
   1  -1  59    7.65    7.37   0
   2  -6  17    0.99    5.56   0
   2  -4  57    4.10    7.63   0
   2  -2  64   91.92    8.63   0
   3  -7  34  145.64    8.64   0
   3  -6  51   -0.83    7.00   0
  -1   1  34  904.11   14.29   0
   0   1  50  249.72    9.34   0
   1  -4  47   -2.71    7.33   0
   2  -6  35    1.38    6.87   0
   2  -3  62   34.67    7.83   0
   0  -3  39    1.62    5.62   0
   0  -2  47   -4.02    6.09   0
   1  -5  24  862.64   14.24   0
   1  -5  27    7.48    6.17   0
   1  -5  30  273.37    9.67   0
   3  -7  37    1.42    6.48   0
  -1  -1  24 1831.50   18.70   0
  -1  -1  27    0.79    4.92   0
   0  -3  12 2528.67   23.96   0
   1  -5  21    1.51    5.58   0
   1  -3  55   -6.03    6.84   0
   2  -6  38   87.45    8.23   0
   2  -5  52  132.57    8.72   0
  -1  -1  21   13.01    4.71   0
  -1  -1  33    2.29    6.17   0
  -1   1  37   -0.97    4.53   0
   1  -5  33   -2.26    5.56   0
   3  -7  40  122.75    9.18   0
   3  -6  54   39.31    7.36   0
  -1   2  27    1.27    4.44   0
   0  -3  42  271.60    9.25   0
   0  -2  50  179.55    9.05   0
   0   0  54   45.51    7.65   0
   1  -5  18  370.04   10.20   0
   1  -5  36  287.86    9.82   0
   1  -4  50  167.42    9.54   0
   1   0  61   -6.85    7.41   0
   2  -6  41   -0.44    6.90   0
   2  -4  60   91.54    8.73   0
  -1  -1  18 1207.96   16.30   0
  -1   1  40  715.41   13.07   0
  -1   2  30  568.12   12.38   0
   0   1  53   -1.48    6.54   0
   1  -1  62   37.81    7.36   0
  -1   2  33    1.55    4.75   0
   0  -3  45   -1.75    6.83   0
   1  -5  39    5.58    6.98   0
   1  -3  58  106.82    8.90   0
   2  -5  55   12.93    7.35   0
   3  -7  43    2.33    6.74   0
  -1  -1  39   -4.11    6.37   0
   0  -1  55    4.49    7.29   0
   1  -5  15   11.95    5.48   0
   2  -6  44  198.70    9.57   0
  -1   2  36  849.59   14.57   0
   0  -2  53    7.10    7.48   0
   1  -4  53   -5.62    6.77   0
  -1  -1  15    1.73    5.13   0
  -1  -1  42  312.02   10.03   0
  -1   0  44  390.58   10.01   0
  -1   1  43   -1.77    5.93   0
   0  -4  28  565.45   11.87   0
   0  -3  48  181.06    9.61   0
   3  -7  46   43.25    7.27   0
  -1  -2  28 1328.19   16.20   0
  -1  -2  31   -3.63    6.25   0
   0  -4  25    0.13    5.09   0
   0   0  57    0.06    6.05   0
   1  -2  63   -2.56    6.69   0
   1   0  64   72.93    8.04   0
   2  -6  47   -1.36    7.31   0
  -1  -2  25    0.09    5.08   0
  -1  -2  34  580.81   11.91   0
  -1   2  39   -1.49    5.12   0
   0  -4  22  671.65   12.60   0
   0   1  56  190.44    8.93   0
   1  -3  61   -2.36    7.17   0
   1  -1  65    0.81    7.57   0
   2  -5  58   84.31    7.71   0
  -1  -2  22  461.18   10.72   0
  -1  -2  37   -3.23    6.61   0
  -1  -1  45    3.13    6.56   0
  -1   0  47   -4.76    6.46   0
  -1   1  46   93.73    7.60   0
   0  -4  37   -1.79    5.73   0
   0  -1  58  133.44    9.11   0
   1  -4  56   99.54    9.02   0
   0  -4  19    2.19    5.61   0
   0  -4  40  403.11   10.96   0
   0  -3  51   -7.90    6.57   0
   0  -2  56   96.00    7.94   0
   2  -6  50   96.12    8.30   0
  -1  -2  40  466.91   11.28   0
  -1   2  42  316.14    9.85   0
  -1  -2  19    0.82    4.70   0
  -1  -1  48  303.30   10.10   0
   0  -4  43    1.98    7.24   0
   0   0  60  155.89    8.83   0
   1  -2  66   44.19    7.50   0
  -1  -2  43    5.11    6.82   0
  -1   0  50  240.98    8.95   0
  -1   1  49   -3.13    5.89   0
   0  -3  54   74.79    8.91   0
   1  -4  59   11.74    7.68   0
   1  -3  64   56.56    8.45   0
   0  -4  16 1425.54   17.56   0
   0  -2  59   -2.92    7.32   0
   0  -1  61    2.89    7.34   0
   2  -6  53    9.31    6.46   0
  -1  -2  16 2014.42   20.60   0
  -1   2  45    1.41    5.63   0
   0  -4  46  135.82    8.02   0
  -1  -2  46  122.84    7.71   0
  -1   0  53   -6.83    7.08   0
   2  -4  21   -1.39    5.70   0
   3  -7   7    0.50    5.54   0
   4  -7  20  411.26   10.85   0
   5  -8  19    3.70    7.07   0
   6  -7  31    0.70    6.84   0
   3   0  27    0.73    5.20   0
   5  -6  32  349.54   10.00   0
   7  -9  22   44.52    7.74   0
   7  -6  37    0.36    7.62   0
   1  -4   8 2629.09   24.27   0
   2  -5  16 1755.37   18.79   0
   2   0  23   -2.58    4.51   0
   4  -8   9   -2.62    6.77   0
   6  -6  36  143.04    9.29   0
   7  -8  30   51.96    7.86   0
   7  -5  39   -4.33    7.31   0
   1  -2  18 1244.27   16.43   0
   3  -5  26  599.14   11.47   0
   4  -6  28  388.31   10.18   0
   7  -7  35    4.94    7.62   0
   2  -6   5    2.68    4.99   0
   3  -7  10  367.58   10.26   0
   3  -2  32 1120.38   15.57   0
   4  -4  35   -4.87    6.55   0
   5  -3  38   92.61    7.19   0
   5  -2  37    5.12    6.48   0
   6  -9  18  161.20    8.96   0
   6  -3  39    8.93    7.16   0
   1  -3  16 1999.10   19.89   0
   2  -3  26  517.34   10.61   0
   3  -6  21   -1.86    5.40   0
   3  -1  31   -0.73    5.49   0
   4  -5  33    8.36    6.08   0
   5  -8  22  107.16    8.57   0
   5  -5  37   -3.01    6.99   0
   6  -4  40  219.74    9.74   0
   3  -4  31    3.71    6.63   0
   4  -8  12  224.61    9.15   0
   4  -7  23    6.32    6.85   0
   4  -2  36  352.39   10.48   0
   5  -7  30  154.23    9.31   0
   6  -7  34  144.62    9.03   0
   1  -4  11   12.18    5.08   0
   2  -6   8  821.91   14.34   0
   2  -4  24 1781.97   18.42   0
   2  -1  27    1.74    5.09   0
   3  -3  33    3.92    6.19   0
   4  -3  37    0.36    6.56   0
   5  -6  35    0.46    7.07   0
   7  -4  41   -4.95    7.31   0
   2  -5  19    4.76    5.77   0
   2  -2  28 1117.66   14.86   0
   3  -7  13    3.67    6.07   0
   6  -9  21    2.92    7.17   0
   7  -8  33   -0.62    7.25   0
   1  -1  20 1519.65   18.27   0
   3  -5  29   -6.14    6.31   0
   4  -6  31    4.32    6.68   0
   6  -6  39    4.01    7.85   0
   4  -8  15    4.30    6.44   0
   4  -1  35    4.22    6.00   0
   5  -8  25    3.50    7.23   0
   7  -7  38   27.00    7.12   0
   7  -5  42   82.62    7.99   0
   1  -2  21   12.31    5.19   0
   4  -7  26  125.66    8.45   0
   1  -3  19   -0.16    4.55   0
   2  -6  11   -1.81    5.41   0
   2  -3  29   -2.75    5.99   0
   4  -5  36  454.17   10.87   0
   4  -4  38  118.25    7.55   0
   5  -7  33    2.47    7.53   0
   5  -5  40  188.73    9.57   0
   5  -3  41    1.88    7.22   0
   6  -7  37  -11.46    7.71   0
   1  -4  14  647.60   11.89   0
   3  -7  16  381.36   10.36   0
   3  -4  34  478.37   11.13   0
   3  -2  35    1.74    5.20   0
   6  -9  24  143.07    8.22   0
   6  -4  43   -1.98    7.63   0
   6  -3  42  134.10    8.91   0
   2  -4  27   -4.32    5.20   0
   2   0  26 1230.99   17.41   0
   3   0  30  292.31    9.72   0
   4  -8  18  167.27    8.75   0
   5  -6  38  121.14    9.10   0
   5  -2  40  392.85   11.48   0
   3  -3  36  493.36   11.44   0
   3  -1  34  589.10   12.17   0
   4  -6  34  152.50    8.90   0
   4  -2  39   -4.73    6.54   0
   5  -4  42  185.08    8.57   0
   2  -6  14  250.59    8.92   0
   2  -2  31    2.74    4.98   0
   3  -5  32  643.62   12.04   0
   5  -9  17    5.06    6.09   0
   5  -8  28  149.35    8.39   0
   6  -6  42  113.89    8.98   0
   7  -4  44  125.08    8.55   0
   1  -5   3    9.83    4.91   0
   2  -1  30  539.35   11.08   0
   3  -7  19    0.09    5.88   0
   6  -5  44  133.03    8.97   0
   1  -3  22  467.30   10.55   0
   1  -1  23   -0.08    4.27   0
   5  -7  36  138.01    9.04   0
   6  -9  27    0.35    6.45   0
   7  -5  45    4.09    6.89   0
   1  -5   6  803.88   14.54   0
   1  -2  24 1880.34   18.84   0
   4  -8  21    7.27    6.68   0
   4  -4  41    0.43    6.93   0
   6  -8  35    0.59    6.43   0
   6  -7  40  162.40    9.09   0
   2  -6  17   -1.39    5.86   0
   2  -4  30  191.59    8.56   0
   2  -3  32 1165.07   14.92   0
   3  -4  37   -4.02    6.65   0
   4  -1  38  155.61    8.31   0
   5  -9  20   91.92    7.44   0
   5  -6  41   -2.44    7.78   0
   5  -5  43    3.09    6.41   0
   3  -2  38  307.90    9.82   0
   5  -8  31   -3.92    6.86   0
   5  -3  44  217.72    9.86   0
   1  -5   9    0.11    4.85   0
   3  -7  22  158.28    7.74   0
   3  -5  35    3.73    6.12   0
   4  -6  37    2.45    6.30   0
   5  -4  45    6.99    7.69   0
   6  -4  46   82.29    8.95   0
   6  -3  45   -0.33    6.82   0
   3  -3  39   -3.22    5.76   0
   4  -8  24  296.70   10.07   0
   5  -2  43    0.92    6.75   0
   6  -6  45    0.52    7.42   0
   1  -3  25   -7.02    5.68   0
   2  -6  20  602.08   12.20   0
   2  -2  34  265.40    8.48   0
   2   0  29    0.97    4.75   0
   4  -3  43    3.80    5.83   0
   4  -2  42  358.17   10.85   0
   5  -9  23   -4.95    6.31   0
   5  -7  39   -4.99    7.60   0
   1  -5  12  897.01   14.30   0
   2  -5  28  378.67    9.67   0
   2  -1  33    4.80    5.45   0
   3  -1  37    3.38    5.09   0
   3   0  33   -2.47    5.27   0
   4  -5  42  204.37    9.88   0
   6  -7  43    2.76    7.26   0
   6  -5  47   -4.40    7.57   0
   7  -4  47    0.82    7.22   0
   1  -2  27   -0.47    4.83   0
   1  -1  26 1156.80   15.34   0
   2  -4  33   -0.09    6.13   0
   2  -3  35    8.08    6.39   0
   3  -7  25    2.74    6.64   0
   5  -8  34  110.26    8.22   0
   3  -6  33    1.44    7.02   0
   3  -4  40  433.88   10.93   0
   5  -6  44  137.98    8.93   0
   5  -5  46   62.49    8.06   0
   1  -4  23   15.90    5.71   0
   3  -5  38   99.63    7.99   0
   4  -8  27   -1.14    6.87   0
   4  -6  40  227.06    8.91   0
   5  -9  26  129.39    8.78   0
   1  -5  15    5.00    5.36   0
   2  -6  23   -7.45    5.23   0
   3  -2  41    3.08    6.46   0
   5  -3  47   -1.29    7.50   0
   0  -2  14  334.34    9.61   0
   1  -3  28 1299.84   15.82   0
   2  -5  31   -3.90    6.70   0
   4  -1  41   -0.35    5.96   0
   5  -4  48  118.53    9.05   0
   6  -4  49   -1.17    7.16   0
   3  -7  28  345.57   10.42   0
   5  -7  42   74.18    7.67   0
   6  -6  48  123.18    8.04   0
   0  -3   9   -1.15    4.41   0
   1  -5  18  362.46    9.92   0
   1  -2  30  605.66   11.55   0
   2  -4  36  332.61    9.99   0
   3  -6  36  278.41   10.28   0
   4  -8  30   83.47    8.35   0
   4  -5  45    2.26    7.38   0
   4  -3  46   79.98    7.22   0
   6  -5  50   57.00    8.53   0
   1  -4  26  605.43   11.76   0
   1   0  25    3.34    4.51   0
   2  -6  26  355.09   10.35   0
   2  -3  38  310.74    9.60   0
   4  -7  38  107.30    8.38   0
   4  -2  45    2.96    6.59   0
   5  -9  29   -1.18    6.43   0
   2  -1  36  843.67   13.43   0
   2   0  32  619.58   12.63   0
   3  -5  41   -8.49    7.32   0
   3  -4  43   -2.10    7.41   0
   3  -1  40  456.75   11.26   0
   4  -6  43   -2.11    7.81   0
   5  -6  47    3.32    7.64   0
   0  -3  12 2490.62   23.06   0
   0  -2  17   -2.85    4.18   0
   2  -5  34  411.13   10.87   0
   3  -7  31    0.13    7.12   0
   1  -5  21    1.70    5.55   0
   1  -3  31   -3.67    5.28   0
   2  -7  15    0.23    6.39   0
   2  -6  29    5.06    6.69   0
   3  -8  20  206.23    8.92   0
   3  -2  44  306.69   10.23   0
   4  -8  33    1.80    6.69   0
   5  -7  45   -8.79    7.73   0
   1  -4  29    0.73    5.28   0
   2  -4  39    2.71    7.00   0
   3  -6  39   -9.81    7.63   0
   5  -4  51    8.47    7.16   0
   5  -3  50  161.71    9.02   0
   6  -4  52   98.93    8.61   0
   0  -2  20 3512.08   25.95   0
   0  -1  19    2.01    5.01   0
   1  -2  33    0.37    5.14   0
   4  -7  41   -5.86    7.41   0
   4  -5  48  113.02    8.75   0
   1  -5  24  872.09   13.92   0
   2  -3  41    6.84    5.85   0
   3  -8  23    0.30    7.28   0
   3  -7  34  153.23    8.94   0
   4  -6  46  102.33    8.58   0
   4  -3  49    3.30    6.45   0
   1   0  28 1277.13   16.94   0
   2  -5  37   -1.40    5.97   0
   2  -1  39    3.96    5.87   0
   3  -4  46   81.25    7.30   0
   4  -4  50  133.88    8.99   0
   5  -6  50   58.11    7.42   0
   5  -5  52  124.69    9.34   0
   1  -3  34  572.57   11.13   0
   2  -7  21    0.32    6.28   0
   2  -6  32  330.93   10.39   0
   3  -1  43    2.73    5.98   0
   4  -8  36  109.74    8.07   0
   4  -2  48  270.99   10.20   0
   1  -4  32  840.97   13.06   0
   2   0  35   -2.59    5.16   0
   0  -3  21   -0.82    5.37   0
   0  -2  23    1.11    4.60   0
   1  -5  27    4.98    6.18   0
   2  -4  42  367.73   10.81   0
   3  -8  26  151.77    8.21   0
   3  -6  42  129.33    7.93   0
   4  -7  44  115.02    8.70   0
   0  -4   7   -2.48    4.34   0
   0  -4  10  389.32   10.32   0
   1  -6  13    2.55    5.69   0
   2  -2  43   -0.45    6.44   0
   3  -7  37    9.89    6.98   0
   3  -3  48  285.76    9.61   0
   3  -2  47   -0.87    7.01   0
   2  -5  40  396.82   10.90   0
   2  -3  44  312.22   10.06   0
   4  -6  49    5.66    7.23   0
   4  -5  51    1.24    6.96   0
   5  -4  54   38.58    7.66   0
   5  -3  53    6.40    8.18   0
   0  -4  13   -1.25    4.20   0
   1  -3  37   -6.68    6.68   0
   3  -5  47   -3.86    6.50   0
   3  -4  49   -3.49    7.44   0
   4  -8  39    5.07    6.65   0
   4  -3  52  168.87    9.66   0
   0  -4  16 1433.80   17.57   0
   0  -3  24 1059.47   14.72   0
   0  -2  26 1257.81   15.36   0
   1  -4  35    7.33    5.66   0
   1   0  31   -0.36    4.92   0
   3  -8  29    5.15    7.00   0
   4  -4  53    4.47    7.96   0
   0  -1  25    0.89    4.43   0
   1  -6  19   -1.68    5.70   0
   2  -7  27   -3.86    6.88   0
   2  -1  42  321.91   10.08   0
   3  -6  45   -2.03    7.45   0
   5  -5  55   -1.80    6.96   0
   2  -4  45    0.88    7.19   0
   3  -7  40  114.68    8.60   0
   4  -7  47   -4.10    7.14   0
   4  -2  51   -0.32    7.16   0
   0  -4  19   -2.39    4.60   0
   1  -6  22  189.65    8.51   0
   1  -2  39    5.09    5.56   0
   2   0  38  230.17    8.71   0
   3  -1  46  113.16    8.01   0
   0  -3  27   -4.65    5.03   0
   0  -2  29    0.64    5.44   0
   2  -7  30   71.00    7.67   0
   2  -5  43   -6.31    6.25   0
   2  -2  46  236.51    9.51   0
   3  -8  32  172.82    9.06   0
   3  -3  51   -3.30    6.82   0
   0  -4  22  662.33   12.13   0
   0  -1  28 1387.76   16.60   0
   0   0  21   -1.34    3.96   0
   1  -4  38  165.55    7.89   0
   1  -3  40  445.34   10.56   0
   1  -1  38  236.68    8.14   0
   2  -3  47    0.90    6.14   0
   3  -5  50  143.91    8.43   0
   3  -2  50  144.00    8.89   0
   4  -6  52   96.59    8.70   0
   4  -5  54   38.47    7.36   0
   1  -6  25   -1.26    6.14   0
   3  -4  52  171.52    9.27   0
   5  -4  57    6.93    6.85   0
   1   0  34  876.87   13.76   0
   3  -6  48  131.37    9.11   0
   4  -3  55   -3.50    7.43   0
   0  -4  25    1.14    5.81   0
   0  -3  30  298.38    8.79   0
   2  -7  33    2.28    6.60   0
   2  -4  48  265.93   10.22   0
   2  -1  45   -1.67    6.23   0
   3  -8  35   -1.25    7.21   0
   4  -4  56   62.34    8.08   0
   1  -6  28  371.48   10.54   0
   1  -2  42  292.34    9.19   0
   2  -5  46   58.86    8.35   0
   0  -1  31   -2.59    4.85   0
   1  -4  41   -3.84    6.12   0
   1  -3  43   12.22    7.00   0
   1  -1  41    0.67    6.07   0
   2  -2  49    1.79    6.65   0
   2   0  41    4.10    5.39   0
   3  -5  53    8.82    7.30   0
   3  -3  54   90.38    8.55   0
   3  -1  49    2.04    6.33   0
   0  -3  33   -1.67    5.41   0
   1  -6  31   -5.65    6.69   0
   2  -7  36  222.94    9.28   0
   3  -8  38   42.93    7.06   0
   0  -5  14  605.88   12.78   0
   1  -5  39   -1.35    6.87   0
   1   0  37    4.28    5.38   0
   2  -6  44  194.37    9.33   0
   3  -6  51   -1.55    6.87   0
   3  -2  53    4.73    6.35   0
   0  -5  11   -2.06    4.91   0
   0  -5  17    0.86    5.36   0
   2  -5  49    3.94    7.91   0
   2  -4  51   -8.84    7.38   0
   0  -5  20  615.75   12.44   0
   0  -1  34  921.10   13.46   0
   1  -4  44  246.49    9.07   0
   2  -1  48  313.34   10.26   0
   4  -4  59    5.55    7.53   0
   4  -3  58   77.82    8.08   0
   0  -3  36  785.38   12.80   0
   1  -6  34  196.98    9.30   0
   1  -3  46  123.79    7.81   0
   2  -7  39    5.62    6.71   0
   0  -5  23    1.27    5.99   0
   1  -5  42  155.74    8.81   0
   1  -1  44  397.36   10.55   0
   3  -5  56   87.31    8.36   0
   0  -4  34  231.15    9.28   0
   0  -2  38  225.32    8.26   0
   2  -6  47    5.02    7.21   0
   2  -2  52  177.23    9.48   0
   2   0  44  637.85   13.11   0
   3  -3  57    1.78    7.17   0
   0  -5  26  197.03    8.72   0
   0  -1  37    1.47    5.95   0
   1   0  40  703.78   13.17   0
   1   1  30  562.05   12.77   0
   3  -6  54   33.60    7.10   0
   3  -4  58   90.48    8.91   0
   0  -3  39    1.51    6.83   0
   1  -6  37    5.40    6.38   0
   1  -4  47    2.73    6.36   0
   2  -7  42  114.08    8.84   0
   2  -5  52  136.87    8.89   0
   2  -4  54   31.05    7.79   0
   3  -2  56  167.82    9.10   0
  -1  -2  16 2032.02   20.56   0
   0  -5  29    0.70    6.42   0
   1  -3  49    6.18    7.43   0
  -1  -2  19   -3.28    4.39   0
   0  -4  37   10.19    5.91   0
   0  -2  41    0.39    6.26   0
   0   0  33   -1.74    5.23   0
   1  -5  45   -0.59    7.54   0
   2  -1  51   -0.45    6.68   0
  -1  -2  22  450.28   10.07   0
   1  -6  40  187.73    9.36   0
   1  -1  47   -1.81    6.31   0
   2  -6  50   89.69    8.42   0
   4  -3  61    0.64    7.27   0
  -1  -1  15    1.16    4.31   0
  -1  -1  18 1170.56   15.77   0
   0  -5  32  447.54   11.31   0
   0  -1  40  722.11   12.81   0
   2  -3  56  157.02    9.63   0
  -1  -3  17   -0.57    5.29   0
  -1  -3  20  887.75   13.89   0
  -1  -2  25    4.37    4.91   0
  -1  -1  21    9.10    4.67   0
   0  -4  40  417.91   11.13   0
   1  -7  29   -2.30    6.20   0
   1  -4  50  159.50    9.70   0
   1   0  43   -0.87    5.75   0
   1   1  33    3.31    4.93   0
   2  -7  45    3.95    6.86   0
   2  -2  55   -3.56    6.40   0
   3  -3  60  101.07    9.00   0
  -1  -3  14  654.28   12.53   0
  -1  -1  24 1852.09   18.73   0
   0   0  36  579.99   11.77   0
   2  -5  55    8.37    6.89   0
   2  -4  57    8.63    7.51   0
   2   0  47    1.43    5.74   0
   3  -4  61    1.17    7.71   0
  -1  -2  28 1282.39   15.56   0
   0  -5  35  -10.43    6.91   0
   0  -2  44  668.53   12.94   0
   1  -7  32  227.44    9.99   0
   1  -6  43   -2.98    7.48   0
   1  -5  48  171.09    9.07   0
   1  -3  52  243.45    9.61   0
  -1  -3  11   12.23    4.87   0
  -1  -1  27    2.03    4.87   0
   2  -8  37    0.99    7.40   0
   2  -6  53    0.45    7.79   0
   3  -2  59    6.06    6.89   0
  -1  -2  31    6.40    6.02   0
   0  -4  43   -0.63    7.26   0
   0  -3  45   -2.66    6.26   0
   1  -1  50  261.42    9.78   0
   2  -1  54   89.56    9.00   0
  -1  -3  29    0.37    5.34   0
  -1  -1  30  586.14   11.44   0
   0  -6  21   -1.63    6.45   0
   0  -5  38  172.18    8.83   0
   1  -7  35    5.29    7.11   0
   1  -4  53    4.16    7.58   0
   2  -3  59   13.33    7.69   0
  -1  -3   8 2591.99   25.33   0
   0  -6  24  438.49   11.16   0
   0   0  39    3.70    5.71   0
   1  -5  51    1.71    7.87   0
   1   0  46  105.51    7.65   0
   1   1  36  831.72   14.65   0
   2  -2  58   86.39    8.52   0
  -1  -3  32  842.55   13.67   0
  -1  -2  34  582.47   11.23   0
   0  -6  27   -4.44    6.41   0
   0  -2  47   -4.51    6.15   0
   0   1  26 1121.27   16.80   0
   1  -6  46   63.41    8.30   0
   1  -3  55    0.46    7.65   0
   1  -2  54   94.02    8.81   0
   2  -5  58   79.70    7.60   0
  -1  -4  18  371.62   10.15   0
  -1  -4  21    6.36    5.77   0
  -1  -1  33    1.28    5.15   0
   0  -4  46  135.33    9.25   0
   0  -3  48  187.72    9.62   0
   1  -7  38   37.86    7.63   0
   2  -4  60   80.60    7.88   0
   3  -3  63    3.01    7.43   0
  -1  -4  15    8.39    5.40   0
  -1  -4  24  864.06   13.60   0
  -1   0  20 1522.39   18.10   0
  -1   0  23    2.84    5.19   0
   0  -6  30  104.67    8.13   0
  -1  -4  27    5.69    6.34   0
  -1  -3  35    0.28    5.70   0
  -1  -2  37    8.75    5.57   0
  -1   0  26 1209.94   15.89   0
   0   1  29    2.58    4.51   0
   1  -4  56  111.06    9.48   0
   1  -1  53    3.43    7.16   0
  -1  -4  30  290.55    9.68   0
  -1  -1  36  882.48   13.29   0
   0  -6  33   -4.30    6.82   0
   0   0  42  712.17   12.49   0
   1  -5  54   39.88    8.13   0
   1   1  39   -3.84    5.62   0
  -1  -4  12  868.51   14.70   0
  -1  -3  38  163.27    8.66   0
  -1   0  29   -5.16    5.43   0
   0  -2  50  171.87    8.45   0
   1  -7  41   -4.97    6.68   0
   2  -3  62   33.43    7.88   0
   2  -1  57    2.59    7.04   0
  -1  -4  33    4.80    6.64   0
   0  -4  49   -4.77    6.88   0
   0  -3  51   -5.68    8.01   0
   0   1  32 1637.33   19.25   0
   1  -2  57   -0.21    7.79   0
   1   0  49    0.58    6.29   0
   2  -2  61    0.59    7.55   0
  -1  -1  39    7.74    6.13   0
  -1   0  32 1723.16   18.40   0
   0  -6  36  179.86    9.24   0
   0  -1  49    1.60    6.00   0
   0   0  45    3.00    6.25   0
   1  -7  44   97.11    8.84   0
  -1  -4   9   -0.23    4.68   0
  -1  -3  41   -3.12    6.20   0
   0  -6  39    8.81    7.51   0
   0   1  35    0.36    5.09   0
   1  -4  59    5.34    7.53   0
   1  -1  56  178.38    9.67   0
  -1  -2  43    5.02    6.01   0
  -1   0  35    3.50    5.00   0
   0  -4  52  125.85    9.07   0
   0  -2  53    0.14    6.29   0
   1  -5  57   -0.35    6.77   0
  -1  -1  42  304.86    9.15   0
   0  -3  54   79.59    8.01   0
  -1  -5  22  209.37    9.25   0
  -1  -5  25    4.87    6.34   0
  -1  -3  44  268.30    9.38   0
   0  -6  42  113.10    8.90   0
   0  -1  52  267.87    9.38   0
   1  -2  60  137.18    8.93   0
   1   0  52  266.79    9.97   0
  -1  -5  19    2.61    6.30   0
  -1  -5  28  392.56   10.70   0
  -1  -2  46  116.35    8.45   0
   0  -5  50   58.78    8.01   0
   0   0  48  424.16   11.22   0
   0   1  38  240.45    8.82   0
   2  -2  64   75.73    9.12   0
  -1  -5  31    0.94    6.59   0
  -1  -1  45   -3.28    6.88   0
  -1  -3  47   -5.94    7.85   0
   0  -4  55   -8.17    7.78   0
  -1  -5  34  212.29    9.51   0
   0  -6  45   -3.69    7.03   0
   0  -3  57    5.91    7.21   0
   1  -1  59    0.65    7.36   0
  -1  -4  45    8.71    7.33   0
  -1  -2  49   -0.45    7.41   0
   0  -5  53    5.34    7.07   0
   0  -1  55    6.59    7.34   0
   0   1  41    1.84    5.48   0
  -2  -2  24 1737.11   18.11   0
  -2  -2  27   -0.26    5.18   0
  -1  -5  37    3.69    7.43   0
  -1  -1  48  321.51   10.18   0
   0   0  51    6.00    6.60   0
   1  -3  64   61.59    7.83   0
   1  -2  63    3.64    7.17   0
   1   0  55    3.83    6.26   0
  -2  -2  30  195.06    7.99   0
  -2  -1  23   -2.95    5.62   0
  -2  -1  26  529.81   10.69   0
  -2  -1  29    5.71    6.13   0
  -1  -3  50  174.98    9.61   0
   0  -6  48  109.07    8.59   0
  -2  -2  33    0.75    5.54   0
  -2  -1  20 1437.60   17.13   0
  -2  -1  32 1180.32   15.41   0
  -1   1  28 1232.80   16.19   0
   0  -4  58   70.34    8.51   0
  -2  -3  25   -3.06    6.01   0
  -2  -3  28  373.57   10.43   0
  -2  -2  36  367.50   10.29   0
  -1  -4  48  191.65    9.00   0
  -1  -2  52  251.03   10.31   0
  -1   1  31    1.48    4.45   0
   0  -3  60  128.81    9.21   0
   0   1  44  408.23   10.91   0
  -2  -3  22  276.42    8.71   0
  -2  -1  35    0.41    5.58   0
  -1   1  34  881.40   14.14   0
   0  -1  58  136.96    9.21   0
   1  -1  62   31.83    7.96   0
  -2  -3  19   -3.64    5.78   0
  -2  -2  15   -2.04    5.11   0
  -2  -2  39    8.47    6.65   0
  -2  -1  17    6.45    4.68   0
  -1  -5  43    6.36    7.86   0
  -1  -3  53    2.94    7.71   0
  -1   0  47   -4.36    6.79   0
   0   0  54   29.98    7.40   0
  -2  -1  38  322.18    9.28   0
  -1  -4  51   11.04    7.46   0
  -2   0  25    0.48    5.65   0
  -2   0  28 1117.79   15.12   0
  -1  -2  55    2.49    8.15   0
  -1   1  37    3.49    4.82   0
   0  -2  62   38.38    8.21   0
  -2  -3  16 1743.90   19.50   0
  -2  -3  40  423.65   11.39   0
  -2  -2  42  353.42   10.04   0
  -2  -1  14 1535.87   18.33   0
  -2  -1  41   -3.06    5.95   0
  -2   0  31   -0.18    5.13   0
   0  -3  63    1.14    7.30   0
   0   1  47    4.15    5.92   0
  -2  -2  12  735.04   13.34   0
  -2   0  22 1905.08   19.13   0
  -2   0  34  264.46    8.54   0
  -1  -3  56  110.70    9.33   0
  -1   0  50  238.25    9.78   0
  -1   1  40  710.01   13.07   0
  -2  -4  29    2.97    6.69   0
  -2  -4  32  347.67   10.65   0
  -2  -2  45   -1.03    7.04   0
  -2   0  37   -7.30    6.03   0
  -1  -6  35    3.69    7.49   0
  -1  -4  54   42.55    7.85   0
   0  -1  61    5.23    7.09   0
  -2  -4  23    3.12    6.04   0
  -2  -4  35    2.19    7.30   0
  -2  -3  43    9.38    6.30   0
  -2  -1  44  321.09    9.75   0
  -2   0  19    4.03    4.53   0
  -1  -5  49   -0.08    7.70   0
   0   0  57    3.20    6.68   0
   1  -1  65    1.28    6.61   0
  -2  -3  13    0.09    5.19   0
  -2   0  40  770.81   13.10   0
  -1  -6  38   45.99    7.05   0
  -1  -2  58   88.73    8.53   0
  -1   1  43   -3.29    6.13   0
  -2  -4  20  601.60   12.65   0
  -2  -4  38   82.94    8.45   0
  -2  -3  46   46.90    7.96   0
  -2  -2  48  285.77   10.55   0
  -2  -1  47    4.83    7.49   0
   0  -2  65   -0.90    7.16   0
   0   1  50  254.13    9.61   0
  -2   0  16 2951.31   24.92   0
  -1  -6  41   -0.88    6.59   0
  -1  -4  57    6.05    7.27   0
  -1  -3  59   -8.48    7.66   0
  -1   0  53    6.81    6.38   0
  -2  -4  41  -14.11    6.26   0
  -2   0  43    8.21    5.82   0
   1  -4  44  257.70   10.47   0
   2  -2  37    3.19    5.62   0
  -2  -6  19   -2.99    7.58   0
  -2  -4  26  378.78   10.29   0
  -2  -3  25   -5.65    5.83   0
  -2  -2  21   -0.71    6.21   0
   1  -7  44   93.55    8.72   0
   1  -1  29    0.79    5.04   0
  -2  -1   8 3173.59   27.21   0
  -1  -4  36  295.30    9.99   0
   0  -2  35    3.06    5.88   0
  -1  -3  35   -4.70    6.94   0
  -1  -2  31   -1.50    6.14   0
   0  -1  28 1304.78   17.47   0
   2  -5  49    3.91    8.06   0
   3  -6  51    4.59    7.77   0
  -2  -6  22   98.30    8.91   0
  -2  -1  11    9.29    4.80   0
  -1  -6  35    5.20    7.77   0
  -1  -5  37    5.27    8.24   0
   0  -6  42  117.62    8.84   0
   2  -6  50   84.61    9.85   0
  -2  -4  29    1.11    6.40   0
  -2  -2  24 1860.75   19.08   0
  -1  -1  24 1800.65   19.21   0
   0  -7  40  136.23    8.40   0
   1  -3  43    1.08    5.87   0
   2  -3  44  294.15   10.58   0
  -3  -4   4  607.90   12.90   0
  -3  -4   7    5.40    6.10   0
  -3  -3   3   10.18    5.54   0
  -3  -3   6  428.14   11.04   0
  -3  -3   9   -1.14    5.88   0
  -2  -1  14 1654.67   18.69   0
   0  -5  44  150.69    9.88   0
   1  -5  48  177.27   10.10   0
   2  -4  48  258.65   10.73   0
  -3  -4  10  346.82   10.56   0
  -2  -6  25    3.45    7.60   0
  -1  -4  39    0.01    7.91   0
   1  -4  47   -0.04    7.98   0
   1  -2  39    1.15    6.00   0
  -3  -4  13    8.36    6.29   0
  -3  -3  12  713.00   12.75   0
  -2  -7  17   -3.09    7.62   0
  -2  -5  30   83.40    8.80   0
   0  -3  42  303.36   10.48   0
  -3  -3  15    1.98    6.19   0
  -2  -4  32  317.66   10.77   0
  -2  -3  31    6.34    7.23   0
  -2  -2  27    5.55    6.51   0
  -2  -1  17   11.06    4.90   0
  -1  -6  38   50.93    8.54   0
  -1  -5  40  191.02    9.81   0
  -1  -3  38  167.29    9.18   0
  -1  -2  34  573.70   12.21   0
   0  -6  45   -1.51    7.91   0
   0  -2  38  230.20    9.37   0
   1  -6  49    0.78    8.02   0
  -3  -4  16  391.94   11.10   0
  -2  -6  28  153.82    9.00   0
  -1  -1  27   -0.15    4.87   0
   0  -1  31    3.04    5.32   0
   1  -1  32 1688.82   21.28   0
   2  -2  40  734.23   15.18   0
  -3  -5  11    1.93    6.84   0
  -3  -3  18  388.64   10.66   0
  -2  -7  20   99.75    8.49   0
  -3  -5  14  137.79    8.80   0
  -3  -4  19   -1.96    6.83   0
  -3  -2   5    4.22    5.22   0
  -3  -2   8 2115.91   21.06   0
  -3  -2  11    1.17    5.57   0
  -2  -5  33   -0.60    7.71   0
  -2  -1  20 1456.11   17.36   0
   2  -6  53    2.24    8.49   0
   2  -5  52  111.62    9.36   0
  -3  -2   2  777.39   14.28   0
  -2  -7  23   -3.15    6.57   0
  -1  -4  42  161.25    9.52   0
   1  -3  46  127.74    8.79   0
  -3  -5  17    0.33    6.86   0
  -3  -4  22  162.16    9.12   0
  -3  -2  14  352.76    9.50   0
  -2  -4  35    4.92    6.75   0
  -2  -3  34  425.89   11.53   0
  -2  -2  30  185.73    8.21   0
   1  -5  51   10.59    7.90   0
   2  -3  47    6.38    6.52   0
  -1  -5  43  -10.96    7.58   0
  -1  -3  41    1.47    6.42   0
  -1  -2  37   -0.60    5.81   0
  -1  -1  30  585.58   11.97   0
   0  -3  45   -1.21    7.04   0
   1  -4  50  160.40    9.45   0
   2  -4  51   -2.70    7.16   0
  -3  -5  20  197.23    9.39   0
  -3  -2  -1    1.56    4.98   0
  -2  -5  36  229.52   10.30   0
  -2  -1  23    5.31    5.10   0
   0  -6  48   97.56    7.89   0
   0  -2  41    5.54    6.63   0
   1  -2  42  308.32   10.43   0
  -3  -4  25   10.38    7.37   0
   0  -1  34  934.67   14.94   0
  -3  -5  23   -4.38    7.52   0
  -3  -2  20  559.82   11.23   0
  -2  -4  38   86.05    8.91   0
  -2  -2  33   -4.96    6.94   0
  -2  -3  37    1.95    6.61   0
  -1  -6  44  105.65    8.56   0
  -1  -4  45    6.59    6.64   0
   0  -5  50   67.36    7.96   0
   0  -4  49   -1.71    6.41   0
   1  -1  35    0.76    5.45   0
  -3  -3  27    5.02    6.02   0
  -3  -2  23    2.12    6.27   0
  -2  -1  26  495.60   10.76   0
  -1  -5  46   57.29    8.40   0
  -3  -5  26  156.96    9.12   0
  -2  -5  39   -0.79    7.08   0
  -1  -3  44  249.69    9.42   0
   1  -5  54   63.46    8.52   0
   1  -3  49   -3.98    6.99   0
  -3  -6  18   76.28    8.05   0
  -2  -6  37    3.66    7.34   0
   0  -3  48  193.58    9.67   0
  -3  -6  21   -4.65    7.35   0
  -3  -3  30  178.87    9.25   0
  -3  -2  26  587.24   12.14   0
  -2  -4  41    8.50    8.30   0
   0  -2  44  653.36   13.29   0
   1  -4  53   11.45    7.50   0
  -3  -5  29   -0.45    7.65   0
  -2  -3  40  405.69   10.76   0
  -2  -1  29    8.97    5.47   0
   0  -1  37   -2.04    5.80   0
   1  -2  45    6.81    6.31   0
  -3  -6  24  186.78    9.95   0
  -3  -1   7   10.48    5.19   0
  -3  -1  16 2052.78   20.19   0
  -2  -5  42  121.25    9.28   0
  -1  -4  48  190.88    9.63   0
  -1   0  20 1439.88   18.29   0
   0  -5  53    8.11    7.87   0
   0  -4  52  139.95    9.45   0
  -3  -3  33   -9.65    7.54   0
  -3  -2  29   -2.14    6.55   0
  -1  -5  49   -9.11    7.74   0
  -3  -5  32  171.56    9.50   0
  -3  -4  34  156.33    9.67   0
  -3  -1   4 1272.38   17.62   0
  -3  -1  19    7.99    5.07   0
   1  -1  38  256.06    9.82   0
  -3  -6  27    5.80    6.74   0
  -2  -3  43    1.52    8.11   0
  -2  -2  39    3.39    6.33   0
  -2  -1  32 1175.67   15.25   0
  -1   0  23    2.00    5.20   0
  -3  -1  22  339.50    9.15   0
   0  -3  51    6.40    7.30   0
   1  -5  57   -1.16    6.99   0
   1  -3  52  236.86   10.38   0
  -3  -3  36  295.51   10.60   0
  -3  -2  32  681.70   12.42   0
  -2  -5  45   -3.41    7.61   0
  -2   0  13   -2.07    5.21   0
   0  -2  47   -1.23    6.83   0
  -4  -3   8  500.41   12.34   0
  -4  -3  11   -1.57    6.21   0
  -4  -3  14  321.06   10.23   0
  -4  -3  17    5.12    6.55   0
  -3  -4  37   -0.46    7.41   0
  -3  -1   1   13.58    4.79   0
  -3  -1  25   -4.25    6.29   0
  -2   0  16 2955.20   24.87   0
   0  -1  40  709.80   13.61   0
   1  -4  56  107.15    8.81   0
  -4  -4  15    1.62    6.82   0
  -4  -4  18  174.06    9.23   0
  -4  -3  20  405.97   11.29   0
  -2  -1  35   -2.79    6.69   0
  -2   0  19    0.49    5.59   0
  -1  -1  39   -4.27    6.31   0
   0  -4  55    0.96    8.13   0
   1  -2  48  300.91   10.56   0
  -3  -2  35   -5.66    6.86   0
  -2  -4  47   -5.36    7.72   0
  -2  -2  42  374.92   10.40   0
  -1  -3  50  142.29    9.77   0
  -1  -2  46  114.84    7.79   0
   0   0  27    0.42    4.69   0
  -4  -4  21   -5.74    7.49   0
  -4  -3  23   14.89    7.03   0
  -4  -2  13    0.02    5.71   0
  -4  -2  16  708.32   13.14   0
  -3  -3  39   -0.97    7.63   0
  -3  -1  28  674.70   12.07   0
  -2  -3  46   47.08    7.29   0
  -2   0  22 1945.89   19.89   0
  -4  -4  24  281.78   10.40   0
  -4  -2  10  322.12    9.97   0
  -4  -2  19    3.76    6.51   0
  -3  -4  40  124.22    8.85   0
  -4  -3  26  144.58    8.80   0
  -4  -2   7    0.42    5.80   0
  -4  -2  22  330.54   10.16   0
   0  -3  54   69.50    8.71   0
   1  -1  41   -1.00    5.43   0
  -4  -4  27    4.17    7.06   0
  -3  -2  38   84.22    8.09   0
  -3  -1  31    1.63    5.76   0
  -2  -1  38  302.16    9.30   0
  -2   0  25    4.03    4.95   0
  -1  -4  54   65.51    8.33   0
   0  -2  50  180.07    9.44   0
  -2  -4  50  102.68    8.99   0
  -2  -2  45   -5.19    6.21   0
  -1  -1  42  293.17    9.32   0
   0  -1  43   -0.50    6.25   0
   0   0  30  162.72    7.99   0
  -4  -4  30   90.55    8.67   0
  -4  -2   4  823.29   14.49   0
  -3  -4  43  -10.07    7.99   0
  -2  -3  49   -5.33    7.69   0
  -1  -3  53    8.08    7.60   0
  -1  -2  49    7.73    6.24   0
  -4  -5  25   -0.90    6.52   0
  -4  -2  28  392.63   10.75   0
  -2   0  28 1113.91   14.98   0
   0  -4  58   62.01    7.93   0
  -3  -2  41    5.47    7.34   0
  -2  -1  41   -3.29    6.62   0
  -4  -5  28   74.08    7.57   0
  -4  -4  33    0.01    7.21   0
  -4  -1  15    0.73    5.94   0
  -4  -2  31    1.29    6.30   0
  -4  -1  12 1104.42   15.59   0
  -3  -4  46   52.20    8.35   0
  -3  -3  45    4.76    7.13   0
  -3   0  15    2.94    4.70   0
  -3   0  18  518.91   10.77   0
  -2   0  31    3.44    5.95   0
  -1  -4  57    8.03    7.97   0
  -1  -1  45   -2.88    6.89   0
  -4  -3  35   -7.33    6.81   0
  -4  -1  24  622.60   12.38   0
  -3  -1  37   -2.57    6.20   0
  -3   0  12 1918.40   19.84   0
  -3   0  21    4.59    4.93   0
  -2  -4  53    3.42    7.44   0
   0  -3  57    1.38    7.19   0
   0   0  33   -2.38    5.14   0
  -4  -2  34  143.87    9.08   0
  -4  -1   9    7.88    4.83   0
  -3  -2  44  216.94   10.29   0
  -3   0  24 1599.26   17.73   0
  -1  -2  52  253.42   10.27   0
  -1   0  35   -7.93    5.77   0
   0  -2  53    1.23    7.29   0
   0  -1  46  106.21    8.06   0
  -4  -1  27    5.65    6.85   0
  -1  -3  56  108.67    9.51   0
  -4  -3  38  123.28    8.69   0
  -4  -1   6  337.65    9.90   0
  -3  -3  48  138.98    9.45   0
  -3   0  27   -3.55    5.35   0
  -2   0  34  263.43    8.70   0
  -4  -2  37    6.83    7.42   0
  -3  -1  40  451.52   10.83   0
  -3   0  30  544.64   11.42   0
  -1  -1  48  304.86   10.56   0
   0   0  36  590.73   12.76   0
  -4  -3  41    1.11    7.44   0
  -3  -2  47    0.48    8.28   0
  -1   0  38  262.66    9.21   0
  -4  -1  33   -7.82    6.32   0
  -2  -1  47   -5.92    6.81   0
  -1  -2  55   -4.16    7.99   0
  -5  -3  19    9.87    7.80   0
  -4  -2  40  215.27    9.25   0
  -4  -1   3   -1.85    4.93   0
  -3  -3  51    3.03    7.71   0
  -3  -1  43   -4.21    6.49   0
  -3   0  33   -5.84    5.70   0
  -1  -3  59   -6.41    7.93   0
   0  -2  56   95.85    8.82   0
   0  -1  49   -0.39    6.44   0
  -5  -3  16  367.60   10.96   0
  -5  -3  22   96.17    8.32   0
  -4  -1  36  464.38   11.59   0
  -5  -3  25    2.39    7.32   0
  -5  -2  18  147.35    8.77   0
  -5  -2  21   -4.59    7.16   0
  -4  -3  44  116.32    8.81   0
  -2  -2  54   35.46    8.05   0
  -5  -3  28  141.48    8.85   0
  -5  -2  24  401.67   10.68   0
  -4  -2  43   11.89    7.71   0
  -4   0  17   -2.35    5.80   0
  -4   0  20 1227.63   15.88   0
  -3  -2  50  162.45    9.25   0
  -3   0  36  527.73   11.74   0
  -1  -1  51    1.42    6.99   0
  -1   0  41   -3.52    6.37   0
   0   0  39    0.52    5.34   0
  -5  -2  12  370.04   10.65   0
  -5  -2  27   -2.65    6.12   0
  -4  -1  39   -4.48    7.32   0
  -4   0  23   -1.63    5.42   0
  -3  -1  46   82.75    8.37   0
  -2  -3  58   79.90    8.85   0
  -2  -1  50  169.44    9.45   0
  -5  -4  26  130.40    8.49   0
  -5  -3  31    6.85    7.80   0
  -5  -2  30  169.81    9.24   0
  -4   0  26  690.69   12.19   0
  -3  -3  54   41.16    8.45   0
  -5  -4  29    0.46    6.50   0
  -5  -2   9    3.58    5.84   0
  -4  -3  47   -0.85    7.64   0
  -4  -1   0 1298.84   18.57   0
  -4   0  11    1.53    5.43   0
  -4   0  29   -6.11    6.86   0
  -3   0  39   -1.87    7.02   0
  -1  -2  58   98.87    8.91   0
  -5  -3  34  117.70    8.77   0
  -5  -1  17    1.17    6.49   0
  -5  -1  20  481.64   11.62   0
  -5  -1  23    2.26    6.62   0
  -4  -2  46   95.28    8.83   0
  -2   0  43    0.41    6.34   0
   0  -1  52  286.21   10.43   0
  -4  -1  42  212.07    9.06   0
  -4   0  32  441.04   10.44   0
  -3  -2  53    4.75    7.24   0
  -2  -2  57   -1.25    7.39   0
  -1   0  44  414.40   11.25   0
  -5  -3  37   -0.96    7.18   0
  -5  -1  14  367.43    9.99   0
  -3  -1  49  -10.79    6.60   0
   0   0  42  714.16   13.95   0
  -4   0   8 1451.36   17.57   0
  -4   0  35    3.34    6.99   0
  -3   0  42  235.77    9.75   0
  -2  -1  53   -0.55    7.87   0
  -1  -1  54  100.85    8.71   0
  -5  -1  11    4.27    5.95   0
  -5  -1  32  337.01   10.03   0
  -4  -2  49   -4.46    7.89   0
  -4  -1  45    3.83    7.88   0
  -2   1  18 1199.83   16.66   0
  -2   1  21   10.89    4.92   0
  -2   1  24 1792.67   19.23   0
  -5  -3  40  111.43    8.43   0
  -5  -2  39    4.31    7.39   0
  -2   0  46  250.04    9.06   0
  -2   1  27   -4.47    5.62   0
  -5  -1  35   -8.02    6.49   0
  -4   0  38  129.88    7.82   0
  -2   1  15    0.23    5.38   0
  -1  -2  61   -1.34    8.27   0
  -1   0  47   -2.50    6.72   0
  -5  -1   8  765.26   13.79   0
  -4   0   5   -3.22    4.95   0
  -3   1  20 1428.43   16.86   0
  -3   1  23   -0.10    5.16   0
  -3   1  26  523.63   10.94   0
  -2  -2  60   92.41    9.09   0
  -5  -2  42   73.25    8.68   0
  -5  -1  38  113.05    9.00   0
  -4  -2  52   99.19    9.25   0
  -4  -1  48  127.38    9.24   0
  -3   1  17    6.01    4.86   0
  -3   1  29   -5.36    6.03   0
  -1   1  25    1.76    4.26   0
   0   0  45    1.54    5.84   0
  -5   0  19    5.62    6.27   0
  -5   0  25    1.50    6.52   0
  -4   0  41    2.26    6.57   0
  -2  -1  56  159.84    9.76   0
  -1  -1  57   -9.14    7.45   0
  -1   1  28 1264.33   17.26   0
  -5   0  28  608.97   11.92   0
  -3   1  14 1620.13   18.35   0
  -3   1  32 1178.91   15.38   0
  -2   0  49    6.15    6.26   0
  -5  -1   5   -3.40    5.36   0
  -5  -1  41   -8.99    7.07   0
  -5   0  16  670.21   12.18   0
  -5   0  31    2.12    7.28   0
  -3  -1  55    4.28    7.92   0
  -1   1  31    0.58    5.16   0
  -4  -1  51    4.34    7.81   0
  -4   0  44  365.29   11.49   0
  -3   1  35    1.91    6.53   0
  -2   1  36  840.13   13.68   0
  -1   0  50  254.34   10.00   0
  -5   0  13    1.05    5.04   0
  -5   0  34  252.00    9.20   0
  -4   1  22  347.37    9.44   0
  -4   1  25   -1.57    5.48   0
  -4   1  28  703.53   12.85   0
  -3   1  11   10.26    5.53   0
  -6  -2  20  167.97    9.80   0
  -6  -2  23    0.88    6.83   0
  -6  -2  26  167.76    8.97   0
  -5   0  37    5.69    7.90   0
  -4   0   2 1330.10   18.16   0
  -4   1  19    4.59    5.32   0
  -1   1  34  865.80   14.25   0
  -6  -2  29   -6.13    7.33   0
  -4   1  16 2029.76   20.02   0
  -4   1  31   10.28    6.01   0
  -3   1  38  299.11    9.33   0
  -2  -1  59   -6.24    7.69   0
  -2   0  52  162.89    9.21   0
  -2   1  39    3.23    6.29   0
  -6  -2  32  166.06    8.89   0
  -5   0  10  655.33   12.25   0
  -4   0  47   -0.12    6.78   0
  -3   0  51    8.68    6.52   0
  -6  -2  35    4.23    7.75   0
  -6  -1  22  139.19    8.92   0
  -6  -1  25    0.88    6.46   0
  -6  -1  28  142.58    9.13   0
  -5  -1  47  -11.00    7.66   0
  -4  -1  54   40.23    8.26   0
  -3  -1  58   88.81    9.11   0
  -1   1  37   -2.55    5.60   0
  -6  -1  19   -5.87    6.97   0
  -6  -1  31   -1.73    7.68   0
  -4   1  13    5.82    4.93   0
  -4   1  37    2.20    7.12   0
  -2   1  42  320.61   10.32   0
  -1   0  53    4.81    7.00   0
  -6  -1  16  570.08   12.67   0
  -5   0  43   -9.80    8.21   0
  -4   0  50  130.55    9.52   0
  -3   1   8 3215.73   26.79   0
  -5   0   7   -0.56    5.49   0
  -4   1  40  431.54   11.63   0
  -3   0  54   78.21    9.12   0
  -2   0  55   -0.29    7.48   0
  -1   1  40  714.16   13.72   0
  -6  -1  13   -4.08    6.92   0
  -5  -1  50   67.46    7.89   0
  -3   1  44  320.58   10.56   0
  -2  -1  62   27.13    8.36   0
  -5   0  46   77.73    9.05   0
  -5   1  21    2.15    6.54   0
  -5   1  30  160.56    8.09   0
  -3  -1  61   -3.14    7.86   0
  -2   1  45   -2.63    6.84   0
  -6   0  21   -4.07    7.16   0
  -6   0  24  554.92   11.78   0
  -6   0  27   -0.09    6.26   0
  -5   1  33    2.51    6.22   0
  -4   1  43    8.75    7.14   0
   0   1  29    0.47    4.67   0
  -5   1  36  472.39   11.66   0
  -4   0  -1    1.01    4.77   0
  -1   1  43    0.84    6.04   0
  -6  -1  43   -5.34    7.61   0
  -6   0  18  246.42    9.02   0
  -6   0  36  123.62    9.13   0
  -3   0  57    2.39    8.18   0
  -3   1  47   -3.50    6.12   0
   0   1  32 1615.92   21.07   0
  -5   0   4 1106.92   16.53   0
  -5   0  49   -0.64    8.16   0
  -5   1  39    0.28    7.28   0
  -4   1  46   76.16    8.65   0
  -2   0  58   82.92    8.24   0
  -2   1  48  312.42   10.74   0
  -6   0  15    1.72    6.51   0
  -6   0  39    1.01    7.56   0
  -4   1   7    9.26    4.59   0
   0   1  35    2.85    5.36   0
  -6   0  42  120.91    9.04   0
  -5   0  52  138.83    9.78   0
  -5   1  12 1093.37   15.05   0
  -3   1  50  140.54    8.51   0
  -1   1  46  106.14    7.87   0
  -6   0  12  330.88   10.33   0
  -5   1  45    1.20    7.89   0
  -3   0  60  105.23    8.64   0
  -3   2  28 1329.07   16.92   0
  -2   1  51   -1.30    6.82   0
  -6   0  45    4.15    8.23   0
  -6   1  29    0.09    6.53   0
  -6   1  32  369.95   11.18   0
  -4   2  27    2.00    6.88   0
  -4   2  30  199.08    8.78   0
  -3   2  25    6.24    5.35   0
  -3   2  31    2.55    5.50   0
  -2   0  61   -9.29    7.73   0
  -6   1  20  478.88   11.84   0
  -6   1  35   -8.25    7.95   0
  -5   1   9   14.07    5.79   0
  -4   0  59    0.94    7.52   0
  -4   2  24 1814.96   18.71   0
  -4   2  33    9.10    6.03   0
  -3   1  53   -0.70    7.81   0
  -3   2  22  466.80   10.61   0
  -7  -1  27    1.72    6.82   0
  -7  -1  30   45.21    8.09   0
  -6   0   9   -3.23    6.02   0
  -6   1  38  126.40    9.48   0
  -5   0   1    0.28    5.01   0
  -5   0  55    3.44    6.93   0
  -4   1   4 1222.50   17.24   0
  -4   1  52  165.60    9.30   0
  -4   2  21    0.93    5.38   0
  -4   2  36  359.58   10.67   0
  -1   1  49    5.42    6.27   0
  -7  -1  33    0.87    6.88   0
  -6   0  48  131.60    8.59   0
  -6   1  17   -0.29    6.96   0
  -3   2  19    1.77    5.07   0
  -6   1  41    3.71    7.88   0
  -5   2  29    1.66    6.92   0
  -4   2  18 1028.76   14.53   0
  -4   2  39   -6.95    6.28   0
  -3   2  40  456.07   11.73   0
  -2   1  54   90.12    8.82   0
  -2   2  29   -5.35    4.79   0
  -2   2  32  638.18   12.77   0
  -7   0  26  184.83    9.89   0
  -7   0  29   -2.30    7.53   0
  -5   1  51   -5.29    8.10   0
  -5   2  23   -1.68    6.74   0
  -5   2  26  601.91   11.92   0
  -5   2  32  615.58   12.25   0
  -3   0  63   -3.21    7.13   0
  -7   0  23    0.38    7.44   0
  -7   0  32  224.20    9.85   0
  -7   0  35   -8.95    7.86   0
  -6   1  14  389.13   10.70   0
  -6   1  44  150.96    9.60   0
  -5   2  35    6.57    6.46   0
  -4   1  55   -0.83    8.10   0
  -3   1  56  176.36   10.10   0
  -3   2  16 2053.61   20.49   0
  -2   2  35   -0.87    4.95   0
  -6   0   6  351.57   10.63   0
  -5   1   6  348.53    9.63   0
  -5   2  20  558.28   11.46   0
  -5   2  38   90.14    7.85   0
  -4   2  15   -0.44    4.97   0
  -3   2  43    2.80    7.09   0
  -2   2  38  243.46    9.46   0
  -7   0  20  127.47    8.98   0
  -7   0  38   27.25    8.33   0
  -2   2  20 3352.43   26.81   0
  -6   1  47   -0.15    8.07   0
  -5   2  17    2.82    5.93   0
  -5   2  41  -11.95    6.83   0
  -7   0  17   -1.97    6.64   0
  -6   1  11   -1.03    6.39   0
  -4   1  58   95.22    9.26   0
  -3   2  13   14.02    5.94   0
  -3   2  46  120.02    8.84   0
  -2   1  57    1.43    7.39   0
  -2   2  41    1.31    6.32   0
  -7   1  31   -3.29    7.91   0
  -6   2  28  422.53   11.31   0
  -6   2  31    3.53    7.21   0
  -4   2  12  760.40   13.31   0
  -3   1  59   -6.08    7.61   0
  -7   1  25   -2.00    7.37   0
  -7   1  28  141.48    8.29   0
  -6   1  50   70.84    8.87   0
  -6   2  25   -4.25    6.26   0
  -6   2  34  157.20    8.57   0
  -5   2  14  351.24   10.06   0
  -4   1   1   11.66    4.51   0
  -4   2  48  275.45    9.96   0
  -2   2  17    0.21    4.56   0
  -7   1  22  149.58    9.40   0
  -6   2  22  344.27   10.65   0
  -6   2  37   -1.11    6.84   0
  -5   2  47   -4.16    7.82   0
  -3   2  49   -5.83    7.31   0
  -2   2  44  647.60   13.49   0
  -7   1  40  190.58    9.83   0
  -6   2  40  236.00   10.66   0
  -5   1   3    0.03    5.30   0
  -7   1  19    4.71    6.99   0
  -6   1   8  781.79   14.08   0
  -4   1  61    2.43    7.95   0
  -4   2  51   -5.84    8.20   0
  -7   1  43    3.00    7.58   0
  -6   2  43    3.45    7.59   0
  -3   1  62   42.71    8.94   0
  -2   2  47   -0.34    6.51   0
  -1   2  30  575.38   12.62   0
  -4   2   9    0.06    4.84   0
  -3   2  10 2010.21   20.91   0
  -3   2  52  257.36   10.58   0
  -2   2  14  314.63    9.60   0
  -1   2  27    0.90    5.07   0
  -1   2  33    2.97    5.34   0
  -7   1  16  582.32   12.84   0
  -6   2  16  697.12   12.67   0
  -6   2  46   93.10    9.51   0
  -1   2  36  842.97   15.01   0
  -4   2  54   30.80    8.64   0
  -1   2  24 1711.68   20.76   0
  -7   2  33    3.06    7.75   0
  -6   2  49    6.57    8.29   0
  -5   2  53   -4.40    7.28   0
  -2   2  50  186.91    9.62   0
  -1   2  39    1.38    5.48   0
  -7   1  13   -5.18    6.50   0
  -7   2  36  144.19    9.77   0
  -6   1   5    3.94    5.93   0
  -6   2  13   -4.80    6.39   0
  -4   3  29   -3.87    6.80   0
  -4   3  32  871.01   14.31   0
  -3   2  55   -6.47    8.65   0
  -7   2  24  409.79   10.90   0
  -7   2  39   -4.58    8.06   0
  -5   2   8 2143.80   21.30   0
  -5   3  28  379.39   10.32   0
  -5   3  31    6.22    6.47   0
  -5   3  34  403.93   10.84   0
  -5   3  37   -1.57    7.69   0
  -4   3  26  639.40   12.56   0
  -4   3  35    5.37    6.06   0
  -5   3  25    3.15    6.05   0
  -1   2  21    8.74    4.33   0
   4   4  18  179.30    9.40   0
   7  -4  -4  626.81   12.36   0
   8  -4  -6  182.30    8.67   0
   8  -2   7  -10.45    7.35   0
   9  -3  -3   -2.87    6.90   0
   9  -1   4  161.06    8.97   0
   4  -3   1   12.95    5.05   0
   5   4  16  293.03   10.42   0
   6  -3   6  431.00   10.55   0
   7   1  15    6.88    6.99   0
   8   0  11   -0.55    7.27   0
   8   1  10   70.73    7.45   0
   3   3  21   -0.15    6.16   0
   5  -3   5    6.11    5.38   0
   6  -1  16  594.16   11.88   0
   6   0  18  359.16   10.54   0
   7  -1  14  131.55    7.76   0
   7   2  14  113.97    8.31   0
   4   0  19    8.34    6.12   0
   7   0  16  481.91   12.11   0
   2   0  14  322.99    9.12   0
   3  -1  13   13.75    4.70   0
   5   2  21   -8.89    7.16   0
   6   2  19    2.59    7.52   0
   7  -3   7    0.50    6.41   0
   7  -2  12  472.03   11.10   0
   9  -3   0  306.88    9.86   0
   5  -2  13    6.70    5.97   0
   5   0  20  634.69   11.84   0
   5   3  20  209.54    9.70   0
   6  -4  -2  577.23   11.94   0
   7  -4  -1   -0.39    5.72   0
   8  -4  -3   -1.51    6.31   0
   8  -3   5   -2.56    6.00   0
   8  -1  12  162.08    8.56   0
   9  -1   7    7.25    7.08   0
   1   2  17    6.79    4.39   0
   3   0  18 1298.50   16.15   0
   3   2  22  256.59    9.22   0
   8  -2  10  165.36    8.54   0
   8   1  13   12.51    7.53   0
   5  -1  18  375.69    9.54   0
   6   3  18   79.90    8.11   0
   8   0  14  107.02    8.41   0
   4  -1  17   -2.83    4.92   0
   4   2  23   -3.02    5.52   0
   6  -3   9    8.52    5.93   0
   7  -1  17    6.53    7.40   0
   7   2  17   10.97    7.08   0
   9  -4  -5    7.55    6.53   0
   4  -2  12  782.50   12.89   0
   9  -3   3    4.71    6.77   0
   1   3  19    7.40    4.50   0
   2   2  21    2.55    4.28   0
   6  -1  19    0.07    6.03   0
   7   0  19   -3.54    6.42   0
   8  -3   8  447.28   11.24   0
   8  -1  15    4.05    7.80   0
   9  -1  10   86.69    7.97   0
   3  -2   8 3179.63   26.12   0
   4  -3   4 1298.30   17.08   0
   5  -3   8 2126.59   20.00   0
   7  -4   2  236.93    8.82   0
   7  -2  15    3.36    6.14   0
   8  -2  13    7.06    7.14   0
   5  -4  -3    7.92    4.96   0
   5   2  24  309.30   10.59   0
   6  -4   1    3.74    5.34   0
   6   2  22   98.18    8.45   0
   9  -4  -2  162.35    8.68   0
   4   0  22  659.09   11.90   0
   5   0  23   -4.79    6.84   0
   5   3  23    6.77    7.27   0
   8   0  17   -1.03    7.33   0
   9  -3   6  165.49    8.92   0
   5  -2  16 1778.78   17.86   0
   6  -2  17    1.65    5.63   0
   8  -4   3    4.83    6.63   0
   2   3  23    3.02    5.27   0
   3  -1  16 2084.88   20.02   0
   3   1  23    5.90    4.85   0
   6   3  21    0.98    7.30   0
   7  -1  20  243.52    9.83   0
   7   2  20  129.25    8.45   0
   9  -2  11   -2.72    6.82   0
   4   3  25    3.45    6.58   0
   5  -1  21    6.12    5.67   0
   8  -3  11   -9.21    7.38   0
   9  -4   1    5.60    6.88   0
   9  -1  13    6.94    6.36   0
   3   0  21   -5.18    5.43   0
   3   2  25    0.85    5.86   0
   4   2  26  355.51   10.76   0
   6  -1  22  216.92    9.36   0
   6   0  24  452.89   11.58   0
   7  -4   5    1.83    5.43   0
   7  -2  18  378.29   10.78   0
   7   0  22   95.96    7.63   0
   8  -2  16  341.39   10.71   0
   8  -1  18  116.05    8.51   0
   2   0  17    0.12    4.14   0
   4  -1  20  895.60   13.17   0
   6  -4   4  873.31   14.07   0
   9  -3   9   -3.84    6.87   0
   4  -2  15   -2.88    4.67   0
   5  -4   0 1378.53   18.02   0
   8  -4   6  194.00    8.84   0
   8   0  20  108.49    8.62   0
   4  -3   7    9.19    4.90   0
   6   2  25    0.35    7.51   0
   9  -2  14  130.77    8.93   0
   5   2  27    5.79    7.06   0
   6   1  26  242.48   10.22   0
   7   1  24  217.61    9.74   0
   9  -4   4  128.21    8.46   0
   2   2  24 1712.29   19.36   0
   3  -2  11   10.08    4.98   0
   4   0  25    4.99    6.20   0
   5  -2  19    2.81    6.24   0
   5   0  26  215.99    9.21   0
   5   3  26  160.06    9.13   0
   6   3  24  188.84   10.01   0
   7  -4   8  538.75   11.72   0
   7  -1  23    2.96    7.37   0
   7   2  23    7.14    6.81   0
   1   2  20 1373.01   18.51   0
   4   1  27    4.97    5.55   0
   8  -2  19   -1.40    7.18   0
   8  -1  21   -2.75    7.72   0
   9  -3  12  138.12    8.47   0
   3   3  27   -1.21    6.05   0
   5  -1  24  888.39   13.42   0
   5   1  28  377.46   11.12   0
   6  -4   7   -3.29    5.57   0
   7  -2  21   11.28    6.89   0
   7   0  25   -4.73    7.14   0
   6  -1  25    6.56    7.31   0
   6   0  27   -1.49    7.70   0
   8  -4   9    0.69    5.90   0
   9  -4   7   -1.91    6.79   0
   1   3  22  335.96   10.24   0
   3  -1  19    0.03    4.57   0
   4   3  28  342.72   10.98   0
   5  -4   3   -0.55    4.71   0
   8   0  23   -6.30    6.71   0
   9  -2  17    5.88    7.19   0
   4  -1  23    2.77    5.28   0
   4   2  29   -1.60    6.68   0
   2   3  26  583.62   12.61   0
   3   0  24 1027.17   14.11   0
   4  -2  18 1023.61   13.92   0
   6   2  28  148.00    8.87   0
   7  -4  11    2.14    6.35   0
   7   1  27    4.52    7.73   0
   4  -3  10 1048.76   14.91   0
   6  -2  23    0.35    6.03   0
   6   1  29   -2.27    6.97   0
   7  -1  26  248.97    9.97   0
   8  -1  24  236.68    9.58   0
   2   0  20 3477.88   25.91   0
   5   0  29    3.13    6.92   0
   5   2  30   80.54    8.07   0
   6  -3  18  406.30    9.89   0
   7  -3  19   -0.43    5.88   0
   8  -4  12  245.72    9.81   0
   5   3  29   -0.98    6.82   0
   6  -4  10  353.12    9.27   0
   6   3  27   -2.80    7.17   0
   7  -2  24  299.35    9.51   0
   7   0  28  121.09    8.10   0
   9  -2  20  104.97    8.86   0
   3  -2  14 1644.30   18.16   0
   4   0  28  569.04   11.22   0
   4   1  30  281.26    9.80   0
   5  -1  27    1.88    5.88   0
   6  -1  28  413.43   11.28   0
   8   0  26   80.99    7.95   0
   5  -4   6  358.93    9.89   0
   5   1  31    2.48    6.12   0
   6   0  30  105.82    7.69   0
   8  -3  20  196.59    9.16   0
   2  -1  15    6.10    4.21   0
   5  -3  17    2.17    4.93   0
   7  -4  14  360.02   10.31   0
   8  -5   4  240.80    9.70   0
   2   1  25    1.71    4.43   0
   2   2  27    0.04    4.39   0
   3   3  30  182.64    8.50   0
   8  -4  15   -0.14    7.06   0
   9  -4  13    3.63    6.93   0
   3  -1  22  456.05    9.98   0
   3   1  29    3.49    4.96   0
   4  -2  21    3.53    5.81   0
   4  -1  26  643.70   11.57   0
   4   2  32  314.99   10.60   0
   4   3  31   -7.22    7.01   0
   6  -3  21    2.01    6.51   0
   6   2  31   -3.69    7.14   0
   7  -5   3    4.34    5.54   0
   7  -3  22  172.88    8.60   0
   7  -1  29   -0.11    7.54   0
   7   1  30   65.93    7.78   0
   8  -2  25    2.56    7.08   0
   8  -1  27    0.58    7.00   0
   6  -4  13   -4.22    5.90   0
   6   1  32  232.34    9.99   0
   7  -2  27    8.27    7.63   0
   9  -2  23    7.30    6.98   0
   1   2  23    0.39    4.49   0
   3   0  27   -3.10    4.82   0
   3   2  31    6.98    6.03   0
   5  -2  25    1.66    5.53   0
   5  -4   9    6.31    5.31   0
   5   2  33   -8.30    7.43   0
   8  -5   7    7.83    5.93   0
   8  -3  23    6.72    7.17   0
   1   3  25    0.09    4.94   0
   2   3  29   -1.50    5.97   0
   5  -1  30  284.10    9.99   0
   6  -1  31   -6.91    7.67   0
   7  -4  17   10.81    6.72   0
   9  -4  16  293.76   10.27   0
   2   0  23   -0.87    5.01   0
   4   1  33    5.11    6.40   0
   5  -3  20  589.75   11.64   0
   5   1  34  206.00    9.63   0
   7  -5   6  431.15   10.96   0
   8  -4  18  188.66    9.31   0
   9  -5   8  324.74   10.82   0
   3  -2  17    3.73    4.60   0
   8  -2  28  146.47    8.91   0
   8  -1  30   57.23    8.08   0
   1   1  21    8.97    4.05   0
   6  -4  16  736.31   12.86   0
   6  -3  24  601.42   11.98   0
   6  -2  29   -6.98    7.26   0
   7  -3  25    9.85    6.16   0
   7   1  33    0.35    7.52   0
   8  -5  10  196.94    9.41   0
   4  -2  24 1802.91   18.16   0
   4  -1  29   10.34    6.28   0
   6   2  34   98.64    8.19   0
   7  -2  30   76.48    8.28   0
   2  -1  18 1191.35   15.55   0
   3  -1  25    7.32    4.83   0
   5  -2  28  387.41   10.22   0
   6   1  35    2.64    7.07   0
   7  -5   9   -3.67    6.57   0
   8  -3  26  160.59    8.97   0
   9  -4  19    4.34    6.99   0
   9  -3  24  184.88    8.96   0
   2   2  30  177.81    8.10   0
   4   2  35   -0.16    6.97   0
   5  -4  12 1115.22   14.94   0
   7  -4  20  414.89   10.25   0
   8  -4  21    9.43    7.25   0
   9  -5  11   -1.47    6.92   0
   5   2  36  243.47   10.84   0
   6  -1  34  204.19    9.61   0
   3   2  34  390.92   10.80   0
   5  -3  23    8.61    6.18   0
   5  -1  33    8.45    6.02   0
   8  -5  13   -1.17    6.56   0
   8  -2  31    9.60    7.56   0
   6  -5   5   -1.73    5.34   0
   6  -4  19    2.29    6.08   0
   7  -3  28  327.81   10.91   0
   8  -1  33    0.45    7.01   0
   3  -2  20 1411.42   16.16   0
   4   1  36  289.01    9.76   0
   5   1  37    1.14    6.41   0
   6  -3  27   -4.70    5.91   0
   6  -2  32  341.55   10.75   0
   7  -5  12  357.44   10.39   0
   7  -1  35   -3.88    7.34   0
   9  -5  14   79.24    7.53   0
   9  -4  22   78.50    7.59   0
   1   2  26  490.43   11.35   0
   2   0  26 1219.98   15.66   0
   7  -4  23    1.88    6.78   0
   7  -2  33   -0.48    7.43   0
   8  -3  29   -9.78    7.21   0
   9  -3  27    2.90    6.40   0
   3  -3   9    0.11    3.83   0
   4  -3  19    3.16    4.88   0
   4  -2  27    1.36    6.08   0
   4  -1  32  801.77   13.15   0
   5  -4  15   -0.93    4.73   0
   8  -4  24  288.28   10.45   0
   4  -4   5   -0.55    4.56   0
   5  -2  31   -4.39    5.64   0
   6  -5   8  769.22   13.51   0
   6   1  38   42.98    8.26   0
   6   2  37   -1.05    7.16   0
   7   0  37   -3.62    6.70   0
   8  -5  16  374.27   10.65   0
   2  -1  21    6.79    4.56   0
   3  -1  28 1321.84   15.59   0
   1   1  24 1667.05   19.13   0
   3   1  35    7.86    6.15   0
   4   2  38   90.76    7.99   0
   5  -3  26  619.26   11.39   0
   6  -4  22  343.47   10.06   0
   6  -1  37    8.47    6.44   0
   7  -5  15   13.37    6.20   0
   7  -3  31   -0.17    7.37   0
   9  -5  17   -5.11    7.07   0
   9  -4  25   -5.99    7.34   0
   1   0  19    2.93    4.60   0
   2   1  31    1.91    5.31   0
   5  -1  36  293.28    9.37   0
   5   2  39    3.28    8.07   0
   6  -3  30  175.20    8.90   0
   6   0  39   10.41    7.28   0
   2   2  33    0.05    5.44   0
   6  -2  35    3.57    7.31   0
   7  -1  38   40.30    7.81   0
   8  -3  32  194.37    9.30   0
   3  -2  23   -3.69    4.61   0
   3   2  37   -2.58    6.27   0
   4  -4   8 1488.56   18.23   0
   4  -3  22  368.70    9.53   0
   5  -4  18  726.04   12.18   0
   5   1  40  177.58    9.21   0
   6  -5  11    0.40    5.55   0
   7  -2  36  238.37    9.46   0
   8  -5  19    6.03    6.85   0
   4   1  39   -3.96    6.99   0
   9  -5  20  106.56    8.39   0
   2  -2  13    2.20    4.02   0
   4  -2  30  187.92    7.66   0
   4  -1  35   -7.21    6.25   0
   5  -2  34  410.29   10.19   0
   7  -5  18  167.10    8.39   0
   7   0  40  138.71    8.47   0
   5  -3  29    7.99    6.51   0
   6   1  41    7.09    7.71   0
   8  -2  37    4.98    7.67   0
   9  -4  28   83.59    7.63   0
   1   2  29    6.97    5.45   0
   3  -1  31    2.80    5.05   0
   6  -5  14  389.04   10.33   0
   6  -1  40  197.59    9.56   0
   7  -3  34  145.28    8.23   0
   2  -1  24 1847.01   18.45   0
   4  -4  11   -1.39    4.82   0
   5  -4  21    1.53    5.90   0
   5  -1  39   -3.47    6.75   0
   5   0  41   -0.39    7.50   0
   6  -3  33    2.13    7.14   0
   8  -5  22  122.72    8.36   0
   4   2  41   -2.69    7.73   0
   6  -2  38   89.46    8.36   0
   6   0  42  131.98    9.18   0
   7  -1  41    5.82    7.53   0
   8  -3  35    2.92    6.78   0
   9  -5  23   -2.06    6.57   0
   1   1  27    3.62    4.68   0
   3  -2  26  524.67   10.81   0
   4  -3  25    1.61    5.78   0
   5   2  42  119.33    9.37   0
   7  -5  21   -2.04    6.21   0
   7  -2  39    4.60    6.91   0
   1   0  22  448.70   10.64   0
   2   1  34  566.78   11.22   0
   5   1  43   -8.70    7.68   0
   2  -2  16 2998.24   24.60   0
   2   2  36  341.93   10.00   0
   4  -2  33    3.44    5.47   0
   5  -2  37   -4.81    5.97   0
   6  -5  17   -2.85    5.85   0
   3   2  40  380.44   10.70   0
   4  -4  14  314.12    9.07   0
   4  -1  38  162.77    7.84   0
   4   1  42  165.80    8.16   0
   5  -3  32  669.46   11.95   0
   7  -3  37    3.48    7.31   0
   8  -5  25    3.24    7.13   0
   6  -3  36  280.05   10.05   0
   6   1  44   86.33    7.94   0
   7  -4  32  271.00   10.08   0
   9  -5  26  125.85    8.13   0
   3  -1  34  553.88   10.90   0
   5  -5   7    0.94    5.09   0
   6  -1  43    3.18    6.66   0
   7  -5  24  424.04   11.30   0
   8  -3  38   47.17    8.06   0
   2  -1  27   -3.37    4.63   0
   3  -3  18  519.12   10.61   0
   4  -3  28  669.54   12.08   0
   5  -1  42  151.34    8.02   0
   5   0  44  158.42    9.32   0
   6  -2  41   -0.95    7.63   0
   6   0  45   -7.36    7.74   0
   7  -2  42  129.48    8.66   0
   3  -2  29    2.40    5.57   0
   6  -5  20  483.35   11.17   0
   6  -4  31   -4.18    6.76   0
   1   2  32 1114.65   16.08   0
   3   0  39    6.93    6.33   0
   3   1  41    2.26    6.39   0
   4  -4  17    0.31    5.40   0
   5  -5  10  687.66   12.80   0
   8  -5  28  159.01    8.89   0
   2  -2  19   -3.29    4.28   0
   4  -2  36  368.42    9.56   0
   4   0  43   -6.12    7.22   0
   4   2  44  179.77    9.18   0
   5  -3  35   -2.28    6.61   0
   5  -2  40  410.21   10.32   0
   7  -3  40  134.31    8.69   0
   8  -6  17    0.98    7.11   0
   9  -5  29    4.84    6.36   0
   1   0  25    0.35    4.14   0
   1   1  30  555.94   11.55   0
   2   1  37    7.67    4.71   0
   4  -1  41    1.71    6.66   0
   5   1  46   52.99    7.63   0
   7  -5  27   -0.76    6.69   0
   7  -4  35    4.80    6.48   0
   8  -4  36  108.56    8.53   0
   3  -3  21    0.50    5.29   0
   4   1  45    2.69    6.93   0
   6  -5  23   -5.44    6.32   0
   6  -3  39   -8.84    6.39   0
   2   2  39    2.55    5.73   0
   3  -1  37   -1.19    6.02   0
   3   2  43   -3.80    6.98   0
   5  -5  13    1.13    5.15   0
   2  -1  30  592.26   11.06   0
   4  -4  20 1252.32   15.76   0
   4  -3  31    0.42    5.35   0
   6  -4  34  163.17    8.52   0
   6  -2  44  202.10    9.84   0
   7  -2  45    7.31    7.20   0
   8  -6  20  180.72    9.41   0
   8  -5  31    0.99    6.69   0
   3  -2  32 1158.69   14.53   0
   5   0  47   -9.53    7.22   0
   6   0  48  111.12    8.80   0
   2  -2  22 1857.38   18.50   0
   5  -5  16  664.25   12.37   0
   5  -4  30  155.60    8.39   0
   7  -5  30  164.81    8.84   0
   4  -2  39   -6.52    5.86   0
   5  -3  38   82.44    7.03   0
   5  -2  43    9.40    6.12   0
   7  -4  38  127.93    8.18   0
   7  -3  43   -5.41    7.54   0
   8  -4  39    0.34    6.40   0
   9  -6  24  138.10    8.77   0
   0   2  25   -0.80    4.55   0
   3  -3  24 1552.22   16.70   0
   6  -3  42  150.69    9.05   0
   8  -6  23    0.85    7.50   0
   1   2  35   -0.38    5.21   0
   2   1  40  452.58   10.91   0
   5   1  49    5.83    7.69   0
   8  -5  34  126.01    8.14   0
   1   1  33   -2.15    5.19   0
   3  -1  40  419.22   10.65   0
   4  -3  34  487.69   10.42   0
   5  -5  19    3.35    5.65   0
   6  -4  37    1.26    7.23   0
   6  -1  49    7.85    7.56   0
   7  -6  19   -1.54    6.37   0
   1  -1  20 1525.79   17.71   0
   2  -1  33   -0.81    5.07   0
   2   0  38  219.53    8.62   0
   3  -2  35   -6.68    6.15   0
   4   1  48  191.25    9.19   0
   5  -4  33   -6.80    6.64   0
   6  -2  47    7.10    7.59   0
   7  -5  33   -3.10    6.93   0
   2  -2  25    0.45    4.58   0
   2   2  42  347.43   10.36   0
   6  -5  29    4.54    6.57   0
   9  -6  27   -2.11    6.01   0
   3  -3  27   -4.61    5.57   0
   4  -2  42  358.23   10.22   0
   5  -3  41    8.03    6.03   0
   5   0  50   55.13    8.00   0
   7  -4  41   -9.57    6.82   0
   7  -3  46   61.05    8.00   0
   8  -6  26  173.39    9.00   0
   5  -5  22  221.41    8.29   0
   5  -2  46   47.87    6.83   0
   7  -6  22  147.23    8.26   0
   8  -5  37  -12.49    7.29   0
   3   0  45   -1.85    5.62   0
   4  -3  37    3.38    6.56   0
   6  -3  45    5.21    6.78   0
   3   1  47    2.96    6.48   0
   4   0  49    4.44    7.26   0
   6  -4  40  221.61    8.88   0
   7  -5  36  153.96    8.98   0
   1  -1  23   -1.99    4.31   0
   5  -4  36  438.37   10.30   0
   6  -5  32  363.87   10.67   0
   7  -6  25    9.18    6.55   0
   8  -6  29   -2.62    6.55   0
   0   2  28 1061.89   16.45   0
   1   1  36  831.19   13.73   0
   1   2  38  295.56    9.44   0
   2  -1  36  850.25   12.91   0
   2   1  43    6.48    6.13   0
   3  -4   7    8.20    4.68   0
   3  -3  30  550.34   11.03   0
   3  -2  38  294.94    8.70   0
   4  -4  29    3.80    6.07   0
   5  -5  25   -6.90    5.78   0
   6  -6  15    4.12    5.40   0
   6  -2  50  100.55    8.38   0
   7  -4  44  130.39    8.70   0
   2   0  41   -1.69    5.88   0
   3  -4  10 1073.73   15.95   0
   4   1  51    6.29    7.14   0
   5  -3  44  226.27    9.42   0
   5  -1  51    0.79    7.41   0
   4  -2  45    3.00    6.91   0
   5  -2  49    0.19    7.59   0
   6  -6  18  251.40    9.56   0
   8  -5  40  118.44    8.04   0
   2  -3  11   10.23    3.98   0
   2   2  45   -0.85    5.81   0
   3  -4  13    2.11    4.72   0
   4  -3  40  442.67   10.76   0
   5   0  53    2.05    6.79   0
   6  -4  43    9.11    7.61   0
   6  -3  48  125.97    8.55   0
   7  -6  28  138.43    8.43   0
   8  -6  32  164.12    8.81   0
   1  -1  26 1195.65   15.10   0
   3   0  48  182.13    9.13   0
   5  -5  28  590.72   11.90   0
   5  -4  39   -1.13    6.81   0
   6  -5  35    1.08    5.83   0
   7  -5  39   -2.76    6.63   0
   2  -2  31    0.64    4.80   0
   3  -4  16 2014.03   20.05   0
   3  -3  33    8.78    6.07   0
   4  -4  32  454.16   10.85   0
   6  -6  21    0.06    5.93   0
   0   1  26 1085.66   15.87   0
   2  -1  39   -0.98    5.72   0
   3  -2  41   -2.69    5.72   0
   3   1  50  153.69    8.75   0
   4   0  52  129.48    8.32   0
   7  -4  47   -4.43    7.47   0
   2  -3  17    5.73    5.00   0
   4  -5   9   12.38    5.11   0
   5  -3  47   -7.50    7.23   0
   6  -2  53    6.02    6.98   0
   7  -6  31   -0.07    7.12   0
   0   2  31   -0.71    5.00   0
   1   1  39   -0.13    5.46   0
   2   0  44  624.44   12.19   0
   2   1  46  119.19    7.74   0
   3  -4  19    1.90    5.21   0
   4  -5  12 1070.66   15.69   0
   4  -2  48  273.53   10.28   0
   5  -5  31    4.93    6.24   0
   5  -1  54   44.95    8.03   0
   8  -6  35    0.73    6.53   0
   1  -1  29    1.93    5.20   0
   1   2  41   -2.48    5.39   0
   4  -5  15    4.76    5.25   0
   4  -3  43   -2.61    6.64   0
   5  -2  52  109.11    8.33   0
   6  -6  24  550.84   11.91   0
   6  -4  46   90.91    8.06   0
   6  -3  51    4.47    7.29   0
   2  -3  20 1444.34   16.73   0
   2  -2  34  279.14    8.88   0
   4  -4  35    1.74    5.41   0
   4   1  54   41.94    7.00   0
   5  -4  42  199.33    8.39   0
   3  -3  36  510.76   10.61   0
   4  -5  18  697.37   12.61   0
   0   1  29   -0.96    4.49   0
   1   0  37    1.29    4.71   0
   3  -2  44  304.21    9.15   0
   3   0  51   -3.28    6.63   0
   4  -1  53    4.98    7.33   0
   6  -6  27    0.39    6.46   0
   7  -6  34  151.18    8.57   0
   2  -1  42  305.50    9.05   0
   4   0  55    9.36    7.28   0
   5  -5  34  245.37    8.64   0
   5  -3  50  174.18    9.22   0
   0   0  21   -1.57    3.81   0
   2  -3  23    1.20    4.54   0
   4  -5  21    5.50    4.74   0
   1  -2  15   -0.92    4.11   0
   1  -1  32 1728.63   17.58   0
   1   1  42  296.63    9.44   0
   2  -2  37    3.14    6.06   0
   2   0  47    0.42    6.05   0
   3   1  53   -1.25    7.07   0
   4  -4  38  129.28    7.24   0
   4  -3  46   85.05    6.92   0
   4  -2  51   -6.18    7.56   0
   5  -4  45   -7.57    7.10   0
   6  -6  30  134.18    8.13   0
   6  -4  49   -7.78    7.24   0
   0   2  34  257.87    9.16   0
   2   1  49   -1.94    6.23   0
   3  -3  39   -4.03    5.55   0
   4  -5  24  645.93   12.13   0
   5  -1  57   -0.99    6.64   0
   6  -3  54   30.33    7.40   0
   7  -6  37    6.20    6.67   0
   1  -2  18 1175.89   15.49   0
   1   2  44  296.33   10.00   0
   2  -3  26  518.02   10.29   0
   1   0  40  697.40   12.52   0
   3  -4  28  652.56   11.45   0
   3  -2  47    0.95    6.93   0
   0   1  32 1644.55   18.33   0
   1  -2  21   11.51    4.54   0
   3   0  54   62.01    7.92   0
   4  -5  27   -1.64    5.97   0
   4  -4  41   -0.45    6.89   0
   5  -6  17    1.92    5.27   0
   6  -6  33    0.50    6.84   0
   1  -1  35   -3.67    4.87   0
   3  -1  52  243.77    9.69   0
   4  -1  56  112.33    8.80   0
   5  -3  53    4.31    6.77   0
   2  -3  29    3.64    4.94   0
   2  -2  40  747.86   12.36   0
   3  -3  42  226.24    8.40   0
   4  -3  49   -5.32    6.15   0
   5  -4  48  123.20    8.21   0
   0   7  11   -6.16    6.49   0
   3   3   9    5.10    5.92   0
   3   4   8  519.70   10.78   0
   4   3   4  637.04   11.92   0
   5   2  -3   -0.85    5.64   0
   5   3  -4  233.96    9.48   0
   1   5  14  374.69   10.32   0
   2   6   8  401.48   10.50   0
   4   5  -1    6.16    7.63   0
   5   0  -7    2.74    4.53   0
   6   0 -18  252.76    8.79   0
   6   2 -14  104.53    7.65   0
   6   3 -18  166.04    8.48   0
   1   7   9    5.70    7.17   0
   2   7   4  167.31    8.70   0
   3   5   7    6.00    7.41   0
   4   1   3   17.33    5.82   0
   4   4   3    3.28    6.19   0
   6   1 -13   -1.71    6.24   0
   0   5  16  640.16   12.74   0
   1   4  15    5.70    4.78   0
   4  -1  -7    7.75    4.64   0
   4   2   5   -3.92    5.33   0
   5   4  -5   -1.48    7.13   0
   6   3 -15   -1.37    6.98   0
   0   6  15   -4.04    6.09   0
   1   6  13   -3.70    6.55   0
   2   5  12  377.09    9.99   0
   5  -1 -12 1114.95   16.01   0
   6   0 -15    0.71    5.76   0
   6   2 -11   -4.22    7.06   0
   1   8   5   -1.93    7.53   0
   2   2  12  761.65   12.74   0
   3   0   3    2.38    4.70   0
   5   2   0  592.70   11.64   0
   5   3  -1   -1.66    6.01   0
   3   2  10  698.60   11.72   0
   4   5   2  169.74    8.55   0
   6   1 -10  208.22    8.77   0
   6   3 -12  143.20    8.57   0
   0   3  15   -2.90    3.80   0
   3   1   8 2727.47   22.19   0
   3   4  11    9.39    6.79   0
   4   3   7    6.20    5.91   0
   4   4   6  193.35    9.31   0
   5   0  -4 1095.67   14.41   0
   5   4  -2  161.08    9.22   0
   2   6  11    9.58    7.47   0
   2   7   7   -1.90    7.61   0
   3   3  12  731.98   12.64   0
   4   6  -2   66.59    7.73   0
   6   0 -12  338.26    9.79   0
   6   2  -8  411.31   10.85   0
   0   4  17   -1.20    5.02   0
   5   5  -6   81.46    8.05   0
   1   7  12  182.46    9.27   0
   2   1  10 2068.40   20.57   0
   4   1   6  825.45   12.56   0
   4   2   8  829.12   12.65   0
   5   1   1    0.40    5.47   0
   5   3   2  226.36    8.62   0
   6   1  -7    3.04    6.30   0
   1   5  17    4.56    6.38   0
   4   5   5    4.39    7.35   0
   5  -1  -9   12.96    5.07   0
   5   2   3    1.17    5.78   0
   2   4  16  676.27   12.55   0
   2   5  15    9.90    6.85   0
   4  -1  -4 1286.85   16.97   0
   5   4   1   11.24    7.38   0
   6   0  -9    1.32    6.01   0
   1   6  16  568.82   12.50   0
   4   3  10  359.79   10.48   0
   4   4   9    4.79    7.58   0
   5   0  -1   -4.65    5.57   0
   5   5  -3    2.48    7.00   0
   1   4  18  673.50   12.61   0
   3   6   9    5.42    7.31   0
   7   2 -22   40.31    7.71   0
   0   6  18  245.52    9.58   0
   2   6  14   94.38    8.59   0
   2   7  10  152.73    8.73   0
   3   2  13   -2.06    5.21   0
   5   3   5   -4.27    7.26   0
   6   1  -4  257.29    8.57   0
   0   5  19   -2.33    5.58   0
   3   0   6  540.44   11.24   0
   4   0   4 1534.26   16.80   0
   5   1   4  727.11   12.18   0
   7   1 -18  185.91    8.58   0
   7   2 -19    4.39    6.19   0
   2   2  15    1.49    4.70   0
   3   1  11   17.19    5.45   0
   3   3  15   -3.90    5.52   0
   4   2  11   -1.35    6.01   0
   4   5   8  351.73   10.52   0
   5  -1  -6  369.17    9.91   0
   5   2   6  151.22    7.67   0
   5   4   4  129.66    9.03   0
   6  -1 -14  397.15   10.61   0
   6   0  -6  372.93    9.96   0
   1   7  15   -0.38    7.93   0
   4   1   9    2.23    5.01   0
   7   1 -15    0.68    6.77   0
   7   2 -16  149.98    8.55   0
   6   1  -1   -6.12    6.57   0
   2   5  18  147.94    8.76   0
   4   3  13    7.61    7.06   0
   4   4  12  247.53    9.08   0
   6   4  -4  122.46    8.19   0
   7   2 -13  -10.00    6.47   0
   3   6  12  147.98    8.83   0
   4  -1  -1   12.52    4.83   0
   5   3   8  437.48   10.59   0
   5   5   3    5.17    7.66   0
   6  -1 -11    1.04    5.27   0
   6   2   1   -2.90    7.35   0
   6   3   0  293.48    9.91   0
   7   1 -12  176.77    8.55   0
   1   5  20  441.18   11.41   0
   1   6  19    1.69    6.73   0
   2   4  19   -5.31    5.38   0
   2   7  13   -2.52    6.97   0
   5   1   7   -0.90    6.33   0
   5   4   7    3.79    7.37   0
   6   0  -3    3.68    6.08   0
   0   4  20 1189.94   16.75   0
   1   3  19    7.92    5.33   0
   2   1  13   17.49    4.71   0
   2   6  17    1.20    6.96   0
   3   5  16  381.42   11.18   0
   4   5  11    4.26    6.68   0
   5   2   9   -4.00    5.98   0
   7   0 -14  112.09    7.78   0
   7   2 -10  142.25    8.82   0
   0   3  18  488.31   11.33   0
   3   2  16 1791.88   17.80   0
   4   0   7    1.16    5.37   0
   5  -1  -3    2.99    4.21   0
   6   4  -1   -4.23    6.92   0
   7   1  -9    2.75    6.43   0
   3   3  18  386.39   10.41   0
   4   2  14  271.40    8.65   0
   6   3   3    5.21    7.53   0
   1   4  21    9.16    4.92   0
   4   1  12  900.50   13.03   0
   4   4  15   -2.97    7.58   0
   5   5   6   81.21    7.87   0
   7   0 -11   -4.26    5.97   0
   7   2  -7    7.35    6.90   0
   3   0   9    0.90    5.11   0
   3   1  14  692.27   12.11   0
   3   6  15    2.34    7.19   0
   5   3  11   -2.60    6.30   0
   5   4  10  131.62    8.93   0
   6   0   0  873.87   13.61   0
   7   1  -6  100.35    7.86   0
  -1   4  19    9.02    4.53   0
   2   2  18 1062.92   14.75   0
   6   4   2   71.54    7.76   0
   0   5  22  210.35    8.93   0
   2   5  21   -3.30    6.82   0
   2   7  16  137.52    8.92   0
   5   1  10  444.27    9.99   0
   5   2  12  454.24   10.91   0
   7   0  -8  568.24   12.14   0
   7   2  -4  176.27    8.59   0
   4  -1   2  844.77   13.53   0
   5  -1   0 1390.28   16.66   0
   6  -1  -5    0.55    5.39   0
   6   3   6  162.21    8.84   0
   2   4  22  336.37   10.04   0
   2   6  20  165.48    9.29   0
   3   5  19    3.48    6.45   0
   6   2   7    5.57    6.02   0
   7   1  -3    5.96    6.72   0
   1   5  23   -8.16    6.15   0
   1   6  22  128.86    8.74   0
   6   0   3    5.17    6.24   0
   3   2  19    2.38    5.24   0
   4   0  10  402.64    9.35   0
   4   4  18  166.34    9.02   0
   5   0   8  935.01   13.50   0
   5   3  14  124.13    7.76   0
   5   4  13   -4.73    7.24   0
   7   0  -5    0.28    6.53   0
   7   2  -1    0.73    6.98   0
   3   6  18  163.79    8.95   0
   4   1  15    4.06    5.31   0
   2   1  16 2078.00   20.13   0
   4   3  19    6.63    5.98   0
   5  -2 -11    2.20    4.90   0
   6   1   8  621.30   12.26   0
   6   3   9   -2.34    7.04   0
   7   1   0  359.88   10.56   0
   5   1  13   -3.90    5.65   0
   5   2  15   -1.23    6.07   0
   6   2  10  177.97    8.94   0
   1   4  24  614.26   12.30   0
   2   7  19    5.64    6.45   0
   3   1  17    3.36    4.78   0
   5  -1   3   15.16    5.39   0
   7  -1 -10  199.42    8.40   0
   7   0  -2  202.57    8.78   0
   0   4  23    4.62    4.90   0
   2   3  23    2.47    5.07   0
   2   5  24  403.48   11.29   0
   3   0  12 2581.22   21.71   0
   3   5  22  105.80    8.62   0
   3   4  23    3.87    5.72   0
   5   3  17    4.28    7.52   0
   7   1   3   -8.09    6.86   0
   0   3  21   -2.06    4.69   0
   2   6  23    7.32    6.90   0
   5   0  11    0.01    5.97   0
   6  -1   1    7.95    5.70   0
   6   3  12  138.79    8.51   0
   8   1 -11    1.10    5.68   0
   2   0  11    1.70    4.13   0
   2   4  25   -0.94    5.37   0
   4   0  13    0.14    4.73   0
   5  -2  -8 2006.91   22.23   0
   6   1  11   -3.97    6.03   0
   6   2  13    0.56    7.44   0
   7   0   1   -1.69    6.64   0
   3   2  22  268.22    9.08   0
   3   6  21    2.36    7.41   0
   4   1  18  369.96    9.31   0
   4   3  22  153.60    8.46   0
   5   1  16  605.54   11.92   0
   5   2  18  386.36   10.32   0
   1   5  26  202.32    8.85   0
   5  -1   6  829.82   12.67   0
   7  -1  -4  248.52    9.11   0
   5   3  20  219.03    9.32   0
   5   4  19    7.65    7.56   0
   7   0   4  176.76    8.52   0
   7   2   8  201.03    9.07   0
   8   1  -5    4.00    6.74   0
   3   1  20  892.68   13.56   0
   3   5  25   -8.49    7.02   0
   5  -2  -5    4.01    5.19   0
   6  -1   4  722.74   12.11   0
   6   1  14  122.00    8.04   0
   6   3  15   11.27    6.83   0
   8   0  -7   -3.51    6.62   0
   2   1  19    1.23    4.50   0
   2   5  27  -10.07    7.28   0
   3   4  26  134.65    8.90   0
   4  -1   8 2675.27   22.53   0
   5   0  14  624.28   11.23   0
   6   2  16  364.91   10.77   0
   7  -1  -1   -2.68    6.10   0
   1   3  25    2.92    5.34   0
   1   4  27    6.46    5.81   0
   2   3  26  587.24   11.46   0
   3   0  15   -1.48    4.51   0
   4   2  23   -0.08    6.77   0
   6  -2  -7   -1.40    5.14   0
   8   1  -2   88.76    7.83   0
   2   6  26  171.60    9.46   0
   3   6  24  151.17    8.69   0
   4   0  16 1483.40   16.27   0
   4   5  23  -12.30    7.79   0
   5   1  19   -3.26    6.50   0
   5   2  21    7.93    6.29   0
   6   0  12  370.82   10.05   0
   8   0  -4  187.80    8.53   0
   3  -1   7   -2.00    4.04   0
   4   1  21   -0.00    5.61   0
   4   3  25   -2.57    6.25   0
   7   0   7   -0.96    7.08   0
   7   2  11   -4.72    6.94   0
   3   2  25    7.81    6.20   0
   3   3  27   10.55    6.70   0
   5   4  22   80.22    8.19   0
   6  -1   7    5.64    5.75   0
   6   3  18   81.03    8.42   0
   8   1   1   -7.01    6.55   0
   5  -2  -2  823.29   14.12   0
   5   3  23    1.45    7.91   0
   6  -2  -4  845.73   14.19   0
   6   1  17   -7.12    7.22   0
   8   0  -1   -2.97    6.42   0
   2   0  14  347.90    9.43   0
   6   2  19    0.65    7.86   0
   7   1  12  166.98    9.04   0
   1   2  23    0.76    4.26   0
   1   5  29    7.18    6.33   0
   3   5  28  149.17    9.61   0
   5   0  17    1.47    5.43   0
   8   1   4  165.77    8.83   0
   0   3  24 1506.54   19.06   0
   3   4  29    1.84    7.63   0
   4  -1  11   18.98    5.65   0
   4   4  27    5.77    7.34   0
   6   0  15    4.24    6.99   0
   7   0  10  210.34    8.43   0
   7   2  14  129.57    8.86   0
   8   0   2   94.44    8.43   0
   3   1  23    8.72    5.35   0
   5   2  24  289.16    9.45   0
   1   2  41    5.06    5.59   0
   3   1  44  261.06    9.50   0
   4  -2  24 1791.34   17.58   0
   4  -1  35    4.27    6.17   0
   6   0  42  112.95    8.42   0
   7   0  40  147.38    8.36   0
   8  -3  14  125.88    8.03   0
   9  -2  20  100.91    7.53   0
   2   2  45   -1.74    5.49   0
   3  -1  31    1.90    5.06   0
   5  -3  11    2.23    5.27   0
   2  -1  24 1831.36   18.41   0
   6  -3  18  407.96   10.29   0
   7  -3  19   10.30    5.95   0
   8  -2  28  138.56    8.28   0
   3  -2  17    3.32    4.45   0
   5   0  44  150.77    9.20   0
   6  -2  32  321.43    9.94   0
   7  -1  38   47.65    7.62   0
   8  -3  17    2.77    6.08   0
   4  -2  27    1.56    5.90   0
   4   0  43   -4.50    5.83   0
   5  -3  14  378.00    9.26   0
   5  -2  31   -3.35    6.18   0
   5  -1  39    1.98    5.99   0
   3   2  49    2.79    6.51   0
   4   2  50   98.58    7.78   0
   6  -3  21    5.50    6.07   0
   6  -1  40  188.27    9.31   0
   7  -3  22  161.42    8.34   0
   7  -2  33    1.83    7.17   0
   2   1  43   -1.93    6.08   0
   3   3  51    0.74    6.21   0
   4  -1  38  164.59    8.04   0
   6   0  45   -5.93    6.82   0
   8  -3  20  212.56    9.03   0
   8  -2  31   -3.50    6.83   0
   0   1  29   -1.20    4.26   0
   3  -2  20 1398.12   15.86   0
   3  -1  34  554.31   10.68   0
   5  -3  17    2.14    4.71   0
   5   1  49    1.78    7.48   0
   0   2  37    1.18    4.70   0
   2  -1  27    0.92    5.24   0
   3   1  47    3.23    6.47   0
   6  -2  35   -9.42    6.97   0
   1   2  44  277.28    9.81   0
   2   2  48  253.93    9.41   0
   4  -2  30  196.45    8.11   0
   5  -2  34  428.57   10.48   0
   7  -3  25    1.16    7.02   0
   7  -1  41   -5.79    7.13   0
   8  -3  23    6.96    6.39   0
   1   1  39   -5.07    5.38   0
   2   0  38  218.79    7.68   0
   5  -1  42  163.58    8.06   0
   5   0  47    5.23    6.99   0
   7  -2  36  230.81    9.27   0
   3  -2  23    4.30    4.60   0
   6  -1  43   10.71    6.89   0
   1   0  31    2.44    4.21   0
   4  -1  41   -3.14    6.46   0
   8  -3  26  168.50    8.70   0
   3  -1  37   -5.03    5.27   0
   4  -3   7    7.89    4.78   0
   4   1  51    2.67    7.50   0
   4   2  53    5.89    6.50   0
   5  -3  23   -2.72    6.00   0
   6  -2  38   78.11    7.96   0
   6   0  48   98.42    8.53   0
   9  -3  21    3.25    6.10   0
   2  -1  30  593.64   10.83   0
   2   1  46  113.90    7.67   0
   4  -3   4 1311.81   17.88   0
   4  -3  10 1089.54   15.33   0
   4  -2  33   -0.90    6.06   0
   5  -2  37   -2.38    6.61   0
   3  -2  26  533.12   10.60   0
   3   0  45   -1.09    5.60   0
   4  -3  13    4.64    5.11   0
   7  -2  39    1.34    7.05   0
   7  -1  44   95.26    7.46   0
   0   1  32 1589.50   18.63   0
   3   1  50  154.91    8.71   0
   5  -1  45    5.00    6.57   0
   6  -3  30  185.49    8.55   0
   9  -3  24  185.43    8.33   0
   2   0  41   -1.92    4.99   0
   4   0  49    1.82    7.39   0
   5  -3  26  589.67   11.11   0
   6  -1  46   61.72    7.60   0
   1   1  42  308.43    9.43   0
   2   2  51   -2.63    6.11   0
   4  -1  44  273.95    9.85   0
   6  -2  41   -2.43    7.29   0
   1   0  34  853.42   13.06   0
   1   2  47    0.14    5.80   0
   2  -1  33   -2.35    5.52   0
   3  -1  40  430.32    9.87   0
   7  -4   8  506.85   11.61   0
   7  -4  11   -2.62    5.79   0
   9  -3  27    2.41    6.13   0
  -1   2  30  541.18   12.89   0
   3  -2  29    6.60    5.08   0
   4  -3  19    4.46    4.81   0
   5  -3  29    0.30    6.07   0
   6  -3  33   -4.08    6.85   0
   7  -4  14  374.20   10.24   0
   7  -2  42  120.49    8.38   0
   8  -3  32  175.55    8.56   0
   4   1  54   38.25    7.30   0
   7  -4  17   -1.53    6.14   0
   8  -4  15   -1.89    6.29   0
   2   1  49   -6.66    6.43   0
   3   0  48  176.67    8.04   0
   3   2  55   -4.31    6.21   0
   4  -3  22  359.52    9.72   0
   5  -1  48  214.51    9.72   0
   8  -4  18  187.63    8.77   0
   1  -1  20 1489.84   17.65   0
   6  -1  49   -1.35    6.59   0
   7  -4  20  425.97   10.85   0
   0   1  35    2.99    4.79   0
   2  -2  13   -1.31    4.84   0
   3   1  53   -1.50    7.19   0
   4  -2  39   -4.94    6.77   0
   4   0  52  137.72    8.77   0
   5  -3  32  683.04   12.43   0
   5   0  53    3.85    6.76   0
   6  -4   7    1.74    5.38   0
   6  -4  10  339.04    9.91   0
   6  -4  13   -4.33    5.50   0
   6  -2  44  203.08    9.12   0
   8  -4  21   -0.31    6.29   0
   8  -3  35    3.93    6.51   0
   1   0  37   -0.97    5.29   0
   2  -1  36  885.09   13.52   0
   4  -3  25   -0.28    5.88   0
   4  -1  47   -3.48    6.41   0
   5  -2  43   -1.34    6.34   0
   6  -4   4  827.76   14.93   0
   6  -3  36  277.78    9.08   0
   7  -4  23    1.53    6.67   0
   7  -3  37   -1.23    6.72   0
   7  -2  45   -1.34    7.42   0
   1   1  45   -2.20    5.88   0
   2  -2  16 2968.54   24.17   0
   6  -4  19    0.29    6.13   0
   8  -4  24  299.38   10.25   0
   1  -1  23    1.21    4.21   0
   2  -2  19   -4.50    4.38   0
   5  -3  35    6.77    6.48   0
   5  -1  51   -4.29    7.24   0
   6  -4  22  358.98   10.18   0
   7  -4  26  147.46    8.43   0
   8  -3  38   39.96    7.58   0
   3  -2  35    4.67    5.35   0
   3   0  51   -4.43    7.07   0
   4  -3  28  684.79   11.64   0
   4   1  57   -3.00    6.61   0
   6  -3  39    1.38    7.21   0
   6  -2  47    7.67    7.21   0
   7  -3  40  132.31    8.46   0
   8  -4  27    6.88    6.50   0
   2   0  47   -2.91    6.22   0
   5  -2  46   55.82    7.94   0
   0   1  38  237.86    8.49   0
   1  -1  26 1146.54   14.95   0
   2  -2  22 1881.33   18.57   0
   3   1  56  111.73    9.07   0
   4   0  55   -2.02    7.45   0
   6  -4  25   -0.11    5.32   0
   7  -4  29    4.79    7.12   0
   9  -4  25   -0.91    6.04   0
   1   0  40  694.98   12.07   0
   4  -3  31   11.61    6.31   0
   8  -4  30   86.44    7.76   0
   2  -2  25   -4.41    5.42   0
   1   1  48  305.16    9.57   0
   3  -2  38  288.20    8.68   0
   5  -4  12 1142.89   15.65   0
   5  -4  15   -1.29    5.70   0
   6  -3  42  149.43    8.33   0
   7  -4  32  242.84    9.92   0
   7  -3  43   -8.00    6.57   0
   9  -4  28   65.90    7.37   0
   0   0  27    0.31    3.72   0
   1  -1  29    9.11    5.08   0
   4  -2  45    6.81    5.82   0
   5  -4   9   11.43    5.13   0
   5  -4  18  726.74   12.07   0
   6  -2  50   85.61    7.72   0
   8  -4  33   -5.77    6.69   0
   4  -3  34  493.22   10.26   0
   5  -2  49    3.33    6.77   0
  -8   3   1   -5.37    7.54   0
  -8   3  25    2.88    7.99   0
  -7   3  29    3.68    7.51   0
  -6   3  -3    3.79    6.18   0
  -5   2  41   -5.47    8.02   0
  -5   3   1   -0.46    5.99   0
  -5   3  25    3.38    7.14   0
  -7   3  -4  602.95   13.27   0
  -6   3  30  171.57    9.43   0
  -3   1  44  293.58   10.50   0
  -3   2  31   -0.03    5.51   0
  -7   2  42   70.79    9.22   0
  -7   3  32  278.92   11.32   0
  -6   1  50   77.51    9.08   0
  -5   3  28  396.45   11.03   0
  -4   2  39   -0.21    7.40   0
  -9   3  12  143.59    8.85   0
  -9   3  15    0.30    7.43   0
  -9   3  18  171.44    9.91   0
  -1   1  25    0.59    4.99   0
  -9   3   9    3.37    7.74   0
  -9   3  21    0.72    8.11   0
  -6   3  33    0.53    7.02   0
  -5   3  -2  777.09   14.15   0
  -4   1  49   -5.73    7.50   0
  -4   3  11   13.27    5.35   0
  -4   3  14  649.00   12.16   0
  -4   3  17    0.49    5.42   0
  -2   1  39   -8.19    5.98   0
  -9   3   6   62.86    7.85   0
  -8   3  31  -15.05    7.65   0
  -6   3  -6  425.63   11.52   0
  -5   1  51    3.10    8.39   0
  -5   2  44  231.93   10.62   0
  -5   3  31    4.95    7.11   0
  -4   3   8 2647.19   23.60   0
  -4   3  20  884.75   14.40   0
  -3   2  34  580.06   12.50   0
  -7   3  35    0.16    7.23   0
  -9   3  27    0.01    8.21   0
  -8   3  34  120.59    9.64   0
  -6   2  46   95.37    9.66   0
  -6   3  36  297.11   10.97   0
  -4   3   5    4.45    5.51   0
  -4   3  23    6.48    5.83   0
  -2   2  14  325.78    9.96   0
  -2   2  17    1.93    5.34   0
  -4   2  42  347.55   10.42   0
  -2   2  11   -0.59    4.34   0
;
_shelx_hkl_checksum              225
loop_
_space_group_symop_operation_xyz
'x, y, z'
'-y, x-y, z'
'-x+y, -x, z'
'y, x, -z+1/2'
'x-y, -y, -z+1/2'
'-x, -x+y, -z+1/2'
'x+2/3, y+1/3, z+1/3'
'-y+2/3, x-y+1/3, z+1/3'
'-x+y+2/3, -x+1/3, z+1/3'
'y+2/3, x+1/3, -z+5/6'
'x-y+2/3, -y+1/3, -z+5/6'
'-x+2/3, -x+y+1/3, -z+5/6'
'x+1/3, y+2/3, z+2/3'
'-y+1/3, x-y+2/3, z+2/3'
'-x+y+1/3, -x+2/3, z+2/3'
'y+1/3, x+2/3, -z+7/6'
'x-y+1/3, -y+2/3, -z+7/6'
'-x+1/3, -x+y+2/3, -z+7/6'
'-x, -y, -z'
'y, -x+y, -z'
'x-y, x, -z'
'-y, -x, z-1/2'
'-x+y, y, z-1/2'
'x, x-y, z-1/2'
'-x+2/3, -y+1/3, -z+1/3'
'y+2/3, -x+y+1/3, -z+1/3'
'x-y+2/3, x+1/3, -z+1/3'
'-y+2/3, -x+1/3, z-1/6'
'-x+y+2/3, y+1/3, z-1/6'
'x+2/3, x-y+1/3, z-1/6'
'-x+1/3, -y+2/3, -z+2/3'
'y+1/3, -x+y+2/3, -z+2/3'
'x-y+1/3, x+2/3, -z+2/3'
'-y+1/3, -x+2/3, z+1/6'
'-x+y+1/3, y+2/3, z+1/6'
'x+1/3, x-y+2/3, z+1/6'
loop_
_atom_site_label
_atom_site_type_symbol
_atom_site_fract_x
_atom_site_fract_y
_atom_site_fract_z
_atom_site_U_iso_or_equiv
_atom_site_adp_type
_atom_site_occupancy
_atom_site_site_symmetry_order
_atom_site_calc_flag
_atom_site_refinement_flags_posn
_atom_site_refinement_flags_adp
_atom_site_refinement_flags_occupancy
Ba1 Ba 0.0000 0.0000 0.2500 0.01198(2) Uani 1 6 d S T P
Mg2 Mg 0.0000 0.0000 0.0000 0.00956(8) Uani 1 6 d S T P
O3 O 0.1256(3) 0.8333(3) 0.12912(2) 0.02315(17) Uani 1 1 d . . .
C4 C 0.0000 0.0000 0.13035(3) 0.00997(13) Uani 1 3 d S T P
loop_
_atom_site_aniso_label
_atom_site_aniso_U_11
_atom_site_aniso_U_22
_atom_site_aniso_U_33
_atom_site_aniso_U_23
_atom_site_aniso_U_13
_atom_site_aniso_U_12
Ba1 0.01049(3) 0.01049(3) 0.01495(4) 0.000 0.000 0.00524(1)
Mg2 0.00826(12) 0.00826(12) 0.0122(2) 0.000 0.000 0.00413(6)
O3 0.0325(5) 0.0262(4) 0.0244(3) -0.0062(4) -0.0103(4) 0.0249(4)
C4 0.00959(19) 0.00959(19) 0.0107(3) 0.000 0.000 0.00479(10)
loop_
_atom_type_symbol
_atom_type_description
_atom_type_scat_dispersion_real
_atom_type_scat_dispersion_imag
_atom_type_scat_source
C C 0.0033 0.0016 'International Tables Vol C Tables 4.2.6.8 and 6.1.1.4'
O O 0.0106 0.0060 'International Tables Vol C Tables 4.2.6.8 and 6.1.1.4'
Mg Mg 0.0486 0.0363 'International Tables Vol C Tables 4.2.6.8 and 6.1.1.4'
Ba Ba -0.3244 2.2819 'International Tables Vol C Tables 4.2.6.8 and 6.1.1.4'
loop_
_geom_angle_atom_site_label_1
_geom_angle_atom_site_label_2
_geom_angle_atom_site_label_3
_geom_angle
_geom_angle_site_symmetry_1
_geom_angle_site_symmetry_3
O3 Ba1 O3 123.33(3) 35_445 26_445
O3 Ba1 O3 136.97(3) 35_445 25_455
O3 Ba1 O3 93.88(3) 26_445 25_455
O3 Ba1 O3 93.88(3) 35_445 34_545
O3 Ba1 O3 136.97(3) 26_445 34_545
O3 Ba1 O3 65.43(4) 25_455 34_545
O3 Ba1 O3 93.88(3) 35_445 36
O3 Ba1 O3 65.43(4) 26_445 36
O3 Ba1 O3 123.33(3) 25_455 36
O3 Ba1 O3 93.88(3) 34_545 36
O3 Ba1 O3 65.43(4) 35_445 27
O3 Ba1 O3 93.88(3) 26_445 27
O3 Ba1 O3 93.88(3) 25_455 27
O3 Ba1 O3 123.33(3) 34_545 27
O3 Ba1 O3 136.97(3) 36 27
O3 Ba1 O3 177.89(3) 35_445 27_545
O3 Ba1 O3 57.14(3) 26_445 27_545
O3 Ba1 O3 43.87(3) 25_455 27_545
O3 Ba1 O3 84.910(18) 34_545 27_545
O3 Ba1 O3 84.489(17) 36 27_545
O3 Ba1 O3 116.68(3) 27 27_545
O3 Ba1 O3 57.14(3) 35_445 36_455
O3 Ba1 O3 177.89(3) 26_445 36_455
O3 Ba1 O3 84.910(18) 25_455 36_455
O3 Ba1 O3 43.87(3) 34_545 36_455
O3 Ba1 O3 116.68(3) 36 36_455
O3 Ba1 O3 84.489(17) 27 36_455
O3 Ba1 O3 122.48(3) 27_545 36_455
O3 Ba1 O3 43.87(3) 35_445 34_655
O3 Ba1 O3 84.488(17) 26_445 34_655
O3 Ba1 O3 177.89(3) 25_455 34_655
O3 Ba1 O3 116.68(3) 34_545 34_655
O3 Ba1 O3 57.14(3) 36 34_655
O3 Ba1 O3 84.911(18) 27 34_655
O3 Ba1 O3 135.39(3) 27_545 34_655
O3 Ba1 O3 96.68(2) 36_455 34_655
O3 Ba1 O3 84.488(17) 35_445 25_565
O3 Ba1 O3 43.87(3) 26_445 25_565
O3 Ba1 O3 116.68(3) 25_455 25_565
O3 Ba1 O3 177.89(3) 34_545 25_565
O3 Ba1 O3 84.911(18) 36 25_565
O3 Ba1 O3 57.14(3) 27 25_565
O3 Ba1 O3 96.68(2) 27_545 25_565
O3 Ba1 O3 135.39(3) 36_455 25_565
O3 Ba1 O3 61.22(3) 34_655 25_565
O3 Ba1 O3 84.911(18) 35_445 26_345
O3 Ba1 O3 116.68(3) 26_445 26_345
O3 Ba1 O3 57.14(3) 25_455 26_345
O3 Ba1 O3 84.489(17) 34_545 26_345
O3 Ba1 O3 177.89(3) 36 26_345
O3 Ba1 O3 43.87(3) 27 26_345
O3 Ba1 O3 96.68(2) 27_545 26_345
O3 Ba1 O3 61.22(3) 36_455 26_345
O3 Ba1 O3 122.48(3) 34_655 26_345
O3 Ba1 O3 96.68(2) 25_565 26_345
O3 Ba1 O3 116.68(3) 35_445 35_435
O3 Ba1 O3 84.911(18) 26_445 35_435
O3 Ba1 O3 84.489(17) 25_455 35_435
O3 Ba1 O3 57.14(3) 34_545 35_435
O3 Ba1 O3 43.87(3) 36 35_435
O3 Ba1 O3 177.89(3) 27 35_435
O3 Ba1 O3 61.22(3) 27_545 35_435
O3 Ba1 O3 96.68(2) 36_455 35_435
O3 Ba1 O3 96.68(2) 34_655 35_435
O3 Ba1 O3 122.48(3) 25_565 35_435
O3 Ba1 O3 135.39(3) 26_345 35_435
O3 Mg2 O3 180.00(8) 30_455 18_544
O3 Mg2 O3 86.55(3) 30_455 29_445
O3 Mg2 O3 93.45(3) 18_544 29_445
O3 Mg2 O3 93.45(3) 30_455 17_554
O3 Mg2 O3 86.55(3) 18_544 17_554
O3 Mg2 O3 180.00(9) 29_445 17_554
O3 Mg2 O3 86.55(3) 30_455 28
O3 Mg2 O3 93.45(3) 18_544 28
O3 Mg2 O3 86.55(3) 29_445 28
O3 Mg2 O3 93.45(3) 17_554 28
O3 Mg2 O3 93.45(3) 30_455 16_444
O3 Mg2 O3 86.55(3) 18_544 16_444
O3 Mg2 O3 93.45(3) 29_445 16_444
O3 Mg2 O3 86.55(3) 17_554 16_444
O3 Mg2 O3 180.00(6) 28 16_444
O3 Mg2 Ba1 42.29(3) 30_455 13_444
O3 Mg2 Ba1 137.71(3) 18_544 13_444
O3 Mg2 Ba1 98.31(2) 29_445 13_444
O3 Mg2 Ba1 81.69(2) 17_554 13_444
O3 Mg2 Ba1 47.37(3) 28 13_444
O3 Mg2 Ba1 132.63(3) 16_444 13_444
O3 Mg2 Ba1 137.71(3) 30_455 25
O3 Mg2 Ba1 42.29(3) 18_544 25
O3 Mg2 Ba1 81.69(2) 29_445 25
O3 Mg2 Ba1 98.31(2) 17_554 25
O3 Mg2 Ba1 132.63(3) 28 25
O3 Mg2 Ba1 47.37(3) 16_444 25
Ba1 Mg2 Ba1 180.0 13_444 25
O3 Mg2 Ba1 98.31(2) 30_455 13_554
O3 Mg2 Ba1 81.69(2) 18_544 13_554
O3 Mg2 Ba1 47.37(3) 29_445 13_554
O3 Mg2 Ba1 132.63(3) 17_554 13_554
O3 Mg2 Ba1 42.29(3) 28 13_554
O3 Mg2 Ba1 137.71(3) 16_444 13_554
Ba1 Mg2 Ba1 77.131(2) 13_444 13_554
Ba1 Mg2 Ba1 102.869(2) 25 13_554
O3 Mg2 Ba1 81.69(2) 30_455 25_445
O3 Mg2 Ba1 98.31(2) 18_544 25_445
O3 Mg2 Ba1 132.63(3) 29_445 25_445
O3 Mg2 Ba1 47.37(3) 17_554 25_445
O3 Mg2 Ba1 137.71(3) 28 25_445
O3 Mg2 Ba1 42.29(3) 16_444 25_445
Ba1 Mg2 Ba1 102.869(2) 13_444 25_445
Ba1 Mg2 Ba1 77.131(2) 25 25_445
Ba1 Mg2 Ba1 180.0 13_554 25_445
O3 Mg2 Ba1 132.63(3) 30_455 25_455
O3 Mg2 Ba1 47.37(3) 18_544 25_455
O3 Mg2 Ba1 137.71(3) 29_445 25_455
O3 Mg2 Ba1 42.29(3) 17_554 25_455
O3 Mg2 Ba1 81.69(2) 28 25_455
O3 Mg2 Ba1 98.31(2) 16_444 25_455
Ba1 Mg2 Ba1 102.869(1) 13_444 25_455
Ba1 Mg2 Ba1 77.131(1) 25 25_455
Ba1 Mg2 Ba1 102.869(2) 13_554 25_455
Ba1 Mg2 Ba1 77.131(2) 25_445 25_455
O3 Mg2 Ba1 47.37(3) 30_455 13_544
O3 Mg2 Ba1 132.63(3) 18_544 13_544
O3 Mg2 Ba1 42.29(3) 29_445 13_544
O3 Mg2 Ba1 137.71(3) 17_554 13_544
O3 Mg2 Ba1 98.31(2) 28 13_544
O3 Mg2 Ba1 81.69(2) 16_444 13_544
Ba1 Mg2 Ba1 77.131(1) 13_444 13_544
Ba1 Mg2 Ba1 102.869(1) 25 13_544
Ba1 Mg2 Ba1 77.131(2) 13_554 13_544
Ba1 Mg2 Ba1 102.869(2) 25_445 13_544
Ba1 Mg2 Ba1 180.0 25_455 13_544
C4 O3 Mg2 139.75(7) 1_565 16_554
C4 O3 Ba1 98.47(6) 1_565 25_455
Mg2 O3 Ba1 108.73(4) 16_554 25_455
C4 O3 Ba1 90.29(6) 1_565 25_565
Mg2 O3 Ba1 102.69(4) 16_554 25_565
Ba1 O3 Ba1 116.68(3) 25_455 25_565
O3 C4 O3 119.898(7) 2_665 3_455
O3 C4 O3 119.898(7) 2_665 1_545
O3 C4 O3 119.898(7) 3_455 1_545
O3 C4 Ba1 149.29(7) 2_665 25_445
O3 C4 Ba1 66.96(6) 3_455 25_445
O3 C4 Ba1 59.04(5) 1_545 25_445
O3 C4 Ba1 59.04(5) 2_665 25
O3 C4 Ba1 149.29(7) 3_455 25
O3 C4 Ba1 66.96(6) 1_545 25
Ba1 C4 Ba1 99.06(2) 25_445 25
O3 C4 Ba1 66.96(6) 2_665 25_455
O3 C4 Ba1 59.04(5) 3_455 25_455
O3 C4 Ba1 149.29(7) 1_545 25_455
Ba1 C4 Ba1 99.06(2) 25_445 25_455
Ba1 C4 Ba1 99.06(2) 25 25_455
loop_
_geom_bond_atom_site_label_1
_geom_bond_atom_site_label_2
_geom_bond_distance
_geom_bond_site_symmetry_2
Ba1 O3 2.8598(11) 35_445
Ba1 O3 2.8598(11) 26_445
Ba1 O3 2.8598(11) 25_455
Ba1 O3 2.8598(11) 34_545
Ba1 O3 2.8598(11) 36
Ba1 O3 2.8598(11) 27
Ba1 O3 3.0355(12) 27_545
Ba1 O3 3.0355(12) 36_455
Ba1 O3 3.0355(12) 34_655
Ba1 O3 3.0355(12) 25_565
Ba1 O3 3.0355(12) 26_345
Ba1 O3 3.0355(12) 35_435
Mg2 O3 2.0594(7) 30_455
Mg2 O3 2.0594(7) 18_544
Mg2 O3 2.0594(7) 29_445
Mg2 O3 2.0594(7) 17_554
Mg2 O3 2.0594(7) 28
Mg2 O3 2.0594(7) 16_444
Mg2 Ba1 4.02521(7) 13_444
Mg2 Ba1 4.02521(7) 25
Mg2 Ba1 4.02521(7) 13_554
Mg2 Ba1 4.02521(7) 25_445
Mg2 Ba1 4.02523(7) 25_455
Mg2 Ba1 4.02523(7) 13_544
O3 C4 1.2755(7) 1_565
O3 Mg2 2.0595(7) 16_554
O3 Ba1 2.8597(11) 25_455
O3 Ba1 3.0354(12) 25_565
C4 O3 1.2755(7) 2_665
C4 O3 1.2755(7) 3_455
C4 O3 1.2755(7) 1_545
C4 Ba1 3.2985(5) 25_445
C4 Ba1 3.2985(5) 25
C4 Ba1 3.2985(5) 25_455
