#------------------------------------------------------------------------------
#$Date: 2019-12-26 21:22:11 +0200 (Thu, 26 Dec 2019) $
#$Revision: 246100 $
#$URL: file:///home/coder/svn-repositories/cod/cif/2/31/17/2311753.cif $
#------------------------------------------------------------------------------
#
# This file is available in the Crystallography Open Database (COD),
# http://www.crystallography.net/. The original data for this entry
# were provided by IUCr Journals, http://journals.iucr.org/.
#
# The file may be used within the scientific community so long as
# proper attribution is given to the journal article from which the
# data were obtained.
#
data_2311753
loop_
_publ_author_name
'Ende, Martin'
'Effenberger, Herta'
'Miletich, Ronald'
_publ_section_title
;
 Evolution of the \a-BaMg(CO<sub>3</sub>)<sub>2</sub> low-temperature
 superstructure and the tricritical nature of its \a-\b phase transition.
;
_journal_issue                   'Pt 5'
_journal_name_full
'Acta crystallographica Section B, Structural science, crystal engineering and materials'
_journal_page_first              827
_journal_page_last               835
_journal_paper_doi               10.1107/S2052520617009295
_journal_volume                  73
_journal_year                    2017
_chemical_formula_sum            'C6 Ba3 Mg3 O18'
_chemical_formula_weight         845.01
_space_group_crystal_system      trigonal
_space_group_IT_number           166
_space_group_name_Hall           '-R 3 2"'
_space_group_name_H-M_alt        'R -3 m :H'
_audit_creation_method           SHELXL-2014/7
_cell_angle_alpha                90
_cell_angle_beta                 90
_cell_angle_gamma                120
_cell_formula_units_Z            1
_cell_length_a                   5.02090(10)
_cell_length_b                   5.02090(10)
_cell_length_c                   16.7515(5)
_cell_measurement_reflns_used    5014
_cell_measurement_temperature    370(2)
_cell_measurement_theta_max      45
_cell_measurement_theta_min      1.5
_cell_volume                     365.719(15)
_computing_structure_refinement  'SHELXL-2014/7 (Sheldrick, 2014)'
_diffrn_ambient_temperature      370(2)
_diffrn_measured_fraction_theta_full 0.990
_diffrn_measured_fraction_theta_max 0.995
_diffrn_measurement_device_type  StoeStadiVari
_diffrn_radiation_type           MoK\a
_diffrn_radiation_wavelength     0.71073
_diffrn_reflns_av_R_equivalents  0.0262
_diffrn_reflns_av_unetI/netI     0.0109
_diffrn_reflns_Laue_measured_fraction_full 0.990
_diffrn_reflns_Laue_measured_fraction_max 0.995
_diffrn_reflns_limit_h_max       10
_diffrn_reflns_limit_h_min       -9
_diffrn_reflns_limit_k_max       9
_diffrn_reflns_limit_k_min       -10
_diffrn_reflns_limit_l_max       33
_diffrn_reflns_limit_l_min       -17
_diffrn_reflns_number            5014
_diffrn_reflns_point_group_measured_fraction_full 0.990
_diffrn_reflns_point_group_measured_fraction_max 0.995
_diffrn_reflns_theta_full        25.242
_diffrn_reflns_theta_max         45.580
_diffrn_reflns_theta_min         3.649
_exptl_absorpt_coefficient_mu    8.230
_exptl_absorpt_correction_T_max  0.8
_exptl_absorpt_correction_T_min  0.7
_exptl_absorpt_correction_type   numerical
_exptl_absorpt_process_details   '(Stoe & Cie GmbH 2016)'
_exptl_crystal_density_diffrn    3.837
_exptl_crystal_description       prismatic
_exptl_crystal_F_000             384
_exptl_crystal_size_max          0.060
_exptl_crystal_size_mid          0.030
_exptl_crystal_size_min          0.030
_refine_diff_density_max         1.116
_refine_diff_density_min         -0.715
_refine_diff_density_rms         0.140
_refine_ls_extinction_method     none
_refine_ls_goodness_of_fit_ref   1.165
_refine_ls_hydrogen_treatment    undef
_refine_ls_matrix_type           full
_refine_ls_number_parameters     14
_refine_ls_number_reflns         428
_refine_ls_number_restraints     0
_refine_ls_restrained_S_all      1.165
_refine_ls_R_factor_all          0.0139
_refine_ls_R_factor_gt           0.0139
_refine_ls_shift/su_max          0.000
_refine_ls_shift/su_mean         0.000
_refine_ls_structure_factor_coef Fsqd
_refine_ls_weighting_details
'w=1/[\s^2^(Fo^2^)+(0.0123P)^2^+0.8639P] where P=(Fo^2^+2Fc^2^)/3'
_refine_ls_weighting_scheme      calc
_refine_ls_wR_factor_gt          0.0325
_refine_ls_wR_factor_ref         0.0326
_reflns_Friedel_coverage         0.000
_reflns_number_gt                428
_reflns_number_total             428
_reflns_threshold_expression     'I > 2\s(I)'
_cod_data_source_file            xk5041sup1.cif
_cod_data_source_block           norse_370
_cod_original_cell_volume        365.72(2)
_cod_original_sg_symbol_H-M      'R -3 m'
_cod_database_code               2311753
_shelx_shelxl_version_number     2014/7
_shelx_space_group_comment
;
The symmetry employed for this shelxl refinement is uniquely defined
by the following loop, which should always be used as a source of
symmetry information in preference to the above space-group names.
They are only intended as comments.
;
_shelx_estimated_absorpt_t_min   0.638
_shelx_estimated_absorpt_t_max   0.790
_shelx_res_file
;

    norse_370_a.res created by SHELXL-2014/7


TITL norse_440_a.res in R-3m
REM Old TITL norse_440 in R3m

REM SHELXT solution in R-3m
REM R1 0.034,  Rweak 0.143,  Alpha 0.055,  Orientation as input
REM Formula found by SHELXT:  C2 O6 Mg Ba

CELL  0.71073   5.0209   5.0209  16.7515   90.000   90.000  120.000
ZERR    1.000   0.0001   0.0001   0.0005    0.000    0.000    0.000
LATT  3
SYMM -Y, X-Y, Z
SYMM -X+Y, -X, Z
SYMM Y, X, -Z
SYMM X-Y, -Y, -Z
SYMM -X, -X+Y, -Z
SFAC C O MG BA
UNIT 6 18 3 3
L.S. 20
BOND $H
LIST 4
TEMP 97.15
SIZE 0.06 0.03 0.03
ACTA
FMAP 2
PLAN 20
REM EXTI    0.000153
WGHT    0.012300    0.863900
FVAR       0.44666
BA1   4    0.000000    0.000000    0.500000    10.08333    0.01148    0.01148 =
         0.01687    0.00000    0.00000    0.00574
MG2   3    0.000000    0.000000    0.000000    10.08333    0.00882    0.00882 =
         0.01382    0.00000    0.00000    0.00441
O3    2    0.853537    0.707074    0.257783    10.50000    0.03512    0.00968 =
         0.02692    0.00421    0.00210    0.00484
C4    1    0.000000    0.000000    0.260719    10.16667    0.01050    0.01050 =
         0.01165    0.00000    0.00000    0.00525
HKLF 4

REM  norse_440_a.res in R-3m
REM R1 =  0.0139 for     428 Fo > 4sig(Fo)  and  0.0139 for all     428 data
REM     14 parameters refined using      0 restraints

END

WGHT      0.0123      0.8640

REM Highest difference peak  1.116,  deepest hole -0.715,  1-sigma level  0.140
Q1    1   0.0000  0.0000  0.4620  10.16667  0.05    0.75
Q2    1  -0.0690  0.0690  0.2622  10.50000  0.05    0.45
Q3    1   0.7147  0.4293  0.2260  10.50000  0.05    0.31
Q4    1  -0.0545 -0.1089  0.3454  10.50000  0.05    0.31
Q5    1   0.1031  0.2061  0.3545  10.50000  0.05    0.29
Q6    1   0.7839  0.7186  0.2095  11.00000  0.05    0.29
Q7    1  -0.0730 -0.1460  0.3781  10.50000  0.05    0.26
Q8    1   0.1278  0.2555  0.0559  10.50000  0.05    0.26
Q9    1   0.0000  0.0000  0.3772  10.16667  0.05    0.26
Q10   1   0.6757  0.8378  0.3056  10.50000  0.05    0.26
Q11   1   0.9944  0.7872  0.3174  11.00000  0.05    0.25
Q12   1   0.7981  0.5963  0.2898  10.50000  0.05    0.25
Q13   1   0.6667  0.7661  0.3333  10.50000  0.05    0.25
Q14   1   1.2090  0.7910  0.2738  10.50000  0.05    0.24
Q15   1   0.9527  0.5474  0.2111  11.00000  0.05    0.24
Q16   1   0.9149  0.8299  0.3031  10.50000  0.05    0.24
Q17   1   0.1789 -0.1789  0.0230  10.50000  0.05    0.24
Q18   1   0.6964  0.7237  0.2985  11.00000  0.05    0.23
Q19   1  -0.1633 -0.1421  0.2916  11.00000  0.05    0.23
Q20   1   0.6085  0.6039  0.2763  11.00000  0.05    0.22
;
_shelx_res_checksum              47374
_shelx_hkl_file
;
   0  -4  -8 1043.99   20.08   0
  -2  -2  18  335.69   10.32   0
   0  -1   7 1863.68   26.41   0
  -1   2   0 3988.67   37.33   0
   0  -4   4 1518.60   16.77   0
   0  -4  -5  362.25   10.70   0
   0  -3   6 2074.69   20.37   0
  -1  -4   9  684.62   11.56   0
   0  -4  -2 1622.34   18.67   0
  -1  -5  -2  689.93   12.23   0
  -1  -5   1  286.26    8.13   0
  -1  -3  11  354.27    9.00   0
   0   0  -3 1480.09   50.87   0
  -1  -1  12 1789.14   21.83   0
  -2  -2  15  180.84    8.01   0
   0  -3   3 2179.85   21.85   0
   0  -2   5  199.45    9.28   0
   0  -3  -6 2672.30   29.33   0
   0  -1   4 9505.12   62.57   0
   0  -3   0 2679.09   25.06   0
  -1  -4   3  333.89    8.59   0
  -1  -3   8 1982.48   18.70   0
  -1  -2  10 1383.01   16.88   0
   0  -1  -5 3867.42   35.11   0
   1   0  10 1515.32   18.05   0
   2  -1  15  569.94   10.91   0
   0   0  -3 1601.91   32.65   0
   1  -1  11  438.94   10.18   0
   3   0  15  519.11    9.58   0
   3   2   7  363.02    9.58   0
   2   1  10 1392.79   16.07   0
   1   1   6 4017.72   32.21   0
   0   0  -6  331.92   12.89   0
   2  -4  12 1756.38   27.11   0
   0  -2   2 5088.95   40.11   0
  -1  -4  -6  894.39   14.81   0
  -1  -2  -2 3203.97   31.12   0
  -2  -2 -12 1756.47   28.06   0
   0  -4   1 1402.63   17.23   0
   1  -5   3  348.99    9.17   0
   4  -5   9  348.69   10.46   0
  -1   1  -8 5387.72   49.00   0
   0  -5  -1  306.98    8.63   0
   3  -5   8 1631.29   18.47   0
   1  -4   5 1113.45   15.82   0
  -2  -1 -10 1456.64   33.16   0
   2  -6   5  292.30    8.29   0
   0  -3   3 2103.82   22.15   0
  -1  -4  -3  836.87   13.80   0
   2  -2   7  341.64   13.57   0
   2  -3   8 1980.13   23.46   0
   3  -3   9 1253.08   21.33   0
  -1  -5  -5  401.17   10.15   0
   0  -5   2 1098.74   14.10   0
   1  -2   6 3824.37   35.92   0
   1  -5   6 1077.22   14.39   0
   3  -6   9  356.69    9.04   0
  -2  -3  -8 1750.36   21.97   0
   0  -4   4 1501.51   17.28   0
   1  -3   7 1623.77   19.91   0
   3  -4  10  850.56   15.35   0
   2  -4   9  991.81   15.03   0
  -2  -2  -6  768.39   16.16   0
  -1  -5  -2  671.34   11.51   0
  -1  -2   1  681.13   14.00   0
  -2  -1  -7 1658.43   30.51   0
   1  -4   8 1967.39   19.93   0
   2   0   2 5186.44   54.91   0
  -2  -3  -5  721.11   13.75   0
   4  -4  11  619.11   15.03   0
  -1  -3   2 1293.60   16.56   0
  -1  -1   0 4041.73   40.70   0
   3  -5  11  247.43    8.40   0
   0  -2   5  177.78    8.50   0
   0  -5   5  676.36   11.16   0
   0  -3   6 2029.60   20.95   0
   1  -1   5 4061.24   53.02   0
   4  -3  10  855.85   22.65   0
  -2  -2  -3  810.27   15.32   0
  -2  -4  -4  781.51   13.15   0
  -1  -4   3  334.72    8.80   0
   0  -4   7  304.26    8.45   0
  -2  -3  -2  679.17   12.83   0
   0  -1   4 9820.74   64.81   0
  -2  -1  -4 3340.21   37.03   0
  -2  -4  -1  567.34   11.11   0
  -1  -3   5 1061.06   14.57   0
  -1  -2   4 3312.71   27.50   0
   0  -5   8  601.47   10.45   0
   2  -4  12 1713.47   19.48   0
   2  -3  11  447.72   12.03   0
   1   0   1 2006.38   45.82   0
  -2  -3   1  758.62   12.57   0
  -1  -4   6 1054.28   13.56   0
   2  -5  13  532.49   11.02   0
   3  -4  13  579.34   13.10   0
   3  -5  14  334.81    9.60   0
  -2  -4   2  781.74   12.24   0
   0  -4  10 1173.47   14.77   0
   0  -2   8 3072.77   27.54   0
  -1  -1   3 1978.96   25.37   0
  -2  -3   4 2043.73   19.45   0
  -1  -3   8 2018.90   19.35   0
   2   0  -1 5344.82   42.74   0
  -2  -2   3  779.76   13.19   0
  -1  -4   9  673.80   11.41   0
  -1  -2   7 1605.58   18.78   0
  -3  -2  -7  335.10   11.49   0
  -3  -2  -4 2126.24   23.38   0
  -3  -3   0  978.45   14.19   0
   0  -3  12 1512.23   17.39   0
   1  -3  13  496.52   11.56   0
   2  -4  15  184.46    8.03   0
  -2  -3   7  353.48    8.64   0
  -3  -2  -1  762.04   13.65   0
  -2  -1   2 3002.27   28.05   0
  -1   0 -10 1440.91   26.07   0
   0  -1   7 1683.34   24.23   0
  -2  -2   6  740.50   12.39   0
  -1  -3  11  338.69    8.63   0
  -3  -3   3  420.10    9.76   0
  -1  -1   6 3958.38   31.96   0
   0  -2  11 1829.14   20.23   0
  -1  -2  10 1395.47   16.64   0
   1  -2  12 1844.11   22.69   0
   1   0  -2 2555.02   35.00   0
  -3  -1  -5 1038.01   19.97   0
  -2  -3  10  514.82    9.93   0
   3  -1  -8 2102.51   54.78   0
   1   2  20  385.68   10.28   0
   4  -1  11  354.30    9.57   0
   3  -1  10 1429.50   17.61   0
  -1   2  15  538.73   15.49   0
   0   1  14 1214.80   19.43   0
   2   1  19  272.70    8.79   0
   2  -1   6 3987.23   33.17   0
  -1   1  -5 3945.96   37.03   0
   0   0   3 1701.87   45.16   0
   1   1  18  792.65   14.04   0
   5  -2   1  787.23   14.39   0
   5  -2   4 2089.32   20.91   0
   6  -2   2  827.47   13.79   0
   1   0  13 1075.32   16.62   0
   6  -2  -1  584.57   12.61   0
   6  -2   5  306.91    9.01   0
   2  -1   9 1175.88   17.48   0
   3  -1  13  505.77   11.00   0
   5  -2  -2  697.41   14.75   0
   5  -2   7  370.88    9.44   0
   2   0  17  250.19    8.74   0
   4  -2   0 4383.82   34.82   0
   4  -2   6  748.67   13.21   0
   0   0   6  269.62   14.47   0
   5  -2  10  565.71   10.67   0
   4  -2   9 1062.03   14.92   0
   1   0  -8 5509.06   59.80   0
  -1   1  -2 2506.30   35.11   0
   2  -1  12 1744.98   19.54   0
   5  -2  -5  724.64   16.95   0
   4  -2  -3  836.12   18.05   0
   0   1  17  824.87   16.01   0
   1   0  16 1593.60   19.42   0
   1   1  21  257.83    8.98   0
   4  -2  12 1770.91   17.82   0
   2   0  20  672.57   12.29   0
   3  -2   5 2063.35   22.38   0
   3  -2   2 3085.04   29.66   0
   3  -2   8 2064.68   21.01   0
   3  -1  19  261.34    8.70   0
   4  -2  15  172.84    6.93   0
   6  -3   6  663.94   11.93   0
   3  -2  11  459.21   10.33   0
   6  -3   3  431.23   10.63   0
  -2   2   5  162.61   11.90   0
   1  -1   5 3869.66   38.31   0
   1  -1   8 5106.82   38.83   0
   5  -3   8 1742.57   17.86   0
   6  -3   0 1024.52   16.03   0
   0   0  12 4497.18   38.30   0
   1   0  19  225.38    8.61   0
   5  -3   2  691.65   13.11   0
   3  -2  14 1201.95   15.00   0
   5  -3  11  264.10    8.03   0
   2  -1  18  788.08   13.12   0
   1  -1   2 2450.43   36.39   0
  -1   1   1 1886.71   39.53   0
   2   0 -10 3607.41   46.03   0
   4  -3   7  659.09   12.07   0
   5  -3  -1  820.35   15.58   0
  -1   1  13 1084.82   23.91   0
   4  -3  10  890.14   13.51   0
   1  -1  14 1260.51   17.51   0
   2  -2   7  329.51    9.84   0
   0   0  15  160.41    8.34   0
   2  -2  10 3391.69   26.69   0
   4  -3  13  607.82   11.22   0
   2  -2   4 2225.71   25.31   0
   4  -3   1  879.21   15.23   0
   2  -2  13 1178.91   15.89   0
   6  -4   7  247.71    8.50   0
   6  -4   4  818.34   13.39   0
   1  -1  17  864.56   14.33   0
   3  -2  -4 3490.38   43.90   0
   2  -2  16  567.36   11.06   0
   3  -3   9 1286.89   16.44   0
   5  -3  -4 2240.95   28.38   0
   5  -4   9  355.15    8.93   0
   0   0  18  551.10   12.87   0
   2  -2   1 5397.68   43.57   0
   3  -3   6 2591.30   23.40   0
   3  -3  12 1009.68   13.89   0
   6  -4   1  593.16   12.44   0
  -1   1  16 1539.43   26.25   0
   3  -3  15  277.94    8.00   0
   5  -4   3  873.56   14.03   0
   1  -1  20  650.22   12.56   0
   2  -2  19  208.28    7.53   0
   3  -3   3  547.31   12.09   0
   3  -3  18  680.83   11.75   0
   4  -4   8 1468.73   16.98   0
   4  -4  11  693.55   11.47   0
   1  -1  -1 1852.18   41.59   0
   4  -4  14  562.92   11.03   0
   6  -4  -2  853.91   16.24   0
   4  -4   5  383.24    9.93   0
   0   1  -4 9780.30   63.28   0
   2  -3   5 2113.81   22.30   0
   2  -3  11  436.31   10.43   0
   0   1  -4 9999.99   65.15   0
   3  -4   7  700.58   12.25   0
   1  -2   9 1172.36   17.73   0
   3  -4  10  865.11   13.11   0
   1  -2   6 3982.71   33.24   0
   3  -4   4 2693.43   22.73   0
   1  -2  12 1697.60   20.21   0
   2  -3  14 1212.11   15.41   0
   2  -3   2 3019.48   26.91   0
   5  -5  -2 1161.87   16.24   0
  -1   2   3 1922.83   26.72   0
   4  -5   9  352.00    8.63   0
   4  -5   6  926.89   13.28   0
   1  -6  13  204.70    8.21   0
   1  -6  19  122.14    8.23   0
   2  -5  16  621.28   11.98   0
   2  -4   9 1001.52   13.73   0
   0  -6   9  245.41    8.71   0
   1  -6  16  318.36   10.63   0
  -1  -6   8  553.53   12.22   0
  -3  -6  12  131.86    8.80   0
   0  -6  21  107.80    8.56   0
  -2  -4  -1  591.85   12.44   0
   0  -6  12  516.22   11.91   0
   1  -5  24  107.99    8.08   0
   2  -4  21  322.98    9.79   0
   0  -5   5  652.47   11.65   0
   1  -5   9  683.16   12.18   0
   1  -4   5 1109.11   14.61   0
  -1  -6  11  132.03    7.77   0
  -1  -4   0 1323.42   16.63   0
   0  -6  15  118.06    7.71   0
   0  -6  18  114.15    7.82   0
   2  -4  18  312.08    9.74   0
  -1  -6  20  167.07    8.93   0
  -1  -5   4  740.43   12.89   0
   2  -4  15  164.25    7.17   0
  -2  -6  16  145.95    8.50   0
  -1  -6  14  129.20    8.59   0
   0  -5  26  122.12    8.19   0
  -3  -5   5  171.05    8.88   0
  -1  -6  17  128.49    7.97   0
   1  -5  21  168.53    9.00   0
   1  -5  12  617.40   11.27   0
   1  -3   4 3309.82   25.40   0
   2  -3  20  398.55   10.40   0
   2  -3  14 1254.76   16.07   0
   2  -2  13 1207.17   17.20   0
   0  -5   8  643.25   11.49   0
  -4  -5  10   82.54    8.30   0
   0  -5  23   56.90    7.30   0
  -3  -4   1  203.37    8.97   0
  -1  -3  -1  845.64   14.29   0
   0  -4  28   47.70    7.06   0
   1  -4   8 1987.24   18.58   0
   2  -2  16  567.56   12.09   0
  -2  -3  -2  681.64   13.42   0
   0  -4   4 1418.55   16.19   0
   1  -4  23   50.40    7.29   0
  -4  -5  13  117.64    8.05   0
   0  -5  11  200.84    8.06   0
  -2  -4   2  858.97   13.98   0
  -1  -5  22  114.78    8.15   0
   0  -5  14  565.49   11.85   0
   0  -5  17  247.00    9.53   0
  -3  -5  11  110.59    8.31   0
  -2  -5   9  136.16    8.35   0
  -1  -5  10  456.11   10.69   0
  -1  -4   3  348.96    9.13   0
   1  -4  11  343.36    8.89   0
   1  -4  20  404.15   10.39   0
  -2  -5  21   84.84    8.04   0
  -3  -5  17   97.28    8.31   0
  -1  -5  19  115.06    8.29   0
   0  -4  25  115.60    7.57   0
   1  -4  14  658.87   11.86   0
   1  -3   7 1584.92   17.58   0
  -2  -5  12  373.61   10.62   0
  -1  -5  13  191.05    9.01   0
  -1  -4  27   38.06    6.90   0
  -2  -5  18  120.78    8.80   0
  -1  -5  16  307.73    9.46   0
  -2  -5  15  147.38    7.76   0
   0  -4   7  288.36    8.35   0
   0  -3   3 1995.47   19.90   0
  -3  -4   4  521.06   11.86   0
   1  -3  22  264.84    8.86   0
  -5  -4  11   67.40    7.29   0
  -4  -4   6  226.13    9.53   0
   0  -4  22  309.81    9.85   0
   0  -3  27   61.31    7.01   0
  -5  -4  14   58.43    7.19   0
  -1  -3  29   74.09    6.91   0
  -2  -4   5  320.71    9.66   0
  -1  -4   6 1060.12   14.46   0
   1  -3  10 1377.54   16.31   0
   0  -4  10 1200.65   14.67   0
   1  -3  19  261.42    8.77   0
  -3  -3   0 1017.60   15.67   0
  -4  -4   9  154.58    8.90   0
   0  -4  13  695.60   12.20   0
  -3  -4   7  334.63   10.13   0
  -2  -4  23   79.11    7.79   0
   0  -4  16  433.58    9.98   0
   1  -3  16 1064.75   14.56   0
  -4  -4  18   80.16    7.91   0
  -1  -4  21  183.82    8.65   0
   0  -3  24  246.33    9.20   0
  -2  -3   1  790.53   13.48   0
  -2  -3  28   74.02    7.58   0
  -1  -4   9  681.38   12.00   0
  -4  -4  15   65.18    7.38   0
  -4  -3   2  619.15   12.88   0
   1  -2  21  272.25    8.83   0
  -1  -4  18  432.26   10.78   0
  -1  -3  26  150.62    8.06   0
   0  -3   6 2025.62   19.47   0
  -6  -3  12  152.67    8.62   0
  -3  -4  10  370.80   10.68   0
  -3  -4  19  100.62    7.92   0
  -2  -4  20  207.16    8.44   0
  -1  -4  12  615.24   11.81   0
  -1  -4  15  150.51    8.29   0
   0  -2  26  152.12    8.02   0
  -3  -4  16  243.06    8.71   0
  -2  -4  11  329.35    9.68   0
  -2  -4  17  128.98    8.33   0
  -2  -4  14  379.40   10.62   0
  -2  -2  30   60.44    6.75   0
   0  -3  21  209.52    8.67   0
  -1  -2  28  116.19    8.01   0
  -5  -3   7  123.49    8.19   0
   1  -2  12 1643.91   18.51   0
  -4  -3  23   30.26    7.82   0
  -3  -3   3  445.25   10.80   0
  -1  -3  23   64.10    6.60   0
   0  -3   9  539.49   10.44   0
  -3  -3  24  105.22    8.12   0
  -1  -3   5 1050.92   14.27   0
  -5  -3  10  189.57    8.99   0
  -4  -3   5  365.94    9.92   0
  -5  -3  16  139.17    8.71   0
  -2  -3   4 2188.08   20.58   0
   0  -3  12 1555.45   16.59   0
   0  -3  15  482.97   10.22   0
   0  -2  23  202.89    8.21   0
  -5  -3  13  149.43    8.53   0
  -4  -3  20  105.92    8.45   0
  -2  -3  22  197.58    9.09   0
  -2  -2  27   25.99    6.62   0
   2   1  16 1023.60   17.71   0
   9  -3   9  163.71   10.44   0
   3  -2   8 2087.68   22.44   0
   3  -1  13  476.93   12.16   0
   7  -4   5  358.39   12.01   0
   9  -4   4  322.60   12.64   0
   8  -4   6  229.67   11.65   0
   8  -3  11  109.36    9.56   0
   7  -2  15  149.72   10.55   0
   7  -1  17  135.09    9.89   0
   4  -2  12 1826.30   20.07   0
   2   0  14 1012.99   16.92   0
   6  -3  12  586.94   13.60   0
   7  -3  13  136.17   10.25   0
   7   0  19   31.70    8.82   0
   9  -4   7   71.90    9.42   0
   4  -3   7  643.08   12.79   0
   5  -4  -6 1030.99   18.95   0
   5  -4   0 1415.92   18.76   0
   7  -4   8  383.35   11.28   0
   5  -1  18  400.58   12.08   0
   8  -4   9  180.59   11.00   0
   4   0  19   89.43    8.51   0
   5   0  20  163.39   10.68   0
   6  -4   7  264.78   10.59   0
   4  -1  17  453.22   12.25   0
   6  -1  19   94.60    9.81   0
   8  -3  14  151.33   10.61   0
   8  -5  -2  237.97   10.85   0
   8  -5   1  217.46   10.56   0
   9  -5  -1  145.43   10.30   0
   3   0  18  466.24   12.38   0
   9  -5   2   97.56   10.11   0
   9  -4  10   90.83    9.44   0
   3  -3   0 2545.52   26.78   0
   3  -2  11  447.06   11.01   0
   6   0  21   99.63    9.50   0
   7  -2  18  131.67   10.25   0
   7  -5  -3  426.31   12.54   0
   7  -4  11  152.98    9.05   0
   2  -1  12 1682.69   20.57   0
   5  -4   6  873.26   14.95   0
   6  -3  15  167.51    9.95   0
   7  -1  20  153.67    9.82   0
   8  -4  12  297.31   11.94   0
   4  -3  10  857.37   14.71   0
   6  -4  10  602.83   12.84   0
   7  -5   3  135.57    9.54   0
   7  -3  16  256.03   11.00   0
   9  -5   5  115.35    9.64   0
   3  -3   3  523.18   12.51   0
   3  -1  16 1050.04   15.98   0
  10  -5   3   62.94    8.46   0
   1   1  15  515.93   13.91   0
   5  -3  14  368.16   10.59   0
   8  -3  17  106.31    9.22   0
   9  -4  13  115.03    9.65   0
   5  -4   9  340.72   10.27   0
   6  -5  -1  324.45   11.16   0
   7  -4  14  311.09   12.00   0
   2  -2   7  330.12   10.08   0
   3  -3   6 2566.46   23.81   0
   5  -1  21  169.97    9.77   0
   6  -5   2  714.88   13.65   0
   6  -2  20  193.67   10.42   0
   8  -4  15   73.42    9.57   0
   2   0  17  254.51    9.86   0
   4  -4  -1 1396.84   19.57   0
   5  -2  19   78.72    8.66   0
   6  -5  -4  756.41   15.57   0
   6  -4  13  334.67   10.69   0
   6  -1  22  120.98   10.21   0
   8  -5  10  195.54   10.68   0
   4  -1  20  372.19   11.41   0
   7  -5   9  340.17   11.87   0
   4  -3  13  590.70   12.18   0
   7  -2  21   71.75    9.31   0
   9  -5  11   62.34    8.95   0
   1   0  13 1080.96   18.04   0
   4  -4  -4 1454.23   21.47   0
   4  -2  18  312.33   10.64   0
   5  -4  12  853.86   14.12   0
   9  -6   0  256.17   11.04   0
   9  -6   3  145.55   10.14   0
   3  -3   9 1292.06   17.12   0
   6  -5   8  588.27   12.58   0
   8  -3  20   98.15    8.95   0
   2  -1  15  536.59   11.92   0
   7  -5  12  268.82   11.16   0
   8  -6  -1  189.40   10.30   0
   8  -6   2  203.20   10.22   0
   3  -1  19  286.39   10.17   0
   9  -6   6  132.25    9.31   0
   2  -2  10 3347.78   27.29   0
   4  -4   8 1422.20   17.85   0
   6  -4  16  289.58   10.12   0
   8  -6   5  165.09    9.91   0
   8  -4  18   94.27    8.51   0
   9  -5  14   60.02    9.37   0
   4  -3  16  769.76   13.92   0
   5  -5   1  315.87    9.91   0
   6  -5  11  194.54   10.03   0
   9  -6   9   68.36    9.03   0
   5  -5   4  920.12   14.78   0
   6  -2  23   73.11    9.04   0
   7  -6   1  326.23   11.35   0
   8  -6   8  319.53   11.74   0
   5  -5  -2 1124.67   17.79   0
   5  -2  22  173.77    9.56   0
   6  -3  21  121.92    9.48   0
   7  -6  -2  242.62   10.38   0
   7  -5  15   69.67    8.95   0
   7  -3  22  114.14    9.19   0
   8  -5  16  159.77    9.77   0
   3  -3  12 1013.44   15.01   0
   5  -5   7  619.90   13.05   0
   5  -3  20  363.10   11.43   0
   7  -6   7  132.00    9.45   0
   4  -1  23   68.44    8.24   0
   8  -6  11   93.05    9.56   0
   4  -2  21  310.17   10.80   0
   6  -5  14  366.83   11.72   0
   6  -4  19   71.46    8.82   0
   1  -1  11  427.92   11.78   0
   5  -5  10  591.07   13.00   0
   7  -6  10  213.36   10.48   0
   1   0  16 1542.95   21.03   0
   2  -1  18  796.61   14.59   0
   4  -3  19  137.57    8.80   0
   5  -4  18  265.37   10.71   0
   6  -6   3  230.50   10.08   0
   8  -5  19   45.93    8.51   0
   4  -4  14  581.66   12.02   0
   6  -6   0  844.68   15.67   0
   3  -3  15  280.25    9.17   0
   3  -1  22  278.20   10.33   0
   6  -6   6  358.80   10.51   0
   9  -7   4  174.90   10.41   0
   3  -4   4 2675.36   24.54   0
   9  -7   7  114.76    9.52   0
   2  -3   5 2056.75   22.20   0
   3  -4   1  894.32   15.67   0
   5  -5  13  190.08    8.92   0
   6  -5  17  195.96    9.30   0
   6  -3  24   97.26    9.11   0
   3  -2  20  401.04   11.23   0
   6  -6   9  312.19   10.16   0
   3  -4   7  687.89   12.77   0
   5  -2  25  118.17    9.27   0
   7  -4  23   43.54    8.18   0
   8  -7   3  164.19    9.98   0
   8  -7   6  145.18   10.09   0
   5  -3  23   43.52    8.33   0
   6  -4  22  166.60    9.92   0
   9  -7  10  112.27    8.96   0
   2  -3   8 2062.86   21.14   0
   2  -2  16  599.44   12.66   0
   4  -5   3  863.16   14.38   0
   8  -6  17   76.14    9.38   0
   4  -5   6  904.58   14.44   0
   8  -7   9  106.32    9.27   0
   1  -1  14 1205.17   17.62   0
   3  -4  -2 1275.25   19.42   0
   3  -4  10  864.22   14.39   0
   4  -5   0 1419.60   19.21   0
   4  -4  17  223.10    8.96   0
   7  -6  16  226.05   10.54   0
   7  -5  21  109.65    9.28   0
   4  -2  24  235.94   10.15   0
   5  -5  16  401.77   11.69   0
   4  -5   9  345.67   10.02   0
   5  -4  21  125.26    8.31   0
   3  -3  18  730.21   13.24   0
   4  -3  22  239.45   10.07   0
   6  -5  20  166.12    9.94   0
   7  -7   2  150.30    9.46   0
   5  -6   5  436.24   11.59   0
   7  -7   8  477.16   13.10   0
   3  -4  13  605.35   12.50   0
   4  -5  12  808.87   14.16   0
   5  -6   2  723.52   14.30   0
   6  -6  15   96.85    8.29   0
   2  -1  21  273.88    9.83   0
   4  -5  -3  338.18   11.10   0
   7  -6  19   47.25    8.45   0
   1  -2   9 1173.19   16.77   0
   8  -7  15   53.07    9.04   0
   3  -2  23  106.71    8.22   0
   5  -6  11  199.62    9.82   0
   5  -5  19  142.46    8.75   0
   6  -4  25   70.28    8.46   0
   2  -3  14 1262.05   16.79   0
   2  -2  19  206.78    8.98   0
   5  -6  -1  317.67   10.77   0
   4  -5  15  255.63   10.32   0
   5  -3  26   81.71    8.85   0
   6  -6  18  165.06   10.16   0
   7  -7  14  115.14    9.63   0
   1  -1  17  815.47   14.75   0
   3  -4  16  774.19   13.44   0
   3  -3  21  266.89   10.04   0
   5  -4  24  161.15    9.90   0
   5  -6  14  349.74   10.54   0
   6  -7   4  592.21   13.37   0
   6  -7   7  138.06    9.24   0
   4  -3  25  129.34    9.10   0
   7  -6  22   85.05    8.98   0
   8  -8   4  201.40   11.06   0
   8  -8   7   89.64    8.83   0
   4  -5  18  251.38   10.54   0
   6  -7  13  210.44   10.40   0
   8  -8  10  107.37    8.55   0
   3  -5   8 1667.18   19.04   0
   4  -4  23  116.34    8.88   0
   5  -6  17  196.80   10.02   0
   6  -6  21  105.29    9.36   0
   1  -2  15  518.42   11.80   0
   2  -4   6  733.23   13.34   0
   8  -8  13   74.34    8.28   0
   2  -4   9 1043.90   14.92   0
   3  -5  11  258.25    9.11   0
   4  -6   4  807.62   14.49   0
   2  -2  22  578.47   12.79   0
   3  -5   2  671.21   12.89   0
   4  -6  10  595.42   12.24   0
   6  -7  16  214.44   10.64   0
   7  -8   6  145.72    9.31   0
   7  -8   9  110.00    9.76   0
   7  -7  20  121.14    9.18   0
   2  -4  12 1773.68   19.15   0
   3  -3  24  164.97    9.27   0
   5  -4  27   45.21    7.63   0
   1  -1  20  660.79   13.92   0
   3  -5  14  360.83   10.99   0
   4  -6  13  337.52   10.29   0
   7  -8   3  155.38    9.65   0
   4  -6   1  572.13   12.87   0
   5  -7   6  470.97   12.39   0
   5  -6  20  168.26    9.27   0
   7  -8  12  200.00   10.58   0
   2  -3  20  395.93   10.92   0
   5  -7   3  134.65    8.73   0
   5  -5  25   53.60    8.16   0
   1  -3   7 1601.50   18.72   0
   2  -4  15  189.54    8.94   0
   3  -5  -1  766.63   14.68   0
   3  -4  22  215.05    9.96   0
   6  -7  19   48.55    8.97   0
   1  -3  10 1439.55   17.34   0
   1  -2  18  822.77   14.37   0
   4  -6  16  303.57   10.02   0
   7  -8  15   40.59    7.84   0
   2  -4   0 4105.96   31.96   0
   3  -5  17  384.81   10.46   0
   4  -4  26  108.14    9.19   0
   1  -3   4 3352.62   27.81   0
   5  -7  15   69.36    8.86   0
   1  -3  13  509.44   11.06   0
   5  -7   0  558.75   13.25   0
   6  -8   8  298.71   11.15   0
   0  -1  13 1075.20   16.70   0
   4  -6  -2  834.29   15.55   0
   6  -8   5  166.72    9.70   0
   6  -8  11   96.22    9.21   0
   4  -6  19   89.38    9.14   0
   4  -5  24  155.78    9.31   0
   6  -7  22   85.04    9.11   0
   5  -7  18  190.53   10.21   0
   2  -3  23  102.01    8.24   0
   3  -5  20  352.94   11.27   0
   3  -3  27   65.99    8.16   0
   6  -8   2  210.96   10.65   0
   3  -6   9  385.52   10.94   0
   1  -2  21  271.80    9.80   0
   3  -6  12  570.12   12.74   0
   3  -4  25  133.12    9.15   0
   2  -5  10  532.64   11.84   0
   6  -8  17   86.76    8.79   0
   0  -1  16 1596.95   20.01   0
   2  -5   7  340.11    9.74   0
   4  -7  11  142.17    8.35   0
   4  -6  22  174.75    9.87   0
   2  -5  13  554.99   12.34   0
   2  -4  21  312.93   10.72   0
   3  -6  15  153.44    9.49   0
   4  -7   5  367.49   11.08   0
   5  -7  21  118.05    9.28   0
   3  -6   3  424.32   11.37   0
   4  -7  14  301.53   10.15   0
   7  -9   7   93.02    9.03   0
   7  -9  10  113.40    9.13   0
   0  -2   8 3037.00   26.30   0
   0  -2  11 1822.87   20.20   0
   1  -3  19  272.96    9.07   0
   3  -5  23   36.28    7.01   0
   4  -5  27   36.22    7.68   0
   5  -8  10  188.83   10.00   0
   2  -5  16  611.52   12.37   0
   5  -8   7  106.90    9.32   0
   1  -4   8 1999.96   20.20   0
   1  -4  11  362.06   10.32   0
   3  -6  18  257.35   10.24   0
   4  -7   2  619.11   13.37   0
   4  -7  17  145.42    8.64   0
   0  -2  14  977.69   14.74   0
   1  -4  14  651.83   12.88   0
   2  -3  26  197.35    9.38   0
   5  -8   4  391.97   11.77   0
   5  -8  16  172.40   10.25   0
   4  -6  25   68.91    8.81   0
   0  -1  19  220.46    8.92   0
   1  -4   5 1054.03   15.16   0
   2  -5  19   77.12    8.43   0
   3  -6   0 1038.68   16.44   0
   3  -4  28   84.46    9.19   0
   1  -2  24  281.42    9.93   0
   2  -5   1  780.24   13.77   0
   2  -4  24  220.35    9.98   0
   4  -7  20  116.00    9.00   0
   3  -6  21  119.25    9.40   0
   6  -9   9   86.45    9.06   0
   6  -9  12  159.75   10.03   0
   0  -2  17  257.80    9.31   0
   1  -4  17  451.92   10.81   0
   1  -3  22  280.08   10.06   0
   5  -8  19   30.82    8.09   0
   3  -5  26  102.46    9.09   0
   6  -9   6  126.31    9.25   0
   4  -7  -1  217.48    9.97   0
   3  -7  10  360.88   10.56   0
   3  -7  13  117.21    8.78   0
   2  -6  11  305.92    9.86   0
   3  -7   7  323.68   10.50   0
   4  -7  23   43.16    8.10   0
   0  -3   9  538.85   11.63   0
   0  -3  12 1568.84   18.22   0
   1  -4  20  376.16   11.10   0
   2  -6   8  647.84   12.63   0
   2  -6  14  394.78   10.58   0
   4  -8   9  172.93    9.70   0
   3  -7  16  251.05    9.65   0
   3  -6  24  109.83    8.73   0
   0  -2  20  711.50   13.59   0
   4  -8  15   72.95    8.76   0
   2  -6  17  132.31    9.38   0
   2  -4  27   29.06    7.55   0
   3  -7   4  508.12   12.51   0
   4  -8   6  234.85   10.37   0
   0  -3   6 1980.39   20.62   0
   1  -5   9  679.04   12.96   0
   1  -5  12  625.01   12.19   0
   1  -5  15  164.77    9.21   0
   1  -3  25  129.62    8.51   0
   2  -5  -2  670.03   13.80   0
   3  -7  19   93.79    8.42   0
   4  -8  18   82.79    8.73   0
   5  -9  11   70.65    8.71   0
   3  -5  29   51.57    8.62   0
   5  -9  14   70.23    8.17   0
   0  -3  18  461.82   11.30   0
   1  -5   6 1031.78   15.36   0
   2  -5  25  128.18    8.67   0
   5  -9   8  289.14   11.21   0
   1  -4  23   60.14    8.14   0
   2  -6  20  210.49    9.20   0
   4  -8   3  173.81    9.38   0
   1  -5  18  389.44   11.39   0
   2  -6   2  819.68   14.57   0
   3  -7  22   98.65    9.32   0
   5  -9   5  113.16    9.23   0
   3  -7   1  206.57    9.40   0
   0  -2  23  211.65    9.64   0
   1  -4  -1  831.80   14.88   0
   0  -4  13  666.71   13.00   0
  -1  -1  12 1673.84   20.08   0
   0  -4  10 1247.91   15.95   0
   0  -3  21  218.70    9.41   0
   0  -4  16  417.13   11.22   0
  -1  -1  15  562.66   12.41   0
   2  -7  12  379.50   10.86   0
   3  -8  14  113.93    9.25   0
   0  -4   7  302.36    9.25   0
   1  -4  26  151.64    9.17   0
   2  -7  15  151.98    8.56   0
   2  -5  28   91.70    8.89   0
   3  -8  17   94.28    9.23   0
   1  -6  13  193.64    9.68   0
   2  -7  18  133.50    9.59   0
   4  -9  13  101.23    8.67   0
  -1   0  17  815.35   16.12   0
   0  -4  19  107.67    7.40   0
   1  -6  10  444.35   11.12   0
   2  -7   6  370.07   11.10   0
   4  -9  10   87.96    9.28   0
  -1  -2  10 1370.48   17.01   0
  -1  -1  18  818.32   14.67   0
   1  -6  16  316.59   10.12   0
   2  -6  -1  575.27   12.80   0
  -1  -2  16 1078.56   16.00   0
   0  -3  24  261.05   10.66   0
   1  -6   7  364.80   11.00   0
   1  -5  24  125.53    9.30   0
   2  -6  26   90.31    8.79   0
   3  -8   5  162.14    9.72   0
   3  -8  20  112.31    8.85   0
   4  -9   7   78.62    8.76   0
   0  -4   4 1451.45   17.59   0
   1  -6  19  103.70    9.25   0
   2  -7  21   84.47    8.53   0
   1  -5   0 1378.16   18.05   0
  -1  -2   7 1597.82   18.42   0
   0  -5  11  217.64    9.61   0
   0  -5  14  556.95   12.33   0
   0  -4  22  313.64    9.96   0
   2  -7   3  421.63   11.70   0
  -1  -2  19  276.82    9.75   0
  -1  -3  11  356.80   10.26   0
   0  -5  17  235.78    9.76   0
   1  -6   4  719.85   13.67   0
   4  -9   4  316.07   11.38   0
   0  -5   8  645.94   12.41   0
   3  -8   2  231.06   10.05   0
  -1  -3  17  459.99   11.46   0
   1  -5  27   29.06    8.00   0
  -1  -3   8 2015.71   19.79   0
   2  -8  13  146.43    9.77   0
   0  -4  25  113.90    9.70   0
   2  -8  16  158.41    9.58   0
  -1  -2  22  269.17    9.99   0
   0  -5   5  674.27   13.08   0
   1  -7  14  113.78    9.21   0
   3  -9  12  126.12    8.98   0
  -1  -3  20  390.31   11.03   0
  -1  -2   4 3448.39   27.32   0
   1  -7  11  125.37    8.44   0
   1  -4  -4 2530.83   26.43   0
   1  -7  17  129.92    9.03   0
   1  -6  25   43.58    7.75   0
   2  -8   7   88.21    9.17   0
   2  -7   0  559.81   12.89   0
   3  -9   9  156.20    9.88   0
   3  -5   2  688.83   12.93   0
   5  -7   0  556.01   13.30   0
   6  -8  -7  102.69   10.06   0
   8  -8   4  212.59   11.42   0
   8  -7   9  107.68    9.63   0
   6  -8 -10  179.17   11.09   0
   7  -7   8  458.84   13.13   0
   4  -4  11  639.83   13.67   0
   6  -8 -13  187.35   11.18   0
   1  -3  -2 3115.07   28.24   0
   8  -9  -4  130.40    9.97   0
   5  -6   8  562.00   13.14   0
   6  -8  -1  186.97   10.86   0
   4  -6   4  814.83   14.05   0
   8  -9  -1   91.04    9.59   0
   3  -6  -9  411.13   11.28   0
   4  -5   9  340.75   10.84   0
   6  -8 -16  137.13   11.17   0
   8  -8   7   94.00    9.98   0
   3  -6 -12  580.43   13.75   0
   3  -6  -3  433.26   11.85   0
   3  -5   5  696.51   13.08   0
   4  -7 -10  411.72   11.80   0
   4  -7  -4  524.05   12.95   0
   6  -8   2  207.60    9.90   0
   7  -9 -11   36.55    8.76   0
   7  -8   6  151.99   10.29   0
   8  -9   2  146.53    9.98   0
   2  -5 -11  258.90   10.18   0
   4  -7 -13  132.18    9.82   0
   5  -8  -8  369.28   12.88   0
   6  -6  12  388.17   11.93   0
   7  -9  -2  172.17   10.81   0
   1  -3   1  681.78   13.71   0
   4  -7  -1  217.47    9.31   0
   5  -8  -5  184.76   10.86   0
   2  -5  -2  649.43   12.70   0
   3  -6   0 1017.91   15.29   0
   5  -8 -11  109.99   10.08   0
   5  -7   6  449.65   12.25   0
   7  -7  11   65.79    8.96   0
   2  -3   8 1943.80   22.66   0
   3  -6 -15  171.00    9.73   0
   5  -8  -2  243.74   10.99   0
   7  -9   1   51.52    9.45   0
   2  -5 -14  366.58   12.03   0
   3  -4  10  833.33   14.56   0
   6  -8   5  142.77    9.05   0
   6  -7  10  222.33   10.59   0
   3  -3  12 1002.05   17.76   0
   4  -7   2  615.81   13.47   0
   5  -8 -14  144.94    9.65   0
   5  -6  11  173.72    9.38   0
   8  -9   5   57.82    8.62   0
   8  -8  10  101.06    9.41   0
   1  -4  -7  678.42   14.02   0
   2  -5   1  769.07   14.13   0
   2  -4   6  756.62   13.62   0
   5  -8   1  211.54    9.81   0
   6  -9  -9  146.76   10.07   0
   7  -8   9  123.58    9.99   0
   3  -6   3  424.87   11.09   0
   6  -9  -3   82.17    9.74   0
   1  -4 -10  880.59   16.22   0
   6  -9 -12  140.47    9.80   0
   4  -5  12  825.51   15.14   0
   6  -9   0  273.48   11.52   0
   5  -7   9  313.61   10.50   0
   1  -4  -1  884.88   14.96   0
   4  -7   5  349.33   10.66   0
   5  -8   4  394.85   11.49   0
   6  -8   8  297.50   10.34   0
   1  -3   4 3320.44   28.10   0
   3  -7  -8  397.84   12.28   0
   1  -4 -13  542.55   14.12   0
   2  -5   4 2143.01   21.14   0
   4  -8  -9  175.52   10.72   0
   4  -8  -3  169.95   10.61   0
   6  -9   3  134.89    9.91   0
   2  -6  -7  249.81   10.17   0
   3  -7 -11  138.90    9.67   0
   3  -7  -2  597.12   12.79   0
   3  -6   6  671.10   12.87   0
   7  -9   7  101.54    9.48   0
   6  -7  13  205.94   10.99   0
   2  -6 -10  599.37   13.61   0
   4  -8 -12  290.85   11.50   0
   5  -9  -7   67.65    9.33   0
   4  -8   0  435.82   11.90   0
   5  -9 -10  100.20    9.97   0
   5  -9  -4  327.95   11.57   0
   7  -8  12  196.25    9.88   0
   1  -4   2 1327.18   17.63   0
   2  -6  -1  584.08   12.67   0
   3  -7   1  203.33    9.25   0
   2  -4   9  973.88   15.53   0
   5  -9  -1  129.51   10.49   0
   3  -5  11  255.75    9.75   0
   2  -6 -13  334.62   11.84   0
   5  -9 -13  115.55   10.40   0
   5  -7  12  249.61   10.69   0
   6  -8  11   75.34    9.27   0
   2  -3  11  433.17   11.73   0
   3  -4  13  581.96   13.15   0
   4  -8   3  156.51    9.30   0
   1  -5  -6  901.40   15.37   0
   2  -5   7  346.99   10.71   0
   5  -9   2   95.55    9.63   0
   2  -6   2  846.07   14.11   0
   3  -7   4  511.14   12.88   0
   6 -10  -2  113.87    9.43   0
   7  -9  10  116.50    9.57   0
   1  -5  -9  351.82   11.05   0
   0  -3  -6 2546.28   26.55   0
   6 -10   1   63.18    9.67   0
   1  -4   5 1118.74   16.17   0
   4  -5  15  244.23   10.00   0
   5  -8  10  188.17    9.10   0
   1  -5   0 1315.92   16.97   0
   4  -8   6  203.17    9.38   0
   5  -9   5  125.56    9.96   0
   6  -9   9   80.44    9.33   0
   0  -3  -9 1184.34   19.54   0
   1  -5 -12  832.76   16.15   0
   3  -8  -7  108.76    9.46   0
   4  -7  11  132.71    9.08   0
   2  -6   5  303.52    9.90   0
   4  -9  -5  106.48    9.74   0
   3  -8 -10  199.12   10.63   0
   3  -7   7  324.10   11.19   0
   4  -9  -8  253.06   11.37   0
   4  -9  -2   89.35    9.62   0
   2  -7  -6  462.63   11.78   0
   0  -3   0 2649.43   25.14   0
   2  -7  -9  361.46   11.58   0
   6  -8  14  132.05    8.91   0
   1  -5   3  361.01   10.08   0
   4  -9 -11   71.62    9.22   0
   4  -9   1  131.39    9.99   0
   2  -7   0  534.40   12.91   0
   3  -8   2  219.40   10.80   0
   5  -7  15   56.96    8.93   0
   2  -4  12 1742.16   20.52   0
   3  -6  12  522.78   12.81   0
   3  -5  14  351.31   10.92   0
   5 -10   0  172.21   10.11   0
   2  -7 -12  255.69   10.52   0
   5  -8  13  139.82    9.77   0
   6  -9  12  165.72   10.03   0
   0  -4  -5  380.71   10.98   0
   1  -6  -5  436.06   11.25   0
   1  -4   8 2057.86   21.27   0
   4  -9   4  333.38   11.71   0
   1  -6  -8  577.98   13.12   0
   2  -7   3  404.07   11.11   0
   0  -4  -8 1435.09   19.58   0
   0  -4  -2 1504.65   18.41   0
   3  -8   5  187.52    9.38   0
   5 -10   3   65.56    8.86   0
   0  -3   3 2092.91   21.85   0
   1  -5   6 1052.93   15.25   0
   4  -7  14  301.52   11.24   0
   1  -6   1  312.40   10.46   0
   0  -4   1 1395.01   17.80   0
   1  -6 -11  196.08    9.68   0
   4  -9   7   69.95    9.55   0
   5  -9  11   52.67    9.20   0
   2  -7   6  345.94   11.63   0
   4  -8  12  253.86   11.22   0
   2  -3  14 1284.73   19.61   0
   3  -9  -6  117.67    9.36   0
   0  -4 -11  587.12   13.94   0
   1  -6   4  730.38   14.08   0
   2  -8  -5  149.12   10.27   0
   2  -5  13  546.45   12.71   0
   3  -9  -9   68.63    8.96   0
   3  -9   0  237.46   11.39   0
   2  -8  -8  318.42   11.39   0
   4 -10  -1   58.11    9.35   0
   0  -5  -4  920.57   15.42   0
   2  -8   1  191.15   10.52   0
   3  -6  15  156.20    9.13   0
   0  -4   4 1482.15   17.68   0
   1  -5   9  668.09   12.71   0
   3  -9   3   66.75    9.44   0
   3  -7  13  115.42    9.17   0
   5  -8  16  154.90   10.18   0
   0  -5  -7  599.94   13.35   0
   0  -5  -1  303.53    9.58   0
   0  -3   6 1993.35   21.06   0
   1  -4  11  333.00   10.46   0
   1  -7  -4  575.77   12.72   0
   2  -7   9  127.76    9.63   0
   1  -7  -7  116.16    8.75   0
   1  -6   7  357.82   10.43   0
   2  -8   4  373.61   11.24   0
   2  -4  15  182.28    8.99   0
   5  -9  14   58.75    8.18   0
   0  -5   2 1076.71   15.38   0
   0  -5 -10  608.88   13.93   0
   1  -7   2  244.51    9.64   0
   3  -9   6  131.12    9.56   0
   4  -7  17  131.54    8.95   0
   1  -7 -10  212.51   10.04   0
   4  -8  15   67.74    9.04   0
   0  -4   7  297.39    9.31   0
   2  -8   7   89.53    9.75   0
   0  -5   5  679.66   13.10   0
   1  -7   5  182.43   10.19   0
   2  -6  14  365.55   11.11   0
   0  -6  -3  224.01    9.97   0
   1  -3  13  505.05   12.29   0
   4  -9  13  121.02    9.56   0
   1  -6  10  445.21   11.80   0
   1  -5  12  569.99   12.05   0
   3  -9   9  151.99    9.51   0
   0  -6  -6  359.21   10.51   0
   0  -6   0  837.59   14.26   0
   0  -3   9  486.41   11.75   0
   2  -9  -4  159.59    9.96   0
   3  -7  16  245.57   10.54   0
   2  -5  16  594.55   13.17   0
  -1  -3  -4 2650.93   24.91   0
  -1  -3  -1  865.98   14.80   0
   2  -9  -7   99.00    9.27   0
   2  -9   2  182.28   10.61   0
   3  -8  14  141.99    9.71   0
   0  -6   3  333.37   11.23   0
   1  -8  -3  151.50   10.14   0
   0  -6  -9  313.92   10.95   0
   1  -7   8  520.89   12.15   0
   1  -4  14  653.20   13.33   0
   2  -8  10  144.25   10.14   0
  -1  -3  -7  656.00   13.88   0
   0  -5   8  629.83   12.41   0
   1  -8  -6  141.53    9.82   0
  -1  -4  -3  851.32   14.67   0
  -1  -3   2 1283.59   16.90   0
  -1  -2   1  663.54   13.43   0
   0  -4  10 1234.69   16.87   0
   2  -9   5  128.52   10.06   0
  -1  -4   0 1341.16   17.47   0
   1  -8   3   79.66    9.24   0
  -1  -4  -6  888.88   15.34   0
   0  -6   6  293.97   10.63   0
   1  -8  -9  110.05    9.79   0
   3  -9  12  125.09    9.68   0
   1  -6  13  192.32    8.89   0
   2  -7  15  132.72    9.31   0
  -1  -4   3  353.22   10.00   0
   0  -7  -2  145.69    8.67   0
   1  -8   6  167.10   10.46   0
  -1  -3   5 1115.22   16.03   0
   0  -7  -5  182.31   10.10   0
   0  -7   1  174.58   10.01   0
   1  -7  11  135.09    8.46   0
   1  -5  15  161.99    9.05   0
   2  -9   8  133.39    9.59   0
   2  -6  17  139.12    8.96   0
  -1  -5  -2  672.39   13.58   0
  -1  -2   4 3370.68   27.74   0
   2  -8  13  145.53   10.13   0
  -1  -5  -5  444.84   11.90   0
  -1  -5   1  310.46   10.62   0
  -1  -4  -9  353.66   11.13   0
   0  -5  11  200.57    9.54   0
  -1  -3 -10  767.72   16.33   0
   0  -7  -8  430.34   12.65   0
   0  -7   4  547.40   13.31   0
   0  -6   9  225.07   10.42   0
   0  -3  12 1441.93   18.14   0
   3  -8  17   98.77    8.61   0
  -1  -4   6 1088.28   15.77   0
   0  -2  11 1789.39   21.70   0
   1  -8   9  174.11   10.33   0
  -1  -5   4  752.23   13.37   0
   0  -4  13  680.15   13.36   0
  -1  -5  -8  586.27   13.32   0
   1  -9  -2  131.05    9.01   0
   2  -9  11   35.73    8.20   0
   0  -7   7   99.71    8.33   0
   1  -9  -5   70.12    8.16   0
   1  -3  16 1088.52   17.72   0
  -1  -3   8 2054.17   20.62   0
   1  -7  14  121.70    9.59   0
  -1  -6  -1  298.87   11.00   0
   1  -6  16  309.22   10.98   0
   1  -4  17  444.56   11.98   0
  -1  -6  -4  615.64   13.04   0
  -1  -6   2  227.75   10.09   0
  -1  -5   7  345.15   10.32   0
   0  -6  12  513.65   12.80   0
   2  -7  18  132.54    9.65   0
  -1  -4   9  663.33   12.65   0
   0  -8  -4  222.40   10.78   0
   0  -8  -1   73.31    8.89   0
   2  -8  16  126.54    9.68   0
   0  -5  14  543.29   12.57   0
   1  -8  12  161.14    9.94   0
  -1  -6  -7  118.07    8.94   0
  -1  -6   5  196.24   10.16   0
   1  -9   7   66.44    8.63   0
   1  -2  15  547.81   14.45   0
   0  -8  -7   73.77    8.84   0
   0  -8   5  125.11    9.24   0
   1  -5  18  381.47   11.69   0
  -1  -5  10  434.47   11.16   0
  -1  -6   8  528.99   13.17   0
   0  -3  15  499.26   12.22   0
  -2  -3  -2  667.55   12.69   0
  -2  -3   1  750.16   13.21   0
  -1  -7   0  327.47   11.51   0
   0  -8   8  135.65    9.68   0
   0  -4  16  429.28   11.70   0
  -2  -4   2  836.03   14.46   0
  -1  -7  -3  165.70   10.13   0
  -1  -7   3   89.92    9.40   0
  -1  -4  12  585.55   12.79   0
   0  -6  15  101.75    9.55   0
   1  -7  17  140.71    9.82   0
  -2  -4  -4  816.25   14.59   0
   0  -7  13  173.79    9.90   0
   1  -8  15   26.02    8.10   0
  -2  -3  -5  693.40   13.67   0
  -2  -3   4 2138.72   20.77   0
  -2  -2   0 4137.52   29.98   0
  -1  -7  -6  152.01    9.76   0
   0  -2  14 1073.08   17.48   0
   1  -6  19  105.17    8.73   0
  -1  -7   6  145.24    9.46   0
   0  -5  17  244.56   10.19   0
  -2  -5  -3  135.17    7.94   0
  -2  -5   3  413.27   11.82   0
  -2  -2  -3  790.67   14.14   0
  -2  -2   3  782.54   13.54   0
  -1  -6  11  120.12    9.48   0
  -1  -5  13  182.03    9.70   0
   0  -8  11   48.81    9.02   0
  -2  -4  -7  234.14    9.73   0
  -2  -3   7  366.28    9.98   0
  -2  -5  -6  443.95   12.06   0
  -2  -5   6  363.00   11.26   0
  -2  -4   8  682.31   13.34   0
  -1  -7   9  171.57   10.33   0
  -2  -2   6  759.38   13.28   0
  -1  -3  14  628.91   12.56   0
  -2  -6  -2  191.85    9.97   0
  -2  -6   1  192.40    9.08   0
  -2  -2  -6  739.03   14.80   0
  -1  -8  -2  135.97    9.57   0
  -1  -8   1   80.21    9.45   0
  -1  -4  15  145.61    9.04   0
  -2  -6   4  363.35   11.78   0
   0  -6  18  100.12    8.96   0
  -2  -5   9  127.30    9.25   0
   1  -7  20  153.29    9.20   0
  -2  -6  -5  144.61    9.11   0
  -2  -3  10  544.69   11.63   0
  -1  -2  13  488.18   11.83   0
  -2  -6   7   77.87    9.39   0
  -2  -4  11  333.79   11.08   0
  -1  -8   7   74.46    8.56   0
  -1  -7  12  167.96    9.40   0
   0  -4  19   99.82    8.23   0
  -1  -5  16  309.27   10.15   0
   0  -3  18  480.67   12.37   0
  -2  -2   9 1022.51   15.01   0
  -2  -1   2 3148.83   27.59   0
   0  -5  20  166.84    9.46   0
  -2  -7  -1   56.12    8.40   0
  -2  -7   2  166.30   10.19   0
  -2  -6  10  162.99    9.93   0
  -2  -5  12  370.68   10.96   0
  -2  -7   5  128.24    9.42   0
  -3  -3   3  434.05   11.34   0
  -2  -7  -4  162.90   10.51   0
  -2  -1   5 2058.72   21.72   0
   0  -7  19   22.02    7.55   0
  -3  -4  -2  580.78   12.98   0
  -3  -4   4  499.42   11.67   0
  -1  -6  17  114.13    9.44   0
  -1  -3  17  477.84   12.17   0
  -3  -3  -3  416.52   11.38   0
   0  -2  17  270.88   10.03   0
  -3  -3   6  693.58   12.78   0
  -2  -7   8  131.27    9.11   0
  -3  -5  -1  199.20    9.26   0
  -3  -5   5  171.59   10.04   0
  -3  -4   7  323.60   10.38   0
   0  -6  21  110.04    8.81   0
  -3  -4  -5  351.81   10.98   0
  -3  -2   2  665.78   12.45   0
  -2  -6  13  147.08    9.34   0
  -1  -5  19  119.74    9.28   0
  -3  -2   5  711.72   13.18   0
  -2  -1   8 2080.11   21.85   0
  -1  -1  12 1718.12   21.44   0
  -3  -5  -4  404.34   11.90   0
  -3  -3   9  394.07   11.11   0
  -2  -7  11   29.48    8.92   0
  -1  -2  16 1094.32   17.13   0
  -3  -5   8  345.13   11.08   0
  -3  -4  10  371.64   11.45   0
  -3  -3  -6  677.40   13.77   0
  -3  -6   0  249.69   10.81   0
  -3  -6   3   51.46    8.69   0
  -3  -2  -4 2164.00   22.55   0
  -3  -2   8 1762.99   19.33   0
  -3  -6   6  133.78    9.89   0
  -2  -4  17  141.65    9.50   0
  -2  -3  16  638.06   13.37   0
  -3  -6  -3  137.29    9.21   0
  -3  -5  11  102.71    9.82   0
  -1  -6  20  142.98    9.78   0
  -3  -6   9  143.04    9.78   0
  -3  -3  12  551.35   12.10   0
  -3  -4  13  116.08    8.53   0
  -2  -2  15  192.57    9.01   0
  -1  -4  21  167.02    9.33   0
  -3  -2  11  256.87    9.06   0
  -3  -1   1  836.59   13.97   0
  -3  -1   4 2690.07   23.54   0
  -1  -3  20  392.84   11.82   0
  -3  -6  12  122.69    9.53   0
  -3  -5  14  132.66    9.97   0
  -1  -5  22  116.77    9.12   0
  -4  -4   0  464.90   12.46   0
  -4  -3   5  345.31   11.23   0
  -3  -2  -7  345.62   10.65   0
  -3  -1  -2 1220.43   17.29   0
  -3  -1   7  652.66   12.46   0
  -4  -4   6  217.94    9.51   0
  -4  -3  -1  197.76    9.33   0
  -1  -1  15  569.77   13.71   0
  -4  -5   1  132.74    9.39   0
  -4  -4  -3  160.05    9.37   0
  -4  -3   8  396.90   10.92   0
  -2  -4  20  197.13   10.24   0
  -2  -3  19   69.01    8.43   0
  -4  -5   7   53.02    9.47   0
  -4  -4   9  157.73    8.93   0
  -4  -2   4  799.99   13.53   0
  -1  -2  19  287.63   10.62   0
  -4  -2   7  253.95   10.09   0
  -3  -1  10  912.46   14.77   0
   1  -5   0 1346.49   16.55   0
   2  -6   2  829.53   14.13   0
   4  -9  -5   98.28    9.37   0
   1  -6  -5  427.67   10.66   0
   2  -7  -3  129.63    8.12   0
   3  -6   6  670.14   12.96   0
   0  -5 -13  206.40    9.15   0
   0  -3   0 2641.42   23.96   0
   0  -5 -10  615.44   12.46   0
   0  -4  -2 1562.29   17.95   0
   3  -8  -1  217.05   10.14   0
   4  -9  -2  112.01    9.50   0
   5  -9   2   92.84    8.41   0
  -1  -3 -13  569.52   13.75   0
   0  -5  -7  614.58   12.90   0
  -1  -3 -10  891.66   15.78   0
   2  -8 -14  131.94    9.81   0
   2  -8 -11   96.23    8.98   0
   2  -7   0  543.37   12.40   0
   3  -9 -12  180.21    9.80   0
   5 -10  -3   63.60    8.32   0
   5  -8   7  112.31    8.60   0
   6 -10   1   67.92    7.99   0
  -1  -3  -7  694.88   13.48   0
   0  -5  -4  935.73   14.75   0
   1  -7 -13  226.16   10.46   0
   1  -7 -10  222.16   10.53   0
   2  -8 -17   80.00    8.16   0
   3  -4  10  835.90   15.51   0
   6  -9   6  125.58    8.76   0
   1  -4   5 1067.86   15.27   0
   2  -5   7  335.40   10.10   0
   3  -9  -6  128.93    9.58   0
   4  -6  10  570.34   12.81   0
   1  -7 -16  198.44   10.08   0
   2  -8  -5  151.86    9.78   0
   2  -6   5  319.42    9.63   0
   3  -8   2  242.08   10.10   0
   4  -9   1  134.27    9.14   0
   4  -8   6  213.03   10.22   0
   5  -9   5  108.38    8.68   0
   0  -4   1 1367.02   16.70   0
   0  -6 -12  443.92   12.11   0
   1  -7  -4  568.50   12.92   0
   2  -7   3  412.22   11.45   0
   3  -9  -3  163.16    9.97   0
  -1  -4 -12  842.53   15.23   0
   0  -6  -9  318.55   10.75   0
   2  -8  -2  205.74   10.11   0
   3  -6   9  372.23   10.80   0
  -1  -4  -9  366.84   10.67   0
   0  -5  -1  317.52   10.25   0
   0  -3   3 2068.70   21.53   0
   2  -4   9 1015.01   15.93   0
   0  -6  -6  371.56   10.86   0
   4  -9   4  311.43   10.68   0
  -1  -4  -6  930.18   14.89   0
   1  -7  -1  315.39   10.88   0
   3  -9   0  252.15   10.92   0
   4 -10  -1   57.43    8.32   0
   5 -10   3   56.30    8.51   0
   1  -5   6 1100.94   15.73   0
   2  -8   1  183.96   10.01   0
   3  -5  11  254.35    9.48   0
   5  -8  10  172.02    8.99   0
   0  -6  -3  233.70    9.71   0
   1  -6   4  712.24   13.30   0
   2  -9 -10  100.48    9.54   0
   1  -8 -12  215.95   10.45   0
   1  -8  -9  100.26    9.36   0
   2  -6   8  641.06   12.94   0
   5  -9   8  265.17   11.39   0
   2  -7   6  356.30   10.97   0
   4  -8   9  148.67    9.57   0
  -1  -3  -1  845.44   13.90   0
   0  -5   2 1079.87   15.05   0
   0  -4   4 1487.71   17.66   0
   4  -7  11  129.36    8.69   0
  -1  -5 -11  188.95    9.01   0
   2  -9  -4  164.49   10.13   0
  -1  -5  -8  605.83   13.00   0
   1  -7   2  238.72   10.22   0
   2  -5  10  521.57   12.03   0
   3  -9   3   57.24    8.20   0
   0  -7 -11   79.39    8.85   0
   4  -9   7   58.12    8.96   0
   0  -7  -8  464.83   12.40   0
   0  -6   0  820.23   13.69   0
   1  -8  -3  157.25   10.06   0
  -1  -5  -5  447.45   11.46   0
   3  -7  10  356.84   10.40   0
   2  -9  -1   54.66    8.98   0
   3  -8   8  337.98   11.40   0
   0  -7  -5  199.26    9.13   0
  -1  -4   0 1362.77   16.93   0
  -1  -2   1  704.63   13.91   0
   0  -3   6 1990.72   20.75   0
   1  -6   7  334.94   10.44   0
   1  -8   0  348.65   10.98   0
   0  -7  -2  154.28    9.52   0
   0  -5   5  664.21   12.33   0
   1  -7   5  208.94    9.60   0
  -1  -3   2 1258.45   16.44   0
   0  -6   3  330.60   10.75   0
   2  -7   9  129.71    8.69   0
  -1  -6 -10  211.99    9.83   0
   2  -9   2  158.81    9.13   0
   2  -3  11  440.50   12.47   0
  -1  -6  -7  109.16    8.35   0
   2  -6  11  319.12   10.42   0
   0  -4   7  296.57    9.72   0
   4  -8  12  265.87   10.45   0
  -2  -3 -11  236.82    9.77   0
  -2  -3  -8 1742.28   20.72   0
  -2  -2  -9  970.27   17.50   0
   2  -4  12 1737.31   20.98   0
   4  -9  10   78.52    8.63   0
  -1  -6  -4  593.93   13.19   0
   0  -7   1  184.82   10.01   0
   1  -8   3   81.62    8.36   0
  -1  -5   1  306.41    9.60   0
  -1  -4   3  356.57   10.23   0
   0  -8 -10  102.98    9.66   0
  -2  -3  -5  725.24   13.59   0
  -2  -2  -6  745.51   14.62   0
   0  -8  -7  100.00    8.80   0
   1  -3  10 1356.51   18.64   0
   3  -8  11   89.62    8.84   0
  -2  -4 -10  592.52   13.19   0
  -2  -4  -7  256.66    9.49   0
   0  -8  -4  200.46    9.94   0
   3  -7  13  106.76    9.06   0
  -1  -6  -1  301.26    9.90   0
   0  -6   6  297.13    9.84   0
   1  -7   8  521.57   12.78   0
   1  -4  11  339.16   10.15   0
   3  -9   9  143.40    9.13   0
   0  -5   8  640.24   12.80   0
   2  -5  13  552.80   12.55   0
  -2  -4  -4  828.95   14.32   0
   0  -7   4  547.16   13.21   0
  -2  -2  -3  810.23   14.58   0
  -1  -3   5 1098.13   15.66   0
   0  -8  -1   79.28    8.79   0
   1  -9   1   75.11    9.02   0
   1  -8   6  163.74    9.58   0
  -1  -7  -9  105.69    8.69   0
  -1  -7  -6  146.10    9.85   0
  -1  -5   4  737.23   13.39   0
  -1  -2   4 3431.76   27.73   0
   2  -8  10  147.08    9.42   0
  -2  -5  -9  345.43   10.99   0
  -1  -6   2  223.74   10.02   0
  -2  -5  -6  462.36   12.10   0
  -1  -7  -3  153.19    9.62   0
   1  -5  12  570.39   12.49   0
  -1  -4   6 1074.44   14.97   0
   0  -8   2  155.52    9.43   0
  -2  -5  -3  122.39    7.80   0
   1  -9   4  124.16    8.94   0
   2  -6  14  359.24   10.98   0
  -2  -3   1  759.77   13.04   0
  -1  -7   0  313.20   11.30   0
   0  -7   7  110.31    9.00   0
   0  -6   9  229.11    9.28   0
  -2  -2   0 4107.66   29.63   0
   3  -9  12  123.92    9.20   0
   3  -8  14  106.28    8.42   0
  -2  -4   2  823.20   14.00   0
  -1  -6   5  199.67    8.90   0
  -1  -5   7  354.63   10.76   0
  -2  -6  -8  305.77   11.02   0
   1  -6  13  193.55    9.47   0
  -2  -6  -5  152.14    9.25   0
   0  -8   5  126.06    8.93   0
  -1  -7   3   94.14    8.91   0
   2  -8  13  133.27    9.82   0
  -1  -8  -5   64.70    8.05   0
  -1  -3   8 2036.27   20.41   0
  -2  -6  -2  195.29    9.00   0
   2  -9  11   30.99    7.61   0
  -2  -3   4 2088.71   20.29   0
  -1  -8  -2  128.86    8.95   0
  -1  -4   9  700.59   13.21   0
  -2  -5   3  400.73   10.59   0
  -1  -2   7 1639.46   19.22   0
   2  -7  15  143.57    9.25   0
  -2  -2   3  791.31   13.42   0
   0  -7  10  113.67    8.00   0
   1  -4  14  634.07   13.21   0
   2  -4  15  176.81    8.61   0
  -2  -4   5  303.17    9.46   0
  -1  -6   8  548.22   12.12   0
   1  -3  13  518.43   12.57   0
  -1  -7   6  150.22    9.67   0
   0  -8   8  147.46    9.36   0
   1  -8  12  156.14   10.00   0
  -3  -3  -6  666.39   13.39   0
  -1  -5  10  435.86   11.71   0
   1  -5  15  158.91    8.79   0
  -3  -4  -5  340.07   10.73   0
  -2  -7  -7   92.71    8.76   0
   0  -4  13  661.22   13.15   0
   0  -3  12 1498.85   18.96   0
   1  -7  14  122.46    8.64   0
  -3  -4  -8  374.40   11.19   0
  -3  -3  -3  431.63   10.58   0
  -2  -7  -4  170.83    9.86   0
  -2  -5   6  338.69   10.90   0
  -3  -4  -2  589.49   12.22   0
  -2  -7  -1   56.76    8.21   0
  -2  -6   4  373.25   10.60   0
  -3  -2  -7  346.16   10.73   0
  -3  -2  -4 2159.33   22.50   0
  -2  -3   7  369.00   10.55   0
  -1  -8   4  123.45    8.62   0
   0  -5  14  528.80   12.21   0
   2  -6  17  126.60    8.53   0
  -3  -5  -4  395.98   11.66   0
  -3  -3   0 1020.53   14.88   0
  -2  -4   8  679.22   13.17   0
   1  -6  16  302.62   10.78   0
  -2  -1   2 3123.80   27.43   0
  -1  -7   9  166.80    9.12   0
  -1  -6  11  139.53    9.34   0
  -1  -4  12  607.82   12.78   0
  -1  -3  11  348.49    9.74   0
   2  -8  16  131.37    8.96   0
  -3  -5  -1  199.68    9.11   0
  -3  -2  -1  774.86   13.79   0
  -2  -2   6  766.07   13.12   0
   0  -8  11   48.70    7.79   0
   0  -2  11 1813.64   21.72   0
  -2  -6   7   84.60    9.45   0
  -1  -8   7   73.36    8.44   0
  -3  -3   3  415.68   10.44   0
  -2  -5   9  146.08    9.10   0
   0  -6  15  122.95    9.17   0
   1  -8  15   31.70    8.11   0
  -3  -4   4  507.23   12.21   0
  -3  -6  -6  109.45    8.88   0
  -3  -6  -3  133.40    8.83   0
  -2  -7   5  134.03    9.60   0
  -3  -2   2  659.49   12.34   0
  -3  -6   0  247.91   10.21   0
   1  -7  17  121.60    8.92   0
  -2  -3  10  527.43   12.06   0
  -1  -7  12  163.66    9.62   0
  -3  -5   5  182.99    9.56   0
  -2  -4  11  327.81   10.00   0
  -3  -3   6  700.39   13.12   0
  -2  -6  10  157.68    9.82   0
   0  -4  16  429.19   11.60   0
   1  -4  17  447.56   11.97   0
  -3  -1  -5 1076.87   17.57   0
  -2  -1   5 2062.39   21.60   0
   1  -5  18  368.70   11.31   0
  -3  -4   7  303.80   10.03   0
  -3  -1  -2 1274.36   17.86   0
  -2  -7   8  125.10    8.64   0
  -2  -2   9 1059.96   15.12   0
   0  -7  16  196.66    9.80   0
   0  -5  17  237.19   10.26   0
   0  -3  15  532.14   12.54   0
  -3  -2   5  688.65   13.04   0
  -2  -5  12  384.24   11.69   0
  -1  -4  15  162.42    8.96   0
  -1  -3  14  644.29   12.56   0
  -4  -4  -3  162.09    9.32   0
  -4  -3  -4  493.70   12.10   0
  -3  -5   8  338.28   11.43   0
   1  -6  19   95.57    8.56   0
   1  -3  16 1127.87   18.47   0
  -4  -4  -6  195.70    9.22   0
  -4  -3  -1  208.40    9.39   0
  -3  -6   6  131.98    8.86   0
  -1  -5  16  304.25   10.94   0
  -4  -4   0  459.22   12.14   0
   0  -6  18  115.06    8.79   0
  -3  -3   9  382.82   10.37   0
  -4  -5  -2  106.50    8.64   0
  -4  -3   2  591.35   12.79   0
  -3  -4  10  359.21   11.40   0
  -2  -7  11   43.97    7.55   0
  -2  -6  13  151.81    9.82   0
  -2  -3  13  582.02   12.64   0
  -1  -1   9 1145.63   17.17   0
  -4  -4   3  161.89    9.28   0
  -4  -2  -5  304.96   10.10   0
  -4  -2  -2  797.10   14.27   0
  -2  -4  14  365.22   10.46   0
  -1  -2  13  503.98   11.90   0
  -4  -5   1  143.25    9.13   0
  -3  -2   8 1675.44   18.29   0
  -4  -2   1  561.48   12.07   0
  -3  -6   9  152.28    9.34   0
  -3  -1   4 2652.96   23.33   0
  -2  -1   8 2117.03   21.69   0
  -1  -6  17  123.12    9.06   0
   0  -2  14 1104.87   17.60   0
  -3  -5  11  111.65    9.22   0
  -2  -5  15  135.49    9.36   0
  -4  -3   5  355.31   10.23   0
  -2  -2  12 1773.18   19.21   0
  -4  -5   4  312.65   10.56   0
   0  -7  19   16.90    7.89   0
  -3  -4  13  124.08    9.24   0
  -3  -3  12  543.25   11.92   0
  -1  -4  18  385.41   11.43   0
   0  -4  19   99.68    8.25   0
   0  -5  20  157.00    9.40   0
  -4  -5   7   72.65    8.10   0
  -4  -3   8  374.75   11.07   0
  -3  -1   7  655.78   12.27   0
  -4  -4   9  164.25   10.15   0
  -3  -2  11  242.78    8.94   0
  -4  -2   7  252.20    9.87   0
  -4  -1  -3  337.66   10.34   0
  -4  -1   0 1379.19   17.84   0
  -3  -5  14  132.90    9.75   0
  -2  -4  17  148.91    9.37   0
   0  -3  18  476.20   12.55   0
   0  -6  21   87.31    9.32   0
  -2  -5  18  130.09    9.67   0
  -2  -1  11  470.18   11.57   0
  -1  -6  20  165.18    9.38   0
  -1  -1  12 1812.30   21.46   0
  -5  -4  -1  130.41    8.88   0
  -5  -3  -2  227.44    9.80   0
  -5  -3   1  203.06    9.68   0
  -1  -2  16 1131.05   17.23   0
  -5  -4   2  111.02    8.69   0
  -4  -3  11  130.22    8.37   0
  -3  -3  15  164.50    9.30   0
  -4  -4  12  280.27   10.99   0
  -3  -4  16  226.14   10.66   0
  -3  -1  10  876.97   14.35   0
  -5  -3   4  383.22   10.84   0
  -5  -2   0  553.29   12.61   0
  -4  -2  10  568.25   12.06   0
  -4  -1   6  865.59   13.75   0
  -5  -4   5  112.39    9.03   0
  -5  -2  -3  392.96   11.23   0
  -3  -2  14  366.12   11.13   0
  -5  -2   3  127.55    8.88   0
  -3   0   3  524.52   12.09   0
  -5  -5   3   50.94    8.49   0
  -4  -5  13  106.72    9.43   0
  -3  -5  17   84.01    9.01   0
  -1  -4  21  164.86    9.61   0
  -4  -3  14  309.11   11.24   0
  -2  -4  20  188.57   10.23   0
  -2  -3  19   78.31    8.64   0
  -1  -5  22  121.48    9.30   0
  -4  -1   9  345.11    9.89   0
  -2   0   7  333.13   10.09   0
  -1  -3  20  401.87   11.89   0
  -4  -4  15   73.05    8.39   0
  -4  -2  13  341.45   11.00   0
  -3   0   6 2628.17   24.06   0
  -5  -3  10  193.98   10.15   0
  -5  -1  -1  316.20   10.29   0
  -5  -1   2  695.21   13.49   0
  -2  -5  21   58.52    8.37   0
  -3  -4  19   93.96    9.38   0
  -3  -1  13  614.16   12.22   0
  -5  -4  11   55.78    8.82   0
  -5  -2   9  339.26   10.42   0
  -4   0  -1 1373.79   18.35   0
  -2  -2  18  336.29   10.41   0
  -4  -1  12  827.01   14.38   0
  -4   0   5  381.85   10.57   0
  -3  -5  20   98.97    9.40   0
  -1  -2  19  284.60   10.93   0
  -5  -3  13  151.75    9.87   0
  -5  -1   8  602.57   13.03   0
  -4  -3  17  136.30   10.17   0
  -3   0   9 1285.65   16.78   0
  -6  -3   3  148.98    8.96   0
  -5  -2  12  251.82   10.72   0
  -4   0  -4 1393.53   19.57   0
  -5  -4  14   64.34    8.79   0
  -4  -4  18   99.70    8.48   0
  -4  -2  16  298.76   10.18   0
  -6  -3   6  118.26    8.94   0
  -6  -2  -1  186.11    9.86   0
  -6  -2   2  188.72    9.93   0
  -4   0   8 1427.77   17.75   0
  -6  -2   5  152.43    9.41   0
  -2  -4  23   71.99    8.31   0
  -3  -3  21  130.81    9.67   0
  -2  -3  22  185.09    9.17   0
  -5   0   1  315.19   10.08   0
  -4  -1  15  278.44   10.48   0
  -3  -4  22  106.22    9.33   0
  -2  -1  17  562.11   12.33   0
  -5  -3  16  152.72    9.77   0
  -6  -1   1  302.51   10.23   0
  -6  -1   4  560.63   12.66   0
  -5  -2  15   50.96    7.67   0
  -3  -2  20  366.49   11.82   0
  -3   0  12 1046.21   15.35   0
  -1  -3  23   62.74    8.42   0
  -5   0   7  594.21   12.73   0
  -4   0  11  669.36   12.64   0
  -6  -1  -2  215.18   10.07   0
  -2  -2  21  330.63   11.69   0
  -6  -3  12  159.31    9.63   0
  -6  -2  11   67.61    8.97   0
  -1   0  11  448.81   12.21   0
  -5  -1  14  346.48   11.37   0
  -7   8   9  182.84   12.23   0
  -3   3  12 1550.61   19.94   0
  -5   4  15  160.87   10.76   0
  -6   7  11  146.47   11.71   0
  -5   1  15  259.35   11.03   0
  -3   2  13  519.13   12.79   0
  -8   3  16  169.85   10.81   0
  -5   3  16  589.25   14.15   0
  -5   5  14  557.81   13.73   0
  -4   2  15  170.26    9.11   0
  -4   5  12  600.59   14.57   0
  -5   7   9  138.46   10.37   0
  -8   6  16  146.41   11.77   0
  -6   4  17  141.48   11.18   0
  -6   5  16  329.91   12.00   0
  -8   5  17   91.38   10.47   0
  -4   0  14  571.51   13.63   0
  -5   6  13  207.16   11.45   0
  -2   2  11 1833.45   21.07   0
  -3   1  14 1232.67   17.87   0
  -2   3  10 1412.61   19.35   0
  -6   3  18  260.87   11.86   0
  -8   4  18   86.90    9.86   0
  -7   1  16  188.57   10.88   0
  -7   5  18  122.28   11.02   0
  -3   5  10  552.03   13.82   0
  -7   6  17  132.46   11.82   0
  -7   8  12  177.83   11.62   0
  -6   1  17  177.79   10.49   0
  -4   6  11  337.71   12.26   0
  -2   1  12 1790.46   20.76   0
  -8   2  17   72.98    8.98   0
  -7   2  18  189.96   10.66   0
  -7   4  19   96.34    9.87   0
  -4   3  17  454.57   12.74   0
  -7   7  16  220.40   12.41   0
  -5   0  16  397.75   11.84   0
  -5   4  18  389.43   12.16   0
  -2   4   9 1046.01   17.39   0
  -8   3  19   35.54    8.76   0
  -6   2  19   73.60    9.49   0
  -5   5  17  226.49   10.67   0
  -5   7  12  391.59   13.39   0
  -3   3  15  499.76   12.24   0
  -5   1  18  255.33   11.27   0
  -5   3  19   69.21    9.25   0
  -8   6  19   30.44    9.46   0
  -7   3  20  119.59   10.66   0
  -3   2  16 1134.07   17.24   0
  -8   5  20  109.75   10.06   0
  -6   4  20  218.77   12.22   0
  -4   2  18  315.03   10.75   0
  -3  -1  13  574.43   13.77   0
  -3   0  15  270.04   10.31   0
  -5   6  16  344.77   13.15   0
  -7   8  15   25.35   10.98   0
  -2   2  14 1048.46   16.16   0
  -1   2   9 1148.67   17.70   0
  -7   5  21   79.72   10.48   0
  -4   0  17  193.23    9.24   0
  -2   3  13  477.80   11.72   0
  -1   1  10 1553.16   20.07   0
  -4  -1  15  243.80   10.77   0
  -4   6  14  399.38   12.95   0
  -3   1  17  522.78   12.13   0
  -3   5  13  592.59   13.29   0
  -3   6   9  377.65   12.10   0
  -7   4  22   98.19   10.25   0
  -6   7  17  141.90   11.40   0
  -4   1  19  127.54    9.18   0
  -7   2  21  113.18    9.43   0
  -6   1  20  134.17    9.85   0
  -4   4  19  105.65    9.95   0
  -2   1  15  569.53   12.39   0
  -7   7  19   27.55    9.32   0
  -5   4  21  173.49   11.36   0
  -5   7  15  155.62   11.30   0
  -5   5  20  166.43   11.44   0
  -2   4  12 1752.18   20.91   0
  -2   5   8 1666.67   22.42   0
  -3   3  18  475.59   12.15   0
  -6   2  22  168.71   10.68   0
  -5   0  19  151.88    9.85   0
  -5   3  22  168.37   11.04   0
  -3   4  17  441.48   12.44   0
  -1   0  11  434.94   11.46   0
  -6   5  22  122.89   10.40   0
  -7   3  23   36.07    9.42   0
  -6   4  23   86.24    9.85   0
  -5   1  21  134.55    9.83   0
  -5   6  19  101.20   11.01   0
  -4   2  21  330.73   11.48   0
  -3   2  19  273.85   10.08   0
  -3   0  18  703.65   14.30   0
  -3  -1  16  777.49   15.11   0
  -3   6  12  564.39   13.99   0
  -1   2  12 1789.39   20.78   0
  -3   5  16  610.49   14.33   0
  -2  -1  14 1192.63   17.92   0
  -2   2  17  241.41    9.91   0
  -2   3  16 1061.36   16.05   0
  -1   1  13 1144.21   16.53   0
  -2   5  11  247.10   10.33   0
  -5   7  18  120.75   10.27   0
  -4   4  22  332.07   12.46   0
  -2   4  15  174.50    9.40   0
  -4   1  22  224.06    9.79   0
  -2   1  18  844.13   14.52   0
  -6   1  23   43.66    8.35   0
  -5   4  24  100.01    9.86   0
  -5   5  23   55.28    9.53   0
  -4   3  23   68.61    8.92   0
  -3   3  21  215.20    9.72   0
  -3   4  20  400.74   11.66   0
  -6   2  25   80.03    9.15   0
  -6   5  25   49.09    8.98   0
  -5   3  25  114.22   10.20   0
  -5   6  22  117.82   10.49   0
  -1  -1  12 1661.28   21.10   0
  -3   2  22  268.44   10.33   0
  -3   6  15  143.08    9.84   0
  -6   4  26   87.13    9.17   0
  -5   0  22  144.42    9.54   0
  -5   1  24  143.53    9.62   0
  -4   2  24  223.55   10.12   0
  -4   7  16  227.07   11.25   0
  -3   5  19   96.16    9.06   0
  -1   2  15  553.39   12.09   0
  -2   3  19  279.54    9.93   0
  -2   0  19  222.45    9.65   0
  -2   2  20  699.19   13.53   0
  -2   5  14  354.83   11.49   0
  -1   1  16 1634.24   18.99   0
  -3  -1  19  142.32    8.72   0
  -1   4  10  850.81   15.85   0
  -5   2  26  108.21   10.28   0
  -5   7  21   75.19   10.32   0
  -4   0  23  111.41    9.42   0
  -4   4  25  116.72   10.71   0
  -2   1  21  296.88   10.48   0
  -5   5  26  126.16   10.37   0
  -4   1  25  136.28   10.23   0
  -5   4  27   19.87    8.61   0
  -4   3  26  152.11   10.11   0
  -3   3  24  260.48   11.37   0
  -3   4  23   65.23    8.85   0
  -3   6  18  237.00   11.23   0
  -1   0  17  887.77   14.40   0
  -5   6  25   60.42    9.29   0
  -1  -1  15  533.27   11.91   0
  -5   3  28   85.17    9.34   0
  -4   7  19  108.72    9.20   0
  -3   2  25  125.59    9.85   0
  -1   2  18  815.38   13.99   0
  -1   4  13  602.68   13.36   0
  -3   5  22  195.27   10.63   0
  -2  -2  15  174.10    8.72   0
  -2   5  17  396.46   12.11   0
  -4   6  23   75.83    9.39   0
  -2   3  22  261.39   10.15   0
  -1   1  19  242.36    9.53   0
  -5   1  27   35.73    8.72   0
  -2   2  23  212.53    9.30   0
  -3   0  24  172.55    9.76   0
  -2   0  22  574.02   13.22   0
  -2  -1  20  408.32   11.60   0
  -3  -1  22  238.26    9.73   0
  -5   2  29   59.98    9.27   0
  -4   4  28   51.88    9.15   0
  -2   1  24  292.77   10.22   0
   0   1  14 1296.37   17.06   0
  -4   0  26  104.75    8.85   0
  -3   4  26  137.11   10.52   0
  -3   6  21  114.93    9.54   0
  -1   0  20  682.71   13.53   0
  -1   4  16  782.88   14.26   0
  -4   3  29   68.02    9.18   0
  -3   3  27   62.96    8.78   0
  -1  -1  18  785.60   13.86   0
  -1   2  21  283.18   10.82   0
   0   2  13 1176.62   16.52   0
  -4   1  28   89.63    8.75   0
  -4   7  22   97.44    9.11   0
  -2   5  20  374.86   12.13   0
  -1   3  20  406.49   11.00   0
  -3   2  28  146.77   10.06   0
  -3   5  25  129.22    9.74   0
  -2  -2  18  306.51   10.76   0
  -2   3  25  145.61   10.12   0
  -1   1  22  389.80   11.44   0
  -4   6  26   87.34    9.87   0
   0   3   9 1252.08   18.80   0
  -2   2  26  156.39    9.41   0
  -2   0  25  157.71    9.85   0
   0   1  17  873.27   14.17   0
   0   2  16  624.17   12.91   0
  -2  -1  23   99.70    8.43   0
  -1   4  19  143.20    8.93   0
   0   3  12 1032.32   16.53   0
  -3   0  27   55.45    8.79   0
  -1  -2  16 1043.21   16.84   0
  -3  -1  25  131.45    9.18   0
  -3   1  29   70.24    9.10   0
  -3   6  24  101.15    9.77   0
  -2   1  27   88.62    9.44   0
  -1  -1  21  288.24   10.39   0
   0   0  18  570.51   11.88   0
  -2   5  23   51.63    8.96   0
  -1   2  24  272.18   10.04   0
  -1   3  23   94.23    9.28   0
  -1   5  15  240.45   10.19   0
  -3   3  30   97.00    9.10   0
  -3   4  29   75.38    9.01   0
   0   3  15  295.38   10.13   0
  -2   6  19   83.61    8.58   0
  -4   0  29   38.86    8.18   0
  -3   5  28   71.37    9.55   0
   0   1  20  689.65   13.01   0
  -2   3  28  143.61    9.65   0
  -3   2  31   33.25    8.67   0
  -1   4  22  242.47   10.59   0
  -2   2  29   61.46    8.86   0
  -1  -2  19  272.84    9.90   0
  -2   0  28   87.16    9.32   0
  -1   5  18  267.09   10.65   0
   0   0  21  664.33   13.39   0
   0   3  18  725.11   14.10   0
  -2  -1  26  215.28   10.11   0
   0  -2  11 1738.93   22.17   0
  -1  -1  24  267.12   10.59   0
  -3   0  30  101.06    8.79   0
  -2   5  26  111.05    9.34   0
  -2   6  22  163.91   10.07   0
  -1   2  27   61.14    9.30   0
  -1   3  26  214.29   10.51   0
   0  -2  14 1008.85   16.28   0
   0   1  23  109.09    8.61   0
   0   4  11  625.27   13.66   0
   0   4  14  568.88   13.16   0
  -3   1  32   45.21    8.64   0
  -1   1  28  173.86    9.97   0
  -1   4  25  144.37   10.22   0
  -1   5  21  152.03    9.72   0
   1   0  10 1505.12   19.29   0
   1   0  13 1140.36   15.96   0
   1   1  12 1719.92   19.50   0
  -2   3  31   21.37    8.90   0
  -1  -2  22  270.10    9.99   0
   0  -2  17  254.24    9.58   0
   0  -1  22  366.16   11.09   0
   0   4  17  222.15    9.64   0
   1   1   9 1155.92   17.08   0
   1   1  15  543.93   11.55   0
   1   0  16 1615.52   18.38   0
  -2   6  25   79.83    9.73   0
   0   2  25  172.93    9.11   0
   1   1  18  834.98   14.30   0
  -2  -1  29   67.96    8.85   0
  -2   0  31   42.83    8.81   0
  -1  -1  27   78.08    9.09   0
  -1   3  29   69.81    9.19   0
   0   1  26  253.89   10.08   0
   1  -1  11  447.21   11.05   0
   1   2  11  424.50   11.25   0
  -2   5  29   66.06    9.29   0
  -1   2  30  115.19    9.05   0
   0  -2  20  698.52   13.79   0
   0   4  20  372.02   11.59   0
   1   0  19  244.09    8.89   0
  -1   4  28   86.26    9.28   0
  -1  -2  25  141.58    9.48   0
  -1   1  31   31.95    8.50   0
   0  -1  25  223.95    9.17   0
   0   0  27   30.75    8.54   0
   1   1  21  295.83    9.62   0
   0   2  28   94.38    9.72   0
   1  -1  20  690.62   12.85   0
   0  -2  23  200.92    9.21   0
   0   4  23  126.90    8.46   0
   0   1  29  127.56   10.08   0
  -1  -1  30  124.42    9.48   0
  -1   5  27   46.62    8.18   0
   1   3  13  580.71   12.76   0
   1   3  16  777.76   14.49   0
  -1   0  32   45.29    8.43   0
  -1   3  32   34.19    9.05   0
   1  -2  15  541.74   12.10   0
   1   1  24  281.52    9.89   0
   1  -2  12 1663.07   20.25   0
   1  -1  23   96.46    8.61   0
   1   2  23  106.96    9.02   0
   0  -1  28  157.12    8.70   0
   1  -2  18  788.99   14.06   0
   1   0  25  241.57   10.37   0
   1   3  19  151.60    9.07   0
   0  -3  15  489.29   12.42   0
   0   0  30  117.30    9.56   0
   1   3  10  810.94   15.11   0
  -1  -2  28  127.87    9.28   0
   0   4  26  117.33    9.56   0
   0  -2  26  148.43    9.09   0
   0   2  31   40.85    8.28   0
   1  -2  21  290.20    9.37   0
   1   3  22  251.31   10.58   0
   1   1  27   79.24    8.21   0
   1   2  26  206.63   10.30   0
   0   1  32   55.63    8.15   0
   0   5  22  136.56    8.92   0
   0  -3  21  202.62    9.18   0
   2   0  17  268.66    9.72   0
   2   0  14 1037.59   15.06   0
   0  -1  31   30.47    7.84   0
   1  -2  24  265.84   10.19   0
   2   1  16 1067.68   15.35   0
   2   1  13  478.95   11.40   0
   2   1  19  289.66    9.63   0
   1   4  15  246.94   10.30   0
   1   4  18  276.43   10.40   0
   0  -2  29   63.61    8.26   0
   0   5  25   43.59    7.69   0
   1   1  30  103.85    9.77   0
   2  -1  21  268.30   10.10   0
   2   0  11 1821.89   19.78   0
   1   2  29   83.90    8.66   0
   2  -1  12 1832.42   19.65   0
   2   0  23  215.82    9.15   0
   2   1  22  259.14    9.82   0
   1   4  21  149.80    9.32   0
   1  -3  16 1062.28   16.58   0
   1  -3  19  281.79   10.04   0
   2   2  15  173.36    8.68   0
   2   2  18  345.22   10.85   0
   1  -2  27   78.30    8.90   0
   1   0  31   34.11    7.92   0
   1   3  28   89.30    8.98   0
   2  -1  24  286.54   10.45   0
   2   1  25  131.09    9.29   0
   2   2  21  335.49   10.42   0
   1  -3  22  255.50   10.02   0
   1   4  24  161.71    9.32   0
   2   0  26  160.06    8.77   0
   1  -3  13  484.71   12.10   0
   2   2  12 1789.93   20.25   0
   2  -2  13 1212.92   16.75   0
   1   1  33   52.28    8.32   0
   1   2  32   43.09    8.06   0
   2  -1   9 1188.73   16.97   0
   2   0   8 2968.36   26.19   0
   0  -2  32   80.56    8.38   0
   1  -1  32   59.58    8.30   0
   2  -1  27   78.68    7.93   0
   1  -3  25  142.78    9.08   0
   1  -2  30  120.11    9.48   0
   2   1  28  146.65   10.07   0
   1   4  27   54.05    8.52   0
   2  -2  25  166.06    8.51   0
   2   3  17  370.24   11.20   0
   2   3  20  374.23   11.31   0
   2   3  23   47.05    8.21   0
   2  -2  10 3343.71   27.59   0
   2  -1  30  106.03    9.11   0
   2   2   9  992.69   15.86   0
   2   3  14  355.10   10.79   0
   2  -3  17  555.24   12.27   0
   2  -3  20  412.98   10.59   0
   2  -2  28   81.83    8.89   0
   3   0  18  483.20   11.25   0
   3   0  21  223.01    9.80   0
   1  -3  28  126.50    9.21   0
   3  -1  16 1110.73   15.90   0
   2  -3  23  108.17    8.62   0
   2   0  32   78.54    8.80   0
   2   3  26   96.31    9.56   0
   3   0  15  533.39   11.40   0
   3   0  24  280.35   10.07   0
   2  -3  14 1215.52   16.67   0
   4  -2  15  179.10    8.88   0
   5  -4   9  362.43   10.94   0
   5  -3  14  345.68   10.72   0
   9  -6  -6  138.96   10.15   0
   9  -6   0  275.03   11.22   0
   3  -3   6 2605.14   24.33   0
   6  -5   5  428.94   11.10   0
   8  -6  -4  389.53   12.43   0
  10  -6   1   60.64    9.43   0
   4  -4 -10 1298.90   19.48   0
   7  -5   9  364.94   11.73   0
   7  -4  14  326.40   11.48   0
   8  -6  -7  105.64    9.37   0
   9  -6   3  141.67   10.14   0
   4  -4   5  395.40   10.97   0
   8  -6   2  217.95    9.84   0
   9  -6  -9  147.60   10.06   0
   5  -5  -5  708.57   13.90   0
   5  -5  -2 1087.48   15.90   0
   6  -4  13  342.40   10.79   0
   9  -5  11   66.62    8.67   0
   8  -4  15   62.94    8.88   0
   5  -5   1  306.40    9.66   0
   8  -6 -10  168.84   11.01   0
   6  -5   8  602.26   12.57   0
   7  -6   1  326.51   11.45   0
   8  -6   5  164.91    9.34   0
   9  -6   6  133.99    9.37   0
   5  -5  -8  682.89   14.20   0
   4  -3  13  601.17   12.67   0
   7  -6  -8  587.91   14.23   0
   5  -5   4  953.06   14.56   0
   7  -6   4  603.16   13.38   0
   5  -4  12  796.48   13.73   0
   7  -5  12  266.56   10.92   0
   8  -5  13  148.54    9.78   0
   4  -4   8 1432.13   17.36   0
   9  -6   9   70.06    8.95   0
   3  -2  14 1217.77   18.02   0
   9  -5  14   62.37    8.25   0
   7  -6 -11  135.56    9.66   0
   7  -6   7  129.75    9.58   0
   5  -5 -11  225.71   10.24   0
   5  -5   7  598.36   12.10   0
   6  -6   0  855.28   14.37   0
   7  -4  17  137.02    9.18   0
   5  -3  17  378.67   11.25   0
   6  -6  -6  326.41   11.12   0
   9  -7  -5  130.30    9.46   0
   9  -7   1   61.48    9.11   0
   3  -4  -2 1271.92   17.51   0
   6  -6   3  221.18   10.22   0
   6  -4  16  287.80   10.60   0
   2  -3  -1  666.15   13.59   0
   3  -4  -5 1103.91   16.96   0
   3  -4   1  887.77   14.27   0
   8  -7  -3   95.78    9.63   0
   8  -7   0  309.98   11.59   0
   9  -7  -8  129.02    9.60   0
   9  -7   4  185.50    9.72   0
   9  -6  12  166.59   10.01   0
   6  -6  -9  256.36   10.32   0
   7  -6  10  202.90   10.50   0
   7  -5  15   51.52    8.33   0
   8  -7   3  169.56   10.07   0
   8  -5  16  173.44    9.84   0
   2  -3   2 3056.46   26.83   0
   4  -5   0 1352.23   17.04   0
   6  -6   6  364.69   10.59   0
   3  -4   4 2763.52   23.98   0
   5  -5  10  616.21   12.88   0
   5  -4  15  249.62    9.95   0
   9  -7   7  124.25    9.55   0
   3  -3  12  982.90   15.55   0
   4  -5  -6 1125.27   17.03   0
   4  -5   3  840.34   13.70   0
   4  -3  16  768.17   14.49   0
   6  -5  14  326.27   11.07   0
   8  -7  -9  180.94   10.38   0
   8  -7   6  157.10   10.24   0
   3  -4  -8 2023.31   23.51   0
   7  -7  -4  589.31   13.35   0
   7  -7   2  150.95    9.85   0
   6  -6   9  321.74   10.29   0
   8  -6  14  134.56    9.22   0
   2  -3   5 2073.25   21.69   0
   5  -6  -4  781.06   14.59   0
   5  -6   2  715.90   13.74   0
   9  -7  10  100.22    9.05   0
   3  -4   7  680.84   12.95   0
   4  -5   6  907.62   14.04   0
   7  -7  -7  118.80    9.50   0
   7  -7   5  200.89   10.31   0
   7  -6  13  202.06   10.05   0
   8  -7   9  109.52    9.39   0
   4  -5  -9  703.06   14.47   0
   5  -6  -7  381.09   11.53   0
   5  -6   5  412.30   10.85   0
   5  -5  13  182.33    9.22   0
   9  -8  -1   77.31    8.86   0
   7  -5  18  200.91   10.67   0
   9  -8  -4  122.41    9.71   0
   9  -8   2  157.62    9.65   0
   7  -7   8  461.40   12.75   0
   4  -5   9  352.39    9.90   0
   6  -7  -2  233.91    9.53   0
   6  -7   1  319.09   11.21   0
   9  -8   5   67.51    9.57   0
   2  -3   8 2047.77   21.55   0
   5  -4  18  256.10   10.51   0
   6  -5  17  181.61    9.59   0
   8  -8  -2  176.40   10.33   0
   8  -8   1   85.90    9.58   0
   2  -2  13 1168.23   18.20   0
   3  -4 -11  327.15   11.51   0
   6  -7  -5  201.18   10.33   0
   8  -6  17   91.00    8.69   0
   8  -8  -5  125.78   10.04   0
   8  -8   4  206.74   10.74   0
   5  -6 -10  472.37   12.55   0
   7  -7  11   66.48    9.03   0
   7  -6  16  204.45   10.13   0
   3  -3  15  291.73    9.77   0
   6  -7   7  128.51    9.39   0
   6  -7  -8  570.25   13.76   0
   8  -8   7  103.38    9.12   0
   5  -6  11  186.91    9.55   0
   5  -5  16  400.72   11.15   0
   8  -8  -8  136.41    9.20   0
   3  -5  -1  730.53   13.06   0
   3  -5   2  682.45   12.96   0
   4  -6   1  581.10   11.92   0
   7  -8  -3   73.94    9.25   0
   7  -8   3  161.07   10.34   0
   8  -7  15   52.08    8.61   0
   3  -5  -4 2201.47   22.29   0
   4  -6   4  813.09   13.52   0
   4  -4  17  199.65    8.75   0
   6  -7  10  236.27    9.49   0
   8  -8  10   94.65    9.19   0
   2  -4   0 4251.54   30.17   0
   2  -3  11  429.76   10.91   0
   3  -5   5  680.84   12.40   0
   7  -7  14  105.48    9.33   0
   3  -4  13  575.49   12.27   0
   7  -8  -6  161.32   10.03   0
   2  -4   3  804.87   13.49   0
   5  -7  -3  432.05   11.81   0
   5  -7   3  143.15    8.29   0
   4  -6   7  239.85    8.97   0
   7  -6  19   36.45    8.52   0
   5  -6  14  352.39   11.10   0
   3  -5  -7  355.11   10.70   0
   3  -5   8 1736.33   18.98   0
   5  -7   6  472.82   11.37   0
   7  -8   9  104.90    8.63   0
   2  -4   6  762.88   13.33   0
   5  -7  -6  375.93   11.33   0
   4  -6  -8  707.67   14.19   0
   4  -5  15  267.72    9.14   0
   6  -8  -1  197.01   10.38   0
   8  -9  -1   83.32    8.70   0
   2  -4  -6  750.09   14.49   0
   4  -6  10  590.88   12.01   0
   5  -7   9  320.54   11.24   0
   5  -5  19  162.72    9.00   0
   6  -8  -4  380.29   11.97   0
   6  -8   5  172.27    8.96   0
   7  -7  17  105.54    8.54   0
   8  -9  -4  124.11    8.97   0
   8  -9   5   63.50    9.18   0
   3  -3  18  687.01   14.10   0
   7  -8  12  192.94    9.71   0
   2  -2  16  587.31   13.35   0
   2  -4   9 1051.91   15.17   0
   3  -5  11  247.28    8.62   0
   5  -7  -9  128.18    8.77   0
   6  -8   8  311.34   10.84   0
   3  -4  16  775.65   14.08   0
   1  -3   1  682.95   13.17   0
   2  -3  14 1195.05   16.55   0
   5  -6  17  182.75    9.62   0
   6  -8  -7   86.62    8.43   0
   6  -7  16  204.37    9.76   0
   3  -5 -10  525.20   13.09   0
   1  -3   4 3310.55   26.85   0
   7  -9  -2  182.43   10.32   0
   7  -9   4  181.52    9.77   0
   4  -7   2  589.49   12.94   0
   3  -6   0 1021.24   14.81   0
   3  -6   3  420.57   10.44   0
   6  -8  11   75.87    8.38   0
   7  -8  15   60.24    7.98   0
   4  -7   5  362.94   10.41   0
   7  -9   7  120.53    9.36   0
   3  -6  -3  440.37   11.39   0
   3  -6   6  677.54   12.88   0
   7  -9  -5  136.31    9.43   0
   1  -3   7 1617.22   19.04   0
   2  -4  -9  980.00   17.57   0
   2  -4  12 1691.29   18.94   0
   3  -5  14  348.08   10.42   0
   4  -7  -4  501.35   12.45   0
   5  -8   4  389.52   11.68   0
   2  -5   1  771.32   13.53   0
   4  -7   8  392.96   11.38   0
   5  -8  -2  242.95   10.83   0
   2  -5   4 2077.27   19.96   0
   5  -7  15   71.64    8.25   0
   7  -9  10  103.07    8.80   0
   1  -2  12 1709.98   21.07   0
   5  -8   7  109.52    8.63   0
   3  -6   9  377.26   10.08   0
   4  -6  16  278.63   10.21   0
   2  -5   7  355.51   10.27   0
   3  -6  -6  688.12   13.69   0
   5  -8  -5  170.09    9.84   0
   6  -7  19   39.05    7.95   0
   4  -7  -7  351.80   10.94   0
   5  -6  20  152.17   10.04   0
   6  -9   0  258.01   11.04   0
   6  -9   3  144.98    9.13   0
   4  -7  11  130.94    8.12   0
   5  -8  10  202.08    9.82   0
   6  -9   6  116.43    9.22   0
   3  -4  19  131.53    8.14   0
   6  -9  -3   68.44    8.20   0
   2  -5  -5  698.35   13.47   0
   2  -3  17  534.70   12.66   0
   3  -6  12  537.81   11.98   0
   2  -5  10  526.39   11.77   0
   6  -9   9   81.33    8.24   0
   2  -4  15  172.56    8.27   0
   3  -5  17  364.89   10.23   0
   5  -8  -8  352.41   11.59   0
   5  -7  18  181.17    9.86   0
   1  -4   2 1278.50   16.37   0
   5  -8  13  122.79    9.17   0
   6  -9  -6  141.71    9.10   0
   6  -8  17   82.55    7.88   0
   1  -4   5 1079.75   14.92   0
   1  -4  -1  847.93   13.93   0
   3  -6  -9  408.07   11.50   0
   3  -7   1  208.92    9.54   0
   3  -7   4  496.23   12.19   0
   4  -8   0  457.72   12.24   0
   4  -8   3  159.67    8.66   0
   4  -6  19   66.61    8.04   0
   6  -9  12  150.94    9.01   0
   4  -8   6  217.45   10.15   0
   1  -4   8 2059.34   20.42   0
   3  -7  -2  595.44   12.94   0
   3  -7   7  313.28   10.57   0
   1  -3  13  489.07   11.36   0
   2  -5  -8 1715.79   21.00   0
   3  -6  15  154.01    7.97   0
   5  -9   5  113.63    9.34   0
   2  -6   2  805.29   13.40   0
   2  -6   5  299.74   10.21   0
   4  -8   9  144.60    9.54   0
   5  -9  -1  138.33    9.61   0
   1  -4  -4 2667.68   24.84   0
   1  -2  15  531.24   12.64   0
   5  -8  16  142.15    9.10   0
   3  -7  10  372.46   11.04   0
   5  -9   8  305.49   11.06   0
   2  -6   8  672.71   12.89   0
   3  -7  -5  353.22   10.87   0
   4  -7  17  137.11    9.18   0
   5  -9  -4  340.80   11.11   0
   2  -4  18  328.14   10.78   0
   3  -5  20  350.69   11.34   0
   4  -8  -6  230.52    9.89   0
   4  -8  12  266.98   10.60   0
   5  -7  21   97.17    7.96   0
   6 -10   1   72.10    8.11   0
   2  -6  -4  823.26   14.37   0
   5  -9  11   65.58    8.32   0
   2  -6  11  338.29   10.61   0
   2  -5  16  600.27   12.71   0
   3  -7  13  145.29    8.86   0
   1  -5   3  341.32    9.53   0
   3  -6  18  249.12   10.11   0
   1  -5   0 1341.22   16.91   0
   1  -5   6 1097.52   15.00   0
   5  -8  19   25.03    7.89   0
   3  -7  -8  388.70   11.41   0
   5  -9  14   59.00    8.64   0
   1  -5   9  669.80   12.61   0
   1  -4  -7  657.78   13.59   0
   1  -3  16 1063.81   16.23   0
   0  -3   3 2116.96   21.07   0
   1  -4  14  625.11   12.04   0
   3  -8   5  174.91    8.69   0
   4  -7  20  115.69    8.46   0
   0  -3   6 2066.99   20.94   0
   1  -5  -3  836.49   14.25   0
   2  -6  -7  254.76    9.72   0
   4  -9   7   69.19    8.54   0
   2  -7   3  405.51   11.15   0
   3  -8  -1  196.14    8.91   0
   3  -8   8  326.16   10.45   0
   3  -7  16  229.70    9.24   0
   0  -3   0 2591.07   23.67   0
   2  -7   6  366.87   10.37   0
   4  -9  -2   99.03    8.96   0
   4  -9  10   92.48    8.56   0
   5 -10   3   63.11    8.84   0
   0  -2  11 1769.30   20.77   0
   2  -7   9  139.78    9.00   0
   3  -8  11  104.04    8.92   0
   5 -10   0  169.87    9.24   0
   0  -3   9  513.05   11.00   0
   2  -5  19   78.42    7.53   0
   3  -8  -4  401.02   11.54   0
   3  -6  21  120.41    9.43   0
   1  -6   4  759.82   13.05   0
   4  -9  -5  109.91    9.07   0
   4  -9  13  112.74    8.77   0
   0  -4   4 1489.64   17.09   0
   1  -6   1  295.23   10.02   0
   1  -6   7  345.15   10.60   0
   1  -5  -6  879.50   14.40   0
   2  -7  12  372.20   11.50   0
   2  -6  17  139.93    8.08   0
   0  -4   7  299.36    9.53   0
   1  -4  17  444.51   11.26   0
   3  -8  14  117.52    9.12   0
   3  -7  19  105.31    8.29   0
   0  -4   1 1345.29   16.53   0
   0  -3  12 1451.72   17.41   0
   1  -6  10  436.20   11.22   0
   1  -5  15  150.36    7.68   0
   1  -6  -2  678.73   12.66   0
   3  -8  -7  116.32    8.69   0
   0  -4  10 1253.28   16.17   0
   1  -3  19  262.80    9.87   0
   2  -7  -6  462.11   11.97   0
   0  -2  14 1009.88   16.26   0
   1  -4 -10  782.72   15.87   0
   2  -8   4  359.56   10.54   0
   3  -9   0  253.87   10.40   0
   3  -8  17  102.29    8.38   0
   3  -9   9  139.06    8.92   0
   0  -5   5  683.91   12.94   0
   2  -6  20  206.86    9.58   0
   0  -5   2 1120.77   15.45   0
   1  -6  -5  411.93   10.55   0
   2  -8  10  166.11    9.57   0
   4 -10  -1   55.47    7.69   0
   0  -5   8  644.94   12.67   0
   0  -4  13  675.98   12.29   0
   1  -5  18  397.94   11.11   0
   2  -8  -2  207.43    9.96   0
   3  -9  -3  157.46    9.79   0
   3  -9  12  143.32    9.12   0
   0  -3  15  506.87   11.70   0
   1  -7   2  228.32   10.02   0
   1  -7   5  191.03    8.71   0
   1  -5  -9  348.63   10.82   0
   3  -7  22   92.76    8.22   0
   0  -3  -6 2449.36   25.36   0
   1  -7   8  552.60   13.05   0
   1  -4  20  382.34   11.40   0
   2  -7  18  135.81    9.18   0
   2  -8  13  148.63    9.52   0
   0  -5  11  194.46    8.23   0
   0  -4  -5  379.73    9.91   0
   1  -6  16  328.64    9.85   0
   1  -7  11  128.41    9.09   0
   2  -8  -5  151.87    9.44   0
   0  -4  16  423.77   11.01   0
   0  -6   6  304.00   10.59   0
   1  -6  -8  576.80   12.70   0
  -1  -3   5 1110.75   15.43   0
  -1  -2   4 3380.48   26.76   0
   0  -6   3  325.80    9.85   0
   0  -5  -4  911.71   14.29   0
   1  -7  -4  600.18   13.03   0
   2  -8  16  138.65    8.45   0
  -1  -2   7 1581.99   18.40   0
   0  -6   9  232.83    9.64   0
   0  -2  17  255.04    9.45   0
   2  -9   5  124.63    9.22   0
  -1  -3   2 1282.72   16.09   0
  -1  -3   8 2051.44   19.84   0
   2  -9   2  156.90    9.42   0
   2  -9   8  133.19    9.16   0
   0  -3  18  465.69   11.54   0
   1  -6  19  106.84    8.44   0
   1  -5  21  163.09    8.90   0
   2  -7  21   62.88    7.49   0
  -1  -2   1  684.66   12.86   0
   1  -8   6  160.19    9.75   0
  -1  -4   6 1100.33   15.46   0
  -1  -2  10 1341.20   17.05   0
   0  -6  12  491.38   11.47   0
   2  -9  -1   62.10    8.66   0
   2  -9  11   33.10    7.80   0
  -1  -4   3  358.12    9.59   0
  -2   2  17  239.76   10.24   0
   0   6  18  160.20   11.57   0
   2   4  10  581.07   14.02   0
  -1   5  21  135.28   10.86   0
   2   5   9  355.18   12.67   0
  -1   1  13 1051.32   17.79   0
   1   1   9 1175.86   17.90   0
   1   7  12  206.10   11.36   0
  -3   6  24   99.42   10.44   0
  -2   5  23   35.12   10.12   0
   0   2  16  622.94   13.75   0
   0   3  18  702.49   14.08   0
   1   2  14 1244.86   17.91   0
   1   3  16  794.10   15.35   0
   2   6   8  284.62   11.99   0
   0   4  20  360.44   12.53   0
   1   5  17  164.41   11.03   0
   1   6  16  210.05   11.76   0
  -3   4  23   58.41    9.04   0
  -1   2  18  765.82   14.98   0
   2   5  12  257.30   12.14   0
   2   4  13  319.58   11.92   0
  -1   6  23   44.77   10.71   0
  -1   7  22   78.24    9.65   0
   1   4  18  280.56   11.59   0
   1   7  15   45.57   10.04   0
  -3   5  25  119.47   10.77   0
   0   1  14 1253.11   18.28   0
   0   6  21  116.07   10.50   0
   2   6  11   93.06    9.55   0
  -2   3  22  270.58   11.39   0
   0   7  20  113.03   10.31   0
   1   1  12 1787.44   20.82   0
   2   3  14  346.04   11.85   0
   0   5  22  151.35   11.07   0
   2   1   7 1564.06   20.78   0
   2   2  12 1731.16   20.10   0
  -2   4  24  239.05   10.63   0
  -1   5  24  158.38   11.28   0
  -2   1  15  525.02   13.95   0
   2   5  15   60.85    9.99   0
   3   3   6  687.52   14.83   0
   0   3  21  253.48   10.42   0
   1   2  17  532.86   13.19   0
   1   3  19  154.96   10.36   0
  -2   2  20  686.18   14.84   0
  -1   1  16 1575.46   20.70   0
   0   2  19  211.01    9.41   0
   2   6  14  138.54   10.05   0
   3   4   8  378.54   12.30   0
  -3   6  27   18.94    8.75   0
  -2   5  26   93.75   10.69   0
  -1   3  23   97.26    9.60   0
   3   3   9  370.84   11.91   0
   1   4  21  120.27   10.77   0
   2   1  10 1418.70   18.73   0
   3   2   4 2086.78   24.56   0
   2   2  15  183.36    9.62   0
  -1   2  21  278.42   11.01   0
  -1   4  25  146.76   10.89   0
   1   1  15  552.63   12.91   0
   2   3  17  397.05   11.72   0
   3   2   7  348.25   10.64   0
   3   4  11  146.98   10.02   0
   0   6  24   82.06   10.11   0
   2   5  18  182.58   11.13   0
  -3   4  26  131.66    9.90   0
   3   3  12  548.35   12.90   0
   3   5  10  172.23   10.65   0
   0   5  25   56.37    9.31   0
   2   4  19   84.11    8.76   0
   2   6  17   91.99    9.50   0
   3   2  10  560.76   12.56   0
   1   6  22   86.08   10.40   0
   2   1  13  501.50   11.87   0
  -3   5  28   65.75   10.22   0
  -1   5  27   36.84    9.46   0
   1   2  20  416.71   11.66   0
   1   3  22  244.21   10.46   0
   1   5  23   53.26    9.43   0
   3   4  14  311.14   12.34   0
  -2   3  25  130.46    9.86   0
  -2   4  27   22.18    9.40   0
   2   2  18  326.89   11.19   0
   3   5  13  135.05    9.91   0
   1   0  10 1491.69   20.26   0
   2   3  20  389.91   12.69   0
   3   3  15  165.02    9.73   0
  -2   1  18  783.52   16.26   0
  -1   1  19  226.04    9.86   0
   0   4  26  113.95   10.42   0
   1   4  24  163.57   10.59   0
   1   1  18  842.64   14.56   0
  -2   2  23  211.27    9.98   0
  -2   5  29   62.34    8.84   0
  -1   3  26  206.19   11.00   0
   3   1   5 1043.15   17.07   0
   3   1   8 1933.24   22.01   0
   2   1  16 1122.33   16.33   0
   3   4  17  154.97   10.64   0
  -1   2  24  259.36   10.79   0
  -1   4  28   98.17    9.70   0
   0   1  20  662.27   13.91   0
   3   5  16  156.13   10.27   0
   1   0  13 1127.97   16.76   0
   3   2  16  625.88   13.20   0
   1   2  23  114.92    8.73   0
   1   3  25  143.01   10.62   0
   2   0   8 2905.24   27.06   0
   2   2  21  324.66   10.98   0
   0   3  27   73.47    9.89   0
   2   3  23   43.07    8.23   0
   0   0  15  156.62    7.89   0
   0   2  25  156.39    9.78   0
   2   0  11 1855.02   20.77   0
   3   1  14  641.01   13.71   0
   1   1  21  285.47    9.95   0
   1   4  27   26.60    8.96   0
   2   1  19  298.77   10.88   0
   3   4  20  116.43    9.80   0
   3   5  19   26.77    9.18   0
   4   3  10  367.16   11.89   0
  -1   0  14 1245.11   19.73   0
  -2   3  28  114.97    9.21   0
  -1   1  22  370.18   11.59   0
   0   4  29   42.36    9.04   0
   1   0  16 1653.00   19.82   0
   3   2  19   72.22    9.39   0
   4   2   8  687.56   14.32   0
  -2   4  30   63.50    8.88   0
   2   0  14 1075.23   16.33   0
   2   4  25   92.90    9.08   0
   3   3  21  130.31   10.40   0
   4   2  11  319.34   11.15   0
   4   3  13  128.61    9.81   0
   4   2   5  298.37   10.83   0
   0   1  23   88.91    8.62   0
   3   1  17  453.39   12.58   0
  -1   3  29   73.25    9.58   0
   2   2  24  261.90   11.42   0
   4   2  14  389.62   12.01   0
   4   3  16  228.78   11.23   0
   4   4  15   70.14    8.76   0
  -1   2  27   78.77    9.08   0
   0   0  18  542.14   12.73   0
   1   3  28  103.90    9.73   0
   2   3  26  110.56    9.84   0
   2   1  22  283.33   10.40   0
   3   0   9  483.76   12.05   0
   2   0  17  254.08    9.26   0
   3   0  12 1550.10   18.91   0
   3   2  22  190.35   10.89   0
   4   1   9  679.21   13.87   0
  -1   0  17  847.72   16.02   0
   4   1  12  588.35   13.25   0
   0   2  28   75.12    9.01   0
   0   3  30   87.44    9.34   0
   3   3  24  123.60    9.79   0
   4   1   6 1058.25   17.45   0
   4   2  17  157.01    8.78   0
   4   4  18   84.39   10.16   0
   4   3  19   95.20    9.46   0
   3   0  15  536.54   11.81   0
  -1   1  25  204.61    9.91   0
   0   1  26  240.88   10.65   0
   2   0  20  676.87   13.22   0
   2   2  27   24.91    8.41   0
   0   0  21  632.79   12.94   0
   2   1  25  132.46    9.86   0
   1   0  22  361.56   11.34   0
   1   2  29   74.75    9.50   0
   2   3  29   75.02    8.97   0
   3   0  18  470.31   11.62   0
   3   2  25  121.02    9.29   0
   4   1  18  410.37   12.17   0
   3   1  23   80.26    8.09   0
   4   3  22  103.85    9.27   0
  -1   0  20  631.83   13.86   0
  -1   2  30  110.38    9.87   0
   3   3  27   25.26    7.97   0
   4   0  10 1183.85   16.44   0
   4   2  23   82.83    9.38   0
   5   2  12  362.89   11.55   0
   0   2  31   29.04    8.57   0
   1  -1  11  438.31   11.75   0
   2  -1  12 1733.79   20.09   0
   2   0  23  200.83    9.27   0
   3   0  21  223.20   10.39   0
   4   1  21  174.62    9.33   0
   4   0   7  289.50    9.91   0
   4   0  16  426.71   11.00   0
   5   2  15  143.89    9.29   0
   2  -1   9 1183.09   17.18   0
   2  -1  15  586.17   12.59   0
   0   0  24  365.54   11.33   0
   2   2  30   61.51    8.31   0
   3   1  26  166.06   10.06   0
   3   2  28   86.16    9.18   0
   5   3  17   81.23    8.43   0
   0   1  29  111.96    9.23   0
   1   0  25  233.82   10.17   0
   5   1  10  444.84   11.98   0
   5   1  13  209.66    9.70   0
   5   2  18  129.59    9.77   0
   1  -1  17  838.92   14.62   0
   3  -1  13  488.70   11.77   0
   4   0  19   94.39    8.10   0
   1   2  32   50.63    8.65   0
   2  -1  18  811.16   14.23   0
   3  -1  10 1391.42   17.62   0
   5   1  16  315.03   10.31   0
  -1   0  23   95.94    7.82   0
   3  -1  16 1114.35   15.58   0
   3   0  24  263.03   10.90   0
   4   2  26   79.51    8.92   0
   0  -1  13 1080.98   17.66   0
   1   1  30  106.13    8.84   0
   5   1   7  335.84   11.23   0
   4   0   4 1401.28   19.35   0
   5   1  19   99.02    9.11   0
   5   2  21   62.96    8.61   0
   0  -1  16 1581.22   20.21   0
   4   0  22  326.28   11.69   0
   1  -1  20  672.84   12.96   0
   3  -1   7 1537.61   19.16   0
   3  -1  19  288.35    9.70   0
   3   1  29   59.36    8.63   0
   5   0  14  553.41   12.61   0
   4  -1  14  640.85   12.44   0
   5   0  11  210.03    8.67   0
   0   0  27   28.57    7.14   0
   1   0  28  162.00    9.64   0
   2   1  31   26.21    8.09   0
   4  -1  11  333.27    9.77   0
   4   1  27   37.42    8.73   0
   0  -1  19  230.24    9.33   0
   3   0  27   72.28    8.87   0
   4  -1  17  454.37   11.20   0
   3  -1  22  278.78   10.70   0
   5   0   8  631.39   13.23   0
   5   0  20  167.92   10.07   0
   1  -1  23   95.53    8.19   0
   2  -1  24  291.95   10.63   0
   2   0  29   61.62    8.52   0
   4  -1  20  393.30   11.78   0
   0  -1  22  376.98   11.13   0
   3  -1  25  158.76    9.68   0
   5   0  23   59.94    8.98   0
   4  -1  23   68.17    7.76   0
   6   1  14  118.28    8.80   0
   6   1  17  131.66    9.44   0
   4   0  28   57.69    8.48   0
   5  -1  12  582.41   12.06   0
   5  -1  18  403.51   11.74   0
   1   0  31   32.12    8.81   0
   5   0   5  657.43   13.85   0
   1  -1  26  242.76    9.88   0
   2  -1  27   83.91    8.77   0
   6   1  20  152.62    9.37   0
   3  -2  14 1264.06   16.86   0
   4  -1   5 1051.03   16.40   0
   5  -1  21  173.91    9.94   0
   6   0  15  116.69    8.77   0
  -1  -1  15  520.94   13.54   0
   3  -2  17  533.76   11.57   0
   5  -1   9  680.19   13.26   0
   5   0  26  107.64    9.15   0
   6   0  12  521.45   13.06   0
   6   0  18  119.57    9.03   0
   2  -2  13 1226.74   16.63   0
   2   0  32   80.49    8.87   0
   0  -1  25  216.52   10.06   0
   3  -2  11  457.20   10.92   0
   3  -2  20  382.90   11.31   0
   4  -2  15  197.08    9.00   0
   4  -2  18  332.97   10.03   0
   6   0  21   94.92    8.87   0
   4  -2  12 1727.03   18.79   0
   5  -1  24  114.92    9.59   0
   6   0   9  224.02    9.54   0
   2  -2  10 3449.09   27.73   0
   2  -2  22  555.55   12.77   0
   4  -2  21  338.36   10.44   0
   1  -2  15  533.69   12.27   0
   1  -2  18  829.76   14.73   0
   1  -1  29  111.01    9.76   0
   6  -1  16  329.88   11.38   0
   6   0  24  110.28    9.39   0
   2  -1  30  101.08    9.36   0
   5  -2  16  621.31   12.99   0
   5  -1   6 1058.97   16.26   0
   6  -1  13  193.72    9.44   0
   6  -1  19  106.07    9.45   0
   3  -2   8 2065.96   21.33   0
   4  -2   9 1017.27   15.02   0
   5  -2  19   83.24    8.46   0
   1  -2  12 1798.78   21.27   0
   5  -2  13  574.98   11.92   0
   5  -1  27   26.01    8.18   0
   1  -2  21  276.24    9.47   0
   3  -1  31   29.04    7.85   0
   2  -2  25  162.23    9.33   0
   3  -2  26  221.96   10.27   0
   5  -2  22  204.56   10.18   0
   6  -1  10  424.67   11.41   0
   6  -1  25   51.56    8.30   0
   1  -2  24  272.33   10.03   0
   2  -2   7  354.27   10.85   0
   4  -2  27   34.44    8.22   0
   5  -2  25  138.12    9.28   0
   7   0  16  199.58   10.19   0
   4  -1   2 1247.21   18.74   0
   7   0  19   23.69    7.02   0
   6  -2  14  364.18   10.95   0
   6  -2  20  194.21   10.14   0
   2  -2  28   81.01    8.09   0
   3  -2  29   73.24    8.56   0
   6  -1   7  345.13   10.48   0
   4  -3  16  790.76   13.29   0
   4  -3  19  139.14    9.00   0
   6  -2  23   66.61    8.01   0
   7  -1  17  137.21    8.61   0
   0  -2  17  241.49    9.25   0
   3  -3  15  301.68    9.96   0
   3  -3  18  734.18   12.96   0
   3  -2   5 2035.80   21.99   0
   5  -2   7  345.75    9.78   0
   5  -2  28   62.79    8.40   0
   6  -2  11  307.13   10.31   0
   7  -1  14  114.88    8.69   0
   7  -1  20  165.44    9.49   0
   1  -2  27   72.74    8.08   0
   4  -3  13  620.15   12.43   0
   4  -3  22  233.89    9.72   0
   4  -2  30   67.04    8.32   0
   5  -3  17  387.80   11.22   0
   5  -1   3  332.85   10.26   0
   0  -2  14 1045.65   17.28   0
   5  -3  20  392.57   11.21   0
   6  -2  26  101.61    8.66   0
   3  -3  12 1033.31   15.32   0
   7  -1  11  114.66    8.89   0
   2  -3  17  542.10   12.13   0
   2  -3  20  422.69   11.24   0
   3  -3  24  164.37    8.22   0
   5  -3  23   47.30    7.70   0
   2  -2  31   33.82    7.09   0
   7  -2  18  136.24    8.82   0
   4  -3  10  857.39   13.70   0
   5  -3  11  256.94    9.37   0
   6  -3  18  260.91   10.36   0
   6  -2   8  667.53   13.24   0
   7  -2  15  161.54    9.03   0
   7  -2  21   68.60    8.16   0
   2  -3  23  106.18    8.27   0
   6  -3  15  151.22    8.78   0
   6  -3  21  134.23    9.31   0
   5  -3  26  111.29    8.70   0
   3  -3  27   62.23    7.94   0
   4  -3  28  103.46    8.35   0
   6  -3  24  117.11    8.77   0
   7  -2  12  379.58   11.17   0
   3  -3   9 1299.62   16.78   0
   2  -3  26  208.89    9.71   0
   4  -2   3  776.26   14.39   0
   5  -2   4 2106.55   22.09   0
   2  -3  11  447.56   10.88   0
   5  -3   8 1683.13   18.88   0
   6  -3  27   26.25    7.84   0
   1  -3  19  266.68    9.72   0
   4  -3   7  700.26   13.18   0
   7  -3  16  241.78   10.04   0
   3  -3  30   95.25    8.14   0
   7  -3  22  100.65    8.09   0
   7  -2   9  122.03    8.21   0
   1  -3  16 1045.81   16.09   0
   1  -3  22  264.01    9.61   0
   4  -4  20  367.33   11.26   0
   5  -4  18  274.73   10.31   0
   5  -4  21  137.81    9.18   0
   6  -3   9  391.96   10.54   0
   4  -4  17  207.43    8.77   0
   6  -2   5  300.47    9.91   0
   7  -3  13  109.74    8.81   0
   5  -4  15  252.65    9.15   0
   4  -4  14  558.73   12.05   0
   5  -4  24  165.36    8.56   0
   6  -4  19   60.21    7.79   0
   3  -4  19  140.05    8.59   0
   6  -4  16  299.18    9.71   0
   6  -4  22  175.83    8.90   0
   1  -3  13  502.61   11.84   0
   3  -4  22  213.92    9.60   0
   3  -3   6 2664.94   24.19   0
   4  -4  26  107.49    8.82   0
   5  -4  12  805.02   13.23   0
   6  -4  25   67.14    8.76   0
   2  -3   8 2093.03   21.85   0
   6  -4  13  331.04   10.52   0
   7  -3  10  367.93   10.50   0
   3  -4  25  137.50    9.07   0
   4  -4  11  662.10   12.17   0
   7  -4  20  106.89    8.41   0
   2   1  13  515.34   11.89   0
   3   2  13  583.88   12.26   0
   3   3  15  152.23    8.98   0
   4   2   2  799.31   14.71   0
   4   4   9  153.13    9.86   0
   4   5   5  108.90    9.31   0
   3   5  16  154.69    9.93   0
   4   2   5  314.31    9.74   0
   4   5   8  283.05   11.23   0
   0   5  25   68.83    9.04   0
   3   4  17  134.80    8.89   0
  -1   3  23   94.13    8.04   0
   2   2  18  335.60   10.76   0
   2   3  20  389.19   11.59   0
   2   5  21   95.21    9.23   0
   3   1  11  353.68   10.29   0
   4   2   8  676.04   12.90   0
  -1   4  25  123.96    8.76   0
   1   3  22  208.89    9.23   0
   1   2  20  384.89   10.43   0
   4   4  12  262.87   10.53   0
   3   2  16  636.91   13.38   0
   4   5  11   67.39    8.97   0
   0   1  17  864.34   14.99   0
   1   4  24  152.20    9.74   0
   2   4  22  178.23   10.03   0
   3   3  18  249.87    9.93   0
   4   2  11  333.84   10.55   0
   4   3  13  124.90    9.20   0
  -1   1  16 1522.05   21.32   0
   2   0   8 2996.13   26.09   0
   2   1  16 1099.91   15.92   0
  -1   2  21  264.14   10.33   0
   0   3  24  169.75    9.26   0
   3   5  19   22.99    7.92   0
   4   1   3  351.94   10.43   0
   4   1   6 1069.99   15.80   0
   3   1  14  645.98   12.39   0
   3   4  20  129.24    9.86   0
   4   4  15   90.28    9.22   0
   4   5  14   62.40    8.41   0
   0   2  22  587.25   13.10   0
   1   1  18  785.19   13.57   0
   4   1   9  671.96   12.55   0
   4   2  14  380.58   11.22   0
   2   0  11 1857.59   19.89   0
   4   1   0 1341.26   18.75   0
   4   3  16  241.24    9.77   0
   3   0   6 1955.47   20.73   0
   3   2  19   89.91    8.36   0
   3   3  21  119.43    9.53   0
   5   3   5  167.83    9.22   0
   3   0   9  515.84   11.58   0
   4   1  12  609.81   12.66   0
   5   3   8  342.49   11.13   0
   1   2  23   99.87    8.38   0
   1   3  25  129.93    8.43   0
   4   4  18  100.88    9.33   0
   5   4   7   52.28    8.35   0
   2   4  25   74.92    8.52   0
   3   1  17  457.39   10.95   0
   5   2   6  362.41   10.96   0
   4   2  17  142.63    9.33   0
   5   3  11   97.50    8.74   0
   5   4  10   91.87    8.53   0
   1   4  27   34.31    8.44   0
   3   4  23   36.26    8.33   0
   4   3  19  103.82    9.71   0
   5   2   9  134.51    8.09   0
   2   0  14 1093.07   15.30   0
   3   0  12 1576.58   17.79   0
   4   1  15  156.24    9.12   0
   5   4  13  103.33    8.56   0
   1   1  21  274.92    9.87   0
   3   2  22  187.72    9.51   0
   5   3  14  130.26    8.79   0
   2   2  24  231.18   10.51   0
   4   0   7  297.21    9.08   0
   2   3  26   96.88    8.68   0
   3   3  24   90.44    9.16   0
   4   0   4 1458.94   18.33   0
   5   1   4  719.70   13.71   0
   1   0  16 1546.08   18.97   0
   3   0  15  541.51   11.75   0
   3   1  20  387.66   10.66   0
   4   0  10 1211.96   15.79   0
   4   2  20  200.20   10.16   0
   0   2  25  149.55    8.71   0
   5   2  15  147.79    8.67   0
   2   1  22  281.15    9.91   0
   4   1  18  421.11   11.88   0
   4   3  22  104.81    9.09   0
   5   3  17  108.84    9.11   0
   4   0  13  690.63   13.08   0
   5   1  13  202.16    9.68   0
   1   3  28   86.16    9.32   0
   5   1   1  298.43   10.09   0
   0   0  15  156.76    8.14   0
   1   2  26  215.05    9.76   0
   4   0   1 1367.08   18.58   0
   5   2  18  140.98    8.94   0
   3   0  18  483.48   10.99   0
   5   1  16  332.90   11.02   0
   4   0  16  451.56   10.88   0
   4   2  23   85.17    8.64   0
   5   3  20  101.91    8.64   0
   6   3   9  134.41    9.46   0
   0   1  23   92.45    7.91   0
   1   1  24  267.68    9.95   0
   4   1  21  182.91    9.82   0
   6   2   7   86.99    8.29   0
   1   0  19  228.18    9.06   0
   2   2  27   17.10    7.85   0
   5   0   5  685.59   13.20   0
   5   0  11  222.24    9.47   0
   6   2  10  168.29    9.72   0
   6   3  12  113.11    9.11   0
   2   0  20  690.02   13.26   0
   2   3  29   58.91    7.77   0
   2   1  25  139.99    8.77   0
   5   0  14  566.99   12.28   0
   5   1  19   95.66    8.99   0
   5   2  21   64.99    8.88   0
   3  -1   7 1622.00   18.80   0
   3  -1  10 1455.42   17.32   0
   4   0  19  104.84    8.75   0
   6   1   8  544.04   12.68   0
   6   1  11  138.02    9.42   0
   2  -1   9 1184.32   16.74   0
   6   1   5  196.68    9.67   0
   0   0  18  526.80   12.23   0
   5   0   2 1089.94   16.28   0
   6   2  16  135.22    9.24   0
   2  -1  12 1762.14   19.40   0
   3  -1  13  487.25   10.69   0
   4  -1   8 2016.32   20.37   0
   4   0  -2 1442.07   20.69   0
   4  -1  11  346.51    9.45   0
   4   1  24  110.66    8.85   0
   5   0  17  234.02    9.26   0
   3  -1   4 3274.47   27.60   0
   3   2  28   79.67    8.13   0
   3   1  26  154.10    9.01   0
   5   1  22  123.86    9.43   0
   2   0  23  213.56    9.29   0
   3  -1  16 1111.23   15.43   0
   4  -1  14  651.14   12.05   0
   6   1  17  120.63    9.02   0
   1   0  22  376.90   10.58   0
   4   0  22  338.61   10.71   0
   6   0   9  239.34    8.83   0
   6   0   6  297.36   10.11   0
   1   1  27   65.60    7.70   0
   2   2  30   69.88    8.40   0
   5  -1   9  644.97   12.60   0
   5   0  20  179.14    8.76   0
   3   0  24  256.74   10.21   0
   4  -1  17  469.14   11.42   0
   5  -1  12  607.54   11.89   0
   6   0  15  107.42    8.70   0
   1  -1  11  444.25   11.48   0
   2   1  28  133.90    8.64   0
   5  -1   6 1044.67   15.21   0
   6   1  20  164.67    9.53   0
   5  -1  15  145.78    8.46   0
   2  -1  18  805.46   13.74   0
   4  -1   2 1301.13   17.69   0
   4   1  27   31.54    7.76   0
   1  -1  14 1223.85   17.24   0
   5   1  25   48.55    8.39   0
   6   0   3  327.47   10.26   0
   6   0  18  115.95    8.95   0
   7   2  11   27.96    7.32   0
   4  -1  20  391.81   10.94   0
   5  -1  18  419.63   11.34   0
   5   0  23   64.35    8.65   0
   7   1   9  169.78    9.29   0
   7   1  12  162.67    9.37   0
   3   1  29   76.67    8.44   0
   5  -1   3  345.35    9.96   0
   2   0  26  146.61    8.75   0
   7   1  15   33.02    7.04   0
   6  -1  13  185.11    8.37   0
   1  -1  17  856.92   14.59   0
   1   0  25  204.69    8.87   0
   3  -1  22  267.51    9.86   0
   6  -1   7  354.68   10.38   0
   6   0  21   99.78    8.31   0
   2  -1  21  296.12    9.80   0
   3   0  27   66.86    8.08   0
   6  -1  16  321.00   10.87   0
   7   0  10  127.33    8.83   0
   7   0  13  158.83    8.85   0
   5  -1  21  177.82    9.33   0
   7   0   7  101.38    8.15   0
   7   0  16  210.72    9.58   0
   4  -2  12 1764.62   18.23   0
   6  -1   4  731.95   13.32   0
   6  -1  19  106.56    9.25   0
   4  -2   9 1015.10   14.81   0
   4   0  28   47.35    8.11   0
   6   0  24  115.90    9.11   0
   4  -2  15  180.31    7.85   0
   5  -2  10  549.67   11.46   0
   5  -2  13  571.32   11.95   0
   7   0  19   27.71    7.49   0
   1  -1  20  640.31   12.78   0
   3  -2  11  452.71   10.41   0
   3  -2  14 1276.96   16.37   0
   3  -1  25  128.32    8.72   0
   4  -1  -1  834.32   15.42   0
   5  -2  16  626.72   12.60   0
   5  -1   0 1313.83   17.99   0
   5  -1  24  103.79    8.40   0
   7  -1  11  130.31    8.91   0
   4  -2  18  309.03    9.78   0
   5  -2   7  357.21   10.05   0
   6  -1  22  131.68    8.90   0
   2  -1  24  251.61    9.39   0
   3  -2   8 2060.72   20.51   0
   4  -2   6  732.46   12.59   0
   7  -1   8  526.07   12.13   0
   7  -1  17  115.78    8.95   0
   4  -1  26  149.93    8.85   0
   6  -2  11  329.47    9.99   0
   6  -2  14  380.38   10.66   0
   3   0  30   84.21    7.58   0
   5  -2  19   86.39    7.36   0
   6  -2  17  135.98    9.00   0
   6  -1   1  293.47    9.63   0
   7  -1  20  162.97    9.18   0
   3  -2  20  393.16   10.58   0
   7  -1   5  182.59    8.77   0
   8   0  11   53.14    7.97   0
   5  -2   4 2113.76   20.87   0
   6  -1  25   66.63    7.90   0
   1  -1  23  100.46    6.99   0
   2  -2  10 3429.52   27.24   0
   3  -2   5 2059.41   21.30   0
   5  -2  22  185.66    9.27   0
   5  -1  27   44.17    7.13   0
   6  -2  20  219.15    9.73   0
   2  -2  16  583.31   11.54   0
   0  -1  16 1505.66   20.48   0
   3  -1  28  128.10    8.42   0
   7  -2  15  137.18    8.82   0
   7  -2   9  139.06    8.43   0
   4  -2  24  248.03    9.90   0
   4  -1  29   76.15    8.06   0
   7  -2  18  127.54    8.68   0
   8  -1  12  163.61    9.06   0
   8  -1  15   35.30    7.24   0
   2  -2  19  198.22    8.41   0
   3  -2  23   94.42    7.81   0
   6  -2  23   72.47    8.41   0
   8  -1   9  156.78    8.97   0
   2  -2   7  341.05    9.82   0
   5  -2  25  128.15    8.81   0
   5  -3  14  352.42   10.30   0
   7  -2  21   66.84    7.95   0
   5  -3  11  255.72    9.11   0
   5  -3  17  371.04    9.88   0
   6  -3  12  554.20   11.76   0
   6  -3  15  146.90    8.62   0
   4  -3  13  606.39   11.52   0
   4  -3  16  774.90   13.44   0
   5  -2   1  774.47   13.84   0
   2  -2  22  555.16   12.02   0
   6  -3  18  258.21   10.33   0
   8  -2  13  145.19    8.49   0
   8  -2  16  130.80    8.38   0
   4  -3  10  859.47   13.31   0
   4  -2  27   28.58    7.30   0
   5  -3   8 1655.98   17.65   0
   5  -3  20  384.40   10.89   0
   6  -3   9  384.26    9.78   0
   8  -2  10  156.19    8.75   0
   3  -2   2 3181.05   28.08   0
   3  -2  26  195.96    8.90   0
   8  -2  19   32.12    7.17   0
   5  -2  28   74.21    8.14   0
   6  -3  21  115.47    9.07   0
   7  -3  13  134.88    7.84   0
   7  -3  16  228.29   10.14   0
   7  -2   3  384.56   10.67   0
   7  -3  19  113.83    8.54   0
   8  -2   7   85.49    8.78   0
   1  -2  15  532.77   11.81   0
   4  -3   7  667.42   12.49   0
   4  -2   0 4293.72   32.19   0
   1  -2  12 1626.47   19.77   0
   3  -3  12 1057.59   14.73   0
   4  -3  22  231.82    9.43   0
   1  -2  18  783.01   14.24   0
   2  -2  25  154.42    8.62   0
   3  -3  18  724.92   13.07   0
   5  -3   5  685.48   12.23   0
   6  -3  24  103.63    8.76   0
   7  -3   7  330.58   10.12   0
   7  -3  22  119.89    8.63   0
   8  -3  14  126.77    8.82   0
   8  -3  17   85.06    8.09   0
   3  -3   9 1316.77   16.40   0
   4  -2  30   77.67    7.62   0
   8  -3  11   85.81    8.19   0
   3  -3  21  244.78    9.02   0
   4  -3  25  136.72    8.60   0
   5  -3  26  108.03    8.40   0
   8  -3  20  112.90    8.81   0
   1  -2  21  260.91    9.56   0
   9  -2  11   23.33    6.44   0
   6  -4  16  301.59   10.14   0
   6  -3   3  436.58   10.92   0
   6  -2  -1  559.13   12.51   0
   8  -3   8  330.11   10.64   0
   4  -3   4 2765.20   23.74   0
   6  -4  13  351.02    9.83   0
   7  -3   4  489.59   11.55   0
   5  -4  15  257.79    8.87   0
   6  -4  19   74.57    8.47   0
   7  -4  17  147.11    9.12   0
   5  -4  12  837.39   13.25   0
   5  -4  18  253.67    9.07   0
   5  -2  -2  673.51   14.19   0
   6  -4  10  584.19   11.97   0
   3  -3   6 2701.94   23.79   0
   5  -3   2  703.63   13.12   0
   7  -4  11  137.46    7.84   0
   2  -3  14 1247.23   16.48   0
   6  -4  22  183.49    9.36   0
   7  -4  20  121.43    8.03   0
   2  -3  17  521.29   11.01   0
   5  -3  29   72.86    7.75   0
   9  -3  12  125.44    8.18   0
   4  -3  28   84.79    7.54   0
   5  -4   9  357.73    9.57   0
   8  -4  15   67.40    7.51   0
   8  -4  18   92.45    8.84   0
   8  -3   5  169.78    8.72   0
   4  -4  14  586.10   11.43   0
   6  -4   7  234.37    9.01   0
   7  -4  23   30.94    7.90   0
   2  -3  20  388.93   10.52   0
   9  -3   9  132.37    8.51   0
   4  -4  11  687.81   12.86   0
   4  -4  20  361.04   10.50   0
   5  -4  24  143.18    8.97   0
   6  -4  25   72.62    7.99   0
   8  -4   9  161.11    9.17   0
   5  -4   6  912.14   14.15   0
   7  -3   1  200.58    8.87   0
   6  -3   0 1016.21   15.63   0
   2  -3  23  104.64    7.35   0
   4  -4  23  118.70    7.44   0
   7  -4   5  347.67   10.40   0
   9  -4  13  108.39    8.00   0
   2  -3   8 2024.78   20.61   0
   8  -4   6  209.61    9.47   0
   3  -4  16  758.24   13.17   0
   3  -3   3  558.27   11.85   0
   5  -4  27   35.73    7.55   0
   7  -5  15   64.27    7.66   0
   7  -5  18  200.34    9.61   0
   9  -4  10   88.18    7.66   0
   6  -5  14  353.93    9.96   0
   6  -5  17  179.32    8.48   0
   7  -5  12  254.97    9.91   0
   3  -4  19  128.41    7.22   0
   6  -5  20  168.75    9.05   0
   8  -5  16  163.60    9.05   0
   4  -4  26  111.04    8.04   0
   5  -3  -1  831.54   14.76   0
   6  -5  11  199.10    9.03   0
   7  -5  21  103.25    7.80   0
   8  -5  13  134.02    8.83   0
   8  -5  19   43.63    7.68   0
   5  -5  16  401.15   11.25   0
   3  -4  22  220.33    9.13   0
   5  -4   3  837.72   14.04   0
   7  -5   9  320.54   10.54   0
   9  -4   7   62.82    8.26   0
   3  -4  10  832.77   13.28   0
   5  -5  13  193.73    8.53   0
   6  -5  23   38.07    7.95   0
   7  -4   2  589.81   12.29   0
   6  -5   8  594.76   11.69   0
   8  -4   3  169.00    8.82   0
   9  -5  14   57.12    7.62   0
   5  -5  22  146.15    8.54   0
   2  -3   5 2077.83   21.52   0
   9  -5  11   56.39    8.08   0
   1  -3  16 1036.78   15.82   0
   6  -4   1  567.85   11.72   0
   8  -5   7  120.56    8.65   0
   3  -4   7  673.34   12.19   0
   4  -5  18  261.14    9.51   0
  -8   0  -8  127.29    8.66   0
  -6   2  -5  312.36   10.52   0
  -5   0   4  945.47   14.72   0
  -4  -3   8  358.37   10.62   0
  -7   0  -1  210.55    9.12   0
  -6  -1   4  579.32   13.16   0
  -4  -5   7   55.32    8.26   0
  -2  -3  10  507.65   11.54   0
  -7  -2   1   55.28    8.96   0
  -6   0   3  234.81    9.27   0
  -8   0  -5  126.40    9.07   0
  -7   1  -2  223.95    9.84   0
  -6  -2   5  160.18    8.99   0
  -8  -1  -4  108.07    8.86   0
  -4  -4   9  141.59    8.23   0
  -6   1   2  689.04   13.46   0
  -7  -1   3  157.00    9.34   0
  -6  -3   6  106.93    8.92   0
  -6   2  -2  814.38   14.62   0
  -5   2  -1  804.15   14.79   0
  -3  -6   9  143.24    9.47   0
  -8  -1  -1   73.80    8.01   0
  -8   0  -2  173.17    9.76   0
  -5  -1   8  557.50   11.92   0
  -4  -2  10  580.72   12.63   0
  -4   1   4 2825.67   25.42   0
  -7  -2   4  169.15    9.77   0
  -5  -2   9  331.83   10.25   0
  -7   1   1  298.50   10.46   0
  -3  -5  11  100.22    8.55   0
  -8   1  -3   77.36    8.06   0
  -7   2  -3  389.23   11.08   0
  -6  -1   7  120.50    7.96   0
  -5   0   7  593.61   12.15   0
  -6   0   6  367.35   10.29   0
  -4  -5  10   82.92    8.64   0
  -6  -2   8  275.25    9.81   0
  -5  -3  10  174.12    9.44   0
  -4   0   8 1465.33   17.81   0
  -4   2   0 4279.37   33.77   0
  -3  -1  10  901.76   14.88   0
  -1  -2  10 1326.64   18.48   0
  -8   0   1   85.80    8.58   0
  -7  -1   6  135.94    9.25   0
  -8   1   0  317.46   10.85   0
  -6  -3   9   71.02    8.29   0
  -6   2   1  557.08   11.70   0
  -7  -2   7  112.80    8.90   0
  -5   1   6  888.21   14.05   0
  -7   2   0  541.73   12.09   0
  -5  -4  11   56.51    8.45   0
  -5   2   2  687.46   13.36   0
  -7   1   4  575.87   12.06   0
  -2  -2  12 1672.69   19.55   0
  -5  -1  11  185.89    9.51   0
  -6  -1  10  202.02    9.65   0
  -5  -2  12  253.92   10.10   0
  -8   0   4  206.17    9.54   0
  -4  -2  13  314.94   10.55   0
  -6   0   9  306.20    9.79   0
  -5   0  10  619.33   13.03   0
  -4  -1  12  851.07   14.45   0
  -8   2  -1  182.96    9.73   0
  -8   1   3  160.89    9.32   0
  -7  -1   9  109.70    9.04   0
  -2  -1  11  436.43   10.93   0
  -9   1  -1   77.66    8.38   0
  -6   2   4  789.34   13.95   0
  -7  -2  10  101.25    8.78   0
  -7   2   3  134.92    7.56   0
  -6   1   8  578.90   12.35   0
  -6  -3  12  143.42    8.34   0
  -4   0  11  687.38   12.93   0
  -4   2   3  806.83   14.68   0
  -5   1   9  348.46   10.45   0
  -8   2   2  181.24    9.01   0
  -5   2   5  679.08   13.10   0
  -3  -1  13  594.05   12.12   0
  -5  -4  14   49.56    8.14   0
  -9   1   2  134.99    8.08   0
  -8   1   6  137.78    9.01   0
  -6  -1  13  199.12   10.13   0
  -5  -1  14  333.50   10.85   0
  -6   0  12  397.39   10.73   0
  -5  -2  15   48.68    8.37   0
  -7  -1  12  198.67    9.50   0
  -7   0  11   78.35    8.85   0
  -6   3   0  968.02   16.09   0
  -7   2   6  443.96   10.84   0
  -5   0  13  196.72    9.64   0
  -3   1   8 2163.91   22.32   0
  -1  -2  13  469.13   11.61   0
  -6   2   7  236.48    8.70   0
  -8   2   5  140.20    8.93   0
  -7   1  10  223.23    9.92   0
  -5  -3  16  147.00    9.04   0
  -4  -1  15  254.73    9.15   0
  -4   1  10  891.29   14.32   0
  -2  -2  15  188.75    8.64   0
  -9   1   5   65.51    8.46   0
  -8   0  10  114.10    8.53   0
  -6   1  11  179.48    8.70   0
  -4  -3  17  127.98    8.94   0
  -7   3   2  564.11   12.36   0
  -5   1  12  831.09   14.27   0
  -4   0  14  599.20   12.43   0
  -5   3   1  762.38   14.44   0
  -7   2   9  339.16   10.63   0
  -6  -1  16  213.53   10.05   0
  -4  -4  18   79.23    8.13   0
  -8   2   8  294.42   10.48   0
  -7  -1  15   45.18    8.04   0
  -7   0  14  114.63    9.20   0
  -6   0  15   95.24    7.70   0
  -1  -1  12 1736.41   20.53   0
  -5  -2  18  178.33    9.62   0
  -8   0  13   71.77    7.95   0
  -6   1  14  348.96   11.35   0
  -9   2   7  105.30    8.47   0
  -5  -3  19   28.14    7.84   0
  -4  -2  19   69.63    8.13   0
  -6   3   6  685.55   12.68   0
  -5   3   4 2126.21   22.21   0
  -4   2   9 1027.50   15.48   0
  -4  -3  20  100.08    8.84   0
  -8   2  11   74.55    8.31   0
  -5   1  15  270.33    9.72   0
  -2  -3  19   65.76    7.14   0
  -2   0  13 1262.35   17.03   0
  -8   3   7  107.48    8.46   0
  -7   3   8  379.38   11.02   0
  -4   0  17  234.78    9.89   0
  -7   0  17  122.81    9.08   0
  -6  -1  19   28.29    7.39   0
  -6   0  18  167.45    9.54   0
  -6   2  13  328.28   11.15   0
  -9   2  10   91.84    7.79   0
  -7   1  16  192.07    9.40   0
  -3  -2  20  334.54   10.65   0
  -2   1   9 1177.73   16.41   0
  -8   1  15   44.05    7.45   0
  -6   3   9  394.61   10.96   0
  -3   2   7 1576.66   19.07   0
  -2  -1  17  530.94   12.09   0
  -5  -2  21  101.15    8.32   0
  -5   3   7  349.12    9.73   0
  -3  -3  21  113.46    8.17   0
  -3  -1  19  141.45    8.68   0
  -5   0  19  151.04    8.72   0
  -4   3   2 1220.36   18.07   0
  -8   3  10  180.75    9.20   0
  -7   2  15   52.68    8.87   0
  -7   3  11  135.34    8.14   0
  -4   2  12 1810.04   19.40   0
  -9   3   9   74.25    8.23   0
  -4  -1  21  137.11    9.40   0
  -1  -1  15  526.09   11.79   0
  -5   1  18  272.32   11.07   0
  -4  -2  22  158.73    9.46   0
  -1   0  11  419.65   10.46   0
  -7   4   4  467.88   11.72   0
  -6   2  16  319.63   11.28   0
  -3   0  18  746.12   13.34   0
  -7   0  20  105.31    8.54   0
  -4   3   5 1059.57   16.00   0
  -4   0  20  358.58   11.57   0
  -8   4   6  207.61    9.09   0
  -7   1  19   41.76    7.86   0
  -6   0  21   96.63    8.37   0
  -4  -3  23   31.42    7.54   0
  -8   3  13  135.83    8.94   0
  -3   2  10 1410.33   17.17   0
  -9   3  12  161.00    8.57   0
  -8   2  17   84.45    8.98   0
  -7   4   7  321.98   10.28   0
  -6   1  20  176.55    9.37   0
  -2   1  12 1734.00   18.89   0
  -6   4   5  307.80    9.96   0
  -5  -1  23   42.59    7.78   0
  -1  -2  19  257.02    9.51   0
  -7   2  18  195.87    9.73   0
  -5   0  22  155.45    8.88   0
  -3  -2  23   41.60    7.86   0
  -8   4   9  175.01    9.09   0
  -4   1  19  156.09    9.55   0
  -4   2  15  194.37    8.55   0
  -2  -1  20  380.68   10.97   0
  -3  -1  22  213.73    9.27   0
  -3   1  17  546.69   11.96   0
  -6   2  19   74.94    9.03   0
  -6   3  15  168.03    9.58   0
  -5   1  21  151.42    9.64   0
  -5   3  13  589.15   12.21   0
  -6   4   8  687.01   13.37   0
  -8   3  16  157.37    8.84   0
  -4  -1  24  141.24    9.18   0
  -7   1  22   68.50    8.27   0
  -4  -2  25   68.14    8.36   0
  -3   2  13  498.88   10.93   0
  -1  -1  18  764.01   13.86   0
  -8   4  12  273.04   10.68   0
  -9   4  11   54.51    7.96   0
  -4   3  11  344.74   10.15   0
  -6   1  23   41.52    9.02   0
  -5   4   3  326.45    9.89   0
   0  -2  17  242.47    9.30   0
  -7   2  21   84.51    9.18   0
  -2   1  15  550.64   11.36   0
  -6   4  11  317.03   10.67   0
  -5   2  20  405.40   12.27   0
  -4   2  18  331.03   10.90   0
  -5   4   6 1087.83   16.02   0
  -6   3  18  276.90   11.01   0
  -2  -2  24  220.53    9.51   0
  -2   2   8 2865.65   25.01   0
  -9   4  14   54.60    7.36   0
  -8   4  15   78.67    8.45   0
  -6   2  22  186.65   10.79   0
  -3   1  20  419.84   11.05   0
  -5   1  24  152.16   10.02   0
  -7   3  20  125.40    9.34   0
  -5   4   9  656.59   12.33   0
  -4   3  14  669.41   13.01   0
  -3  -2  26   93.16    8.35   0
  -3  -1  25  124.95    9.15   0
  -3   2  16 1122.67   15.33   0
  -2  -1  23   91.08    8.22   0
  -1  -2  22  253.80    9.34   0
  -6   4  14  411.36   11.82   0
  -1   1  10 1482.98   18.40   0
  -7   4  16  250.93   10.53   0
  -1   0  17  836.40   14.01   0
  -3   0  24  166.82    9.72   0
  -4  -1  27   36.86    7.62   0
  -5   3  19   74.90    9.11   0
  -4   0  26  108.89    8.99   0
  -2   1  18  829.78   13.50   0
  -2   2  11 1790.14   18.91   0
  -1  -1  21  272.77    9.63   0
  -6   3  21  146.34    9.94   0
  -5   2  23   55.24    9.68   0
  -5   4  12  587.13   11.81   0
  -4   2  21  355.62   10.86   0
  -3   3   9  489.78   10.68   0
  -2   0  22  580.63   12.51   0
   0  -1  16 1538.62   19.02   0
  -8   4  18   84.11    8.57   0
  -8   5  11   90.58    8.30   0
  -7   5   9  144.55    8.47   0
  -6   2  25   82.09    9.34   0
  -3   2  19  281.76   10.00   0
  -1   1  13 1131.06   15.71   0
  -7   3  23   44.17    8.47   0
  -3   3  12 1516.04   17.28   0
  -8   5  14  136.45    8.53   0
  -2   2  14 1030.37   14.42   0
  -6   5   7  345.01   10.41   0
  -4   4   7  288.37    9.23   0
  -4   4   4 1401.67   18.48   0
  -2  -1  26  208.94    9.71   0
  -1   0  20  675.21   13.08   0
  -5   3  22  192.11    9.66   0
  -3  -1  28   89.26    8.57   0
  -6   5  10  448.34   11.52   0
  -4   2  24  245.32   10.93   0
  -4   4  10 1165.62   15.99   0
  -7   5  15  161.63    9.62   0
  -6   4  20  204.96   10.99   0
  -5   2  26  116.67    9.83   0
  -3   0  27   57.46    8.39   0
  -3   3  15  523.24   11.63   0
  -8   5  17  114.47    8.96   0
  -7   4  22  101.57    9.33   0
  -4   0  29   42.89    7.70   0
  -2   0  25  150.25    9.10   0
  -1   1  16 1551.90   17.58   0
   0  -1  19  220.85    8.67   0
  -6   5  13  200.58    9.40   0
  -2   2  17  270.12    8.84   0
  -1  -1  24  259.98    9.71   0
  -4   1  28  100.30    8.94   0
  -3   1  26  225.73   10.38   0
   0   0  15  147.03    7.55   0
  -7   5  18  134.65    9.20   0
  -6   5  16  341.69   11.20   0
  -6   4  23   77.33    9.42   0
  -4   4  16  430.08   10.70   0
  -6   3  27   28.52    8.58   0
  -5   4  21  178.03   10.24   0
  -5   5   8  621.43   12.57   0
  -4   3  23   76.79    8.19   0
  -2   1  24  282.40   10.19   0
  -1   0  23   90.38    7.72   0
  -4   2  27   17.73    8.50   0
  -5   5  11  213.16    8.27   0
  -2   2  20  663.05   12.44   0
  -5   2  29   69.62    8.57   0
  -3   2  10 1418.81   17.70   0
  -2   1   9 1155.73   16.60   0
  -8   6   7   99.62    9.62   0
  -8   1  15   48.80    7.84   0
  -8   5  11  108.50    8.75   0
  -7   4  13  139.61    8.98   0
  -5   3  13  592.73   13.37   0
  -3   4   2 1259.21   19.17   0
  -4   3  11  367.60   10.32   0
  -6   2  16  298.33   11.15   0
  -6   3  15  163.78    9.27   0
  -9   4  14   67.51    8.75   0
  -6   1  17  168.67    9.86   0
  -9   7   5  126.37    9.43   0
  -8   3  16  170.92   10.02   0
  -8   4  15   83.61    9.67   0
  -7   0  17   97.44    8.92   0
  -4   5   3  341.52   10.88   0
  -8   6  10  167.01   10.10   0
  -6   4  14  387.28   11.78   0
  -5  -1  17  160.20    9.62   0
  -3   3   9  509.80   11.59   0
  -3   1  14 1215.35   16.26   0
  -2   2   8 2956.63   26.00   0
  -7   3  17  148.39    9.14   0
  -6   0  18  142.65    9.07   0
  -4   2  15  182.01    8.42   0
  -8   5  14  144.36   10.71   0
  -4   0  17  190.51    9.18   0
  -8   7   6  158.56    9.85   0
  -7   4  16  241.49   11.30   0
  -5   2  17  366.97   10.73   0
  -5   1  18  244.35    9.63   0
  -3   2  13  523.81   12.00   0
  -3   4   5 1066.85   16.76   0
  -9   6  12  122.62    9.26   0
  -9   7   8  128.53    9.71   0
  -5   3  16  652.37   13.72   0
  -7   1  19   27.57    7.92   0
  -4   3  14  674.86   13.70   0
  -3  -1  16  739.46   14.07   0
  -6   3  18  261.99   11.50   0
  -2   1  12 1709.87   19.25   0
  -7   5  15  166.66   11.45   0
  -5   6   4  742.47   14.69   0
  -4   5   6 1091.27   16.78   0
  -8   3  19   43.59    8.62   0
  -8   6  13  159.10   10.85   0
  -5   5  11  223.00   10.26   0
  -4  -1  18  265.33    9.87   0
  -8   4  18   99.34    8.99   0
  -6   1  20  154.59    9.71   0
  -8   7   9  169.51    9.90   0
  -6   4  17  144.59   10.39   0
  -5   4  15  166.85    9.12   0
  -8   5  17   99.04    9.84   0
  -7   7   7  109.81    9.25   0
  -3   3  12 1556.70   18.28   0
  -9   7  11   26.86    7.96   0
  -7   3  20  118.94    9.35   0
  -4   4  13  704.92   14.06   0
  -2   2  11 1890.46   20.36   0
  -7   2  21   96.33    9.16   0
  -7   4  19  117.86    9.65   0
  -4   1  19  136.97    7.97   0
  -4   2  18  323.95   10.14   0
  -3   4   8 1957.62   20.88   0
  -7   6  14  137.85   10.64   0
  -5   2  20  332.20   11.15   0
  -5   6   7  371.64   11.25   0
  -2  -2  15  163.75    8.30   0
  -6   5  16  323.44   11.38   0
  -6   6  12  531.10   13.26   0
  -5   1  21  138.33    9.17   0
  -5   3  19   84.62    8.32   0
  -4   0  20  345.13   11.09   0
  -4   5   9  696.68   13.70   0
  -3   2  16 1086.53   15.99   0
  -1  -1  12 1688.17   20.86   0
  -7   5  18  143.64   11.03   0
  -4   3  17  443.50   11.41   0
  -7   1  22   83.94    8.47   0
  -7   7  10  130.23    9.79   0
  -6   3  21  136.94   10.31   0
  -6   2  22  155.69    9.53   0
  -2   0  16  582.68   11.88   0
  -5   4  18  413.01   12.66   0
  -2   1  15  546.83   11.51   0
  -6   4  20  207.44   10.13   0
  -5   0  22  129.70    9.07   0
  -3  -1  19  128.65    8.23   0
  -8   5  20  115.52    9.49   0
  -5   6  10  460.50   12.23   0
  -6   1  23   30.81    8.36   0
  -3   3  15  528.85   11.58   0
  -2  -1  17  528.04   12.26   0
  -1   1  10 1490.28   18.60   0
  -4   4  16  451.06   12.27   0
  -7   4  22   90.77    9.30   0
  -7   6  17  136.05   10.02   0
  -6   7   8  516.20   12.96   0
  -6   6  15  113.54    8.81   0
  -4   5  12  624.88   12.70   0
  -2   2  14 1049.06   15.08   0
  -2   3  10 1395.88   17.43   0
  -8   7  15   27.81    9.07   0
  -7   7  13  182.29   10.17   0
  -6   5  19  113.84   10.59   0
  -4   2  21  302.03   11.00   0
  -4   1  22  215.16   10.02   0
  -7   5  21   68.75    9.55   0
  -5   3  22  198.36   10.34   0
  -5   5  17  252.49   10.02   0
  -4   3  20  407.26   11.29   0
  -3   2  19  275.14    9.42   0
  -3   0  21  252.82    9.83   0
  -6   3  24  103.72    9.12   0
  -6   7  11  132.88    9.82   0
  -5   1  24  146.31    9.06   0
  -5   4  21  177.48   10.83   0
  -4   0  23  108.03    8.54   0
  -4   6   5  292.36   10.37   0
  -6   2  25   79.69    8.66   0
  -6   4  23   82.96    9.52   0
  -3   4  14  644.83   12.59   0
  -1  -1  15  536.47   12.08   0
  -3   3  18  496.34   11.87   0
  -2   0  19  215.39    8.93   0
  -2   1  18  780.22   13.43   0
  -4   4  19   87.66    9.16   0
  -3   5   7  341.97   10.47   0
  -1   1  13 1117.77   15.98   0
  -2   3  13  497.43   11.18   0
  -1   2   9 1171.79   16.51   0
  -4   6   8  693.56   13.85   0
  -6   5  22  138.84   10.35   0
  -5   0  25   48.01    7.37   0
  -3  -1  22  227.71    9.40   0
  -2   2  17  255.98    8.94   0
  -5   5  20  162.90   10.48   0
  -6   7  14  135.27    9.47   0
  -5   6  16  332.77   11.60   0
  -2  -1  20  388.89   10.93   0
  -3   5  10  544.76   12.32   0
  -5   2  26   89.52    9.17   0
  -5   3  25  121.21    9.86   0
  -4   1  25  135.39    9.35   0
  -4   3  23   79.74    9.24   0
  -3   1  23  106.15    8.68   0
  -1  -2  16 1025.48   16.92   0
  -4   6  11  333.58   10.66   0
  -3   2  22  270.01    9.72   0
  -3   4  17  478.14   11.70   0
  -2   4   9 1007.06   15.59   0
  -1   0  17  822.61   13.94   0
  -1   2  12 1805.48   19.18   0
  -7   7  19   39.55    9.10   0
  -6   4  26   87.84    9.70   0
  -3   0  24  175.84    9.14   0
  -3   3  21  202.90    9.57   0
  -2   3  16 1125.97   15.42   0
  -5   1  27   39.52    8.04   0
  -4   4  22  342.88   10.91   0
  -3   5  13  563.21   12.44   0
  -6   7  17  135.21   10.08   0
  -4   0  26  113.73    8.81   0
  -2   0  22  577.96   12.68   0
  -6   5  25   69.15    9.36   0
  -5   6  19  113.59    9.91   0
  -5   7  12  376.08   11.33   0
  -2   2  20  703.65   12.90   0
  -5   5  23   52.83    9.23   0
  -4   6  14  381.33   10.71   0
  -3   4  20  407.91   11.05   0
  -1   2  15  565.36   11.43   0
  -4   2  27   28.11    7.52   0
  -4   3  26  158.49   10.08   0
  -3   5  16  628.80   13.13   0
  -2  -1  23  119.29    7.96   0
  -2   3  19  296.28    9.50   0
   0  -1  13 1067.65   16.55   0
  -5   4  27   24.54    8.77   0
  -5   7  15  160.79    9.56   0
  -3   1  26  208.31   10.10   0
   0   0  12 4347.86   30.73   0
  -6   7  20  174.38   10.12   0
  -5   2  29   70.54    8.40   0
  -4   1  28  102.92    8.77   0
  -4   6  17  154.83    9.59   0
  -3   3  24  275.98   10.79   0
  -2   4  15  173.26    8.06   0
  -1   0  20  676.21   13.08   0
  -1   1  19  231.58    8.85   0
  -4   4  25  122.37    9.18   0
  -1   3  11  448.70   10.96   0
  -2   1  24  271.50   10.09   0
  -2   2  23  216.27    9.79   0
  -5   5  26  112.97    9.79   0
  -1  -1  21  267.40    9.58   0
  -1   2  18  821.88   13.38   0
  -5   7  18  114.56    9.25   0
  -3   4  23   79.05    7.83   0
  -2   0  25  156.77    8.95   0
  -4   5  24  107.45    9.74   0
  -3   6   9  386.26   11.28   0
  -2   4  18  351.16   10.78   0
  -1   3  14 1232.26   15.93   0
   0  -2  14  971.42   16.68   0
  -4   6  20  212.53    9.31   0
   0  -1  16 1558.88   18.68   0
  -4   3  29   79.07    8.59   0
  -3   6  12  548.01   12.43   0
  -4   2  30   65.55    8.17   0
  -3   2  28  144.36    9.73   0
  -2   5   8 1691.32   20.06   0
  -4   4  28   61.50    9.42   0
  -3   3  27   49.32    9.10   0
  -2   5  11  258.63    9.45   0
  -1   0  23   94.02    7.90   0
  -4   7  13  125.43    8.64   0
  -3   1  29   76.65    7.96   0
  -2   5   5  652.81   13.90   0
  -1   3  17  553.15   11.81   0
  -5   7  21   68.03    9.09   0
  -1   2  21  296.26   10.18   0
  -3   5  22  204.03    9.35   0
  -3   6  15  174.68    9.13   0
  -2   1  27   63.66    8.60   0
  -2   2  26  152.24    9.71   0
  -3   4  26  169.50    9.97   0
  -2   4  21  345.17   10.48   0
  -2   5  14  353.59    9.97   0
  -4   6  23   71.97    8.98   0
  -4   7  16  232.94    9.97   0
  -1  -1  24  270.03    9.78   0
   0  -2  17  250.77    9.26   0
   0   1  17  897.30   13.68   0
   0   2  10 3370.29   26.17   0
   0  -1  19  222.33    8.16   0
   0   2   7  328.77    9.95   0
  -3   6  18  268.49   10.65   0
  -2   0  28   72.25    8.10   0
  -1   3  20  412.00   11.26   0
  -1   4  10  867.70   14.27   0
   0   2  13 1236.49   16.33   0
  -2   5  17  373.18   10.39   0
  -1   1  25  216.77    9.70   0
  -1   2  24  282.82   10.45   0
  -4   7  19  110.08    8.87   0
  -3   2  31   20.18    7.69   0
  -3   3  30   79.07    8.78   0
  -3   5  25  144.10    9.03   0
  -2   4  24  244.78   10.73   0
  -1   0  26  247.14    9.86   0
   0   2  16  620.94   12.35   0
   0   0  21  636.80   12.10   0
   0   1  20  677.46   12.74   0
  -3   4  29   67.28    8.68   0
  -3   6  21  135.65    9.65   0
  -3   1  32   43.96    7.14   0
  -2   1  30  104.67    8.75   0
  -2   3  28  151.52    9.89   0
  -1   3  23  108.91    8.60   0
   0  -2  20  678.34   13.88   0
   0  -1  22  366.20   10.52   0
   0   2  19  213.03    8.32   0
  -4   7  22   97.18    9.23   0
  -1  -1  27   69.63    7.79   0
  -3   5  28   74.51    9.71   0
  -2   4  27   28.59    8.88   0
  -1   1  28  155.51    9.31   0
  -1   2  27   77.90    8.57   0
   0   3  12  972.13   14.67   0
  -3   6  24  117.16    9.40   0
  -2   0  31   44.30    7.58   0
  -2   5  23   37.76    7.29   0
   0   0  24  373.67   10.94   0
   0   3  15  303.47    9.01   0
  -2   6  10  569.49   12.98   0
  -2   6  13  325.47   10.52   0
  -1   4  22  240.78   10.11   0
   1  -1  14 1236.68   16.99   0
   1   0  13 1132.60   15.60   0
  -2   6  16  299.00   10.43   0
  -1   0  29  115.78    8.64   0
  -1   3  26  224.27    9.48   0
   1   0  10 1473.17   18.42   0
  -3   7  17  140.36   10.05   0
   0   3  18  759.21   13.75   0
   1   0  16 1617.41   18.05   0
  -2   2  32   83.29    8.20   0
  -2   3  31   30.26    8.42   0
   0  -1  25  230.63    9.38   0
   1  -1  17  871.85   14.32   0
  -1   5  12  816.17   14.11   0
  -2   5  26  118.48    9.35   0
  -2   6  19   83.76    8.34   0
  -1   5  15  267.34    9.84   0
   1   1  12 1846.62   19.57   0
   1   1  15  574.37   11.41   0
  -3   7  20  118.05    8.88   0
  -1   4  25  155.71    9.77   0
  -1   5   9  350.99   10.43   0
  -1   5  18  282.05   10.48   0
   0   0  27   34.55    7.66   0
   0   2  25  159.41    8.50   0
   1  -2  15  552.75   12.63   0
  -1   1  31   32.56    8.26   0
   1  -1  20  690.98   13.16   0
   1   1   9 1218.08   16.49   0
  -2   6  22  184.87    9.69   0
  -1   3  29   73.52    9.18   0
  -3   7  23   46.18    8.93   0
   1  -2  18  800.98   14.48   0
   1   0  22  383.14   10.81   0
   0   3  24  179.25    8.90   0
   0   4  14  570.77   11.63   0
   1   1  21  285.65    9.46   0
  -2   5  29   84.40    8.72   0
  -1   0  32   55.38    7.45   0
   0  -1  28  151.31    9.44   0
   0   4  11  647.82   12.65   0
   1   2  14 1267.88   15.99   0
  -1   4  28  110.64    9.26   0
   0   1  29  120.66    9.24   0
   1   2  11  457.35   10.91   0
   1   2  17  554.77   11.51   0
  -2   6  25   89.12    9.15   0
   0   2  28   90.35    8.76   0
   1  -1  23   91.97    7.73   0
   0   4  20  376.11   10.66   0
   0   0  30  120.30    9.28   0
   1  -2  21  276.27    9.67   0
   1   2  20  428.66   10.67   0
   1   0  25  221.06    9.55   0
   1   1  24  274.25    9.58   0
  -1   3  32   35.52    8.09   0
   0   3  27   66.60    9.31   0
   0   4   8 1399.24   17.94   0
   0   4  23  111.76    9.38   0
   1   2   8 2012.43   20.59   0
   1   2  23  113.24    8.94   0
  -3   6   9  375.83   10.95   0
  -7   9  11   40.28    9.10   0
  -5   6  16  347.66   12.64   0
  -4   7  10  392.61   12.63   0
  -7   8  15   29.97   10.51   0
  -1   4   4 2644.81   26.29   0
  -6   6  18  115.50    9.55   0
  -4   6  14  402.92   12.27   0
  -3   5  13  578.20   13.27   0
  -2   5   8 1735.01   20.02   0
  -6   9   9  164.94   10.36   0
  -5   3  19   78.62    8.56   0
  -3   2  16 1066.95   16.27   0
  -1   2   9 1178.31   16.86   0
  -6   4  20  203.21   10.78   0
  -2   3  13  522.51   11.94   0
  -8   5  20   93.87    8.69   0
  -6   7  17  133.11   11.19   0
  -5   8  11   96.17   10.22   0
  -1   3   8 1982.33   21.27   0
  -4   2  18  301.59    9.70   0
  -4   8   6  215.90   10.55   0
  -2   2  14 1093.88   15.62   0
  -2   4  12 1746.02   19.38   0
  -2   6   4  803.27   15.17   0
  -1   1  10 1467.77   19.37   0
  -7   5  21   65.35    8.79   0
  -7   7  19   18.04    9.17   0
  -4   4  19  109.35    8.79   0
  -4   5  18  390.47   12.01   0
  -6   3  21  114.35    8.90   0
  -6   9  12  140.27   10.50   0
  -5   5  20  167.87    9.90   0
  -3   7   8  380.02   11.58   0
  -1   4   7  642.35   13.18   0
  -5   6  19  103.98   10.01   0
  -3   0  15  276.79    9.99   0
  -3   4  17  449.60   11.49   0
  -2   0  13 1168.03   17.99   0
  -5   4  21  169.48   10.05   0
  -4   8   9  170.33    9.52   0
  -3   1  17  534.81   12.44   0
  -3   3  18  473.89   12.07   0
  -7   4  22   84.50    8.63   0
  -5   8  14  150.85   10.52   0
  -4   3  20  386.70   11.60   0
  -4   6  17  132.21    9.28   0
  -3   5  16  631.27   13.71   0
  -2   6   7  266.63   10.01   0
  -6   5  22  110.07   10.11   0
  -6   6  21  104.53    9.62   0
  -2   1  15  533.45   12.06   0
  -5   7  18  126.68   10.87   0
  -1   2  12 1779.97   19.79   0
  -1   3  11  443.65   10.71   0
  -5   9  10   86.34    9.99   0
  -4   1  19  137.92    8.90   0
  -2   3  16 1146.54   15.71   0
  -5   3  22  187.83   10.04   0
  -2   4  15  184.39    8.43   0
  -6   4  23   67.20    8.51   0
  -3   2  19  282.94    9.52   0
  -3   7  11  134.64    9.17   0
  -4   8  12  269.54   11.65   0
  -2   2  17  246.75    9.64   0
  -4   2  21  317.77   10.78   0
  -2   5  14  362.12   11.28   0
  -2   6  10  586.40   12.72   0
  -4   5  21  180.00    9.50   0
  -1   1  13 1145.38   16.50   0
  -1   5   6  889.92   15.61   0
  -5   5  23   55.57    8.86   0
  -5   8  17   98.77   10.58   0
  -5   6  22  135.87    9.35   0
  -4   6  20  202.80   10.91   0
  -3   4  20  408.38   11.12   0
  -5   9  13  103.86    9.14   0
  -3   5  19   65.26    8.03   0
  -6   6  24  101.83    9.21   0
  -5   4  24  108.08    8.94   0
  -5   7  21   70.70    9.48   0
  -3   7  14  325.46   11.52   0
  -1   3  14 1235.47   16.18   0
   0   2   7  330.67    9.97   0
  -4   3  23   59.31    8.39   0
  -6   5  25   68.15    8.34   0
  -4   8  15   81.80    8.97   0
  -3   6  18  255.70   11.29   0
  -2   6  13  337.86   11.26   0
  -1   2  15  563.79   11.68   0
  -1   5   9  365.56   10.84   0
  -4   7  19  112.60    9.49   0
  -3   1  20  382.52   11.08   0
  -2   0  16  602.42   12.93   0
  -2   1  18  813.31   14.25   0
  -2   3  19  271.94    9.49   0
  -1   4  13  575.59   11.92   0
   0   3   6 2517.59   24.88   0
  -2   5  17  391.78   10.86   0
  -5   3  25  125.16    9.03   0
  -3   2  22  270.79   10.21   0
  -3   8  10  183.99    9.66   0
  -4   5  24  103.00    9.96   0
   0   2  10 3366.03   26.52   0
  -5   6  25   57.60    8.90   0
  -4   6  23   68.13    8.64   0
  -3   4  23   72.47    8.73   0
  -3   5  22  187.95   10.76   0
  -3   7  17  153.61    8.97   0
  -1   0  14 1260.15   17.76   0
  -1   5  12  826.20   14.10   0
  -5   5  26  101.39    9.26   0
  -4   2  24  236.97    9.91   0
  -4   4  25  106.07    8.79   0
  -4   8  18  100.12   10.02   0
  -2   6  16  298.39   10.99   0
  -1   3  17  543.95   12.18   0
  -1   4  16  814.94   14.40   0
  -3   6  21  134.78    9.82   0
  -3   8  13  146.67   10.29   0
  -4   7  22   98.15    9.70   0
  -3   3  24  272.45   10.90   0
  -2   4  21  336.54   10.52   0
  -5   4  27   25.32    8.39   0
  -2   7  12  260.04   10.57   0
   0   4   5  381.65   11.04   0
  -2   3  22  280.67    9.80   0
  -2   5  20  340.15   10.81   0
  -1   6   8  572.20   12.91   0
  -4   3  26  130.00    9.47   0
   0   2  13 1209.57   16.43   0
   0   3  12  996.60   14.57   0
   0   4   8 1423.67   18.41   0
  -3   7  20  127.34   10.05   0
  -3   1  23   95.66    7.85   0
  -2   0  19  211.39    8.83   0
  -3   8  16  158.55    9.39   0
  -1   6  11  189.22    9.24   0
  -4   5  27   25.99    8.40   0
  -4   6  26   75.92    9.15   0
  -3   2  25  138.70    9.21   0
  -3   5  25  137.02    9.78   0
  -2   2  23  194.36    8.72   0
  -2   7  15   66.06    8.53   0
  -1   1  19  220.89    9.15   0
  -1   3  20  423.00   11.64   0
  -1   4  19  136.85    8.81   0
  -3   4  26  147.88    9.98   0
   0   1  14 1302.87   16.49   0
   0   4  11  655.50   12.52   0
  -3   6  24  121.29    9.54   0
  -1   0  17  831.28   14.40   0
  -4   4  28   48.80    8.23   0
   0   3  15  291.19    9.77   0
  -2   4  24  226.58    9.71   0
  -2   5  23   39.84    9.05   0
  -1   2  21  296.23   10.21   0
   0   2  16  625.01   12.51   0
  -1   6  14  344.51   11.16   0
  -3   3  27   50.38    8.36   0
  -3   8  19   47.66    9.17   0
  -2   7  18  212.37   10.17   0
   0   5   7  589.87   12.84   0
  -4   3  29   70.68    9.10   0
  -1   4  22  230.22   10.30   0
   0   1  17  871.56   14.18   0
  -2   1  24  265.93   10.04   0
  -1   3  23  113.15    9.00   0
  -1   6  17  172.55   10.08   0
   0   3  18  736.60   13.45   0
  -3   5  28   59.67    8.97   0
  -2   0  22  578.36   13.14   0
  -2   2  26  156.67    9.15   0
  -1   1  22  364.75   10.02   0
  -1   5  21  151.22    8.55   0
   0   2  19  220.19    9.40   0
   0   4  17  224.52    9.67   0
  -3   6  27   22.08    8.48   0
  -1  -1  15  534.12   12.92   0
   0   5  13  197.38    9.14   0
  -3   2  28  121.15    9.81   0
  -3   4  29   71.16    8.57   0
  -2   5  26  101.04    9.57   0
  -1   0  20  641.67   12.43   0
  -2   4  27   34.86    7.91   0
  -2   7  21  103.18    8.90   0
   1   2   8 1989.70   20.81   0
  -1   7  13  189.10    9.51   0
   1   2  11  441.78   10.61   0
  -2   3  28  130.71    9.23   0
  -2   6  25   81.99    8.48   0
  -1   6  20  134.41    9.84   0
   0   1  20  662.91   12.92   0
   0   5  16  420.03   11.67   0
   1   1   9 1162.13   16.23   0
  -1   4  25  136.70    9.48   0
   0   3  21  271.37    9.60   0
  -3   3  30   85.97    8.83   0
   0   4  20  373.21   10.39   0
   1   1  12 1813.30   19.38   0
   1   3   7  673.35   13.16   0
   1   3  10  838.43   13.74   0
  -1   3  26  213.14   10.43   0
   0   0  18  520.11   11.16   0
   1   2  14 1190.57   15.56   0
  -1   7  16  209.04    9.64   0
  -2   1  27   69.30    8.07   0
  -1   1  25  219.95    8.89   0
  -1  -1  18  791.38   14.76   0
   0   5  19  146.47    8.36   0
   1   1  15  559.15   11.27   0
  -2   2  29   66.43    8.23   0
  -2   5  29   69.16    8.63   0
  -1   0  23   96.00    7.49   0
  -1   2  27   87.97    8.56   0
  -1   6  23   39.52    8.36   0
   0  -1  13 1098.16   17.09   0
   1   2  17  550.23   12.01   0
   1   3  16  804.13   13.85   0
  -2   4  30   69.24    8.43   0
  -1   7  19   31.41    7.66   0
   0   3  24  169.45    8.74   0
   0   4  23  120.07    9.62   0
   1   0  10 1502.01   18.75   0
   1   4   9  343.60   10.30   0
   1   4  12  816.11   14.14   0
   0   6  15   87.76    8.53   0
  -1   4  28  105.70    9.06   0
   0   0  21  653.54   12.80   0
   1   0  13 1146.37   15.60   0
   1   1  18  848.59   13.73   0
  -2   3  31   36.27    8.32   0
  -1   5  27   42.29    8.54   0
   0   2  25  162.22    9.40   0
   1   4  15  256.99    9.10   0
   0  -1  16 1577.26   19.43   0
   1   2  20  393.08   11.00   0
   0   6  18  156.31    9.11   0
   1   0  16 1631.59   17.98   0
  -1   7  22   77.94    8.10   0
  -1   1  28  155.37    9.11   0
   0   3  27   71.40    8.50   0
   0   4  26  125.68    8.96   0
  -1   0  26  233.49    9.69   0
  -1   2  30  113.09    9.01   0
   0   1  26  241.34    9.55   0
   1   3  22  229.54    9.75   0
   0  -1  19  229.32    8.86   0
   0   5  25   61.45    8.70   0
   0   6  21  109.04    8.67   0
   1   5  11  192.59    8.72   0
   1   5  14  342.47   10.84   0
  -2   2  32   68.07    7.58   0
   0   0  24  376.23   10.19   0
   1   2  23  114.02    7.78   0
   1   5  17  177.51    9.33   0
  -1   3  32   41.10    8.34   0
   2   2  12 1678.76   18.41   0
   1   1  24  274.79    9.44   0
   2   1  13  504.24   11.05   0
   2   2  15  195.49    8.09   0
   0   4  29   36.78    8.31   0
   0   6  24   89.68    8.17   0
   1  -1  14 1226.71   16.73   0
   1   0  22  375.92   10.61   0
   1   3  25  140.51    8.52   0
   1   5  20  154.69    9.71   0
   0   3  30  100.29    8.92   0
   1   4  24  162.46    9.38   0
   2   1  10 1382.92   16.75   0
   2   1  16 1086.94   14.83   0
   2   3  14  364.46   10.47   0
   0  -1  22  375.36   10.54   0
   1   2  26  201.11    9.42   0
   2   2  18  321.64    9.68   0
   2   3  11  261.35    9.37   0
  -1   1  31   25.19    7.64   0
   0   1  29  125.81    8.91   0
   1  -1  17  848.65   14.08   0
   0   0  27   31.50    7.00   0
   2   1  19  279.36    9.88   0
   0   2  31   40.57    7.86   0
   1   5  23   47.24    7.91   0
   2   0  14 1065.44   14.60   0
   2   2  21  333.02   10.62   0
   2   3   8 1716.45   19.68   0
   2   0  11 1871.71   19.30   0
   2   0  17  271.80    9.32   0
   2   1   7 1550.46   18.35   0
   2   3  20  385.99   10.55   0
   1  -1  20  651.28   12.30   0
   1   0  25  233.93    9.63   0
   1   3  28  112.47    9.17   0
   2   2   6  715.63   12.98   0
   2   4  13  322.85   10.33   0
   1   4  27   52.40    7.62   0
   2   1  22  289.97   10.14   0
   2   4  16  312.28   10.36   0
   1   2  29   84.62    8.88   0
   1   6  19   38.81    8.40   0
   0  -1  25  230.72    9.24   0
   2   0  20  694.80   12.35   0
   2   4  10  553.01   12.24   0
   2   4  19   75.72    8.32   0
   2   2  24  256.36    9.50   0
   2   3  23   31.67    6.86   0
   2   0   8 2920.39   24.87   0
  -1   4  22  220.33   10.16   0
   1   6  16  225.66   10.58   0
  -1   7  22   88.78    9.85   0
   2   4  13  336.06   10.93   0
   1   4  18  276.04   10.74   0
   2   1   4 3227.77   28.63   0
   0   1  14 1208.80   16.89   0
   0   6  21  118.57    9.73   0
   2   6  11   83.04    8.88   0
  -2   3  22  273.57   10.31   0
  -2   6  25   58.16    8.72   0
   0   7  20  124.24    9.58   0
   1   1  12 1828.38   19.85   0
   2   3  14  378.51   11.27   0
  -2   4  24  223.93   10.70   0
   0   5  22  154.86   10.05   0
   2   2  12 1757.83   18.95   0
   3   3   3  407.27   11.35   0
   3   4   2  576.38   13.60   0
  -1   5  24  153.68    9.89   0
   2   1   7 1634.47   19.23   0
   3   4   5  333.28   10.87   0
   2   5  15   64.98    9.07   0
   3   3   6  709.68   13.73   0
   0   3  21  248.49    9.37   0
   1   3  19  136.46    9.26   0
   1   6  19   35.84    8.65   0
   0   2  19  199.42    8.35   0
   1   2  17  531.26   11.48   0
   1   5  20  143.15    9.24   0
   2   4  16  289.81   10.21   0
   3   4   8  384.33   11.60   0
  -1   1  16 1539.91   20.23   0
   2   6  14  129.80    9.38   0
   2   7  10  103.10    8.56   0
  -2   5  26   90.63    8.72   0
   3   2   4 2167.33   22.46   0
   3   3   9  371.35   10.33   0
  -1   3  23  117.44    8.22   0
   1   4  21  150.85   10.20   0
   2   1  10 1411.39   17.38   0
   3   2   1  751.04   14.92   0
   3   5   7  121.07    8.88   0
   2   2  15  183.86    8.80   0
   2   3  17  410.85   11.69   0
   3   2   7  356.44   10.44   0
  -1   4  25  144.16    9.45   0
   3   4  11  130.71    9.21   0
  -1   2  21  281.08    9.93   0
   0   6  24   83.87    8.86   0
   1   1  15  552.41   11.52   0
   3   5  10  185.95   10.10   0
   2   5  18  206.68   10.11   0
   0   1  17  865.42   14.54   0
   3   2  10  560.27   12.10   0
   1   6  22  101.08    9.66   0
   2   4  19   73.27    7.97   0
   2   1  13  514.06   11.08   0
   1   3  22  225.07   10.30   0
   1   5  23   46.40    8.26   0
   3   5  13  147.91    9.71   0
  -1   5  27   40.01    8.70   0
   3   6   9   74.21    7.75   0
   0   3  24  151.10    8.47   0
   2   2  18  339.00   10.73   0
   3   3  15  148.96    9.29   0
   0   2  22  567.68   12.65   0
   2   3  20  371.77   11.62   0
   3   2  13  564.96   11.64   0
   1   0  10 1481.40   19.18   0
   1   4  24  162.65    9.62   0
   3   1   5 1016.57   15.21   0
   0   4  26  107.86    9.21   0
   2   5  21   98.38    9.23   0
   3   1   8 1996.04   20.15   0
   3   6  12  154.91    8.96   0
   3   1   2 1259.71   18.01   0
   3   4  17  133.08    9.67   0
   3   5  16  153.95    9.93   0
  -1   1  19  225.27    9.01   0
   2   1  16 1094.68   15.52   0
   2   4  22  173.83   10.08   0
  -1   3  26  217.15    9.85   0
   3   1  11  348.08   10.03   0
   3   2  16  634.28   13.08   0
  -1   4  28   81.51    9.26   0
   0   1  20  654.84   13.06   0
   2   0   8 3004.31   25.87   0
   3   3  18  265.29    9.69   0
   4   3   7  305.30   10.09   0
   4   3   4  470.18   11.94   0
   4   4   6  197.33    9.25   0
   1   2  23  108.62    8.24   0
   1   3  25  140.87    9.23   0
   2   2  21  343.67   10.68   0
   4   3  10  380.75   11.11   0
   4   4   9  173.82    9.30   0
   2   3  23   31.56    8.33   0
   3   1  14  651.30   12.48   0
   2   0  11 1901.42   19.74   0
   3   4  20  105.51    9.04   0
   4   2   5  309.62   10.11   0
   4   2   8  674.67   12.63   0
   4   3  13  122.54    9.00   0
   4   4  12  277.54   11.03   0
   0   3  27   67.47    8.17   0
   1   4  27   41.35    8.57   0
   2   1  19  287.24    9.88   0
   4   2  11  324.47    9.63   0
   0   2  25  161.55    9.03   0
   1   1  21  283.50    9.78   0
   3   2  19   92.36    7.75   0
   0   0  15  152.98    7.27   0
   2   4  25   75.24    9.19   0
   3   3  21  134.52    8.86   0
   4   2   2  799.52   14.53   0
   4   5  11   51.64    7.40   0
   0   4  29   44.44    8.22   0
   2   0  14 1102.05   15.50   0
   4   4  15   77.11    8.30   0
   1   0  16 1539.30   18.27   0
   3   1  17  467.84   10.75   0
   4   2  14  379.16   10.36   0
   4   5  14   63.77    8.75   0
   3   0   9  513.14   11.38   0
   4   1   6 1078.78   15.57   0
   3   0   6 1940.59   20.62   0
   3   4  23   34.54    8.47   0
   0   1  23   91.08    7.24   0
   1   2  26  206.30    9.84   0
   4   1  12  571.58   11.58   0
   1   3  28   95.58    8.47   0
   3   0  12 1533.69   17.28   0
   3   2  22  203.31   10.02   0
   4   2  17  146.96    8.33   0
   4   4  18   81.11    8.08   0
   2   0  17  254.06    8.99   0
   4   3  19  110.12    8.93   0
   3   1  20  406.34   10.99   0
   3   3  24  108.29    9.33   0
   4   1   3  331.98    9.99   0
   0   0  18  559.82   12.32   0
   4   1  15  166.71    8.09   0
   1   0  19  222.05    8.84   0
   1   1  24  269.27    9.76   0
   3   0  15  505.62   10.91   0
   0   3  30   94.80    7.87   0
   4   2  20  185.88    9.74   0
   0   2  28   70.02    7.91   0
   5   3   8  335.07   10.88   0
   5   3  11   89.13    8.22   0
   4   1  18  408.43   10.70   0
   4   3  22  102.73    8.67   0
   5   2   9  151.02    8.75   0
   2   2  27   24.77    8.20   0
   3   0  18  469.50   11.38   0
   3   2  25  118.40    9.07   0
   5   2  12  376.22   11.39   0
   5   3  14  144.77    9.45   0
   3   1  23   70.95    8.53   0
   4   0  10 1177.40   15.34   0
   5   2   6  354.96   10.49   0
   2   1  25  146.36    9.22   0
   2   3  29   66.37    7.96   0
   4   0  13  677.94   12.78   0
   3   3  27   28.45    7.62   0
   5   2  15  156.53    8.18   0
   0   1  26  248.02    9.79   0
   1   2  29   77.71    8.57   0
   4   2  23   81.12    8.83   0
   5   1  10  446.77   11.45   0
   5   3  17   98.42    8.36   0
   1   0  22  374.28   10.61   0
   4   0  16  407.13   10.91   0
   4   1  21  169.92    9.51   0
   0   0  21  626.44   13.12   0
   1   1  27   68.85    7.98   0
   3   0  21  215.09    9.45   0
   4   0   4 1468.83   18.23   0
   2  -1  12 1798.85   19.55   0
   5   1  16  302.52   10.36   0
   2  -1   9 1184.41   16.42   0
   2   0  23  212.56    8.97   0
   5   3  20  103.70    8.88   0
   4   0  19   90.50    8.21   0
   3  -1  10 1426.11   17.31   0
   5   1   4  708.30   13.40   0
   2   2  30   67.98    7.83   0
   3  -1  13  494.87   10.71   0
   5   1  19   98.83    9.08   0
   5   2  21   54.49    8.08   0
   1  -1  14 1224.76   17.13   0
   2   1  28  138.82    8.51   0
   4   1  24  107.60    8.53   0
   4   2  26   80.38    8.44   0
   3  -1   7 1608.76   18.66   0
   3  -1  16 1126.64   15.24   0
   5   0  14  555.42   11.88   0
   5   0   8  631.53   12.47   0
   1   0  25  213.31    9.81   0
   2  -1  18  793.76   13.56   0
   4   0  22  324.42   11.04   0
   4  -1  11  337.66    9.80   0
   5   0  17  231.55    9.94   0
   1  -1  17  829.05   14.29   0
   4  -1  14  654.06   12.03   0
   5   1  22  130.67    9.01   0
   2   0  26  160.58    8.69   0
   3  -1  19  277.66    9.66   0
   4   0   1 1351.92   18.61   0
   6   2  10  145.83    8.49   0
   6   2  13  149.23    9.26   0
   4  -1   8 1967.36   19.64   0
   5   0   5  674.29   12.94   0
   6   2  16  143.27    9.21   0
   3   1  29   72.94    8.14   0
   4  -1  17  455.46   10.65   0
   4   1  27   21.83    7.44   0
   5   0  20  158.09    9.49   0
   6   1  11  129.80    8.67   0
   6   1  14  135.98    9.02   0
   2  -1  21  284.55    8.99   0
   3  -1   4 3393.30   28.14   0
   6   1   8  513.17   12.21   0
   6   1  17  129.42    8.58   0
   1  -1  20  660.78   13.04   0
   3  -1  22  275.80    9.93   0
   3   0  27   73.68    8.32   0
   4  -1  20  398.69   10.41   0
   5   1  25   58.75    8.18   0
   2   1  31   29.43    7.58   0
   5  -1  12  604.89   11.76   0
   5  -1  15  167.44    8.61   0
   5   0  23   66.36    8.36   0
   6   0  12  511.34   11.97   0
   0  -1  16 1565.46   20.59   0
   5  -1  18  430.45   10.84   0
   6   0   9  236.31    9.54   0
   2   0  29   59.14    8.65   0
   5   0   2 1083.96   16.28   0
   6   0  18  114.68    9.14   0
   2  -1  24  267.35    9.66   0
   4  -1  23   66.50    7.05   0
   1  -1  23   95.88    7.34   0
   3  -1  25  140.72    8.97   0
   4   0  28   63.45    7.45   0
   5  -1   6 1080.52   15.48   0
   5  -1  21  174.54    9.86   0
   5   0  26  114.41    8.78   0
   6   0   6  309.75    9.96   0
   6   0  21   99.36    8.33   0
   0  -1  19  209.42    8.76   0
   3   0  30   88.52    8.38   0
   3  -2  14 1229.20   15.68   0
   6  -1  16  295.76   10.67   0
   3  -2  11  453.18   10.88   0
   4  -2  12 1772.06   18.23   0
   4  -2  15  179.57    7.88   0
   4  -1  26  140.53    8.89   0
   5  -1  24  114.14    9.07   0
   6  -1  10  448.10   11.30   0
   4  -2  18  313.16    9.45   0
   4  -1   2 1264.39   17.16   0
   6  -1  19  103.73    8.12   0
   6   0  24  114.54    8.58   0
   7   1  12  152.43    8.52   0
   7   1  15   32.82    7.64   0
   2  -1  27   73.66    8.59   0
   4  -2   9 1018.02   14.80   0
   2  -2  16  575.48   11.44   0
   3  -2  20  424.99   10.87   0
   5  -2  13  569.94   11.35   0
   5  -2  16  582.61   12.18   0
   3  -2   8 2119.56   21.04   0
   3  -1  28  131.42    8.53   0
   7   0  13  167.98    8.86   0
   7   0  16  204.79    9.55   0
   5  -2  10  549.39   11.53   0
   5  -2  19   88.86    7.96   0
   5  -1   3  356.87   10.16   0
   6  -1   7  375.83    9.92   0
   6  -1  22  138.61    8.41   0
   2  -2  10 3435.02   27.44   0
   2  -2  19  209.67    8.77   0
   7   0  10  125.55    8.31   0
   7   0  19   26.69    7.39   0
   3  -2  23  108.92    8.12   0
   4  -1  29   78.02    8.50   0
   4  -2   6  737.40   12.78   0
   4  -2  24  252.77   10.22   0
   6  -2  14  381.48   10.30   0
   6  -2  17  153.53    9.07   0
   6  -1  25   44.97    7.91   0
   7  -1  14  120.61    8.69   0
   2  -2  22  574.03   12.44   0
   5  -2   7  346.75    9.33   0
   6  -2  20  226.43    9.81   0
   7  -1  11  132.09    8.51   0
   6  -1   4  731.74   13.44   0
   7  -1  20  155.29    8.50   0
   1  -2  15  554.10   12.19   0
   2  -2   7  347.77   10.48   0
   3  -2   5 2115.48   21.78   0
   3  -1  31   18.91    6.64   0
   1  -2  18  793.05   14.18   0
   3  -2  26  220.52    9.70   0
   6  -2   8  655.26   12.74   0
   6  -2  23   82.17    8.44   0
   7  -1   8  503.43   12.04   0
   4  -2  27   31.91    7.37   0
   1  -2  12 1659.61   20.10   0
   2  -2  25  153.31    9.04   0
   7  -2  18  119.70    8.70   0
   4  -3  16  804.18   13.19   0
   5  -3  14  359.45   10.39   0
   5  -3  17  382.49   10.65   0
   7  -2  12  378.87   10.91   0
   4  -3  13  622.00   11.78   0
   5  -2   4 2129.74   20.72   0
  -8   3   1  222.25   10.39   0
  -7   4  -2  590.55   13.52   0
  -4  -4   9  146.74    8.95   0
  -9   1   2  150.71    9.94   0
  -8  -1   5   60.09    9.08   0
  -8   4  -3  171.40    9.48   0
  -7  -2   7   90.40    9.18   0
  -7   1   7  111.17    9.51   0
  -6   0   9  308.82   10.77   0
  -6   1   8  573.75   13.07   0
  -9   3   0  262.05   10.86   0
  -7   2   6  439.10   12.25   0
  -2   0   7  328.53   10.38   0
  -8   1   6  147.11   10.22   0
  -5  -3  10  176.04    9.72   0
  -5   0  10  591.21   13.06   0
  -8   2   5  149.68   10.03   0
  -6   4  -1  582.44   13.36   0
  -4  -3  11  135.00    8.87   0
  -3   0   9 1286.40   17.67   0
  -8   0   7   80.40    8.82   0
  -6  -3   9   69.08    7.99   0
  -6   2   7  260.25    9.82   0
  -5   1   9  349.50   10.93   0
  -8   4   0  444.98   12.20   0
  -9   1   5   61.98    7.80   0
  -7   4   1  207.53    9.54   0
  -6  -2  11   84.98    8.33   0
  -4   3   2 1308.59   18.73   0
  -3   2   4 3357.59   29.71   0
  -9   4  -1  135.54    9.15   0
  -5  -2  12  236.82    9.33   0
  -4   0  11  644.52   13.24   0
  -9   3   3  134.95    9.51   0
  -7  -2  10  100.58    8.35   0
  -7   1  10  243.34   10.62   0
  -3   1   8 2100.81   22.06   0
  -8   1   9  114.71    9.50   0
  -7   0  11   75.35    9.19   0
  -8   2   8  281.10   10.18   0
  -7   2   9  332.97   10.48   0
  -6   0  12  393.83   10.89   0
  -6   1  11  168.90    8.77   0
  -4   1  10  912.49   14.68   0
  -8   0  10  102.91    9.00   0
  -6   4   2  836.13   14.70   0
  -8   4   3  178.99    9.66   0
  -5   4   0 1372.32   19.72   0
  -9   2   7  109.09    9.00   0
  -9   4   2  107.92    8.54   0
  -7  -1  12  181.63    9.84   0
  -6   2  10  601.68   12.69   0
  -5  -3  13  125.08    8.38   0
  -5   0  13  195.38    9.19   0
  -7   4   4  493.07   12.41   0
  -9   3   6  118.17    8.46   0
  -5   1  12  845.08   14.74   0
  -6  -2  14  121.61    8.48   0
  -4   2   9 1068.11   16.20   0
  -3   0  12 1006.19   15.43   0
  -8   1  12  189.38    9.91   0
  -7   1  13  197.98    9.91   0
  -4   3   5 1069.80   16.49   0
  -9   4   5   97.48    8.96   0
  -8   2  11   92.45    9.30   0
  -8   4   6  206.58   10.20   0
  -5  -2  15   55.95    7.63   0
  -2   0  10 3376.74   27.55   0
  -7   2  12  269.31   10.78   0
  -6   4   5  326.76   10.68   0
  -9   2  10   92.05    8.66   0
  -8   0  13   67.65    8.59   0
  -4   0  14  552.10   11.89   0
  -6   0  15   97.74    8.82   0
  -6   1  14  348.97   10.47   0
  -8   3  10  172.36    8.90   0
  -5   4   3  355.98   10.13   0
  -8   5   2  224.43    9.93   0
  -3  -3  15  142.00    8.20   0
  -7  -1  15   44.13    7.63   0
  -6   2  13  355.95   11.32   0
  -4   1  13  631.49   12.40   0
  -3   1  11  458.85   11.46   0
  -7   3  11  139.50    8.75   0
  -6  -1  16  193.90    9.74   0
  -9   4   8  280.39   10.46   0
  -5   1  15  237.13   10.12   0
  -7   5   3  394.97   11.38   0
  -8   1  15   55.88    8.65   0
  -7   1  16  209.74    9.98   0
  -8   5   5  158.39    9.02   0
  -6  -2  17   68.21    8.23   0
  -6   3  12  584.60   12.81   0
  -9   3  12  146.58    9.39   0
  -7   2  15   56.44    8.30   0
  -2   1   9 1201.26   16.78   0
  -8   3  13  140.85    9.03   0
  -7   4  10  371.17   11.44   0
  -5   2  14  363.08   10.79   0
  -5   4   6 1119.39   16.69   0
  -2  -2  15  175.81    8.39   0
  -6   1  17  177.52    9.03   0
  -5  -2  18  186.79    9.63   0
  -7   3  14  318.29   11.71   0
  -9   5   7   67.74    8.84   0
  -6   2  16  314.92   11.32   0
  -3   2  10 1434.98   18.09   0
  -9   4  11   63.45    8.08   0
  -7   5   6  377.55   11.37   0
  -2   0  13 1165.17   16.29   0
  -8   4  12  287.45   11.40   0
  -8   5   8  354.38   11.57   0
  -6  -1  19   35.64    7.80   0
  -4   1  16  757.53   13.50   0
  -6   5   4  732.25   14.19   0
  -3   1  14 1274.62   16.44   0
  -8   2  17   91.51    8.77   0
  -5   3  13  599.59   13.27   0
  -4  -2  19   70.41    8.01   0
  -5   1  18  283.21    9.94   0
  -6   3  15  167.02    9.47   0
  -8   3  16  161.16    9.42   0
  -7   2  18  204.87   10.20   0
  -5  -1  20  145.67    9.34   0
  -4   3  11  360.89   10.00   0
  -4   4   4 1429.50   19.05   0
  -9   5  10   87.86    8.76   0
  -7   0  20  116.09    8.89   0
  -4   2  15  195.96    8.77   0
  -9   4  14   59.91    8.15   0
  -7   5   9  141.83    8.37   0
  -7   3  17  146.29   10.56   0
  -6   1  20  153.62    9.85   0
  -8   5  11  118.20    8.86   0
  -6   5   7  371.76   11.20   0
  -2   1  12 1782.34   19.34   0
  -6   0  21  103.34    8.57   0
  -6   2  19   81.63    9.49   0
  -3  -1  19  130.76    8.40   0
  -5  -2  21   90.44    8.88   0
  -4   0  20  344.18   10.88   0
  -3   2  13  499.87   11.24   0
  -1   0  11  434.23   10.92   0
  -2  -2  18  305.64    9.97   0
  -5   3  16  654.80   13.98   0
  -4  -1  21  118.18    8.82   0
  -4   1  19  131.14    8.78   0
  -9   5  13  119.39    9.17   0
  -7   4  16  255.47   11.41   0
  -6  -1  22   74.36    7.69   0
  -4   4   7  307.89    9.82   0
  -8   3  19   50.30    8.52   0
  -7   5  12  395.42   12.24   0
  -3   1  17  531.11   11.57   0
  -5   0  22  139.42    9.14   0
  -5   1  21  154.32    9.60   0
  -3   3   9  503.61   11.47   0
  -7   2  21   97.17    8.56   0
  -4   3  14  673.65   12.84   0
  -8   5  14  146.63    9.43   0
  -5   2  20  397.33   11.79   0
  -5   5   5  647.35   13.44   0
  -4   2  18  336.99   10.89   0
  -8   4  18   90.38    9.07   0
  -7   3  20  127.83    9.13   0
  -5  -1  23   48.83    7.69   0
  -1  -1  15  524.80   11.84   0
  -6   2  22  185.26   10.18   0
  -4   4  10 1245.49   16.78   0
  -2   1  15  566.52   11.91   0
  -8   6  10  163.51    9.11   0
  -6   4  17  156.68    9.36   0
  -3   2  16 1171.85   16.26   0
  -6   0  24   73.52    8.62   0
  -5   4  15  175.67    9.65   0
  -2   2  11 1819.04   19.58   0
  -7   4  19  109.47    9.87   0
  -7   6   8  523.70   13.05   0
  -5   3  19   81.86    9.39   0
  -5   5   8  622.29   13.07   0
  -3   0  21  250.93    9.55   0
  -9   6  12  112.63    8.19   0
  -6   3  21  133.26   10.61   0
  -4   0  23  104.78    8.70   0
  -3  -1  22  215.01    9.55   0
  -3   3  12 1513.75   18.00   0
  -2  -1  20  373.06   10.66   0
  -8   5  17  106.47    9.06   0
  -4  -1  24  142.87    8.79   0
  -3   1  20  389.56   10.41   0
  -1   1  10 1523.48   18.54   0
  -2  -2  21  307.74   10.15   0
  -2   0  19  200.07    8.17   0
  -8   6  13  162.77    9.43   0
  -5   0  25   56.56    8.09   0
  -7   3  23   42.66    8.06   0
  -7   6  11  129.53    8.94   0
  -5   2  23   41.18    9.21   0
  -4   2  21  321.64   10.61   0
  -5   5  11  214.71    8.67   0
  -7   5  18  143.66   10.33   0
  -5   4  18  428.53   12.23   0
  -6   2  25   84.12    9.04   0
  -3   2  19  282.07   10.47   0
  -2   1  18  829.15   14.03   0
  -2   2  14 1080.57   15.04   0
  -1  -2  19  279.20    9.50   0
  -1  -1  18  779.25   13.90   0
   0  -2  14  968.12   16.31   0
  -5   3  22  191.70   10.86   0
  -3   3  15  508.38   11.28   0
  -3   4   5 1027.28   16.33   0
  -6   3  24  115.19    9.57   0
  -6   6   9  247.11    9.67   0
  -8   6  16  148.44    9.27   0
  -7   6  14  131.58    9.47   0
  -5   5  14  567.07   12.31   0
  -4   4  16  450.43   11.76   0
  -4   0  26  121.38    8.87   0
  -4   1  25  121.73    8.23   0
  -3   4   8 1960.59   20.87   0
   0  -1  13 1035.91   16.23   0
  -3  -1  25  130.08    8.64   0
  -4   5   6 1026.38   16.26   0
  -2  -1  23   97.64    7.90   0
  -2   0  22  561.95   12.41   0
  -6   6  12  522.28   12.57   0
  -5   1  27   32.31    7.64   0
  -6   4  23   74.57    9.32   0
  -5   2  26  109.12    8.89   0
  -5   4  21  189.14   10.58   0
  -4  -1  27   34.43    7.07   0
  -2   2  17  260.40    9.43   0
  -3   3  18  487.54   11.31   0
  -2   3  10 1347.45   16.76   0
  -7   6  17  139.88    9.40   0
  -4   5   9  667.49   12.56   0
  -3   2  22  284.41   10.36   0
  -5   5  17  252.47   10.31   0
  -2   1  21  264.07    9.28   0
  -4   3  23   75.38    9.08   0
  -4   4  19  112.54    8.92   0
  -1  -1  21  275.06    9.50   0
  -1   1  16 1658.78   18.06   0
  -6   6  15  113.40    8.73   0
   0  -2  17  243.28    9.30   0
  -4   5  12  594.20   11.95   0
  -2   3  13  482.39   11.02   0
  -1   2   9 1170.43   16.11   0
  -3   4  14  630.43   12.61   0
  -1   0  20  640.90   12.70   0
  -5   6   7  337.28   10.39   0
   0  -1  16 1580.06   19.01   0
  -4   1  28   86.56    8.51   0
  -3   0  27   53.65    8.07   0
  -3   1  26  201.08   10.14   0
  -6  -1  -8  557.05   13.20   0
  -5  -4  -4  342.55   11.44   0
  -5  -3  -2  240.54   10.94   0
  -3  -4   4  481.51   11.80   0
  -4  -3   2  578.33   12.53   0
  -2  -6   4  354.78   11.94   0
  -1  -5   7  345.78   11.17   0
  -6  -2  -7   98.78    9.44   0
  -6   0  -9  248.79   10.07   0
  -2  -7   2  169.75    9.77   0
  -2  -5   6  341.59   10.39   0
  -5   1  -6 1128.37   17.64   0
  -5  -2   0  574.61   12.48   0
  -4  -5   1  126.68    9.74   0
  -2  -2   6  760.63   13.85   0
  -6  -1  -5  196.57    9.95   0
  -5   0  -2 1160.77   16.89   0
  -2  -3   7  357.73   10.16   0
  -5  -4  -1  152.46    9.23   0
  -4  -4   3  180.73    9.09   0
  -3  -1   4 2827.19   24.87   0
  -6  -2  -4  365.20   11.09   0
  -6   0  -6  316.78   10.71   0
  -5  -5  -3   66.01    9.24   0
  -3  -3   6  688.17   12.95   0
  -5  -3   1  220.19   10.53   0
  -4  -2   4  819.07   14.38   0
  -4  -1   3  883.31   14.73   0
  -1  -7   6  146.59    9.31   0
  -1  -3   8 1902.76   21.52   0
  -2  -4   8  653.06   13.37   0
  -1  -6   8  497.11   12.58   0
  -4  -3   5  347.10   10.54   0
  -7  -2 -11   28.85    7.11   0
  -6  -1  -2  228.03    9.78   0
  -3  -4   7  313.32   10.05   0
  -2  -7   5  124.28    8.90   0
  -2  -6   7   86.18    8.88   0
  -5  -1   2  732.24   13.82   0
  -4   0   2 1587.51   18.81   0
  -7  -1  -9  177.71    9.52   0
  -5  -5   0  176.74    9.67   0
  -5  -4   2  100.53    9.19   0
  -5  -2   3  140.95    9.31   0
  -4  -5   4  297.58   11.33   0
  -3   0   3  556.19   12.44   0
  -7  -2  -8  124.78    9.46   0
  -6   0  -3  361.72   10.22   0
  -6   1  -7  374.94   10.99   0
  -5   1  -3  359.38   10.76   0
  -4  -4   6  222.08   10.24   0
  -2  -5   9  122.87    8.96   0
  -7  -1  -6  171.93   10.39   0
  -6  -3   0  257.39   10.52   0
  -5  -3   4  400.97   11.87   0
  -7  -2  -5  129.75    9.52   0
   0  -3   9  499.72   12.76   0
  -7   0  -7  107.24    8.41   0
  -3  -2   8 1760.01   19.59   0
  -4  -2   7  241.40   10.02   0
  -6  -2   2  195.23    9.85   0
  -6   1  -4  769.92   14.23   0
  -5  -5   3   54.56    8.80   0
  -4  -1   6  914.12   14.69   0
  -3  -3   9  361.07   10.25   0
  -6   0   0  821.99   14.47   0
  -3  -1   7  703.03   13.67   0
  -7  -1  -3   92.96    8.71   0
  -5  -4   5  107.27    8.59   0
  -4  -3   8  380.15   10.65   0
  -2  -2   9 1051.82   15.99   0
  -6  -4   1   66.12    7.59   0
  -5  -2   6  472.50   12.00   0
  -5  -1   5  424.52   11.40   0
  -2  -7   8  118.58    8.86   0
  -7   0  -4  536.26   12.90   0
  -6  -3   3  155.22    9.76   0
  -5   1   0 1406.17   18.22   0
  -4   1   1  863.36   14.72   0
  -2  -6  10  147.64    9.23   0
  -4  -4   9  153.64    9.62   0
  -4   0   5  395.72   10.30   0
  -5   0   4  890.36   14.14   0
  -3  -6   9  138.00    9.42   0
  -7  -1   0  331.90   11.43   0
  -6  -1   4  576.98   12.67   0
  -6  -2   5  146.41    9.59   0
  -6   1  -1  315.06   10.22   0
  -1  -3  11  331.95    9.79   0
  -7   0  -1  200.66    9.65   0
  -7   1  -5  183.31    9.42   0
  -3  -5  11  102.99    8.87   0
  -3   0   6 2742.43   24.85   0
  -6  -3   6  116.63    9.33   0
  -4  -2  10  599.78   12.84   0
  -5  -2   9  354.69   11.32   0
  -4  -5  10   88.55    8.54   0
  -4  -3  11  128.36    9.13   0
  -4  -1   9  369.88   10.69   0
  -3  -2  11  260.48    9.66   0
  -8  -1  -4  109.79    8.47   0
  -5  -1   8  572.74   12.05   0
  -1  -5  13  181.18    9.09   0
  -7   1  -2  233.96    9.47   0
  -5   1   3  847.95   14.38   0
  -7  -2   4  175.04    9.06   0
  -7   0   2  155.45    8.42   0
  -6   1   2  687.09   13.25   0
  -5  -3  10  170.37    8.96   0
  -6  -2   8  307.62   11.24   0
  -6  -1   7  117.52    8.31   0
  -3  -4  13  128.07    8.99   0
  -3  -1  10  897.20   14.58   0
  -8  -1  -1   82.63    7.87   0
  -4   1   4 2743.44   24.70   0
  -2  -3  13  548.91   11.81   0
  -8   0  -2  167.65   10.17   0
  -6   0   6  360.48   11.19   0
  -3  -6  12  113.78    8.22   0
  -2  -4  14  357.55   11.10   0
  -6  -3   9   59.84    8.87   0
  -7   1   1  297.56   10.22   0
  -5  -4  11   61.77    7.85   0
  -7  -1   6  134.23    9.43   0
  -6   2  -2  839.15   15.15   0
  -5   2  -1  807.30   15.07   0
  -3  -5  14  119.43    9.26   0
  -8  -1   2  130.85    8.80   0
  -7  -2   7  104.07    9.06   0
  -7   0   5  195.71   10.52   0
   0  -3  12 1456.93   20.18   0
  -4  -2  13  334.30   10.36   0
  -9   2  10   91.48    7.89   0
  -7   0  20  122.94    8.38   0
  -6   0  21  101.88    8.57   0
  -5   3   4 2070.75   20.95   0
  -4   2  12 1762.24   18.69   0
  -3  -1  22  229.71   10.12   0
  -8   3   7  104.99    7.97   0
  -8   2  14  129.80    8.66   0
  -6   3   9  374.29   10.39   0
  -2   1  12 1820.82   19.42   0
  -1  -1  18  797.30   14.14   0
  -6   2  16  309.96   10.66   0
  -7   1  19   38.69    7.63   0
  -5   0  22  144.19    8.48   0
  -5   3   7  345.49    9.92   0
  -6   1  20  158.26    9.67   0
  -4  -2  25   75.37    7.79   0
  -8   3  10  172.49    8.73   0
  -7   3  11  138.25    7.74   0
  -4  -1  24  137.45    9.17   0
  -3   2  10 1353.79   16.40   0
  -5   2  17  383.25   11.37   0
  -2  -2  24  218.82    9.52   0
  -7   2  18  197.13   10.10   0
  -5   1  21  155.32    9.97   0
  -4   2  15  193.24    8.41   0
  -2   0  19  205.53    8.41   0
  -9   3   9   63.94    7.59   0
  -8   3  13  132.41    8.48   0
  -7   3  14  301.38    9.67   0
  -6   0  24   85.71    8.13   0
  -6   2  19   74.27    8.68   0
  -3  -2  26   85.19    9.26   0
  -4   3   5 1018.23   15.32   0
  -2  -1  23  100.27    8.28   0
  -2   1  15  578.86   11.49   0
  -7   1  22   82.51    8.90   0
  -3   2  13  509.88   11.52   0
  -9   3  12  147.40    8.45   0
  -3  -1  25  125.00    9.24   0
   0  -1  16 1538.87   19.23   0
  -6   1  23   57.47    9.24   0
  -6   3  15  157.86    8.49   0
  -5   3  13  588.78   11.98   0
   0  -2  20  656.62   13.47   0
  -1  -1  21  269.85   10.00   0
  -4   1  22  248.71   10.17   0
  -3   1  20  399.17   11.71   0
  -1   0  17  825.15   13.70   0
  -8   3  16  163.83    9.29   0
  -7   2  21  117.22    9.44   0
  -7   4   7  329.38   10.18   0
   1  -2  15  505.52   12.97   0
  -4  -1  27   38.13    7.80   0
  -8   4   9  164.19    9.62   0
  -3   0  24  176.38    9.90   0
  -7   4  10  371.43   11.07   0
  -4   3  11  345.11    9.57   0
  -1   1  10 1499.50   18.76   0
  -6   2  22  186.34    9.70   0
  -6   4   5  305.38    9.89   0
  -4   0  26  100.28    9.65   0
  -2   0  22  597.91   12.64   0
  -6   3  18  259.53   11.18   0
  -6   4   8  673.19   13.33   0
  -2   2   8 2926.32   25.07   0
  -8   4  12  293.96   10.63   0
  -7   4  13  117.10    9.20   0
  -7   3  20  114.81    9.20   0
  -6   4  11  330.22    9.81   0
  -4   3  14  673.34   12.45   0
  -5   2  23   52.78    9.25   0
  -4   2  21  355.05   10.99   0
  -2  -1  26  197.12    9.74   0
   0   0  12 4194.10   31.50   0
  -2   2  11 1827.80   19.22   0
  -1   1  13 1105.66   15.43   0
   0  -1  19  229.46    8.98   0
  -8   4  15   71.15    8.00   0
  -3  -1  28  103.60    8.73   0
  -1   0  20  674.18   13.18   0
  -5   3  19   81.41    8.16   0
  -9   4  14   59.58    7.19   0
  -7   4  16  234.12   10.18   0
  -6   3  21  132.01    8.65   0
  -5   4   6 1055.15   15.49   0
  -1  -1  24  265.03    9.93   0
  -6   2  25   90.42    8.55   0
  -5   4   9  693.80   12.96   0
   3  -1  22  254.75    9.58   0
   6  -3  15  156.01    8.60   0
   8  -2  19   21.69    7.58   0
   7  -3  -2  602.44   13.21   0
   7  -2  21   58.79    8.30   0
   8  -3  14  120.22    9.45   0
   5  -3  14  371.60   10.15   0
   6  -1  25   58.53    8.32   0
   7  -3  16  241.11    9.61   0
   9  -3   6  136.78    9.33   0
   4  -3   7  646.71   12.17   0
   9  -3   9  154.53    9.44   0
   3  -2  17  528.94   11.72   0
   4  -3  10  883.99   14.29   0
   5  -3  -1  770.71   14.00   0
   6  -3  -3  436.80   12.32   0
   9  -3   3   55.79    8.27   0
   4  -3   4 2696.30   23.77   0
   5  -2  22  178.00    8.71   0
   2  -2   7  331.45   10.46   0
   6  -3  18  256.10   10.62   0
   6  -2  23   78.63    8.65   0
;
_shelx_hkl_checksum              27142
loop_
_space_group_symop_operation_xyz
'x, y, z'
'-y, x-y, z'
'-x+y, -x, z'
'y, x, -z'
'x-y, -y, -z'
'-x, -x+y, -z'
'x+2/3, y+1/3, z+1/3'
'-y+2/3, x-y+1/3, z+1/3'
'-x+y+2/3, -x+1/3, z+1/3'
'y+2/3, x+1/3, -z+1/3'
'x-y+2/3, -y+1/3, -z+1/3'
'-x+2/3, -x+y+1/3, -z+1/3'
'x+1/3, y+2/3, z+2/3'
'-y+1/3, x-y+2/3, z+2/3'
'-x+y+1/3, -x+2/3, z+2/3'
'y+1/3, x+2/3, -z+2/3'
'x-y+1/3, -y+2/3, -z+2/3'
'-x+1/3, -x+y+2/3, -z+2/3'
'-x, -y, -z'
'y, -x+y, -z'
'x-y, x, -z'
'-y, -x, z'
'-x+y, y, z'
'x, x-y, z'
'-x+2/3, -y+1/3, -z+1/3'
'y+2/3, -x+y+1/3, -z+1/3'
'x-y+2/3, x+1/3, -z+1/3'
'-y+2/3, -x+1/3, z+1/3'
'-x+y+2/3, y+1/3, z+1/3'
'x+2/3, x-y+1/3, z+1/3'
'-x+1/3, -y+2/3, -z+2/3'
'y+1/3, -x+y+2/3, -z+2/3'
'x-y+1/3, x+2/3, -z+2/3'
'-y+1/3, -x+2/3, z+2/3'
'-x+y+1/3, y+2/3, z+2/3'
'x+1/3, x-y+2/3, z+2/3'
loop_
_atom_site_label
_atom_site_type_symbol
_atom_site_fract_x
_atom_site_fract_y
_atom_site_fract_z
_atom_site_U_iso_or_equiv
_atom_site_adp_type
_atom_site_occupancy
_atom_site_site_symmetry_order
_atom_site_calc_flag
_atom_site_refinement_flags_posn
_atom_site_refinement_flags_adp
_atom_site_refinement_flags_occupancy
Ba1 Ba 0.0000 0.0000 0.5000 0.01328(4) Uani 1 12 d S T P
Mg2 Mg 0.0000 0.0000 0.0000 0.01049(15) Uani 1 12 d S T P
O3 O 0.85354(13) 0.7071(3) 0.25778(8) 0.0267(2) Uani 1 2 d S T P
C4 C 0.0000 0.0000 0.26072(11) 0.0109(2) Uani 1 6 d S T P
loop_
_atom_site_aniso_label
_atom_site_aniso_U_11
_atom_site_aniso_U_22
_atom_site_aniso_U_33
_atom_site_aniso_U_23
_atom_site_aniso_U_13
_atom_site_aniso_U_12
Ba1 0.01148(5) 0.01148(5) 0.01687(7) 0.000 0.000 0.00574(2)
Mg2 0.0088(2) 0.0088(2) 0.0138(4) 0.000 0.000 0.00441(11)
O3 0.0351(5) 0.0097(3) 0.0269(5) 0.0042(3) 0.00210(16) 0.00484(17)
C4 0.0105(4) 0.0105(4) 0.0116(5) 0.000 0.000 0.00525(18)
loop_
_atom_type_symbol
_atom_type_description
_atom_type_scat_dispersion_real
_atom_type_scat_dispersion_imag
_atom_type_scat_source
C C 0.0033 0.0016 'International Tables Vol C Tables 4.2.6.8 and 6.1.1.4'
O O 0.0106 0.0060 'International Tables Vol C Tables 4.2.6.8 and 6.1.1.4'
Mg Mg 0.0486 0.0363 'International Tables Vol C Tables 4.2.6.8 and 6.1.1.4'
Ba Ba -0.3244 2.2819 'International Tables Vol C Tables 4.2.6.8 and 6.1.1.4'
loop_
_geom_angle_atom_site_label_1
_geom_angle_atom_site_label_2
_geom_angle_atom_site_label_3
_geom_angle
_geom_angle_site_symmetry_1
_geom_angle_site_symmetry_3
O3 Ba1 O3 180.0 31 7_445
O3 Ba1 O3 57.13(4) 31 32_455
O3 Ba1 O3 122.87(4) 7_445 32_455
O3 Ba1 O3 122.87(4) 31 8_545
O3 Ba1 O3 57.13(4) 7_445 8_545
O3 Ba1 O3 180.0 32_455 8_545
O3 Ba1 O3 44.02(4) 31 33_435
O3 Ba1 O3 135.98(4) 7_445 33_435
O3 Ba1 O3 95.54(3) 32_455 33_435
O3 Ba1 O3 84.46(3) 8_545 33_435
O3 Ba1 O3 135.98(4) 31 9_565
O3 Ba1 O3 44.02(4) 7_445 9_565
O3 Ba1 O3 84.46(3) 32_455 9_565
O3 Ba1 O3 95.54(3) 8_545 9_565
O3 Ba1 O3 180.0 33_435 9_565
O3 Ba1 O3 95.54(3) 31 33_545
O3 Ba1 O3 84.46(3) 7_445 33_545
O3 Ba1 O3 44.02(4) 32_455 33_545
O3 Ba1 O3 135.98(4) 8_545 33_545
O3 Ba1 O3 117.07(4) 33_435 33_545
O3 Ba1 O3 62.93(4) 9_565 33_545
O3 Ba1 O3 84.46(3) 31 9_455
O3 Ba1 O3 95.54(3) 7_445 9_455
O3 Ba1 O3 135.98(4) 32_455 9_455
O3 Ba1 O3 44.02(4) 8_545 9_455
O3 Ba1 O3 62.93(4) 33_435 9_455
O3 Ba1 O3 117.07(4) 9_565 9_455
O3 Ba1 O3 180.00(2) 33_545 9_455
O3 Ba1 O3 95.54(3) 31 32_445
O3 Ba1 O3 84.46(3) 7_445 32_445
O3 Ba1 O3 117.07(4) 32_455 32_445
O3 Ba1 O3 62.93(4) 8_545 32_445
O3 Ba1 O3 57.13(4) 33_435 32_445
O3 Ba1 O3 122.87(4) 9_565 32_445
O3 Ba1 O3 95.54(3) 33_545 32_445
O3 Ba1 O3 84.46(3) 9_455 32_445
O3 Ba1 O3 84.46(3) 31 8
O3 Ba1 O3 95.54(3) 7_445 8
O3 Ba1 O3 62.93(4) 32_455 8
O3 Ba1 O3 117.07(4) 8_545 8
O3 Ba1 O3 122.87(4) 33_435 8
O3 Ba1 O3 57.13(4) 9_565 8
O3 Ba1 O3 84.46(3) 33_545 8
O3 Ba1 O3 95.54(3) 9_455 8
O3 Ba1 O3 180.0 32_445 8
O3 Ba1 O3 62.93(4) 31 7_345
O3 Ba1 O3 117.07(4) 7_445 7_345
O3 Ba1 O3 84.46(3) 32_455 7_345
O3 Ba1 O3 95.54(3) 8_545 7_345
O3 Ba1 O3 84.46(3) 33_435 7_345
O3 Ba1 O3 95.54(3) 9_565 7_345
O3 Ba1 O3 122.87(4) 33_545 7_345
O3 Ba1 O3 57.13(4) 9_455 7_345
O3 Ba1 O3 135.98(5) 32_445 7_345
O3 Ba1 O3 44.02(4) 8 7_345
O3 Ba1 O3 117.07(4) 31 31_655
O3 Ba1 O3 62.93(4) 7_445 31_655
O3 Ba1 O3 95.54(3) 32_455 31_655
O3 Ba1 O3 84.46(3) 8_545 31_655
O3 Ba1 O3 95.54(3) 33_435 31_655
O3 Ba1 O3 84.46(3) 9_565 31_655
O3 Ba1 O3 57.13(4) 33_545 31_655
O3 Ba1 O3 122.87(4) 9_455 31_655
O3 Ba1 O3 44.02(4) 32_445 31_655
O3 Ba1 O3 135.98(5) 8 31_655
O3 Ba1 O3 180.0 7_345 31_655
O3 Mg2 O3 180.00(6) 26_455 14_544
O3 Mg2 O3 86.20(5) 26_455 25
O3 Mg2 O3 93.80(5) 14_544 25
O3 Mg2 O3 93.80(5) 26_455 13_444
O3 Mg2 O3 86.20(5) 14_544 13_444
O3 Mg2 O3 180.00(7) 25 13_444
O3 Mg2 O3 86.20(5) 26_455 27_445
O3 Mg2 O3 93.80(5) 14_544 27_445
O3 Mg2 O3 86.20(5) 25 27_445
O3 Mg2 O3 93.80(5) 13_444 27_445
O3 Mg2 O3 93.80(5) 26_455 15_554
O3 Mg2 O3 86.20(5) 14_544 15_554
O3 Mg2 O3 93.80(5) 25 15_554
O3 Mg2 O3 86.20(5) 13_444 15_554
O3 Mg2 O3 180.00(6) 27_445 15_554
O3 Mg2 Ba1 44.734(17) 26_455 13_554
O3 Mg2 Ba1 135.266(17) 14_544 13_554
O3 Mg2 Ba1 98.17(4) 25 13_554
O3 Mg2 Ba1 81.83(4) 13_444 13_554
O3 Mg2 Ba1 44.736(17) 27_445 13_554
O3 Mg2 Ba1 135.264(17) 15_554 13_554
O3 Mg2 Ba1 135.266(17) 26_455 7_444
O3 Mg2 Ba1 44.734(17) 14_544 7_444
O3 Mg2 Ba1 81.83(4) 25 7_444
O3 Mg2 Ba1 98.17(4) 13_444 7_444
O3 Mg2 Ba1 135.264(17) 27_445 7_444
O3 Mg2 Ba1 44.736(17) 15_554 7_444
Ba1 Mg2 Ba1 180.0 13_554 7_444
O3 Mg2 Ba1 98.17(4) 26_455 13_444
O3 Mg2 Ba1 81.83(4) 14_544 13_444
O3 Mg2 Ba1 44.734(17) 25 13_444
O3 Mg2 Ba1 135.266(17) 13_444 13_444
O3 Mg2 Ba1 44.736(17) 27_445 13_444
O3 Mg2 Ba1 135.264(17) 15_554 13_444
Ba1 Mg2 Ba1 77.184(2) 13_554 13_444
Ba1 Mg2 Ba1 102.816(2) 7_444 13_444
O3 Mg2 Ba1 81.83(4) 26_455 7_554
O3 Mg2 Ba1 98.17(4) 14_544 7_554
O3 Mg2 Ba1 135.266(17) 25 7_554
O3 Mg2 Ba1 44.734(17) 13_444 7_554
O3 Mg2 Ba1 135.264(17) 27_445 7_554
O3 Mg2 Ba1 44.736(17) 15_554 7_554
Ba1 Mg2 Ba1 102.816(2) 13_554 7_554
Ba1 Mg2 Ba1 77.184(2) 7_444 7_554
Ba1 Mg2 Ba1 180.0 13_444 7_554
O3 Mg2 Ba1 44.736(17) 26_455 13_544
O3 Mg2 Ba1 135.264(17) 14_544 13_544
O3 Mg2 Ba1 44.736(17) 25 13_544
O3 Mg2 Ba1 135.264(17) 13_444 13_544
O3 Mg2 Ba1 98.17(4) 27_445 13_544
O3 Mg2 Ba1 81.83(4) 15_554 13_544
Ba1 Mg2 Ba1 77.184(1) 13_554 13_544
Ba1 Mg2 Ba1 102.816(2) 7_444 13_544
Ba1 Mg2 Ba1 77.184(2) 13_444 13_544
Ba1 Mg2 Ba1 102.816(2) 7_554 13_544
O3 Mg2 Ba1 135.264(17) 26_455 7_454
O3 Mg2 Ba1 44.736(17) 14_544 7_454
O3 Mg2 Ba1 135.264(17) 25 7_454
O3 Mg2 Ba1 44.736(17) 13_444 7_454
O3 Mg2 Ba1 81.83(4) 27_445 7_454
O3 Mg2 Ba1 98.17(4) 15_554 7_454
Ba1 Mg2 Ba1 102.816(2) 13_554 7_454
Ba1 Mg2 Ba1 77.184(1) 7_444 7_454
Ba1 Mg2 Ba1 102.816(2) 13_444 7_454
Ba1 Mg2 Ba1 77.184(2) 7_554 7_454
Ba1 Mg2 Ba1 180.0 13_544 7_454
C4 O3 Mg2 139.88(12) 1_665 7
C4 O3 Ba1 94.57(5) 1_665 13_554
Mg2 O3 Ba1 105.76(3) 7 13_554
C4 O3 Ba1 94.57(5) 1_665 13_654
Mg2 O3 Ba1 105.76(3) 7 13_654
Ba1 O3 Ba1 117.06(4) 13_554 13_654
O3 C4 O3 119.852(14) 1_445 2_655
O3 C4 O3 119.852(14) 1_445 3_565
O3 C4 O3 119.852(14) 2_655 3_565
O3 C4 Ba1 62.78(5) 1_445 13_444
O3 C4 Ba1 149.26(12) 2_655 13_444
O3 C4 Ba1 62.78(5) 3_565 13_444
O3 C4 Ba1 149.26(12) 1_445 13_554
O3 C4 Ba1 62.78(5) 2_655 13_554
O3 C4 Ba1 62.78(5) 3_565 13_554
Ba1 C4 Ba1 99.09(4) 13_444 13_554
O3 C4 Ba1 62.78(5) 1_445 13_544
O3 C4 Ba1 62.78(5) 2_655 13_544
O3 C4 Ba1 149.26(12) 3_565 13_544
Ba1 C4 Ba1 99.09(4) 13_444 13_544
Ba1 C4 Ba1 99.09(4) 13_554 13_544
loop_
_geom_bond_atom_site_label_1
_geom_bond_atom_site_label_2
_geom_bond_distance
_geom_bond_site_symmetry_2
Ba1 O3 2.9433(7) 31
Ba1 O3 2.9433(7) 7_445
Ba1 O3 2.9433(7) 32_455
Ba1 O3 2.9433(7) 8_545
Ba1 O3 2.9433(7) 33_435
Ba1 O3 2.9433(7) 9_565
Ba1 O3 2.9433(7) 33_545
Ba1 O3 2.9433(7) 9_455
Ba1 O3 2.9433(7) 32_445
Ba1 O3 2.9433(7) 8
Ba1 O3 2.9433(7) 7_345
Ba1 O3 2.9433(7) 31_655
Mg2 O3 2.0598(11) 26_455
Mg2 O3 2.0598(11) 14_544
Mg2 O3 2.0598(11) 25
Mg2 O3 2.0598(11) 13_444
Mg2 O3 2.0598(11) 27_445
Mg2 O3 2.0598(11) 15_554
Mg2 Ba1 4.02463(8) 13_554
Mg2 Ba1 4.02463(8) 7_444
Mg2 Ba1 4.02463(7) 13_444
Mg2 Ba1 4.02463(7) 7_554
Mg2 Ba1 4.02465(8) 13_544
Mg2 Ba1 4.02465(8) 7_454
O3 C4 1.2747(11) 1_665
O3 Mg2 2.0598(11) 7
O3 Ba1 2.9433(7) 13_554
O3 Ba1 2.9433(7) 13_654
C4 O3 1.2746(11) 1_445
C4 O3 1.2746(11) 2_655
C4 O3 1.2746(11) 3_565
C4 Ba1 3.2993(9) 13_444
C4 Ba1 3.2993(9) 13_554
C4 Ba1 3.2993(9) 13_544
