#------------------------------------------------------------------------------
#$Date: 2019-12-26 20:51:09 +0200 (Thu, 26 Dec 2019) $
#$Revision: 246083 $
#$URL: file:///home/coder/svn-repositories/cod/cif/2/31/16/2311688.cif $
#------------------------------------------------------------------------------
#
# This file is available in the Crystallography Open Database (COD),
# http://www.crystallography.net/. The original data for this entry
# were provided by IUCr Journals, http://journals.iucr.org/.
#
# The file may be used within the scientific community so long as
# proper attribution is given to the journal article from which the
# data were obtained.
#
data_2311688
loop_
_publ_author_name
'Rychkov, Denis'
'Arkhipov, Sergey'
'Boldyreva, Elena'
_publ_section_title
;
 Structure-forming units of amino acid maleates. Case study of L-valinium
 hydrogen maleate.
;
_journal_coeditor_code           XK5024
_journal_issue                   'Pt 1'
_journal_name_full
'Acta crystallographica Section B, Structural science, crystal engineering and materials'
_journal_page_first              160
_journal_page_last               163
_journal_paper_doi               10.1107/S2052520615021022
_journal_volume                  72
_journal_year                    2016
_chemical_formula_moiety         'C4 H4 O4'
_chemical_formula_sum            'C4 H4 O4'
_chemical_formula_weight         116.07
_chemical_name_systematic        'maleic acid'
_space_group_crystal_system      monoclinic
_space_group_IT_number           14
_space_group_name_Hall           '-P 2ybc'
_space_group_name_H-M_alt        'P 1 21/c 1'
_atom_sites_solution_hydrogens   geom
_audit_creation_method
;
Olex2 1.2
(compiled 2015.09.30 svn.r3233 for OlexSys, GUI svn.r5103)
;
_cell_angle_alpha                90
_cell_angle_beta                 119.405(8)
_cell_angle_gamma                90
_cell_formula_units_Z            4
_cell_length_a                   7.1511(8)
_cell_length_b                   10.1107(11)
_cell_length_c                   7.6405(10)
_cell_measurement_temperature    298
_cell_volume                     481.26(11)
_computing_molecular_graphics    'Olex2 (Dolomanov et al., 2009)'
_computing_publication_material  'Olex2 (Dolomanov et al., 2009)'
_computing_structure_refinement  'ShelXL (Sheldrick, 2015)'
_computing_structure_solution    'ShelXS (Sheldrick, 2008)'
_diffrn_ambient_temperature      298.0
_diffrn_detector_area_resol_mean 6.67
_diffrn_measured_fraction_theta_full 0.999
_diffrn_measured_fraction_theta_max 0.999
_diffrn_measurement_device       '2-circle goniometer'
_diffrn_measurement_device_type  'STOE IPDS II'
_diffrn_measurement_method       'rotation method'
_diffrn_radiation_monochromator  'plane graphite'
_diffrn_radiation_type           MoK\a
_diffrn_radiation_wavelength     0.71073
_diffrn_reflns_av_R_equivalents  0.0712
_diffrn_reflns_limit_h_max       7
_diffrn_reflns_limit_h_min       -8
_diffrn_reflns_limit_k_max       12
_diffrn_reflns_limit_k_min       -12
_diffrn_reflns_limit_l_max       9
_diffrn_reflns_limit_l_min       -9
_diffrn_reflns_number            3499
_diffrn_reflns_theta_full        25.242
_diffrn_reflns_theta_max         26.353
_diffrn_reflns_theta_min         3.270
_exptl_absorpt_coefficient_mu    0.148
_exptl_absorpt_correction_type   none
_exptl_crystal_colour            'clear light colourless'
_exptl_crystal_density_diffrn    1.602
_exptl_crystal_description       block
_exptl_crystal_F_000             240
_exptl_crystal_size_max          0.25
_exptl_crystal_size_mid          0.2
_exptl_crystal_size_min          0.15
_refine_diff_density_max         0.163
_refine_diff_density_min         -0.209
_refine_ls_extinction_method     none
_refine_ls_goodness_of_fit_ref   0.842
_refine_ls_hydrogen_treatment    constr
_refine_ls_matrix_type           full
_refine_ls_number_parameters     75
_refine_ls_number_reflns         979
_refine_ls_number_restraints     0
_refine_ls_restrained_S_all      0.842
_refine_ls_R_factor_all          0.0784
_refine_ls_R_factor_gt           0.0416
_refine_ls_shift/su_max          0.000
_refine_ls_shift/su_mean         0.000
_refine_ls_structure_factor_coef Fsqd
_refine_ls_weighting_details
'w=1/[\s^2^(Fo^2^)+(0.0615P)^2^] where P=(Fo^2^+2Fc^2^)/3'
_refine_ls_weighting_scheme      calc
_refine_ls_wR_factor_gt          0.0944
_refine_ls_wR_factor_ref         0.1066
_reflns_number_gt                541
_reflns_number_total             979
_reflns_threshold_expression     'I > 2\s(I)'
_cod_data_source_file            xk5024sup1.cif
_cod_data_source_block           maleicacid
_cod_original_cell_volume        481.26(10)
_cod_database_code               2311688
_shelx_space_group_comment
;
The symmetry employed for this shelxl refinement is uniquely defined
by the following loop, which should always be used as a source of
symmetry information in preference to the above space-group names.
They are only intended as comments.
;
_shelx_hkl_file
;
   7   2   0   13.17   18.25   4 0.27635 0.52257 0.76586-0.62475 0.64148-0.24885
   5  -1   3   17.81   27.85   7 0.26154 0.46732 0.75313-0.82264 0.65430-0.05265
   3   7  -4   26.08   13.92   3 0.27790-0.14531 0.76717-0.27482 0.64008-0.89937
   2   2  -2 4495.66   41.40   3 0.27895-0.15503 0.76805-0.62688 0.63914-0.74130
   1  -3   4  758.03   27.80   3 0.27755 0.04703 0.76688-0.97743 0.64040-0.15635
   1  -3   7    8.30   18.45   3 0.27660 0.20427 0.76607-0.97633 0.64125 0.16213
   0   7  -3  296.05   19.35   3 0.27849-0.43462 0.76766-0.27591 0.63956-0.96026
   0  -3   8    1.36   19.97   3 0.27546 0.14435 0.76511-0.97600 0.64228 0.21291
  -4  -2   6  165.94   15.42   3 0.27768-0.42066 0.76699-0.90699 0.64028-0.22390
  -4  -2  10   -6.24   17.70   3 0.27995-0.21223 0.76889-0.91003 0.63824 0.20603
  -6   2   4  131.52   15.02   3 0.27684-0.75137 0.76628-0.62599 0.64104-0.55058
  -7   1   7   -1.20   12.98   3 0.27963-0.71193 0.76862-0.69810 0.63852-0.28361
  -8   3   7  -13.43   16.26   3 0.27995-0.82672 0.76889-0.55732 0.63824-0.33951
   8   6  -2    9.24   18.01   5 0.27125 0.53560 0.76154-0.33918 0.64598-0.41076
   7   6  -3    2.21   15.33   3 0.27551 0.36980 0.76515-0.34173 0.64223-0.57113
   7   4  -2    2.52   13.99   4 0.27530 0.41888 0.76497-0.48266 0.64242-0.46440
   6   8  -4   67.73   16.03   4 0.27295 0.20266 0.76298-0.20082 0.64449-0.73549
   5   7  -4    4.61   15.35   4 0.27231 0.08851 0.76244-0.26998 0.64505-0.79184
   5   4  -3   96.96   13.82   4 0.27349 0.14012 0.76344-0.48181 0.64402-0.68479
   5   1  -1   85.79   14.61   4 0.27366 0.24503 0.76359-0.69244 0.64386-0.47087
   2   9  -4   26.70   16.15   4 0.27341-0.25483 0.76338-0.13111 0.64409-0.95977
   0  -3   4  174.65   15.98   4 0.27450-0.06345 0.76430-0.97524 0.64312-0.21572
  -3  -1   3    6.92   10.87   3 0.27491-0.45952 0.76464-0.83454 0.64277-0.49036
  -6   6   2   30.08   20.52   5 0.26955-0.84939 0.76008-0.33748 0.64746-0.77041
  -6   0   6  635.84   19.62   4 0.27460-0.64407 0.76438-0.76454 0.64304-0.33741
  -6  -1   9    7.15   16.43   3 0.27541-0.48776 0.76507-0.83476 0.64232-0.01700
  -6  -1  10   11.36   18.78   4 0.27278-0.43299 0.76284-0.83303 0.64464 0.08739
  -7   7   3   17.23   22.60   5 0.26888-0.91138 0.75950-0.26691 0.64804-0.72021
  -7   0  10    9.88   20.03   4 0.27257-0.54717 0.76266-0.76298 0.64483 0.03118
  -8   4   6   -1.17   16.26   4 0.27572-0.87515 0.76533-0.48315 0.64204-0.45031
  -8   2   8   -4.58   18.52   4 0.27324-0.76683 0.76323-0.62193 0.64424-0.23850
   7   3  -1    4.16   17.17   4 0.27077 0.47956 0.76113-0.54999 0.64640-0.36022
   6   3  -2   15.12   11.86   5 0.27084 0.30947 0.76118-0.55013 0.64634-0.52377
   6   1   0   93.31   16.48   5 0.26777 0.41790 0.75855-0.68818 0.64900-0.31152
   4   7  -4   -3.25   12.94   5 0.27061-0.02341 0.76099-0.26751 0.64654-0.85069
   2  12  -4    6.07   18.20   5 0.26861-0.25005 0.75927 0.08433 0.64828-0.96308
  -2  -3   9   -6.69   20.52   5 0.26869-0.02554 0.75934-0.96957 0.64821 0.19958
  -3   0   2   -0.93   10.75   5 0.27082-0.50786 0.76117-0.76062 0.64635-0.60161
  -3  -3   8   28.75   17.58   5 0.26856-0.19126 0.75923-0.96979 0.64832 0.03800
  -4   0   3   -1.83   11.15   5 0.27082-0.56968 0.76117-0.76064 0.64635-0.55083
  -6  -1   8   -8.91   16.86   5 0.26932-0.53523 0.75989-0.83061 0.64765-0.12902
  -7   0   9   -0.99   17.36   5 0.27125-0.59843 0.76154-0.76154 0.64598-0.07708
   8   5  -1   18.07   20.38   6 0.26457 0.59791 0.75578-0.40365 0.65173-0.30973
   8   4   0    2.53   21.50   6 0.26547 0.64583 0.75656-0.47424 0.65097-0.20414
   6   9  -4   -8.06   17.83   6 0.26504 0.20972 0.75619-0.12286 0.65133-0.74211
   6   5  -3    4.07   12.77   6 0.26611 0.26159 0.75712-0.40529 0.65042-0.63470
   4   2  -2 1169.58   21.98   6 0.26644 0.08610 0.75740-0.61649 0.65014-0.63956
   4  -1   1  110.32   19.05   7 0.26105 0.24865 0.75271-0.82239 0.65470-0.32371
   3   4  -3 1639.67   24.56   6 0.26665-0.08097 0.75758-0.47635 0.64997-0.80250
   2  11  -4   -2.28   15.56   6 0.26676-0.24837 0.75768 0.01738 0.64987-0.96570
   2  10  -4   25.93   15.70   5 0.26747-0.24899 0.75829-0.05464 0.64926-0.96466
   2  -3   5    3.04   19.56   6 0.26307 0.22733 0.75447-0.96418 0.65301-0.00740
   0  -2   2 6172.13   60.48   6 0.26528-0.15864 0.75639-0.89715 0.65114-0.43704
  -1  -3   9    9.29   20.71   6 0.26390 0.09427 0.75519-0.96661 0.65231 0.25389
  -3  -3   7   -5.59   12.88   6 0.26676-0.24210 0.75768-0.96867 0.64987-0.07070
  -4   3   1   22.78   15.73   6 0.26357-0.66746 0.75490-0.54419 0.65259-0.77047
  -4  -1   4    5.31   11.76   6 0.26707-0.51399 0.75794-0.82838 0.64961-0.44631
  -5   3   2   64.80   17.70   6 0.26362-0.72905 0.75494-0.54447 0.65255-0.71920
  -5  -2   8    3.00   16.06   6 0.26498-0.41640 0.75613-0.89734 0.65140-0.07711
  -5  -2   9   -0.17   15.28   6 0.26697-0.36572 0.75786-0.89867 0.64968 0.03138
   6  10  -4   15.21   16.80   6 0.26261 0.21313 0.75407-0.05002 0.65339-0.74542
   6   2  -1   31.11   13.84   7 0.26002 0.37259 0.75179-0.61116 0.65558-0.42544
   5   8  -4   12.95   14.15   6 0.26234 0.09926 0.75383-0.19050 0.65362-0.80213
   4   4  -3   25.49   11.96   6 0.26296 0.03615 0.75437-0.47294 0.65310-0.74921
   3   8  -4   73.95   12.60   6 0.26365-0.12849 0.75497-0.19337 0.65252-0.91048
   3   2  -2  468.28   16.42   7 0.26164-0.02332 0.75321-0.61250 0.65422-0.69981
  -2  -1   2    7.26   13.79   7 0.26052-0.38420 0.75224-0.82285 0.65514-0.55337
  -2  -3   5   11.92   10.75   7 0.26171-0.22767 0.75328-0.96390 0.65415-0.23203
  -3  -3   9    2.92   17.95   8 0.25836-0.12618 0.75034-0.96404 0.65694 0.14182
  -5  -2  10    5.34   18.87   7 0.26139-0.30750 0.75300-0.89353 0.65442 0.13405
  -7   4   4   19.06   15.39   7 0.26094-0.85106 0.75261-0.47096 0.65480-0.61989
  -7   0   8   13.88   14.60   6 0.26244-0.64161 0.75391-0.75365 0.65355-0.19094
   8   7  -2   -2.23   17.27   8 0.25903 0.55275 0.75024-0.25416 0.65721-0.41941
   7   7  -3   27.04   15.36   7 0.25904 0.38573 0.75025-0.25552 0.65721-0.58206
   4   8  -4   35.12   13.03   8 0.25844-0.00918 0.74973-0.18514 0.65769-0.85975
   2  -3   6    3.97   19.71   9 0.25199 0.29272 0.74399-0.95360 0.66288 0.09195
   0   8  -3   23.37   15.13   8 0.25699-0.41354 0.74844-0.18615 0.65888-0.97937
  -2  12  -2   66.35   22.47   8 0.25597-0.58979 0.74754 0.09953 0.65969-0.98797
  -2   9  -2  106.27   19.84   8 0.25565-0.58770 0.74726-0.11599 0.65995-0.98660
  -3  -2   4  215.75   13.75   8 0.25772-0.38985 0.74909-0.89073 0.65828-0.39928
  -5   0   4    3.31   12.18   9 0.25536-0.61996 0.74700-0.74934 0.66018-0.51464
  -6  -1   7   -0.16   14.52   8 0.25645-0.57548 0.74797-0.81960 0.65931-0.25009
  -8   5   5   -1.65   19.95   8 0.25623-0.90852 0.74777-0.39711 0.65948-0.57698
  -8   1   9   -4.91   17.18   8 0.25827-0.70080 0.74957-0.68051 0.65783-0.14755
   7   5  -2   37.35   16.98   9 0.25179 0.44738 0.74381-0.38891 0.66289-0.48075
   7   2   1    3.05   18.18   8 0.25428 0.60273 0.74604-0.60279 0.66090-0.15780
   5   9  -4   12.51   14.67   9 0.25430 0.11006 0.74604-0.11066 0.66090-0.80560
   3  12  -4   -2.62   17.39   9 0.25452-0.11876 0.74624 0.10052 0.66072-0.91828
   3  11  -4    0.38   18.66   9 0.25189-0.11616 0.74389 0.03337 0.66282-0.92117
   3  10  -4   -9.04   15.72   9 0.25204-0.11663 0.74402-0.03786 0.66270-0.92117
   3   9  -4   -0.26   14.49   9 0.25506-0.11988 0.74672-0.11148 0.66028-0.91754
   0  13  -3   -9.32   22.90   9 0.25285-0.40816 0.74474 0.17039 0.66206-0.98147
  -1  -3   4  158.35   13.20   8 0.25416-0.15759 0.74593-0.95712 0.66100-0.28993
  -3  -3   6   23.70   12.56   8 0.25473-0.28275 0.74642-0.95854 0.66056-0.18835
  -5  -2   7   -0.29   13.59   9 0.25485-0.45980 0.74653-0.88935 0.66046-0.19451
  -7   1   6   13.03   14.79   9 0.25121-0.73859 0.74328-0.67542 0.66336-0.41662
  -8   8   4    6.70   26.63   9 0.25117-0.95329 0.74324-0.18323 0.66339-0.68622
  -8   2   7  -11.25   18.48   9 0.25181-0.79937 0.74383-0.60510 0.66287-0.36698
   8   6  -1    3.53   21.79   9 0.24969 0.62176 0.74205-0.31545 0.66445-0.31846
   7   8  -3   12.59   15.77  10 0.24951 0.39644 0.74188-0.17616 0.66460-0.58954
   6   6  -3   32.58   15.01  10 0.24658 0.28415 0.73923-0.31470 0.66688-0.64839
   5  11  -4   -8.79   15.81  10 0.25044 0.11436 0.74272 0.03390 0.66386-0.80824
   5  10  -4    5.70   15.04  10 0.25046 0.11385 0.74274-0.03725 0.66384-0.80834
   4  12  -4   23.60   19.55  10 0.25010 0.00027 0.74242 0.10390 0.66412-0.86582
   4  11  -4   -6.48   19.50  10 0.24741 0.00319 0.73998 0.03755 0.66624-0.86841
   4  10  -4  111.46   18.77  10 0.24699 0.00292 0.73960-0.03482 0.66656-0.86855
   4   9  -4   14.20   12.91  10 0.24994-0.00035 0.74227-0.10748 0.66426-0.86557
   2   5  -3   93.09   13.46  10 0.24800-0.17531 0.74052-0.38884 0.66577-0.87335
   1   6  -3  214.81   13.22   9 0.25020-0.29155 0.74250-0.32094 0.66405-0.92777
   1  -3   8   -2.24   20.95   9 0.24925 0.28511 0.74164-0.95024 0.66480 0.24493
  -2  11  -2   -0.12   19.88  11 0.24422-0.57589 0.73709 0.03553 0.66869-0.99450
  -2  10  -2   14.03   19.14  11 0.24426-0.57611 0.73712-0.03500 0.66867-0.99457
  -2  -2   3 1084.39   21.58   9 0.24980-0.32024 0.74215-0.88385 0.66436-0.45605
  -3  -3  10  -11.27   22.17  10 0.24733-0.06493 0.73991-0.95102 0.66630 0.23284
  -4   1   2   52.15   14.08  10 0.24663-0.59844 0.73928-0.67113 0.66684-0.67812
  -4  -2   5  145.84   12.81  10 0.24936-0.44485 0.74175-0.88325 0.66471-0.35615
  -4  -3   8   -1.25   14.28  10 0.24763-0.28492 0.74018-0.95241 0.66607-0.03644
  -5  -1   5   -6.80   11.22  10 0.25055-0.56100 0.74282-0.81525 0.66377-0.41203
  -6   3   3   10.39   15.12  11 0.24584-0.77558 0.73856-0.52966 0.66745-0.68561
  -7   2   5    6.85   15.98  11 0.24615-0.78586 0.73885-0.60093 0.66721-0.52783
  -8   3   6   -8.72   17.31  10 0.24770-0.84773 0.74024-0.53120 0.66601-0.47686
   7   9  -3   12.01   17.11  11 0.24299 0.40165 0.73590-0.10082 0.66992-0.59533
   5   5  -3   45.27   11.94  10 0.24598 0.16998 0.73862-0.38527 0.66762-0.70584
   2  -3   4  986.87   37.17  11 0.24132 0.19632 0.73436-0.94431 0.67120-0.13099
   1   3  -2 1020.69   23.61  11 0.24303-0.23285 0.73593-0.52488 0.66990-0.82730
   1   1  -1    4.95   11.92  11 0.24579-0.18377 0.73845-0.66780 0.66777-0.71830
   0  12  -3  166.82   19.89  11 0.24478-0.39968 0.73754 0.10629 0.66854-0.98923
   0   9  -3   15.97   15.02  11 0.24386-0.39982 0.73669-0.10380 0.66926-0.98958
  -4  -3   9    5.69   16.00  11 0.24546-0.23011 0.73815-0.95111 0.66802 0.07028
  -5   1   3    6.18   12.51  11 0.24469-0.65828 0.73745-0.66830 0.66862-0.62926
  -7   0   7   17.56   16.14  11 0.24375-0.67708 0.73660-0.73857 0.66933-0.31455
  -8   1   8   -5.55   18.48  11 0.24355-0.73867 0.73641-0.66815 0.66949-0.26517
   7   2   2    0.96   20.67  14 0.23382 0.66945 0.72738-0.58358 0.67695-0.06966
   6   4  -2   19.11   14.35  12 0.23808 0.34381 0.73133-0.44786 0.67379-0.54932
   5   3  -2   66.23   12.35  12 0.24049 0.22799 0.73356-0.52202 0.67197-0.60318
   4   1  -1   87.36   14.43  12 0.23803 0.16748 0.73128-0.65979 0.67383-0.55495
   0  11  -3    8.47   18.15  12 0.24020-0.39619 0.73329 0.04105 0.67219-0.99350
   0  10  -3   11.60   16.37  12 0.23835-0.39402 0.73158-0.02816 0.67359-0.99370
   0   4  -2 1959.44   31.36  12 0.24007-0.34381 0.73317-0.45232 0.67229-0.88580
  -3   7  -1  279.11   30.77  15 0.22390-0.61753 0.71801-0.22680 0.68410-0.95981
  -4  -3   7    5.82   14.39  13 0.23764-0.32852 0.73093-0.94543 0.67412-0.14825
  -7   6   3    9.25   19.19  12 0.24002-0.88104 0.73313-0.31287 0.67232-0.74480
  -7  -1  10   -3.30   19.07  12 0.24127-0.51580 0.73428-0.80607 0.67138 0.00420
   7   4  -1   13.21   16.56  12 0.23726 0.51180 0.73060-0.44685 0.67454-0.38699
   7   3   0    3.32   17.78  12 0.23649 0.56595 0.72989-0.51672 0.67511-0.28054
  -4  -3  10    8.09   17.14  12 0.23733-0.16903 0.73067-0.94215 0.67448 0.17090
  -6   0   5    9.03   12.11  13 0.23707-0.66057 0.73042-0.73201 0.67468-0.47732
  -6  -2   9  -12.00   15.24  13 0.23704-0.45021 0.73040-0.87243 0.67470-0.04958
  -6  -2  10    3.83   17.71  13 0.23704-0.39735 0.73040-0.87201 0.67470 0.05744
  -7  -1   9   -9.54   16.70  13 0.23749-0.56514 0.73081-0.80291 0.67437-0.10551
  -9   4   7   18.77   19.46  13 0.23473-0.89532 0.72825-0.44883 0.67642-0.43367
   7   6  -2   12.15   16.13  14 0.23266 0.46407 0.72611-0.30173 0.67798-0.49705
   6   7  -3   14.05   15.32  13 0.23279 0.29732 0.72623-0.23185 0.67789-0.66039
   4   5  -3   50.13   12.28  13 0.23359 0.06738 0.72698-0.37381 0.67729-0.77227
   4   0   0 1326.86   28.89  14 0.22830 0.22994 0.72201-0.72043 0.68114-0.45597
   3   5  -3    0.85   11.02  14 0.23282-0.04635 0.72626-0.37298 0.67786-0.82964
  -2   0   1   -3.20   12.78  14 0.23044-0.40627 0.72403-0.72401 0.67959-0.68600
  -5  -2   6   27.85   12.23  13 0.23307-0.49009 0.72649-0.86871 0.67768-0.31713
  -6  -1   6   -3.09   13.65  14 0.23036-0.60135 0.72396-0.79546 0.67964-0.37633
  -8   7   4    7.18   20.30  14 0.23009-0.93247 0.72371-0.23355 0.67984-0.70186
   6   1   1   85.87   18.21  15 0.22586 0.51313 0.71946-0.64713 0.68287-0.23730
   5   6  -3   48.69   14.13  15 0.22563 0.18955 0.71925-0.29593 0.68303-0.72181
   2  -3   7    3.64   22.70  16 0.22031 0.37768 0.71417-0.92490 0.68675 0.17638
   1   7  -3  618.84   19.38  15 0.22621-0.26822 0.71979-0.22740 0.68263-0.94695
  -1   6  -2  413.74   21.08  16 0.22268-0.44109 0.71643-0.29523 0.68511-0.95496
  -1  -4   7   24.53   16.18  15 0.22409 0.02939 0.71778-0.99945 0.68412 0.00877
  -3  -3   5   39.13   10.89  14 0.22791-0.30839 0.72141-0.93326 0.68141-0.31532
  -6   1   4    3.92   11.05  14 0.22862-0.70498 0.72208-0.65365 0.68090-0.59104
  -6  -2   8    1.86   14.62  14 0.22946-0.49548 0.72286-0.86546 0.68030-0.16215
  -7  -1   8  -13.54   15.81  15 0.22602-0.60680 0.71962-0.79237 0.68275-0.22164
  -8   4   5   12.29   17.97  15 0.22584-0.87930 0.71944-0.44008 0.68289-0.59886
  -8   0   9   -1.92   16.48  15 0.22722-0.66917 0.72075-0.72311 0.68190-0.16948
   6   8  -3   16.93   15.60  15 0.22362 0.30725 0.71737-0.15202 0.68438-0.66698
   5   0   1   -2.64   16.99  16 0.21971 0.40583 0.71364-0.71199 0.68709-0.29787
   1  13  -3   10.71   19.92  15 0.22223-0.26329 0.71606 0.20152 0.68534-0.95098
  -2  -3   4 1486.70   24.98  16 0.22085-0.23804 0.71474-0.92693 0.68630-0.37076
  -2  -4   7   -2.05   17.11  16 0.22114-0.08252 0.71501-0.99676 0.68611-0.05105
  -2  -4   8   -8.67   18.07  16 0.22114-0.03002 0.71501-0.99645 0.68611 0.05579
  -5   5   1   31.59   21.00  18 0.21321-0.73118 0.70736-0.35716 0.69150-0.86692
  -5  -3   9   -6.11   15.85  16 0.22387-0.32314 0.71762-0.93070 0.68420-0.00321
  -5  -3  10    4.91   21.38  15 0.22353-0.26912 0.71730-0.92663 0.68443 0.10028
  -6   5   2   78.30   18.67  17 0.21845-0.79886 0.71242-0.36302 0.68797-0.81248
  -7   3   4    3.73   13.89  16 0.22316-0.81356 0.71694-0.50806 0.68470-0.65138
   7   7  -2   -0.26   16.61  17 0.21949 0.47747 0.71364-0.21772 0.68706-0.50654
   6  10  -3   22.59   19.59  17 0.21674 0.31520 0.71099-0.00407 0.68894-0.67183
   6   9  -3  -13.67   16.81  17 0.21847 0.31280 0.71267-0.07622 0.68775-0.67089
   6   3  -1   49.41   12.73  17 0.21872 0.41614 0.71290-0.50120 0.68759-0.45531
   4   3  -2 1354.17   24.11  17 0.21636 0.13732 0.71064-0.49833 0.68919-0.67740
   2   6  -3  364.65   14.09  17 0.21913-0.14628 0.71331-0.29107 0.68730-0.89509
  -1  -4   6   47.44   15.85  16 0.21875-0.01845 0.71294-0.99396 0.68756-0.10263
  -1  -4   8   11.08   19.91  18 0.21471 0.09184 0.70904-0.99270 0.69031 0.11105
  -3   1   1  130.77   14.94  17 0.21739-0.50765 0.71162-0.64267 0.68850-0.75012
  -4  -3   6   92.94   12.93  16 0.22024-0.36274 0.71437-0.92692 0.68653-0.27033
  -5  -3   8   -8.91   14.93  17 0.21937-0.37125 0.71354-0.92645 0.68713-0.11301
  -8   2   6   18.25   17.89  17 0.21716-0.81425 0.71141-0.57275 0.68864-0.49733
  -8   1   7    5.91   15.63  16 0.21971-0.76621 0.71386-0.64537 0.68690-0.38854
  -9   5   6  -11.39   22.11  17 0.21610-0.92762 0.71038-0.35998 0.68937-0.55493
   7   5  -1   19.79   19.77  19 0.21150 0.53579 0.70606-0.35217 0.69235-0.40446
   6   5  -2   97.32   13.07  18 0.21369 0.36926 0.70820-0.35687 0.69088-0.56529
   6   2   0   10.17   15.71  18 0.21274 0.47515 0.70727-0.56459 0.69152-0.35300
   5   2  -1   18.75   11.00  18 0.21444 0.30561 0.70892-0.56638 0.69039-0.51538
   4   6  -3  151.56   14.48  18 0.21192 0.09042 0.70647-0.28445 0.69207-0.78644
   3   1  -1  142.09   14.53  18 0.21277 0.07847 0.70731-0.63592 0.69150-0.62927
   1  12  -3   -9.46   20.25  18 0.21158-0.25282 0.70614 0.14094 0.69230-0.95786
   1   8  -3  267.83   15.94  18 0.21031-0.25045 0.70490-0.14291 0.69314-0.95689
   1  -3   3    5.32   14.52  19 0.20853 0.06336 0.70315-0.91392 0.69432-0.31668
   0  -3   3   26.58   12.71  18 0.21046-0.05383 0.70505-0.91575 0.69304-0.37255
   0  -4   6   24.40   18.71  17 0.21326 0.10151 0.70777-0.98785 0.69118-0.04928
   0  -4   7    9.52   17.22  18 0.21208 0.15512 0.70663-0.98713 0.69196 0.05636
  -3  -4   8   17.04   16.00  18 0.21226-0.13513 0.70680-0.98881 0.69184-0.00460
  -6  -2   7    3.62   14.29  18 0.21327-0.53053 0.70779-0.84927 0.69117-0.28069
  -7   0   6   -4.77   15.04  19 0.21026-0.69881 0.70485-0.70826 0.69317-0.44538
  -8   0   8   -4.99   19.51  18 0.21188-0.70556 0.70643-0.70835 0.69210-0.28782
  -9   2   8   -9.56   19.35  18 0.21249-0.82231 0.70702-0.56847 0.69170-0.34323
   7   8  -2   14.98   18.76  18 0.21069 0.48689 0.70544-0.13962 0.69274-0.51164
   7   3   1   10.06   18.16  19 0.20709 0.64508 0.70191-0.48798 0.69511-0.19382
   5   7  -3   45.61   14.66  19 0.21031 0.20517 0.70506-0.21083 0.69300-0.73123
   3   6  -3    5.60   10.87  19 0.20842-0.02155 0.70322-0.27990 0.69424-0.84612
   2   3  -2    5.16   13.34  19 0.20775-0.08344 0.70255-0.49076 0.69469-0.79587
  -2  -4   6   52.70   14.07  19 0.20902-0.12290 0.70380-0.98547 0.69385-0.16449
  -2  -4   9    1.37   17.04  19 0.20979 0.03415 0.70455-0.98648 0.69335 0.15676
  -3  -4   9   14.66   17.98  19 0.20693-0.07689 0.70174-0.98481 0.69522 0.10029
  -7   1   5   -4.45   15.55  19 0.20745-0.74489 0.70225-0.63382 0.69489-0.55546
  -8   6   4    8.23   20.69  21 0.20217-0.90903 0.69703-0.27688 0.69829-0.72210
  -9   3   7   -8.56   19.39  19 0.20956-0.87078 0.70433-0.49536 0.69349-0.45258
   7   9  -2    8.35   18.11  19 0.20608 0.49213 0.70109-0.06516 0.69573-0.51438
   7   4   0   31.35   17.70  20 0.20219 0.59788 0.69724-0.41334 0.69823-0.30354
   5   4  -2   53.85   11.61  20 0.20515 0.26300 0.70016-0.41774 0.69633-0.62754
   5   1   0  234.89   18.55  20 0.20304 0.36947 0.69809-0.62605 0.69768-0.41522
   3   3  -2  256.73   15.24  20 0.20301 0.03596 0.69805-0.48528 0.69771-0.74265
   2  13  -3   16.44   19.83  20 0.20338-0.12943 0.69842 0.21823 0.69747-0.90604
   2   1  -1    2.65   10.93  19 0.20626-0.02972 0.70126-0.63020 0.69561-0.68977
   1  11  -3   17.88   17.81  20 0.20298-0.24396 0.69802 0.07588 0.69773-0.96182
   1   9  -3  380.70   18.85  20 0.20225-0.24279 0.69730-0.06429 0.69819-0.96221
  -1  -2   2 1196.72   24.60  20 0.20463-0.21265 0.69965-0.84110 0.69667-0.53788
  -3  -4   7   43.21   14.78  19 0.20609-0.18182 0.70109-0.98346 0.69573-0.11580
  -5  -3   7   -0.52   13.11  20 0.20540-0.40984 0.70041-0.91308 0.69617-0.22954
  -7   5   3   -3.14   17.20  20 0.20289-0.84527 0.69793-0.34725 0.69778-0.77200
  -7  -1   7   -0.92   14.54  20 0.20494-0.63772 0.69996-0.77211 0.69647-0.34271
   6   1   2    4.46   19.65  21 0.19604 0.59758 0.69116-0.61855 0.70202-0.14865
   5  11  -3   12.53   17.83  21 0.19738 0.21911 0.69250 0.08252 0.70119-0.73923
   5   8  -3   56.74   13.65  20 0.20114 0.21474 0.69625-0.13180 0.69882-0.73714
   2   7  -3   64.73   12.51  21 0.19987-0.12745 0.69499-0.20260 0.69963-0.90803
   1  10  -3    5.29   15.34  20 0.20101-0.24240 0.69613 0.00810 0.69890-0.96394
   0  -4   8   -1.70   21.34  22 0.19658 0.22385 0.69170-0.97260 0.70168 0.15450
  -1  13  -2  -13.75   21.60  22 0.19603-0.41314 0.69115 0.22400 0.70202-0.97163
  -1  -4   9    2.24   21.48  21 0.19864 0.15999 0.69377-0.97564 0.70039 0.20712
  -3  12  -1   36.20   22.80  22 0.19210-0.58558 0.68719 0.15618 0.70443-0.98042
  -4  -2   4  534.07   17.19  21 0.20027-0.44697 0.69539-0.83764 0.69937-0.49624
  -5  -1   4  107.54   13.60  21 0.19840-0.55965 0.69353-0.76601 0.70054-0.55442
  -7  -2   9   12.31   16.66  20 0.20066-0.52822 0.69579-0.83842 0.69912-0.13045
   7   6  -1   -8.44   16.17  22 0.19569 0.55431 0.69101-0.26512 0.70208-0.41436
   7   3   2   -5.20   22.04  23 0.19150 0.71500 0.68679-0.47168 0.70465-0.09654
   6   6  -2   33.16   13.73  22 0.19540 0.38774 0.69072-0.26627 0.70226-0.57766
   5  10  -3   -8.37   16.11  22 0.19592 0.22119 0.69124 0.01504 0.70194-0.74069
   5   9  -3   85.99   16.22  21 0.19654 0.21907 0.69187-0.05696 0.70155-0.74067
   4   7  -3   10.72   12.76  21 0.19634 0.10522 0.69167-0.19780 0.70167-0.79686
   2  12  -3   14.41   19.45  22 0.19342-0.11951 0.68873 0.15790 0.70347-0.91245
   0  -4   5   -0.97   15.99  22 0.19347 0.06873 0.68878-0.96957 0.70345-0.16907
  -1  -4   5  264.34   17.35  21 0.19564-0.04834 0.69096-0.97189 0.70211-0.22410
  -4  -1   3    4.18   10.71  21 0.19625-0.49644 0.69158-0.76334 0.70173-0.60625
  -4  -4   8   11.99   16.99  22 0.19417-0.23165 0.68948-0.97250 0.70302-0.07152
  -4  -4   9    1.73   15.79  22 0.19615-0.18103 0.69147-0.97384 0.70180 0.03568
  -5   2   2  432.17   20.14  22 0.19429-0.66031 0.68960-0.55094 0.70295-0.77096
  -5  -2   5  199.09   13.07  22 0.19579-0.50512 0.69112-0.83326 0.70202-0.44944
  -6   2   3   14.33   14.63  22 0.19531-0.72355 0.69063-0.55202 0.70232-0.71951
  -6  -3   9    6.73   15.43  21 0.19559-0.40880 0.69092-0.90325 0.70214-0.07701
  -6  -3  10   -8.10   18.61  22 0.19638-0.35745 0.69170-0.90511 0.70166 0.03052
  -8   3   5    0.11   17.36  21 0.19592-0.84688 0.69124-0.48262 0.70194-0.61757
  -8  -1   9   -3.58   18.49  22 0.19378-0.63599 0.68909-0.76193 0.70326-0.19141
   4  12  -3    1.77   18.73  23 0.19140 0.11150 0.68658 0.15988 0.70479-0.79967
   3   7  -3   11.47   12.75  22 0.19152-0.00447 0.68670-0.19317 0.70472-0.85651
  -1   7  -2    8.46   16.02  24 0.18649-0.40458 0.68159-0.18959 0.70773-0.97802
  -3  -4   6   12.70   13.61  23 0.18929-0.21738 0.68445-0.96581 0.70605-0.23344
  -6  -1   5    5.83   13.47  24 0.18711-0.61193 0.68223-0.75542 0.70735-0.51073
  -9   4   6    7.28   20.24  23 0.19100-0.90361 0.68619-0.40776 0.70502-0.56982
   7   7  -1   10.20   19.25  24 0.18458 0.56717 0.67958-0.18370 0.70890-0.42042
   6   4  -1    4.88   13.67  24 0.18672 0.44847 0.68177-0.39794 0.70765-0.47590
   4  11  -3   16.90   17.68  25 0.18259 0.11866 0.67754 0.09436 0.71006-0.80268
   4   8  -3  241.65   15.36  24 0.18703 0.11594 0.68208-0.11974 0.70747-0.80162
   3  12  -3   -8.96   17.72  24 0.18706 0.00134 0.68212 0.16395 0.70744-0.85859
   2  11  -3   -2.91   17.85  24 0.18483-0.11117 0.67984 0.09471 0.70876-0.91620
   2   8  -3  463.43   15.67  23 0.18745-0.11292 0.68252-0.11963 0.70721-0.91440
  -1  -3   3  267.43   14.35  24 0.18632-0.14310 0.68137-0.89247 0.70788-0.44295
  -3   8  -1  810.42   32.48  26 0.17645-0.56943 0.67119-0.10982 0.71357-0.98955
  -3   3   0  241.91   27.10  26 0.17475-0.51691 0.66943-0.45984 0.71451-0.88352
  -3  -2   3 1554.41   23.18  23 0.18743-0.37293 0.68249-0.82473 0.70723-0.55508
  -4  -3   5   26.70   11.65  24 0.18619-0.38148 0.68123-0.89326 0.70796-0.39844
  -6  -3   8   -4.24   15.13  24 0.18614-0.45175 0.68118-0.89327 0.70799-0.19064
  -7  -2   8   -7.29   15.55  24 0.18684-0.56745 0.68188-0.82499 0.70758-0.24647
  -8   0   7  -11.06   16.56  24 0.18453-0.73201 0.67952-0.68192 0.70894-0.41149
  -9   1   8    9.30   19.12  25 0.18308-0.79378 0.67805-0.61105 0.70978-0.36025
   7   5   0   33.98   20.06  25 0.17997 0.62187 0.67491-0.32028 0.71142-0.31613
   7   4   1   13.44   18.57  25 0.17824 0.67776 0.67313-0.38852 0.71240-0.20958
   6   7  -2    9.22   13.50  25 0.18220 0.40066 0.67722-0.18228 0.71013-0.58487
   6   1   3    3.83   20.36  26 0.17704 0.66863 0.67188-0.59882 0.71308-0.05272
   6   1   4    7.14   25.08  27 0.17188 0.72313 0.66651-0.59262 0.71594 0.04959
   5   5  -2   92.83   14.83  25 0.17967 0.28927 0.67461-0.32212 0.71159-0.64232
   4  10  -3  123.82   16.27  25 0.18208 0.12134 0.67709 0.02613 0.71021-0.80458
   4   9  -3    4.31   13.85  25 0.18204 0.12006 0.67705-0.04249 0.71023-0.80475
   3  11  -3   -5.52   16.84  25 0.17995 0.00850 0.67490 0.10074 0.71143-0.86233
   3   8  -3  156.75   14.44  25 0.18151 0.00710 0.67650-0.11449 0.71053-0.86148
   2  10  -3  300.85   17.03  25 0.18164-0.10636 0.67663 0.02600 0.71046-0.91787
   2   9  -3   25.71   13.81  25 0.18196-0.10869 0.67697-0.04298 0.71027-0.91823
   1  -4   6   -5.04   21.26  26 0.17750 0.25258 0.67237-0.95351 0.71281-0.01334
   0   5  -2 1091.31   23.69  25 0.17915-0.28216 0.67407-0.32312 0.71188-0.92526
  -1  12  -2   -5.52   18.27  25 0.18109-0.39784 0.67607 0.16783 0.71078-0.98094
  -2  -4   5   -1.61   13.08  25 0.18011-0.14668 0.67506-0.95748 0.71134-0.28925
  -3  11  -1   23.48   23.60  26 0.17447-0.56754 0.66921 0.10258 0.71452-0.99034
  -3  -3   4  280.60   15.98  25 0.17931-0.31211 0.67424-0.88624 0.71179-0.45329
  -4  -4   7   10.28   12.67  24 0.18289-0.27321 0.67792-0.96117 0.70974-0.18585
  -5   0   3    0.59   12.09  26 0.17776-0.59519 0.67263-0.67548 0.71267-0.67437
  -5  -3   6   39.27   13.57  25 0.17960-0.43802 0.67454-0.88666 0.71162-0.35271
  -6  -2   6   21.86   13.07  24 0.18238-0.55389 0.67740-0.82050 0.71003-0.40624
  -7   2   4   22.12   14.54  25 0.18202-0.77228 0.67703-0.53911 0.71023-0.67695
  -8   5   4   16.09   19.80  25 0.17851-0.88174 0.67341-0.32499 0.71224-0.73514
  -8   1   6   13.21   14.48  25 0.18118-0.78067 0.67616-0.60884 0.71072-0.51968
  -9   2   7   -9.47   18.48  25 0.18181-0.84303 0.67681-0.53856 0.71036-0.46944
   7   8  -1   -1.03   18.63  26 0.17692 0.57453 0.67189-0.10467 0.71292-0.42474
   6   8  -2  -12.82   16.50  26 0.17509 0.40863 0.67000-0.10369 0.71394-0.58885
   4   4  -2  348.22   14.62  25 0.17793 0.17565 0.67293-0.39051 0.71236-0.69993
   3  10  -3   38.04   13.71  26 0.17680 0.01145 0.67176 0.03312 0.71300-0.86470
   3   9  -3   13.04   12.90  26 0.17687 0.01106 0.67184-0.03733 0.71295-0.86467
   1   4  -2  263.81   14.10  25 0.17741-0.16667 0.67238-0.39111 0.71266-0.86981
   1  -4   7    1.65   22.39  27 0.17118 0.31131 0.66589-0.94629 0.71612 0.09007
  -1  -1   1    2.84   12.17  26 0.17668-0.23877 0.67164-0.74240 0.71306-0.66247
  -5  -4   9    6.91   17.63  25 0.17732-0.27642 0.67230-0.95493 0.71271-0.03134
  -6   0   4   47.04   11.60  26 0.17746-0.65394 0.67245-0.67516 0.71262-0.62326
  -8  -1   8    7.44   14.99  25 0.17700-0.67075 0.67196-0.74473 0.71289-0.30777
   6  10  -2   -5.03   17.53  27 0.17247 0.41251 0.66729 0.03979 0.71531-0.59024
   6   9  -2    8.44   15.61  27 0.17189 0.41236 0.66668-0.03093 0.71563-0.59045
   6   3   0  337.78   19.93  27 0.16932 0.51711 0.66399-0.45079 0.71703-0.37821
   6   2   1   11.56   15.54  27 0.16955 0.57078 0.66423-0.52059 0.71690-0.27070
   5   3  -1    2.56   12.41  27 0.17002 0.35065 0.66473-0.45139 0.71665-0.54114
   4   2  -1  328.95   14.78  27 0.17195 0.23403 0.66674-0.52365 0.71560-0.59718
   3   0   0 2052.32   34.30  27 0.16999 0.17416 0.66470-0.66251 0.71666-0.54740
  -1  11  -2   19.77   18.16  27 0.16954-0.38644 0.66422 0.10949 0.71691-0.98739
  -1   8  -2  473.88   21.55  28 0.16740-0.38519 0.66197-0.10031 0.71806-0.98818
  -3  10  -1    6.21   20.09  28 0.16494-0.55863 0.65938 0.04273 0.71936-0.99595
  -3   9  -1    7.36   22.19  28 0.16464-0.55899 0.65906-0.02703 0.71953-0.99657
  -5  -4   8    4.65   15.15  26 0.17182-0.32298 0.66661-0.94773 0.71567-0.14291
  -6   4   2   32.05   18.22  28 0.16728-0.74683 0.66184-0.38346 0.71813-0.84225
  -7  -1   6   23.75   14.18  27 0.17007-0.65635 0.66478-0.73843 0.71662-0.46940
   7   6   0   -7.24   18.83  28 0.16526 0.63930 0.65973-0.23281 0.71920-0.32371
   1  -4   5   59.60   19.55  28 0.16478 0.21122 0.65922-0.93912 0.71945-0.12838
   0   2  -1 2838.24   46.90  28 0.16477-0.21714 0.65921-0.51875 0.71946-0.82651
  -3  -1   2  638.96   18.39  27 0.16913-0.40672 0.66379-0.73678 0.71714-0.67136
  -6  -3   7    6.68   14.42  27 0.16722-0.48443 0.66179-0.87330 0.71816-0.30837
  -7   4   3   13.56   18.47  29 0.16339-0.80625 0.65774-0.37966 0.72019-0.79436
  -7   0   5  -10.73   16.06  28 0.16526-0.70250 0.65973-0.66198 0.71920-0.57986
  -9   3   6    2.54   20.54  28 0.16519-0.87693 0.65966-0.45239 0.71923-0.58450
   7   4   2    1.90   21.60  28 0.16184 0.74813 0.65625-0.37113 0.72097-0.11016
   6   5  -1    5.91   13.90  29 0.16302 0.47209 0.65749-0.30309 0.72036-0.48829
   5   6  -2  106.30   14.36  29 0.16184 0.30694 0.65625-0.23401 0.72097-0.65216
   5   0   2   20.17   18.28  30 0.15703 0.51909 0.65111-0.64823 0.72345-0.22760
   3   4  -2  143.53   14.72  29 0.16066 0.07865 0.65499-0.37279 0.72158-0.76597
  -1  10  -2   39.25   15.81  29 0.16241-0.37871 0.65685 0.04455 0.72067-0.99116
  -1   9  -2  139.83   18.73  29 0.16112-0.37719 0.65548-0.02387 0.72134-0.99163
  -4   2   1  335.23   19.50  29 0.15939-0.56324 0.65363-0.51542 0.72224-0.84032
  -4   0   2  589.29   18.20  29 0.16281-0.51418 0.65727-0.65975 0.72047-0.73147
  -7  -2   7    1.66   14.40  29 0.16325-0.59641 0.65774-0.80093 0.72024-0.36645
  -7  -3   9   -2.73   17.08  29 0.16114-0.48892 0.65550-0.86892 0.72134-0.15255
  -8   2   5   -4.46   16.72  29 0.16107-0.81361 0.65542-0.51693 0.72138-0.63807
   7   5   1   10.24   20.00  30 0.15457 0.70031 0.64863-0.29369 0.72451-0.22183
   3  -1   1  412.97   24.33  31 0.15218 0.24394 0.64605-0.71475 0.72570-0.44920
   2   4  -2    5.99   11.49  30 0.15726-0.03258 0.65151-0.36942 0.72315-0.82430
   0  13  -2   24.98   20.64  30 0.15784-0.25978 0.65213 0.26237 0.72286-0.93706
  -4  -4   6   28.90   12.87  29 0.15978-0.30289 0.65420-0.93682 0.72187-0.30576
  -8  -2   9   -2.11   18.01  30 0.15844-0.60077 0.65277-0.79652 0.72256-0.21081
   7   7   0   19.77   16.29  30 0.15396 0.64982 0.64793-0.15237 0.72485-0.32920
   4   5  -2  282.37   15.89  31 0.15124 0.20235 0.64500-0.29136 0.72619-0.71427
   4  -1   2  315.79   26.46  33 0.14290 0.41917 0.63592-0.70440 0.73020-0.29047
   1  -4   8    1.51   25.59  32 0.14649 0.38796 0.63985-0.92022 0.72850 0.18374
  -1   3  -1  472.10   25.34  32 0.14896-0.31515 0.64252-0.43222 0.72732-0.89062
  -2  -5   8    2.30   18.08  32 0.14959 0.04274 0.64321-0.99890 0.72700 0.02003
  -3  -4   5   56.67   11.68  30 0.15505-0.23604 0.64910-0.93144 0.72430-0.35875
  -3  -5   8    1.57   16.62  31 0.15140-0.07460 0.64517-0.99750 0.72612-0.03876
  -3  -5   9   13.19   20.37  32 0.14940-0.01974 0.64301-0.99605 0.72709 0.06776
  -5  -4   7    9.47   12.80  31 0.15348-0.35800 0.64741-0.93039 0.72509-0.25775
  -6  -4   9   -3.28   15.50  31 0.15132-0.36492 0.64508-0.92850 0.72616-0.10151
  -9   1   7   10.49   17.77  31 0.15176-0.81252 0.64556-0.57891 0.72594-0.48432
  -9   0   8   20.25   19.01  31 0.15313-0.76246 0.64704-0.65099 0.72526-0.37662
   6   6  -1    6.56   14.46  31 0.14892 0.48851 0.64256-0.21766 0.72724-0.49543
   5  11  -2    9.95   17.11  32 0.14878 0.32172 0.64241 0.13361 0.72730-0.65874
   5   7  -2    9.63   13.01  32 0.14946 0.31916 0.64314-0.14885 0.72698-0.65801
   5   2   0  213.94   16.01  33 0.14444 0.42776 0.63769-0.49479 0.72938-0.44717
   0  -4   4  242.45   17.78  31 0.14855 0.06136 0.64216-0.92286 0.72742-0.29912
  -1  -4   4   92.28   11.49  31 0.14875-0.05306 0.64239-0.92392 0.72731-0.35516
  -2  -3   3  483.31   16.15  31 0.14869-0.21916 0.64232-0.85422 0.72734-0.51849
  -2  -5   7    2.68   14.83  31 0.14940-0.01097 0.64308-0.99504 0.72701-0.09039
  -2  -5   9    2.10   19.88  33 0.14454 0.09991 0.63780-0.99114 0.72934 0.12243
  -8   4   4   -0.24   18.23  33 0.14426-0.85223 0.63750-0.35920 0.72946-0.75392
  -8  -1   7   -5.84   15.26  32 0.14833-0.69541 0.64192-0.71481 0.72752-0.43033
  -9   5   5    1.32   19.54  32 0.14687-0.91371 0.64034-0.29074 0.72822-0.70160
   7   6   1   -1.54   21.36  34 0.13955 0.71606 0.63249-0.20708 0.73147-0.22841
   6   4   0   67.97   17.29  34 0.13977 0.54764 0.63274-0.35073 0.73136-0.39146
   5  10  -2    2.17   15.24  33 0.14380 0.32656 0.63714 0.06934 0.72949-0.66080
   5   9  -2   25.58   16.05  33 0.14164 0.32790 0.63480 0.00022 0.73049-0.66176
   5   8  -2  105.17   14.87  33 0.14374 0.32467 0.63708-0.07315 0.72952-0.66164
   0  12  -2    5.74   17.77  32 0.14321-0.24557 0.63650 0.20968 0.72976-0.94495
   0   6  -2  288.19   15.52  33 0.14268-0.24626 0.63593-0.21491 0.73001-0.94386
  -1  -5   7   -0.99   18.62  33 0.14261 0.11053 0.63585-0.98772 0.73004-0.03662
  -1  -5   8   -5.93   18.91  33 0.14134 0.16360 0.63447-0.98572 0.73063 0.06811
  -3  -5   7   -9.17   15.02  33 0.14166-0.11776 0.63481-0.98759 0.73049-0.15088
  -4  -5   9   16.80   18.64  34 0.14005-0.12538 0.63305-0.98942 0.73123 0.00966
  -6   1   3    3.79   13.63  33 0.14075-0.67098 0.63381-0.56649 0.73091-0.74905
  -7  -3   8    9.88   15.11  32 0.14544-0.52627 0.63894-0.85284 0.72871-0.26737
  -8   0   6   14.46   14.87  33 0.14420-0.74429 0.63758-0.64132 0.72930-0.53870
   6   7  -1   44.88   16.75  34 0.13697 0.49830 0.62965-0.13518 0.73274-0.50088
   6   2   2    5.02   18.19  34 0.13585 0.65567 0.62842-0.48456 0.73324-0.18009
   5   4  -1  221.17   13.94  34 0.13863 0.38187 0.63150-0.34970 0.73197-0.55659
   5   1   1  240.52   18.35  35 0.13573 0.48819 0.62828-0.55623 0.73330-0.34391
   4  12  -2   -4.38   17.80  33 0.13940 0.21885 0.63234 0.21772 0.73162-0.72148
   4   1   0  345.83   17.64  34 0.13524 0.32253 0.62775-0.55572 0.73351-0.50738
   3  13  -2   -3.73   20.84  34 0.13656 0.10567 0.62920 0.28827 0.73292-0.77754
   2  -3   3  380.35   31.93  36 0.12664 0.25924 0.61818-0.82776 0.73727-0.30334
   1  13  -2   -4.89   20.52  34 0.13735-0.12462 0.63007 0.28417 0.73256-0.88945
  -2  -2   2 4792.40   41.08  33 0.14018-0.26232 0.63318-0.77545 0.73127-0.62920
  -4  -5   8    9.59   15.70  33 0.13936-0.17688 0.63229-0.98483 0.73164-0.10061
  -5   4   1  212.27   23.20  35 0.13154-0.64943 0.62364-0.34496 0.73516-0.91017
  -5  -2   4   60.36   11.55  34 0.13877-0.50081 0.63165-0.77381 0.73191-0.58652
  -5  -3   5   -0.21   11.67  34 0.13916-0.44842 0.63208-0.84441 0.73173-0.47920
  -6  -2   5    7.11   13.10  33 0.13894-0.56178 0.63183-0.77416 0.73184-0.53474
  -6  -4   8   10.61   14.42  33 0.13934-0.40549 0.63227-0.91574 0.73165-0.21343
  -7   1   4    6.34   13.96  34 0.13893-0.72916 0.63181-0.56467 0.73184-0.69860
  -8  -2   8   -4.30   16.22  34 0.13940-0.63409 0.63234-0.77603 0.73162-0.32694
   6  10  -1    8.62   18.71  35 0.13167 0.50281 0.62375 0.08032 0.73526-0.50315
   6   8  -1   -3.71   16.35  36 0.13002 0.50267 0.62192-0.05908 0.73598-0.50432
   4   6  -2   26.95   11.57  35 0.13399 0.22010 0.62633-0.20260 0.73423-0.72265
   3   5  -2  276.01   16.23  35 0.13201 0.10633 0.62413-0.27145 0.73511-0.78051
   3   2  -1  104.11   12.79  35 0.13474 0.15622 0.62716-0.48483 0.73389-0.67190
   2  13  -2   -6.68   20.19  35 0.13217-0.00497 0.62430 0.29214 0.73504-0.83585
   1   5  -2  697.80   17.99  34 0.13538-0.12466 0.62787-0.27655 0.73360-0.89095
  -1  -5   6  128.74   17.41  35 0.13094 0.06853 0.62294-0.97422 0.73558-0.15115
  -2  13  -1   25.17   20.54  35 0.13170-0.40959 0.62378 0.28962 0.73524-0.95462
  -2  -5   6  141.02   15.76  35 0.13306-0.04761 0.62530-0.97639 0.73464-0.20630
  -6  -3   6    2.28   13.84  35 0.13418-0.50491 0.62654-0.83909 0.73414-0.43057
  -9   2   6    1.60   18.86  35 0.13489-0.84847 0.62733-0.48941 0.73382-0.59961
   6   9  -1   14.19   15.73  36 0.13004 0.50515 0.62206 0.01288 0.73588-0.50377
   6   3   1   -1.52   15.54  36 0.12828 0.60971 0.62011-0.40550 0.73663-0.29211
   4  11  -2   -7.36   16.39  36 0.12749 0.22819 0.61922 0.15684 0.73697-0.72536
   0  11  -2   -4.51   16.03  36 0.12796-0.23009 0.61976 0.15332 0.73677-0.95021
  -2  -4   4  452.31   15.18  35 0.13076-0.14831 0.62288-0.90489 0.73555-0.42024
  -4  -3   4    7.61   11.29  36 0.13069-0.37913 0.62281-0.83633 0.73558-0.53280
  -5   1   2   97.38   14.28  36 0.12664-0.59177 0.61827-0.55065 0.73734-0.80469
  -5  -5   9  -26.38   19.21  36 0.12765-0.22705 0.61940-0.97277 0.73691-0.05510
  -7  -2   6   14.67   14.47  36 0.12658-0.61284 0.61821-0.76235 0.73736-0.48915
   4   7  -2   -4.03   13.01  37 0.12271 0.23149 0.61405-0.11953 0.73879-0.72706
   4   3  -1   29.99   11.06  37 0.12447 0.28173 0.61603-0.40417 0.73805-0.61861
   3  12  -2   -6.28   18.65  37 0.12271 0.11868 0.61405 0.23155 0.73879-0.78328
   2   5  -2    1.16   10.71  37 0.12415 0.00074 0.61567-0.26334 0.73819-0.83956
   1  12  -2   -3.65   17.55  37 0.12263-0.11021 0.61396 0.23091 0.73882-0.89647
   0   7  -2    9.75   14.29  37 0.12380-0.22723 0.61528-0.12307 0.73833-0.95299
  -4  12   0    5.67   25.36  37 0.12226-0.57763 0.61353 0.22972 0.73898-0.96580
  -4  -2   3  247.32   15.73  37 0.12336-0.42295 0.61479-0.75728 0.73851-0.64234
  -4  -5   7   -2.53   13.92  37 0.12497-0.21531 0.61660-0.96923 0.73783-0.21423
  -5  -4   6    9.37   13.06  36 0.12509-0.38201 0.61674-0.89940 0.73778-0.37709
  -6  -1   4    5.48   11.53  37 0.12541-0.60193 0.61709-0.69041 0.73765-0.64790
  -7   3   3    8.21   15.47  37 0.12285-0.76508 0.61422-0.40653 0.73872-0.81254
  -8   1   5   10.43   15.23  36 0.12522-0.77661 0.61688-0.55007 0.73773-0.65336
  -9   4   5    2.00   20.45  37 0.12302-0.88909 0.61441-0.33544 0.73865-0.71135
   6   5   0   18.32   14.05  38 0.11958 0.56832 0.61048-0.25625 0.74001-0.40108
   6   2   3   -2.58   19.23  38 0.11799 0.72667 0.60867-0.46431 0.74066-0.08152
   5   0   3   -1.82   18.60  39 0.11570 0.61370 0.60607-0.60304 0.74158-0.13930
   4  10  -2   22.59   14.55  38 0.12037 0.23462 0.61138 0.09326 0.73968-0.72787
   4   9  -2   32.10   14.54  38 0.11719 0.23752 0.60777 0.02655 0.74098-0.72925
   4   8  -2  189.53   15.94  38 0.11751 0.23554 0.60814-0.04477 0.74084-0.72988
   4   0   1    2.07   14.13  37 0.12016 0.39089 0.61113-0.60962 0.73977-0.40661
   2  12  -2  173.02   18.42  38 0.11740 0.00730 0.60801 0.23624 0.74089-0.84316
   1  -4   4  301.19   22.79  39 0.11391 0.20962 0.60404-0.88420 0.74228-0.25768
   0  10  -2   54.27   16.34  38 0.11944-0.22213 0.61033 0.09209 0.74006-0.95464
   0  -5   7    6.30   18.18  37 0.11947 0.24630 0.61036-0.95921 0.74005 0.00766
  -2   5  -1   25.27   19.00  40 0.11007-0.38926 0.59964-0.24922 0.74378-0.96357
  -3  -5   6   55.14   12.98  37 0.12037-0.14903 0.61138-0.96377 0.73968-0.26653
  -4  -4   5   11.20   11.71  37 0.12172-0.31702 0.61291-0.89566 0.73912-0.42912
  -5  -1   3   14.05   12.46  38 0.11690-0.53158 0.60745-0.68024 0.74109-0.70217
  -5  -5   8   11.78   18.09  39 0.11703-0.26964 0.60759-0.96327 0.74104-0.16479
  -6  -4   7   -9.75   15.32  38 0.11774-0.43620 0.60840-0.89155 0.74075-0.32998
  -7  -1   5    6.91   13.54  38 0.12014-0.65851 0.61111-0.68488 0.73978-0.59941
  -7  -3   7    2.10   14.22  38 0.12029-0.55317 0.61129-0.82488 0.73971-0.38538
  -7  -4   9  -13.94   18.13  38 0.11982-0.44746 0.61075-0.89454 0.73991-0.17109
  -8   3   4   -6.20   20.39  39 0.11545-0.81924 0.60580-0.39718 0.74167-0.76523
  -8  -3   9   -3.64   18.51  38 0.12077-0.56341 0.61183-0.82675 0.73952-0.22711
  -9   0   7   -7.15   17.34  38 0.12005-0.78079 0.61102-0.61399 0.73981-0.49835
  -9  -1   8    2.04   19.35  37 0.12125-0.72936 0.61237-0.68635 0.73932-0.38990
   5   5  -1   39.03   12.26  38 0.11576 0.40491 0.60619-0.25239 0.74134-0.56580
   3  11  -2    7.93   17.40  40 0.11109 0.12987 0.60087 0.17301 0.74317-0.78690
   3   6  -2    2.43   12.49  39 0.11322 0.12657 0.60330-0.18000 0.74234-0.78699
   2   0   0 2723.26   43.86  39 0.11246 0.11790 0.60244-0.60105 0.74264-0.62912
   0   9  -2  118.06   16.23  39 0.11425-0.21579 0.60447 0.02801 0.74194-0.95605
   0   8  -2  430.82   18.35  39 0.11476-0.21687 0.60506-0.04289 0.74174-0.95583
  -6   3   2   11.26   15.57  39 0.11242-0.69299 0.60238-0.39428 0.74266-0.86746
   5   0   5   -2.43   27.65  43 0.09657 0.73863 0.58431-0.58143 0.74813 0.07014
   2   2  -1 1686.05   27.06  40 0.10911 0.06875 0.59881-0.45613 0.74356-0.73777
   1  11  -2   13.30   15.58  40 0.10959-0.09722 0.59937 0.17453 0.74338-0.90129
   1   6  -2   24.90   10.85  40 0.11021-0.09930 0.60007-0.17823 0.74315-0.90095
   0  -5   6   17.37   17.42  40 0.10903 0.20555 0.59872-0.94940 0.74360-0.10087
   0  -5   8   -2.50   20.96  41 0.10460 0.31636 0.59363-0.94600 0.74525 0.11298
  -2  12  -1  162.93   22.35  40 0.10809-0.38508 0.59765 0.24584 0.74395-0.96399
  -8  -2   7   -9.32   15.38  40 0.10977-0.65718 0.59957-0.74344 0.74331-0.44633
   6   6   0   23.68   15.18  41 0.10565 0.58278 0.59484-0.17008 0.74484-0.40534
   6   4   1   42.72   17.39  42 0.10095 0.63871 0.58942-0.30685 0.74655-0.29961
   5  11  -1    7.92   17.39  41 0.10448 0.41900 0.59349 0.18249 0.74527-0.56970
   5   3   0  373.90   17.01  41 0.10406 0.46835 0.59302-0.38105 0.74542-0.46275
   5   0   4    9.19   25.05  44 0.08998 0.69084 0.57661-0.57353 0.75034-0.04041
   3  10  -2    3.24   13.08  41 0.10472 0.13681 0.59377 0.11194 0.74518-0.79023
   3   7  -2   48.60   12.87  41 0.10274 0.13739 0.59148-0.09906 0.74591-0.79051
   2  11  -2    3.00   14.93  41 0.10532 0.02170 0.59447 0.18059 0.74496-0.84603
   2   6  -2 2119.55   25.57  41 0.10327 0.02204 0.59209-0.16970 0.74572-0.84676
   1   2  -1 6625.71   56.10  40 0.10557-0.04291 0.59475-0.45281 0.74487-0.79570
  -3  -3   3   11.78   12.96  41 0.10194-0.28902 0.59056-0.80426 0.74620-0.59425
  -6  -5   9    8.49   18.02  40 0.10555-0.31913 0.59474-0.94840 0.74487-0.11988
  -7  -4   8   -0.40   17.81  42 0.10062-0.48357 0.58904-0.87599 0.74667-0.28384
  -8  -1   6    8.75   14.71  40 0.10665-0.70632 0.59599-0.67015 0.74447-0.55389
  -9   1   6    7.32   20.14  41 0.10271-0.81843 0.59146-0.52592 0.74592-0.61210
   6   7   0    0.51   16.73  43 0.09576 0.58946 0.58354-0.09060 0.74830-0.40950
   6   3   2    0.46   18.60  42 0.09736 0.69345 0.58541-0.37184 0.74774-0.19523
   5   6  -1   21.95   12.70  41 0.10155 0.41970 0.59026-0.16614 0.74626-0.57050
   3   9  -2   -6.54   12.39  42 0.09986 0.14126 0.58831 0.04690 0.74686-0.79190
   3   8  -2  136.53   15.23  42 0.09868 0.14281 0.58694-0.02425 0.74728-0.79147
   1  10  -2    9.49   15.43  42 0.09873-0.08660 0.58699 0.11529 0.74727-0.90447
  -1  -5   5   28.93   14.20  41 0.10048 0.04605 0.58903-0.94031 0.74664-0.26852
  -2  -5   5    3.90   12.67  42 0.09732-0.06412 0.58535-0.93903 0.74776-0.32433
  -3  -4   4   83.02   12.10  41 0.10184-0.23578 0.59061-0.87299 0.74615-0.48765
  -4  -5   6   -2.28   14.20  42 0.09817-0.24125 0.58635-0.93967 0.74746-0.33135
  -5  -5   7    5.37   14.06  41 0.10035-0.30480 0.58887-0.94176 0.74669-0.27932
  -8  -3   8   -5.35   18.63  42 0.10058-0.59588 0.58915-0.80394 0.74660-0.34230
  -9   3   5   10.64   18.48  43 0.09625-0.86255 0.58410-0.37776 0.74814-0.72151
   6   9   0   22.55   19.06  43 0.09586 0.59348 0.58374 0.05161 0.74821-0.40866
   6   8   0    5.17   16.63  43 0.09530 0.59410 0.58308-0.01787 0.74841-0.40888
   5  10  -1   -0.16   16.88  43 0.09626 0.42620 0.58421 0.12155 0.74807-0.57198
   5   7  -1  124.26   14.14  43 0.09442 0.42688 0.58206-0.08801 0.74871-0.57395
   2  10  -2  311.87   15.83  42 0.09596 0.03070 0.58386 0.11960 0.74818-0.84932
   2   7  -2    6.64   12.98  43 0.09316 0.03272 0.58058-0.08693 0.74914-0.85077
   1   9  -2    2.67   13.37  43 0.09336-0.08151 0.58082 0.05301 0.74907-0.90680
   1   7  -2  113.39   12.09  42 0.09649-0.08436 0.58448-0.09246 0.74799-0.90522
  -3   0   1   -1.23   10.05  43 0.09577-0.38617 0.58365-0.58440 0.74824-0.81131
  -4  11   0    1.80   23.03  42 0.09440-0.55200 0.58204 0.19234 0.74871-0.97788
  -7   0   4   17.72   12.79  43 0.09527-0.68570 0.58305-0.58646 0.74842-0.71558
   5   9  -1    3.00   15.02  44 0.09174 0.43030 0.57875 0.05671 0.74971-0.57361
   5   8  -1  298.93   16.49  44 0.09116 0.42902 0.57808-0.01405 0.74990-0.57595
   4   4  -1    0.71   10.83  44 0.09186 0.31406 0.57889-0.29509 0.74967-0.63066
   2   9  -2   -1.23   12.06  44 0.09066 0.03582 0.57747 0.05701 0.75008-0.85136
   2   8  -2  161.79   15.09  44 0.08921 0.03610 0.57578-0.01326 0.75055-0.85240
   2  -4   6    8.63   26.76  44 0.08738 0.45464 0.57363-0.85160 0.75115 0.00276
   1   8  -2  199.89   12.97  43 0.09178-0.08102 0.57879-0.01584 0.74970-0.90759
  -1  13  -1    3.19   20.71  44 0.08933-0.25261 0.57591 0.33730 0.75052-0.91418
  -2  11  -1   -5.06   19.78  45 0.08642-0.36497 0.57249 0.20036 0.75146-0.97123
  -3  -6   8    6.03   17.79  44 0.08980-0.01337 0.57647-0.99757 0.75036-0.06458
  -3  -6   9  -11.35   18.27  44 0.08868 0.04034 0.57515-0.99870 0.75073 0.04351
  -4  -6   9   12.00   20.43  44 0.08800-0.07318 0.57435-0.99736 0.75095-0.01356
  -6   0   3    1.62   12.75  43 0.09102-0.61859 0.57790-0.58034 0.74995-0.76705
  -6  -5   8   -2.44   15.25  44 0.09137-0.35813 0.57833-0.93296 0.74983-0.23236
  -7   8   2    0.61   36.06  49 0.06573-0.75985 0.54771 0.01131 0.75760-0.94003
  -8   7   3    0.16   28.01  47 0.07635-0.83443 0.56052-0.07171 0.75458-0.88712
  -8   0   5   -2.79   16.91  44 0.08828-0.74008 0.57468-0.57770 0.75086-0.66823
   6   5   1   -1.15   17.93  46 0.08137 0.65559 0.56639-0.21330 0.75308-0.30824
   6   3   3   15.32   21.47  45 0.08311 0.76502 0.56847-0.35473 0.75253-0.09083
   5   2   1    3.70   15.31  45 0.08479 0.54199 0.57045-0.42772 0.75200-0.36208
   5   1   2  877.67   27.73  46 0.08032 0.59569 0.56515-0.49309 0.75340-0.25740
   4  12  -1   26.70   18.13  45 0.08620 0.32217 0.57213 0.27264 0.75154-0.63231
   3   3  -1  211.73   15.11  45 0.08380 0.20677 0.56930-0.35696 0.75231-0.69069
  -2  -6   8   13.30   18.39  45 0.08377 0.10711 0.56926-0.99110 0.75232-0.00910
  -3  -5   5   74.49   14.45  45 0.08357-0.16461 0.56902-0.92145 0.75238-0.38683
  -4  -1   2   58.91   14.36  45 0.08407-0.43601 0.56961-0.64218 0.75223-0.76359
  -6  -3   5    7.87   13.13  44 0.08688-0.51135 0.57294-0.78698 0.75132-0.55483
  -6  -4   6   10.14   14.01  45 0.08314-0.45560 0.56850-0.85337 0.75252-0.44863
  -7   2   3    1.09   16.96  45 0.08371-0.72440 0.56917-0.43184 0.75234-0.82573
  -9  -1   7   25.31   17.99  44 0.08635-0.74784 0.57232-0.64687 0.75149-0.51017
  -9  -2   8    0.26   19.50  45 0.08645-0.69653 0.57242-0.71743 0.75147-0.40387
   3  13  -1    5.75   19.45  46 0.08133 0.21340 0.56627 0.34979 0.75310-0.69063
   0  -5   5   14.24   15.76  45 0.08061 0.18148 0.56542-0.91651 0.75332-0.21770
  -2  -1   1    5.19   11.13  46 0.08043-0.25647 0.56520-0.63610 0.75338-0.75912
  -2  -6   9    7.37   23.13  47 0.07722 0.16689 0.56138-0.98521 0.75435 0.09730
  -4  -6   8    5.77   16.34  45 0.08159-0.11945 0.56659-0.99048 0.75302-0.12196
  -5  -3   4   40.28   11.64  46 0.08025-0.44235 0.56500-0.77778 0.75343-0.60750
  -5  -4   5  157.18   13.37  45 0.08166-0.39157 0.56668-0.85002 0.75299-0.50099
  -7  -3   6    1.31   14.01  46 0.08205-0.56900 0.56714-0.78193 0.75287-0.50678
  -8   2   4   -2.81   16.56  46 0.07955-0.78616 0.56416-0.42635 0.75365-0.77880
   6   6   1   -8.09   19.46  47 0.07385 0.66837 0.55714-0.13115 0.75549-0.30926
   6   4   2   23.05   19.06  48 0.07202 0.71907 0.55493-0.27198 0.75602-0.20291
   5   4   0   72.02   12.62  47 0.07694 0.49621 0.56085-0.27899 0.75458-0.47135
   4  11  -1   -2.32   18.28  47 0.07449 0.33340 0.55792 0.21686 0.75530-0.63610
   4   2   0   47.73   11.08  47 0.07622 0.38263 0.55999-0.41886 0.75479-0.52777
  -2  -6   7    3.64   17.20  47 0.07621 0.06222 0.55997-0.98271 0.75479-0.11792
  -3  -2   2  490.86   16.81  46 0.07674-0.31397 0.56061-0.70322 0.75464-0.70950
  -3  -6   7    6.64   14.05  46 0.07664-0.05266 0.56049-0.98374 0.75467-0.17430
  -5  -6   9    0.76   19.69  47 0.07684-0.17649 0.56073-0.98497 0.75461-0.07357
  -6  -2   4  139.89   15.70  47 0.07489-0.55152 0.55839-0.70079 0.75518-0.66700
  -7   7   2    3.46   28.34  50 0.06132-0.75523 0.54197-0.05326 0.75893-0.94075
  -7  -2   5   -1.75   13.04  47 0.07647-0.61502 0.56029-0.70373 0.75471-0.61554
  -7  -4   7   11.38   15.40  46 0.07677-0.50991 0.56066-0.84481 0.75462-0.40032
  -7  -5   9    7.98   18.60  47 0.07635-0.40518 0.56015-0.91599 0.75475-0.18615
   4   5  -1    6.44   11.12  47 0.07240 0.33392 0.55545-0.20227 0.75600-0.63724
   2  13  -1    8.54   20.35  48 0.06815 0.11149 0.55032 0.36414 0.75720-0.75147
   2  -4   5   67.38   26.45  48 0.06564 0.42270 0.54728-0.82748 0.75788-0.10971
   2  -4   7   -4.01   29.81  51 0.05463 0.54404 0.53381-0.81573 0.76072 0.10446
   0  13  -1   12.71   19.48  48 0.07028-0.11954 0.55289 0.36201 0.75660-0.86447
   0  -3   2 6601.03   57.35  48 0.07069 0.03550 0.55338-0.76444 0.75649-0.54143
  -1  12  -1   -4.79   20.51  49 0.06692-0.23109 0.54884 0.29510 0.75753-0.92132
  -1  -4   3  287.60   17.07  48 0.06969-0.02563 0.55217-0.83377 0.75677-0.49126
  -2  10  -1    6.97   17.13  48 0.06956-0.34843 0.55203 0.14997 0.75680-0.97714
  -5  -5   6    7.17   14.68  48 0.07022-0.32717 0.55282-0.90603 0.75662-0.39645
  -6  -5   7    3.83   16.10  48 0.07037-0.38820 0.55301-0.90532 0.75657-0.34601
  -8   6   3   -5.71   22.56  49 0.06475-0.82104 0.54620-0.12641 0.75812-0.88919
  -8  -3   7    2.84   15.01  48 0.07135-0.61829 0.55420-0.76784 0.75629-0.45869
  -9   2   5   -4.54   19.53  48 0.06917-0.83444 0.55156-0.41387 0.75691-0.73022
  -9   0   6    3.16   15.78  48 0.07209-0.78627 0.55507-0.55829 0.75609-0.62249
   6   8   1    8.79   18.02  49 0.06632 0.67463 0.54808 0.01670 0.75775-0.31189
   6   7   1    3.83   16.50  49 0.06680 0.67323 0.54867-0.05429 0.75761-0.31174
   5  11   0   28.61   18.63  49 0.06673 0.50807 0.54859 0.22655 0.75763-0.47541
   4  10  -1    1.52   15.78  49 0.06632 0.34201 0.54808 0.15785 0.75775-0.63950
   3  12  -1    4.02   18.79  48 0.06705 0.22756 0.54896 0.29734 0.75755-0.69681
   3   1   0  214.57   15.56  49 0.06482 0.27946 0.54627-0.47427 0.75815-0.58840
   1  13  -1    1.59   18.36  49 0.06429 0.00097 0.54562 0.37044 0.75829-0.80935
   0  -4   3    8.49   14.37  49 0.06214 0.09486 0.54301-0.82436 0.75886-0.43722
  -1  -3   2 1018.17   22.80  49 0.06439-0.07252 0.54573-0.75741 0.75827-0.59944
  -1  -6   8    3.50   21.40  49 0.06391 0.24065 0.54516-0.96544 0.75839 0.04110
  -2   6  -1  469.26   22.12  50 0.06130-0.34021 0.54197-0.12049 0.75908-0.97928
  -4  10   0   18.26   23.78  50 0.05882-0.51384 0.53894 0.16212 0.75972-0.98623
  -4   1   1   84.82   13.66  49 0.06594-0.47051 0.54762-0.47929 0.75785-0.87646
  -4  -4   4   -0.85   11.73  49 0.06632-0.31388 0.54808-0.83018 0.75775-0.55563
  -4  -6   7   22.21   14.60  48 0.06705-0.15727 0.54896-0.97129 0.75755-0.23347
  -5  -6   8    3.74   16.36  49 0.06680-0.21895 0.54867-0.97251 0.75761-0.18320
  -8  -2   6   -4.45   16.31  49 0.06765-0.66814 0.54970-0.69383 0.75738-0.56716
   6   5   2    3.32   20.36  51 0.05837 0.73534 0.53827-0.18415 0.75979-0.20632
   6   4   3    8.81   22.69  50 0.05935 0.78905 0.53946-0.25556 0.75955-0.09796
   5   5   0  300.34   16.92  50 0.05966 0.51284 0.53985-0.18731 0.75946-0.47722
   4   6  -1  269.03   14.17  50 0.06105 0.34594 0.54154-0.11922 0.75911-0.64033
  -1  -6   7    5.97   19.58  50 0.05975 0.19306 0.53996-0.96252 0.75944-0.06564
  -5   3   1   -2.36   16.18  51 0.05717-0.57554 0.53679-0.32713 0.76010-0.93573
  -5   0   2  273.40   13.86  50 0.06187-0.52821 0.54255-0.54417 0.75889-0.82755
  -6   2   2    8.21   14.90  50 0.06128-0.64184 0.54184-0.40397 0.75904-0.88363
  -7  -5   8   11.64   17.42  50 0.05920-0.44030 0.53927-0.89458 0.75959-0.29742
  -8  -4   8  -10.79   17.69  50 0.06215-0.55697 0.54290-0.82754 0.75882-0.35386
   5  10   0   16.03   17.39  50 0.05766 0.51730 0.53734 0.16785 0.75992-0.47779
   4   9  -1    4.94   13.17  51 0.05790 0.34898 0.53764 0.09626 0.75986-0.64089
   4   8  -1   21.90   14.50  51 0.05431 0.35210 0.53323 0.03011 0.76074-0.64200
   4   7  -1  189.21   15.86  51 0.05562 0.34974 0.53485-0.04083 0.76042-0.64332
   4  -1   3  183.24   23.20  53 0.04484 0.56946 0.52150-0.58987 0.76293-0.21607
   1   0   0   60.22   17.37  51 0.05505 0.06100 0.53414-0.53285 0.76056-0.70369
   1  -5   7    6.19   23.54  51 0.05193 0.42935 0.53030-0.88072 0.76131 0.04435
  -2   9  -1   11.79   16.12  51 0.05594-0.33527 0.53523 0.09664 0.76034-0.98100
  -2  -4   3  173.62   14.51  51 0.05460-0.12461 0.53360-0.81602 0.76067-0.55141
  -2  -6   6   33.38   15.38  51 0.05653 0.02924 0.53596-0.95846 0.76020-0.23013
  -4  -5   5   14.12   12.06  50 0.05861-0.25425 0.53852-0.89228 0.75967-0.44975
  -5  -2   3   14.29   11.09  50 0.05730-0.47201 0.53690-0.67993 0.76001-0.72105
  -6  -6   9   12.70   20.02  50 0.05798-0.27210 0.53775-0.96335 0.75983-0.13416
   6   6   2  -11.49   20.19  52 0.04950 0.74464 0.52745-0.10162 0.76186-0.20879
   5   9   0   29.01   16.84  52 0.04954 0.52370 0.52751 0.10639 0.76185-0.47965
   5   6   0   34.88   14.38  52 0.05002 0.52306 0.52809-0.10519 0.76174-0.47951
   5   3   1    3.85   14.50  52 0.04935 0.57702 0.52726-0.31414 0.76189-0.37200
   3  11  -1   32.94   16.20  52 0.05136 0.24220 0.52976 0.24492 0.76142-0.69953
   3   4  -1  335.92   14.24  52 0.05195 0.23938 0.53048-0.24779 0.76129-0.69931
   2  12  -1   -7.73   16.90  51 0.05226 0.12807 0.53087 0.31695 0.76121-0.75648
   2   3  -1 1183.86   21.78  52 0.05123 0.12574 0.52960-0.31744 0.76145-0.75598
   1  -5   6  105.05   22.86  51 0.05144 0.37573 0.52984-0.87980 0.76141-0.06350
  -2   8  -1   28.20   17.42  53 0.04627-0.32481 0.52345 0.03790 0.76259-0.98267
  -2   7  -1  395.94   21.04  53 0.04623-0.32524 0.52339-0.03190 0.76260-0.98286
  -3  -6   6   42.31   14.83  51 0.05281-0.08118 0.53155-0.95478 0.76108-0.28764
  -4  -3   3  151.96   13.28  51 0.05342-0.35290 0.53230-0.74620 0.76093-0.66487
  -7   6   2    2.02   25.01  54 0.04127-0.73566 0.51721-0.09852 0.76368-0.94552
  -7  -1   4    7.39   13.94  51 0.05250-0.64242 0.53117-0.60424 0.76115-0.72786
  -8   5   3    8.88   22.27  53 0.04476-0.80081 0.52156-0.17355 0.76293-0.89357
  -8  -1   5    3.61   16.78  51 0.05173-0.70242 0.53021-0.60331 0.76134-0.67694
  -9  -2   7    5.59   18.00  52 0.05226-0.71409 0.53087-0.67510 0.76121-0.52047
   6   7   2    4.28   19.48  54 0.04272 0.74702 0.51892-0.02608 0.76339-0.21214
   5   8   0   23.61   14.51  53 0.04691 0.52754 0.52413 0.04048 0.76247-0.48038
   5   7   0   43.46   13.22  53 0.04635 0.52709 0.52345-0.02934 0.76259-0.48093
   5   1   3    9.46   18.98  54 0.04231 0.68709 0.51841-0.44589 0.76348-0.15999
   4  12   0   17.55   19.41  53 0.04394 0.41574 0.52044 0.32329 0.76313-0.53761
   1  12  -1   -6.14   18.94  53 0.04407 0.02082 0.52060 0.32364 0.76310-0.81440
   0  12  -1   13.26   15.02  53 0.04742-0.09686 0.52476 0.31838 0.76236-0.86948
   0   3  -1 1746.65   32.08  53 0.04386-0.09621 0.52035-0.30899 0.76314-0.87067
  -1  11  -1   61.49   17.07  53 0.04582-0.21089 0.52278 0.24968 0.76271-0.92708
  -1  -5   4  338.79   14.80  52 0.04787 0.04693 0.52534-0.87711 0.76225-0.39090
  -1  -6   6   12.60   15.37  53 0.04441 0.15545 0.52103-0.94265 0.76302-0.17712
  -2  -5   4  255.50   13.58  53 0.04698-0.06587 0.52422-0.87606 0.76245-0.44670
  -5  -6   7    7.34   13.82  53 0.04699-0.25163 0.52424-0.94810 0.76245-0.29478
  -6  -6   8   -2.27   17.08  53 0.04480-0.31075 0.52152-0.94542 0.76294-0.24559
  -8   1   4    2.92   15.86  53 0.04651-0.75082 0.52364-0.45702 0.76256-0.78608
  -9   5   4   -5.72   22.99  54 0.04236-0.85975 0.51847-0.16931 0.76346-0.84346
   6   5   3   16.93   21.43  54 0.04135 0.80328 0.51742-0.16390 0.76363-0.10389
   4   1   1   88.65   16.15  54 0.03862 0.47145 0.51400-0.44293 0.76420-0.43100
   3  10  -1   -0.12   16.49  55 0.03762 0.25458 0.51274 0.19034 0.76440-0.70138
  -1   4  -1  494.37   22.47  55 0.03751-0.20298 0.51261-0.23203 0.76442-0.92784
  -4   9   0   46.87   23.15  56 0.03187-0.48626 0.50551 0.12592 0.76551-0.99210
  -6  -1   3   10.74   13.51  54 0.03893-0.56779 0.51440-0.58745 0.76413-0.78184
  -7   1   3    5.75   15.23  54 0.04135-0.68336 0.51742-0.44998 0.76363-0.83743
  -9   1   5   -0.82   20.13  54 0.03974-0.80488 0.51540-0.44775 0.76397-0.73731
  -9  -1   6    1.89   19.14  53 0.04192-0.75166 0.51813-0.59103 0.76351-0.62857
   5   2   2   15.92   15.85  56 0.03343 0.64341 0.50748-0.36483 0.76527-0.26868
   4   3   0  117.53   11.98  55 0.03803 0.41979 0.51328-0.30148 0.76436-0.53848
  -2  -3   2    8.17   11.20  55 0.03616-0.16026 0.51093-0.72260 0.76473-0.66332
  -4  -6   6   -1.73   12.57  55 0.03801-0.18104 0.51325-0.93735 0.76436-0.34790
  -6  -4   5    9.47   12.67  54 0.03811-0.46180 0.51337-0.79696 0.76434-0.56737
  -6  -5   6  -13.01   14.28  55 0.03520-0.40660 0.50972-0.86356 0.76492-0.46146
  -7  -4   6   10.26   13.91  55 0.03818-0.52470 0.51346-0.79881 0.76433-0.51710
   4  11   0   -3.43   17.15  56 0.03041 0.42969 0.50364 0.27196 0.76597-0.54003
   3   9  -1  396.03   17.02  56 0.02950 0.26323 0.50248 0.13040 0.76614-0.70373
   3   5  -1  448.68   15.66  55 0.03302 0.25877 0.50694-0.15519 0.76548-0.70294
   2  11  -1    3.07   14.13  56 0.03339 0.14516 0.50739 0.26700 0.76542-0.75920
   1   3  -1    2.94   10.62  55 0.03255 0.02996 0.50633-0.29465 0.76558-0.81659
  -2   1   0  191.06   20.88  57 0.02598-0.25387 0.49801-0.42874 0.76676-0.87937
  -3  12   0    9.72   20.26  56 0.03076-0.37101 0.50407 0.33850 0.76591-0.93569
  -3  -5   4  119.95   14.00  56 0.03008-0.16456 0.50320-0.85509 0.76604-0.50818
  -4  -7   9    6.15   22.17  56 0.03219-0.01720 0.50587-0.99962 0.76565-0.02709
  -7  -3   5   -3.68   13.42  56 0.03291-0.57083 0.50678-0.72017 0.76551-0.62570
  -7  -5   7  -14.92   15.91  56 0.03278-0.46569 0.50662-0.86097 0.76553-0.41122
  -8  -4   7   -7.31   16.56  56 0.03217-0.57869 0.50585-0.78952 0.76565-0.46769
   5  10   1    6.87   18.20  57 0.02542 0.60145 0.49728 0.20792 0.76686-0.37768
   5   4   1   58.60   15.20  57 0.02638 0.59785 0.49850-0.21568 0.76669-0.37817
   5   1   4   97.11   21.52  59 0.01979 0.75980 0.49008-0.41792 0.76779-0.05853
   5   1   5    8.89   22.10  58 0.02182 0.81251 0.49268-0.42041 0.76746 0.04981
   4   0   2  122.06   19.20  58 0.02111 0.54111 0.49177-0.49059 0.76758-0.32725
   1  11  -1   11.37   15.04  57 0.02427 0.03992 0.49581 0.27622 0.76705-0.81735
   1  -3   2  382.34   24.07  58 0.02037 0.19918 0.49083-0.70111 0.76769-0.49653
   0  11  -1   -5.31   15.29  57 0.02791-0.07800 0.50043 0.27384 0.76643-0.87370
   0  -5   4  445.51   19.84  57 0.02621 0.18294 0.49829-0.84934 0.76672-0.33879
  -1  10  -1    1.49   15.21  57 0.02579-0.19020 0.49774 0.20478 0.76680-0.92996
  -3  -4   3 1724.68   24.03  57 0.02722-0.21209 0.49957-0.78172 0.76654-0.61427
  -3  -7   8    3.19   18.17  57 0.02680 0.04963 0.49903-0.99110 0.76662-0.07997
  -4  -7   8   -9.12   17.99  57 0.02537-0.06321 0.49722-0.99061 0.76687-0.13621
  -5  -5   5    7.04   12.65  57 0.02732-0.33687 0.49969-0.85310 0.76653-0.51307
  -6  -3   4   99.29   14.58  57 0.02584-0.50094 0.49780-0.71100 0.76679-0.67685
  -7   5   2   25.91   22.57  59 0.01765-0.71104 0.48733-0.13837 0.76812-0.95014
  -8   4   3    2.51   19.09  56 0.02670-0.77833 0.49890-0.22154 0.76664-0.89486
  -8  -3   6    2.59   15.40  57 0.02863-0.62928 0.50136-0.71588 0.76629-0.57626
  -9   4   4    1.72   21.52  58 0.02173-0.83979 0.49255-0.21476 0.76748-0.84808
   3   8  -1  294.26   14.73  57 0.02334 0.26871 0.49405 0.06925 0.76737-0.70497
   3   7  -1  594.54   15.73  58 0.02199 0.27084 0.49232 0.00051 0.76759-0.70538
   3   6  -1  192.10   12.96  57 0.02351 0.26779 0.49426-0.07112 0.76734-0.70512
   2  10  -1  416.54   18.65  58 0.02002 0.15950 0.48980 0.21376 0.76791-0.76156
   1  -5   5  405.26   23.64  58 0.02097 0.35430 0.49102-0.84203 0.76775-0.17661
   0  -6   7    7.06   18.30  59 0.01750 0.35011 0.48656-0.90936 0.76829-0.01812
  -2  13   0   45.46   21.29  58 0.02091-0.24666 0.49093 0.42296 0.76777-0.88104
  -2  -6   5  152.91   15.02  58 0.02159 0.01062 0.49181-0.91407 0.76766-0.34589
  -5  -4   4   34.22   12.10  57 0.02346-0.38567 0.49420-0.77793 0.76735-0.62180
  -6  -6   7   -5.91   15.48  58 0.02072-0.33973 0.49071-0.91543 0.76779-0.35744
  -8  -5   8   -0.32   18.12  58 0.02285-0.51755 0.49342-0.84822 0.76745-0.36293
   5   9   1   42.45   19.61  59 0.01580 0.60971 0.48466 0.14941 0.76845-0.37952
   4  10   0   18.27   15.42  59 0.01782 0.44166 0.48727 0.21720 0.76814-0.54220
   4   4   0  193.79   14.81  59 0.01465 0.44327 0.48317-0.20057 0.76862-0.54265
   3  12   0    9.45   17.34  59 0.01664 0.32976 0.48575 0.36054 0.76832-0.59922
   2   4  -1  279.26   13.85  59 0.01793 0.15939 0.48740-0.20475 0.76813-0.76232
   0  -6   8  -11.65   22.93  60 0.01294 0.40631 0.48096-0.90294 0.76886 0.08698
  -2  -7   8    8.75   22.01  59 0.01449 0.17617 0.48297-0.97501 0.76864-0.02551
  -3  -6   5   58.74   13.60  59 0.01557-0.09674 0.48437-0.90702 0.76848-0.40318
  -4   8   0   -0.38   20.91  60 0.00905-0.46501 0.47592 0.08566 0.76939-0.99596
  -4   6   0  143.41   33.68  65-0.01242-0.44275 0.44770-0.02679 0.77164-0.99810
  -5  -6   6    1.62   15.03  58 0.01807-0.27432 0.48758-0.90941 0.76811-0.40760
  -5  -7   8  -10.20   19.33  59 0.01530-0.16715 0.48402-0.97764 0.76852-0.19505
  -7  -6   8   -7.21   18.36  59 0.01579-0.39655 0.48465-0.91005 0.76845-0.30736
  -9  -3   7   -9.65   18.86  59 0.01782-0.67932 0.48727-0.70158 0.76814-0.52746
   5   8   1   -2.60   16.43  60 0.01200 0.61676 0.47951 0.08636 0.76915-0.37925
   5   5   1  410.68   17.02  60 0.01365 0.61079 0.48164-0.12956 0.76892-0.38015
   2  13   0   33.77   19.08  60 0.01368 0.21803 0.48168 0.43294 0.76892-0.65586
   1  -4   3  785.55   28.23  61 0.00594 0.26537 0.47163-0.75225 0.76995-0.39256
   0  10  -1  622.17   19.73  60 0.00987-0.05949 0.47675 0.22605 0.76944-0.87638
  -1   9  -1  564.15   20.26  60 0.01068-0.17455 0.47779 0.15455 0.76934-0.93285
  -1  -6   5   25.46   15.59  60 0.01179 0.13547 0.47924-0.90048 0.76918-0.29081
  -3  -7   7    2.58   16.17  60 0.01309 0.01083 0.48092-0.97409 0.76900-0.18937
  -4  -2   2 1169.68   21.23  59 0.01378-0.36535 0.48181-0.62457 0.76891-0.78044
  -6   1   2   37.92   15.78  60 0.01232-0.59299 0.47992-0.41162 0.76911-0.89450
  -8   0   4    6.60   17.33  61 0.00940-0.71670 0.47613-0.47994 0.76951-0.79439
  -8  -2   5   -4.31   15.28  60 0.01309-0.66526 0.48092-0.62409 0.76900-0.68610
   5   7   1   -6.12   14.90  61 0.00776 0.61893 0.47387 0.02163 0.76963-0.38033
   5   6   1   11.36   13.74  60 0.00847 0.61793 0.47479-0.05071 0.76954-0.38001
   5   3   2   19.68   17.04  62 0.00405 0.67260 0.46904-0.25608 0.77008-0.27360
   4   9   0   49.05   14.88  61 0.00812 0.45052 0.47435 0.15919 0.76958-0.54455
   2   9  -1   28.19   13.06  61 0.00833 0.16990 0.47462 0.15933 0.76955-0.76390
   1  10  -1  121.28   15.14  60 0.00897 0.05515 0.47546 0.22737 0.76947-0.82011
   0  -2   1 2575.18   43.95  60 0.00826 0.04555 0.47453-0.61518 0.76956-0.66162
   0  -6   6    9.37   18.90  61 0.00480 0.31032 0.47001-0.89308 0.77000-0.12706
  -2  -7   7    3.95   18.24  61 0.00643 0.13160 0.47214-0.96358 0.76980-0.13444
  -4  -7   7   13.57   15.56  61 0.00789-0.09826 0.47405-0.96872 0.76961-0.24588
  -7  -2   4   17.83   14.45  61 0.00885-0.59989 0.47529-0.61939 0.76949-0.73713
  -9   0   5  -14.32   18.03  61 0.00849-0.77519 0.47483-0.47765 0.76953-0.74367
  -9  -2   6    5.33   17.67  62 0.00455-0.72059 0.46970-0.61523 0.77002-0.63657
   5   2   3   14.43   17.93  62 0.00181 0.72891 0.46609-0.32374 0.77024-0.16632
   4   8   0   13.32   14.34  62 0.00170 0.45863 0.46593 0.09913 0.77025-0.54437
   4   5   0  319.57   14.65  62 0.00273 0.45550 0.46728-0.11395 0.77013-0.54494
   3   2   0 2948.86   32.05  61 0.00409 0.33959 0.46906-0.32669 0.76998-0.60030
   2   5  -1  157.24   14.21  62 0.00073 0.17664 0.46467-0.11162 0.77036-0.76454
   1  13   0   -3.86   18.75  62 0.00082 0.11672 0.46478 0.45119 0.77035-0.71435
  -1  13   0   17.04   18.98  62 0.00094-0.11229 0.46494 0.44964 0.77034-0.82766
  -1   5  -1  844.07   22.66  62-0.00050-0.16474 0.46306-0.11146 0.77049-0.93412
  -1  -2   1 6358.93   54.59  62 0.00273-0.06323 0.46728-0.60914 0.77014-0.71818
  -3  11   0   16.94   18.54  63-0.00119-0.33913 0.46213 0.31027 0.77057-0.94039
  -4   7   0   -0.98   22.59  65-0.01114-0.44420 0.44899 0.04163 0.77150-0.99772
  -4  -5   4   -7.17   11.42  62 0.00367-0.25150 0.46852-0.82161 0.77002-0.56838
  -5  11   1   17.36   28.14  63-0.00639-0.51009 0.45529 0.31669 0.77108-0.94733
  -5  -1   2   83.76   11.22  61 0.00344-0.46956 0.46820-0.54108 0.77005-0.83825
  -5  -3   3    4.61   12.48  61 0.00221-0.41558 0.46661-0.67888 0.77019-0.73127
  -7   0   3   -0.65   15.06  63-0.00146-0.64309 0.46178-0.46519 0.77060-0.84656
  -9   3   4    6.68   20.30  62 0.00103-0.81874 0.46505-0.25753 0.77033-0.85086
   4   7   0   12.41   12.96  62-0.00211 0.46229 0.46109 0.03343 0.77063-0.54493
   4   6   0  182.45   13.57  63-0.00276 0.46182 0.46021-0.03819 0.77070-0.54495
   4  -1   4    4.16   22.79  66-0.01626 0.68221 0.44231-0.51088 0.77185-0.11845
   4  -1   6    7.04   32.30  67-0.02256 0.79401 0.43387-0.50289 0.77223 0.09482
   3  11   0    9.75   15.24  62-0.00065 0.34649 0.46299 0.31208 0.77048-0.60129
   3   0   1    1.30   12.47  64-0.00501 0.40012 0.45725-0.45600 0.77092-0.49432
   2   8  -1  807.39   17.49  62-0.00123 0.17929 0.46224 0.10103 0.77054-0.76437
   1   9  -1   -0.55   13.50  63-0.00424 0.06823 0.45827 0.17703 0.77085-0.82185
   0  13   0    6.46   20.00  63-0.00465 0.00780 0.45774 0.45785 0.77088-0.77126
  -1   8  -1  488.37   19.21  63-0.00292-0.16120 0.46002 0.10219 0.77071-0.93411
  -3  -1   1  112.47   12.29  62-0.00093-0.28949 0.46263-0.53487 0.77051-0.83287
  -3  -3   2  258.12   13.85  63-0.00262-0.23498 0.46042-0.67270 0.77068-0.72559
  -4  -6   5   49.72   14.28  62-0.00128-0.19430 0.46218-0.88586 0.77054-0.46158
  -5   2   1   23.86   16.05  63-0.00573-0.51242 0.45631-0.31787 0.77099-0.94652
  -6  -7   8    5.63   17.67  63-0.00377-0.26278 0.45889-0.95478 0.77080-0.25349
  -7   4   2    6.56   21.04  64-0.00820-0.68572 0.45306-0.17435 0.77121-0.95292
  -7  -5   6   -1.22   15.43  63-0.00416-0.48144 0.45838-0.81263 0.77084-0.52471
  -8   3   3   -1.15   18.14  64-0.00653-0.75084 0.45526-0.24723 0.77106-0.90337
   5   9   2    9.88   18.82  65-0.01130 0.68739 0.44903 0.18362 0.77144-0.27601
   4  11   1   -1.23   17.19  64-0.00617 0.51853 0.45582 0.31992 0.77099-0.43751
   4   2   1   29.09   13.58  64-0.00754 0.51824 0.45402-0.31159 0.77112-0.43811
   2  12   0   11.68   16.25  64-0.00715 0.23883 0.45453 0.39041 0.77108-0.65811
   2   7  -1   86.95   11.62  64-0.00644 0.18378 0.45546 0.03686 0.77102-0.76518
   2   6  -1  660.66   16.59  64-0.00642 0.18364 0.45548-0.03295 0.77102-0.76520
   1   4  -1 7806.70   49.73  63-0.00550 0.06812 0.45670-0.17500 0.77093-0.82138
   0   9  -1   24.92   12.28  63-0.00625-0.04438 0.45571 0.17742 0.77100-0.87818
   0   4  -1  430.67   16.79  64-0.00696-0.04462 0.45479-0.17376 0.77106-0.87817
  -1   7  -1  989.84   22.49  65-0.01145-0.15344 0.44882 0.04270 0.77145-0.93506
  -2  12   0   -0.44   19.45  65-0.01155-0.21415 0.44869 0.39394 0.77146-0.88406
  -4   0   1    5.48   12.37  64-0.00970-0.39430 0.45114-0.45261 0.77131-0.89000
  -4  -4   3   28.62   13.72  64-0.00944-0.29066 0.45150-0.73437 0.77128-0.67649
  -5  -7   7   -0.14   16.11  64-0.00629-0.19845 0.45566-0.95094 0.77100-0.30470
  -6  -2   3   21.78   12.48  64-0.00832-0.51975 0.45297-0.59588 0.77119-0.78912
  -8  -4   6   -3.77   16.04  64-0.00926-0.59058 0.45172-0.73596 0.77127-0.58191
  -8  -5   7    6.34   17.90  64-0.00727-0.53956 0.45437-0.80865 0.77109-0.47441
   5   4   2   90.11   16.18  65-0.01185 0.68910 0.44820-0.16686 0.77157-0.27558
   5   2   4   -1.17   20.31  66-0.01657 0.79901 0.44191-0.29957 0.77192-0.06105
   5   2   5   -2.46   22.90  66-0.01638 0.85230 0.44215-0.29880 0.77191 0.04515
   2   1   0  221.56   16.15  65-0.01461 0.24371 0.44451-0.37277 0.77179-0.65897
  -1   6  -1  334.11   16.79  65-0.01280-0.15225 0.44693-0.02568 0.77165-0.93507
  -3  -7   6   -3.10   13.78  65-0.01167-0.01678 0.44843-0.94158 0.77156-0.29932
  -6  -5   5    7.21   13.75  64-0.01028-0.41358 0.45027-0.80447 0.77145-0.57529
  -6  -6   6    4.37   14.79  64-0.01143-0.35905 0.44875-0.87168 0.77154-0.46799
  -7  -4   5   23.64   13.96  64-0.01051-0.52792 0.44997-0.73460 0.77147-0.63211
  -7  -6   7   -1.65   16.11  65-0.01107-0.42223 0.44924-0.87453 0.77151-0.41835
   5   8   2   13.20   17.30  66-0.01691 0.69600 0.44133 0.12335 0.77200-0.27546
   3  10   0   27.92   14.47  65-0.01614 0.36142 0.44236 0.26230 0.77194-0.60271
   2  -4   4  198.87   29.52  67-0.02581 0.46265 0.42935-0.71034 0.77250-0.23170
   1   8  -1  484.82   15.30  66-0.01631 0.08014 0.44212 0.12024 0.77196-0.82264
   0   8  -1 1076.34   21.06  66-0.01928-0.03086 0.43814 0.12415 0.77215-0.87910
  -1  -7   7    1.34   20.44  66-0.01895 0.27096 0.43859-0.92943 0.77213-0.08030
  -1  -7   8    1.45   21.03  67-0.02115 0.32757 0.43564-0.93124 0.77226 0.02896
  -2  -7   6   -1.46   16.89  66-0.01822 0.10423 0.43957-0.93444 0.77208-0.24246
  -4  -7   6    3.00   15.75  66-0.01944-0.12343 0.43793-0.93231 0.77216-0.35560
  -9  -4   7    0.40   19.71  66-0.01676-0.64420 0.44154-0.72591 0.77198-0.53164
   5   7   2   22.80   16.70  67-0.02228 0.70070 0.43414 0.06011 0.77235-0.27588
   5   6   2   12.13   16.24  67-0.02359 0.70204 0.43239-0.00841 0.77241-0.27589
   5   5   2  228.69   18.19  67-0.02117 0.69829 0.43564-0.08475 0.77228-0.27619
   5   3   3   27.64   17.98  68-0.02556 0.75399 0.42973-0.21768 0.77251-0.16891
   4  10   1  -10.99   15.92  67-0.02053 0.53227 0.43650 0.26881 0.77225-0.43914
   4  -1   5    2.78   25.51  70-0.03773 0.75554 0.41317-0.48156 0.77289-0.01325
   3  12   1   28.72   18.04  68-0.02493 0.42268 0.43058 0.41322 0.77248-0.49663
   1  12   0   14.16   16.15  67-0.02403 0.14101 0.43178 0.41160 0.77244-0.71603
   1   7  -1   -1.99   12.22  67-0.02374 0.08725 0.43217 0.06196 0.77242-0.82320
   1   5  -1   -1.37   11.49  67-0.02162 0.08447 0.43502-0.08277 0.77231-0.82309
   0  -6   5    9.70   17.03  68-0.02617 0.28808 0.42890-0.85135 0.77254-0.23691
  -3   2   0 2262.11   51.46  68-0.02843-0.31339 0.42585-0.28630 0.77263-0.94216
  -6  -4   4   12.49   14.19  66-0.02185-0.45383 0.43473-0.71819 0.77232-0.68275
  -8  -1   4    4.03   18.62  67-0.02341-0.68164 0.43261-0.50538 0.77241-0.79697
  -8  -3   5   -8.99   18.38  67-0.02391-0.62723 0.43195-0.64531 0.77243-0.68974
  -9   2   4   -6.28   20.12  67-0.02325-0.79561 0.43283-0.29418 0.77240-0.85345
  -9  -1   5    9.46   20.50  67-0.02360-0.74433 0.43236-0.50708 0.77242-0.74636
   3   3   0  308.11   15.80  68-0.02872 0.37198 0.42559-0.21361 0.77260-0.60343
   2  11   0    4.48   14.31  68-0.02647 0.25778 0.42863 0.34698 0.77251-0.65993
   2  -1   1  356.81   26.85  69-0.03428 0.31634 0.41801-0.48734 0.77278-0.55191
   1   6  -1   46.45   11.41  68-0.02650 0.09039 0.42858-0.00655 0.77251-0.82297
   0   7  -1  120.26   13.85  68-0.02855-0.02163 0.42580 0.06635 0.77260-0.87959
   0   5  -1  202.45   14.56  68-0.02786-0.02294 0.42675-0.07508 0.77257-0.87935
  -1  12   0    5.00   17.41  68-0.02858-0.08275 0.42576 0.41757 0.77260-0.82959
  -2  -5   3   90.85   14.07  68-0.02746-0.04420 0.42730-0.77952 0.77255-0.56422
  -5  -6   5   -1.92   13.70  68-0.02598-0.28343 0.42929-0.85338 0.77249-0.51994
  -6  -7   7    3.78   15.76  67-0.02610-0.29221 0.42912-0.92335 0.77249-0.36158
  -7  -7   8   -0.47   18.54  68-0.02671-0.35308 0.42830-0.92290 0.77252-0.31145
  -8   2   3    0.68   20.04  69-0.03272-0.72410 0.42015-0.28263 0.77274-0.90428
  -9  -3   6    5.25   20.88  69-0.03038-0.68695 0.42334-0.64045 0.77266-0.63944
   4  11   2   16.50   18.41  70-0.03544 0.59828 0.41682 0.35605 0.77270-0.33344
   4   9   1   80.55   16.18  69-0.03253 0.54418 0.42080 0.21368 0.77263-0.44052
   4   3   1  255.97   16.23  69-0.03533 0.54543 0.41698-0.20463 0.77270-0.43941
   3   9   0  148.96   14.30  68-0.03037 0.37503 0.42373 0.20967 0.77256-0.60311
   2  13   1    6.05   18.93  69-0.03132 0.31579 0.42245 0.49362 0.77259-0.55241
   0  12   0  330.56   19.46  69-0.03179 0.03359 0.42180 0.42255 0.77261-0.77327
   0   6  -1 1015.60   21.22  69-0.03318-0.01799 0.41990 0.00216 0.77265-0.87962
  -1  -5   3  491.45   16.28  68-0.03033 0.07330 0.42378-0.77555 0.77256-0.50814
  -2  -2   1 1820.59   27.63  69-0.03158-0.14320 0.42209-0.56403 0.77260-0.77771
  -2  -6   4   77.08   11.84  68-0.03121 0.01165 0.42258-0.84514 0.77259-0.45784
  -3  10   0   31.17   17.60  69-0.03424-0.30576 0.41846 0.28312 0.77268-0.94222
  -4  -8   8   -5.20   18.81  69-0.03156-0.00648 0.42212-0.98673 0.77260-0.14246
  -5  -5   4    6.52   12.38  68-0.03022-0.33214 0.42393-0.77848 0.77255-0.62695
  -6   0   2  123.29   17.17  69-0.03253-0.54773 0.42080-0.42353 0.77263-0.89775
  -7   3   2   44.55   19.60  70-0.03773-0.65668 0.41370-0.20496 0.77275-0.95511
  -7  -3   4    2.32   14.38  69-0.03206-0.55789 0.42145-0.63555 0.77261-0.73989
   5   8   3  -12.09   17.55  70-0.03609 0.76662 0.41637 0.14946 0.77254-0.16898
   5   4   3   16.83   18.31  71-0.03986 0.76754 0.41121-0.12830 0.77260-0.16997
   5   3   4   27.45   19.46  70-0.03990 0.82086 0.41117-0.19840 0.77260-0.06287
   4   1   2  348.12   19.70  70-0.03967 0.60217 0.41148-0.33938 0.77260-0.33240
  -1  -7   6    6.04   15.88  69-0.03802 0.23720 0.41373-0.90484 0.77258-0.18769
  -2  11   0    6.01   18.78  70-0.04077-0.18520 0.40996 0.36403 0.77261-0.88644
  -3  -6   4    6.39   11.71  69-0.03682-0.09678 0.41538-0.83820 0.77256-0.51367
  -3  -8   8   -2.82   20.91  70-0.03832 0.11467 0.41331-0.97923 0.77258-0.08515
  -5  -7   6   -6.74   14.88  70-0.03657-0.22057 0.41571-0.91037 0.77255-0.41321
  -5  -8   8  -13.38   18.42  70-0.03694-0.11517 0.41521-0.97981 0.77256-0.19901
  -7  -1   3   -2.71   15.05  70-0.03873-0.60435 0.41276-0.48523 0.77259-0.84798
   5   7   3   -1.56   18.16  71-0.04151 0.77288 0.40891 0.08705 0.77278-0.16907
   5   6   3   19.51   20.08  72-0.04614 0.77586 0.40253 0.02149 0.77279-0.16896
   5   5   3   10.87   17.84  71-0.04341 0.77527 0.40629-0.05191 0.77279-0.16793
   4   8   1   39.75   15.05  71-0.04450 0.55478 0.40480 0.15861 0.77279-0.43976
   4   0   3    0.01   18.15  72-0.04857 0.66298 0.39917-0.39734 0.77277-0.22553
   3  11   1   47.76   17.33  72-0.04512 0.44209 0.40393 0.36938 0.77279-0.49621
   3   8   0  358.82   15.05  71-0.04109 0.38498 0.40948 0.15470 0.77278-0.60395
   1  -5   4  568.27   26.70  71-0.04367 0.36657 0.40595-0.75729 0.77279-0.28795
  -1  -6   4  185.12   15.98  70-0.04187 0.13660 0.40841-0.83051 0.77279-0.40112
  -3  -5   3    2.13   11.32  71-0.04199-0.14358 0.40824-0.76007 0.77279-0.62169
  -4  12   1   72.59   22.40  72-0.04781-0.35298 0.40022 0.44310 0.77278-0.89129
   5   4   4    7.99   19.39  72-0.05079 0.83355 0.39646-0.11293 0.77274-0.06164
   4   4   1    6.46   12.77  73-0.05026 0.55997 0.39720-0.11429 0.77275-0.43953
   3   4   0  116.60   12.28  72-0.04649 0.39031 0.40242-0.11886 0.77278-0.60328
   3  -1   2  489.40   25.03  73-0.05526 0.50314 0.39024-0.45876 0.77265-0.38932
   3  -2   3   22.44   24.06  76-0.06867 0.56789 0.37141-0.51037 0.77207-0.28166
   2  10   0   65.77   13.85  72-0.04614 0.27681 0.40290 0.30131 0.77279-0.65963
   1  11   0   25.57   15.19  72-0.04665 0.16358 0.40221 0.37238 0.77278-0.71619
  -1  -4   2  265.51   14.50  71-0.04626 0.03773 0.40275-0.68505 0.77278-0.61392
  -3  13   1   14.26   22.07  72-0.04970-0.23660 0.39797 0.51403 0.77276-0.83472
  -3  -7   5  113.65   16.27  72-0.04902-0.03339 0.39893-0.89163 0.77276-0.40843
  -3  -8   7    3.59   19.20  72-0.04832 0.07201 0.39988-0.96133 0.77277-0.19383
  -4  -3   2 1434.90   23.15  72-0.04824-0.30360 0.39999-0.61336 0.77277-0.78397
  -4  -8   7    3.45   17.31  72-0.04820-0.04206 0.40005-0.96357 0.77277-0.24959
  -7  -6   6    3.36   15.78  72-0.04680-0.43793 0.40198-0.82591 0.77278-0.52629
  -8  -5   6   10.73   17.39  72-0.04916-0.55140 0.39873-0.75489 0.77276-0.58274
  -8  -6   7   -8.12   18.22  72-0.04680-0.49950 0.40198-0.82633 0.77278-0.47571
  -9   1   4    9.22   18.93  72-0.04856-0.77017 0.39956-0.33268 0.77277-0.85359
   5   5   4  -10.63   21.26  73-0.05436 0.83927 0.39149-0.03579 0.77258-0.06104
   4  10   2    3.66   15.80  73-0.05066 0.61460 0.39663 0.30900 0.77265-0.33198
   4   7   1  138.54   14.34  73-0.05133 0.56102 0.39570 0.09740 0.77264-0.44108
   3   7   0  -11.68   11.89  73-0.05054 0.39437 0.39680 0.09724 0.77266-0.60260
   3   6   0  391.42   15.87  73-0.05429 0.39732 0.39158 0.03162 0.77258-0.60386
   3   5   0  567.80   16.74  73-0.05404 0.39683 0.39193-0.03898 0.77259-0.60382
   1  13   1    3.60   21.20  73-0.05440 0.22383 0.39143 0.52138 0.77258-0.60860
  -2  -4   2   12.18   11.30  72-0.05106-0.07315 0.39606-0.67851 0.77265-0.67157
  -2  -7   5   66.72   15.35  72-0.05178 0.08438 0.39506-0.88768 0.77264-0.35079
  -5  10   1   -0.30   23.83  74-0.05876-0.45834 0.38533 0.31758 0.77245-0.94819
  -5  -2   2  401.85   14.90  72-0.05010-0.41653 0.39741-0.54046 0.77266-0.84138
  -5  -4   3   69.29   13.28  73-0.05160-0.36267 0.39531-0.67893 0.77264-0.73421
  -6  -3   3   18.25   13.26  73-0.05424-0.47370 0.39165-0.60503 0.77258-0.79052
  -6  -8   8   -8.18   20.32  73-0.05103-0.21525 0.39612-0.96173 0.77265-0.25555
  -7  -5   5    5.51   15.53  72-0.05127-0.48538 0.39578-0.74922 0.77264-0.63232
  -7  -7   7   13.17   17.75  72-0.05255-0.37872 0.39400-0.88689 0.77262-0.41902
  -9  -2   5  -13.42   17.00  73-0.05370-0.71246 0.39240-0.53589 0.77260-0.74678
   5   6   4   12.62   18.54  73-0.05513 0.83924 0.39002 0.03427 0.77261-0.06153
   4   6   1   11.83   12.51  73-0.05532 0.56630 0.38976 0.03395 0.77261-0.43952
   4   5   1    7.90   11.43  74-0.05576 0.56595 0.38914-0.03594 0.77260-0.43954
   2  12   1  214.21   17.08  74-0.05530 0.33751 0.38979 0.45429 0.77261-0.55389
   0  11   0    3.67   16.26  75-0.05905 0.06164 0.38454 0.38716 0.77249-0.77183
   0  -5   3   32.55   15.29  74-0.05994 0.21637 0.38330-0.73486 0.77246-0.45139
  -1  11   0   19.70   18.35  74-0.05719-0.05431 0.38714 0.38635 0.77255-0.82931
  -2  -8   8   17.52   21.34  74-0.05885 0.25044 0.38481-0.95149 0.77250-0.02682
  -4  -6   4  386.29   15.30  73-0.05464-0.19265 0.39070-0.81435 0.77263-0.57068
  -4  -7   5   23.41   14.90  74-0.05849-0.13698 0.38533-0.87968 0.77251-0.46296
  -5   1   1   79.55   16.77  74-0.05828-0.45963 0.38562-0.31761 0.77252-0.94809
  -5  -8   7   -5.71   18.91  75-0.06072-0.14527 0.38220-0.95256 0.77243-0.30394
  -6  -6   5   10.86   13.67  73-0.05615-0.36687 0.38860-0.81218 0.77259-0.57575
  -8   1   3    6.67   18.36  74-0.05822-0.69615 0.38571-0.31854 0.77252-0.90301
  -8  -2   4   18.03   16.99  74-0.05674-0.64631 0.38777-0.53127 0.77257-0.79571
   4   9   2   58.74   17.37  75-0.06406 0.62850 0.37742 0.25749 0.77222-0.33216
   3  10   1   -3.51   15.48  75-0.06115 0.45936 0.38152 0.32445 0.77235-0.49599
   2   9   0  117.14   14.18  75-0.06230 0.29126 0.37990 0.25386 0.77230-0.66113
  -1   0   0   49.07   17.79  75-0.06148-0.05218 0.38106-0.38249 0.77233-0.82826
  -2  -8   7    7.67   19.43  76-0.06514 0.20328 0.37590-0.93970 0.77216-0.13568
  -3   9   0   88.25   19.33  76-0.06664-0.27378 0.37379 0.25770 0.77208-0.94187
  -6  -7   6  -10.16   14.93  75-0.06017-0.31122 0.38288-0.87831 0.77239-0.46930
  -7   2   2   19.17   18.32  76-0.06674-0.62879 0.37364-0.23564 0.77208-0.95454
  -8  -4   5    4.11   16.03  75-0.06115-0.59040 0.38152-0.66537 0.77235-0.68930
  -9  -4   6    7.05   18.68  75-0.06115-0.65209 0.38152-0.66579 0.77235-0.63876
   1  10   0   12.31   14.15  76-0.06855 0.18491 0.37092 0.33208 0.77199-0.71567
   0  13   1   36.45   19.65  76-0.06671 0.12247 0.37351 0.54145 0.77210-0.66567
  -2  13   1   41.59   19.31  76-0.06714-0.10592 0.37290 0.54239 0.77207-0.77883
  -4  -5   3   48.84   12.16  76-0.06663-0.23286 0.37362-0.72667 0.77210-0.67643
  -6  -5   4   14.42   14.81  76-0.06813-0.40809 0.37150-0.72591 0.77202-0.68272
   4   2   2   16.52   15.13  78-0.07421 0.63456 0.36292-0.22100 0.77166-0.33277
   3   1   1  445.58   18.25  77-0.07221 0.46748 0.36576-0.29374 0.77180-0.49567
   2   2   0 5363.64   44.07  77-0.07112 0.30001 0.36730-0.22502 0.77187-0.65940
   1  -6   7   -4.13   26.45  79-0.07992 0.56152 0.35477-0.77730 0.77119 0.03398
   0  -4   2 1751.13   29.56  77-0.07290 0.17870 0.36477-0.64533 0.77175-0.55729
  -1  13   1   19.18   18.80  77-0.07304 0.01453 0.36458 0.54949 0.77174-0.72157
  -1  -7   5  145.55   18.54  76-0.07148 0.21781 0.36680-0.85861 0.77185-0.29427
  -2  10   0   48.16   15.53  77-0.07182-0.15409 0.36631 0.33628 0.77183-0.88535
  -3  -4   2  145.39   13.47  77-0.07130-0.16552 0.36704-0.64953 0.77186-0.72665
  -4  -1   1  113.65   15.01  77-0.07253-0.33139 0.36529-0.43790 0.77178-0.89024
  -6  -1   2   47.36   14.14  77-0.07354-0.50605 0.36385-0.43641 0.77171-0.89660
  -6  -8   7    7.59   17.49  76-0.07082-0.24623 0.36773-0.92897 0.77189-0.36220
  -7  -4   4   29.67   15.18  77-0.07243-0.51840 0.36543-0.65020 0.77179-0.73904
  -9   0   4   22.03   18.74  77-0.07353-0.74412 0.36387-0.36777 0.77171-0.85250
   4   8   2    8.99   14.90  77-0.07544 0.64071 0.36139 0.20367 0.77141-0.33149
   3  11   2    6.15   19.76  79-0.07930 0.52750 0.35589 0.41580 0.77109-0.38830
   3   9   1    4.80   14.60  77-0.07639 0.47576 0.36003 0.27665 0.77133-0.49484
   2  11   1   -7.41   14.39  77-0.07541 0.36017 0.36143 0.41505 0.77141-0.55237
   2   8   0  518.49   16.48  78-0.07811 0.30677 0.35758 0.20588 0.77119-0.65940
   1  12   1    2.49   17.90  78-0.07839 0.24847 0.35717 0.48878 0.77117-0.60792
   1  -6   6    9.99   21.27  78-0.07793 0.50461 0.35783-0.77771 0.77121-0.07419
   0  -7   7   -1.32   21.89  79-0.08075 0.44833 0.35382-0.84786 0.77096-0.02083
  -3  -2   1  107.31   13.02  78-0.07555-0.21377 0.36123-0.50409 0.77140-0.83298
  -3  -8   6    9.37   15.40  77-0.07420 0.04526 0.36315-0.92747 0.77150-0.29850
  -4  -8   6   31.28   16.49  77-0.07551-0.06760 0.36130-0.92607 0.77140-0.35486
  -5  -7   5   -1.15   13.65  78-0.07614-0.23318 0.36039-0.85409 0.77135-0.51880
  -7  -2   3   -3.69   13.26  78-0.07554-0.56692 0.36125-0.50397 0.77140-0.84641
   4   0   4   45.11   19.95  81-0.08851 0.75426 0.34282-0.34181 0.77011-0.11642
   4   0   6    8.98   25.29  80-0.08686 0.86109 0.34520-0.34441 0.77029 0.09877
   0  10   0  541.83   18.99  79-0.08263 0.08489 0.35129 0.35169 0.77071-0.77113
   0  -6   4  140.99   17.35  78-0.08066 0.29013 0.35411-0.77544 0.77089-0.34302
  -5  -6   4   13.53   12.76  78-0.08005-0.28208 0.35497-0.77944 0.77095-0.62513
   4   9   3   22.16   19.14  80-0.08574 0.70281 0.34667 0.28786 0.77038-0.22364
   4   7   2    1.45   13.58  79-0.08510 0.65062 0.34758 0.14712 0.77045-0.33051
   4   3   2 1092.18   21.99  80-0.08884 0.65099 0.34220-0.13018 0.77005-0.33138
   0  -7   6    5.82   19.63  81-0.09019 0.40395 0.34025-0.83231 0.76990-0.12784
  -1  10   0   -1.95   14.65  80-0.08510-0.02687 0.34758 0.35653 0.77045-0.82736
  -2  -8   6   -3.41   17.70  81-0.08993 0.17624 0.34061-0.90929 0.76993-0.23830
  -3  12   1    2.24   20.01  80-0.08859-0.19844 0.34256 0.49983 0.77008-0.83261
  -4  11   1   -5.70   20.90  81-0.09036-0.31260 0.34000 0.43434 0.76988-0.88990
  -5  -8   6   25.41   16.98  80-0.08700-0.17043 0.34486-0.91086 0.77025-0.41001
  -8   0   3    1.02   16.69  79-0.08510-0.66912 0.34758-0.35036 0.77045-0.90004
  -8  -6   6   10.90   15.99  80-0.08585-0.51354 0.34651-0.77212 0.77037-0.57984
  -9  -3   5   -5.83   16.85  80-0.08486-0.68144 0.34793-0.56209 0.77047-0.74457
   4   1   3  191.15   17.39  81-0.09262 0.70637 0.33669-0.26625 0.76968-0.22346
   4   0   5   -8.86   22.24  82-0.09732 0.81798 0.32986-0.32796 0.76909-0.00862
   3   8   1  940.36   20.52  81-0.09339 0.48987 0.33557 0.22710 0.76959-0.49360
   2  12   2   52.19   18.69  81-0.09256 0.42839 0.33677 0.50702 0.76969-0.44322
   2   7   0    1.62   11.93  81-0.09014 0.32044 0.34030 0.15394 0.76997-0.65723
   1   9   0    3.83   12.47  81-0.08990 0.20584 0.34065 0.29194 0.77000-0.71325
  -7   1   2   24.04   15.74  81-0.09398-0.60081 0.33473-0.26719 0.76951-0.95152
  -7  -6   5   -2.59   17.09  80-0.08990-0.44428 0.34065-0.76189 0.77000-0.62918
  -7  -7   6    3.76   16.22  81-0.08953-0.39627 0.34117-0.83718 0.77004-0.52370
  -8  -3   4    8.22   17.48  81-0.09103-0.61280 0.33900-0.55317 0.76987-0.79330
   4   6   2  109.87   14.68  82-0.09423 0.65697 0.33414 0.08719 0.76962-0.33039
   4   5   2   60.21   16.71  83-0.09857 0.66071 0.32783 0.02454 0.76905-0.32947
   4   4   2  249.22   16.24  82-0.09725 0.65915 0.32976-0.04804 0.76923-0.33011
   3  10   2  112.07   18.33  82-0.09704 0.54669 0.33006 0.37285 0.76926-0.38637
   2   3   0 7499.84   48.59  82-0.09692 0.32581 0.33025-0.11825 0.76927-0.65663
   1  13   2    0.70   19.17  82-0.09435 0.31673 0.33397 0.58146 0.76960-0.49920
   0  12   1   18.34   18.92  82-0.09771 0.15274 0.32908 0.51279 0.76917-0.66219
  -3   8   0  304.66   21.12  83-0.10001-0.24045 0.32572 0.23622 0.76885-0.93843
  -5  -3   2   62.69   13.28  82-0.09629-0.37003 0.33116-0.54358 0.76936-0.83746
  -6   5   1    0.49   29.87  88-0.12367-0.50909 0.29069 0.05950 0.76483-0.99805
  -6  -4   3    5.85   13.54  81-0.09520-0.43118 0.33273-0.61522 0.76950-0.78642
  -7  -8   7   14.68   18.87  82-0.09731-0.33655 0.32967-0.89736 0.76922-0.41495
  -8  -5   5  -14.67   17.17  82-0.09716-0.55445 0.32988-0.68406 0.76924-0.68612
  -9  -5   6    4.76   19.88  82-0.09484-0.61872 0.33327-0.68816 0.76954-0.63607
   4   8   3   38.77   17.35  82-0.09929 0.71582 0.32706 0.23716 0.76883-0.22228
   3  11   3   35.50   21.64  83-0.10259 0.60351 0.32223 0.45033 0.76836-0.27927
   2  10   1   11.30   14.32  83-0.09932 0.38190 0.32703 0.37633 0.76882-0.54907
   2   6   0  223.22   13.86  83-0.09998 0.32897 0.32606 0.09677 0.76873-0.65695
  -1  -8   7   -5.25   19.69  83-0.10153 0.35415 0.32378-0.88856 0.76851-0.07541
  -2  12   1   15.84   19.48  83-0.10168-0.07223 0.32357 0.52290 0.76849-0.77627
  -2   9   0  125.23   16.11  83-0.10339-0.12388 0.32106 0.31113 0.76824-0.88208
  -2  -6   3  380.95   14.25  82-0.09951 0.02795 0.32674-0.74888 0.76880-0.56104
  -2  -7   4    1.62   13.27  83-0.10028 0.08086 0.32562-0.81872 0.76869-0.45312
  -3  -7   4   10.34   12.08  82-0.09852-0.03515 0.32818-0.82244 0.76893-0.50989
  -4  -9   7   -5.98   18.85  83-0.10233 0.01202 0.32260-0.95645 0.76840-0.24571
  -5   0   1    0.57   14.34  83-0.10210-0.41629 0.32295-0.32377 0.76843-0.94416
  -5  -5   3   52.78   12.16  82-0.09935-0.31506 0.32697-0.68019 0.76882-0.73048
  -6   4   1   -1.36   22.17  85-0.11289-0.51927 0.30705-0.02774 0.76672-0.99908
  -6  -7   5    1.09   16.01  83-0.10194-0.32181 0.32319-0.81833 0.76845-0.57242
  -9  -1   4   -0.12   17.30  83-0.09962-0.71873 0.32659-0.39927 0.76878-0.84971
   3   7   1  331.00   15.10  84-0.10481 0.50051 0.31870 0.17463 0.76811-0.49362
   3   2   1   57.04   12.06  84-0.10461 0.50002 0.31900-0.17703 0.76814-0.49225
   2   5   0 1116.51   19.94  84-0.10538 0.33411 0.31788 0.03465 0.76802-0.65648
   2   4   0 1643.94   23.08  84-0.10551 0.33414 0.31768-0.03512 0.76800-0.65619
   1  11   1   53.55   14.22  84-0.10452 0.27293 0.31914 0.45453 0.76815-0.60604
   0   9   0   -1.11   13.91  84-0.10648 0.10839 0.31624 0.31720 0.76785-0.76825
  -1  12   1    2.17   19.64  84-0.10616 0.04698 0.31671 0.52661 0.76790-0.71763
  -3  -6   3   14.11   10.93  83-0.10380-0.08232 0.32019-0.74403 0.76826-0.61625
  -4  -4   2  335.84   14.35  83-0.10290-0.24818 0.32151-0.60500 0.76839-0.77980
  -5   9   1   -1.45   23.56  86-0.11460-0.40236 0.30425 0.32780 0.76650-0.94260
  -5  -9   7   -0.06   19.66  84-0.10665-0.09783 0.31600-0.95140 0.76782-0.30076
  -6  -8   6    6.85   15.98  84-0.10497-0.26628 0.31848-0.88435 0.76808-0.46411
   4   8   4    3.57   19.60  85-0.11236 0.78162 0.30755 0.25648 0.76690-0.11356
   4   7   3   13.40   18.25  86-0.11381 0.72553 0.30542 0.18555 0.76665-0.22236
   1   8   0  268.88   13.94  84-0.10819 0.22298 0.31373 0.24893 0.76759-0.71217
   1  -6   5    7.26   20.63  85-0.11180 0.48675 0.30840-0.72950 0.76699-0.17615
  -1   9   0    7.50   14.24  86-0.11368 0.00136 0.30559 0.32685 0.76667-0.82325
  -1  -3   1    1.46   10.41  85-0.10990 0.04772 0.31120-0.52270 0.76731-0.71651
  -3  -8   5   55.52   14.35  84-0.10854 0.02683 0.31320-0.87693 0.76753-0.40245
  -3  -9   7    2.93   21.21  85-0.11123 0.13529 0.30923-0.94636 0.76709-0.18571
  -4  -7   4    2.33   13.28  85-0.10842-0.13938 0.31339-0.80801 0.76755-0.56548
  -4  -8   5  132.94   15.07  85-0.11116-0.08458 0.30934-0.87278 0.76710-0.45841
  -6  -2   2    7.90   13.86  85-0.11123-0.46803 0.30924-0.45173 0.76709-0.89106
  -6  -6   4   -3.71   14.86  85-0.11133-0.36482 0.30908-0.73356 0.76707-0.67800
  -7  -3   3    6.39   15.58  85-0.11130-0.53143 0.30913-0.52312 0.76708-0.84123
  -7  -5   4   -4.16   12.57  85-0.11045-0.47960 0.31038-0.66506 0.76722-0.73401
   4   2   3   28.42   15.89  86-0.11555 0.72951 0.30285-0.16125 0.76636-0.22035
   3   9   2   22.90   15.59  86-0.11452 0.56420 0.30440 0.32981 0.76654-0.38383
   3   6   1   70.95   13.13  86-0.11498 0.51111 0.30371 0.11960 0.76646-0.49098
   2  11   2    1.63   18.67  86-0.11499 0.45106 0.30368 0.47104 0.76646-0.44074
   1   1   0 1966.25   37.21  86-0.11358 0.22820 0.30578-0.23389 0.76671-0.71040
   0  13   2   22.26   20.93  86-0.11610 0.22371 0.30203 0.61128 0.76626-0.55328
  -1  -6   3  209.89   12.78  85-0.11340 0.15703 0.30604-0.72788 0.76674-0.50206
  -1  -8   6   15.60   18.99  86-0.11594 0.31544 0.30228-0.86513 0.76629-0.18103
  -2   0   0 2723.30   43.90  86-0.11709-0.11050 0.30057-0.30184 0.76608-0.87835
  -2  -3   1 1279.52   22.64  85-0.11318-0.06133 0.30637-0.51878 0.76678-0.77161
  -8  -1   3    3.45   16.40  86-0.11469-0.64138 0.30413-0.37745 0.76651-0.89705
  -9  -4   5   -0.01   20.50  87-0.11859-0.65198 0.29834-0.58609 0.76580-0.74021
   4   6   3    6.43   16.80  88-0.12249 0.73469 0.29254 0.12894 0.76509-0.22042
   4   1   4    6.13   18.01  87-0.12082 0.78809 0.29503-0.22374 0.76542-0.11175
   4   1   6   14.18   24.37  88-0.12444 0.89493 0.28962-0.21857 0.76470 0.10132
   3  10   3   -7.27   17.38  87-0.12113 0.62352 0.29456 0.41074 0.76536-0.27546
   3   3   1    5.89   10.61  87-0.11920 0.51525 0.29745-0.08537 0.76573-0.48957
   2  12   3   12.11   19.27  87-0.11891 0.50776 0.29790 0.54726 0.76578-0.33271
   2   9   1   28.87   13.05  87-0.11855 0.40133 0.29842 0.33546 0.76585-0.54654
   1  12   2   21.50   17.24  87-0.12192 0.34372 0.29340 0.55137 0.76520-0.49532
   0  -7   5   88.10   18.52  86-0.11991 0.38027 0.29640-0.78853 0.76559-0.23099
  -1  -7   4    4.36   15.37  88-0.12299 0.21829 0.29179-0.78700 0.76499-0.39284
  -2  -5   2    7.51   13.35  87-0.12127-0.00291 0.29438-0.64715 0.76533-0.66390
  -2  -8   5    2.72   15.06  87-0.11859 0.15164 0.29837-0.86221 0.76584-0.34381
  -3   1   0  158.70   18.16  87-0.12199-0.22013 0.29327-0.22376 0.76519-0.93468
  -4  -6   3  141.22   13.51  87-0.11886-0.18085 0.29796-0.72077 0.76579-0.67044
  -6   3   1   54.91   19.29  88-0.12609-0.50575 0.28714-0.07756 0.76436-0.99676
  -6  -9   7   -7.19   19.65  87-0.11859-0.20000 0.29837-0.93410 0.76584-0.35523
  -7   0   2   72.41   17.46  87-0.12080-0.57301 0.29507-0.29624 0.76542-0.94699
   4   7   4    4.34   18.92  89-0.12741 0.79241 0.28530 0.20634 0.76410-0.11258
   4   5   3   57.90   16.51  88-0.12705 0.74187 0.28582 0.06684 0.76418-0.21758
   4   3   3   -7.44   15.67  88-0.12569 0.74005 0.28786-0.07482 0.76446-0.21880
   4   1   5    0.43   19.73  90-0.13252 0.85070 0.27756-0.20605 0.76299-0.00287
   3   5   1  104.09   11.91  87-0.12266 0.51891 0.29242 0.05935 0.76507-0.48833
   3   4   1  761.05   16.76  88-0.12414 0.52036 0.29020-0.00808 0.76478-0.48835
   1   7   0  161.29   14.18  88-0.12578 0.24121 0.28775 0.20508 0.76444-0.70835
   1  -2   1  203.81   28.33  90-0.13629 0.30439 0.27185-0.41175 0.76212-0.59746
   0  11   1  -11.78   16.35  88-0.12561 0.18024 0.28798 0.48578 0.76448-0.65779
  -3  11   1   32.90   19.05  88-0.12675-0.16130 0.28628 0.48759 0.76424-0.82741
  -4  -2   1  328.03   14.62  88-0.12378-0.28053 0.29074-0.43276 0.76485-0.88340
  -5  -7   4   -0.97   14.65  87-0.12347-0.23599 0.29120-0.78146 0.76491-0.61807
  -5  -8   5    1.08   15.79  88-0.12383-0.18533 0.29067-0.85494 0.76484-0.51194
  -8  -4   4    7.64   16.09  87-0.12360-0.57971 0.29102-0.57516 0.76489-0.78781
  -8  -7   6   -3.34   18.51  88-0.12298-0.47655 0.29192-0.78779 0.76501-0.57480
  -9   4   3    2.12   24.61  91-0.13602-0.73634 0.27225 0.00705 0.76219-0.95124
  -9  -2   4    6.08   18.83  89-0.12772-0.69323 0.28482-0.42972 0.76404-0.84508
   4   4   3  104.40   15.65  89-0.12847 0.74291 0.28377-0.00103 0.76394-0.21858
   2  -5   6    0.57   42.01  93-0.14885 0.69060 0.25271-0.60301 0.75903-0.00545
   1  10   1   -0.96   13.59  89-0.12883 0.29775 0.28322 0.42206 0.76386-0.60091
   0   8   0  292.23   15.81  89-0.13003 0.13083 0.28142 0.28117 0.76360-0.76454
  -1  13   2  -10.72   19.23  89-0.13031 0.12357 0.28100 0.63309 0.76354-0.60650
  -1  -5   2  766.35   19.62  89-0.13111 0.12309 0.27978-0.63148 0.76336-0.60483
  -2  -9   7    2.30   20.10  89-0.13070 0.26851 0.28040-0.91448 0.76346-0.12808
  -3  13   2   10.97   21.27  90-0.13267-0.10187 0.27741 0.63504 0.76302-0.71814
  -3   7   0    1.50   19.02  91-0.13796-0.20266 0.26939 0.22135 0.76179-0.93076
  -3  -5   2  271.38   13.83  89-0.12934-0.10758 0.28247-0.63518 0.76375-0.71790
  -3  -9   6   -0.72   19.53  88-0.12823 0.09949 0.28411-0.91351 0.76399-0.29230
  -4  -9   6    6.57   16.61  89-0.12838-0.01443 0.28390-0.91965 0.76396-0.34708
  -7  -8   6    0.80   17.58  89-0.12871-0.35588 0.28339-0.84818 0.76389-0.51660
  -9   3   3   -2.73   24.55  89-0.13094-0.73458 0.28005-0.07240 0.76340-0.94865
   4   6   4    3.77   17.74  90-0.13539 0.80326 0.27323 0.14990 0.76241-0.10896
   4   2   4    1.77   18.56  91-0.14043 0.80567 0.26555-0.12400 0.76120-0.10878
   4   2   6    3.21   21.99  91-0.14049 0.91097 0.26546-0.12407 0.76119 0.10464
   3   8   2  103.38   13.92  90-0.13244 0.58038 0.27771 0.28561 0.76308-0.38054
   3   0   2 1326.03   27.67  90-0.13617 0.58405 0.27204-0.27008 0.76223-0.37913
  -2  13   2   -5.96   21.29  90-0.13547 0.01418 0.27311 0.64272 0.76239-0.66152
  -2   8   0  426.25   20.64  90-0.13528-0.09231 0.27340 0.28878 0.76243-0.87586
  -3  -3   1  229.89   15.51  90-0.13482-0.15464 0.27408-0.48734 0.76254-0.82371
  -4  10   1    1.34   18.93  89-0.13390-0.27011 0.27549 0.43008 0.76275-0.88354
  -5  -9   6  -14.15   17.13  90-0.13350-0.12318 0.27611-0.91064 0.76284-0.40286
  -7  -7   5   20.27   16.19  89-0.13232-0.40561 0.27788-0.77376 0.76311-0.62307
  -8  -6   5  -17.88   17.82  90-0.13277-0.51914 0.27719-0.70214 0.76301-0.67993
   4   6   5    4.78   20.53  92-0.14239 0.85956 0.26281 0.15866 0.76066-0.00273
   3  10   4    3.69   18.82  91-0.13761 0.69177 0.27012 0.43480 0.76183-0.16482
   3   9   3   51.50   16.44  91-0.14118 0.64237 0.26467 0.36865 0.76096-0.27154
   2  10   2    8.05   15.49  90-0.13784 0.47390 0.26976 0.43538 0.76178-0.43550
   2   8   1   42.84   12.94  91-0.13807 0.41964 0.26942 0.29389 0.76172-0.54290
  -1  11   1   -0.22   14.78  91-0.13772 0.07796 0.26994 0.50479 0.76181-0.71157
  -1   8   0  267.00   16.22  91-0.14133 0.02733 0.26444 0.29741 0.76093-0.81839
  -2  11   1    1.27   16.68  92-0.14258-0.03073 0.26254 0.50736 0.76062-0.76609
  -5  -1   1   83.93   14.76  91-0.14109-0.37663 0.26480-0.33740 0.76099-0.93610
  -5  -4   2   53.05   14.58  91-0.13953-0.32595 0.26719-0.55054 0.76137-0.82893
  -6   2   1   21.93   18.84  92-0.14365-0.48839 0.26089-0.12230 0.76034-0.99240
  -6  -5   3    0.86   13.43  91-0.13713-0.39159 0.27084-0.62462 0.76195-0.78043
   4   5   4    5.26   15.29  92-0.14304 0.81057 0.26187 0.09074 0.76053-0.10695
   4   4   4   30.41   17.88  93-0.14724 0.81412 0.25543 0.02656 0.75944-0.10625
   4   3   4   -0.37   16.49  92-0.14516 0.81348 0.25861-0.04521 0.75999-0.10602
   4   2   5   -4.18   18.19  92-0.14509 0.86580 0.25873-0.11578 0.76001 0.00088
   2  11   3   10.64   17.07  92-0.14361 0.53194 0.26100 0.51397 0.76039-0.32685
   1   6   0   20.28   11.24  92-0.14205 0.25709 0.26340 0.15885 0.76078-0.70439
   1  -5   3   91.39   19.20  92-0.14775 0.41943 0.25465-0.60555 0.75931-0.38144
  -1  -8   5  420.43   19.96  92-0.14589 0.29354 0.25751-0.81976 0.75980-0.28187
  -5  -6   3   46.18   13.25  92-0.14301-0.27059 0.26192-0.68527 0.76054-0.72122
  -6  -8   5   40.94   15.73  92-0.14349-0.27972 0.26118-0.82574 0.76042-0.56359
  -7  -4   3   40.09   15.57  92-0.14545-0.49745 0.25817-0.54214 0.75991-0.83418
  -8  -2   3   16.27   15.69  92-0.14266-0.61391 0.26245-0.40572 0.76063-0.89157
  -9   2   3   -5.47   22.15  93-0.14676-0.72496 0.25616-0.11630 0.75957-0.94777
  -9  -5   5    8.00   21.81  91-0.14269-0.61813 0.26242-0.61411 0.76062-0.73184
   4   5   5   -4.74   19.13  93-0.14732 0.86814 0.25536 0.09873 0.75939 0.00106
   4   4   5   12.35   19.56  94-0.15209 0.87246 0.24801 0.03432 0.75809 0.00256
   4   3   5    7.72   18.82  93-0.15133 0.87227 0.24918-0.03714 0.75830 0.00271
   3   7   2  167.97   14.15  93-0.14735 0.59532 0.25531 0.23781 0.75938-0.37716
   1  11   2   44.39   16.40  93-0.14941 0.36998 0.25213 0.52269 0.75883-0.48869
   0  12   2   -0.29   16.58  93-0.14684 0.25390 0.25608 0.58848 0.75952-0.54521
   0  -3   1 1770.26   32.25  93-0.14981 0.20374 0.25154-0.46276 0.75872-0.65041
  -2  -9   6    3.92   18.98  94-0.15163 0.23818 0.24871-0.88593 0.75822-0.22728
  -6  -3   2    8.09   12.37  93-0.14803-0.43263 0.25427-0.46714 0.75920-0.88398
  -6  -9   6    5.85   16.45  93-0.14803-0.22314 0.25427-0.88989 0.75920-0.45579
  -7  -1   2   37.54   15.81  93-0.14867-0.54633 0.25326-0.32552 0.75903-0.94061
  -7  -6   4    6.60   15.11  92-0.14684-0.44302 0.25608-0.68017 0.75952-0.72642
   1  12   3   30.75   18.58  95-0.15566 0.42836 0.24237 0.59924 0.75702-0.38058
   1   9   1  725.10   18.51  94-0.15465 0.32341 0.24395 0.38934 0.75731-0.59329
   1   5   0 1091.71   21.00  94-0.15503 0.27055 0.24335 0.10958 0.75720-0.70037
   0  13   3    6.03   19.81  94-0.15245 0.31223 0.24733 0.66713 0.75793-0.43751
   0  10   1  664.88   18.54  94-0.15455 0.20941 0.24408 0.45947 0.75734-0.64988
   0   7   0    1.46   10.72  94-0.15245 0.15369 0.24733 0.24658 0.75793-0.75832
   0  -6   3  463.98   18.90  94-0.15545 0.31193 0.24270-0.66516 0.75708-0.43604
  -3  -8   4   54.04   13.14  93-0.15244 0.01912 0.24736-0.81036 0.75793-0.49914
  -4  12   2   -1.18   23.18  94-0.15479-0.19620 0.24372 0.60264 0.75727-0.77077
  -4  -5   2  276.68   14.49  93-0.15093-0.20166 0.24968-0.60298 0.75835-0.77047
  -4 -10   7   -6.17   20.20  94-0.15434 0.06420 0.24442-0.94932 0.75740-0.23441
  -6  -7   4   -2.24   14.08  94-0.15175-0.32433 0.24842-0.74247 0.75813-0.66931
  -9  -3   4   14.23   18.63  94-0.15210-0.66612 0.24786-0.46139 0.75803-0.83824
   3   9   4   47.55   18.08  95-0.15692 0.71183 0.24061 0.39335 0.75662-0.15948
   3   8   3   -1.00   14.84  95-0.15891 0.66096 0.23751 0.32614 0.75603-0.26568
   2   7   1  449.33   14.24  95-0.15657 0.43923 0.24115 0.25147 0.75672-0.53622
   1   2   0 1734.92   29.69  95-0.15674 0.27231 0.24087-0.09820 0.75667-0.69968
  -3  -7   3   -4.06   12.72  95-0.15722-0.02836 0.24014-0.73254 0.75653-0.60504
  -4  -8   4   -0.60   14.02  95-0.15686-0.09063 0.24069-0.80440 0.75664-0.55469
  -6  10   2    2.25   27.13  98-0.17118-0.40612 0.21830 0.48173 0.75218-0.87620
  -7   8   2    8.95   38.36 100-0.18328-0.51084 0.19912 0.36233 0.74796-0.93023
  -8  -5   4    6.79   16.74  95-0.15698-0.54839 0.24050-0.59539 0.75660-0.78111
  -9   1   3   -8.26   20.45  95-0.15895-0.71231 0.23747-0.16786 0.75602-0.94398
   3   6   2   77.70   12.78  96-0.16088 0.60972 0.23439 0.18716 0.75556-0.37227
   2  11   4  -24.71   20.84  96-0.16340 0.60323 0.23047 0.54353 0.75479-0.21440
   2   9   2  133.21   13.63  96-0.16135 0.49704 0.23367 0.39877 0.75542-0.42840
   2   0   1    0.65   13.06  96-0.16317 0.44514 0.23083-0.23048 0.75486-0.53461
  -1  12   2   23.98   17.32  96-0.16337 0.15623 0.23051 0.61462 0.75480-0.59783
  -2  -7   3   89.55   12.89  95-0.16094 0.08853 0.23430-0.72736 0.75555-0.54795
  -2  -8   4  172.07   15.64  95-0.16136 0.14066 0.23366-0.79657 0.75542-0.44147
  -3  -9   5   17.06   18.84  95-0.16140 0.08058 0.23359-0.86569 0.75541-0.38916
  -4  -9   5   -1.71   15.31  96-0.16117-0.03382 0.23394-0.86831 0.75548-0.44640
  -6   1   1   23.21   15.49  96-0.16414-0.46873 0.22931-0.16025 0.75456-0.98681
   3   1   2  526.36   19.03  97-0.16887 0.61641 0.22168-0.15029 0.75308-0.37036
   3  -2   4   16.70   22.44 100-0.18120 0.73242 0.20216-0.34168 0.74885-0.15253
   2  10   3   10.65   16.63  98-0.16948 0.55536 0.22072 0.48055 0.75288-0.32022
   1   4   0  337.51   15.10  96-0.16457 0.27953 0.22842 0.05343 0.75445-0.69781
   1   3   0  974.96   21.36  97-0.16651 0.28106 0.22537-0.01342 0.75384-0.69774
   1  -6   4   70.08   20.38  97-0.17019 0.49238 0.21960-0.64146 0.75265-0.26882
   0  -7   4    1.75   15.62  98-0.16987 0.37973 0.22010-0.71369 0.75275-0.32431
   0  -8   7    2.61   23.15  98-0.17252 0.54134 0.21592-0.78157 0.75187-0.00100
  -1   7   0  162.69   13.94  97-0.16963 0.05628 0.22047 0.27134 0.75283-0.80964
  -2   7   0    5.81   15.30  97-0.16890-0.05848 0.22163 0.27032 0.75307-0.86607
  -3  10   1    4.51   16.07  97-0.16825-0.12048 0.22265 0.48069 0.75328-0.81628
  -3 -10   7  -15.24   18.12  97-0.16574 0.18976 0.22660-0.93151 0.75408-0.17458
  -4  -3   1   29.33   12.76  97-0.16791-0.23677 0.22319-0.43551 0.75339-0.87220
  -4  -7   3   22.43   13.07  96-0.16603-0.13396 0.22613-0.71957 0.75399-0.65831
  -5  -9   5  -11.39   15.81  97-0.16835-0.14081 0.22251-0.85672 0.75325-0.50037
  -7  -9   6   -0.45   18.69  97-0.16748-0.31729 0.22386-0.85867 0.75353-0.50640
  -8  -3   3   11.46   17.14  97-0.16846-0.58696 0.22233-0.43516 0.75321-0.88316
  -8  -7   5   -6.89   15.80  97-0.16620-0.48562 0.22586-0.72008 0.75394-0.67059
   3   5   2  782.11   17.41  98-0.17122 0.61910 0.21791 0.13494 0.75222-0.37058
   3  -1   3  424.50   24.18  99-0.17850 0.67825 0.20641-0.27570 0.74973-0.25970
   2   6   1  485.97   14.95  98-0.17170 0.45298 0.21716 0.20571 0.75206-0.53376
   1  -4   2   98.34   16.30  98-0.17351 0.39341 0.21430-0.49492 0.75145-0.48034
   0  -5   2 1177.17   23.84  98-0.17229 0.27809 0.21623-0.56727 0.75186-0.53718
  -1  13   3   12.11   19.71  98-0.17304 0.21846 0.21506 0.69869 0.75161-0.48770
  -1  10   1  114.62   14.84  98-0.17067 0.10976 0.21879 0.48402 0.75240-0.70310
  -1  -9   7   -2.03   21.38  98-0.17283 0.42533 0.21540-0.84954 0.75168-0.05970
  -2  12   2  128.80   19.41  99-0.17439 0.05240 0.21292 0.62962 0.75115-0.65048
  -3  12   2   13.71   19.58  98-0.17295-0.06252 0.21518 0.62729 0.75164-0.70773
  -3   6   0  316.65   22.37  99-0.17770-0.16392 0.20767 0.21377 0.75001-0.91948
  -3   0   0 1930.70   33.58  98-0.17440-0.16784 0.21289-0.21424 0.75115-0.92011
  -5  11   2   -3.28   20.51  98-0.17305-0.29211 0.21503 0.55841 0.75161-0.82028
  -5   8   1  244.94   27.32  99-0.17759-0.34073 0.20784 0.35460 0.75005-0.92606
  -5  -8   4   39.83   13.79  97-0.16995-0.19270 0.21993-0.78446 0.75264-0.60713
  -6  -6   3   47.26   15.52  98-0.17332-0.35464 0.21461-0.63822 0.75152-0.76886
  -7  -8   5   -2.15   17.42  98-0.16998-0.36866 0.21986-0.78574 0.75263-0.61353
  -9   0   3   -4.44   18.89  97-0.17056-0.69563 0.21895-0.22097 0.75244-0.93754
   3   8   4   18.00   16.89  99-0.17518 0.72983 0.21106 0.35229 0.75097-0.15407
   3   7   3   -9.29   12.48  99-0.17499 0.67699 0.21134 0.28275 0.75103-0.26093
   2  -5   5   20.49   37.63 103-0.19449 0.68509 0.18018-0.53173 0.74378-0.09593
   1  10   2   60.45   14.76  99-0.17527 0.39663 0.21090 0.49315 0.75093-0.48094
   1   8   1  533.37   17.15  99-0.17830 0.34603 0.20609 0.35708 0.74988-0.58657
   0  11   2    4.15   16.35 100-0.17836 0.28455 0.20602 0.56486 0.74986-0.53618
   0   6   0 3656.76   31.67  99-0.17495 0.17597 0.21141 0.21147 0.75104-0.75122
   0  -8   6    1.19   19.14 100-0.17906 0.49440 0.20490-0.76906 0.74961-0.10761
  -2  10   1  425.32   20.14  99-0.17687 0.00281 0.20837 0.49482 0.75038-0.75615
  -2  -4   1  282.55   14.07  98-0.17444-0.00043 0.21222-0.49451 0.75122-0.75624
  -2  -9   5    9.57   19.17  99-0.17638 0.20961 0.20915-0.84128 0.75055-0.32903
  -4 -10   6    9.97   17.75  99-0.17636 0.03386 0.20918-0.91364 0.75056-0.33446
  -5  -2   1   20.04   11.05  99-0.17502-0.34415 0.21130-0.35331 0.75102-0.92630
  -7  -2   2   14.35   14.55  99-0.17525-0.52022 0.21094-0.35364 0.75094-0.93259
  -7  -5   3   14.10   14.73  99-0.17618-0.46511 0.20947-0.56213 0.75062-0.82398
  -8   3   2   53.39   24.46 100-0.18258-0.62656 0.19929 0.01074 0.74834-0.98682
  -9  -4   4    1.29   20.66  99-0.17751-0.64049 0.20736-0.48969 0.75016-0.83052
   3   8   5    2.79   21.33 101-0.18439 0.78956 0.19687 0.36561 0.74776-0.04400
   3   4   2  381.75   14.49 100-0.17985 0.62779 0.20412 0.07795 0.74942-0.36680
   3   2   2 1036.78   21.11 100-0.18193 0.62968 0.20080-0.05940 0.74867-0.36563
   2   8   2   -5.67   16.09 100-0.18216 0.51745 0.20044 0.36449 0.74858-0.42124
   1  11   3   33.64   16.79 100-0.18299 0.45546 0.19912 0.57286 0.74828-0.37135
   0   9   1   31.73   13.98 100-0.18277 0.23663 0.19944 0.43427 0.74836-0.64144
  -1  -7   3  671.09   19.47 100-0.18156 0.22513 0.20139-0.69351 0.74880-0.48432
  -2  -6   2 1969.14   23.82  99-0.17971 0.05649 0.20434-0.62703 0.74947-0.64807
  -3  -6   2   -3.07   11.74 100-0.17999-0.05802 0.20388-0.62596 0.74937-0.70511
  -5  -5   2   74.38   13.31  99-0.17895-0.28738 0.20554-0.55886 0.74974-0.81833
  -5 -10   6   -2.98   18.63 100-0.17931-0.07767 0.20499-0.91081 0.74961-0.39049
  -6  -4   2   34.21   13.99 100-0.18120-0.39923 0.20197-0.48544 0.74893-0.87343
  -7  -7   4    6.81   15.59 100-0.18217-0.40850 0.20041-0.69519 0.74858-0.71593
  -8   4   2    4.38   25.55 101-0.18859-0.61972 0.19014 0.08960 0.74618-0.98372
  -8   2   2    2.55   18.45 101-0.18453-0.62400 0.19665-0.05779 0.74771-0.98551
   3   3   2  915.83   18.13 101-0.18425 0.63177 0.19753 0.01403 0.74781-0.36515
   2  10   4  -12.47   17.74 101-0.18667 0.62718 0.19365 0.51081 0.74691-0.20595
   2   5   1   30.52   13.91 101-0.18711 0.46868 0.19296 0.15959 0.74674-0.52701
   0  12   3  170.95   18.41 101-0.18404 0.34227 0.19787 0.64539 0.74789-0.42794
  -1  -4   1 7275.61   47.86 101-0.18557 0.12498 0.19541-0.47670 0.74732-0.69584
  -1  -8   4  263.96   17.84 101-0.18773 0.28246 0.19195-0.75452 0.74650-0.37596
  -1  -9   6   17.65   18.06 101-0.18695 0.38775 0.19319-0.82811 0.74680-0.16035
  -2  13   3   -7.14   21.80 101-0.18589 0.11691 0.19492 0.71993 0.74720-0.53935
  -3  -4   1  365.11   14.52 100-0.18423-0.10488 0.19755-0.47996 0.74782-0.80965
  -3 -10   6    9.16   20.18 102-0.18808 0.16003 0.19140-0.90032 0.74637-0.27247
  -4   9   1    6.10   19.38 101-0.18706-0.21621 0.19301 0.43965 0.74676-0.86571
  -4   3   0   99.23   29.00 105-0.20642-0.24962 0.16166 0.04883 0.73888-0.96491
  -5  -7   3  150.39   14.74 100-0.18422-0.22942 0.19758-0.69096 0.74782-0.70937
  -6   0   1   -0.29   14.81 101-0.18603-0.44822 0.19467-0.19480 0.74715-0.98002
  -6  -9   5    7.16   17.38 101-0.18404-0.23960 0.19787-0.83278 0.74789-0.55212
  -8  -6   4   16.83   18.62 101-0.18742-0.51792 0.19245-0.61724 0.74662-0.77064
   3   6   3   12.45   15.92 101-0.18998 0.69225 0.18834 0.23503 0.74572-0.25534
   2   9   3  183.86   17.37 102-0.19203 0.57956 0.18502 0.44649 0.74492-0.31044
  -2  -1   0  170.61   13.44 101-0.18834-0.03975 0.19095-0.26231 0.74635-0.85904
  -2 -10   7   -8.45   20.25 102-0.19138 0.32973 0.18607-0.89026 0.74518-0.10972
  -6  -8   4   16.97   15.96 101-0.18909-0.28636 0.18975-0.75331 0.74606-0.65621
  -6 -10   6   -5.71   18.77 102-0.18877-0.18207 0.19027-0.89543 0.74619-0.44310
  -8   1   2    7.18   18.29 102-0.19165-0.61499 0.18564-0.11687 0.74507-0.98150
  -9  -1   3    9.29   19.07 102-0.19126-0.67952 0.18626-0.25846 0.74522-0.93224
   3   7   4   55.84   17.55 103-0.19351 0.74695 0.18261 0.30923 0.74435-0.14728
   3  -2   6    1.36   25.24 104-0.20004 0.85963 0.17202-0.31264 0.74169 0.07043
   1  -7   6    7.64   26.49 105-0.20276 0.63191 0.16758-0.65993 0.74055-0.04208
   1  -7   7    2.07   31.14 106-0.20924 0.69200 0.15697-0.65016 0.73773 0.06844
  -1  -1   0 1937.29   37.19 103-0.19402 0.07959 0.18178-0.25355 0.74415-0.80031
  -4   2   0   45.24   18.68 104-0.20139-0.25431 0.16983-0.03003 0.74113-0.96682
  -4  -6   2   30.85   11.96 102-0.19328-0.15977 0.18297-0.60605 0.74444-0.75678
  -8  -4   3   12.79   17.58 103-0.19485-0.56019 0.18044-0.46298 0.74382-0.87375
   3   7   5  108.87   19.13 105-0.20229 0.80504 0.16836 0.32381 0.74078-0.03935
   3  -2   5    9.92   24.95 106-0.20845 0.81414 0.15829-0.29844 0.73811-0.03374
   2   4   1    3.33   10.97 104-0.19905 0.48067 0.17362 0.10837 0.74214-0.52221
   2   1   1  474.15   18.64 104-0.20084 0.48218 0.17073-0.09929 0.74139-0.52134
   0   5   0    6.26   11.32 103-0.19761 0.19825 0.17598 0.17593 0.74273-0.74271
   0  -8   5   17.86   19.34 104-0.20140 0.46304 0.16980-0.73203 0.74116-0.20645
  -1  11   2   40.00   15.38 104-0.19816 0.19048 0.17508 0.59872 0.74251-0.58481
  -1   6   0   27.66   13.42 104-0.19948 0.08634 0.17294 0.24839 0.74196-0.79817
  -1  -6   2   15.94   11.45 103-0.19752 0.18780 0.17611-0.59883 0.74277-0.58520
  -7  -3   2   82.60   17.74 104-0.20076-0.49313 0.17085-0.38333 0.74143-0.92256
   3   5   3  940.73   19.95 105-0.20543 0.70545 0.16344 0.18772 0.73935-0.24979
   2   7   2    9.51   12.25 105-0.20322 0.53829 0.16705 0.32652 0.74030-0.41319
   1  11   4    0.98   17.76 105-0.20334 0.53014 0.16685 0.60917 0.74025-0.25502
   1   9   2  167.70   14.07 105-0.20273 0.42252 0.16784 0.46525 0.74051-0.47084
   1   7   1 1207.88   19.03 105-0.20268 0.36960 0.16793 0.32449 0.74053-0.57736
  -1   9   1    1.77   14.47 106-0.20714 0.14670 0.16064 0.46882 0.73860-0.68700
  -2   6   0  191.70   16.53 105-0.20537-0.02169 0.16354 0.25802 0.73937-0.85201
  -2 -10   6    3.47   19.77 106-0.20764 0.29374 0.15982-0.86453 0.73838-0.20944
  -3  -8   3  167.86   16.68 105-0.20571 0.02046 0.16298-0.72578 0.73923-0.58830
  -3  -9   4    2.33   14.55 105-0.20277 0.06941 0.16778-0.80148 0.74049-0.48253
  -4  11   2   -1.32   19.07 106-0.20698-0.14201 0.16092 0.60921 0.73867-0.74943
  -4  -9   4   -2.16   13.57 105-0.20232-0.04540 0.16853-0.80307 0.74068-0.53932
  -6  -1   1   12.01   15.31 105-0.20605-0.42628 0.16244-0.23404 0.73908-0.97050
  -7  -9   5    6.18   19.14 105-0.20443-0.33273 0.16507-0.79904 0.73978-0.60011
  -8   0   2    3.71   18.48 106-0.20689-0.60203 0.16105-0.16291 0.73871-0.97683
  -9  -5   4   13.55   19.99 105-0.20509-0.61481 0.16400-0.51868 0.73949-0.82036
   3   6   4   32.53   17.01 107-0.21030 0.76210 0.15528 0.26643 0.73724-0.14111
   3   0   3   -3.28   17.27 107-0.21213 0.71327 0.15228-0.15055 0.73641-0.24606
   3  -1   7    8.25   24.95 109-0.21889 0.92651 0.14110-0.21021 0.73327 0.18252
   2   9   4   75.53   16.37 107-0.21118 0.64959 0.15384 0.47887 0.73684-0.19700
   2   3   1   30.37   11.70 106-0.20744 0.48906 0.15999 0.05061 0.73851-0.51851
   2   2   1 1425.14   24.79 106-0.20998 0.49130 0.15582-0.01428 0.73738-0.51738
   1  10   3   32.10   16.15 105-0.20788 0.48253 0.15926 0.54728 0.73831-0.35988
   0  12   4   17.37   17.91 106-0.20976 0.42146 0.15617 0.68756 0.73748-0.30951
   0  10   2   72.90   13.98 106-0.20756 0.31436 0.15980 0.54343 0.73846-0.52437
  -1  12   3  -24.11   17.19 106-0.20708 0.25212 0.16057 0.68393 0.73867-0.47340
  -1  -9   5    2.57   16.93 105-0.20868 0.35554 0.15797-0.78896 0.73796-0.26054
  -2  11   2   10.96   18.22 106-0.21142 0.08967 0.15344 0.62013 0.73673-0.63531
  -4  -4   1   -1.08   11.08 106-0.20662-0.19851 0.16132-0.44328 0.73887-0.85864
  -4  -8   3  324.16   16.79 106-0.20901-0.09195 0.15741-0.71995 0.73781-0.64390
  -4 -10   5   12.48   16.85 105-0.20662 0.01147 0.16132-0.86557 0.73887-0.42973
  -5  -3   1   -0.06   10.99 106-0.20696-0.31211 0.16076-0.37210 0.73872-0.91459
  -5  -9   4    1.09   15.97 107-0.21092-0.15182 0.15428-0.79030 0.73696-0.59131
  -5 -10   5  -14.65   19.65 106-0.20988-0.09896 0.15598-0.85928 0.73743-0.48531
  -6  -7   3    3.83   15.14 105-0.20731-0.32020 0.16020-0.65271 0.73857-0.75533
  -7  -6   3  -18.01   15.62 106-0.20787-0.43427 0.15927-0.58178 0.73832-0.81253
  -8   5   2    4.88   34.54 110-0.22696-0.58114 0.12764 0.22324 0.72933-0.96712
  -9  -2   3    7.75   18.83 105-0.20825-0.66010 0.15866-0.30071 0.73815-0.92431
   3   6   6   20.44   20.52 107-0.21391 0.87335 0.14925 0.27411 0.73567 0.07599
   2   8   3   82.89   16.09 107-0.21455 0.60046 0.14819 0.41446 0.73538-0.30184
   0  11   3    6.57   15.72 106-0.21250 0.37262 0.15157 0.62593 0.73632-0.41468
   0   8   1 1061.91   18.48 107-0.21210 0.26548 0.15222 0.41100 0.73650-0.62966
  -2   9   1    8.99   14.87 108-0.21595 0.04133 0.14588 0.48665 0.73473-0.73999
  -2  -8   3  534.84   17.20 107-0.21340 0.14201 0.15010-0.71271 0.73591-0.52799
  -3  11   2   11.55   18.04 107-0.21532-0.02055 0.14691 0.62581 0.73502-0.68946
  -3   9   1  387.86   19.97 107-0.21278-0.07574 0.15111 0.48183 0.73619-0.79770
  -3  -1   0  217.00   15.41 107-0.21317-0.12915 0.15047-0.22217 0.73601-0.90507
  -3 -10   5    1.50   19.25 107-0.21450 0.13372 0.14829-0.85529 0.73540-0.36958
  -4   1   0  344.92   20.21 107-0.21517-0.24132 0.14717-0.07770 0.73509-0.96102
  -5  -6   2  134.94   15.41 107-0.21445-0.25172 0.14836-0.57194 0.73542-0.80362
  -6  -5   2   93.19   13.26 107-0.21221-0.36810 0.15204-0.50502 0.73645-0.86090
   3   6   5   16.56   18.72 108-0.21660 0.82238 0.14493 0.27792 0.73443-0.03011
   3   4   3  101.27   12.90 108-0.21617 0.71666 0.14564 0.13662 0.73464-0.24444
   1  -7   5   -0.89   22.97 108-0.21931 0.59356 0.14044-0.63026 0.73315-0.14344
   0   4   0   51.66   13.87 108-0.21936 0.21998 0.14035 0.14194 0.73313-0.73272
  -2  -9   4   35.10   14.25 107-0.21583 0.19713 0.14620-0.77997 0.73479-0.41983
  -7  -8   4    7.42   17.12 108-0.21627-0.37455 0.14547-0.71107 0.73459-0.70266
  -8  -7   4    9.52   18.81 107-0.21621-0.48749 0.14557-0.63933 0.73462-0.75799
   3   5   4  369.26   18.52 110-0.22433 0.77697 0.13218 0.21799 0.73072-0.13392
   3   3   3   55.90   14.25 110-0.22480 0.72537 0.13137 0.07959 0.73049-0.23990
   2   9   5   46.63   18.42 109-0.22066 0.71264 0.13828 0.49540 0.73251-0.08440
   2   6   2  311.10   15.66 109-0.22443 0.55867 0.13198 0.28969 0.73067-0.40315
  -2  12   3   11.38   17.97 109-0.22255 0.15333 0.13513 0.71076 0.73159-0.52311
  -3   5   0  422.94   25.68 111-0.23120-0.11005 0.12062 0.23084 0.72725-0.89608
  -4 -11   6    5.87   19.67 108-0.22184 0.07971 0.13631-0.90903 0.73194-0.31658
  -5  -8   3   46.69   14.84 108-0.22132-0.19244 0.13718-0.70039 0.73219-0.69321
  -6 -10   5  -13.66   18.59 109-0.22134-0.20166 0.13714-0.84120 0.73218-0.53625
  -8  -1   2   13.63   19.01 109-0.22223-0.58767 0.13567-0.20765 0.73175-0.97006
  -8  -5   3   -9.45   16.09 109-0.22112-0.53510 0.13752-0.48954 0.73229-0.86301
   3   5   6    7.32   21.93 110-0.22728 0.88709 0.12719 0.22594 0.72924 0.08314
   3   2   3   25.06   14.76 110-0.22853 0.72959 0.12508 0.01633 0.72860-0.23768
   3   1   3  431.76   19.53 110-0.22771 0.72714 0.12647-0.05610 0.72902-0.23917
   3   0   7    3.27   26.77 110-0.22927 0.94293 0.12384-0.12334 0.72823 0.19261
   3  -1   4  930.30   30.22 111-0.23208 0.78372 0.11913-0.19004 0.72679-0.13033
   1   6   1  347.05   14.18 110-0.22575 0.39346 0.12976 0.29214 0.73000-0.56644
   0  -7   3  329.61   18.39 110-0.22897 0.38503 0.12435-0.61633 0.72838-0.40858
  -2  -5   1  151.02   13.18 109-0.22439 0.04837 0.13201-0.48417 0.73067-0.73688
  -3  -5   1  463.71   15.63 110-0.22565-0.06435 0.12991-0.48182 0.73005-0.79255
  -3  -7   2   54.44   12.13 109-0.22478-0.01371 0.13137-0.62452 0.73048-0.68656
  -5  10   2   10.23   20.11 111-0.23244-0.23037 0.11851 0.58125 0.72660-0.79294
  -6  -2   1   17.14   14.80 111-0.22905-0.40446 0.12421-0.26631 0.72834-0.96077
  -6  -9   4    1.09   15.68 110-0.22562-0.24996 0.12997-0.76383 0.73006-0.64113
  -7  -4   2  -11.18   14.45 110-0.22573-0.46885 0.12978-0.41136 0.73001-0.91130
  -9  -3   3    8.26   20.76 110-0.22746-0.64075 0.12688-0.33896 0.72914-0.91520
   3   5   5    6.91   18.88 112-0.23280 0.83566 0.11782 0.23321 0.72640-0.02420
   2   8   4   18.31   17.21 112-0.23392 0.67252 0.11592 0.44666 0.72582-0.18519
   1  10   4   53.95   18.84 111-0.23277 0.55685 0.11788 0.58364 0.72642-0.24282
   1   8   2  533.96   16.07 111-0.22933 0.44879 0.12367 0.43901 0.72819-0.45842
  -1  10   2   -1.49   15.91 111-0.23215 0.22415 0.11893 0.58626 0.72674-0.56875
  -1   5   0  912.92   21.68 111-0.23148 0.11797 0.12005 0.23133 0.72709-0.78343
  -2  -7   2    5.09   11.02 110-0.22933 0.10541 0.12369-0.61689 0.72819-0.62696
  -2 -10   5   -5.66   17.07 111-0.23185 0.26537 0.11943-0.82381 0.72690-0.30477
  -3  12   3    9.87   18.51 111-0.23306 0.04991 0.11738 0.72494 0.72627-0.57455
  -4  12   3    5.63   20.17 111-0.23152-0.06588 0.11999 0.72314 0.72707-0.63172
  -4   0   0 1106.93   24.96 111-0.23217-0.22341 0.11889-0.11964 0.72673-0.95222
  -4  -7   2    1.01   14.23 111-0.23192-0.12063 0.11931-0.61282 0.72686-0.73907
  -6   9   2    5.78   24.30 112-0.23512-0.34470 0.11392 0.51948 0.72519-0.85046
   3   4   4  213.56   19.13 112-0.23705 0.78909 0.11058 0.17006 0.72421-0.12754
   3   1   7   15.90   23.07 112-0.23818 0.94997 0.10866-0.03790 0.72360 0.19549
   3  -1   6  103.49   25.72 115-0.24586 0.89991 0.09555-0.16524 0.71938 0.09024
   2   7   3  241.74   16.58 112-0.23633 0.62261 0.11182 0.37997 0.72459-0.29116
   1   9   3  -11.03   14.08 112-0.23639 0.50923 0.11171 0.52249 0.72456-0.34674
   0  -4   1  420.84   16.85 111-0.23438 0.28774 0.11511-0.39590 0.72562-0.61784
  -1  12   4    9.53   18.01 112-0.23581 0.33380 0.11270 0.73366 0.72487-0.35288
  -2  -2   0 5127.45   43.24 111-0.23383 0.00674 0.11605-0.25748 0.72591-0.83813
  -3 -11   6   13.26   21.18 112-0.23558 0.20742 0.11307-0.88940 0.72499-0.25168
  -5  -4   1  229.22   15.70 112-0.23566-0.28212 0.11294-0.39481 0.72495-0.90004
  -8  -2   2    4.78   18.61 112-0.23591-0.56997 0.11253-0.25410 0.72482-0.96070
   3   4   6   13.50   19.56 114-0.24223 0.89712 0.10188 0.17894 0.72137 0.08717
   0  11   4   -0.58   15.95 113-0.23920 0.45108 0.10704 0.66871 0.72302-0.29475
   0   9   2  133.93   13.77 113-0.23851 0.34462 0.10823 0.52439 0.72340-0.50982
   0   3   0   -0.07   10.93 113-0.23998 0.24030 0.10572 0.10552 0.72260-0.72265
   0  -8   4   -2.84   16.48 113-0.24079 0.45036 0.10434-0.66702 0.72216-0.29470
  -1  11   3   31.36   16.84 113-0.24185 0.28632 0.10253 0.66973 0.72158-0.45725
  -1   8   1  494.95   14.73 113-0.23893 0.17844 0.10752 0.45513 0.72317-0.67278
  -1  -8   3  284.40   14.15 112-0.23881 0.28099 0.10772-0.67007 0.72323-0.45955
  -4   8   1   12.14   18.59 113-0.24234-0.16045 0.10169 0.46008 0.72131-0.83973
  -4  -5   1    0.12   11.34 113-0.23932-0.16463 0.10685-0.45813 0.72296-0.84139
  -6  -8   3    4.69   17.11 112-0.23917-0.28618 0.10709-0.66779 0.72304-0.73884
  -7  -7   3   45.76   16.02 113-0.23833-0.40408 0.10852-0.60293 0.72349-0.79760
   3   4   5    4.49   14.94 114-0.24329 0.84863 0.09982 0.18213 0.72087-0.01685
   3   3   4   60.64   16.71 115-0.24676 0.79869 0.09386 0.11714 0.71892-0.12256
   3  -1   5   12.75   21.14 116-0.25119 0.85438 0.08625-0.15604 0.71638-0.01217
   2   8   5   57.05   18.11 114-0.24294 0.73455 0.10043 0.46189 0.72106-0.07385
   2   8   6    6.11   21.25 113-0.24383 0.78841 0.09891 0.46437 0.72057 0.03376
   2   5   2  601.06   15.16 114-0.24294 0.57655 0.10043 0.25103 0.72106-0.39477
   1  10   5    6.16   17.76 114-0.24373 0.62187 0.09907 0.60519 0.72062-0.12925
   0  10   3    5.65   15.82 114-0.24506 0.40376 0.09681 0.60709 0.71988-0.39894
   0   7   1  107.03   12.05 114-0.24265 0.29602 0.10091 0.39111 0.72122-0.61426
   0  -6   2  234.28   15.66 113-0.24316 0.34805 0.10005-0.52150 0.72094-0.50703
  -1  -5   1    0.99   11.75 114-0.24219 0.18039 0.10170-0.45334 0.72147-0.67131
  -1  -9   4   35.87   17.25 113-0.24373 0.33823 0.09908-0.73053 0.72062-0.34961
  -1 -10   6    0.66   23.42 114-0.24543 0.44470 0.09614-0.79754 0.71967-0.13510
  -2   5   0 1030.72   25.99 115-0.24853 0.02133 0.09083 0.26044 0.71792-0.83056
  -3  -2   0 3354.63   34.13 114-0.24412-0.09724 0.09840-0.23976 0.72040-0.88900
  -4 -10   4   25.13   17.51 113-0.24269-0.00445 0.10086-0.80490 0.72120-0.51843
  -6  -6   2   40.54   13.94 113-0.24205-0.33784 0.10194-0.52522 0.72155-0.84612
   3   3   6   14.69   19.42 116-0.25103 0.90618 0.08641 0.12455 0.71650 0.09199
   3   0   4   44.89   18.35 116-0.25262 0.80313 0.08366-0.08319 0.71557-0.11961
   1   5   1 1149.93   20.77 115-0.24975 0.41615 0.08862 0.26307 0.71724-0.55428
   1  -6   3   91.11   17.57 115-0.24978 0.52027 0.08858-0.51032 0.71722-0.34025
   0  -9   6    5.32   22.47 115-0.24954 0.56236 0.08899-0.71978 0.71736-0.07685
  -2  10   2  339.78   18.15 115-0.24997 0.12739 0.08825 0.61463 0.71711-0.61618
  -3  -9   3    7.47   12.58 114-0.24719 0.06179 0.09304-0.72536 0.71870-0.56622
  -3 -10   4   10.06   15.35 115-0.24751 0.11444 0.09247-0.79701 0.71852-0.45957
  -4  -1   0  404.47   17.30 115-0.25028-0.20502 0.08770-0.15903 0.71693-0.94185
  -4  -9   3    9.36   13.42 115-0.24800-0.05160 0.09164-0.72559 0.71824-0.62255
  -4 -11   5   14.34   19.07 115-0.24983 0.05506 0.08848-0.86448 0.71719-0.40739
  -5   7   1   99.90   24.47 116-0.25445-0.26251 0.08049 0.41066 0.71449-0.88971
  -5  -7   2    9.14   12.88 114-0.24721-0.21893 0.09300-0.58655 0.71869-0.78648
  -5 -10   4  -16.94   15.26 115-0.24751-0.11355 0.09247-0.79657 0.71852-0.57254
  -5 -11   5   -6.58   18.90 115-0.24952-0.05911 0.08901-0.86375 0.71737-0.46438
  -6  -3   1   60.68   15.25 115-0.24992-0.38181 0.08832-0.30081 0.71714-0.94868
  -7  -5   2   49.93   17.36 115-0.25007-0.44366 0.08805-0.44094 0.71705-0.89748
  -7  -9   4  -32.57   18.94 115-0.24719-0.34245 0.09304-0.72764 0.71870-0.68585
  -8  -6   3   -2.57   17.64 115-0.24697-0.50963 0.09341-0.51658 0.71883-0.84971
  -9  -4   3   11.60   22.15 115-0.24971-0.62285 0.08870-0.37289 0.71726-0.90514
   3   3   5   48.23   16.98 117-0.25468 0.85781 0.07983 0.13171 0.71442-0.01209
   3   2   4   40.34   15.65 116-0.25370 0.80521 0.08154 0.05899 0.71500-0.11890
   3   2   6   -3.40   20.82 117-0.25570 0.91288 0.07807 0.06427 0.71381 0.09661
   3   1   4 1054.11   25.24 117-0.25538 0.80732 0.07862-0.00773 0.71400-0.11773
   3   0   6    5.00   18.15 116-0.25411 0.91148 0.08085-0.08060 0.71476 0.09618
   2  -2   2   87.41   25.56 120-0.26966 0.60273 0.05360-0.19369 0.70512-0.37815
  -1  -2   0 1774.72   30.12 116-0.25185 0.13944 0.08474-0.22584 0.71609-0.77124
  -1  -7   2  113.60   12.40 115-0.25075 0.24212 0.08666-0.57839 0.71673-0.55915
  -4  10   2   29.11   18.15 116-0.25195-0.09843 0.08459 0.61888 0.71603-0.72757
  -7   1   1   54.72   20.19 117-0.25768-0.48814 0.07464-0.00518 0.71262-0.99998
  -8  -3   2   59.15   19.06 116-0.25532-0.55339 0.07874-0.29097 0.71404-0.95162
   3   1   6   47.30   22.55 118-0.26031 0.91576 0.07048-0.00108 0.71101 0.09955
   3   0   5    6.76   18.54 118-0.26201 0.86579 0.06749-0.06729 0.70996-0.00682
   2   7   4   12.90   13.15 117-0.25556 0.69393 0.07873 0.41383 0.71388-0.17339
   2   6   3   22.47   12.39 117-0.25663 0.64343 0.07688 0.34612 0.71324-0.27948
   1   9   4   38.61   15.73 117-0.25882 0.58293 0.07307 0.55926 0.71192-0.22820
   1   7   2   10.20   11.46 117-0.25583 0.47526 0.07825 0.41419 0.71372-0.44344
   0  11   5    6.37   18.14 116-0.25532 0.51905 0.07917 0.69546 0.71403-0.17922
  -2  12   4   19.23   18.65 117-0.25742 0.24041 0.07552 0.77019 0.71277-0.39744
  -2   8   1  794.94   18.00 117-0.25590 0.08080 0.07815 0.48407 0.71368-0.71974
  -2 -11   6    6.68   22.27 118-0.26031 0.34693 0.07048-0.84572 0.71101-0.18163
  -3  10   2    7.16   16.42 117-0.25667 0.02024 0.07681 0.62726 0.71322-0.66875
  -3   8   1  247.81   17.94 117-0.25911-0.02981 0.07256 0.48999 0.71174-0.77393
  -3 -11   5   14.58   19.29 117-0.25832 0.17804 0.07394-0.84819 0.71222-0.34632
  -5  -9   3  136.24   16.89 117-0.25656-0.15648 0.07700-0.71052 0.71329-0.67414
  -7   2   1   -4.31   21.21 118-0.26242-0.48372 0.06677 0.07447 0.70971-0.99721
   3   2   5   18.08   16.59 118-0.26216 0.86552 0.06742 0.07327 0.70986-0.00689
   3   1   5   20.69   18.19 119-0.26603 0.86893 0.06063 0.00975 0.70744-0.00454
   2   4   2  460.25   14.24 118-0.26102 0.59474 0.06943 0.21242 0.71057-0.38375
   1  -7   4   94.11   20.95 118-0.26491 0.58687 0.06262-0.55525 0.70815-0.22442
   0   2   0 9660.93   78.27 118-0.26041 0.26044 0.07049 0.07124 0.71095-0.71100
  -2  11   3   -0.42   15.67 117-0.26017 0.19053 0.07090 0.70389 0.71109-0.50321
  -2  -9   3   21.22   14.55 117-0.26035 0.18922 0.07057-0.70426 0.71098-0.50257
  -2 -10   4    6.91   18.64 118-0.26229 0.24335 0.06720-0.76891 0.70979-0.39480
  -3  -6   1  199.07   13.36 118-0.26136-0.02856 0.06883-0.49107 0.71036-0.77219
  -5  -5   1   53.02   13.97 118-0.26296-0.25552 0.06603-0.41838 0.70937-0.88458
  -6 -10   4   -8.96   17.83 118-0.25996-0.21500 0.07128-0.77600 0.71122-0.62186
  -7   0   1    5.04   17.41 119-0.26370-0.48334 0.06474-0.06559 0.70891-0.99781
   2   7   5   18.40   16.66 119-0.26449 0.75551 0.06324 0.42952 0.70845-0.06086
   2   7   6   22.31   17.99 119-0.26521 0.80852 0.06199 0.43059 0.70800 0.04653
   1   8   3 1228.13   19.40 119-0.26402 0.53645 0.06406 0.49785 0.70874-0.33097
  -1   9   2    5.20   13.56 120-0.26826 0.25987 0.05659 0.57596 0.70605-0.54822
  -1   4   0  291.12   17.37 119-0.26821 0.15473 0.05672 0.22441 0.70609-0.76243
  -1 -10   5    1.38   18.14 119-0.26704 0.41458 0.05875-0.76163 0.70683-0.22921
  -2  -6   1  700.86   16.89 119-0.26483 0.08915 0.06265-0.48452 0.70824-0.71400
  -3  -8   2  168.82   14.79 118-0.26355 0.02521 0.06489-0.62769 0.70904-0.66503
  -4  -8   2  179.63   16.60 119-0.26612-0.08657 0.06039-0.62246 0.70742-0.71981
  -5  11   3   10.50   21.06 119-0.26624-0.14573 0.06017 0.71398 0.70735-0.66851
  -7  -8   3   -8.16   18.06 119-0.26654-0.37573 0.05964-0.62397 0.70715-0.78130
   1   9   5   12.48   16.18 120-0.26990 0.64738 0.05344 0.58027 0.70504-0.11376
   1  -5   2  747.88   24.37 121-0.27384 0.49269 0.04646-0.39730 0.70247-0.43200
   0  10   4    8.15   15.09 120-0.27007 0.48087 0.05316 0.65053 0.70494-0.27707
   0   8   2  453.46   15.08 120-0.26928 0.37440 0.05454 0.50825 0.70545-0.49252
   0  -9   5    5.42   17.61 120-0.27090 0.53291 0.05166-0.68553 0.70439-0.16913
  -1  11   4    2.46   14.43 120-0.26930 0.36642 0.05449 0.72096 0.70543-0.33355
  -2  -3   0 6962.08   45.40 119-0.26842 0.04168 0.05606-0.26760 0.70600-0.81800
  -3  -3   0  313.96   16.00 120-0.27110-0.06972 0.05131-0.26292 0.70426-0.87244
  -4  -2   0   48.52   13.43 120-0.27012-0.18500 0.05306-0.19472 0.70490-0.92994
  -4  -6   1  263.55   16.26 120-0.27017-0.13291 0.05295-0.47546 0.70487-0.82262
  -6  -4   1   -5.08   15.93 120-0.27085-0.36177 0.05177-0.33344 0.70443-0.93596
  -6  -7   2   -0.09   14.36 120-0.26920-0.31005 0.05468-0.54714 0.70550-0.82937
  -7  -1   1   60.92   15.94 120-0.27126-0.47504 0.05104-0.12204 0.70416-0.99240
  -8  -7   3    0.49   19.58 120-0.27091-0.48430 0.05165-0.54460 0.70439-0.83423
   1   9   6   15.85   18.77 121-0.27394 0.70373 0.04639 0.58715 0.70241-0.00412
   1   4   1  560.75   16.19 121-0.27309 0.43981 0.04791 0.23403 0.70297-0.53976
   0   6   1  941.52   18.21 121-0.27358 0.32683 0.04704 0.37492 0.70265-0.59580
  -1  10   3   -4.48   13.40 121-0.27515 0.31929 0.04425 0.65981 0.70161-0.43666
  -1   7   1   11.45   12.89 121-0.27607 0.21508 0.04260 0.44957 0.70099-0.65021
  -2  -8   2  176.96   13.69 120-0.27205 0.14962 0.04977-0.61256 0.70366-0.60217
  -3  12   4   -1.51   17.57 121-0.27288 0.14150 0.04829 0.79616 0.70311-0.44389
  -3  11   3    4.15   15.64 120-0.27266 0.08906 0.04866 0.72550 0.70325-0.55151
  -4  11   3    2.91   18.52 121-0.27542-0.02301 0.04374 0.73144 0.70142-0.60563
  -6  -9   3    8.76   16.80 121-0.27291-0.25483 0.04821-0.68365 0.70309-0.72063
  -7   3   1    1.29   25.00 123-0.28250-0.46234 0.03109 0.17916 0.69660-0.98360
  -7  -6   2    5.79   16.22 120-0.27309-0.41950 0.04791-0.47040 0.70297-0.88219
  -8  -4   2   12.93   16.65 121-0.27314-0.53455 0.04781-0.33062 0.70294-0.93996
   2   6   4  141.40   14.36 122-0.27706 0.71512 0.04060 0.38057 0.70031-0.16034
   2   5   3   21.84   12.19 122-0.27782 0.66395 0.03926 0.31299 0.69980-0.26616
   2   3   2  345.13   14.23 122-0.27788 0.61111 0.03916 0.17175 0.69976-0.37337
   0   9   3   37.28   13.21 121-0.27653 0.43436 0.04155 0.59102 0.70067-0.37978
   0   1   0    3.08   19.49 122-0.27944 0.27954 0.03636 0.03453 0.69870-0.69876
  -2 -11   5   -0.12   19.97 122-0.27952 0.31313 0.03621-0.80996 0.69864-0.27707
  -4  12   4   33.01   19.15 122-0.28048 0.03590 0.03449 0.80785 0.69798-0.49567
  -5  -8   2   99.29   14.40 122-0.27750-0.18814 0.03983-0.60254 0.70002-0.76773
   2   6   6   -6.54   18.96 123-0.28389 0.82814 0.02834 0.39582 0.69561 0.05994
   1   6   2  466.53   14.82 123-0.28180 0.50170 0.03209 0.38941 0.69706-0.42722
  -2  12   5   60.51   20.36 123-0.28127 0.31658 0.03304 0.81038 0.69743-0.27532
  -4 -10   3   -8.73   17.34 122-0.28150-0.01632 0.03264-0.73230 0.69727-0.60050
  -4 -11   4    0.04   18.43 123-0.28129 0.03457 0.03301-0.80783 0.69742-0.49489
  -5   9   2   31.50   19.61 123-0.28503-0.17964 0.02629 0.60716 0.69481-0.76295
  -5 -11   4  -10.96   18.40 123-0.28340-0.07782 0.02923-0.80527 0.69595-0.54968
  -7  -2   1    2.97   16.05 123-0.28214-0.46389 0.03150-0.17332 0.69683-0.98455
   2   6   5   -6.74   15.34 124-0.28529 0.77552 0.02561 0.39751 0.69466-0.04723
   1   8   4   87.48   14.14 124-0.28525 0.60964 0.02570 0.53549 0.69469-0.21078
   0  10   5    2.34   16.92 124-0.28562 0.54806 0.02504 0.67728 0.69443-0.15977
   0  -8   3   14.84   15.65 124-0.28675 0.44340 0.02298-0.58575 0.69363-0.37247
  -1  11   5   20.54   17.74 124-0.28739 0.43729 0.02182 0.75350 0.69317-0.21426
  -1  -6   1   49.28   11.52 123-0.28507 0.22401 0.02600-0.44705 0.69481-0.64406
  -1  -9   3  420.65   18.88 124-0.28645 0.32781 0.02352-0.65589 0.69384-0.43058
  -3 -10   3   10.42   15.93 124-0.28655 0.10128 0.02335-0.72699 0.69377-0.54129
  -3 -11   4   -1.62   17.40 124-0.28778 0.15494 0.02112-0.79509 0.69289-0.43394
  -5   1   0  232.25   19.66 125-0.29041-0.27905 0.01635 0.05375 0.69099-0.97236
  -5   0   0  565.39   21.70 124-0.28846-0.28087 0.01988-0.02034 0.69240-0.97388
  -5  -6   1    5.44   14.13 124-0.28791-0.23008 0.02087-0.44393 0.69279-0.86725
  -9   1   2   13.52   22.52 125-0.29204-0.63067 0.01337 0.05599 0.68980-0.98387
  -9   0   2   -4.69   22.22 125-0.28949-0.63264 0.01803-0.01774 0.69166-0.98503
   1   7   3  392.35   15.01 125-0.29004 0.56157 0.01677 0.47548 0.69126-0.31502
   0  10   6    3.54   18.84 125-0.29166 0.60672 0.01381 0.68959 0.69008-0.04810
   0  -5   1  193.95   12.84 124-0.28946 0.34243 0.01783-0.36883 0.69168-0.58424
  -1  -3   0 1070.16   22.25 124-0.28961 0.17710 0.01754-0.22856 0.69157-0.74685
  -2   9   2    0.10   13.07 125-0.28930 0.16687 0.01811 0.61518 0.69180-0.59013
  -4  -3   0  121.14   11.98 125-0.28932-0.16611 0.01807-0.22954 0.69178-0.91694
  -5  -1   0  240.42   19.55 125-0.29330-0.27648 0.01082-0.08118 0.68887-0.96998
  -5 -10   3   12.26   15.74 124-0.28901-0.12422 0.01864-0.72330 0.69201-0.65225
  -6  -5   1    2.97   16.07 126-0.29388-0.34161 0.00977-0.36487 0.68844-0.92211
  -8  -5   2    3.02   19.09 124-0.28977-0.51627 0.01724-0.36963 0.69145-0.92637
  -9  -1   2    7.07   20.58 126-0.29388-0.62821 0.00977-0.08147 0.68844-0.98243
   2   5   7    9.31   20.61 125-0.29385 0.88969 0.00975 0.34209 0.68850 0.17307
   2   2   2  103.17   12.92 126-0.29353 0.62704 0.01031 0.13057 0.68873-0.36132
   1   8   5   -2.56   16.73 126-0.29576 0.67223 0.00623 0.55706 0.68707-0.09569
   1  -8   6    1.17   26.39 125-0.29530 0.72076 0.00708-0.56719 0.68742 0.00852
   0  -7   2   11.75   14.31 126-0.29704 0.40176 0.00390-0.49734 0.68611-0.47199
   0  -9   4   65.71   18.52 126-0.29744 0.50537 0.00317-0.63630 0.68581-0.25853
  -1  -8   2  214.78   15.07 126-0.29442 0.28501 0.00867-0.57084 0.68807-0.53026
  -1 -10   4   17.74   16.73 126-0.29536 0.39082 0.00696-0.71223 0.68737-0.31503
  -2  11   4   10.98   16.31 125-0.29372 0.27656 0.00996 0.76371 0.68859-0.37342
  -3  -4   0  115.19   14.05 126-0.29540-0.04671 0.00689-0.28842 0.68734-0.85598
  -3  -7   1  657.16   15.98 125-0.29358 0.00443 0.01022-0.50271 0.68869-0.75058
  -6  10   3    4.63   21.48 126-0.29534-0.23132 0.00699 0.69754 0.68738-0.70483
  -6  -8   2  -10.45   16.38 126-0.29583-0.28379 0.00611-0.56941 0.68702-0.81121
  -7  -3   1    7.69   17.41 125-0.29403-0.45088 0.00941-0.22118 0.68836-0.97464
  -7  -7   2    3.52   19.05 126-0.29678-0.39663 0.00439-0.49800 0.68631-0.86636
  -7  -9   3    3.09   16.49 126-0.29331-0.34841 0.01072-0.64548 0.68889-0.76293
  -9   2   2    6.14   25.35 128-0.30239-0.61994-0.00594 0.14609 0.68202-0.97591
   2   5   4  111.13   12.83 127-0.29756 0.73538 0.00272 0.34819 0.68574-0.14575
   2   4   3   15.00   11.64 127-0.29792 0.68367 0.00205 0.27971 0.68547-0.25184
   1   8   6   -8.45   17.40 127-0.29792 0.72731 0.00205 0.56200 0.68547 0.01312
   1   3   1  495.49   16.45 127-0.29757 0.46444 0.00270 0.20884 0.68573-0.52202
   1  -3   1  446.18   26.00 128-0.30430 0.47156-0.00971-0.20044 0.68055-0.51641
   0   9   4   78.28   15.92 127-0.29998 0.51089-0.00174 0.63367 0.68390-0.25608
  -2  10   3  324.79   16.60 127-0.29793 0.22898 0.00204 0.70097 0.68546-0.47677
  -2   7   1   72.39   13.92 127-0.29933 0.12524-0.00054 0.49215 0.68440-0.68952
  -2  -4   0 1792.63   23.43 126-0.29703 0.06948 0.00367-0.28547 0.68614-0.79856
  -2  -7   1   81.18   13.44 127-0.29925 0.12348-0.00037-0.49149 0.68446-0.69015
  -2 -10   3  313.16   19.21 127-0.30061 0.22840-0.00288-0.70003 0.68342-0.47671
  -3  12   5   -8.67   20.46 127-0.29961 0.22073-0.00105 0.84424 0.68418-0.31806
  -3   9   2   11.73   15.40 127-0.30015 0.06350-0.00205 0.63650 0.68377-0.63905
  -3  -9   2  -12.14   12.86 127-0.29792 0.06064 0.00205-0.63538 0.68547-0.64053
  -3 -12   5   -6.71   20.35 127-0.29981 0.21952-0.00143-0.84369 0.68403-0.31815
  -4   9   2   38.05   16.77 127-0.30136-0.04867-0.00427 0.63794 0.68284-0.69395
  -4   7   1  143.65   20.50 128-0.30230-0.09981-0.00601 0.49854 0.68211-0.79959
  -4  -7   1  178.93   13.93 127-0.29807-0.10596 0.00179-0.49421 0.68536-0.80359
  -4  -9   2   38.62   14.60 126-0.29775-0.05369 0.00238-0.63630 0.68560-0.69653
  -9  -2   2   18.60   23.41 128-0.30128-0.62107-0.00413-0.13804 0.68290-0.97693
   2   5   5   44.49   17.18 128-0.30519 0.79551-0.01126 0.36310 0.67988-0.03228
   2   5   6   10.54   20.22 127-0.30259 0.84660-0.00643 0.35890 0.68192 0.07317
   1  -8   5   -1.23   22.77 130-0.31208 0.68860-0.02410-0.53965 0.67436-0.08235
   0   7   2    2.96   12.03 128-0.30197 0.40707-0.00530 0.49708 0.68240-0.46841
  -1  10   4    7.87   16.14 128-0.30259 0.39927-0.00644 0.71003 0.68192-0.31027
  -1   8   2  218.07   13.87 128-0.30308 0.29536-0.00735 0.56992 0.68154-0.52375
  -2   4   0 1468.68   33.96 129-0.30626 0.07873-0.01325 0.29422 0.67904-0.79158
  -5   2   0  218.12   24.54 130-0.31066-0.25861-0.02144 0.16167 0.67551-0.95687
  -5  -2   0  272.17   15.99 128-0.30381-0.26550-0.00869-0.13231 0.68097-0.96238
  -6 -10   3  -11.36   17.89 128-0.30156-0.22589-0.00454-0.70074 0.68271-0.70017
  -7   7   2    5.53   30.93 130-0.31416-0.37870-0.02799 0.52025 0.67265-0.85300
   2   1   2  861.35   20.23 129-0.30614 0.63856-0.01306 0.08427 0.67920-0.35286
   2  -1   2  907.39   29.82 130-0.31255 0.64526-0.02502-0.04477 0.67404-0.34737
   0   8   3   38.89   12.71 129-0.30642 0.46367-0.01358 0.57698 0.67898-0.35884
   0   5   1  184.03   13.23 129-0.30659 0.35851-0.01391 0.36575 0.67884-0.57278
  -2  -9   2   -4.95   13.86 129-0.30825 0.18515-0.01700-0.61537 0.67752-0.57622
  -2 -11   4    7.21   16.47 128-0.30560 0.28686-0.01205-0.76231 0.67963-0.36382
  -3   7   1  608.34   22.58 130-0.31081 0.02122-0.02176 0.51373 0.67546-0.73741
  -3   4   0   83.75   22.90 131-0.31687-0.02448-0.03317 0.31426 0.67045-0.83928
  -4  -4   0  231.12   14.31 129-0.30774-0.14693-0.01603-0.26661 0.67793-0.90206
  -5  -9   2   30.44   15.75 129-0.30611-0.15915-0.01302-0.62123 0.67922-0.74644
  -6   8   2   -2.16   20.71 129-0.30953-0.26968-0.01937 0.58265 0.67649-0.80069
  -7  -4   1   15.02   18.35 129-0.30959-0.43598-0.01950-0.26318 0.67644-0.96377
  -9  -3   2   -8.35   22.06 129-0.30859-0.61083-0.01763-0.19279 0.67725-0.96869
   2   4   7   -8.73   19.30 130-0.30999 0.90487-0.02041 0.30336 0.67614 0.18543
   2   0   2 3103.34   40.16 131-0.31412 0.64676-0.02812 0.02864 0.67277-0.34628
   1   7   4  130.50   14.06 130-0.31035 0.63339-0.02109 0.51475 0.67585-0.19278
   1   5   2  858.46   17.43 130-0.30945 0.52744-0.01940 0.37191 0.67658-0.40690
  -1   9   3  456.15   16.59 130-0.30950 0.35178-0.01950 0.65259 0.67654-0.41267
  -3  11   4   -1.43   18.67 130-0.31121 0.18006-0.02269 0.79616 0.67515-0.41565
  -5  -7   1  109.32   15.50 130-0.31136-0.20516-0.02296-0.47044 0.67503-0.84848
  -6  -6   1   -3.31   16.27 131-0.31317-0.32091-0.02636-0.39878 0.67355-0.90602
  -8  -6   2   -4.04   17.39 130-0.30939-0.49804-0.01928-0.40309 0.67663-0.91332
   1   7   7   66.26   19.86 132-0.31739 0.79715-0.03466 0.52583 0.67006 0.13321
   1  -7   3  321.42   21.50 132-0.31890 0.58879-0.03752-0.45455 0.66878-0.29232
   0   9   5   76.66   17.02 131-0.31371 0.57617-0.02776 0.65965 0.67312-0.13821
   0 -10   6   -1.28   23.41 132-0.31758 0.63180-0.03503-0.66956 0.66989-0.02784
  -1   6   1   47.32   11.52 131-0.31418 0.25406-0.02864 0.45042 0.67273-0.62159
  -1   3   0  833.79   25.95 131-0.31674 0.20339-0.03344 0.24445 0.67060-0.72663
  -1 -11   5   -9.19   20.24 131-0.31587 0.46324-0.03181-0.74237 0.67133-0.19293
  -2  11   5    5.33   17.61 131-0.31447 0.34958-0.02916 0.80304 0.67250-0.24981
  -3  10   3   27.53   16.14 131-0.31393 0.13030-0.02816 0.73104 0.67294-0.52037
  -4 -11   3   -3.72   16.28 131-0.31602 0.01720-0.03207-0.74211 0.67121-0.57502
  -4 -12   4    1.27   19.61 130-0.31386 0.06808-0.02802-0.81309 0.67300-0.46982
  -5  10   3    8.49   18.77 131-0.31598-0.09592-0.03201 0.73627 0.67124-0.63128
  -5  -3   0  399.66   17.33 131-0.31532-0.25392-0.03077-0.18038 0.67179-0.95268
  -7   9   3   -5.11   21.25 132-0.31789-0.32243-0.03560 0.66896 0.66964-0.74199
   2   4   4  263.40   14.29 132-0.31756 0.75494-0.03502 0.31515 0.66992-0.13013
   2   4   6   43.50   18.05 133-0.32150 0.86340-0.04248 0.32377 0.66656 0.08784
   2   3   3  420.00   14.60 132-0.31773 0.70248-0.03533 0.24565 0.66978-0.23691
   2  -5   6   -0.44   39.86 139-0.34630 0.88895-0.09044-0.26167 0.64378 0.11149
   1   7   5    2.70   15.24 132-0.32006 0.69671-0.03974 0.53379 0.66780-0.07553
   1   6   3  105.69   12.41 132-0.31737 0.58872-0.03467 0.45560 0.67008-0.29299
   0   9   6   17.04   18.11 132-0.31825 0.63336-0.03633 0.66973 0.66933-0.02712
   0  -1   0    6.19   16.18 132-0.31808 0.31826-0.03602-0.03392 0.66947-0.66935
  -1  10   5   19.45   17.20 132-0.31972 0.46809-0.03910 0.74139 0.66809-0.18982
  -1  -4   0  329.61   15.25 132-0.31810 0.20531-0.03604-0.24493 0.66946-0.72483
  -1  -7   1    6.56   12.73 133-0.32140 0.25968-0.04230-0.45151 0.66665-0.61608
  -3  -5   0  548.38   15.51 132-0.31807-0.02304-0.03601-0.31543 0.66948-0.83794
  -4  11   4    4.62   20.73 133-0.32172 0.07655-0.04292 0.81557 0.66637-0.46289
  -4  10   3  107.43   18.29 132-0.32073 0.02181-0.04103 0.74438 0.66722-0.57144
  -5 -11   3    3.54   18.12 132-0.31825-0.09408-0.03633-0.73726 0.66933-0.62888
  -6  -9   2   -3.33   17.19 133-0.32185-0.25953-0.04315-0.59396 0.66626-0.79076
  -7  -8   2    1.07   19.14 132-0.31825-0.37443-0.03633-0.52653 0.66933-0.84869
  -9   3   2    3.86   30.41 134-0.32617-0.59351-0.05140 0.26170 0.66249-0.95421
   2   4   5  105.47   15.63 133-0.32485 0.81355-0.04891 0.33011 0.66364-0.01702
   2   3   7   -0.29   19.96 133-0.32418 0.91996-0.04762 0.26046 0.66423 0.19851
   1   7   6   33.61   16.64 133-0.32186 0.75069-0.04322 0.53583 0.66624 0.03220
   1   2   1  256.00   14.34 133-0.32281 0.48915-0.04501 0.18641 0.66542-0.50238
   0 -10   5   -6.29   21.00 134-0.32601 0.58738-0.05112-0.65199 0.66262-0.12798
  -2  -5   0 1258.22   20.51 133-0.32190 0.09548-0.04328-0.30818 0.66621-0.77786
  -2 -12   5    0.66   21.51 133-0.32312 0.35717-0.04560-0.80100 0.66516-0.24231
  -3  -8   1  332.41   15.28 133-0.32189 0.03301-0.04327-0.51895 0.66622-0.72792
  -3 -11   3   21.60   17.16 133-0.32164 0.13674-0.04279-0.73221 0.66643-0.51384
  -3 -12   4   27.13   19.90 132-0.32268 0.19028-0.04477-0.79668 0.66553-0.40589
  -4  -8   1   24.77   15.74 133-0.32363-0.07951-0.04658-0.51618 0.66471-0.78198
  -5  11   4   -6.82   20.07 133-0.32331-0.03597-0.04598 0.81860 0.66498-0.51771
  -7  -5   1  117.68   18.04 133-0.32403-0.42178-0.04733-0.30470 0.66436-0.95102
  -1  10   6   15.97   18.65 134-0.32801 0.52864-0.05452 0.75721 0.66087-0.07519
  -1 -10   3    6.56   17.79 135-0.32949 0.37307-0.05735-0.64829 0.65955-0.39451
  -2  11   6   -5.54   17.13 134-0.32616 0.41344-0.05097 0.82557 0.66251-0.13237
  -4  -5   0  351.92   14.88 134-0.32649-0.12774-0.05160-0.30090 0.66222-0.88617
  -4 -10   2   44.54   15.36 134-0.32664-0.02432-0.05189-0.65161 0.66209-0.67229
  -8  -7   2   30.85   19.29 134-0.32755-0.47876-0.05365-0.43954 0.66128-0.89694
   2  -4   7    2.15   32.54 138-0.34434 0.93831-0.08630-0.19518 0.64572 0.21582
   1  -6   2  420.77   21.14 136-0.33419 0.55312-0.06651-0.35529 0.65531-0.38455
   1  -8   4   76.13   21.55 135-0.33356 0.65557-0.06529-0.49740 0.65589-0.17207
   0   8   4    5.49   14.42 135-0.32968 0.53947-0.05781 0.62044 0.65941-0.23126
   0  -6   1  946.16   19.63 134-0.32961 0.38284-0.05765-0.36416 0.65948-0.55166
   0  -9   3   11.44   17.28 135-0.33371 0.49060-0.06558-0.56792 0.65575-0.33437
  -1  -9   2   -9.59   14.55 135-0.33200 0.32278-0.06226-0.56981 0.65732-0.49975
  -2  10   4   24.58   14.67 135-0.32984 0.31191-0.05810 0.76064 0.65927-0.34344
  -2   8   2  163.15   12.99 135-0.32981 0.20756-0.05805 0.62092 0.65929-0.55724
  -2  -8   1  847.38   17.57 135-0.33005 0.15507-0.05850-0.50394 0.65908-0.66420
  -3 -10   2    9.09   13.69 135-0.32966 0.09256-0.05776-0.64684 0.65943-0.61404
  -5  -4   0   84.35   13.27 134-0.32953-0.23909-0.05750-0.22457 0.65955-0.94060
  -6  -7   1   18.96   17.62 135-0.33144-0.30004-0.06120-0.43228 0.65782-0.88821
  -8  -1   1    9.17   21.32 136-0.33498-0.52561-0.06803-0.00289 0.65458-0.99912
   2   2   3   21.42   12.51 136-0.33657 0.72183-0.07139 0.21226 0.65313-0.21907
   0   6   2  273.51   13.97 136-0.33398 0.43885-0.06637 0.48922 0.65553-0.44164
  -1   9   4   83.48   15.10 136-0.33547 0.43118-0.06924 0.70166 0.65416-0.28301
  -1 -11   4   16.99   18.84 137-0.33762 0.43307-0.07344-0.70139 0.65215-0.27982
  -2   9   3   18.43   14.27 136-0.33535 0.26531-0.06903 0.70282 0.65426-0.44547
  -2 -11   3    4.30   17.43 136-0.33499 0.26403-0.06835-0.70281 0.65459-0.44555
  -3  11   5   -2.75   18.36 136-0.33542 0.25609-0.06917 0.84304 0.65420-0.28706
  -5  -8   1  337.08   17.59 136-0.33402-0.18309-0.06645-0.49666 0.65549-0.82916
  -5 -10   2    4.95   16.03 136-0.33298-0.13199-0.06444-0.64028 0.65644-0.72410
  -8   0   1    2.76   18.07 136-0.33499-0.52306-0.06832 0.06771 0.65460-0.99690
  -8  -2   1   -0.56   20.58 136-0.33562-0.52337-0.06954-0.07046 0.65402-0.99667
   2   3   4 1151.97   19.84 137-0.33731 0.77355-0.07289 0.28425 0.65246-0.11285
   2   3   6    0.08   15.18 137-0.33754 0.87958-0.07333 0.28584 0.65225 0.10268
   2   2   7   -6.01   19.14 137-0.33909 0.93221-0.07635 0.21839 0.65079 0.20984
   1   6   4   79.76   13.77 137-0.33716 0.65970-0.07260 0.49465 0.65260-0.16879
   1   6   7   10.80   18.08 137-0.33803 0.81905-0.07426 0.49673 0.65179 0.15418
   1   4   2  126.12   12.49 137-0.33740 0.55534-0.07304 0.35517 0.65238-0.38259
   0   7   3  360.67   14.13 137-0.33784 0.49420-0.07392 0.56671 0.65196-0.33200
   0  -2   0 9999.99   80.42 136-0.33672 0.33872-0.07174-0.06971 0.65301-0.65145
   0  -8   2  447.90   17.62 137-0.33796 0.44361-0.07414-0.48788 0.65185-0.43690
  -3  -6   0  410.22   16.03 137-0.33946-0.00079-0.07707-0.34558 0.65044-0.81825
  -5   6   1    5.13   19.35 139-0.34526-0.17120-0.08843 0.51034 0.64487-0.81876
  -6  -1   0   92.84   16.57 137-0.34048-0.34204-0.07907 0.00843 0.64947-0.98680
  -7  -6   1  -14.00   17.23 137-0.33947-0.40515-0.07710-0.34462 0.65042-0.93670
  -7  -9   2   12.71   19.46 138-0.34077-0.35295-0.07965-0.55598 0.64919-0.82891
   2   3   5    4.36   15.26 138-0.34259 0.83193-0.08308 0.29397 0.64744-0.00006
   0   8   5   40.94   14.76 138-0.34149 0.60356-0.08093 0.64379 0.64849-0.11309
   0   8   7   30.07   17.91 138-0.34189 0.70919-0.08173 0.64497 0.64810 0.10173
   0   4   1  555.71   18.17 138-0.34376 0.39634-0.08538 0.36770 0.64630-0.53866
  -1   8   3  319.60   16.12 138-0.34427 0.38765-0.08638 0.64898 0.64581-0.38033
  -1   7   2  109.05   12.00 137-0.34073 0.33155-0.07946 0.57165 0.64921-0.49150
  -1  -5   0 1162.34   21.58 138-0.34345 0.23053-0.08478-0.26725 0.64660-0.70228
  -2 -10   2  326.99   16.31 137-0.34126 0.21861-0.08047-0.62240 0.64871-0.54753
  -2 -12   4   -3.35   19.60 138-0.34344 0.32491-0.08475-0.75955 0.64661-0.33113
  -5   8   2   72.01   19.94 138-0.34526-0.11881-0.08832 0.65156 0.64485-0.71153
  -5  -5   0  347.59   16.86 138-0.34367-0.22532-0.08521-0.26676 0.64639-0.92729
  -6   0   0   62.13   18.45 138-0.34458-0.33837-0.08700 0.08613 0.64551-0.98276
  -6  -2   0   -1.21   15.54 138-0.34203-0.34082-0.08199-0.05901 0.64797-0.98499
  -8   1   1   21.09   23.13 139-0.34729-0.51182-0.09235 0.16270 0.64285-0.98611
  -8  -3   1    1.02   19.39 139-0.34519-0.51827-0.08819-0.12445 0.64491-0.99149
   1   6   5   10.27   13.79 139-0.34536 0.72089-0.08847 0.51062 0.64474-0.05322
   1   6   6   -7.25   16.41 139-0.34515 0.77292-0.08808 0.51125 0.64494 0.05386
   1   5   3  106.55   11.91 139-0.34472 0.61564-0.08723 0.43882 0.64536-0.26767
   0   8   6   -5.75   15.70 139-0.34515 0.65917-0.08808 0.65165 0.64494-0.00217
   0 -10   4   -3.75   18.86 139-0.34691 0.55657-0.09154-0.61266 0.64322-0.21504
  -2  10   5    7.45   16.92 139-0.34798 0.38235-0.09366 0.79739 0.64216-0.21903
  -2   6   1  670.56   19.25 139-0.34715 0.17172-0.09201 0.51441 0.64298-0.64810
  -2  -6   0  244.16   13.96 138-0.34506 0.11822-0.08788-0.33458 0.64503-0.75690
  -3   8   2  141.79   16.51 139-0.34737 0.11025-0.09244 0.65541 0.64277-0.59724
  -4  -6   0  181.67   14.10 139-0.34508-0.10978-0.08791-0.33500 0.64502-0.86959
  -4 -12   3   14.63   21.55 139-0.34705 0.04850-0.09181-0.75447 0.64308-0.54669
  -6  -3   0  358.85   19.81 139-0.34854-0.33461-0.09475-0.11694 0.64161-0.97917
  -6 -10   2    4.07   17.46 139-0.34458-0.23400-0.08695-0.61748 0.64550-0.76936
   2   1   7   -1.90   19.04 140-0.35047 0.94383-0.09897 0.17072 0.63964 0.22109
  -1   9   5    2.91   15.26 140-0.34931 0.49795-0.09664 0.73161 0.64081-0.16086
  -1  -8   1  561.51   17.56 140-0.35124 0.28970-0.10049-0.46184 0.63887-0.58839
  -3  11   6   14.14   19.48 139-0.34878 0.32199-0.09559 0.87001 0.64133-0.16717
  -3  10   4    8.13   15.43 139-0.34850 0.21699-0.09504 0.79948 0.64161-0.38171
  -3  -9   1  492.31   16.87 139-0.34845 0.06011-0.09492-0.53848 0.64167-0.70313
  -4  11   5   -0.50   16.79 140-0.34903 0.15560-0.09608 0.87096 0.64109-0.32989
  -4  -9   1   13.56   13.56 140-0.34863-0.05459-0.09529-0.53894 0.64148-0.75952
  -6   9   3    2.68   20.18 139-0.34994-0.17778-0.09789 0.73529 0.64018-0.65729
  -6  -8   1   -0.46   16.49 141-0.35263-0.28152-0.10323-0.46374 0.63747-0.87034
  -8  -4   1    6.90   20.07 140-0.35025-0.50883-0.09850-0.18350 0.63987-0.98250
   2   2   4   18.17   13.92 141-0.35538 0.79305-0.10877 0.24979 0.63466-0.09347
   2   2   6    4.87   16.88 141-0.35457 0.89461-0.10716 0.24748 0.63549 0.11784
   2   1   3  165.22   14.97 141-0.35493 0.73946-0.10788 0.17711 0.63512-0.20202
   1   1   1  302.54   16.60 141-0.35307 0.51988-0.10417 0.17509 0.63702-0.47322
   1  -4   1  433.49   20.25 141-0.35414 0.52096-0.10630-0.17485 0.63593-0.47210
   0  -3   0    4.30   10.84 141-0.35316 0.35306-0.10435-0.10637 0.63693-0.63679
  -3   9   3    2.57   15.06 141-0.35480 0.17067-0.10762 0.74088 0.63525-0.48250
  -3 -12   3    5.70   17.33 141-0.35334 0.16893-0.10469-0.74053 0.63675-0.48394
  -4   8   2  171.79   17.85 141-0.35373 0.00466-0.10549 0.66868 0.63635-0.64592
  -4 -11   2  -22.06   16.43 141-0.35434 0.00381-0.10670-0.66804 0.63573-0.64673
   2   2   5   16.45   15.77 143-0.36011 0.84928-0.11804 0.25881 0.62971 0.01799
   2   0   7   16.96   21.03 143-0.36049 0.95367-0.11881 0.11882 0.62931 0.23185
   2  -3   7    3.03   23.02 142-0.36071 0.95691-0.11926-0.09228 0.62907 0.23437
   1   5   7    3.12   19.37 141-0.35738 0.84056-0.11254 0.46633 0.63257 0.17598
  -1   9   6   23.92   15.88 142-0.35662 0.55680-0.11101 0.74424 0.63336-0.04696
  -1   9   7    7.07   17.74 141-0.35568 0.60892-0.10913 0.74334 0.63433 0.05954
  -1   5   1    3.87   13.80 142-0.35830 0.29695-0.11438 0.46577 0.63161-0.58066
  -2  10   6   17.39   17.08 141-0.35654 0.44390-0.11085 0.81665 0.63344-0.10275
  -2  -9   1   15.23   15.35 142-0.35774 0.18245-0.11327-0.52053 0.63219-0.63758
  -3 -11   2    9.69   16.18 142-0.35812 0.12139-0.11402-0.66062 0.63180-0.58629
  -5  11   5   -1.69   18.72 142-0.35643 0.04867-0.11064 0.88561 0.63356-0.37856
  -5  -6   0   35.54   15.05 142-0.35851-0.21030-0.11482-0.30742 0.63139-0.91218
  -5  -9   1   12.23   15.12 141-0.35615-0.16086-0.11007-0.52404 0.63385-0.80806
  -5 -11   2   -8.90   17.45 142-0.35690-0.10707-0.11158-0.66168 0.63307-0.69954
  -6   1   0   92.24   19.86 143-0.36101-0.32166-0.11984 0.18976 0.62876-0.96632
  -6  -4   0   68.38   15.84 142-0.35663-0.32603-0.11104-0.17059 0.63334-0.97044
  -7  -7   1   -2.70   16.99 142-0.35643-0.38899-0.11064-0.38308 0.63356-0.92107
   1   5   4  764.50   19.78 143-0.36306 0.68526-0.12407 0.47580 0.62657-0.14304
   1   4   8   13.73   23.56 143-0.36278 0.89572-0.12349 0.40526 0.62687 0.28654
   0   7   4    4.44   12.76 143-0.35990 0.56859-0.11770 0.60934 0.62992-0.20175
   0  -7   1  133.97   14.03 143-0.36198 0.41585-0.12188-0.36970 0.62772-0.51993
  -2  10   7    6.57   18.69 143-0.36014 0.49894-0.11815 0.82247 0.62968 0.00819
  -3  -7   0   -5.06   11.98 143-0.35995 0.01852-0.11778-0.37462 0.62987-0.79902
  -4  10   4   75.17   18.42 143-0.36218 0.11574-0.12228 0.82547 0.62751-0.42462
  -6  10   4   12.92   20.01 143-0.36278-0.10967-0.12350 0.82612 0.62687-0.53549
  -8  -5   1    4.54   19.35 143-0.36023-0.49864-0.11834-0.23251 0.62958-0.97227
   2   1   6   -0.24   17.47 145-0.36741 0.90941-0.13279 0.20332 0.62186 0.13332
   2  -1   7   -0.43   20.07 144-0.36575 0.96013-0.12942 0.06055 0.62367 0.23812
   2  -2   7    1.02   19.46 145-0.36768 0.96234-0.13335-0.00598 0.62156 0.24022
   0   7   7  -14.14   19.81 144-0.36593 0.73309-0.12979 0.62437 0.62347 0.12760
  -1  -6   0   31.06   13.48 144-0.36506 0.25197-0.12802-0.29381 0.62442-0.68002
  -1 -10   2    3.15   15.96 143-0.36421 0.35478-0.12628-0.57685 0.62534-0.46708
  -1 -11   3   26.03   15.46 143-0.36401 0.40725-0.12589-0.64843 0.62555-0.36049
  -2   9   4   44.68   13.91 144-0.36411 0.34614-0.12608 0.75970 0.62545-0.30955
  -3   6   1  197.57   18.84 145-0.36799 0.07867-0.13399 0.55621 0.62122-0.68246
  -4  11   6  -14.25   19.55 144-0.36575 0.22444-0.12942 0.90464 0.62367-0.20531
  -4   9   3    2.74   17.06 144-0.36553 0.06741-0.12897 0.76285 0.62391-0.52734
  -4  -7   0   -0.68   13.14 144-0.36390-0.09208-0.12567-0.36826 0.62567-0.85168
  -5  10   4   11.11   18.33 144-0.36518 0.00462-0.12827 0.83531 0.62429-0.47684
  -5   9   3  117.89   18.65 144-0.36666-0.04592-0.13126 0.76472 0.62268-0.58269
  -8   2   1    0.12   24.54 144-0.36654-0.48758-0.13104 0.27094 0.62281-0.96237
   1   5   5  532.46   17.85 145-0.36990 0.74482-0.13805 0.48908 0.61904-0.02841
   1   5   6  190.48   16.45 145-0.36757 0.79505-0.13329 0.48537 0.62161 0.07549
   1   3   2  451.55   15.76 145-0.36727 0.58586-0.13267 0.34464 0.62195-0.35109
   1  -8   3  963.90   27.48 145-0.36943 0.64062-0.13709-0.42516 0.61956-0.24219
   0   7   5  135.75   15.73 145-0.36946 0.63071-0.13715 0.62915 0.61953-0.08513
   0   6   3  528.80   16.84 145-0.37001 0.52684-0.13828 0.56026 0.61892-0.29786
   0   5   2  954.69   18.29 145-0.36858 0.47318-0.13535 0.48819 0.62050-0.40644
  -1   8   4  256.28   15.12 145-0.36771 0.46247-0.13358 0.69695 0.62146-0.25006
  -2  -7   0    4.71   11.73 144-0.36639 0.13864-0.13088-0.36213 0.62291-0.73545
  -2 -12   3   16.94   17.79 145-0.36978 0.29939-0.13779-0.70819 0.61918-0.41036
  -3  10   5   -4.45   18.87 145-0.36957 0.28982-0.13737 0.84344 0.61941-0.25159
  -4   6   1  225.89   20.28 146-0.37148-0.03151-0.14129 0.56348 0.61728-0.73490
  -6  -5   0   28.35   14.63 145-0.36743-0.31621-0.13297-0.21934 0.62178-0.95964
  -6  -9   1   20.36   16.38 145-0.36951-0.26134-0.13725-0.49652 0.61948-0.84979
   2   1   4  413.09   19.16 146-0.37365 0.81066-0.14556 0.21584 0.61478-0.07517
   2   0   3   -0.30   14.74 146-0.37268 0.75714-0.14356 0.14462 0.61588-0.18261
   1   4   3  909.95   17.01 146-0.37173 0.64299-0.14161 0.42292 0.61695-0.24006
   1  -9   5   14.44   25.00 146-0.37373 0.74864-0.14573-0.48630 0.61469-0.02428
   0   7   6   15.53   15.25 146-0.37121 0.68548-0.14054 0.63322 0.61753 0.02490
   0  -4   0   38.10   12.88 146-0.37125 0.37255-0.14063-0.14060 0.61748-0.61648
   0  -9   2  125.57   16.08 146-0.37334 0.47806-0.14491-0.48765 0.61514-0.40187
   0 -10   3   12.80   17.06 146-0.37239 0.52939-0.14298-0.56042 0.61620-0.29503
   0 -11   5    7.24   22.15 146-0.37308 0.63432-0.14440-0.62797 0.61542-0.08102
  -2   8   3  533.75   17.69 146-0.37398 0.30332-0.14625 0.70876 0.61441-0.40584
  -2   7   2   -0.44   10.77 146-0.37159 0.24847-0.14132 0.63531 0.61711-0.51502
  -2 -11   2   -3.11   16.09 146-0.37104 0.24835-0.14020-0.63398 0.61772-0.51649
  -3 -10   1    7.89   15.78 147-0.37421 0.08431-0.14672-0.56033 0.61414-0.67686
  -4 -10   1   10.57   16.32 145-0.37122-0.03189-0.14056-0.56336 0.61752-0.73532
  -6   5   1    2.81   31.78 149-0.38605-0.24606-0.17142 0.52425 0.60025-0.83113
  -7  -8   1   -9.93   18.32 146-0.37159-0.37338-0.14132-0.42079 0.61711-0.90373
  -8  -6   1   26.50   19.64 145-0.37109-0.48688-0.14029-0.28157 0.61767-0.95938
   2   1   5  193.31   17.25 147-0.37685 0.86562-0.15167 0.22153 0.61122 0.03531
   2  -5   5   22.74   36.19 156-0.40661 0.89566-0.21514-0.13683 0.57403 0.07267
   1  -7   2   12.26   15.97 147-0.37650 0.59525-0.15094-0.34182 0.61162-0.34122
   1  -9   6    6.00   32.09 148-0.37977 0.80649-0.15772-0.47379 0.60784 0.08920
  -1 -12   4    8.54   20.57 147-0.37740 0.47432-0.15279-0.69510 0.61059-0.23780
  -5  -7   0   71.41   13.58 146-0.37453-0.19502-0.14685-0.34637 0.61388-0.89544
  -5 -10   1    0.65   17.63 147-0.37695-0.13990-0.15187-0.55161 0.61111-0.78534
   2   0   6   33.72   17.74 149-0.38117 0.92146-0.16061 0.16113 0.60622 0.14707
   1   4   7    2.59   18.04 148-0.37880 0.85958-0.15568 0.43854 0.60899 0.19699
   1   3   8    7.07   20.94 148-0.38070 0.91281-0.15965 0.37040 0.60676 0.30434
   0   6   8   -0.46   18.71 148-0.37863 0.79745-0.15531 0.57863 0.60919 0.24751
  -1   8   5  442.01   18.00 148-0.38115 0.52782-0.16056 0.72279 0.60624-0.12865
  -1   7   3  645.63   16.05 148-0.37890 0.42185-0.15588 0.64876 0.60887-0.34444
  -1   6   2   18.57   11.41 148-0.37964 0.37010-0.15743 0.58015 0.60801-0.45035
  -1  -9   1    7.47   11.97 147-0.37853 0.31710-0.15511-0.47807 0.60930-0.55823
  -2   9   5   21.21   15.46 148-0.38084 0.41490-0.15992 0.79331 0.60660-0.18391
  -3  -8   0  374.03   15.05 148-0.37897 0.03868-0.15600-0.40656 0.60880-0.77665
  -4  -8   0   -1.07   14.65 148-0.38052-0.07458-0.15928-0.40285 0.60697-0.83172
  -4 -12   2   12.41   17.27 147-0.37946 0.02952-0.15705-0.68649 0.60822-0.61885
  -6  -6   0   30.76   15.53 147-0.37871-0.30450-0.15547-0.26677 0.60910-0.94633
   2  -4   6   15.54   26.83 153-0.39616 0.93594-0.19234-0.08880 0.58779 0.16516
   1  -5   1  935.75   24.40 149-0.38570 0.55329-0.17008-0.18068 0.60079-0.43682
   1  -9   4   32.51   21.57 149-0.38594 0.70858-0.17059-0.46137 0.60050-0.11683
  -1   8   7    2.79   17.43 149-0.38256 0.63543-0.16349 0.72768 0.60455 0.08939
  -2 -10   1  514.58   16.57 149-0.38281 0.20873-0.16402-0.53879 0.60425-0.60903
  -3  10   6    0.34   17.48 149-0.38239 0.35477-0.16311 0.86652 0.60476-0.13096
  -5   3   0  282.79   42.81 156-0.40802-0.16098-0.21816 0.42984 0.57210-0.85326
  -6   7   2   -0.16   21.53 150-0.38737-0.19199-0.17360 0.66710 0.59877-0.72146
  -7   8   3   15.66   23.97 150-0.38716-0.25292-0.17317 0.73626 0.59902-0.67102
  -7  -2   0   11.27   19.97 150-0.38505-0.41282-0.16872 0.02813 0.60157-0.99590
  -7  -3   0   -0.63   17.44 149-0.38427-0.41237-0.16708-0.04234 0.60251-0.99539
   2  -1   3  154.90   18.29 151-0.38928 0.77365-0.17759 0.10721 0.59642-0.16342
   2  -1   6    4.79   18.98 150-0.38818 0.93228-0.17525 0.10456 0.59778 0.15860
   0   3   1 1823.56   27.81 150-0.38611 0.43809-0.17088 0.38242 0.60030-0.49359
   0 -11   4    8.14   19.34 150-0.38861 0.59914-0.17617-0.59883 0.59725-0.16880
  -1   8   6   26.37   16.18 149-0.38516 0.58537-0.16888 0.73169 0.60144-0.01534
  -1  -7   0  184.84   12.43 150-0.38592 0.27363-0.17049-0.32151 0.60052-0.65577
  -2   9   6   46.58   17.04 150-0.38864 0.47480-0.17624 0.80914 0.59721-0.06735
  -2  -8   0  449.10   14.75 150-0.38646 0.16040-0.17163-0.39055 0.59987-0.71140
  -3  10   7    0.40   17.37 150-0.38627 0.41110-0.17120 0.87507 0.60011-0.01932
  -3   9   4   -7.73   16.94 150-0.38726 0.25487-0.17331 0.80674 0.59890-0.33910
  -3  -2  -1   82.29   14.62 150-0.38726-0.00524-0.17329 0.03174 0.59891-0.87368
  -3  -3  -1    2.13   13.06 149-0.38574-0.00603-0.17009-0.03963 0.60075-0.87383
  -3 -12   2    3.44   17.74 150-0.38538 0.14906-0.16934-0.67571 0.60118-0.55619
  -4  10   5   25.35   19.56 150-0.38762 0.19396-0.17406 0.87659 0.59847-0.28824
  -6 -10   1    4.95   18.58 150-0.38803-0.24255-0.17492-0.52868 0.59797-0.82795
  -7  -1   0  206.27   21.26 151-0.38926-0.40742-0.17755 0.10808 0.59645-0.99016
  -7  -4   0   35.67   18.20 150-0.38889-0.40852-0.17676-0.10452 0.59690-0.99062
   2   0   4  158.94   17.31 151-0.39146 0.82826-0.18186 0.18125 0.59379-0.05407
   2   0   5    0.06   15.58 151-0.39107 0.88076-0.18103 0.18200 0.59428 0.05329
   1   4   4  366.47   14.83 151-0.38915 0.71226-0.17694 0.45743 0.59666-0.11308
   1   4   6  114.81   16.31 151-0.38973 0.81806-0.17818 0.45857 0.59594 0.10155
   0   6   4  188.94   13.23 151-0.38927 0.59878-0.17719 0.59848 0.59651-0.16890
   0   6   7   -3.42   18.93 151-0.39089 0.75662-0.18065 0.60297 0.59450 0.15419
   0  -5   0   -0.83   11.78 151-0.38902 0.38949-0.17670-0.17436 0.59680-0.59691
   0  -8   1  970.43   18.91 150-0.38964 0.44269-0.17799-0.38391 0.59605-0.48883
  -2   9   7   31.53   17.75 151-0.38944 0.52803-0.17757 0.81060 0.59629 0.04050
  -5  -8   0   26.85   14.73 151-0.38955-0.17968-0.17780-0.38508 0.59616-0.87712
  -6  -7   0   -6.56   17.12 151-0.39113-0.29234-0.18115-0.31034 0.59421-0.93177
   2  -2   6   -2.83   18.89 152-0.39441 0.93908-0.18811 0.04687 0.59008 0.16678
   2  -3   6    4.68   20.56 153-0.39883 0.94115-0.19761-0.01377 0.58442 0.17014
   1   4   5   74.05   12.29 152-0.39349 0.76908-0.18612 0.46718 0.59125-0.00084
   1   0   1    3.05   13.26 152-0.39543 0.56165-0.19029 0.19019 0.58879-0.42560
  -1 -11   2    4.15   17.39 152-0.39478 0.38622-0.18887-0.58557 0.58962-0.43158
  -2  -3  -1   35.90   14.04 152-0.39435 0.11568-0.18797-0.02295 0.59016-0.80865
  -3   7   2   38.46   14.28 152-0.39572 0.15896-0.19090 0.68352 0.58842-0.54266
  -3  -1  -1  440.35   17.64 152-0.39501 0.00221-0.18939 0.11936 0.58932-0.86420
  -3  -4  -1  770.73   16.90 151-0.39269-0.00008-0.18441-0.09662 0.59225-0.86750
  -4  -3  -1  298.79   16.09 152-0.39483-0.11218-0.18899-0.02151 0.58955-0.92088
  -4 -11   1   -4.96   16.31 152-0.39304-0.00940-0.18517-0.58824 0.59181-0.70942
  -6   2   0   10.78   21.27 154-0.40049-0.28303-0.20120 0.34252 0.58226-0.91964
  -7  -5   0   36.48   19.69 152-0.39540-0.40206-0.19021-0.16143 0.58883-0.98265
   2  -2   3   12.93   17.65 154-0.40237 0.78782-0.20547 0.06436 0.57972-0.14600
   1   3   7   18.52   17.62 153-0.39880 0.87879-0.19773 0.40849 0.58439 0.22088
   1   2   8   -8.17   17.99 153-0.39622 0.92898-0.19216 0.33416 0.58772 0.32472
   0   6   5   12.84   13.68 153-0.39673 0.65860-0.19327 0.61577 0.58706-0.05179
   0   6   6   40.50   13.52 153-0.39660 0.71108-0.19299 0.61494 0.58723 0.05459
  -1 -12   3   -1.68   20.56 153-0.39759 0.44194-0.19511-0.65084 0.58596-0.32130
  -2   3   0 5713.31   75.18 154-0.40110 0.17385-0.20272 0.41398 0.58139-0.69322
  -2  -2  -1 1209.96   22.18 152-0.39594 0.11720-0.19157 0.05104 0.58807-0.80686
  -2 -12   2   47.78   18.80 153-0.39773 0.27539-0.19544-0.64826 0.58577-0.48379
  -3   8   3  141.89   13.78 153-0.39667 0.21362-0.19312 0.75596 0.58715-0.43396
  -3  -9   0  140.39   15.57 153-0.39756 0.05603-0.19505-0.43710 0.58600-0.75503
  -3 -11   1   11.00   16.07 152-0.39588 0.10717-0.19142-0.58282 0.58816-0.64967
  -4  -2  -1   19.44   11.73 152-0.39608-0.11082-0.19187 0.05149 0.58790-0.91941
  -4  -4  -1   12.25   12.74 153-0.39750-0.10900-0.19493-0.08564 0.58607-0.91667
  -4  -9   0   58.15   15.95 153-0.39792-0.05733-0.19583-0.43711 0.58553-0.81056
  -5  10   5   -1.24   18.87 153-0.39639 0.08805-0.19253 0.89749 0.58750-0.33301
  -5 -11   1   23.50   17.88 152-0.39645-0.11971-0.19267-0.58070 0.58742-0.76072
  -6  10   5   11.25   20.71 154-0.39964-0.02172-0.19954 0.90271 0.58331-0.38491
  -7   9   4    8.42   21.41 153-0.39778-0.19007-0.19554 0.82956 0.58571-0.55080
  -7   0   0   11.29   19.96 154-0.40074-0.39609-0.20194 0.20249 0.58186-0.97482
   1   3   3    0.71   13.27 154-0.40074 0.67219-0.20177 0.41323 0.58191-0.20430
   1   2   2 5789.74   42.87 154-0.39975 0.61903-0.19962 0.34020 0.58321-0.31224
   0   5   8    3.83   17.39 154-0.39989 0.81868-0.19991 0.55298 0.58303 0.27361
  -1   7   4    7.63   12.53 154-0.40031 0.49590-0.20085 0.69400 0.58247-0.21041
  -1   7   8   -2.19   17.83 154-0.39971 0.70436-0.19954 0.69294 0.58326 0.21717
  -1   2   0 1444.84   41.65 155-0.40389 0.29000-0.20864 0.34952 0.57774-0.63388
  -2   8   4  186.18   15.10 154-0.39972 0.38241-0.19957 0.76205 0.58324-0.26686
  -2   5   1  149.93   15.59 154-0.40160 0.22668-0.20363 0.55579 0.58078-0.58551
  -2  -4  -1    0.38   11.06 154-0.39920 0.11923-0.19843-0.08222 0.58392-0.80388
  -2 -13   3   17.62   19.98 153-0.39931 0.32936-0.19868-0.71613 0.58377-0.37492
  -3  -5  -1  120.84   12.23 154-0.39992 0.00629-0.19998-0.15105 0.58299-0.85852
  -4  10   6   14.43   18.09 154-0.40015 0.25879-0.20050 0.90553 0.58268-0.16511
   2  -1   4  420.09   21.53 156-0.40753 0.84464-0.21626 0.14514 0.57288-0.03300
   2  -1   5  141.55   18.66 156-0.40569 0.89445-0.21220 0.14140 0.57538 0.07132
   2  -3   3  350.62   30.05 158-0.41521 0.80017-0.23328 0.02210 0.56220-0.12857
   0   5   3   27.51   12.01 155-0.40312 0.55913-0.20662 0.55818 0.57880-0.25887
   0  -6   0 4201.04   34.51 155-0.40531 0.40658-0.21139-0.20993 0.57588-0.57530
   0 -10   2   65.29   16.54 155-0.40382 0.50864-0.20813-0.49525 0.57788-0.36413
  -1  -8   0  322.02   15.88 155-0.40554 0.29315-0.21189-0.34977 0.57557-0.63165
  -1 -10   1  122.79   15.19 154-0.40335 0.34169-0.20710-0.49594 0.57850-0.52815
  -3   9   5  135.25   16.21 155-0.40572 0.32546-0.21230 0.84472 0.57532-0.20967
  -4   9   4   -0.20   15.51 155-0.40297 0.15633-0.20626 0.84024 0.57901-0.37530
  -4  -1  -1  103.08   16.71 155-0.40431-0.10287-0.20918 0.13885 0.57723-0.90886
  -4  -5  -1    6.57   13.87 155-0.40538-0.10355-0.21153-0.14106 0.57579-0.90893
  -5   7   2    1.51   18.04 156-0.40762-0.05740-0.21644 0.70983 0.57276-0.63981
  -5  -9   0   20.94   16.10 155-0.40474-0.16394-0.21014-0.42273 0.57664-0.85733
  -6  -8   0    5.15   17.25 155-0.40364-0.27915-0.20774-0.35383 0.57811-0.91499
  -7  -6   0   -3.73   17.61 155-0.40323-0.39418-0.20682-0.21399 0.57867-0.97229
  -8   7   3   -1.27   27.46 155-0.40511-0.35234-0.21095 0.70749 0.57615-0.70669
   1  -6   1  319.81   16.86 156-0.40906 0.57595-0.21934-0.20219 0.57084-0.40736
   1  -8   2  459.29   22.04 156-0.40947 0.62804-0.22026-0.34211 0.57027-0.30062
   1  -9   3    6.98   18.99 156-0.40844 0.67881-0.21797-0.41391 0.57169-0.19513
   0   4   2 1953.86   24.18 156-0.40671 0.51152-0.21417 0.49553 0.57404-0.36004
   0 -11   3   -1.27   18.92 156-0.40816 0.56617-0.21735-0.55739 0.57207-0.25130
  -1   7   7    8.84   17.33 157-0.40992 0.66125-0.22122 0.71224 0.56966 0.12213
  -1   4   1 7769.12   52.13 156-0.40890 0.34745-0.21899 0.50058 0.57105-0.52005
  -2  -1  -1  423.19   18.89 156-0.40748 0.12835-0.21585 0.14517 0.57300-0.79188
  -2  -5  -1   31.90   12.26 155-0.40651 0.12697-0.21375-0.13814 0.57430-0.79370
  -2  -9   0  159.28   14.81 155-0.40612 0.17964-0.21286-0.41967 0.57484-0.68732
  -2 -11   1  -28.97   15.15 156-0.40671 0.23199-0.21417-0.55961 0.57404-0.57967
  -4  10   7    3.39   19.65 156-0.40654 0.31721-0.21380 0.91827 0.57426-0.04956
  -4   7   2   -1.91   15.30 156-0.40805 0.05690-0.21711 0.71043 0.57222-0.58314
  -6   9   4    0.12   20.83 155-0.40756-0.06836-0.21603 0.85407 0.57289-0.48274
  -6   8   3   -0.69   18.65 158-0.41334-0.11106-0.22883 0.78947 0.56489-0.58043
   2  -2   5   20.11   19.26 159-0.41690 0.90575-0.23652 0.09563 0.55983 0.08643
   1   3   6   22.51   16.31 157-0.41181 0.83888-0.22516 0.43558 0.56703 0.12988
   1   1   8   56.76   21.05 158-0.41260 0.94401-0.22694 0.29680 0.56591 0.34388
  -1   7   5  188.16   15.64 157-0.41060 0.55816-0.22249 0.71557 0.56871-0.09053
  -2   8   8   19.22   18.71 157-0.41063 0.60172-0.22255 0.78569 0.56867 0.17473
  -3  -6  -1   96.87   13.65 156-0.40983 0.01626-0.22080-0.20090 0.56976-0.84565
  -3 -13   2  -22.81   20.22 157-0.41003 0.17398-0.22121-0.69336 0.56950-0.52434
  -4   8   3  268.65   18.65 157-0.41194 0.11372-0.22547 0.78863 0.56684-0.47030
  -5   9   4    6.27   17.04 156-0.41034 0.04993-0.22192 0.85679 0.56906-0.42234
  -5  -3  -1   21.49   15.05 157-0.41260-0.20979-0.22691 0.01606 0.56593-0.95488
   1   3   4  946.92   19.85 158-0.41548 0.73892-0.23330 0.44337 0.56189-0.07806
   0   5   7   33.19   16.37 158-0.41345 0.78027-0.22879 0.58081 0.56475 0.18419
   0  -9   1   38.07   14.15 158-0.41414 0.46688-0.23032-0.40281 0.56378-0.45696
  -1   7   6   25.79   13.83 158-0.41309 0.61305-0.22798 0.72035 0.56526 0.02020
  -1   6   3  252.38   14.89 158-0.41550 0.45899-0.23339 0.65502 0.56184-0.29691
  -2   8   5   10.21   12.97 158-0.41318 0.44704-0.22818 0.79141 0.56513-0.14267
  -2   7   3   91.22   12.94 158-0.41310 0.34252-0.22802 0.72055 0.56524-0.35658
  -3   9   6   12.98   15.32 158-0.41390 0.38635-0.22979 0.86381 0.56412-0.09080
  -4  -6  -1    3.41   12.67 158-0.41332-0.09480-0.22850-0.19392 0.56493-0.89747
  -4 -10   0    7.26   16.83 158-0.41465-0.04009-0.23146-0.47154 0.56306-0.78750
  -4 -12   1   38.83   19.25 158-0.41376 0.01128-0.22949-0.61472 0.56431-0.68195
  -5  10   6   -1.64   17.07 158-0.41316 0.15723-0.22814 0.93307 0.56516-0.20403
  -5  -2  -1    5.89   15.44 157-0.41437-0.20677-0.23085 0.09056 0.56345-0.95039
  -5  -4  -1   49.84   13.88 157-0.41317-0.20818-0.22817-0.05316 0.56514-0.95325
  -7  -7   0   12.77   18.02 158-0.41322-0.38438-0.22827-0.26430 0.56508-0.95940
   2  -2   4    9.62   18.78 161-0.42404 0.86021-0.25269 0.11196 0.54936-0.01010
   2  -3   5    5.90   21.77 161-0.42389 0.91367-0.25233 0.04102 0.54959 0.09755
   2  -4   5   80.89   25.53 163-0.42855 0.91731-0.26303-0.01810 0.54252 0.10503
   1   3   5   34.63   12.69 159-0.41707 0.79319-0.23692 0.44745 0.55957 0.03122
   1   2   7    6.46   14.79 159-0.41690 0.89759-0.23650 0.37706 0.55983 0.24519
  -2   8   6    8.26   15.63 159-0.41781 0.50432-0.23858 0.80244 0.55851-0.02860
  -2   8   7    2.61   16.03 159-0.41690 0.55553-0.23650 0.79956 0.55983 0.07652
  -2   6   2 1958.00   24.36 159-0.41707 0.29452-0.23692 0.65924 0.55957-0.45776
  -2  -6  -1  526.98   15.10 158-0.41586 0.13680-0.23421-0.18693 0.56130-0.78063
  -3   9   7   18.17   16.93 158-0.41596 0.44067-0.23440 0.86799 0.56118 0.01900
  -3   0  -1    1.73   12.74 158-0.41667 0.02291-0.23603 0.23622 0.56014-0.83517
  -3 -10   0   38.55   15.20 158-0.41598 0.07477-0.23446-0.46966 0.56114-0.73006
  -3 -12   1   -3.05   17.35 159-0.41705 0.12871-0.23687-0.60634 0.55960-0.62092
  -5   8   3   53.57   15.96 159-0.41733 0.00542-0.23750 0.80052 0.55920-0.51926
  -5  -5  -1  420.86   17.08 159-0.41699-0.20448-0.23673-0.11410 0.55969-0.94756
  -6  -9   0   20.69   19.17 158-0.41669-0.26560-0.23606-0.39622 0.56012-0.89627
  -7   6   2    9.03   26.78 160-0.42273-0.27158-0.24970 0.67405 0.55131-0.73182
   0   5   4  507.84   15.15 160-0.41953 0.62868-0.24221 0.59334 0.55615-0.12822
   0   5   6   76.08   14.84 161-0.42250 0.73572-0.24893 0.59969 0.55179 0.08930
   0   4   8   -9.84   17.80 160-0.42010 0.83953-0.24349 0.52630 0.55532 0.30121
   0  -7   0   -2.61   12.84 160-0.42144 0.42206-0.24652-0.24555 0.55336-0.55329
  -1   5   2  784.17   18.52 160-0.42182 0.41239-0.24739 0.59966 0.55279-0.39466
  -1  -3  -1  615.83   19.06 160-0.42134 0.25618-0.24633 0.03460 0.55349-0.71601
  -1  -4  -1  630.08   18.31 160-0.42145 0.25640-0.24656-0.03532 0.55333-0.71585
  -1 -12   2   15.99   18.95 160-0.42153 0.41325-0.24672-0.59902 0.55323-0.39501
  -3  -7  -1  389.73   15.17 160-0.42011 0.02696-0.24351-0.24827 0.55531-0.83064
  -5 -10   0   32.62   17.87 160-0.42024-0.14859-0.24381-0.45952 0.55512-0.83601
  -6  10   6    0.12   19.95 160-0.42026 0.05104-0.24385 0.94718 0.55509-0.25059
   1   0   8    8.95   19.68 161-0.42493 0.95826-0.25474 0.25432 0.54803 0.36499
   1 -10   5    1.05   27.31 162-0.42803 0.80402-0.26187-0.44091 0.54332 0.04736
   0   5   5   23.06   12.61 161-0.42380 0.68583-0.25215 0.60425 0.54973-0.01455
   0 -12   4    5.45   20.51 162-0.42542 0.63731-0.25586-0.59141 0.54730-0.11797
  -1   6   8   -5.66   18.25 161-0.42303 0.72752-0.25042 0.67310 0.55087 0.24903
  -1  -9   0    1.69   12.54 161-0.42335 0.31022-0.25114-0.38219 0.55039-0.60650
  -1 -13   3    7.63   21.11 161-0.42457 0.46851-0.25395-0.65849 0.54856-0.28374
  -2 -10   0   73.98   13.88 161-0.42354 0.19652-0.25158-0.45169 0.55011-0.66219
  -2 -13   2    3.39   17.90 161-0.42319 0.30138-0.25078-0.66357 0.55063-0.44921
  -3   8   4   81.29   15.91 161-0.42460 0.29207-0.25400 0.81677 0.54852-0.28933
  -4   9   5    0.51   15.80 161-0.42319 0.22879-0.25078 0.88496 0.55063-0.24020
  -4   0  -1    5.46   14.39 161-0.42484-0.08323-0.25457 0.25513 0.54815-0.88031
  -4  -7  -1  144.51   15.16 160-0.42252-0.08493-0.24925-0.24355 0.55163-0.88376
  -5  -1  -1  250.67   17.71 161-0.42531-0.19574-0.25562 0.18565 0.54745-0.93520
  -5  -6  -1   -0.11   14.81 161-0.42319-0.19812-0.25078-0.16978 0.55063-0.93856
  -7   1   0  191.98   24.50 162-0.42809-0.36950-0.26202 0.33367 0.54322-0.93708
  -8  -3   0    1.26   20.60 160-0.42303-0.48657-0.25042 0.04019 0.55087-0.99919
  -8  -4   0    4.30   22.33 161-0.42382-0.48702-0.25223-0.02828 0.54968-0.99959
   1  -7   1 1061.88   22.91 162-0.42886 0.59592-0.26406-0.22751 0.54200-0.37849
   1 -10   4   54.48   22.36 162-0.42766 0.75009-0.26129-0.44157 0.54385-0.06054
  -1  -5  -1 1078.96   18.78 161-0.42593 0.26120-0.25732-0.09437 0.54648-0.70905
  -1 -11   1   -3.89   14.62 162-0.42627 0.36601-0.25810-0.51665 0.54597-0.49518
  -2  -7  -1  482.91   14.73 161-0.42595 0.14714-0.25737-0.23442 0.54645-0.76538
  -2 -12   1    4.54   17.65 162-0.42810 0.25373-0.26231-0.58299 0.54317-0.54846
  -8  -2   0   -1.47   19.24 162-0.42736-0.48123-0.26061 0.12127 0.54430-0.99264
   2  -3   4  980.55   36.45 165-0.43723 0.87375-0.28361 0.07232 0.52877 0.01151
   1   2   3   86.76   14.55 163-0.43148 0.70255-0.27013 0.41028 0.53795-0.16040
   1   2   6   36.10   16.71 164-0.43187 0.85930-0.27105 0.41106 0.53733 0.16047
   0 -11   2    9.53   17.24 162-0.42978 0.53517-0.26621-0.50749 0.54059-0.32599
  -1  -2  -1  244.89   14.37 163-0.42936 0.26485-0.26522 0.12437 0.54125-0.70327
  -3  -8  -1 1088.09   20.80 163-0.43087 0.03805-0.26873-0.29315 0.53889-0.81401
  -4 -11   0   12.28   17.58 163-0.43085-0.02359-0.26869-0.50513 0.53892-0.76359
  -5  -7  -1    2.88   15.42 164-0.43238-0.19130-0.27222-0.22191 0.53654-0.92718
  -8   3   1   -0.72   44.71 174-0.46178-0.39851-0.34363 0.55754 0.48546-0.83032
   2  -4   4  208.65   30.39 168-0.44651 0.88305-0.30580 0.02389 0.51324 0.02703
   1   1   7    9.96   19.17 165-0.43481 0.91379-0.27790 0.34729 0.53270 0.27175
  -1   6   4  226.91   13.32 164-0.43262 0.52865-0.27276 0.69473 0.53619-0.16390
  -1   6   7  -14.16   17.03 164-0.43370 0.68514-0.27532 0.69713 0.53446 0.15780
  -1  -6  -1  371.62   14.45 164-0.43288 0.26763-0.27340-0.14813 0.53576-0.69847
  -2   7   4    0.39   13.83 164-0.43396 0.41515-0.27592 0.76936 0.53405-0.21806
  -3   5   1  389.23   18.64 164-0.43349 0.14458-0.27482 0.62736 0.53480-0.59570
  -3 -11   0   13.76   15.51 164-0.43264 0.09220-0.27284-0.50134 0.53614-0.70479
  -4   9   6    0.28   18.54 164-0.43370 0.29175-0.27532 0.90799 0.53446-0.11736
  -4  -8  -1   52.03   14.54 163-0.43228-0.07396-0.27200-0.29004 0.53671-0.86800
  -5   9   5    4.95   18.29 163-0.43301 0.12422-0.27369 0.91102 0.53556-0.28119
  -6  -3  -1   -1.41   15.84 164-0.43432-0.29990-0.27675 0.06804 0.53348-0.97649
  -6  -4  -1   44.27   17.30 164-0.43358-0.30118-0.27502-0.00557 0.53466-0.97886
   1   1   2  216.82   16.06 165-0.43693 0.65550-0.28313 0.35330 0.52920-0.25877
   1  -1   8    5.94   23.03 166-0.43836 0.96930-0.28654 0.21518 0.52685 0.38402
   1  -9   2  137.63   17.67 164-0.43574 0.65439-0.28033-0.35325 0.53112-0.26125
   0   4   3    3.01   11.15 164-0.43564 0.59297-0.28013 0.56213 0.53126-0.20995
   0   4   7   63.48   15.96 165-0.43532 0.80130-0.27935 0.56022 0.53180 0.21654
   0  -8   0  261.70   15.84 165-0.43609 0.43666-0.28116-0.28104 0.53055-0.53051
   0 -10   1  646.48   18.61 164-0.43521 0.48767-0.27908-0.42397 0.53198-0.42585
   0 -12   3   16.00   21.37 165-0.43700 0.59571-0.28330-0.56244 0.52908-0.20742
  -2   7   8   -6.18   17.74 165-0.43502 0.62529-0.27865 0.77117 0.53227 0.21152
  -2  -8  -1   30.15   14.01 165-0.43668 0.15756-0.28255-0.27948 0.52960-0.74828
  -3 -13   1   -6.05   19.11 165-0.43685 0.14919-0.28296-0.63100 0.52932-0.59059
  -4   9   7   -0.91   19.81 165-0.43664 0.34709-0.28248 0.91517 0.52965-0.00560
  -5 -11   0    6.26   19.01 164-0.43471-0.13334-0.27794-0.49570 0.53276-0.81348
  -6  -5  -1    7.07   15.94 164-0.43488-0.29967-0.27829-0.07263 0.53251-0.97612
  -7   9   5    7.90   21.69 166-0.43727-0.09707-0.28394 0.91596 0.52865-0.38699
  -8  -1   0   -2.98   20.81 165-0.43810-0.47181-0.28592 0.21668 0.52728-0.97629
   1   2   5   14.94   13.67 166-0.44075 0.81562-0.29199 0.43187 0.52303 0.06769
   1 -10   3    4.69   18.91 166-0.44083 0.71247-0.29218-0.41158 0.52290-0.14524
   0   3   8   -1.32   19.54 166-0.43933 0.85846-0.28861 0.49931 0.52538 0.33085
   0   2   1 2983.37   37.96 166-0.43896 0.49112-0.28775 0.42906 0.52598-0.41900
  -1   6   5   38.70   15.20 166-0.43947 0.58691-0.28896 0.71119 0.52514-0.04697
  -1   6   6   33.05   14.19 166-0.43905 0.63920-0.28799 0.71005 0.52582 0.05957
  -1 -10   0   13.79   14.08 166-0.43990 0.32697-0.28997-0.41351 0.52444-0.58020
  -2   0  -1    4.91   12.91 166-0.43945 0.15973-0.28892 0.28920 0.52517-0.74413
  -2 -11   0    9.39   16.77 166-0.43955 0.21312-0.28915-0.48245 0.52501-0.63597
  -3   8   5   63.84   14.47 166-0.43841 0.35781-0.28645 0.84941 0.52688-0.16119
  -3   8   8  -11.96   18.08 166-0.43841 0.51509-0.28647 0.84955 0.52687 0.16078
  -3   7   3    2.00   11.16 166-0.43857 0.25368-0.28683 0.77928 0.52662-0.37438
  -5  -8  -1   11.66   16.49 165-0.43894-0.18023-0.28773-0.27291 0.52600-0.91203
  -6   9   5   -6.48   20.07 166-0.43962 0.01774-0.28933 0.92251 0.52489-0.32726
  -6  -2  -1   13.90   16.64 166-0.44074-0.29386-0.29198 0.15225 0.52304-0.96665
  -6  -6  -1   10.21   19.97 166-0.43985-0.29640-0.28987-0.13220 0.52451-0.96975
   1   2   4  944.21   18.81 167-0.44149 0.76442-0.29372 0.43439 0.52182-0.03799
  -1  -7  -1 1197.46   18.76 167-0.44162 0.27719-0.29403-0.19803 0.52160-0.68333
  -2   7   7   22.99   17.02 168-0.44360 0.58125-0.29878 0.78913 0.51827 0.11654
  -3   8   7   53.99   18.52 168-0.44392 0.46824-0.29955 0.86154 0.51773 0.06223
  -3  -9  -1   14.85   15.37 166-0.44182 0.04896-0.29454-0.33746 0.52125-0.79529
  -4   8   4   25.37   14.85 167-0.44172 0.19531-0.29427 0.85750 0.52143-0.31851
  -4  -9  -1  123.28   17.02 167-0.44296-0.06289-0.29724-0.33500 0.51935-0.85019
  -5   5   1   31.91   21.85 169-0.44734-0.06920-0.30780 0.66015 0.51187-0.68591
  -8   5   2    8.00   32.98 171-0.45350-0.35288-0.32289 0.67609 0.50096-0.73718
   1  -2   8   -1.01   21.68 169-0.44786 0.97992-0.30927 0.16780 0.51094 0.40040
   1  -8   1  479.72   19.14 168-0.44675 0.61386-0.30658-0.25610 0.51286-0.34914
   0   4   6   99.24   13.00 168-0.44486 0.75946-0.30199 0.58320 0.51612 0.12555
  -1   5   8    1.72   17.77 168-0.44445 0.74909-0.30102 0.65329 0.51681 0.28339
  -1 -12   1   13.59   17.39 168-0.44572 0.38529-0.30408-0.53994 0.51464-0.46316
  -1 -13   2   12.13   18.98 168-0.44434 0.43656-0.30075-0.61440 0.51700-0.35859
  -2   7   5   60.07   14.88 168-0.44411 0.47742-0.30020 0.79227 0.51739-0.09512
  -2   7   6  -12.69   14.76 168-0.44585 0.53187-0.30439 0.79751 0.51442 0.01559
  -2   6   9   12.90   18.77 167-0.44446 0.68843-0.30105 0.72355 0.51679 0.33434
  -3   8   6   34.06   16.41 168-0.44422 0.41626-0.30045 0.86264 0.51721-0.04416
  -3   6   2    0.04   11.78 168-0.44452 0.20717-0.30120 0.72439 0.51669-0.47116
  -4 -12   0   27.89   19.26 168-0.44626-0.00825-0.30540-0.53911 0.51371-0.73808
  -5   9   6   -3.44   19.37 168-0.44605 0.19001-0.30486 0.94015 0.51408-0.15253
  -5   0  -1   -1.42   17.94 169-0.44880-0.17496-0.31158 0.31273 0.50929-0.89966
  -6  -7  -1   11.68   19.56 168-0.44511-0.28990-0.30260-0.18937 0.51569-0.95981
  -7   8   4   -0.73   22.46 169-0.44835-0.13859-0.31044 0.87323 0.51010-0.47554
   1   0   7   -0.18   16.82 169-0.44904 0.93038-0.31236 0.31312 0.50878 0.29797
   0   4   4  256.09   13.03 169-0.44794 0.65782-0.30967 0.59028 0.51071-0.08281
   0   3   2 7497.49   46.87 169-0.44689 0.55135-0.30711 0.51824 0.51254-0.29817
   0   1   9    5.62   21.40 169-0.44935 0.92197-0.31310 0.38296 0.50824 0.45669
  -1   4   9    1.80   17.09 169-0.44754 0.80483-0.30870 0.59096 0.51140 0.39617
  -2  -9  -1   26.15   14.85 169-0.44842 0.16933-0.31082-0.32196 0.50988-0.72883
  -2 -13   1   11.05   19.07 169-0.44754 0.27358-0.30870-0.60660 0.51140-0.51647
  -3 -12   0    3.96   17.47 168-0.44769 0.10811-0.30903-0.53294 0.51116-0.67850
  -4   5   1    1.75   16.67 169-0.44841 0.04474-0.31079 0.66409 0.50990-0.62850
  -5  -9  -1   13.24   19.58 168-0.44821-0.17060-0.31031-0.32042 0.51025-0.89582
  -7   7   3    8.54   20.95 170-0.45081-0.18812-0.31668 0.80906 0.50566-0.57788
   1   1   6  854.88   23.54 170-0.45161 0.87860-0.31858 0.38773 0.50438 0.19262
   0   4   5   13.48   12.99 170-0.45018 0.71175-0.31509 0.59613 0.50691 0.02805
   0  -9   0   -3.18   11.55 170-0.45050 0.45119-0.31586-0.31617 0.50635-0.50571
  -1   5   3  524.16   15.75 170-0.45094 0.49358-0.31695 0.66861 0.50556-0.24164
  -1  -8  -1  600.98   17.26 170-0.45179 0.28723-0.31905-0.24285 0.50404-0.66651
  -2   6   3  370.79   14.13 170-0.45098 0.37975-0.31705 0.73919 0.50549-0.29786
  -5   9   7   20.77   21.38 170-0.45089 0.24812-0.31683 0.95099 0.50565-0.03776
  -5   8   4   12.49   17.97 170-0.45224 0.09234-0.32012 0.88265 0.50326-0.35645
  -6  -8  -1    8.25   20.65 171-0.45284-0.28269-0.32165-0.24127 0.50215-0.94770
   1  -3   8   -1.42   20.99 172-0.45599 0.98829-0.32999 0.11814 0.49613 0.41621
   0 -11   1   -8.49   16.61 171-0.45425 0.50773-0.32566-0.44798 0.49932-0.39208
   0 -12   2   -1.27   17.11 171-0.45288 0.55865-0.32226-0.52176 0.50181-0.28763
  -1  -1  -1  306.95   18.25 171-0.45371 0.28848-0.32433 0.25348 0.50029-0.66301
  -3 -10  -1   -2.78   16.45 170-0.45288 0.06144-0.32226-0.37792 0.50181-0.77507
  -4   7   3   19.08   15.45 172-0.45547 0.15696-0.32869 0.82114 0.49709-0.40096
  -4 -10  -1    2.10   17.04 170-0.45292-0.05191-0.32237-0.37798 0.50172-0.83114
  -6   9   6   -2.03   21.25 171-0.45410 0.08478-0.32531 0.95862 0.49958-0.19495
  -6   8   4    6.30   18.35 171-0.45401-0.01983-0.32507 0.88867 0.49975-0.40912
  -6  -1  -1   56.58   18.54 171-0.45390-0.28062-0.32480 0.25502 0.49995-0.94427
  -7   9   6   -0.28   22.30 172-0.45599-0.02675-0.32999 0.96282 0.49613-0.24756
  -8   0   0  -12.73   23.74 173-0.45906-0.45180-0.33768 0.33905 0.49041-0.94093
   1  -4   8    1.60   23.77 174-0.46183 0.99389-0.34518 0.06336 0.48496 0.42668
   1 -10   2   47.99   16.73 172-0.45778 0.67819-0.33496-0.36820 0.49263-0.22094
   0   3   7  -15.53   14.30 172-0.45537 0.82140-0.32894 0.54046 0.49710 0.25232
   0   2   8   -1.58   18.46 172-0.45691 0.87508-0.33279 0.47400 0.49425 0.36147
  -1   5   7  -13.10   14.88 172-0.45572 0.70831-0.32981 0.68242 0.49645 0.19721
  -1 -11   0   25.63   15.42 171-0.45535 0.34261-0.32888-0.44532 0.49714-0.55292
  -2   6   8    0.38   16.49 172-0.45701 0.64803-0.33302 0.75595 0.49407 0.25047
  -2 -12   0    4.35   17.03 171-0.45551 0.22899-0.32929-0.51419 0.49684-0.60815
  -4   8   5   96.22   18.27 172-0.45659 0.26196-0.33197 0.89463 0.49485-0.18596
  -6   6   2   30.44   21.26 173-0.46035-0.11716-0.34143 0.76404 0.48779-0.61069
  -7  -4  -1  -14.04   18.83 172-0.45729-0.39045-0.33372 0.05489 0.49355-0.99251
  -7  -5  -1    7.60   20.12 172-0.45751-0.39116-0.33429-0.01658 0.49313-0.99386
   1 -11   4    4.51   20.77 175-0.46291 0.78858-0.34797-0.42728 0.48285 0.00260
   0 -13   3    3.03   24.62 174-0.46091 0.61918-0.34289-0.57177 0.48669-0.16503
  -2 -10  -1    5.54   15.36 173-0.45917 0.18052-0.33847-0.36340 0.49001-0.70812
  -3   7   4   27.50   12.42 173-0.45889 0.32767-0.33778 0.83097 0.49053-0.23005
  -4   8   8    9.18   18.50 172-0.45852 0.42217-0.33684 0.90258 0.49123 0.14236
  -5 -10  -1  -10.08   17.93 173-0.45858-0.16162-0.33701-0.36486 0.49111-0.87848
  -6   9   7    9.69   20.40 173-0.45955 0.14227-0.33943 0.97525 0.48929-0.07661
  -7  -6  -1    9.44   20.87 173-0.45871-0.38907-0.33734-0.08360 0.49086-0.99039
   1   1   3  640.90   19.75 174-0.46246 0.73313-0.34696 0.41668 0.48369-0.10680
   1   1   5  317.61   17.22 174-0.46256 0.83794-0.34721 0.41601 0.48350 0.10694
   1  -5   0  878.88   20.32 174-0.46107 0.57635-0.34340-0.00817 0.48638-0.42887
   1  -9   1  647.39   20.32 174-0.46237 0.62973-0.34672-0.28550 0.48387-0.32017
   0   0   9    4.63   21.62 175-0.46365 0.93486-0.35001 0.34924 0.48137 0.48208
   0  -4  -1  465.54   16.26 174-0.46173 0.41118-0.34506 0.06391 0.48512-0.59051
   0  -5  -1  217.74   13.42 173-0.46037 0.40921-0.34162-0.00999 0.48772-0.59418
   0  -6  -1 1114.33   20.06 174-0.46271 0.41198-0.34758-0.07371 0.48322-0.58921
  -1  -9  -1  627.71   17.11 174-0.46140 0.29665-0.34425-0.28780 0.48574-0.64804
  -2   5   2    2.38   13.97 174-0.46221 0.33897-0.34628 0.69809 0.48420-0.38279
  -2   4   1  244.87   16.15 174-0.46252 0.28712-0.34707 0.62845 0.48360-0.48885
  -3   7   8   -2.74   19.26 174-0.46230 0.53877-0.34652 0.83831 0.48402 0.20302
  -4   8   6   10.33   17.29 175-0.46368 0.32164-0.35008 0.91128 0.48132-0.06456
  -4   6   2   26.64   16.02 174-0.46188 0.11136-0.34547 0.76698 0.48482-0.49608
  -5   7   3   81.71   17.78 175-0.46382 0.05251-0.35040 0.84325 0.48107-0.44051
  -6   7   3   13.26   18.13 174-0.46313-0.06310-0.34866 0.84154 0.48240-0.49882
  -7  -3  -1   27.77   19.15 174-0.46211-0.38684-0.34607 0.13591 0.48437-0.98476
   1  -1   7   13.99   18.74 175-0.46524 0.94404-0.35436 0.28290 0.47817 0.32553
   1  -4   0  324.33   17.40 175-0.46436 0.57940-0.35211 0.07132 0.47990-0.42272
   1  -6   0   23.22   13.27 175-0.46429 0.57949-0.35193-0.07076 0.48003-0.42276
   1 -11   3   18.39   20.34 175-0.46492 0.73592-0.35357-0.41913 0.47878-0.10150
   0 -10   0  560.88   17.31 175-0.46401 0.46482-0.35122-0.35129 0.48058-0.48013
  -1   5   4  401.91   14.71 175-0.46358 0.55891-0.35009 0.70103 0.48144-0.10973
  -1   5   6  191.72   15.07 175-0.46370 0.66391-0.35041 0.70110 0.48120 0.10380
  -1   4   2  269.52   14.49 175-0.46372 0.45449-0.35049 0.63187 0.48114-0.32327
  -1   4   8   30.28   17.18 175-0.46419 0.76940-0.35169 0.63268 0.48022 0.32026
  -1   3   9   12.31   17.84 175-0.46483 0.82306-0.35334 0.56396 0.47896 0.42931
  -1 -13   1  -14.78   17.05 175-0.46360 0.40346-0.35016-0.56393 0.48139-0.43006
  -2   5   9    4.94   21.34 175-0.46433 0.70798-0.35203 0.70345 0.47996 0.37133
  -3  -5  -2  893.80   17.64 175-0.46409 0.01942-0.35141 0.00066 0.48043-0.86202
  -3 -11  -1   92.44   17.58 175-0.46516 0.07206-0.35417-0.41875 0.47832-0.75369
  -4   8   7   12.29   15.73 174-0.46326 0.37433-0.34929 0.91223 0.48205 0.04236
  -4   1  -1   88.55   19.23 176-0.46726-0.03918-0.35958 0.42987 0.47415-0.80567
  -4 -11  -1    0.28   18.36 175-0.46438-0.04138-0.35217-0.41979 0.47985-0.81056
   1   1   4  444.37   16.66 176-0.46759 0.79019-0.36008 0.42978 0.47369 0.00986
   0   3   6  627.13   19.99 176-0.46784 0.78109-0.36073 0.57046 0.47319 0.16756
   0  -7  -1  129.78   13.46 176-0.46771 0.41703-0.36041-0.13137 0.47344-0.57902
  -1   5   5   34.65   12.25 176-0.46665 0.61418-0.35766 0.70897 0.47557 0.00221
  -1   3   1   -6.33   10.76 176-0.46640 0.40468-0.35699 0.56866 0.47608-0.42512
  -2   6   4   57.77   11.79 176-0.46668 0.44777-0.35773 0.77951 0.47551-0.16067
  -2   6   7    0.78   14.97 176-0.46646 0.60474-0.35716 0.77949 0.47595 0.16120
  -3  -4  -2  349.97   14.36 175-0.46628 0.02183-0.35668 0.07620 0.47632-0.85828
  -3  -6  -2   66.69   13.02 175-0.46590 0.02091-0.35570-0.06493 0.47707-0.85939
  -4  -5  -2   72.31   16.32 176-0.46719-0.09170-0.35905 0.00758 0.47449-0.91301
  -4  -6  -2   86.38   16.78 176-0.46792-0.08984-0.36093-0.06043 0.47303-0.91063
  -5   6   2  111.71   17.28 176-0.46818 0.00334-0.36164 0.78424 0.47249-0.53952
   1   0   6   23.18   15.85 178-0.47073 0.89618-0.36838 0.36695 0.46729 0.22905
   1  -7   0  188.42   14.69 177-0.47060 0.58631-0.36807-0.12437 0.46754-0.40945
   0   3   3   29.21   11.64 177-0.46940 0.62608-0.36491 0.57569 0.47001-0.14939
   0 -12   1    3.09   17.80 177-0.47065 0.52384-0.36818-0.47449 0.46745-0.35924
  -1 -12   0   19.29   19.09 177-0.47002 0.35750-0.36653-0.47781 0.46874-0.52385
  -2  -5  -2  568.93   15.41 177-0.46943 0.13900-0.36499 0.01315 0.46994-0.79495
  -2  -6  -2  314.45   15.13 177-0.47041 0.13979-0.36755-0.05455 0.46794-0.79321
  -2 -13   0   32.38   21.39 177-0.47057 0.24463-0.36796-0.54539 0.46762-0.57864
  -3   7   5  105.74   14.23 177-0.46904 0.38777-0.36396 0.85633 0.47075-0.10543
  -3   7   7   12.60   15.63 176-0.46871 0.49337-0.36312 0.85512 0.47140 0.10899
  -3   3   0  238.27   28.67 181-0.47992 0.13872-0.39294 0.60440 0.44766-0.61591
  -3   1  -1  339.43   23.44 177-0.47184 0.07838-0.37133 0.44166 0.46497-0.74080
  -3  -7  -2  155.72   14.26 176-0.46914 0.02513-0.36425-0.12771 0.47052-0.85193
  -4  -4  -2  204.00   14.03 176-0.46902-0.08904-0.36392 0.08271 0.47078-0.90902
  -5   8   5   11.03   15.89 177-0.46911 0.16151-0.36416 0.92647 0.47059-0.21682
  -7  -2  -1    7.27   17.84 177-0.47110-0.37753-0.36935 0.22999 0.46653-0.96723
   0   1   8   -4.65   17.96 178-0.47295 0.89191-0.37467 0.44516 0.46261 0.39498
   0  -3  -1 1949.11   28.27 177-0.47126 0.42053-0.37021 0.15809 0.46613-0.57213
   0 -13   2    1.53   19.41 177-0.47155 0.57658-0.37102-0.54019 0.46550-0.25075
  -1 -10  -1    7.90   13.65 177-0.47156 0.30622-0.37102-0.33158 0.46549-0.62737
  -2   6   5  203.29   14.23 178-0.47229 0.50582-0.37292 0.79510 0.46399-0.04133
  -2   6   6   46.80   14.48 178-0.47173 0.55769-0.37147 0.79311 0.46514 0.06389
  -2  -4  -2  482.00   14.60 178-0.47188 0.14068-0.37185 0.09051 0.46484-0.79044
  -2 -11  -1    3.62   15.76 178-0.47129 0.19263-0.37033-0.40320 0.46604-0.68511
  -3   7   6    0.02   13.53 178-0.47136 0.44340-0.37050 0.86257 0.46590 0.00777
  -3   6   9   -4.43   18.80 178-0.47278 0.60189-0.37421 0.79582 0.46297 0.33200
  -3  -3  -2  857.83   17.62 178-0.47171 0.02663-0.37139 0.16032 0.46520-0.84720
  -4  -7  -2   -1.62   13.37 177-0.47092-0.08814-0.36930-0.12215 0.46684-0.90497
   1 -11   2   12.72   20.32 179-0.47632 0.69535-0.38370-0.38990 0.45541-0.18410
   0   3   5  223.91   13.85 179-0.47450 0.73618-0.37883 0.58923 0.45931 0.07469
   0   2   7    8.42   13.89 178-0.47423 0.84148-0.37814 0.51825 0.45987 0.29013
   0  -1   9   -8.96   22.47 179-0.47566 0.94741-0.38193 0.31024 0.45684 0.50717
   0  -8  -1 1017.60   18.23 179-0.47445 0.42362-0.37869-0.18316 0.45942-0.56508
  -2  -7  -2   11.22   12.26 178-0.47352 0.14187-0.37625-0.11575 0.46137-0.78725
  -3  -8  -2  118.53   14.51 178-0.47410 0.02945-0.37777-0.18433 0.46016-0.84181
  -4   7   9  -15.04   18.72 179-0.47411 0.48945-0.37784 0.86974 0.46011 0.27858
  -4  -3  -2  966.10   21.21 179-0.47445-0.08426-0.37872 0.16817 0.45940-0.89763
  -4  -8  -2   24.67   16.00 179-0.47546-0.08351-0.38140-0.18050 0.45726-0.89513
  -5   8   8   -8.36   18.04 179-0.47540 0.32452-0.38125 0.94409 0.45739 0.11804
  -5  -5  -2  221.72   19.60 179-0.47583-0.19712-0.38238 0.03179 0.45648-0.95088
  -5  -6  -2    5.18   17.91 179-0.47512-0.19603-0.38050-0.03955 0.45799-0.95022
  -6   8   5   40.43   17.93 179-0.47463 0.05249-0.37920 0.94296 0.45902-0.26127
  -6   0  -1   -0.37   18.94 179-0.47603-0.25937-0.38295 0.38390 0.45602-0.90011
  -7   8   5    4.69   19.04 179-0.47579-0.05794-0.38230 0.94290 0.45654-0.31522
  -8   7   4   -5.50   22.44 180-0.47692-0.22648-0.38533 0.87990 0.45411-0.47631
   2  -6   3   13.25   34.33 183-0.48638 0.87065-0.41120-0.01122 0.43277 0.00078
   1  -1   1  277.08   28.08 182-0.48164 0.64857-0.39807 0.32795 0.44368-0.27936
   1  -2   7   -2.37   17.71 180-0.47783 0.95783-0.38775 0.24714 0.45209 0.35340
   1  -8   0  300.49   15.93 180-0.47853 0.59296-0.38965-0.17243 0.45056-0.39403
   1 -10   1    6.39   15.28 180-0.47756 0.64513-0.38703-0.31772 0.45268-0.28844
   0   3   4  196.97   12.40 180-0.47656 0.68576-0.38433 0.59426 0.45485-0.02725
   0 -11   0   -4.18   16.20 180-0.47778 0.47911-0.38764-0.38665 0.45219-0.45141
  -1   4   7   18.05   15.24 180-0.47781 0.72983-0.38768 0.66783 0.45215 0.24014
  -2   5   8   13.97   15.79 181-0.47883 0.66900-0.39046 0.74017 0.44990 0.29187
  -3   6   3   11.74   11.69 180-0.47715 0.29351-0.38594 0.80798 0.45356-0.30093
  -3 -12  -1    5.67   18.18 180-0.47665 0.08425-0.38458-0.45886 0.45465-0.72943
  -4   7   4   -1.26   12.27 180-0.47690 0.23028-0.38526 0.87890 0.45410-0.25082
  -5   8   6   14.66   16.03 180-0.47674 0.22131-0.38483 0.94690 0.45445-0.09379
  -5   8   7   -4.15   17.46 180-0.47795 0.27466-0.38809 0.95148 0.45182 0.01655
  -5  -4  -2  115.35   18.24 180-0.47832-0.19362-0.38908 0.10950 0.45102-0.94492
  -5  -7  -2   41.31   19.23 180-0.47812-0.19438-0.38854-0.10257 0.45146-0.94564
  -7   2   0    6.75   28.36 183-0.48445-0.31161-0.40583 0.54757 0.43726-0.83031
  -8   6   3    5.72   23.55 180-0.47850-0.27744-0.38957 0.81491 0.45063-0.58060
   1   0   2 3618.36   44.06 181-0.47997 0.69831-0.39339 0.39333 0.44749-0.17710
   1  -3   0  881.78   26.61 181-0.48080 0.59619-0.39565 0.18474 0.44564-0.38773
  -2  -3  -2  349.76   14.49 180-0.47920 0.14865-0.39129 0.18095 0.44920-0.77455
  -2  -8  -2   -2.16   13.44 181-0.47884 0.14730-0.39032-0.17179 0.44999-0.77668
  -3  -9  -2   36.26   16.16 181-0.48019 0.03520-0.39399-0.23829 0.44700-0.82861
   1   0   5    2.58   14.25 182-0.48304 0.86029-0.40159 0.40098 0.44069 0.15249
   0  -9  -1   27.28   14.38 182-0.48248 0.43162-0.40002-0.23342 0.44198-0.54738
  -1   3   8    2.60   16.67 183-0.48415 0.78710-0.40463 0.61317 0.43817 0.35855
  -1   2   9    5.06   17.63 182-0.48164 0.83840-0.39772 0.53830 0.44387 0.46347
  -1 -11  -1   62.01   15.52 182-0.48238 0.31747-0.39977-0.37254 0.44219-0.60409
  -2   4   9   29.45   18.80 182-0.48352 0.72616-0.40286 0.68241 0.43963 0.40963
  -2 -12  -1  217.61   16.52 182-0.48220 0.20194-0.39926-0.44403 0.44261-0.66163
  -3  -2  -2 1037.49   21.20 182-0.48317 0.03819-0.40192 0.26184 0.44042-0.82208
  -4   7   8  -11.58   17.94 182-0.48295 0.44591-0.40131 0.89351 0.44092 0.19067
  -4  -9  -2   73.91   14.96 181-0.48157-0.07802-0.39753-0.23463 0.44403-0.88277
  -5   1  -1  229.21   24.67 183-0.48553-0.13523-0.40845 0.48012 0.43498-0.82230
  -5  -8  -2    0.13   16.95 182-0.48188-0.19092-0.39840-0.16235 0.44332-0.93742
   1  -1   6  773.08   26.24 184-0.48747 0.91431-0.41362 0.34145 0.43057 0.26611
  -1  -5  -2  888.29   17.77 182-0.48416 0.26666-0.40437 0.05350 0.43830-0.70788
  -1  -6  -2  479.64   14.89 182-0.48365 0.26631-0.40298-0.01846 0.43946-0.70925
  -1  -7  -2   11.24   13.16 183-0.48534 0.26760-0.40766-0.08431 0.43556-0.70521
  -1 -13   0   14.27   18.13 182-0.48392 0.37132-0.40373-0.51048 0.43883-0.49350
  -2  -9  -2  143.83   13.92 183-0.48442 0.15240-0.40513-0.22612 0.43767-0.76371
  -3   6   8   11.98   15.88 183-0.48423 0.56121-0.40456 0.82569 0.43814 0.24904
  -4  -2  -2   20.16   16.45 183-0.48547-0.07399-0.40803 0.26828 0.43526-0.87381
  -5  -3  -2   27.76   16.50 183-0.48477-0.18834-0.40608 0.19612 0.43688-0.93145
  -6   8   6    6.68   19.60 183-0.48490 0.11584-0.40641 0.96931 0.43660-0.13214
  -7  -1  -1    9.75   19.85 184-0.48686-0.36288-0.41189 0.34308 0.43202-0.93357
   1  -3   7   13.73   19.20 185-0.49078 0.96947-0.42249 0.21087 0.42288 0.38095
   1  -9   0    8.48   14.19 184-0.48780 0.60230-0.41405-0.21925 0.43005-0.37283
   1 -12   3    8.36   23.04 186-0.49048 0.76486-0.42162-0.42673 0.42362-0.04394
   0   0   8  -19.38   18.61 184-0.48821 0.90734-0.41519 0.41525 0.42908 0.42865
   0 -13   1  -13.19   22.17 184-0.48789 0.54173-0.41430-0.50129 0.42983-0.32174
  -1   4   3  298.17   14.27 183-0.48632 0.52965-0.40991 0.69047 0.43352-0.16824
  -1   4   6   66.05   14.45 184-0.48724 0.68767-0.41247 0.69300 0.43137 0.15449
  -2   5   3   99.63   14.11 184-0.48791 0.41737-0.41437 0.76598 0.42977-0.22061
  -3 -10  -2  100.72   15.92 184-0.48743 0.04149-0.41302-0.28939 0.43091-0.81308
  -4   7   5   31.95   15.63 184-0.48760 0.29352-0.41349 0.90615 0.43051-0.12058
  -4 -10  -2    7.29   17.24 184-0.48766-0.06996-0.41364-0.28762 0.43039-0.86675
  -5   7   4   -2.19   16.36 184-0.48824 0.12739-0.41530 0.90984 0.42899-0.28203
  -5  -9  -2    4.64   18.88 184-0.48729-0.18525-0.41263-0.21965 0.43124-0.92562
  -6   8   7   17.19   19.34 184-0.48780 0.17104-0.41404 0.97808 0.43005-0.01818
  -6   8   8   -2.12   20.80 184-0.48682 0.22215-0.41130 0.97429 0.43236 0.08654
  -7   8   6   -5.98   20.26 184-0.48797 0.00455-0.41452 0.97777 0.42965-0.18125
   2  -7   3  175.54   30.75 187-0.49587 0.87997-0.43736-0.05566 0.41010 0.02327
   0   2   2 6293.60   46.96 185-0.48896 0.59357-0.41752 0.55814 0.42719-0.21285
   0   2   6    6.34   13.07 185-0.48911 0.80235-0.41796 0.55732 0.42682 0.21491
   0 -12   0  337.28   22.32 185-0.49072 0.49140-0.42250-0.42105 0.42295-0.42294
  -1  -4  -2  129.87   12.46 184-0.48872 0.27139-0.41682 0.13585 0.42778-0.69740
  -1  -8  -2  579.88   15.54 185-0.48924 0.27204-0.41831-0.14317 0.42652-0.69587
  -2   5   7    7.43   14.38 184-0.48898 0.62754-0.41755 0.76859 0.42716 0.20946
  -4   7   6   14.04   14.69 185-0.48980 0.34845-0.41989 0.91420 0.42517-0.00720
  -4   7   7    1.19   16.34 185-0.48888 0.39936-0.41729 0.90892 0.42738 0.09686
  -6  -5  -2   11.54   20.08 185-0.49023-0.29739-0.42112 0.07007 0.42413-0.97599
  -6  -6  -2   15.00   18.20 184-0.48892-0.29757-0.41743-0.00361 0.42727-0.97819
  -6  -7  -2   -5.63   22.54 185-0.49013-0.29767-0.42083-0.06999 0.42437-0.97590
  -7   7   4   19.98   18.88 185-0.49085-0.09648-0.42290 0.91582 0.42261-0.38813
  -8   1   0   -6.71   26.41 187-0.49371-0.41707-0.43112 0.50350 0.41554-0.86470
   1   0   4 1622.83   26.11 186-0.49311 0.81605-0.42953 0.42869 0.41694 0.06629
   1 -11   1   56.60   17.50 185-0.49149 0.65913-0.42483-0.34888 0.42098-0.25638
   0   1   7   72.12   18.56 187-0.49318 0.85816-0.42974 0.49902 0.41676 0.33163
   0 -10  -1  678.15   17.69 185-0.49129 0.44046-0.42430-0.27784 0.42144-0.52767
  -1   4   5  321.21   15.95 186-0.49296 0.64024-0.42908 0.70910 0.41732 0.06047
  -2  -2  -2  103.79   14.35 186-0.49261 0.16192-0.42808 0.28832 0.41819-0.74338
  -2 -10  -2   26.88   15.20 185-0.49134 0.16019-0.42445-0.27849 0.42131-0.74678
  -3   6   4    2.42   14.21 186-0.49240 0.36000-0.42747 0.84911 0.41872-0.15935
  -3   6   7   20.13   14.13 186-0.49195 0.51692-0.42617 0.84813 0.41983 0.16088
  -3   5   2  268.06   15.77 186-0.49237 0.25629-0.42738 0.77927 0.41879-0.37271
  -3   5   9   24.86   17.07 185-0.49165 0.62191-0.42534 0.77707 0.42055 0.37499
  -6   7   4    5.21   16.72 186-0.49220 0.01747-0.42691 0.92231 0.41920-0.32859
  -6  -4  -2   40.25   19.20 186-0.49301-0.29267-0.42923 0.14924 0.41720-0.96707
  -7   8   7   -6.18   22.88 186-0.49271 0.06144-0.42834 0.99253 0.41796-0.06163
   1   0   3   -3.78   13.36 187-0.49492 0.76543-0.43477 0.43520 0.41252-0.03490
   1 -12   2    4.81   18.60 188-0.49583 0.71689-0.43741-0.41087 0.41021-0.13770
   0  -2  -1 3136.38   39.09 186-0.49321 0.44252-0.42979 0.28905 0.41684-0.52262
  -1   4   4   92.45   12.89 187-0.49339 0.58824-0.43032 0.71097 0.41638-0.04502
  -1  -9  -2  160.25   13.90 187-0.49421 0.27761-0.43266-0.19882 0.41435-0.68297
  -1 -12  -1   -3.49   16.37 187-0.49349 0.32883-0.43061-0.41332 0.41613-0.57852
  -2 -13  -1    0.32   18.83 187-0.49372 0.21542-0.43127-0.48287 0.41556-0.63391
  -3 -11  -2   35.54   17.97 187-0.49468 0.05020-0.43406-0.33882 0.41314-0.79422
  -4   6   9    4.74   17.82 186-0.49372 0.51031-0.43127 0.85445 0.41556 0.32413
  -5  -2  -2    6.87   15.14 187-0.49504-0.17657-0.43509 0.29540 0.41224-0.90555
   2  -6   2  256.04   25.46 190-0.50104 0.83347-0.45333 0.03103 0.39625-0.06952
   1 -10   0    2.00   16.11 188-0.49680 0.61115-0.44071-0.26228 0.40747-0.35024
  -1   3   7   -8.02   16.95 188-0.49709 0.74957-0.44156 0.65271 0.40672 0.28767
  -1   1   9    7.42   21.09 188-0.49639 0.85356-0.43949 0.50845 0.40854 0.49902
  -2   5   6  178.51   14.89 188-0.49594 0.58224-0.43819 0.78891 0.40968 0.11983
  -3   6   5   63.91   15.53 188-0.49730 0.41795-0.44218 0.86362 0.40618-0.03879
  -3   6   6   45.51   14.18 188-0.49661 0.46925-0.44014 0.86179 0.40797 0.06623
  -4   6   3  138.19   13.22 188-0.49573 0.19763-0.43758 0.86007 0.41021-0.31330
   2  -7   2    3.79   20.56 190-0.50129 0.83380-0.45411-0.03910 0.39553-0.06840
   1  -4   7    8.75   21.00 190-0.50065 0.97936-0.45217 0.16977 0.39727 0.40719
   0   2   5   17.53   11.82 189-0.49834 0.75989-0.44531 0.58536 0.40339 0.13200
  -1  -3  -2  468.87   15.72 188-0.49795 0.28089-0.44415 0.23335 0.40441-0.67381
  -2   5   4  306.51   14.45 188-0.49762 0.47905-0.44317 0.79414 0.40528-0.08921
  -2   5   5   11.89   13.54 189-0.49920 0.53289-0.44786 0.79883 0.40112 0.02137
  -2   4   8  -10.52   15.03 188-0.49747 0.68819-0.44270 0.72309 0.40569 0.33824
  -2   3   9    2.70   19.33 188-0.49860 0.74388-0.44605 0.65781 0.40273 0.45188
  -2 -11  -2   -3.15   16.61 189-0.49824 0.16758-0.44498-0.32726 0.40368-0.72835
  -5   7   5   -1.36   16.48 188-0.49802 0.18953-0.44433 0.94167 0.40425-0.14925
  -5   7   8    0.92   16.11 189-0.49807 0.34741-0.44449 0.93695 0.40411 0.17184
  -6  -3  -2    9.62   20.77 189-0.49970-0.28560-0.44933 0.23960 0.39981-0.94935
   1  -2   6   22.59   18.32 191-0.50361 0.92971-0.46115 0.31939 0.38912 0.30780
   0  -1   8   -0.51   19.11 190-0.50147 0.92051-0.45464 0.38432 0.39500 0.46305
   0 -11  -1   -4.01   14.49 190-0.49997 0.44903-0.45012-0.32342 0.39906-0.50534
  -1   2   8   10.22   15.87 190-0.50025 0.80452-0.45096 0.59029 0.39831 0.40166
  -1 -10  -2   63.22   15.33 189-0.50017 0.28333-0.45074-0.25216 0.39851-0.66743
  -3   4   1  314.98   17.45 190-0.50107 0.21194-0.45346 0.73558 0.39607-0.45715
  -7   6   3    0.21   18.78 190-0.50130-0.13905-0.45412 0.87830 0.39547-0.46802
   2  -8   3   69.78   26.23 192-0.50630 0.89054-0.46941-0.09360 0.38150 0.05221
   1  -1   5  278.93   20.96 192-0.50485 0.87912-0.46489 0.39400 0.38565 0.20464
   1  -6  -1   59.08   14.20 191-0.50336 0.56617-0.46033 0.03902 0.38981-0.43926
   1  -7  -1   -4.72   12.79 191-0.50330 0.56559-0.46014-0.03181 0.38998-0.44018
   1 -12   1   12.45   19.33 191-0.50328 0.66939-0.46006-0.38240 0.39005-0.22569
   0   2   3  995.89   20.04 191-0.50253 0.65914-0.45778 0.59834 0.39211-0.07119
   0   2   4   89.39   13.93 191-0.50395 0.71240-0.46212 0.60207 0.38817 0.03907
   0 -13   0  -10.78   17.45 191-0.50236 0.50371-0.45729-0.45684 0.39256-0.39144
  -1 -13  -1   10.48   19.44 191-0.50373 0.33914-0.46145-0.45466 0.38879-0.55124
  -3   5   8   10.25   16.27 191-0.50346 0.58074-0.46064 0.81215 0.38953 0.29857
  -3  -1  -2  444.58   18.51 191-0.50261 0.05808-0.45802 0.38814 0.39190-0.77369
  -3 -12  -2   -1.00   19.64 191-0.50231 0.05800-0.45713-0.38594 0.39270-0.77401
  -4   6   8   -6.54   18.35 191-0.50344 0.46644-0.46056 0.88316 0.38959 0.24326
  -4  -1  -2  299.29   19.44 191-0.50286-0.05547-0.45879 0.38901 0.39120-0.82930
  -5   7   6   15.19   15.32 191-0.50375 0.24881-0.46151 0.95277 0.38873-0.02802
  -5   7   7    2.63   16.08 191-0.50252 0.29971-0.45778 0.94998 0.39212 0.07619
  -7   5   2   15.21   23.46 193-0.50727-0.18445-0.47242 0.82461 0.37872-0.55767
  -8   7   5    3.45   20.85 191-0.50316-0.14537-0.45971 0.95294 0.39037-0.30452
   2  -8   2   -0.81   18.96 195-0.51047 0.84625-0.48248-0.08390 0.36923-0.04088
   1  -5   7   -4.39   23.81 193-0.50752 0.98807-0.47312 0.12146 0.37798 0.42803
   1  -8  -1  537.22   17.21 192-0.50570 0.56875-0.46746-0.09441 0.38321-0.43253
   0   1   1   27.63   15.88 192-0.50549 0.55741-0.46679 0.53720 0.38382-0.27713
   0  -6  -2  300.95   14.09 191-0.50405 0.40154-0.46238 0.04134 0.38786-0.60030
   0  -7  -2    9.97   11.08 191-0.50392 0.40003-0.46197-0.03053 0.38823-0.60198
  -5   6   3   44.52   15.28 192-0.50605 0.09382-0.46853 0.89064 0.38222-0.34220
   1  -5  -1    4.74   14.06 192-0.50706 0.56858-0.47124 0.11995 0.37952-0.42972
   1 -11   0    7.22   16.68 192-0.50641 0.62097-0.46920-0.30460 0.38140-0.32411
   0   1   6  152.82   15.44 194-0.50823 0.82133-0.47491 0.54442 0.37611 0.26563
   0  -5  -2 1229.26   20.32 193-0.50701 0.40409-0.47109 0.11947 0.37966-0.59202
   0  -8  -2  500.15   15.54 192-0.50614 0.40365-0.46837-0.09346 0.38217-0.59506
  -1   3   2  909.96   20.04 193-0.50679 0.49706-0.47043 0.68219 0.38027-0.22225
  -1 -11  -2   34.93   16.14 192-0.50666 0.28946-0.46999-0.30300 0.38067-0.64933
  -2   4   2    9.28   11.51 193-0.50661 0.38345-0.46982 0.75133 0.38083-0.27929
  -2 -12  -2   40.20   18.41 192-0.50617 0.17546-0.46846-0.37523 0.38209-0.70724
  -3  -7  -3   -0.07   13.70 193-0.50763 0.01035-0.47302-0.01755 0.37787-0.86659
  -6   7   5    2.84   15.18 192-0.50638 0.08510-0.46909 0.96234 0.38150-0.18344
  -6   6   3   28.12   17.87 194-0.50885-0.01655-0.47687 0.89920 0.37429-0.38993
  -7   7   5   -6.50   18.28 193-0.50770-0.02855-0.47323 0.96702 0.37767-0.23541
  -7   0  -1    0.10   23.95 194-0.50960-0.33943-0.47925 0.48152 0.37206-0.87140
   1  -9  -1    5.06   14.04 194-0.50984 0.57190-0.47982-0.15274 0.37136-0.42135
   1 -13   2   -4.97   21.14 194-0.50963 0.72915-0.47916-0.43526 0.37198-0.10134
   0   0   7   -0.34   14.60 194-0.50860 0.87455-0.47589 0.47612 0.37504 0.37460
   0  -9  -2  138.10   16.53 194-0.50929 0.40642-0.47804-0.15446 0.37303-0.58537
   0 -12  -1   -2.80   16.83 194-0.50890 0.45808-0.47684-0.36776 0.37415-0.48041
  -1   3   6  284.60   15.09 194-0.50853 0.70758-0.47564 0.68625 0.37527 0.20989
  -1   0  -1    4.35   13.65 194-0.51001 0.34391-0.48033 0.48067 0.37088-0.53415
  -1   0   9   -3.07   19.20 194-0.50956 0.86602-0.47895 0.47905 0.37218 0.53519
  -2   4   7    3.32   13.11 194-0.50870 0.64690-0.47621 0.75781 0.37474 0.26261
  -3   4   9  -12.57   15.03 194-0.50876 0.63791-0.47636 0.75792 0.37459 0.42088
  -3  -6  -3   15.43   13.81 193-0.50811 0.01078-0.47435 0.05313 0.37647-0.86532
  -3  -8  -3   -2.54   14.28 194-0.50876 0.01170-0.47636-0.08455 0.37459-0.86291
  -4   6   4  400.09   16.80 194-0.50989 0.26334-0.47995 0.90226 0.37124-0.16748
  -4  -7  -3   24.23   17.13 194-0.51003-0.10201-0.48042-0.01196 0.37080-0.91729
  -5   6   9  -11.59   18.18 194-0.50967 0.41117-0.47926 0.90175 0.37188 0.31133
  -6   7   8   -0.27   18.76 194-0.50880 0.24448-0.47652 0.96871 0.37445 0.14477
   2  -5   2  545.13   43.62 200-0.52079 0.85332-0.51628 0.16439 0.33597-0.00953
   1  -6   7   14.07   25.71 197-0.51497 0.99409-0.49658 0.07393 0.35533 0.44901
   1  -7   7   45.07   33.00 200-0.51945 0.99725-0.51164 0.01901 0.34059 0.46229
  -2  -6  -3   21.86   12.55 195-0.51079 0.12731-0.48293 0.06169 0.36835-0.80057
  -2  -7  -3  237.06   14.89 194-0.51038 0.12731-0.48166-0.00915 0.36956-0.80220
  -2  -8  -3   81.94   15.48 195-0.51123 0.12810-0.48436-0.07655 0.36701-0.79917
  -3  -5  -3  755.05   18.80 195-0.51057 0.01368-0.48220 0.13179 0.36904-0.85748
  -3  -9  -3   70.32   16.47 195-0.51134 0.01398-0.48470-0.14710 0.36668-0.85536
  -4   6   7   33.02   15.30 195-0.51059 0.42111-0.48231 0.90394 0.36895 0.15532
  -4   5   2  280.49   18.77 195-0.51131 0.16137-0.48463 0.83707 0.36675-0.37634
  -4   5   9   -0.42   19.60 195-0.51159 0.52687-0.48550 0.83783 0.36593 0.37415
  -4  -6  -3   13.14   14.89 195-0.51032-0.10101-0.48144 0.06029 0.36976-0.91538
  -4  -8  -3   29.22   17.34 194-0.51048-0.10022-0.48195-0.07971 0.36928-0.91379
  -5  -1  -2  853.52   26.34 195-0.51187-0.16051-0.48645 0.41725 0.36503-0.85886
  -6   7   6    6.13   17.36 195-0.51158 0.14265-0.48546 0.97810 0.36596-0.06075
  -6   7   7   -5.37   17.45 195-0.51155 0.19435-0.48539 0.97893 0.36603 0.04676
  -6   1  -1   55.53   24.44 196-0.51393-0.21958-0.49313 0.56419 0.35865-0.80202
  -6  -2  -2   -1.17   17.58 195-0.51135-0.27689-0.48476 0.34644 0.36663-0.91745
  -7  -4  -2    3.65   22.56 195-0.51099-0.38922-0.48361 0.20386 0.36772-0.97412
   2  -7   1  400.55   21.55 197-0.51474 0.79539-0.49579 0.00388 0.35615-0.13609
   2  -9   2   90.59   21.41 197-0.51502 0.84778-0.49672-0.13575 0.35525-0.02856
   0  -2   8   -5.44   19.52 196-0.51357 0.93245-0.49196 0.35150 0.35983 0.49779
  -1 -12  -2   29.82   17.50 196-0.51322 0.29656-0.49078-0.35098 0.36096-0.62869
  -3   5   3    6.07   13.18 196-0.51364 0.32897-0.49218 0.84380 0.35962-0.20711
  -3   5   7    4.44   13.17 195-0.51236 0.53709-0.48800 0.84024 0.36361 0.21739
  -4  -5  -3   43.72   13.96 196-0.51266-0.09752-0.48900 0.13765 0.36266-0.90729
  -4  -9  -3   31.90   19.38 196-0.51281-0.09771-0.48946-0.14276 0.36222-0.90659
  -8   7   6   -7.78   20.99 196-0.51357-0.08449-0.49196 0.98624 0.35983-0.16650
   2  -8   1   34.92   18.08 197-0.51635 0.79716-0.50127-0.06156 0.35085-0.13047
   2  -9   3  140.69   27.43 198-0.51717 0.90112-0.50406-0.12886 0.34813 0.08482
   1 -10  -1  101.47   17.03 197-0.51523 0.57875-0.49755-0.20508 0.35446-0.40348
   1 -12   0   19.02   17.52 197-0.51507 0.62902-0.49701-0.34523 0.35498-0.29782
   1 -13   1   -2.22   22.85 196-0.51433 0.67905-0.49457-0.41532 0.35734-0.19354
   0  -4  -2 2061.58   24.99 196-0.51422 0.41156-0.49423 0.21325 0.35766-0.57014
   0 -10  -2   84.52   14.16 196-0.51412 0.41175-0.49390-0.20874 0.35798-0.57107
  -1   2   7    2.33   17.01 197-0.51515 0.76624-0.49726 0.63775 0.35474 0.33758
  -1   1   8   99.17   20.59 198-0.51600 0.81811-0.50010 0.56894 0.35199 0.44496
  -1  -2  -2 5451.19   41.69 196-0.51410 0.29763-0.49383 0.35312 0.35805-0.62702
  -2   3   8   38.69   16.52 196-0.51423 0.70511-0.49425 0.70485 0.35764 0.38652
  -2   2   9   12.12   17.20 197-0.51435 0.75734-0.49465 0.63456 0.35726 0.49372
  -2  -1  -2  865.86   20.22 197-0.51433 0.18410-0.49457 0.42428 0.35734-0.68261
  -2  -5  -3    4.38   12.01 196-0.51401 0.13018-0.49353 0.14228 0.35834-0.79163
  -2  -9  -3  179.54   15.28 196-0.51388 0.13189-0.49309-0.13913 0.35876-0.79096
  -3 -10  -3   21.59   18.62 197-0.51497 0.01802-0.49671-0.20639 0.35528-0.84409
  -4   6   5   60.99   12.92 197-0.51446 0.32035-0.49499 0.91695 0.35693-0.04781
  -4   6   6    3.32   12.99 197-0.51423 0.37235-0.49426 0.91652 0.35764 0.06032
  -5  -7  -3  137.81   19.28 197-0.51515-0.20852-0.49729 0.00547 0.35471-0.95498
  -7   7   6   20.02   19.20 197-0.51530 0.03333-0.49780 0.98965 0.35422-0.10528
  -7   7   8    0.86   19.91 196-0.51440 0.13637-0.49483 0.98932 0.35709 0.10683
   2  -6   1  483.33   23.00 198-0.51787 0.79810-0.50694 0.08504 0.34551-0.12617
   1  -1   4  436.28   20.94 198-0.51774 0.84050-0.50649 0.43543 0.34595 0.13713
   1  -3   6   19.30   18.43 199-0.51752 0.94464-0.50577 0.29367 0.34666 0.35130
   1  -4  -1 8117.60   53.55 198-0.51721 0.57969-0.50473 0.22397 0.34768-0.39759
   0 -13  -1   10.21   18.00 197-0.51642 0.46499-0.50208-0.40975 0.35027-0.45573
  -1   3   5    1.66   10.80 198-0.51586 0.66276-0.50023 0.71108 0.35207 0.12686
  -2   4   6   59.51   14.43 198-0.51722 0.60289-0.50479 0.78495 0.34763 0.18101
  -2 -10  -3   -2.07   16.45 198-0.51701 0.13385-0.50404-0.19809 0.34835-0.78087
  -3  -4  -3  109.47   12.61 197-0.51577 0.01954-0.49991 0.21919 0.35238-0.84099
  -4  -4  -3  109.25   17.85 198-0.51738-0.09234-0.50534 0.22565 0.34709-0.89098
  -5  -6  -3   21.49   17.55 197-0.51596-0.20852-0.50054 0.07976 0.35178-0.95219
  -5  -8  -3    0.84   18.35 198-0.51615-0.20900-0.50116-0.06094 0.35117-0.95344
  -7   7   7    2.28   18.60 198-0.51682 0.08718-0.50341 0.99522 0.34897 0.00721
  -8   6   4   -8.44   21.41 199-0.51798-0.18421-0.50733 0.93105 0.34513-0.36582
   0 -11  -2   -1.93   16.52 199-0.51897 0.41555-0.51094-0.26286 0.34171-0.55494
  -1   3   3  275.34   13.74 199-0.51808 0.56080-0.50790 0.71904 0.34471-0.08018
  -1  -6  -3  106.75   14.24 199-0.51895 0.25025-0.51090 0.08959 0.34175-0.71755
  -1  -7  -3  374.32   14.92 198-0.51769 0.24833-0.50657 0.01584 0.34601-0.72244
  -1  -8  -3 1201.09   20.01 199-0.51790 0.24861-0.50729-0.05396 0.34531-0.72104
  -2   1  -1  372.97   28.34 200-0.52042 0.24166-0.51594 0.58651 0.33673-0.55520
  -3   5   6   50.06   13.33 199-0.51833 0.48976-0.50880 0.86106 0.34383 0.12832
  -3 -11  -3   43.15   19.87 199-0.51901 0.02183-0.51109-0.26251 0.34156-0.83026
  -4   3   0  107.57   29.24 204-0.52693 0.07216-0.53924 0.75089 0.31298-0.53707
  -5   6   8    2.82   15.44 199-0.51756 0.36644-0.50618 0.92782 0.34640 0.22930
  -5   5   2   84.84   18.80 200-0.51998 0.05644-0.51441 0.86724 0.33827-0.40375
  -5   3   0  315.60   44.68 208-0.53289-0.03567-0.56215 0.77404 0.28862-0.56896
  -5  -5  -3   -1.15   17.46 200-0.51959-0.20648-0.51308 0.16243 0.33958-0.94259
  -6   5   2   81.79   19.45 200-0.51974-0.05803-0.51362 0.86641 0.33905-0.46131
  -7  -3  -2    4.99   20.36 199-0.51859-0.38252-0.50966 0.29986 0.34298-0.94966
   2  -9   1   14.14   17.00 200-0.52042 0.80100-0.51595-0.11762 0.33665-0.11691
   0   1   5   63.88   11.95 200-0.51961 0.78134-0.51317 0.58189 0.33942 0.19442
  -1   3   4  196.42   13.52 200-0.51951 0.61490-0.51284 0.72318 0.33975 0.03158
  -1  -1   9    6.00   20.02 200-0.52008 0.87894-0.51481 0.44382 0.33779 0.57212
  -1  -9  -3    2.33   13.18 200-0.51976 0.25026-0.51366-0.11795 0.33893-0.71488
  -1 -13  -2   23.62   19.01 200-0.52037 0.30352-0.51576-0.39800 0.33684-0.60571
  -2   4   3  192.13   14.99 200-0.52069 0.45043-0.51690 0.79785 0.33570-0.12628
  -2  -4  -3   18.15   11.29 199-0.51925 0.13623-0.51191 0.23170 0.34067-0.77287
  -3   5   4  110.92   13.59 200-0.52082 0.38922-0.51734 0.86819 0.33526-0.07513
  -3   4   8    1.66   15.72 201-0.52133 0.59691-0.51914 0.79767 0.33346 0.35081
  -5   6   4    7.18   14.03 200-0.52011 0.16008-0.51488 0.93749 0.33772-0.19023
  -6   6   9   -1.30   18.40 200-0.52041 0.30774-0.51590 0.93730 0.33670 0.28984
  -6   4   1   -0.75   22.21 202-0.52465-0.10546-0.53092 0.81344 0.32150-0.55084
   2 -10   2    9.13   20.20 201-0.52191 0.85353-0.52168-0.18044 0.33093-0.00492
   1  -2   5   14.55   17.81 202-0.52321 0.89791-0.52634 0.38478 0.32621 0.26435
   1 -11  -1    8.02   15.49 201-0.52104 0.58418-0.51866-0.25572 0.33397-0.38432
   0  -1   7   23.77   17.49 201-0.52269 0.88849-0.52444 0.45311 0.32814 0.42072
  -2   4   5    3.39   13.03 201-0.52208 0.55567-0.52228 0.80342 0.33032 0.09239
  -2 -11  -3   12.55   16.82 201-0.52117 0.13828-0.51912-0.25455 0.33351-0.76661
  -3   5   5   90.94   12.90 201-0.52132 0.44185-0.51961 0.87088 0.33301 0.03377
  -3   2  10    9.90   19.27 201-0.52143 0.70294-0.52003 0.66009 0.33260 0.56928
  -4   5   8   29.16   16.33 201-0.52131 0.48406-0.51958 0.87074 0.33304 0.29836
  -4   4   1   -1.34   16.46 202-0.52305 0.12030-0.52577 0.80777 0.32679-0.44393
   1 -13   0   -0.97   20.79 201-0.52285 0.63639-0.52515-0.38475 0.32739-0.26994
   0  -3   8    2.18   19.60 202-0.52395 0.94208-0.52909 0.31699 0.32338 0.53267
  -1  -5  -3   98.27   11.86 201-0.52242 0.25269-0.52361 0.17384 0.32895-0.70573
  -1 -10  -3    9.83   14.95 201-0.52272 0.25368-0.52466-0.17841 0.32789-0.70437
  -2   4   4  503.20   17.58 202-0.52394 0.50490-0.52902 0.80998 0.32345-0.00825
  -2   3   1 1108.74   26.13 202-0.52425 0.34904-0.53016 0.74124 0.32229-0.32755
  -3   3   9    8.06   16.36 202-0.52296 0.65207-0.52555 0.73616 0.32699 0.46800
  -3  -3  -3   45.13   13.86 202-0.52347 0.02764-0.52736 0.31688 0.32514-0.81315
  -5   6   7    0.78   14.04 202-0.52272 0.31909-0.52470 0.94665 0.32785 0.14095
  -5  -4  -3   13.52   17.69 202-0.52376-0.20040-0.52839 0.24867 0.32409-0.92469
  -7   6   4   26.76   20.88 203-0.52450-0.06297-0.53102 0.95439 0.32140-0.28589
  -8   3   1   -0.52   43.39 209-0.53471-0.32342-0.57045 0.78372 0.27947-0.62168
   2 -10   1   15.64   18.97 203-0.52563 0.80612-0.53544-0.16788 0.31687-0.09721
   2 -10   3    2.18   27.00 207-0.53066 0.91936-0.55448-0.15194 0.29684 0.13889
   0   0   6   73.32   12.62 203-0.52449 0.83795-0.53132 0.53076 0.32112 0.31997
   0 -12  -2    8.27   16.75 203-0.52441 0.42176-0.53101-0.31323 0.32144-0.53475
  -2   3   7   45.30   15.19 203-0.52568 0.66356-0.53562 0.74528 0.31668 0.31862
  -2 -12  -3    5.53   18.88 203-0.52543 0.14309-0.53473-0.30861 0.31760-0.74972
  -4  -3  -3   -5.68   15.28 203-0.52522-0.08692-0.53394 0.32509 0.31842-0.86382
  -5   6   5  -11.94   15.78 203-0.52516 0.21739-0.53374 0.95571 0.31863-0.06397
  -5   6   6    3.23   15.51 203-0.52490 0.26916-0.53276 0.95690 0.31963 0.04284
  -5   5   9   -4.30   17.56 204-0.52609 0.42713-0.53712 0.88532 0.31513 0.36377
  -6   6   4    2.92   15.71 203-0.52527 0.05264-0.53414 0.95564 0.31821-0.22663
  -6  -1  -2    5.38   19.74 203-0.52616-0.25892-0.53737 0.46864 0.31487-0.86366
   2  -7   0   12.81   16.73 204-0.52728 0.75483-0.54144 0.04947 0.31057-0.19800
   2  -8   0  451.14   19.84 204-0.52731 0.75654-0.54156-0.02108 0.31044-0.19691
   1  -1   2  197.41   18.71 205-0.52790 0.74634-0.54378 0.47371 0.30813-0.03758
   1  -1   3  533.23   20.36 204-0.52671 0.79718-0.53931 0.46864 0.31279 0.06451
   1  -2   0 1513.01   42.91 205-0.52807 0.64339-0.54441 0.40384 0.30746-0.24932
   1  -7  -2  127.23   14.09 204-0.52672 0.53779-0.53937 0.04685 0.31273-0.46928
   1  -8  -2  254.88   13.94 204-0.52631 0.53729-0.53784-0.02461 0.31432-0.47072
   1 -12  -1    0.76   17.65 205-0.52770 0.59210-0.54303-0.30485 0.30891-0.35934
   0  -3  -2 6837.85   45.13 203-0.52580 0.42288-0.53594 0.32481 0.31629-0.52938
  -1   2   6  218.97   14.01 204-0.52615 0.72572-0.53725 0.67754 0.31494 0.27025
  -1 -11  -3   44.33   15.33 204-0.52622 0.25742-0.53750-0.23557 0.31468-0.69071
  -2   1   9    4.92   16.70 203-0.52603 0.77017-0.53680 0.60728 0.31540 0.53698
  -4   4   9   18.52   17.11 203-0.52612 0.54163-0.53716 0.81874 0.31503 0.42409
  -4   3  10    1.22   19.42 203-0.52643 0.59541-0.53825 0.75096 0.31389 0.53551
  -4   0  -2  118.49   18.82 204-0.52763-0.03089-0.54276 0.54322 0.30919-0.74682
  -6   6   8    8.92   17.33 204-0.52625 0.26167-0.53761 0.96038 0.31456 0.20511
   2  -5   1   25.15   19.17 207-0.53082 0.81220-0.55522 0.20298 0.29591-0.07520
   2  -9   0  143.24   18.11 205-0.52899 0.75872-0.54815-0.08392 0.30345-0.18930
   1  -4   6   91.49   20.73 206-0.52999 0.95626-0.55199 0.27112 0.29937 0.39864
   1  -9  -2    7.48   11.88 205-0.52774 0.53841-0.54342-0.08974 0.30843-0.46576
   0   1   4  489.95   16.12 205-0.52764 0.73623-0.54306 0.61307 0.30881 0.11873
   0  -8  -3   27.05   14.66 205-0.52866 0.37391-0.54692-0.01500 0.30475-0.62477
  -1   2   1 6760.59   60.92 205-0.52846 0.46637-0.54613 0.68700 0.30558-0.25501
  -1   0   8    3.90   15.88 205-0.52755 0.83134-0.54270 0.54261 0.30919 0.49082
  -1  -4  -3  994.03   18.84 205-0.52824 0.25964-0.54530 0.26438 0.30646-0.68213
  -2   2   8    4.70   16.48 204-0.52780 0.71933-0.54365 0.68449 0.30820 0.43680
  -2  -3  -3  374.07   14.37 204-0.52761 0.14518-0.54294 0.33229 0.30894-0.74118
  -4   5   7  -11.47   15.63 205-0.52833 0.43852-0.54565 0.89714 0.30609 0.21833
  -5   4   1  226.82   25.56 207-0.53119 0.01440-0.55668 0.83860 0.29435-0.46773
  -6  -5  -3   -6.49   21.67 205-0.52833-0.31127-0.54565 0.19673 0.30609-0.96336
  -7  -2  -2   -0.65   21.14 204-0.52805-0.36872-0.54461 0.40601 0.30718-0.91012
  -8   5   3    8.79   23.12 206-0.52995-0.22329-0.55183 0.90468 0.29954-0.42696
   2 -11   2    0.23   22.66 207-0.53153 0.86546-0.55728-0.21732 0.29345 0.03372
   1  -6  -2    9.07   11.21 206-0.52931 0.53943-0.54867 0.12653 0.30265-0.46024
   1 -10  -2    0.30   16.65 205-0.52953 0.53917-0.54955-0.15057 0.30172-0.45739
   0   1   2  391.62   18.68 206-0.52999 0.63401-0.55129 0.62191 0.29987-0.08592
   0  -7  -3  363.50   14.51 205-0.52922 0.37519-0.54830 0.05702 0.30304-0.62223
   0  -9  -3   20.63   13.12 206-0.52956 0.37415-0.54963-0.08273 0.30163-0.62152
   0 -13  -2   41.47   19.37 206-0.53015 0.42789-0.55192-0.36220 0.29920-0.51197
  -1   1   7   86.43   15.15 206-0.52958 0.78113-0.54969 0.61995 0.30157 0.38999
  -1  -2   9    7.75   18.54 207-0.53071 0.88603-0.55410 0.41258 0.29687 0.60713
  -3   4   7   15.64   14.85 206-0.52943 0.55376-0.54911 0.83033 0.30218 0.27855
  -3   0  -2 1433.88   29.83 206-0.53022 0.08589-0.55216 0.55214 0.29894-0.68088
  -4   5   3   51.37   12.15 206-0.52925 0.23070-0.54842 0.90065 0.30291-0.20640
  -8   6   5   -2.62   21.39 207-0.53080-0.11879-0.55444 0.97782 0.29650-0.21013
   2  -6   0  204.01   18.75 207-0.53233 0.76151-0.56022 0.13792 0.29010-0.17625
   2 -11   1    2.22   19.96 206-0.53123 0.81050-0.55587-0.21576 0.29480-0.07541
   0  -4   8   15.88   22.86 208-0.53267 0.95042-0.56160 0.27930 0.28861 0.56644
   0  -6  -3  478.87   15.24 207-0.53114 0.37641-0.55555 0.13359 0.29514-0.61417
   0 -10  -3   -1.43   16.66 207-0.53166 0.37701-0.55757-0.14387 0.29297-0.61257
  -1 -12  -3   40.42   18.20 206-0.53060 0.26230-0.55344-0.29023 0.29740-0.67373
  -5  -3  -3   37.43   17.07 207-0.53147-0.19297-0.55683 0.34699 0.29377-0.89504
  -6   6   5   16.75   17.61 207-0.53118 0.10984-0.55570 0.97850 0.29498-0.09667
  -6   6   7   -6.73   16.48 207-0.53069 0.21337-0.55379 0.97620 0.29703 0.11561
  -7   6   8  -16.85   21.30 207-0.53168 0.15243-0.55767 0.98160 0.29286 0.17143
   2 -10   0   44.70   16.18 207-0.53252 0.76203-0.56098-0.14254 0.28926-0.17545
   1 -13  -1    2.48   20.29 207-0.53231 0.59458-0.56017-0.34982 0.29014-0.33919
   0   1   3  364.62   14.94 208-0.53224 0.68875-0.55992 0.63006 0.29041 0.03069
   0  -1  -1   29.27   13.29 207-0.53219 0.48133-0.55968 0.48911 0.29067-0.39654
  -3   4   2  136.03   14.94 208-0.53316 0.29647-0.56355 0.84505 0.28646-0.24067
  -3   1  10   13.50   19.30 207-0.53222 0.71394-0.55983 0.62955 0.29051 0.61118
  -5   5   8    3.17   15.91 208-0.53305 0.38182-0.56315 0.91550 0.28690 0.28909
  -6   6   6   25.22   14.82 208-0.53236 0.16311-0.56036 0.98332 0.28993 0.01556
  -6  -4  -3  -10.66   19.53 208-0.53317-0.30471-0.56363 0.28584 0.28638-0.94167
  -7   6   5    3.80   17.81 208-0.53295-0.00241-0.56276 0.98628 0.28732-0.14498
   1  -3  -1    1.96   10.94 208-0.53370 0.59542-0.56596 0.35508 0.28385-0.33445
   1  -5  -2  858.96   19.77 209-0.53452 0.54531-0.56931 0.21803 0.28016-0.43698
   1 -11  -2    9.63   16.11 209-0.53380 0.54494-0.56634-0.20732 0.28343-0.44056
   0  -2   7   12.58   16.12 209-0.53463 0.90017-0.56974 0.42800 0.27968 0.46868
   0 -11  -3   -2.95   16.46 209-0.53446 0.37977-0.56901-0.20340 0.28049-0.60037
  -2   3   6    5.34   13.95 209-0.53422 0.62018-0.56804 0.77909 0.28156 0.24835
  -3   3   8   30.74   16.15 210-0.53479 0.61060-0.57040 0.77978 0.27896 0.40642
  -3  -2  -3   27.73   14.62 209-0.53478 0.03841-0.57032 0.43076 0.27904-0.76715
  -3  -7  -4   94.40   17.61 209-0.53434-0.01497-0.56858 0.07767 0.28097-0.87648
  -3  -8  -4    0.45   17.08 209-0.53374-0.01516-0.56610 0.00574 0.28369-0.87920
  -3  -9  -4   43.50   20.71 209-0.53405-0.01424-0.56737-0.06397 0.28230-0.87700
  -4   5   6   21.09   13.16 209-0.53354 0.39147-0.56532 0.91622 0.28455 0.13247
  -5   0  -2   26.00   18.24 209-0.53471-0.13753-0.57007 0.57147 0.27932-0.77293
  -6   5   9   -0.11   17.50 209-0.53436 0.32162-0.56863 0.92089 0.28091 0.34599
   2 -11   3    0.72   25.89 212-0.53847 0.92562-0.58575-0.18944 0.26176 0.17259
   0  -5  -3   30.31   12.13 210-0.53553 0.37948-0.57316 0.22185 0.27593-0.59638
  -1   2   5   20.83   11.28 210-0.53512 0.68225-0.57150 0.71155 0.27777 0.20075
  -2  -7  -4    6.26   13.37 210-0.53540 0.10038-0.57266 0.08163 0.27648-0.81527
  -2  -8  -4    7.07   15.36 209-0.53495 0.09983-0.57078 0.00907 0.27856-0.81850
  -2  -9  -4   48.19   16.33 209-0.53503 0.10097-0.57111-0.06026 0.27820-0.81630
  -3   2   9   -9.72   16.02 210-0.53509 0.66359-0.57137 0.71213 0.27791 0.51699
  -3 -10  -4   15.33   21.27 210-0.53601-0.01366-0.57519-0.12859 0.27367-0.87129
  -4   5   4    1.83   11.30 210-0.53516 0.28845-0.57166 0.92418 0.27760-0.07365
  -4   5   5   16.95   14.88 210-0.53580 0.34177-0.57431 0.92637 0.27465 0.03587
  -4   4   8   13.96   16.16 210-0.53562 0.49856-0.57358 0.85536 0.27546 0.35675
  -4  -2  -3   21.98   16.76 210-0.53585-0.07517-0.57454 0.43543 0.27440-0.81910
  -4  -8  -4   26.36   20.84 210-0.53581-0.12754-0.57438 0.01261 0.27458-0.92728
  -7   6   6    5.06   17.87 210-0.53577 0.05327-0.57421 0.99668 0.27476-0.02539
  -7   6   7    9.76   16.88 210-0.53523 0.10477-0.57194 0.99370 0.27728 0.07895
  -8   6   6    1.22   20.31 209-0.53516-0.06175-0.57166 0.99633 0.27760-0.08405
  -8   6   7    5.15   22.60 211-0.53644-0.00752-0.57703 0.99929 0.27161 0.02888
  -8   4   2    3.95   25.94 212-0.53831-0.26660-0.58507 0.86823 0.26254-0.49653
  -9   5   4   -4.57   24.67 212-0.53764-0.27320-0.58217 0.93269 0.26583-0.34109
   2 -11   0   -5.45   17.01 211-0.53705 0.76671-0.57975-0.19447 0.26852-0.15580
   0   0   5    4.45   12.38 212-0.53752 0.79815-0.58180 0.58087 0.26621 0.26811
  -1  -1  -2  180.61   14.05 210-0.53654 0.31920-0.57758 0.50750 0.27096-0.54042
  -2   0   9   10.20   19.79 211-0.53674 0.78022-0.57842 0.57810 0.27001 0.58146
  -2 -10  -4    9.39   17.03 211-0.53653 0.10197-0.57751-0.12483 0.27103-0.81052
  -3   4   6   50.72   12.62 211-0.53632 0.50775-0.57666 0.85767 0.27199 0.20070
  -3  -6  -4   24.85   14.93 211-0.53650-0.01258-0.57745 0.15678 0.27111-0.86725
  -4  -7  -4  -15.33   17.24 211-0.53641-0.12670-0.57702 0.08728 0.27159-0.92372
   2  -8  -1  796.18   20.61 212-0.53807 0.71522-0.58423 0.02219 0.26343-0.25653
   2  -9  -1    5.09   14.97 212-0.53854 0.71537-0.58629-0.04717 0.26109-0.25541
   2 -12   1  180.37   21.42 212-0.53831 0.81919-0.58528-0.25775 0.26224-0.04304
   2 -12   2    9.04   21.70 211-0.53821 0.87024-0.58482-0.25740 0.26277 0.06324
   1  -2   4  993.88   26.80 213-0.53904 0.86192-0.58849 0.44672 0.25857 0.22426
   1  -3   5   24.11   17.71 213-0.53900 0.91339-0.58836 0.37676 0.25873 0.33127
   1  -5   6  137.91   24.15 214-0.54030 0.96692-0.59420 0.24137 0.25200 0.44474
   1 -12  -2   13.19   16.31 211-0.53768 0.54904-0.58253-0.26142 0.26536-0.42242
   0  -1   6  129.79   16.45 213-0.53890 0.85204-0.58786 0.51620 0.25929 0.38121
   0  -5   8   -0.47   21.47 212-0.53895 0.95803-0.58810 0.23543 0.25902 0.59729
   0 -12  -3  152.88   18.25 211-0.53779 0.38358-0.58297-0.25939 0.26486-0.58452
  -1  -1   8  193.44   20.23 212-0.53856 0.84158-0.58638 0.51567 0.26099 0.53695
  -1  -3  -3   -4.27   11.59 212-0.53755 0.26753-0.58195 0.37270 0.26601-0.64298
  -1  -3   9    3.81   21.08 212-0.53794 0.89533-0.58363 0.37181 0.26411 0.64319
  -2  -6  -4  102.12   13.85 211-0.53758 0.10418-0.58207 0.16147 0.26587-0.80447
  -2 -11  -4   17.06   19.16 212-0.53869 0.10372-0.58695-0.18697 0.26034-0.80091
  -4   3   9    5.46   16.31 211-0.53795 0.55392-0.58371 0.79611 0.26403 0.47746
  -4   2  10    7.58   17.67 212-0.53788 0.60533-0.58339 0.72356 0.26439 0.58097
  -4  -6  -4    9.86   19.99 212-0.53805-0.12410-0.58414 0.16402 0.26353-0.91419
  -5   5   3   67.47   16.76 212-0.53805 0.12640-0.58411 0.93620 0.26356-0.22285
  -5   4   9   -0.09   16.84 212-0.53790 0.43918-0.58349 0.86579 0.26427 0.41932
  -7   5   3   -2.89   18.77 211-0.53778-0.10464-0.58293 0.93923 0.26490-0.33695
   2  -7  -1   71.18   14.68 213-0.53992 0.71630-0.59182 0.10007 0.25467-0.24886
  -1  -7  -4   93.95   16.19 213-0.53959 0.21876-0.59033 0.10020 0.25638-0.73878
  -1  -8  -4   76.20   14.33 212-0.53891 0.21826-0.58727 0.02547 0.25988-0.74337
  -1  -9  -4   25.68   15.64 212-0.53893 0.21793-0.58740-0.04471 0.25974-0.74303
  -1 -10  -4   81.16   17.48 213-0.54004 0.21916-0.59235-0.11031 0.25405-0.73766
  -2   2   7    8.75   13.08 213-0.53940 0.67783-0.58949 0.73000 0.25735 0.37970
  -2   1   8   13.48   17.12 214-0.54029 0.73014-0.59348 0.66262 0.25275 0.49006
  -2  -2  -3   16.58   11.11 212-0.53927 0.15574-0.58893 0.44926 0.25800-0.69036
  -3  -5  -4  383.40   18.69 213-0.53966-0.00917-0.59065 0.24123 0.25601-0.85063
  -5   5   7   -8.16   14.06 213-0.53902 0.33528-0.58781 0.93954 0.25927 0.20937
  -5   3  10    8.81   20.62 214-0.54029 0.49309-0.59354 0.80169 0.25269 0.53241
   2 -10  -1  435.27   18.80 213-0.54029 0.71665-0.59373-0.10869 0.25260-0.24776
   2 -12   0   -8.77   21.81 215-0.54155 0.77107-0.59959-0.24408 0.24578-0.13311
  -1   2   4 2422.56   28.14 214-0.54110 0.63718-0.59745 0.73666 0.24828 0.12345
  -1   1   6   97.11   14.49 214-0.54126 0.74156-0.59827 0.66645 0.24733 0.33727
  -2   3   5    9.34   11.27 214-0.54070 0.57426-0.59565 0.80659 0.25037 0.17236
  -2  -5  -4  114.49   14.81 214-0.54095 0.10598-0.59681 0.24731 0.24903-0.78764
  -3   4   5   61.57   12.26 214-0.54069 0.46089-0.59557 0.87668 0.25047 0.11595
  -3   0  10   -4.55   18.45 214-0.54096 0.72220-0.59685 0.59705 0.24898 0.65319
  -5  -2  -3   12.77   17.40 214-0.54109-0.18273-0.59742 0.45877 0.24832-0.84800
  -6   5   3   -1.73   16.58 214-0.54100 0.01434-0.59703 0.95035 0.24877-0.26392
  -6   5   8   -4.20   16.62 214-0.54086 0.27613-0.59639 0.94782 0.24951 0.26965
  -6  -3  -3    4.98   20.44 214-0.54099-0.29875-0.59700 0.38816 0.24881-0.90687
  -7   5   9    8.96   18.79 213-0.54024 0.21425-0.59354 0.94529 0.25282 0.31737
  -8   0  -1   -1.78   28.52 215-0.54268-0.41922-0.60490 0.60747 0.23952-0.79439
   2  -5   0 1117.43   25.88 215-0.54205 0.77010-0.60163 0.24968 0.24338-0.13121
   1  -8  -3  305.38   15.08 215-0.54187 0.49936-0.60072 0.03963 0.24445-0.50893
   1  -9  -3  370.71   16.60 215-0.54180 0.49945-0.60041-0.03105 0.24482-0.50923
   1 -13  -2   -3.70   20.06 215-0.54213 0.55410-0.60194-0.31307 0.24302-0.40026
   0  -2  -2 6732.45   49.57 215-0.54214 0.43847-0.60201 0.46192 0.24293-0.45601
   0  -4  -3   11.19   11.65 215-0.54189 0.38586-0.60083 0.32018 0.24432-0.56441
   0 -13  -3   -2.98   21.49 215-0.54163 0.38749-0.59957-0.31376 0.24579-0.56554
  -1   0   7    3.82   15.61 215-0.54206 0.79347-0.60166 0.60044 0.24335 0.44818
  -1  -6  -4   59.70   14.43 215-0.54181 0.22004-0.60043 0.17992 0.24479-0.72779
  -1 -11  -4   14.89   18.54 215-0.54163 0.22099-0.59962-0.17288 0.24574-0.72837
  -3   4   3 1747.84   24.17 215-0.54151 0.35774-0.59905 0.88052 0.24641-0.09262
  -4  -5  -4    9.00   15.02 215-0.54175-0.12121-0.60012 0.25043 0.24515-0.89705
   2 -11  -1   -6.98   17.17 216-0.54330 0.72110-0.60700-0.16742 0.23716-0.23117
   1  -4  -2  297.57   14.93 215-0.54286 0.55316-0.60486 0.32422 0.23970-0.39649
   1  -7  -3  735.73   18.57 216-0.54339 0.50073-0.60745 0.11654 0.23663-0.50142
   1 -10  -3    7.98   13.25 215-0.54284 0.50118-0.60478-0.09782 0.23980-0.50317
   0  -3   7    1.92   18.16 218-0.54471 0.90925-0.61400 0.40183 0.22878 0.51761
   0  -6   8    3.33   23.18 216-0.54388 0.96481-0.60982 0.18625 0.23379 0.62418
  -1   2   2 1191.20   23.63 216-0.54319 0.53419-0.60645 0.74708 0.23782-0.07964
  -2   3   2    4.22   11.56 216-0.54293 0.41965-0.60520 0.81636 0.23930-0.13772
  -2   0  -2 2636.23   37.01 216-0.54315 0.21218-0.60628 0.60728 0.23802-0.56316
  -3   4   4   76.00   11.68 216-0.54290 0.41080-0.60510 0.88644 0.23942 0.02040
  -3   3   7   10.21   15.52 215-0.54299 0.56821-0.60550 0.81742 0.23894 0.34262
  -4   4   7   -0.19   13.76 216-0.54292 0.45325-0.60515 0.88684 0.23935 0.28547
  -5   5   4    4.28   13.13 216-0.54382 0.18388-0.60957 0.96132 0.23410-0.08682
  -5   5   6   -3.35   12.57 216-0.54285 0.28699-0.60488 0.95682 0.23968 0.12184
  -5  -6  -4   -5.33   18.38 216-0.54285-0.23458-0.60488 0.18614 0.23968-0.94702
  -7   1  -1    1.85   30.61 222-0.54871-0.30306-0.63557 0.70976 0.20214-0.70394
  -7  -1  -2   32.39   21.42 217-0.54439-0.35680-0.61238 0.54457 0.23073-0.83736
   2  -6  -1  632.73   17.54 217-0.54401 0.72048-0.61044 0.18807 0.23293-0.22656
   2 -13   1   10.94   22.80 217-0.54474 0.82647-0.61411-0.29994 0.22851-0.00826
   1 -11  -3   51.02   17.92 217-0.54464 0.50345-0.61358-0.16000 0.22915-0.49278
  -1   2   3  164.42   12.93 217-0.54428 0.58733-0.61180 0.75286 0.23130 0.03449
  -1  -4   9   -9.49   22.14 217-0.54451 0.90140-0.61298 0.33211 0.22988 0.67669
  -3  -4  -4  203.52   19.19 217-0.54468-0.00386-0.61380 0.33380 0.22889-0.82386
  -5   5   5   -0.12   13.76 217-0.54451 0.23627-0.61298 0.96534 0.22988 0.02470
  -8   5   4    7.72   20.72 218-0.54510-0.15568-0.61598 0.96877 0.22626-0.24663
   0  -8  -4   -0.35   15.04 218-0.54492 0.33750-0.61571 0.05468 0.22668-0.65343
   0  -9  -4   67.75   15.28 217-0.54474 0.33753-0.61481-0.01719 0.22777-0.65469
   0 -10  -4   27.41   17.59 218-0.54529 0.33799-0.61762-0.08516 0.22437-0.65112
  -1  -5  -4  724.90   19.46 218-0.54527 0.22334-0.61757 0.26783 0.22443-0.70737
  -2   3   4 1564.34   23.04 217-0.54483 0.52633-0.61530 0.82573 0.22718 0.08890
  -2  -1   9  -14.04   19.50 218-0.54537 0.78734-0.61802 0.54742 0.22388 0.62571
  -3   2   8   11.63   14.94 218-0.54550 0.62217-0.61868 0.75859 0.22307 0.46404
  -3   1   9   17.56   16.58 218-0.54483 0.67362-0.61526 0.68439 0.22722 0.56660
  -5   4   8    1.84   16.52 218-0.54512 0.39428-0.61678 0.89946 0.22539 0.35142
  -5  -5  -4   29.13   21.69 219-0.54591-0.23078-0.62086 0.27159 0.22041-0.92803
  -6   5   7   14.91   14.33 217-0.54503 0.22807-0.61628 0.96911 0.22599 0.18653
  -6   4   9  -10.14   18.51 218-0.54547 0.33289-0.61855 0.90048 0.22324 0.40378
  -6   0  -2   16.39   22.42 220-0.54720-0.23963-0.62782 0.63030 0.21183-0.76200
  -7   5   8   -2.33   19.01 218-0.54502 0.16619-0.61624 0.96910 0.22604 0.23775
  -9   5   5   -8.72   21.50 218-0.54544-0.21801-0.61837 0.97145 0.22345-0.19317
  -9   4   3   -6.28   24.27 219-0.54636-0.32118-0.62324 0.90581 0.21749-0.40063
   2 -12  -1   -3.34   16.67 219-0.54584 0.72315-0.62111-0.22234 0.22026-0.21417
   2 -13   0   -1.26   21.73 219-0.54608 0.77599-0.62243-0.29233 0.21864-0.10520
   1  -6  -3  244.46   13.47 218-0.54577 0.50383-0.62078 0.20001 0.22067-0.48462
   1  -6   6   12.54   21.18 221-0.54818 0.97448-0.63401 0.21159 0.20422 0.49213
   1 -12  -3   -3.10   18.94 219-0.54640 0.50545-0.62410-0.21763 0.21659-0.47956
   0  -7  -4    6.81   12.71 218-0.54585 0.33807-0.62117 0.12998 0.22018-0.64649
   0 -11  -4   -4.29   17.40 219-0.54637 0.33950-0.62392-0.14807 0.21680-0.64310
  -1  -2   8    5.98   18.12 220-0.54673 0.85070-0.62583 0.48378 0.21444 0.58465
  -2   3   3  528.48   16.45 219-0.54591 0.47507-0.62147 0.83243 0.21982-0.01107
  -2   2   0 4737.82   82.14 221-0.54811 0.32046-0.63360 0.77477 0.20475-0.31679
  -2  -4  -4  249.79   14.19 218-0.54580 0.11103-0.62088 0.34149 0.22054-0.75927
  -4   1  10   -4.55   21.68 219-0.54627 0.61301-0.62340 0.69294 0.21745 0.62693
  -4  -4  -4   47.23   17.75 219-0.54605-0.11674-0.62226 0.34252 0.21885-0.87031
   2  -8  -2  188.91   16.04 220-0.54721 0.67170-0.62853 0.06556 0.21118-0.31242
   2  -9  -2   -1.67   12.81 220-0.54675 0.67147-0.62601-0.00634 0.21431-0.31535
   2 -10  -2  307.73   19.24 220-0.54715 0.67122-0.62820-0.07477 0.21158-0.31250
   0   0   4 1672.42   25.74 220-0.54678 0.75606-0.62620 0.62522 0.21408 0.21375
  -4   4   2  386.94   17.62 220-0.54704 0.19628-0.62760 0.90979 0.21233-0.22163
  -4   3   8   -7.99   13.78 220-0.54677 0.50920-0.62614 0.83680 0.21415 0.41755
  -6   5   4   17.99   16.18 220-0.54708 0.07326-0.62779 0.98092 0.21210-0.12050
  -6   3  10  -10.84   19.07 220-0.54692 0.38692-0.62692 0.83850 0.21317 0.52140
  -7   5   4    8.42   17.07 219-0.54702-0.04246-0.62748 0.98312 0.21248-0.17692
  -8   5   8    6.49   18.23 219-0.54677 0.05470-0.62614 0.97973 0.21415 0.19381
   0  -6  -4  158.17   15.33 221-0.54805 0.34120-0.63403 0.21288 0.20457-0.63057
   0 -12  -4   15.74   17.74 221-0.54802 0.34120-0.63386-0.20931 0.20478-0.63138
  -1  -2  -3   81.33   14.38 221-0.54793 0.27811-0.63335 0.49295 0.20543-0.58209
  -2   2   6   20.92   12.29 221-0.54757 0.63321-0.63131 0.77106 0.20799 0.32135
  -3  -1  -3  410.60   19.93 221-0.54793 0.05095-0.63337 0.56401 0.20541-0.69390
  -3  -1  10    9.15   18.76 221-0.54774 0.72909-0.63229 0.56065 0.20677 0.69465
  -4   4   6   43.35   13.20 220-0.54761 0.40582-0.63153 0.91242 0.20772 0.20967
  -4   2   9   -1.22   15.05 221-0.54756 0.56213-0.63127 0.77119 0.20804 0.53051
  -4  -1  -3  171.31   17.70 221-0.54816-0.06235-0.63467 0.56581 0.20376-0.74791
  -5   3   9    0.07   16.40 221-0.54765 0.44873-0.63179 0.84245 0.20739 0.47555
  -5   2  10    0.32   17.32 221-0.54774 0.50151-0.63231 0.77204 0.20674 0.58261
  -6   5   6    0.73   14.41 221-0.54762 0.17800-0.63153 0.98342 0.20771 0.09809
  -7   5   7   11.20   17.28 221-0.54831 0.11838-0.63553 0.98654 0.20268 0.15333
  -9   5   6  -10.09   23.13 221-0.54808-0.16241-0.63421 0.98694 0.20435-0.06683
   2  -7  -2   -3.33   11.27 222-0.54863 0.67235-0.63752 0.14640 0.20030-0.30123
   2 -11  -2    8.49   16.03 221-0.54849 0.67304-0.63660-0.13702 0.20146-0.30227
   2 -13  -1   10.70   21.23 222-0.54896 0.72617-0.63939-0.27576 0.19791-0.19144
   1 -13  -3    8.89   22.01 222-0.54898 0.50819-0.63954-0.27540 0.19772-0.46164
   0  -2   6    4.63   15.08 223-0.54934 0.86245-0.64177 0.49981 0.19487 0.44655
  -2   0   8   27.20   14.63 222-0.54867 0.73928-0.63770 0.63666 0.20006 0.54380
  -6   5   5   11.47   14.36 222-0.54855 0.12730-0.63696 0.98880 0.20101-0.00224
  -6  -2  -3   -1.34   20.00 222-0.54900-0.29020-0.63966 0.50195 0.19758-0.85332
  -8   5   5    2.66   20.12 222-0.54907-0.09956-0.64008 0.99281 0.19703-0.11002
  -8   5   7   -2.77   20.14 222-0.54904 0.00359-0.63991 0.99298 0.19725 0.10415
   2  -5  -1  141.22   15.15 223-0.55017 0.72701-0.64661 0.29518 0.18868-0.18154
   1  -4   5   65.06   19.73 224-0.55063 0.92555-0.64957 0.36709 0.18482 0.40574
   1  -5  -3  516.34   16.08 223-0.54963 0.50846-0.64325 0.29241 0.19302-0.45584
   0  -3  -3   30.93   11.83 223-0.54954 0.39399-0.64271 0.43206 0.19372-0.51348
  -1   1   5  175.91   12.95 223-0.54937 0.69689-0.64169 0.71085 0.19502 0.28293
  -1  -4  -4  357.89   15.41 223-0.54959 0.22841-0.64294 0.36297 0.19341-0.67554
  -2   1   7    0.29   12.09 223-0.54951 0.68750-0.64253 0.71272 0.19394 0.44343
  -2  -8  -5   33.51   18.24 223-0.54990 0.06260-0.64493 0.08397 0.19085-0.83645
  -2  -9  -5   17.88   18.18 222-0.54945 0.06240-0.64216 0.01095 0.19442-0.83955
  -3   3   6   21.74   12.69 222-0.54919 0.52153-0.64062 0.85091 0.19640 0.27750
  -3  -3  -4   64.70   16.43 223-0.55015 0.00249-0.64645 0.43660 0.18888-0.78352
  -3  -8  -5   25.36   19.58 223-0.54993-0.05145-0.64511 0.08399 0.19062-0.89300
  -5  -4  -4   12.74   18.55 223-0.54973-0.22709-0.64391 0.36459 0.19217-0.89917
  -7   5   5   -5.70   16.53 223-0.54989 0.01340-0.64486 0.99798 0.19094-0.04788
  -7   5   6    7.50   17.74 223-0.54971 0.06578-0.64377 0.99721 0.19235 0.05803
  -7   4   2   -2.73   21.32 224-0.55060-0.14181-0.64938 0.93159 0.18507-0.36278
  -7   4   9    0.57   18.10 223-0.54953 0.22321-0.64266 0.92416 0.19378 0.37752
  -8   5   6   16.87   20.04 223-0.55017-0.04625-0.64658 0.99850 0.18871 0.00502
   2 -12  -2  187.62   18.22 224-0.55039 0.67520-0.64749-0.19556 0.18762-0.28766
   0  -1   5   60.04   14.29 224-0.55047 0.81140-0.64798 0.57726 0.18697 0.34747
   0  -4   7   36.71   17.62 225-0.55106 0.91667-0.65183 0.36921 0.18194 0.56667
  -1  -1   7   84.11   16.34 224-0.55072 0.80224-0.64960 0.57836 0.18487 0.50664
  -4   4   5   17.37   13.62 224-0.55091 0.35690-0.65079 0.93149 0.18331 0.12713
  -5   4   7   21.48   13.60 223-0.55030 0.34728-0.64691 0.92806 0.18837 0.28038
  -6   4   8   -5.40   16.14 224-0.55074 0.28580-0.64973 0.93075 0.18470 0.33536
  -9   3   2   -0.96   32.36 228-0.55327-0.36400-0.66749 0.87888 0.16096-0.44935
   1  -2   3   75.32   15.66 225-0.55167 0.82270-0.65581 0.51393 0.17668 0.20063
   1  -7   6   34.36   26.42 228-0.55335 0.97978-0.66809 0.17489 0.16014 0.53667
   1  -9  -4   67.53   13.95 225-0.55130 0.45702-0.65338 0.02117 0.17990-0.55056
   1 -10  -4   24.58   16.66 225-0.55143 0.45762-0.65422-0.04789 0.17879-0.54909
   0  -5  -4  486.76   15.74 225-0.55129 0.34308-0.65327 0.30277 0.18005-0.60673
  -1   0   6  394.27   18.09 225-0.55172 0.75163-0.65621 0.65425 0.17615 0.40927
  -1  -8  -5  -14.65   18.02 224-0.55114 0.17887-0.65228 0.09364 0.18136-0.76619
  -1  -9  -5   46.25   16.73 224-0.55112 0.17763-0.65214 0.02080 0.18153-0.77066
  -1 -10  -5    2.01   18.39 225-0.55129 0.17791-0.65327-0.04861 0.18004-0.76958
  -2  -1  -3  173.82   14.89 225-0.55166 0.16803-0.65574 0.58630 0.17678-0.60878
  -2  -2   9   10.50   18.17 224-0.55114 0.79451-0.65230 0.51031 0.18133 0.67005
  -2  -3  -4 1272.16   22.44 225-0.55135 0.11575-0.65370 0.44427 0.17948-0.71810
  -2  -7  -5   24.97   17.33 225-0.55112 0.06353-0.65220 0.16152 0.18146-0.82766
  -3   3   1  185.22   17.87 226-0.55207 0.26267-0.65857 0.87054 0.17301-0.23339
  -3   0   9   -0.27   17.05 225-0.55151 0.67989-0.65477 0.65396 0.17807 0.61689
  -3  -7  -5  135.29   18.35 224-0.55101-0.04958-0.65146 0.16078 0.18243-0.88401
  -4  -3  -4   -8.61   16.67 226-0.55187-0.11422-0.65725 0.44793 0.17478-0.82975
  -5  -1  -3    8.75   19.61 225-0.55197-0.17262-0.65790 0.58926 0.17391-0.77365
   2  -6  -2 1951.35   25.36 225-0.55179 0.67594-0.65724 0.23477 0.17489-0.27581
   1  -8  -4  267.29   15.05 225-0.55180 0.45732-0.65733 0.09575 0.17476-0.54599
   1 -11  -4   -2.69   16.33 226-0.55211 0.45861-0.65947-0.11373 0.17190-0.54292
  -1  -3   8    6.55   18.56 226-0.55204 0.85879-0.65900 0.44662 0.17253 0.63076
  -4   4   3   26.29   11.08 226-0.55176 0.25335-0.65703 0.93856 0.17516-0.07839
  -4   4   4    1.50   12.98 225-0.55178 0.30463-0.65725 0.94185 0.17487 0.03018
  -4   0  10  -12.60   21.17 226-0.55209 0.61883-0.65939 0.65843 0.17201 0.67297
  -5   4   2   59.76   17.45 227-0.55245 0.08842-0.66194 0.94435 0.16859-0.23318
   2  -9  -3   21.04   15.62 227-0.55277 0.62476-0.66505 0.03239 0.16450-0.37256
   2 -10  -3  302.83   19.00 227-0.55276 0.62441-0.66496-0.03748 0.16462-0.37283
   2 -13  -2   13.66   18.87 227-0.55237 0.67731-0.66213-0.25223 0.16845-0.26903
   1  -3  -2  962.72   20.26 226-0.55219 0.56246-0.66082 0.44925 0.17022-0.32797
  -1  -7  -5   -3.01   13.86 227-0.55249 0.17868-0.66292 0.17195 0.16738-0.75706
  -2  -6  -5    1.01   16.92 227-0.55267 0.06406-0.66430 0.24433 0.16551-0.81242
  -3   2   7   -4.11   13.43 227-0.55234 0.57596-0.66182 0.80162 0.16886 0.41177
  -3   1   8   18.55   14.30 227-0.55267 0.62975-0.66432 0.73408 0.16549 0.52328
  -3  -2  10   -0.63   21.89 227-0.55283 0.73281-0.66551 0.52305 0.16388 0.73444
  -3  -6  -5   23.16   18.07 227-0.55246-0.04875-0.66278 0.24257 0.16757-0.86900
  -4   3   7   -0.48   14.04 227-0.55236 0.46247-0.66194 0.87244 0.16870 0.35636
  -6   4   2   26.95   18.86 228-0.55320-0.02453-0.66834 0.95115 0.16002-0.28130
  -6   3   9   23.98   17.88 227-0.55265 0.34048-0.66415 0.87571 0.16572 0.46262
   2  -8  -3  534.73   18.52 228-0.55335 0.62484-0.66953 0.10805 0.15832-0.36642
   2 -11  -3    3.65   17.40 227-0.55303 0.62410-0.66702-0.10301 0.16176-0.36804
   1  -3   4  827.76   27.42 229-0.55373 0.87720-0.67258 0.45975 0.15411 0.32931
   1  -7  -4    8.18   12.04 227-0.55294 0.45886-0.66634 0.17458 0.16269-0.53395
   1 -12  -4    1.11   18.33 228-0.55301 0.45987-0.66678-0.17616 0.16209-0.53274
   0   0   3    5.41   10.75 227-0.55306 0.71005-0.66726 0.66685 0.16142 0.15989
  -2   2   5  124.43   12.90 228-0.55303 0.58717-0.66693 0.80654 0.16188 0.26117
  -3   3   5   26.26   11.87 228-0.55319 0.47293-0.66819 0.87897 0.16015 0.20646
  -5   4   6   22.83   15.17 228-0.55331 0.29766-0.66924 0.95142 0.15872 0.20395
  -5   3   8   16.47   14.03 228-0.55321 0.40238-0.66832 0.87887 0.15997 0.41614
  -5   1  10   20.38   17.69 228-0.55324 0.50736-0.66862 0.73877 0.15957 0.63229
  -6   2  10    5.06   18.22 228-0.55309 0.39269-0.66738 0.80765 0.16126 0.57346
  -7   4   8   -3.66   17.74 228-0.55336 0.17465-0.66951 0.95089 0.15834 0.30625
   0  -9  -5   59.27   16.78 229-0.55373 0.29398-0.67194 0.04022 0.15498-0.68832
   0 -10  -5   -8.68   17.44 229-0.55371 0.29422-0.67181-0.02964 0.15516-0.68845
   0 -11  -5   -1.79   18.53 229-0.55402 0.29457-0.67436-0.09719 0.15162-0.68423
  -4   2   8    8.35   15.28 229-0.55384 0.51702-0.67282 0.81350 0.15376 0.47983
  -4   1   9   -2.42   14.97 229-0.55373 0.56845-0.67193 0.74164 0.15499 0.58449
  -4  -6  -5   16.30   21.91 230-0.55414-0.16302-0.67543 0.25466 0.15014-0.91150
  -5   2   9    5.56   16.87 230-0.55428 0.45580-0.67658 0.81503 0.14853 0.53155
  -5  -3  -4    3.36   20.71 229-0.55422-0.22215-0.67603 0.46711 0.14930-0.85590
  -6   4   7   -2.37   14.96 228-0.55389 0.23660-0.67327 0.95638 0.15314 0.26139
  -8   4   3    3.66   18.43 229-0.55419-0.19925-0.67580 0.95889 0.14962-0.27617
  -9   4   4   -4.48   21.76 230-0.55430-0.26127-0.67676 0.95948 0.14828-0.22387
   2 -12  -3   12.64   17.60 230-0.55440 0.62678-0.67729-0.16650 0.14754-0.35508
   1  -2  -1 6183.01   58.10 230-0.55435 0.61761-0.67685 0.53501 0.14815-0.19761
   1  -4  -3  299.14   14.60 230-0.55433 0.51236-0.67671 0.39516 0.14835-0.41259
   0  -8  -5   49.07   14.39 229-0.55429 0.29441-0.67631 0.11476 0.14891-0.68272
  -1  -3  -4  903.70   20.03 230-0.55448 0.23266-0.67812 0.46813 0.14638-0.62933
  -1  -6  -5    6.92   13.98 229-0.55422 0.18040-0.67566 0.25499 0.14981-0.73998
  -2  -1   8   10.27   16.93 231-0.55470 0.74419-0.67995 0.60800 0.14380 0.59812
  -3  -5  -5   16.01   17.80 230-0.55451-0.04520-0.67832 0.32888 0.14610-0.84513
  -8   4   8   -2.77   19.00 230-0.55462 0.06218-0.67926 0.96102 0.14477 0.26399
   2  -4   0 1679.83   35.71 231-0.55511 0.78406-0.68527 0.40306 0.13642-0.02297
   2  -7  -3   87.33   13.13 230-0.55466 0.62738-0.68089 0.18904 0.14266-0.34958
   1  -6  -4  195.07   13.45 230-0.55469 0.46113-0.68108 0.25956 0.14238-0.51309
   1  -8   6    8.18   26.01 233-0.55579 0.98343-0.69245 0.12821 0.12603 0.57241
   0  -4  -4  290.37   13.91 230-0.55472 0.34724-0.68137 0.40058 0.14197-0.56883
   0  -5   7    3.88   18.16 231-0.55488 0.92311-0.68301 0.32913 0.13964 0.61258
  -1   1   4  108.15   12.79 231-0.55468 0.64934-0.68106 0.75085 0.14241 0.22953
  -2  -3   9   -4.49   18.62 231-0.55496 0.79723-0.68374 0.47213 0.13861 0.71290
  -2  -5  -5   44.15   15.17 230-0.55468 0.06771-0.68111 0.33104 0.14234-0.78784
  -4   1  -2  337.04   25.01 232-0.55534-0.00344-0.68750 0.75840 0.13322-0.57091
   2  -5  -2    0.81   13.46 232-0.55536 0.67895-0.68820 0.33732 0.13225-0.23352
   2  -6   3   20.06   35.24 242-0.55763 0.94190-0.73066 0.30777 0.06690 0.36612
   2 -13  -3   14.38   21.97 232-0.55527 0.62733-0.68721-0.22639 0.13368-0.34078
   0  -3   6  510.82   23.30 233-0.55562 0.86842-0.69104 0.47961 0.12814 0.51285
   0  -7  -5  115.28   15.08 231-0.55506 0.29597-0.68501 0.19381 0.13684-0.67029
  -2   1   6   30.06   14.17 232-0.55543 0.64125-0.68888 0.75834 0.13127 0.39886
  -3  -2  -4   37.65   15.62 232-0.55545 0.00686-0.68904 0.54977 0.13104-0.72561
  -4  -5  -5   32.00   21.40 232-0.55548-0.15857-0.68943 0.34000 0.13047-0.88657
  -5   4   5  145.87   13.00 232-0.55523 0.24667-0.68679 0.96843 0.13428 0.11991
  -7   3   9   -8.12   16.07 232-0.55521 0.22893-0.68662 0.89795 0.13452 0.43789
  -1  -2   7   -0.06   16.18 234-0.55600 0.80609-0.69531 0.55324 0.12203 0.56734
  -1  -4   8   10.84   18.68 234-0.55597 0.85982-0.69505 0.41203 0.12241 0.67691
  -1  -5  -5  547.23   18.34 233-0.55581 0.18265-0.69310 0.34265 0.12528-0.71411
  -2   0   7   -6.35   12.03 233-0.55562 0.69348-0.69098 0.69058 0.12837 0.50921
  -3   3   4  278.55   14.31 232-0.55554 0.42256-0.69007 0.90074 0.12969 0.12995
  -3  -1   9    4.47   16.98 233-0.55562 0.68441-0.69098 0.61910 0.12837 0.66638
  -4   3   6   95.18   15.78 233-0.55573 0.41363-0.69232 0.90349 0.12643 0.29034
  -4  -1  10    2.04   18.97 232-0.55558 0.62380-0.69053 0.61922 0.12903 0.71811
  -5   4   3  102.04   15.42 233-0.55565 0.14355-0.69139 0.97283 0.12778-0.08738
  -7   4   7   10.38   16.49 233-0.55563 0.12497-0.69113 0.97274 0.12816 0.22936
  -9   4   7   -4.44   20.48 233-0.55580-0.10305-0.69312 0.97508 0.12526 0.12047
   2  -4   1    2.63   24.16 239-0.55741 0.83835-0.71731 0.43508 0.08842 0.13119
   0  -6  -5   20.19   15.38 234-0.55631 0.29611-0.69820 0.27742 0.11763-0.65156
  -2   2   4 1865.81   25.96 234-0.55628 0.53769-0.69780 0.83794 0.11823 0.19795
  -2  -2  -4   11.39   13.50 234-0.55625 0.12079-0.69756 0.55817 0.11858-0.65688
  -4  -2  -4    3.15   15.95 235-0.55642-0.10991-0.69976 0.56109 0.11531-0.76997
  -5   4   4   34.33   12.83 234-0.55607 0.19639-0.69531 0.97682 0.12190 0.02611
  -6   4   6    7.46   14.90 233-0.55604 0.18679-0.69484 0.97616 0.12259 0.18355
  -6   3   8    6.85   16.89 234-0.55625 0.29167-0.69752 0.90830 0.11865 0.40162
  -6  -1  -3   -4.34   22.75 235-0.55659-0.28325-0.70204 0.63409 0.11190-0.76720
  -7   4   3   11.90   19.18 235-0.55658-0.08234-0.70184 0.98353 0.11219-0.18240
  -8   4   7  -10.68   17.90 234-0.55625 0.01134-0.69752 0.97878 0.11865 0.18291
  -9   4   5    4.73   20.77 233-0.55608-0.20697-0.69533 0.97854 0.12188-0.09021
  -9   4   6   -8.48   20.79 234-0.55631-0.15610-0.69819 0.98147 0.11764 0.02118
   2  -6  -3  419.84   14.67 234-0.55629 0.62869-0.69921 0.27712 0.11620-0.32371
   2  -9  -4   25.22   14.73 235-0.55650 0.57596-0.70198 0.06986 0.11207-0.42665
   2 -10  -4   28.96   14.25 235-0.55638 0.57604-0.70030-0.00240 0.11457-0.42919
   2 -11  -4  -12.20   16.95 235-0.55651 0.57641-0.70220-0.07026 0.11173-0.42615
   1  -5  -4  451.10   16.74 235-0.55652 0.46267-0.70226 0.35101 0.11164-0.48226
   1  -5   5  464.09   26.17 236-0.55682 0.93123-0.70686 0.35465 0.10467 0.48578
   1  -9  -5    1.70   15.03 235-0.55638 0.41015-0.70038 0.06928 0.11446-0.59133
   1  -9   6   -1.29   31.71 239-0.55734 0.98307-0.71769 0.08450 0.08789 0.60855
   1 -10  -5    3.47   15.02 235-0.55634 0.41057-0.69970-0.00226 0.11546-0.59323
   1 -11  -5   24.08   18.76 234-0.55638 0.41021-0.70036-0.07189 0.11448-0.59106
   0  -1  -2  380.55   18.41 235-0.55646 0.45286-0.70158 0.63063 0.11266-0.32647
   0  -2  -3  921.58   19.90 234-0.55633 0.40083-0.69969 0.55878 0.11549-0.43593
  -3   3   2  221.54   13.55 235-0.55633 0.31877-0.69963 0.91101 0.11557-0.06981
  -3   3   3    1.64   13.95 234-0.55640 0.37146-0.70045 0.91287 0.11434 0.03910
  -3   2   6  249.16   14.36 235-0.55633 0.52759-0.69963 0.83987 0.11557 0.35765
  -3  -4  -5   26.89   18.30 235-0.55652-0.04388-0.70232 0.42283 0.11155-0.81131
  -5   3   7   -0.88   13.74 235-0.55636 0.35273-0.70004 0.91096 0.11496 0.35471
  -5   1  -2  929.00   38.01 237-0.55699-0.11525-0.71018 0.78158 0.09960-0.59216
  -7   0  -2    0.35   31.34 239-0.55729-0.34494-0.71636 0.71888 0.08998-0.69653
  -8   3   9  -11.55   20.51 235-0.55635 0.11611-0.69993 0.91086 0.11513 0.40089
   3  -9  -1  390.21   21.98 236-0.55710 0.84723-0.70861 0.07600 0.10213-0.03987
   3 -10  -1   -6.50   15.59 236-0.55696 0.84762-0.70620 0.00254 0.10580-0.04402
   3 -10   0   39.04   18.03 236-0.55700 0.89914-0.70674 0.00319 0.10497 0.06327
   3 -11  -1   23.81   19.35 236-0.55708 0.84743-0.70818-0.06601 0.10277-0.04086
   3 -11   0    9.42   18.79 236-0.55708 0.89850-0.70822-0.06498 0.10273 0.06590
   2  -4  -1  238.72   14.70 236-0.55684 0.73335-0.70440 0.42262 0.10853-0.10203
   2 -12  -4   -1.85   21.49 236-0.55700 0.57663-0.70686-0.13505 0.10480-0.41875
   1  -8  -5  441.49   18.34 236-0.55696 0.41030-0.70621 0.14521 0.10578-0.58329
   1 -12  -5   11.01   20.96 235-0.55684 0.41016-0.70436-0.13770 0.10859-0.58436
   0   0   2 3739.09   44.15 236-0.55688 0.66171-0.70491 0.70467 0.10776 0.10673
   0  -1   4  527.20   18.78 236-0.55703 0.76651-0.70743 0.63618 0.10393 0.32353
  -1   0  -2 4026.83   46.05 236-0.55699 0.33954-0.70680 0.70682 0.10489-0.37420
  -1   0   5   -0.55   12.60 235-0.55689 0.70577-0.70509 0.70501 0.10748 0.37383
  -1  -1  -3  547.92   17.17 235-0.55684 0.28742-0.70436 0.63421 0.10859-0.48475
  -2  -4  -5  109.52   14.98 235-0.55685 0.06949-0.70456 0.42423 0.10828-0.75345
  -3   1  -2  512.96   25.77 236-0.55714 0.11209-0.70926 0.77996 0.10113-0.48232
  -3   0   8   69.72   15.27 236-0.55700 0.63395-0.70684 0.70566 0.10483 0.58190
  -5   0  10   -6.81   17.37 236-0.55680 0.50975-0.70380 0.70257 0.10943 0.68041
  -6   4   3   13.31   14.52 236-0.55699 0.03196-0.70680 0.98753 0.10489-0.11937
  -6   2   9  -13.49   17.41 236-0.55697 0.34402-0.70642 0.84595 0.10547 0.52172
  -6   1  10    7.15   18.48 236-0.55684 0.39631-0.70436 0.77288 0.10859 0.62437
  -7   4   6    2.02   15.89 236-0.55704 0.07379-0.70744 0.98896 0.10390 0.14643
  -7   3   1   -0.52   24.62 238-0.55746-0.18662-0.71582 0.92759 0.09096-0.37519
  -8   4   4    1.82   18.71 236-0.55690-0.14467-0.70524 0.98768 0.10726-0.12658
   3  -9   0   73.96   20.55 237-0.55717 0.89982-0.71115 0.07847 0.09822 0.07152
   2  -8  -4  165.10   15.46 236-0.55704 0.57756-0.70871 0.14721 0.10197-0.41583
   0  -2   5    4.10   14.46 237-0.55714 0.81859-0.71048 0.56878 0.09926 0.43580
  -1  -1   6  113.27   13.00 237-0.55704 0.75663-0.70876 0.63758 0.10190 0.48298
  -1  -9  -6   -2.41   18.56 237-0.55706 0.13079-0.70895 0.07807 0.10160-0.79761
  -2  -4   9   13.71   20.49 237-0.55719 0.80015-0.71143 0.42831 0.09779 0.75393
  -2  -8  -6   -0.28   20.53 236-0.55701 0.01721-0.70830 0.14723 0.10261-0.85401
  -3   1   7    8.33   13.50 237-0.55709 0.58178-0.70956 0.77953 0.10067 0.48100
  -4   0   9    6.81   15.25 236-0.55703 0.57258-0.70852 0.70796 0.10227 0.63764
  -6   4   5    5.59   13.34 237-0.55704 0.13540-0.70855 0.98985 0.10222 0.09700
  -8   4   5    0.31   18.25 237-0.55719-0.09400-0.71156 0.99480 0.09758-0.00991
  -8   4   6   -0.26   16.23 237-0.55705-0.04067-0.70884 0.99067 0.10177 0.09287
   3 -10  -2   -3.51   16.97 238-0.55740 0.79491-0.71548 0.01347 0.09149-0.13661
   3 -12  -1    2.19   19.86 237-0.55733 0.84660-0.71398-0.12990 0.09383-0.03185
   3 -12   0    2.80   21.34 238-0.55747 0.89928-0.71721-0.12657 0.08878 0.08002
   0  -6   7    3.90   18.71 238-0.55742 0.92382-0.71626 0.29276 0.09027 0.65916
  -1  -8  -6   -1.17   19.43 238-0.55733 0.13109-0.71416 0.15279 0.09356-0.78985
  -2  -2   8    6.88   17.11 239-0.55746 0.74685-0.71693 0.57491 0.08921 0.65194
  -4   2   7    7.23   13.57 238-0.55727 0.46758-0.71284 0.85220 0.09561 0.42885
  -4   0  -3    0.23   18.18 238-0.55747-0.05377-0.71733 0.71829 0.08858-0.63203
  -4  -4  -5   21.16   20.38 238-0.55734-0.15894-0.71429 0.43457 0.09336-0.85148
  -5   2   8    3.95   14.58 238-0.55730 0.40623-0.71347 0.85314 0.09462 0.48126
  -5   1   9  -18.77   15.07 238-0.55729 0.45828-0.71315 0.78287 0.09512 0.58874
  -6   4   4   31.27   12.52 238-0.55729 0.08443-0.71323 0.99509 0.09500-0.00176
  -7   4   4   31.84   15.85 239-0.55746-0.02873-0.71716 0.99875 0.08886-0.05173
  -7   4   5   13.51   17.90 238-0.55744 0.02187-0.71648 0.99845 0.08992 0.05362
  -7   3   8    8.62   18.02 238-0.55741 0.17869-0.71584 0.92679 0.09093 0.37385
   3  -8  -1  247.96   18.66 239-0.55761 0.84784-0.71986 0.15742 0.08444-0.02236
   3  -9  -2    5.33   16.07 238-0.55751 0.79389-0.71745 0.08488 0.08825-0.13322
   3 -11  -2    5.08   16.08 239-0.55752 0.79597-0.71768-0.05655 0.08789-0.13287
   2  -7  -4   -4.73   14.49 239-0.55758 0.57700-0.71952 0.22886 0.08498-0.39954
   1  -7  -5  161.64   15.36 238-0.55747 0.41072-0.71620 0.22608 0.09021-0.56824
   0  -3  -4  193.87   12.72 238-0.55751 0.34922-0.71723 0.50785 0.08859-0.51504
   0  -5  -5   13.68   12.69 238-0.55750 0.29685-0.71701 0.36623 0.08894-0.62320
   0 -10  -6  -10.20   18.75 239-0.55758 0.24525-0.71952 0.01805 0.08498-0.72465
  -1   1   3  139.75   12.88 238-0.55746 0.60071-0.71633 0.78558 0.09002 0.17487
  -1  -4  -5   85.54   13.10 238-0.55751 0.18372-0.71746 0.43820 0.08824-0.67722
  -1  -5   8    4.68   21.55 239-0.55765 0.86283-0.72162 0.36871 0.08163 0.71893
  -2  -7  -6    8.54   17.69 239-0.55753 0.01726-0.71769 0.22683 0.08787-0.84077
  -3   0  -3    5.00   15.07 240-0.55763 0.05917-0.72070 0.72234 0.08309-0.57228
  -4   3   5   17.91   11.85 239-0.55754 0.36343-0.71800 0.92912 0.08739 0.22375
  -4   1   8    6.51   13.78 238-0.55746 0.52046-0.71619 0.78594 0.09024 0.54217
  -4  -2  10   27.76   19.51 239-0.55758 0.62539-0.71930 0.57752 0.08533 0.76134
  -5  -2  -4    9.14   19.81 239-0.55756-0.21979-0.71875 0.57976 0.08619-0.79264
   3  -8   0  303.45   22.74 240-0.55768 0.90011-0.72556 0.16306 0.07541 0.09370
   3 -12  -2    8.77   19.79 239-0.55760 0.79527-0.72216-0.12173 0.08088-0.12566
   3 -13  -1    3.55   23.72 240-0.55768 0.84749-0.72495-0.18894 0.07640-0.01420
   1  -3  -3  286.66   14.08 239-0.55758 0.51620-0.72156 0.51113 0.08184-0.34495
   0  -9  -6   18.33   18.77 239-0.55760 0.24510-0.72191 0.09015 0.08129-0.72125
  -1  -2  -4 1042.31   20.74 240-0.55762 0.23628-0.72300 0.58325 0.07954-0.56172
  -1  -7  -6   33.08   18.48 240-0.55763 0.13076-0.72357 0.23212 0.07862-0.77630
  -2   2   3 1097.06   20.90 240-0.55761 0.48642-0.72234 0.86307 0.08060 0.12779
  -3  -2   9   -3.29   16.86 240-0.55759 0.68652-0.72177 0.58072 0.08150 0.71444
   3  -8  -2  141.44   16.32 241-0.55770 0.79539-0.72921 0.16743 0.06961-0.11531
   3 -10   1    1.40   20.97 241-0.55770 0.95193-0.72976 0.02612 0.06871 0.20669
   3 -11   1   36.33   25.26 242-0.55772 0.95255-0.73150-0.04229 0.06584 0.21004
   2  -5  -3   93.04   12.29 240-0.55763 0.63008-0.72568 0.37454 0.07537-0.28257
   0  -8  -6    2.89   15.61 241-0.55768 0.24493-0.72795 0.16713 0.07167-0.71240
  -4   3   1   26.30   15.88 242-0.55771 0.15533-0.73087 0.94203 0.06689-0.18299
  -5   3   6   48.50   14.74 241-0.55768 0.30242-0.72797 0.93827 0.07164 0.29030
  -6   3   7   -7.99   13.68 241-0.55764 0.23999-0.72571 0.93647 0.07532 0.33817
  -7   2   9    4.16   17.05 241-0.55765 0.23092-0.72612 0.86660 0.07465 0.49730
  -8   3   8   -2.62   19.42 241-0.55764 0.06471-0.72540 0.93586 0.07582 0.33261
   3 -10  -3   47.88   18.73 242-0.55776 0.74270-0.73238 0.02948 0.06442-0.21725
   3 -11  -3    2.02   17.58 243-0.55777 0.74458-0.73393-0.04041 0.06183-0.21405
   3 -13  -2   10.64   22.14 242-0.55776 0.79665-0.73228-0.18360 0.06457-0.10938
   2  -4  -2   22.69   14.79 242-0.55776 0.68190-0.73195 0.45054 0.06513-0.16587
   1  -4  -4   92.42   13.30 242-0.55775 0.46392-0.73079 0.45025 0.06704-0.43693
   1  -6  -5   27.93   13.23 242-0.55773 0.41082-0.73019 0.30890 0.06804-0.54591
   0  -4   6   84.60   19.51 243-0.55775 0.87126-0.73518 0.45331 0.05974 0.58086
  -1  -3   7   -5.44   16.27 242-0.55776 0.80925-0.73182 0.52081 0.06533 0.62713
  -2   1   5   62.67   11.81 242-0.55775 0.59125-0.73097 0.80105 0.06674 0.35553
  -2  -6  -6    6.47   16.69 242-0.55774 0.01708-0.73042 0.30986 0.06766-0.82065
  -3  -6  -6    6.96   21.73 241-0.55775-0.09444-0.73096 0.31128 0.06677-0.87105
  -5  -1  10    1.20   20.55 242-0.55775 0.51217-0.73134 0.66090 0.06614 0.72730
  -8   3   2   67.84   25.16 243-0.55775-0.24728-0.73764 0.95037 0.05562-0.28805
  -9   3   3    3.03   22.40 243-0.55776-0.30919-0.73418 0.94561 0.06142-0.24327
   3  -9  -3    6.18   16.17 243-0.55770 0.74271-0.73572 0.10378 0.05884-0.21067
   3  -9   1    4.27   20.62 244-0.55764 0.95281-0.74115 0.10690 0.04964 0.22603
   3 -12  -3    6.32   20.18 243-0.55771 0.74252-0.73533-0.10643 0.05950-0.21076
   3 -12   1   15.26   24.86 244-0.55767 0.95244-0.73944-0.10504 0.05256 0.22315
   2  -6  -4   59.65   13.95 243-0.55770 0.57710-0.73624 0.31513 0.05796-0.37272
   2 -10  -5    6.80   15.16 243-0.55771 0.52530-0.73441 0.03149 0.06102-0.48295
   2 -11  -5    3.96   17.73 243-0.55771 0.52529-0.73421-0.03822 0.06136-0.48273
   1  -2  -2 1423.41   27.25 243-0.55769 0.56785-0.73619 0.59576 0.05805-0.21506
   1  -2   2 5649.53   72.58 244-0.55766 0.77654-0.73949 0.59810 0.05247 0.21710
  -1  -6  -6   27.05   17.00 243-0.55771 0.13169-0.73500 0.31487 0.06004-0.75500
  -2   2   1 1640.15   32.63 243-0.55769 0.38270-0.73733 0.87805 0.05613-0.06068
  -2  -1   7    4.35   13.72 242-0.55771 0.69646-0.73381 0.66274 0.06204 0.57540
  -2  -3  -5   -5.42   15.14 243-0.55770 0.06792-0.73569 0.52674 0.05889-0.70573
  -2  -5   9    1.77   20.73 244-0.55770 0.79914-0.73725 0.38480 0.05626 0.79109
  -3   2   5   33.12   11.84 242-0.55770 0.47750-0.73358 0.87353 0.06242 0.30408
  -3  -3  -5   43.05   14.34 242-0.55770-0.04394-0.73396 0.52468 0.06178-0.76323
  -6   0  10  -27.40   18.30 243-0.55771 0.39708-0.73431 0.73380 0.06119 0.67354
   3  -7  -1  625.06   22.51 244-0.55775 0.84724-0.74041 0.24824 0.05084 0.00942
   2  -9  -5   14.25   15.23 243-0.55780 0.52519-0.73745 0.10484 0.05586-0.47791
   2 -12  -5   30.39   20.45 243-0.55779 0.52543-0.73735-0.10618 0.05602-0.47754
   1 -10  -6   35.00   18.28 244-0.55777 0.35908-0.73974 0.03713 0.05197-0.63655
   0   0   1    0.68   13.50 244-0.55778 0.61009-0.73880 0.73864 0.05357 0.05340
   0  -7  -6   14.98   15.54 243-0.55780 0.24495-0.73721 0.24586 0.05626-0.69738
   0  -7   7    7.83   21.02 244-0.55774 0.92432-0.74160 0.24803 0.04879 0.70014
  -2   2   2 4478.55   41.43 244-0.55778 0.43535-0.73858 0.87918 0.05394 0.04872
  -2   0   6  233.39   16.81 244-0.55774 0.64491-0.74089 0.73883 0.05002 0.47908
  -4   3   4    1.54   10.78 243-0.55779 0.31120-0.73801 0.94962 0.05492 0.14929
  -5   0  -3   -5.46   21.16 245-0.55769-0.16961-0.74369 0.74602 0.04520-0.64545
  -6   2   8  -11.33   17.37 244-0.55776 0.29267-0.73986 0.87986 0.05177 0.46798
  -7   3   7    3.60   16.55 244-0.55776 0.12713-0.74058 0.95113 0.05054 0.30625
  -8   2   9    8.13   19.20 243-0.55780 0.11749-0.73770 0.87860 0.05544 0.46013
   2  -8  -5   -4.18   14.17 245-0.55759 0.52502-0.74385 0.18247 0.04473-0.46645
   1  -9  -6    8.69   15.93 244-0.55764 0.35902-0.74228 0.11029 0.04743-0.63161
   0  -4  -5    0.82   12.23 245-0.55765 0.29678-0.74160 0.46215 0.04861-0.58287
  -1  -6   8    7.59   22.29 246-0.55748 0.86120-0.74702 0.32411 0.03921 0.75888
  -2   0  -3    0.21   14.98 245-0.55758 0.17300-0.74398 0.74568 0.04451-0.47633
  -3  -1  -4 1443.47   28.04 245-0.55761 0.00801-0.74317 0.67496 0.04590-0.63993
  -3  -1   8   27.13   14.84 245-0.55763 0.63459-0.74229 0.67123 0.04742 0.64095
  -4  -1   9   -7.69   15.84 245-0.55764 0.57181-0.74150 0.67024 0.04878 0.68983
  -4  -3  -5    5.52   19.48 244-0.55763-0.15614-0.74240 0.53335 0.04723-0.80205
  -4  -3  10   -6.98   18.26 245-0.55759 0.62467-0.74385 0.53234 0.04473 0.80194
  -6   1   9  -13.52   15.65 245-0.55765 0.34444-0.74169 0.81130 0.04844 0.57872
  -9   3   7    0.59   20.49 245-0.55763-0.10181-0.74189 0.95337 0.04811 0.19744
   3  -7  -2   49.79   12.09 245-0.55768 0.79568-0.74546 0.25312 0.04168-0.08669
   3  -8  -3  161.69   13.75 245-0.55768 0.74355-0.74525 0.18337 0.04206-0.19390
   1  -4   4  305.65   22.01 247-0.55746 0.88034-0.75044 0.46855 0.03293 0.45079
  -1   1   2 1336.77   26.02 246-0.55766 0.54815-0.74590 0.81647 0.04092 0.11766
  -1  -3  -5   32.86   14.58 246-0.55760 0.18402-0.74742 0.53796 0.03827-0.62710
  -2  -3   8   52.33   20.42 246-0.55757 0.74725-0.74803 0.53593 0.03719 0.70442
  -2  -5  -6   -6.17   20.13 246-0.55761 0.01596-0.74732 0.39777 0.03843-0.79231
  -4   2   6  189.29   14.19 246-0.55765 0.41547-0.74588 0.88644 0.04095 0.37630
  -4  -1  -4    3.07   19.12 247-0.55747-0.10674-0.75045 0.68170 0.03292-0.68417
  -5   2   7   -2.99   14.09 246-0.55765 0.35391-0.74604 0.88697 0.04068 0.42904
  -5   0   9   -2.71   14.99 246-0.55765 0.45871-0.74604 0.74601 0.04068 0.64338
  -6   3   1   57.86   20.04 248-0.55732-0.07245-0.75322 0.96511 0.02797-0.25619
  -8   3   7   -5.71   16.89 246-0.55767 0.01251-0.74545 0.95639 0.04170 0.25969
   3  -7   0    1.84   17.03 248-0.55727 0.89972-0.75411 0.26142 0.02629 0.14197
   3 -11  -4   11.21   18.99 247-0.55735 0.69187-0.75251-0.02175 0.02918-0.28848
   1  -5  -5   31.20   12.46 246-0.55752 0.41064-0.74926 0.39826 0.03495-0.51312
   1  -6   5    8.38   20.31 248-0.55725 0.93293-0.75444 0.33114 0.02571 0.56526
   1  -8  -6   22.18   16.02 246-0.55754 0.35890-0.74885 0.18692 0.03568-0.62087
   0  -6  -6   31.40   14.30 247-0.55751 0.24473-0.74961 0.32866 0.03433-0.67512
  -2  -1  -4  464.35   19.90 247-0.55741 0.12177-0.75156 0.68203 0.03086-0.56917
  -3   1   6   43.17   11.82 247-0.55747 0.52977-0.75034 0.82061 0.03305 0.44040
  -3  -3   9    5.41   17.72 247-0.55753 0.68620-0.74928 0.53789 0.03492 0.76032
  -3  -5  -6   19.09   19.45 246-0.55751-0.09644-0.74933 0.39930 0.03484-0.84254
  -4   3   3  184.14   15.46 247-0.55741 0.25924-0.75165 0.96268 0.03071 0.06641
  -5   3   5    0.23   12.19 247-0.55751 0.24908-0.74956 0.96110 0.03442 0.22108
  -5   1   8   15.20   14.83 247-0.55737 0.40650-0.75233 0.82166 0.02949 0.54507
  -6   3   6    3.16   11.75 247-0.55753 0.18766-0.74909 0.95995 0.03526 0.27098
  -9   3   4   -1.45   21.45 248-0.55732-0.25931-0.75335 0.96575 0.02766-0.10321
   3 -10  -4    0.78   15.27 248-0.55738 0.69140-0.75281 0.04988 0.02866-0.28780
   3 -12  -4   -1.12   20.02 248-0.55725 0.69161-0.75490-0.08977 0.02489-0.28426
   2  -7  -5   82.61   14.17 248-0.55730 0.52480-0.75413 0.26192 0.02629-0.44784
  -1   0   4 1942.48   28.18 248-0.55723 0.65297-0.75523 0.75436 0.02430 0.34691
  -1  -2   6  234.91   15.96 248-0.55729 0.75727-0.75444 0.61324 0.02573 0.55902
  -1  -5  -6  181.15   16.38 247-0.55739 0.13213-0.75257 0.40241 0.02909-0.72508
  -2  -6   9    0.50   23.11 249-0.55713 0.79819-0.75686 0.33458 0.02134 0.82509
  -3   0   7   -4.02   13.24 248-0.55738 0.58096-0.75271 0.75207 0.02883 0.55169
  -4   3   2 1356.71   26.18 248-0.55730 0.20710-0.75416 0.96528 0.02624-0.03525
  -4   1   7    3.92   13.77 248-0.55723 0.46787-0.75534 0.82548 0.02410 0.50106
  -4   0   8    9.42   13.41 248-0.55735 0.52026-0.75323 0.75261 0.02790 0.60393
  -5   3   1    0.43   16.96 249-0.55711 0.03957-0.75692 0.96901 0.02123-0.19354
  -7   2   8   10.55   15.49 248-0.55727 0.17826-0.75462 0.89639 0.02540 0.43993
  -9   3   6    3.89   18.89 248-0.55736-0.15426-0.75309 0.96479 0.02815 0.11031
   3  -7  -3   -0.11   12.77 249-0.55697 0.74204-0.75904 0.26794 0.01754-0.16959
   3  -8   1  809.62   35.84 251-0.55641 0.95046-0.76532 0.20257 0.00584 0.26935
   3  -9  -4   -6.57   14.61 249-0.55713 0.69075-0.75689 0.12442 0.02148-0.28068
   2  -5  -4  267.89   14.06 249-0.55704 0.57658-0.75793 0.40689 0.01958-0.33368
   1  -7  -6   13.71   14.62 249-0.55705 0.35806-0.75788 0.26622 0.01967-0.60431
   0  -8   7    5.64   21.92 251-0.55656 0.92094-0.76376 0.20126 0.00877 0.73716
  -5  -2  10    5.58   20.69 249-0.55699 0.50997-0.75861 0.61729 0.01833 0.77059
  -7   3   6   -3.34   16.75 249-0.55695 0.07272-0.75916 0.97087 0.01732 0.23357
  -7   1   9   -8.20   19.46 249-0.55695 0.23001-0.75910 0.82961 0.01743 0.55515
  -9   3   5    2.92   18.70 248-0.55710-0.20644-0.75706 0.97013 0.02118 0.01071
   2  -4  -3  196.42   13.12 249-0.55695 0.62884-0.75997 0.47933 0.01588-0.22363
   0  -2  -4   76.40   12.11 250-0.55685 0.34863-0.76105 0.62158 0.01389-0.44023
   0  -3   5  221.03   20.15 251-0.55654 0.81805-0.76469 0.55294 0.00707 0.52679
  -1  -4   7   13.03   16.64 250-0.55663 0.80967-0.76359 0.48120 0.00915 0.68470
  -1  -7   8   11.26   22.58 251-0.55656 0.86184-0.76435 0.27053 0.00773 0.79283
  -3   2   4  280.35   15.47 250-0.55671 0.42498-0.76278 0.90285 0.01066 0.24954
  -6  -1  10    3.66   16.71 249-0.55690 0.39733-0.76059 0.69028 0.01475 0.72058
  -8   3   6   -3.23   15.85 250-0.55688-0.04067-0.76077 0.97228 0.01441 0.18026
  -8   2   8    1.13   20.47 250-0.55673 0.06380-0.76247 0.90438 0.01126 0.39829
   3  -8  -4   81.44   13.32 251-0.55661 0.69058-0.76460 0.20240 0.00717-0.26508
   2 -10  -6    0.19   17.21 251-0.55660 0.47160-0.76471 0.06262 0.00696-0.53497
   2 -11  -6    2.35   16.90 251-0.55663 0.47214-0.76435-0.00851 0.00764-0.53634
   1  -3  -4  203.98   14.53 251-0.55648 0.46224-0.76600 0.55606 0.00451-0.37476
   1  -3   3    5.02   16.60 253-0.55592 0.82592-0.77092 0.55925-0.00493 0.38110
   0  -5  -6   50.12   15.19 251-0.55644 0.24468-0.76632 0.41578 0.00392-0.64367
  -1  -1   5  163.20   13.10 251-0.55666 0.70440-0.76402 0.69267 0.00826 0.46966
  -8   3   3    7.27   18.75 251-0.55639-0.19849-0.76677 0.97967 0.00305-0.12959
  -9   2   8   -5.03   18.09 251-0.55667-0.04979-0.76408 0.90447 0.00814 0.34428
   3  -6  -2   -2.93   14.16 252-0.55615 0.79349-0.76963 0.34835-0.00239-0.04291
   3  -6  -1  197.91   19.85 252-0.55597 0.84547-0.77112 0.34914-0.00528 0.06658
   2  -6  -5  187.22   14.16 252-0.55626 0.52381-0.76866 0.34779-0.00053-0.42028
   2  -9  -6   10.65   15.42 252-0.55630 0.47102-0.76835 0.13616 0.00006-0.52827
   0  -1  -3  390.03   15.43 251-0.55633 0.40100-0.76801 0.69786 0.00072-0.32019
   0  -1   3  406.86   18.31 252-0.55627 0.71312-0.76861 0.69763-0.00044 0.32088
   0  -5   6   51.28   18.48 253-0.55587 0.86950-0.77187 0.41890-0.00674 0.64716
  -1   1   0 1823.72   67.04 254-0.55551 0.44206-0.77467 0.84494-0.01225-0.04354
  -2   1   4  153.53   13.06 252-0.55622 0.53760-0.76907 0.83936-0.00133 0.31696
  -2  -2  -5   24.95   15.31 252-0.55605 0.06808-0.77042 0.63090-0.00392-0.64099
  -2  -2   7   11.29   15.49 253-0.55602 0.69411-0.77079 0.62889-0.00465 0.64116
  -2  -4  -6   38.94   15.77 251-0.55634 0.01579-0.76790 0.48804 0.00093-0.75360
  -3  -2  -5   17.20   15.82 252-0.55612-0.04586-0.76993 0.63083-0.00299-0.69852
  -3  -4  -6   11.25   19.70 252-0.55601-0.09791-0.77080 0.49113-0.00466-0.80327
  -4  -2   9    3.99   16.63 252-0.55631 0.57131-0.76819 0.62702 0.00037 0.73941
  -5   3   4   26.06   11.25 251-0.55638 0.19649-0.76757 0.97837 0.00156 0.14649
  -5  -1  -4  137.66   24.04 253-0.55577-0.22176-0.77278 0.70472-0.00852-0.69732
  -6   3   5    9.79   13.65 252-0.55633 0.13495-0.76810 0.97874 0.00054 0.19849
  -6   2   7   16.36   13.67 252-0.55630 0.23939-0.76828 0.90889 0.00019 0.41310
  -6   1  -2    0.42   31.80 256-0.55400-0.23334-0.78421 0.85636-0.03160-0.51739
  -7   3   2   52.75   20.68 253-0.55588-0.13470-0.77191 0.98421-0.00683-0.16853
  -8   3   5   -0.44   17.86 252-0.55608-0.09481-0.77027 0.98278-0.00363 0.09138
  -8   1   9   -1.87   18.76 252-0.55614 0.11582-0.76974 0.83965-0.00261 0.51832
   3 -10  -5   -1.97   17.22 253-0.55570 0.63662-0.77323 0.07093-0.00945-0.35607
   3 -11  -5    8.70   16.91 253-0.55586 0.63686-0.77195-0.00140-0.00693-0.35864
   3 -12  -5   13.58   18.90 253-0.55567 0.63698-0.77346-0.07037-0.00990-0.35570
   1  -4  -5  312.37   15.93 253-0.55575 0.40830-0.77283 0.49321-0.00866-0.46906
   1  -6  -6    4.98   13.98 252-0.55597 0.35686-0.77105 0.34992-0.00518-0.57991
   0  -3  -5  189.01   13.72 252-0.55600 0.29653-0.77082 0.56111-0.00474-0.52831
   0  -8  -7   14.16   17.20 252-0.55599 0.19108-0.77093 0.20948-0.00495-0.74240
  -1   1   1    3.33   12.49 252-0.55595 0.49442-0.77119 0.84140-0.00546 0.05636
  -1  -4  -6  102.81   16.90 253-0.55575 0.12961-0.77289 0.49404-0.00878-0.68632
  -1  -7  -7   21.56   19.43 253-0.55590 0.07731-0.77165 0.28071-0.00636-0.79640
  -2   1  -2  979.12   30.37 253-0.55552 0.22432-0.77453 0.84556-0.01200-0.31243
  -2  -4   8   38.05   17.90 253-0.55562 0.74623-0.77379 0.49097-0.01056 0.75424
  -3  -2   8   25.79   15.33 253-0.55570 0.63279-0.77323 0.63161-0.00945 0.69758
  -3  -4   9  -10.74   19.45 253-0.55574 0.68405-0.77289 0.49115-0.00877 0.80294
  -6   0   9    7.98   16.40 252-0.55591 0.34389-0.77151 0.77128-0.00607 0.63389
  -7   3   5   -0.75   16.89 253-0.55566 0.01905-0.77352 0.98574-0.01001 0.15395
  -8   3   4   -3.32   20.54 254-0.55548-0.14647-0.77487 0.98647-0.01268-0.00659
   3  -7  -4   23.71   14.07 254-0.55514 0.68795-0.77651 0.28482-0.01593-0.24289
   2  -8  -6  -12.18   15.10 254-0.55536 0.47038-0.77497 0.21380-0.01288-0.51520
   1  -2  -3  182.43   13.52 254-0.55537 0.51278-0.77499 0.63521-0.01292-0.25087
   0  -2   4   74.12   13.92 254-0.55492 0.76484-0.77802 0.63565-0.01898 0.44601
  -1  -1  -4  434.37   17.11 254-0.55527 0.23292-0.77561 0.70724-0.01415-0.46793
  -4   2   5  121.48   12.48 254-0.55535 0.36231-0.77507 0.91565-0.01307 0.32413
  -5   2   6   34.82   12.82 254-0.55530 0.30046-0.77545 0.91597-0.01383 0.37603
  -5  -1   9  -12.28   14.58 254-0.55538 0.45636-0.77489 0.70387-0.01271 0.69614
  -6   1   8    2.70   14.78 254-0.55539 0.29026-0.77480 0.84448-0.01255 0.53276
   3  -6  -3   18.15   12.17 255-0.55474 0.73980-0.77866 0.35671-0.02028-0.13208
   3  -9  -5  107.55   15.61 254-0.55490 0.63631-0.77774 0.14673-0.01843-0.34696
   1  -9  -7   33.35   18.64 255-0.55480 0.30412-0.77831 0.14660-0.01956-0.67135
   0  -7  -7    7.65   18.50 254-0.55478 0.19109-0.77841 0.28875-0.01976-0.72433
  -4  -2  -5    7.57   19.68 255-0.55454-0.16090-0.77997 0.64115-0.02292-0.73407
  -5   3   2   77.38   16.28 255-0.55463 0.09174-0.77936 0.99065-0.02168-0.04248
  -5   3   3    8.26   11.40 255-0.55482 0.14276-0.77818 0.98940-0.01931 0.06056
  -5  -3  10   -2.18   19.68 255-0.55458 0.50773-0.77972 0.56758-0.02242 0.81216
  -7   2   7   30.59   16.16 255-0.55452 0.12371-0.78012 0.92110-0.02323 0.38097
   2  -3  -1 1187.61   27.37 256-0.55390 0.72996-0.78366 0.57250-0.03054 0.03683
  -1  -2  -5   22.55   13.86 256-0.55407 0.18003-0.78268 0.64350-0.02849-0.56082
  -1  -6  -7   22.89   18.78 256-0.55394 0.07570-0.78341 0.36327-0.03002-0.77294
  -2  -1   6   31.44   14.16 256-0.55388 0.63958-0.78377 0.71204-0.03076 0.55997
  -6   3   2    8.22   17.54 257-0.55364-0.02347-0.78506 0.99607-0.03345-0.08772
  -6   3   4   67.55   12.71 256-0.55432 0.08155-0.78123 0.99233-0.02552 0.11810
  -6   0  -3    0.86   26.67 259-0.55255-0.28630-0.79046 0.79299-0.04493-0.61082
  -6  -2  10   11.97   20.01 256-0.55392 0.39417-0.78352 0.64171-0.03024 0.76514
  -7   3   3    5.75   16.84 257-0.55358-0.08498-0.78536 0.99650-0.03407-0.03612
  -7   3   4  -21.03   16.03 256-0.55400-0.03399-0.78309 0.99484-0.02934 0.06596
  -9   2   2    0.37   24.78 257-0.55344-0.36600-0.78606 0.92726-0.03555-0.25323
  -9   2   7   -3.89   18.46 256-0.55424-0.10426-0.78161 0.92253-0.02630 0.27202
   3  -8  -5   34.22   14.42 257-0.55370 0.63457-0.78482 0.22274-0.03289-0.33274
   2  -3  -2   12.95   12.61 257-0.55337 0.67656-0.78655 0.57651-0.03651-0.06475
   2  -4  -4  448.42   16.16 257-0.55364 0.57353-0.78517 0.50446-0.03362-0.28018
   2  -7  -6   -3.51   14.40 257-0.55368 0.46885-0.78490 0.29350-0.03304-0.49588
   1  -8  -7   -6.36   17.28 257-0.55374 0.30300-0.78457 0.22397-0.03237-0.65893
   0  -4  -6   87.07   15.58 257-0.55336 0.24227-0.78661 0.50682-0.03664-0.60273
  -2   0   5   -0.82   10.91 257-0.55374 0.58684-0.78466 0.78418-0.03254 0.45542
  -4  -1   8   -8.02   13.59 257-0.55376 0.51605-0.78449 0.71297-0.03220 0.66381
  -5   1   7    4.66   12.96 257-0.55365 0.35072-0.78506 0.85485-0.03338 0.50246
  -5   0   8   16.67   14.43 256-0.55378 0.40311-0.78436 0.78328-0.03192 0.60764
  -6   3   3   10.69   15.36 258-0.55311 0.02743-0.78788 0.99946-0.03933 0.02484
  -7   2   0    7.02   29.80 260-0.55147-0.24504-0.79523 0.93813-0.05530-0.33591
  -8   2   7   -3.61   16.69 257-0.55374 0.00911-0.78457 0.92517-0.03237 0.33405
   2  -5  -5   13.53   11.67 257-0.55312 0.52027-0.78742 0.43652-0.03837-0.38398
   1  -5  -6  151.79   14.83 257-0.55319 0.35623-0.78708 0.43664-0.03765-0.54546
   1  -7   5    0.45   20.85 257-0.55301 0.93155-0.78791 0.29242-0.03940 0.63406
  -1   0  -3    4.34   10.37 257-0.55303 0.28280-0.78788 0.78887-0.03934-0.33704
  -1  -5   7   36.01   18.95 258-0.55243 0.80598-0.79070 0.43644-0.04539 0.73856
  -3   2   3 1442.75   23.96 258-0.55301 0.36875-0.78793 0.92831-0.03945 0.19272
  -3   1   5    6.74   12.25 257-0.55314 0.47296-0.78731 0.85670-0.03812 0.40456
  -3  -1   7   19.96   13.04 258-0.55302 0.57752-0.78789 0.71638-0.03936 0.62012
  -7   1   8    2.79   15.48 258-0.55291 0.17489-0.78839 0.85818-0.04041 0.50481
  -7   0   9   -8.65   17.54 258-0.55306 0.22684-0.78767 0.78657-0.03889 0.61029
   3  -6  -4   -4.54   13.42 259-0.55200 0.68468-0.79261 0.37224-0.04986-0.20850
   3 -11  -6    0.17   19.51 259-0.55207 0.58167-0.79235 0.01986-0.04930-0.42271
   3 -11   2   10.80   34.91 263-0.54929 0.99636-0.80299 0.02798-0.07338 0.45640
   2 -10  -7    9.09   18.88 259-0.55192 0.41536-0.79299 0.09004-0.05070-0.58510
   1  -7  -7   -7.01   15.91 259-0.55202 0.30122-0.79256 0.30248-0.04975-0.64073
   0  -6  -7    9.38   16.62 258-0.55246 0.18808-0.79060 0.37036-0.04550-0.70119
  -1  -3   6  299.47   18.34 259-0.55210 0.75219-0.79222 0.58029-0.04900 0.63387
  -2  -3  -6    2.69   18.13 259-0.55207 0.01092-0.79235 0.58388-0.04930-0.70329
  -3  -5   9  -15.38   18.71 259-0.55235 0.68106-0.79106 0.43854-0.04649 0.84222
  -4   1   6   29.99   12.17 258-0.55253 0.41086-0.79027 0.85950-0.04478 0.46213
  -4   0   7    2.84   13.25 259-0.55229 0.46319-0.79137 0.79066-0.04717 0.57240
  -4  -3   9    2.72   16.38 259-0.55235 0.56716-0.79106 0.57906-0.04649 0.78595
  -6   2   6   30.98   14.71 259-0.55202 0.18297-0.79251 0.93345-0.04963 0.35623
   4 -11  -3   -0.22   18.47 260-0.55121 0.85001-0.79584 0.02371-0.05696-0.03865
   4 -12  -3    3.73   20.45 261-0.55086 0.85099-0.79719-0.04723-0.06000-0.03548
   3  -6   0  357.81   22.03 261-0.55076 0.89261-0.79760 0.37511-0.06092 0.22927
   3  -7  -5  116.62   15.40 260-0.55136 0.63291-0.79523 0.30393-0.05560-0.30900
   3 -10  -6   -7.85   17.66 260-0.55165 0.58102-0.79402 0.09210-0.05292-0.41909
   0   0  -1    1.79   13.66 259-0.55161 0.49944-0.79421 0.79447-0.05334-0.05348
  -2  -5   8    2.45   18.63 260-0.55133 0.74116-0.79534 0.44305-0.05584 0.79923
  -3   0   6  238.49   14.16 259-0.55183 0.52384-0.79326 0.79227-0.05125 0.52425
  -3  -3  -6   20.39   19.52 260-0.55143-0.10084-0.79495 0.58646-0.05498-0.75124
  -8   2   1   -4.44   26.25 261-0.55062-0.30781-0.79814 0.94090-0.06213-0.27802
  -8   1   8  -12.45   17.42 260-0.55160 0.05938-0.79425 0.86464-0.05343 0.46268
  -8   0   9   -3.93   18.17 261-0.55091 0.11311-0.79704 0.79574-0.05966 0.57285
  -9   2   6   -3.10   21.21 260-0.55131-0.15849-0.79544 0.93633-0.05607 0.19480
  -9   1   8   -2.29   21.42 260-0.55136-0.05362-0.79524 0.86481-0.05562 0.40792
   4 -10  -3  122.29   19.02 261-0.55057 0.84912-0.79900 0.09608-0.06413-0.03318
   4 -11  -2    3.58   18.14 261-0.55085 0.90293-0.79788 0.02294-0.06158 0.07288
   4 -12  -2  -15.53   20.57 261-0.55072 0.90278-0.79840-0.04603-0.06278 0.07397
   3  -9  -6   24.58   16.50 261-0.55079 0.57992-0.79815 0.16613-0.06221-0.40997
   2  -6  -6   32.41   13.86 260-0.55113 0.46609-0.79684 0.37590-0.05925-0.46921
   2  -9  -7   32.29   17.56 261-0.55116 0.41463-0.79674 0.16488-0.05902-0.57654
   0  -6   6   18.81   19.64 262-0.55024 0.86391-0.80018 0.37663-0.06685 0.70857
  -1  -3  -6   19.02   14.13 260-0.55110 0.12483-0.79697 0.58767-0.05954-0.63643
  -1  -5  -7    8.61   18.76 261-0.55085 0.07212-0.79793 0.44808-0.06170-0.74215
  -2  -5  -7    0.14   20.18 261-0.55112-0.04180-0.79687 0.44840-0.05930-0.79972
  -3  -3   8   41.39   16.74 261-0.55071 0.62810-0.79843 0.58607-0.06284 0.75079
  -5  -2  -5    7.95   24.25 261-0.55060-0.27587-0.79887 0.66010-0.06385-0.74583
  -5  -2   9   -3.24   16.02 261-0.55071 0.45178-0.79845 0.65649-0.06289 0.74587
  -6  -1   9   -0.76   17.35 261-0.55110 0.33855-0.79694 0.72536-0.05947 0.68654
   4 -10  -2   28.85   18.79 262-0.55000 0.90126-0.80052 0.09680-0.06750 0.07856
   4 -11  -4   11.07   19.10 262-0.54956 0.79755-0.80205 0.02743-0.07104-0.13172
   4 -12  -4   25.71   21.34 262-0.54958 0.79728-0.80196-0.04205-0.07083-0.13150
   3  -5  -2  233.04   14.14 262-0.55009 0.78791-0.80020 0.44778-0.06676 0.02225
   2  -3  -3  518.36   16.52 261-0.55026 0.62212-0.79953 0.58867-0.06522-0.14267
   1  -3  -5   -1.94   10.72 262-0.55014 0.40315-0.80000 0.59098-0.06630-0.41117
  -2  -3   7   26.16   14.96 262-0.55012 0.68853-0.80007 0.58762-0.06647 0.70333
  -4   2   4  532.91   16.22 262-0.55003 0.30372-0.80043 0.94117-0.06730 0.27172
  -5   2   5  209.40   14.48 262-0.55009 0.24223-0.80015 0.94082-0.06665 0.32180
  -7   2   6    3.50   17.29 262-0.54966 0.06817-0.80169 0.94130-0.07022 0.31994
  -8   2   6   12.31   17.63 262-0.54973-0.04627-0.80146 0.94258-0.06967 0.26452
   4  -9  -3    7.96   17.28 263-0.54893 0.84638-0.80374 0.17224-0.07504-0.02061
   4 -10  -4   92.20   18.55 263-0.54893 0.79527-0.80374 0.10073-0.07504-0.12856
   3  -5  -3   -5.43   10.43 263-0.54914 0.73396-0.80307 0.45243-0.07346-0.07849
   3  -8  -6   57.45   18.47 263-0.54863 0.57831-0.80471 0.24310-0.07733-0.39429
   3 -10   2   86.27   42.78 268-0.54433 0.99088-0.81668 0.11258-0.10716 0.49026
   2  -8  -7    2.84   15.96 263-0.54929 0.41265-0.80257 0.24189-0.07228-0.56295
   1  -6  -7    2.16   17.97 263-0.54882 0.29772-0.80414 0.38414-0.07598-0.61603
   0  -2  -5   11.33   11.30 263-0.54905 0.28849-0.80333 0.66410-0.07407-0.45999
   0  -5  -7   10.24   18.99 263-0.54861 0.18420-0.80478 0.45507-0.07750-0.66964
  -1   0   3    2.30   11.13 262-0.54943 0.59233-0.80207 0.80147-0.07113 0.33581
  -3   0  -4   40.41   18.64 263-0.54862-0.00005-0.80478 0.80634-0.07750-0.51691
  -6   1   7    1.19   13.48 263-0.54922 0.23224-0.80278 0.87255-0.07278 0.48626
  -6   0   8   14.40   14.74 263-0.54910 0.28494-0.80321 0.80271-0.07378 0.59428
  -6  -3  10    8.79   18.80 262-0.54932 0.38988-0.80245 0.58998-0.07201 0.80590
  -9   2   3   -1.49   20.69 262-0.54900-0.31802-0.80350 0.94681-0.07446-0.10723
  -9   2   5    6.42   18.86 262-0.54920-0.21551-0.80285 0.94597-0.07295 0.10544
   4  -9  -2   31.56   14.77 264-0.54749 0.89948-0.80818 0.17491-0.08567 0.09729
   4 -11  -1    5.39   20.02 264-0.54777 0.94964-0.80731 0.03454-0.08355 0.20112
   4 -12  -1   43.91   23.09 265-0.54708 0.95159-0.80938-0.03527-0.08861 0.20717
   1  -2  -4 1982.87   25.75 263-0.54849 0.45410-0.80509 0.66520-0.07824-0.29311
   1  -4  -6   56.47   14.44 263-0.54827 0.34931-0.80581 0.52618-0.07996-0.50456
   1  -5   4  609.80   29.10 265-0.54688 0.86999-0.80994 0.45701-0.09001 0.57367
   0  -4   5   -1.97   16.49 264-0.54785 0.80874-0.80708 0.52519-0.08302 0.61814
  -2   1   3   19.42   12.12 263-0.54857 0.47797-0.80482 0.87444-0.07758 0.28689
  -3  -6   9   -2.77   20.41 264-0.54793 0.67638-0.80685 0.38434-0.08246 0.87683
  -6  -1  -4   21.81   25.41 264-0.54738-0.34146-0.80850 0.74057-0.08647-0.67375
  -9   2   4   -4.65   22.04 265-0.54742-0.26732-0.80840 0.94982-0.08621 0.01131
   4  -9  -4   -1.31   17.33 265-0.54692 0.79483-0.80962 0.17666-0.08931-0.11351
   4 -11  -5   -9.17   18.82 265-0.54680 0.74153-0.80999 0.03831-0.09021-0.21832
   3  -5  -1  433.07   20.81 266-0.54615 0.83641-0.81175 0.45917-0.09460 0.15690
   3  -6  -5   51.95   12.91 265-0.54727 0.62863-0.80862 0.38667-0.08684-0.27836
   3  -7   1  298.97   32.12 267-0.54459 0.93889-0.81582 0.32276-0.10499 0.38065
   2  -4  -5    8.64   11.73 265-0.54733 0.51445-0.80844 0.52801-0.08640-0.33574
   0  -1  -4  471.91   16.27 264-0.54734 0.33974-0.80840 0.73897-0.08631-0.34028
   0  -3  -6  487.04   20.14 265-0.54713 0.23538-0.80905 0.59921-0.08789-0.55205
  -1  -2   5   29.26   10.76 265-0.54725 0.69535-0.80868 0.66663-0.08700 0.56649
  -2  -1  -5  188.62   17.39 265-0.54683 0.05941-0.80988 0.74107-0.08994-0.55495
  -3   2   2  486.65   17.09 265-0.54737 0.31020-0.80833 0.94939-0.08614 0.13226
  -3  -1  -5   28.36   17.45 265-0.54689-0.05424-0.80971 0.74133-0.08951-0.61114
  -4   0  -4   69.69   22.44 266-0.54611-0.11648-0.81188 0.81330-0.09494-0.55576
  -4  -2   8   -1.12   13.02 265-0.54722 0.51000-0.80878 0.66737-0.08724 0.72008
  -4  -4   9    5.94   17.52 266-0.54653 0.56153-0.81074 0.52812-0.09207 0.82813
  -5  -1   8    1.63   15.96 265-0.54684 0.39650-0.80986 0.73901-0.08990 0.66661
  -7  -1   9    5.77   17.37 264-0.54720 0.22098-0.80880 0.73884-0.08728 0.66175
   4 -10  -5   63.68   19.26 266-0.54571 0.74090-0.81277 0.11009-0.09718-0.21211
   4 -10  -1    5.26   19.47 266-0.54544 0.94939-0.81350 0.10913-0.09904 0.21704
   3  -5  -4   96.30   13.48 266-0.54577 0.67997-0.81261 0.46044-0.09676-0.16151
   2  -5  -6  171.44   14.50 266-0.54615 0.46214-0.81158 0.46050-0.09419-0.43353
   2  -7  -7    0.33   16.01 265-0.54651 0.40974-0.81061 0.31990-0.09177-0.54358
  -1  -6   7    8.97   18.14 266-0.54565 0.79673-0.81293 0.38986-0.09758 0.78828
  -2   0  -4  143.09   16.71 265-0.54623 0.11120-0.81139 0.81233-0.09370-0.44553
  -2  -6   8    8.40   18.51 267-0.54548 0.73522-0.81336 0.39045-0.09868 0.83990
  -6   2   5    6.06   14.26 266-0.54560 0.12482-0.81306 0.95369-0.09791 0.29732
  -7   1   7   -6.41   15.12 266-0.54587 0.11587-0.81235 0.88197-0.09613 0.45332
  -9   1   7   -6.56   17.63 266-0.54587-0.11178-0.81235 0.88271-0.09613 0.34223
   4  -8  -3  264.16   18.37 267-0.54510 0.84500-0.81440 0.25154-0.10118 0.00729
   3  -7  -6  -12.89   13.59 267-0.54536 0.57446-0.81373 0.32303-0.09946-0.37289
   3 -10  -7   -1.80   17.36 267-0.54525 0.52307-0.81399 0.11162-0.10013-0.47941
   2  -3  -4 1557.44   24.95 267-0.54478 0.56432-0.81522 0.60486-0.10329-0.21133
   2  -3   0 6595.68   82.90 268-0.54347 0.77150-0.81834 0.60679-0.11149 0.22393
   1  -8   5    1.43   21.47 267-0.54425 0.92202-0.81651 0.25119-0.10666 0.70037
  -1  -1   4  108.55   12.91 267-0.54525 0.64050-0.81403 0.74305-0.10023 0.47178
  -1  -4  -7   -5.62   17.70 267-0.54525 0.06673-0.81399 0.53563-0.10013-0.70208
  -2  -4  -7    4.40   19.57 266-0.54546-0.04585-0.81347 0.53464-0.09879-0.75925
  -5   1   6   29.21   12.65 266-0.54547 0.29049-0.81345 0.88300-0.09874 0.46064
  -5   0   7    1.02   15.26 267-0.54478 0.34154-0.81521 0.81472-0.10326 0.57309
  -7   0   8  -13.73   14.73 267-0.54524 0.16705-0.81406 0.81373-0.10030 0.56554
  -8   2   5    3.72   18.12 267-0.54518-0.10290-0.81418 0.95582-0.10061 0.18879
  -8   1   7   -0.52   16.46 267-0.54482 0.00082-0.81508 0.88509-0.10292 0.40488
   4  -8  -4   41.28   16.64 268-0.54394 0.79115-0.81732 0.25452-0.10890-0.09371
   4  -9  -5   15.80   17.58 268-0.54371 0.73937-0.81786 0.18452-0.11034-0.19968
   3  -9  -7    2.56   17.68 268-0.54381 0.52146-0.81762 0.18643-0.10971-0.46953
   1  -5  -7  140.09   14.77 267-0.54424 0.29410-0.81661 0.46685-0.10705-0.58319
   0   0  -2 3759.45   44.08 267-0.54429 0.44122-0.81649 0.81646-0.10674-0.10631
  -2  -2   6   16.76   11.07 268-0.54418 0.63045-0.81676 0.67481-0.10743 0.63774
  -3   1  -3  448.59   24.96 268-0.54302 0.04609-0.81944 0.89131-0.11456-0.37209
  -3  -2   7    1.51   11.95 268-0.54444 0.56801-0.81612 0.67392-0.10575 0.68608
  -5  -3   9   -9.55   16.48 268-0.54421 0.44574-0.81669 0.60457-0.10726 0.79172
  -6  -2   9   -3.48   16.00 268-0.54422 0.33199-0.81663 0.67485-0.10709 0.73529
  -7   2   5    8.06   16.05 268-0.54403 0.00967-0.81710 0.95822-0.10833 0.25224
  -8  -1   9    8.93   18.55 268-0.54414 0.10521-0.81682 0.74579-0.10759 0.62364
   4  -8  -2  161.19   18.03 269-0.54311 0.89422-0.81934 0.25645-0.11439 0.12534
   1  -1  -2 1299.80   25.92 269-0.54327 0.55349-0.81900 0.74875-0.11349-0.04336
   0  -4  -7   53.72   16.26 269-0.54276 0.17971-0.82013 0.54113-0.11653-0.62901
   0  -7   6   -0.67   19.18 270-0.54221 0.85550-0.82134 0.32779-0.11982 0.76247
  -1  -1  -5  276.74   17.21 269-0.54306 0.16953-0.81947 0.75132-0.11473-0.47401
  -2  -2  -6   -0.58   15.92 269-0.54313 0.00365-0.81931 0.68144-0.11430-0.63785
  -3   1   4  271.96   14.31 268-0.54339 0.41199-0.81874 0.88782-0.11279 0.37311
  -3  -4   8    8.74   14.83 269-0.54340 0.62007-0.81869 0.53528-0.11266 0.80044
  -4   1  -3  157.08   23.35 270-0.54195-0.06813-0.82187 0.89410-0.12128-0.42155
  -4   1   5   14.05   11.75 269-0.54319 0.34956-0.81918 0.88873-0.11397 0.42507
  -4  -1  -5    4.72   16.96 269-0.54308-0.17101-0.81942 0.75160-0.11460-0.64135
  -4  -1   7   -3.33   13.39 269-0.54313 0.45361-0.81931 0.74827-0.11430 0.64064
  -5   2   4   60.47   13.99 269-0.54253 0.18310-0.82063 0.96097-0.11787 0.26652
  -8   2   2    4.84   20.98 270-0.54206-0.26359-0.82165 0.96481-0.12067-0.11189
  -8   0   8   11.20   17.46 269-0.54326 0.05208-0.81901 0.81848-0.11350 0.52272
  -9   0   8    3.22   19.10 269-0.54335-0.06193-0.81881 0.81829-0.11297 0.46651
   4  -9  -1    9.38   19.81 271-0.54132 0.94562-0.82302 0.18860-0.12520 0.24338
   4 -11  -6    9.87   19.21 270-0.54213 0.68574-0.82136 0.04826-0.12058-0.29517
   3  -8  -7   59.37   18.19 270-0.54161 0.51891-0.82242 0.26184-0.12353-0.45435
   2  -6  -7    4.35   14.37 270-0.54239 0.40601-0.82079 0.40139-0.11901-0.51665
   1  -1  -1    3.07   12.65 270-0.54213 0.60381-0.82133 0.75097-0.12051 0.06952
   1  -7  -8   13.17   17.68 269-0.54233 0.24039-0.82092 0.33113-0.11939-0.67818
   0  -6  -8    0.74   19.28 270-0.54162 0.12543-0.82240 0.40395-0.12346-0.72944
  -1  -2  -6   26.30   16.18 270-0.54160 0.11614-0.82247 0.68436-0.12365-0.57198
  -1  -4   6   72.01   14.00 270-0.54220 0.74113-0.82119 0.53925-0.12013 0.70508
  -2  -4   7   -4.97   17.50 270-0.54160 0.67947-0.82244 0.53924-0.12357 0.76185
  -3   2   0 3120.57   60.97 272-0.53897 0.19809-0.82751 0.96899-0.13807-0.02972
  -3   2   1  101.43   14.80 271-0.54119 0.25287-0.82328 0.96436-0.12593 0.06490
  -3  -2  -6    1.22   19.85 270-0.54151-0.11142-0.82262 0.68546-0.12407-0.68393
  -4   2   3  279.51   14.19 270-0.54220 0.24451-0.82119 0.96200-0.12013 0.21753
  -8   2   4    1.96   16.80 270-0.54159-0.15986-0.82248 0.96428-0.12368 0.10514
   4  -8  -5   98.04   17.94 271-0.54078 0.73724-0.82396 0.26139-0.12828-0.17900
   4 -10  -6    5.25   17.89 271-0.54095 0.68491-0.82363 0.12058-0.12735-0.28884
   3  -5  -5   70.83   13.36 271-0.54076 0.62310-0.82399 0.47261-0.12834-0.23582
   3  -6  -6   13.43   13.95 271-0.54075 0.56973-0.82404 0.40305-0.12850-0.34385
   2  -8  -8   -1.76   21.31 271-0.54041 0.35232-0.82469 0.26520-0.13035-0.60979
  -2   0   4 1059.73   21.40 271-0.54112 0.52217-0.82329 0.82275-0.12637 0.44176
  -2  -1   5   58.85   13.24 271-0.54022 0.57355-0.82504 0.75349-0.13135 0.55374
  -2  -7   8  -13.95   20.69 271-0.54049 0.73087-0.82454 0.32997-0.12990 0.87555
  -3  -1   6   32.62   13.83 271-0.54016 0.51231-0.82515 0.75325-0.13166 0.60533
  -4   0   6  136.14   12.96 271-0.54112 0.39893-0.82329 0.82310-0.12639 0.54327
  -4  -5   9    4.23   17.33 271-0.54100 0.55623-0.82352 0.47006-0.12701 0.86742
  -8   2   3   -4.25   20.08 272-0.53979-0.21360-0.82585 0.96853-0.13367 0.00796
   4  -7  -3   23.96   15.38 272-0.53931 0.83825-0.82689 0.33426-0.13680 0.04080
   4  -9  -6    9.45   19.30 272-0.53938 0.68172-0.82675 0.19525-0.13641-0.27859
   1  -3  -6  263.86   15.77 271-0.53997 0.34309-0.82567 0.61614-0.13326-0.44987
  -1  -7   7    0.30   19.86 272-0.53933 0.79135-0.82684 0.33291-0.13667 0.83048
  -3   0   5    0.47   12.80 272-0.53933 0.45888-0.82684 0.82616-0.13667 0.50393
  -6   1   6   -9.07   13.18 272-0.54004 0.17109-0.82552 0.89539-0.13285 0.43956
  -6  -1   8    3.48   14.71 272-0.54010 0.27571-0.82541 0.75363-0.13251 0.65294
  -7  -2   9   15.48   17.56 272-0.53936 0.21422-0.82680 0.68557-0.13654 0.70984
  -9   1   6  -15.26   17.96 272-0.54001-0.16972-0.82558 0.89658-0.13301 0.27260
   4  -7  -4   -2.81   13.35 273-0.53892 0.78623-0.82784 0.33599-0.13970-0.06291
   2  -4  -6   56.70   13.32 272-0.53895 0.45497-0.82778 0.54794-0.13952-0.38831
   1  -1  -3  128.17   13.15 273-0.53855 0.49712-0.82850 0.75812-0.14164-0.12181
   1  -2  -5   12.95   11.69 272-0.53905 0.39231-0.82761 0.68840-0.13902-0.33906
   1  -6  -8    3.55   18.87 272-0.53852 0.23665-0.82855 0.40939-0.14179-0.65261
   0  -3   4  182.27   16.16 273-0.53832 0.74738-0.82891 0.61677-0.14286 0.57043
  -1   0  -4 1373.42   26.26 273-0.53872 0.21774-0.82819 0.82935-0.14073-0.34232
  -4  -3   8   15.41   13.74 273-0.53881 0.50235-0.82807 0.61530-0.14036 0.77274
  -6   2   4  143.04   15.41 273-0.53852 0.06497-0.82855 0.96995-0.14178 0.23366
  -6   0   7    4.43   13.49 273-0.53854 0.22226-0.82852 0.82797-0.14170 0.55523
  -7   2   4   29.39   16.40 273-0.53831-0.04821-0.82894 0.97079-0.14295 0.17988
   3  -4  -3 1686.19   26.15 273-0.53775 0.72389-0.82995 0.54876-0.14582-0.00510
   3  -7  -7   28.31   16.04 273-0.53774 0.51489-0.82998 0.33881-0.14592-0.43330
   2  -3  -5   16.39   11.64 273-0.53753 0.50448-0.83032 0.62030-0.14695-0.27502
   2  -7  -8    3.43   17.83 274-0.53689 0.34805-0.83138 0.34080-0.15019-0.59072
   1  -4  -7   33.69   13.15 274-0.53735 0.28662-0.83062 0.55119-0.14788-0.54292
  -1  -3  -7   11.69   17.25 274-0.53679 0.05870-0.83153 0.62328-0.15067-0.65221
  -2  -3  -7  -10.01   19.08 274-0.53691-0.05581-0.83135 0.62406-0.15012-0.70829
  -4  -2  -6    5.21   22.85 275-0.53594-0.23120-0.83288 0.69536-0.15487-0.70857
  -5   0  -4    4.67   24.19 275-0.53516-0.24249-0.83408 0.83763-0.15869-0.54820
  -5  -2   8    5.09   14.63 274-0.53758 0.38718-0.83023 0.68791-0.14669 0.72235
  -5  -4   9   -0.86   18.22 273-0.53728 0.43992-0.83074 0.54737-0.14823 0.83417
  -7   1   6   10.69   14.14 274-0.53740 0.05491-0.83054 0.90173-0.14762 0.39883
  -8   1   6  -11.28   17.48 274-0.53702-0.05856-0.83117 0.90124-0.14957 0.34425
   4  -7  -5   21.63   14.51 275-0.53576 0.73085-0.83296 0.34074-0.15524-0.15444
   4  -7  -2    4.54   16.93 276-0.53438 0.88732-0.83503 0.34099-0.16186 0.17285
   4  -8  -6   31.45   16.75 275-0.53574 0.67858-0.83300 0.27115-0.15537-0.26048
   4 -12   0   12.91   26.99 276-0.53422 0.99094-0.83526-0.01039-0.16262 0.38824
   3  -4  -4   92.15   14.11 275-0.53558 0.66864-0.83324 0.55232-0.15614-0.10295
   3  -4  -2  130.92   14.95 275-0.53511 0.77282-0.83394 0.55189-0.15838 0.11330
   2  -5  -7   18.53   14.03 274-0.53644 0.39972-0.83190 0.48195-0.15193-0.48358
   2  -7   3  173.08   30.77 279-0.53015 0.91514-0.84065 0.34667-0.18095 0.61342
   1  -9   5    4.95   25.22 278-0.53217 0.90604-0.83809 0.20438-0.17206 0.76069
   0  -1   2  353.22   19.33 275-0.53569 0.64044-0.83305 0.76179-0.15554 0.36944
   0  -2  -6    7.36   13.43 274-0.53637 0.22395-0.83200 0.69335-0.15226-0.48795
   0  -5  -8   -4.12   19.42 275-0.53558 0.11843-0.83323 0.48477-0.15612-0.69832
  -2  -8   8   -9.87   22.16 275-0.53526 0.72672-0.83372 0.26879-0.15767 0.90454
  -3  -5   8   22.28   18.20 275-0.53524 0.61222-0.83375 0.48030-0.15775 0.84452
  -6  -3   9   -2.28   16.48 275-0.53629 0.32414-0.83211 0.61949-0.15259 0.78021
  -7   2   1   -2.48   20.64 274-0.53585-0.21035-0.83283 0.97774-0.15484-0.12993
  -7  -1   8    0.39   16.15 275-0.53543 0.15731-0.83344 0.76258-0.15678 0.62226
  -8  -2   9    0.48   18.39 275-0.53606 0.09678-0.83248 0.69108-0.15375 0.67047
   4  -8  -1   14.39   18.42 276-0.53360 0.93754-0.83621 0.27214-0.16560 0.28351
   4 -10  -7    5.46   20.05 276-0.53476 0.62594-0.83455 0.13264-0.16020-0.36180
   4 -11   0    1.04   23.38 278-0.53162 0.99055-0.83889 0.06133-0.17465 0.40100
   2  -5   2  518.77   46.30 281-0.52730 0.86022-0.84401 0.49102-0.19311 0.51825
   0   0  -3    4.43   11.04 276-0.53474 0.37832-0.83458 0.83573-0.16029-0.16016
   0  -1  -5   44.27   11.91 276-0.53464 0.27515-0.83471 0.76566-0.16071-0.37228
   0  -5   5    6.74   16.91 277-0.53316 0.79481-0.83683 0.48307-0.16767 0.70253
   0  -8   6   -4.05   18.86 278-0.53197 0.84342-0.83843 0.27502-0.17306 0.81087
  -2   1  -3  165.53   18.32 276-0.53423 0.15105-0.83531 0.90703-0.16265-0.26940
  -4  -6   9   -4.85   19.54 276-0.53427 0.54935-0.83527 0.41171-0.16251 0.90102
  -5   2   3   13.33   13.20 276-0.53378 0.12185-0.83596 0.97740-0.16478 0.20637
  -5   1   5   -9.95   13.56 276-0.53409 0.22596-0.83554 0.90594-0.16339 0.41941
  -7   0   7   -2.29   15.63 277-0.53372 0.10520-0.83606 0.83452-0.16510 0.52106
  -9   1   5    5.51   20.65 275-0.53468-0.22952-0.83466 0.90748-0.16056 0.19357
  -9   0   7    4.19   17.66 276-0.53462-0.12208-0.83476 0.83472-0.16086 0.40708
   3  -5  -6   59.19   13.40 276-0.53347 0.56321-0.83612 0.48521-0.16628-0.30542
   0  -3  -7    2.13   14.11 277-0.53338 0.16859-0.83624 0.62857-0.16668-0.58006
  -1   1  -1  345.57   30.51 278-0.53118 0.36549-0.83917 0.90993-0.17662 0.01364
  -1  -8   7    0.83   20.02 277-0.53259 0.78563-0.83731 0.27233-0.17025 0.86562
  -2   1   2    5.80   11.24 276-0.53346 0.41040-0.83612 0.90654-0.16628 0.26828
  -3  -3   7   -2.75   12.76 277-0.53352 0.55752-0.83605 0.62351-0.16602 0.74704
  -4   2   2 1230.46   25.62 277-0.53243 0.18219-0.83753 0.97881-0.17100 0.16198
  -5  -1  -5   14.60   22.68 278-0.53165-0.29718-0.83857 0.77197-0.17454-0.63822
  -5  -1   7    0.69   14.68 278-0.53205 0.32994-0.83805 0.76620-0.17275 0.63942
  -7   2   3   -0.31   15.54 277-0.53279-0.10610-0.83705 0.97899-0.16937 0.09956
  -8   0   7   -7.00   16.80 277-0.53323-0.01097-0.83644 0.83712-0.16734 0.46998
  -8  -1   8   -7.26   18.08 277-0.53279 0.04179-0.83705 0.76625-0.16937 0.57801
  -9  -1   8    5.30   20.70 277-0.53338-0.07185-0.83624 0.76616-0.16668 0.52042
   4  -9  -7    4.62   17.74 277-0.53226 0.62364-0.83779 0.20541-0.17215-0.35033
   3  -6  -7   -0.19   14.53 278-0.53199 0.50914-0.83813 0.41797-0.17330-0.40532
   3  -8  -8   -6.78   17.89 278-0.53204 0.45749-0.83808 0.27743-0.17314-0.51166
   2  -2  -3 1117.54   21.68 277-0.53221 0.60406-0.83784 0.69731-0.17231-0.03562
   2  -6  -8    6.99   16.21 278-0.53144 0.34302-0.83884 0.41910-0.17573-0.56463
   1  -5  -8   39.90   17.31 278-0.53141 0.22910-0.83889 0.48966-0.17591-0.62151
   0  -2   3  960.56   24.62 278-0.53124 0.68913-0.83910 0.69661-0.17666 0.49734
  -2  -5   7   17.46   17.51 278-0.53151 0.67111-0.83876 0.48518-0.17549 0.81355
  -6   2   0   10.80   21.37 280-0.52825-0.15317-0.84268 0.98563-0.18947-0.14489
  -7   2   2   11.01   18.78 279-0.53067-0.16083-0.83982 0.98289-0.17917 0.00238
   4  -6  -4  333.49   14.83 278-0.53059 0.77738-0.83978 0.41797-0.17970-0.02386
   4  -6  -3  114.96   15.26 279-0.52923 0.82832-0.84140 0.41965-0.18549 0.08956
   4  -7  -6    9.92   13.47 279-0.53036 0.67380-0.84005 0.34780-0.18065-0.23564
   4 -10   0   21.51   25.76 280-0.52743 0.98466-0.84344 0.13748-0.19300 0.41835
   3  -4  -5   70.26   12.06 279-0.53048 0.61114-0.83990 0.55921-0.18013-0.18592
   2  -2  -2 4576.39   43.60 278-0.53085 0.65478-0.83945 0.69825-0.17853 0.07677
   1  -1  -4   98.57   12.57 279-0.53018 0.43545-0.84027 0.77132-0.18145-0.18899
  -1  -3   5   -3.70   11.13 279-0.53058 0.67778-0.83979 0.62758-0.17973 0.65894
  -1  -5   6  160.91   18.14 279-0.52938 0.72992-0.84123 0.48786-0.18486 0.76970
  -2  -3   6   11.99   11.00 279-0.53038 0.61713-0.84002 0.62744-0.18056 0.71113
  -4  -2   7    9.07   13.59 279-0.53064 0.44186-0.83971 0.69783-0.17944 0.70448
  -5   1  -3   13.56   28.76 281-0.52634-0.19663-0.84460 0.91773-0.19743-0.40062
  -5   0   6    6.12   12.35 278-0.53091 0.27595-0.83937 0.83919-0.17826 0.54047
  -6   2   3   23.15   13.06 279-0.53055 0.00573-0.83981 0.98184-0.17981 0.16628
  -7  -3   9   -0.24   17.46 279-0.53042 0.20498-0.83997 0.62839-0.18039 0.75309
  -9   1   2   23.25   23.68 280-0.52842-0.38918-0.84234 0.91589-0.18890-0.09815
  -9   1   4   -3.56   21.69 280-0.52904-0.28562-0.84162 0.91415-0.18629 0.11153
   4  -6  -5   64.55   14.51 280-0.52829 0.72341-0.84241 0.42083-0.18973-0.11873
   4  -8  -7  -16.19   16.20 280-0.52835 0.62000-0.84235 0.28035-0.18949-0.33312
   1  -4   3  841.88   29.05 280-0.52784 0.79917-0.84292 0.56002-0.19161 0.56743
   1 -10   5    5.98   26.29 280-0.52711 0.90583-0.84371 0.13655-0.19458 0.78839
  -1  -4  -8    6.64   22.32 280-0.52833-0.00212-0.84236 0.56428-0.18956-0.72175
  -4   1   4    3.00   11.25 279-0.52903 0.28303-0.84156 0.91263-0.18660 0.39096
  -4  -4   8   -3.19   15.20 280-0.52898 0.49246-0.84161 0.55924-0.18681 0.82007
  -5  -5   9   -1.00   18.46 280-0.52902 0.43114-0.84157 0.48872-0.18665 0.87070
  -6  -2   8    9.67   15.21 279-0.52941 0.26580-0.84112 0.70025-0.18501 0.70592
  -8   1   5   -1.86   18.57 280-0.52832-0.11986-0.84237 0.91456-0.18960 0.27762
   5 -11  -5   -2.83   21.01 281-0.52687 0.83793-0.84395 0.06865-0.19551-0.05782
   5 -11  -4   -1.41   20.70 281-0.52692 0.89046-0.84389 0.06824-0.19529 0.04889
   3  -7  -8   13.35   17.45 280-0.52751 0.45251-0.84325 0.35183-0.19289-0.49163
   2  -2  -4 1551.41   23.55 280-0.52790 0.54740-0.84282 0.70303-0.19127-0.12353
   2  -3  -6   20.36   12.17 280-0.52745 0.44241-0.84331 0.63318-0.19310-0.33518
   2  -4  -7   -7.40   14.06 281-0.52751 0.39050-0.84325 0.56393-0.19289-0.44200
   1  -6   4   56.41   18.94 282-0.52556 0.84882-0.84530 0.42207-0.20074 0.68453
   0  -4  -8   23.54   19.94 281-0.52676 0.11013-0.84406 0.56534-0.19596-0.65915
   0  -9   6    1.80   20.67 283-0.52425 0.83746-0.84661 0.21307-0.20595 0.84524
  -1  -9   7   -5.16   22.05 282-0.52588 0.77916-0.84499 0.21043-0.19951 0.89373
  -2  -1  -6    3.46   16.72 280-0.52732-0.01209-0.84346 0.77557-0.19366-0.55728
  -3   1   3    2.02   11.71 281-0.52702 0.34249-0.84377 0.91456-0.19485 0.34789
  -3  -6   8    9.20   18.59 281-0.52685 0.60505-0.84396 0.42056-0.19555 0.88336
  -5  -3   8    5.19   15.92 281-0.52657 0.37686-0.84425 0.63262-0.19668 0.77237
  -6   1   5    5.38   11.74 281-0.52751 0.10694-0.84325 0.91388-0.19289 0.39184
  -6  -4   9   -6.03   15.26 281-0.52754 0.31597-0.84321 0.56106-0.19273 0.82037
  -8   1   0    9.22   29.55 283-0.52270-0.38644-0.84806 0.92221-0.21189-0.23390
  -8  -3   9    5.96   18.53 281-0.52690 0.08823-0.84391 0.63338-0.19536 0.71258
  -9   1   3    9.11   21.54 281-0.52676-0.33955-0.84406 0.91810-0.19596 0.01480
   5 -10  -5    2.38   19.33 283-0.52434 0.83654-0.84670 0.13974-0.20588-0.04813
   5 -10  -4    2.49   18.64 282-0.52533 0.88673-0.84573 0.14176-0.20200 0.05593
   1  -2  -6  193.64   14.20 281-0.52621 0.32787-0.84483 0.70648-0.19848-0.38528
   1  -3  -7    4.97   14.24 281-0.52637 0.27578-0.84466 0.63549-0.19784-0.49327
  -1   1  -2  196.43   17.21 282-0.52531 0.30799-0.84575 0.91691-0.20210-0.06669
  -1   0   2   97.02   13.29 282-0.52597 0.51687-0.84508 0.84477-0.19947 0.35738
  -1  -1  -6  796.12   24.02 282-0.52524 0.09973-0.84582 0.77785-0.20235-0.49266
  -2   0  -5   -1.70   15.46 282-0.52520 0.03633-0.84586 0.84903-0.20252-0.44269
  -3   0  -5   -3.44   18.67 283-0.52409-0.07740-0.84695 0.84990-0.20690-0.49402
  -7   1   5    2.97   13.82 282-0.52605-0.00917-0.84500 0.91655-0.19915 0.34291
  -9   0   6   15.93   18.48 282-0.52494-0.18397-0.84611 0.84808-0.20351 0.34277
   5 -11  -3    3.51   20.31 283-0.52353 0.93759-0.84753 0.07348-0.20955 0.16996
   4  -9  -8    7.17   19.97 282-0.52439 0.56198-0.84671 0.21636-0.20620-0.41925
   3  -5  -7    8.99   13.17 283-0.52416 0.50079-0.84693 0.49586-0.20709-0.37154
   3  -5   0  522.85   28.77 285-0.52060 0.86279-0.85012 0.49703-0.22055 0.38808
   2  -5  -8   23.11   16.04 283-0.52379 0.33513-0.84728 0.49717-0.20852-0.53301
  -1  -2  -7    7.02   17.12 283-0.52294 0.04477-0.84807 0.71026-0.21178-0.59133
  -3  -1  -6  139.65   22.03 283-0.52386-0.12998-0.84721 0.78016-0.20823-0.59884
  -3  -2   6  192.19   13.96 283-0.52439 0.49832-0.84672 0.70543-0.20621 0.67974
  -4   0   5   -3.86   13.21 283-0.52358 0.32951-0.84748 0.84751-0.20933 0.52064
  -4  -1   6   28.39   11.87 282-0.52476 0.38356-0.84635 0.77529-0.20476 0.62218
  -5   2   2  499.86   21.11 283-0.52394 0.06068-0.84714 0.98900-0.20794 0.14455
  -6   2   2   17.21   15.94 283-0.52363-0.05378-0.84743 0.98987-0.20912 0.08819
  -6   0   6  602.87   20.69 283-0.52349 0.15547-0.84756 0.84753-0.20966 0.51674
  -6  -1   7    4.77   14.10 283-0.52444 0.20839-0.84666 0.77621-0.20599 0.61908
  -7  -2   8   -2.79   16.80 283-0.52363 0.14584-0.84743 0.70657-0.20911 0.67391
   5  -9  -5    1.16   18.05 284-0.52171 0.83027-0.84919 0.21650-0.21654-0.03652
   5 -10  -6    9.25   19.73 284-0.52173 0.78070-0.84917 0.14376-0.21646-0.14452
   4  -6  -6   10.61   13.25 284-0.52276 0.66610-0.84825 0.42612-0.21258-0.20431
   4  -7  -7   -4.65   16.31 284-0.52283 0.61417-0.84819 0.35660-0.21232-0.31074
   3  -4  -6   43.47   13.03 283-0.52279 0.55173-0.84823 0.56735-0.21247-0.26026
   1  -4  -8   41.21   18.93 284-0.52225 0.21976-0.84871 0.56928-0.21450-0.58308
   0   0  -4 1572.65   26.60 284-0.52265 0.31398-0.84835 0.84971-0.21298-0.21379
  -2  -2  -7   -6.54   19.43 284-0.52213-0.07162-0.84881 0.71214-0.21491-0.64531
  -4   2   1  345.90   18.59 284-0.52173 0.11930-0.84917 0.99109-0.21646 0.10099
  -6   2   1   23.61   18.52 285-0.52075-0.10879-0.85000 0.99294-0.22009-0.00715
   5  -9  -4    1.23   17.47 285-0.52040 0.88321-0.85060 0.21534-0.22230 0.07530
   5 -10  -3    0.46   18.79 286-0.51949 0.93589-0.85135 0.14373-0.22566 0.18588
   4  -6  -2   25.36   16.21 285-0.52097 0.87220-0.85014 0.42693-0.22024 0.23105
   3  -4  -1  348.59   19.56 286-0.51922 0.80883-0.85156 0.56930-0.22663 0.28810
   3  -6  -8    7.09   16.16 285-0.52105 0.44595-0.85007 0.42905-0.21995-0.46552
   2  -2  -5  114.35   12.53 285-0.52091 0.48738-0.85019 0.71071-0.22046-0.20126
   0 -10   6    6.94   22.82 286-0.51873 0.83316-0.85194 0.14637-0.22841 0.87014
  -1   0  -5    4.62   14.91 285-0.51984 0.14544-0.85107 0.85345-0.22440-0.36555
  -1  -2   4 2177.19   31.59 285-0.52023 0.61639-0.85075 0.70869-0.22296 0.59449
  -2  -6   7    7.98   17.57 284-0.52090 0.66101-0.85019 0.42647-0.22050 0.85920
  -3  -4   7   39.41   15.08 285-0.52091 0.54638-0.85019 0.56820-0.22049 0.80125
  -5  -6   9   11.64   19.02 284-0.52132 0.42414-0.84985 0.42627-0.21900 0.90304
  -7   0   6   -3.03   14.37 285-0.52038 0.03759-0.85063 0.85106-0.22243 0.47359
  -7  -4   9    6.64   19.13 285-0.52121 0.19574-0.84993 0.56778-0.21935 0.79187
  -8   1   4   -4.79   16.97 284-0.52126-0.18278-0.84990 0.92478-0.21919 0.20109
  -8   0   6    1.91   15.78 285-0.52118-0.07539-0.84997 0.85108-0.21952 0.41507
  -8  -2   8   16.60   16.96 284-0.52140 0.03045-0.84978 0.70925-0.21868 0.62787
  -9  -1   7    5.93   18.74 285-0.52135-0.13598-0.84982 0.77988-0.21887 0.46524
   5  -9  -6   -0.02   18.99 286-0.51874 0.77621-0.85195 0.21821-0.22844-0.13212
   4  -7  -1  139.46   21.35 286-0.51849 0.92228-0.85213 0.35856-0.22931 0.34765
   4  -8  -8   -2.20   17.73 286-0.51933 0.55820-0.85148 0.28979-0.22629-0.40297
   4  -9   0   38.65   23.84 287-0.51628 0.97248-0.85376 0.21850-0.23711 0.46145
   3  -3  -4  280.44   16.17 286-0.51842 0.65175-0.85219 0.64125-0.22958-0.02900
   1  -1  -5  153.50   12.68 285-0.51934 0.37302-0.85148 0.78248-0.22629-0.25063
   0  -1  -6  136.47   15.29 286-0.51817 0.20728-0.85238 0.78377-0.23048-0.40905
   0  -2  -7   -4.09   13.46 286-0.51944 0.15423-0.85141 0.71357-0.22597-0.52082
  -2  -2   5  120.12   12.59 285-0.51988 0.55404-0.85105 0.70936-0.22433 0.64653
  -3  -7   8    3.84   21.22 286-0.51851 0.59616-0.85212 0.35838-0.22925 0.91652
  -4  -5   8   15.93   17.91 286-0.51838 0.48206-0.85223 0.49854-0.22975 0.86235
  -6  -5   9   -1.97   20.37 285-0.51932 0.30847-0.85149 0.49891-0.22635 0.85601
  -7  -1   7    7.23   15.08 285-0.51995 0.09019-0.85100 0.78063-0.22410 0.58195
  -8  -1   7    6.29   18.13 285-0.51933-0.02446-0.85148 0.78241-0.22629 0.52946
   4  -5  -5   12.98   14.89 287-0.51725 0.71196-0.85315 0.50113-0.23406-0.07601
   4  -5  -4   -2.53   11.49 287-0.51798 0.76535-0.85261 0.50105-0.23146 0.02838
   3  -3  -3    1.25   13.64 287-0.51694 0.70179-0.85337 0.64254-0.23511 0.08285
   2  -6  -9    6.75   19.00 287-0.51687 0.27609-0.85342 0.43308-0.23539-0.61266
  -1  -3  -8  -11.58   20.34 287-0.51685-0.01442-0.85343 0.64563-0.23543-0.67373
  -3   0   4   15.62   11.12 287-0.51783 0.38565-0.85272 0.85256-0.23201 0.49209
  -3  -1   5    6.00   11.49 287-0.51781 0.43786-0.85273 0.78148-0.23206 0.59828
  -4   2   0   49.73   20.10 289-0.51271 0.05857-0.85617 0.99808-0.24947 0.02691
  -5   2   1   16.50   17.06 288-0.51535-0.00038-0.85448 0.99666-0.24061 0.06964
  -5   1   4  134.17   12.22 287-0.51797 0.15837-0.85261 0.92342-0.23146 0.37990
  -5  -2   7   -0.85   13.68 287-0.51803 0.31492-0.85257 0.71098-0.23130 0.70045
  -6  -3   8   10.97   14.96 287-0.51761 0.25401-0.85288 0.64146-0.23276 0.75412
   5  -8  -5   21.50   18.27 288-0.51539 0.82496-0.85441 0.29021-0.24035-0.01391
   5  -9  -3  114.25   20.09 288-0.51476 0.92778-0.85482 0.22128-0.24248 0.20140
   4  -6  -7   31.46   17.23 288-0.51545 0.60588-0.85436 0.43246-0.24012-0.28316
   2  -3  -7   50.76   15.40 288-0.51505 0.37799-0.85463 0.64459-0.24147-0.39330
   0  -3  -8    0.45   19.53 288-0.51500 0.09728-0.85466 0.64632-0.24165-0.61278
   0  -6   5   12.42   15.92 288-0.51511 0.77708-0.85459 0.43050-0.24128 0.77619
  -1  -1   3  142.37   13.00 288-0.51584 0.55935-0.85409 0.78266-0.23874 0.50444
  -1  -6   6   22.12   15.57 288-0.51527 0.71571-0.85448 0.43061-0.24071 0.82649
  -2   0   3   -4.22   11.17 288-0.51599 0.44472-0.85398 0.85389-0.23822 0.44724
  -4   0  -5    7.58   20.87 289-0.51349-0.20302-0.85564 0.85911-0.24671-0.51124
  -4  -3   7   -3.13   13.15 288-0.51614 0.42654-0.85388 0.64172-0.23774 0.76244
  -5   2   0  257.04   25.03 289-0.51259-0.05561-0.85620 0.99862-0.24973-0.02837
  -5  -4   8    0.67   16.21 288-0.51507 0.36454-0.85462 0.57245-0.24144 0.81739
  -9   0   5   -0.93   18.84 288-0.51503-0.24730-0.85464 0.85607-0.24154 0.27432
   5  -8  -6   14.42   17.39 289-0.51320 0.77037-0.85575 0.29215-0.24788-0.11299
   5  -8  -4   27.05   17.89 289-0.51364 0.87542-0.85547 0.29106-0.24640 0.09909
   5  -9  -7    4.78   21.30 288-0.51369 0.71805-0.85545 0.22188-0.24625-0.22068
   4  -5  -3   46.66   14.35 289-0.51350 0.81305-0.85556 0.50285-0.24688 0.15176
   4  -7  -8   21.94   18.22 289-0.51339 0.55202-0.85564 0.36386-0.24726-0.38205
   3  -3  -5   35.76   12.15 288-0.51457 0.59608-0.85487 0.64381-0.24326-0.12259
   2  -2  -1 1762.46   34.46 289-0.51315 0.68927-0.85578 0.71416-0.24805 0.25391
   2  -4  -8    0.71   16.51 289-0.51339 0.32443-0.85563 0.57558-0.24724-0.49495
  -1   1  -3  598.18   21.52 289-0.51289 0.24331-0.85594 0.92730-0.24891-0.12687
  -2  -1   4  142.20   13.24 289-0.51370 0.49510-0.85544 0.78505-0.24624 0.56210
  -2  -4   6   53.26   14.22 289-0.51320 0.59898-0.85575 0.57419-0.24789 0.77675
  -3   1  -4 1300.63   36.44 290-0.51116-0.03785-0.85697 0.92976-0.25458-0.33926
  -4  -1  -6   11.33   23.70 289-0.51298-0.25417-0.85588 0.78872-0.24858-0.61455
  -6   1   4   -0.60   13.65 289-0.51304 0.03859-0.85585 0.92753-0.24842 0.34172
  -7   1   4    9.97   13.32 289-0.51368-0.07311-0.85545 0.92731-0.24628 0.28365
   5 -11  -2    7.56   22.06 291-0.50995 0.97848-0.85769 0.08048-0.25859 0.32604
   4  -5  -6   17.17   13.78 289-0.51235 0.65512-0.85632 0.50453-0.25081-0.16618
   3  -4  -7   35.05   14.65 289-0.51256 0.48943-0.85620 0.57560-0.25012-0.32969
   3  -5  -8    9.35   15.72 290-0.51193 0.43669-0.85657 0.50572-0.25219-0.43363
  -3  -8   8    3.07   20.68 290-0.51128 0.58983-0.85695 0.29173-0.25432 0.94404
  -5   0   5    5.05   12.64 289-0.51186 0.20365-0.85661 0.85767-0.25240 0.50924
  -5  -1   6   39.10   13.03 290-0.51212 0.25703-0.85645 0.78641-0.25152 0.61356
  -7  -3   8   11.22   16.33 290-0.51099 0.13383-0.85711 0.64591-0.25523 0.71978
  -7  -5   9   21.97   20.24 290-0.51128 0.18680-0.85694 0.50480-0.25426 0.82544
  -8   1   3    6.33   18.34 290-0.51195-0.24093-0.85656 0.92917-0.25210 0.12699
   2  -2  -6   25.32   12.60 290-0.51016 0.42503-0.85744 0.71760-0.25785-0.27087
   1  -2  -7    3.47   14.80 291-0.51049 0.25909-0.85726 0.71918-0.25681-0.43471
   1  -3  -8   -0.19   16.77 291-0.50923 0.20581-0.85795 0.64965-0.26084-0.53718
   0  -4   4  267.20   18.55 291-0.51000 0.72000-0.85753 0.57495-0.25839 0.68533
  -2   1  -4  361.31   21.40 291-0.50936 0.07358-0.85788 0.93054-0.26043-0.27711
  -2  -7   7   26.73   19.47 291-0.50911 0.64860-0.85801 0.36363-0.26120 0.89847
  -6  -6   9   -1.18   20.03 291-0.50998 0.29909-0.85753 0.43456-0.25840 0.88629
  -8   1   1   -4.02   21.13 292-0.50831-0.34912-0.85842 0.93136-0.26373-0.07499
   5  -7  -5    3.75   17.04 293-0.50614 0.81653-0.85942 0.36579-0.27047 0.01615
   5  -8  -7   -3.57   17.04 292-0.50803 0.71286-0.85850 0.29578-0.26461-0.20221
   5 -10  -2   -4.42   18.79 293-0.50604 0.97210-0.85947 0.15470-0.27079 0.33750
   3  -3  -6   24.79   14.19 292-0.50739 0.53610-0.85882 0.64830-0.26662-0.20586
   2  -5  -9  -19.74   19.39 292-0.50794 0.26671-0.85855 0.50891-0.26493-0.58263
   0   0  -5   -2.56   13.29 293-0.50614 0.24509-0.85942 0.86243-0.27047-0.26505
  -1  -4   5  257.08   15.77 292-0.50829 0.65700-0.85837 0.57535-0.26383 0.74211
  -3  -5   7   20.50   16.60 292-0.50716 0.53309-0.85893 0.50556-0.26731 0.85036
  -4   1   3   -1.43   11.33 292-0.50798 0.20901-0.85853 0.92999-0.26477 0.36265
  -4  -6   8    8.90   16.70 291-0.50799 0.47245-0.85852 0.43518-0.26474 0.89813
  -6  -2   7    6.65   13.44 291-0.50867 0.19244-0.85817 0.71764-0.26261 0.67636
  -8   1   2   11.47   16.76 292-0.50673-0.29769-0.85914 0.93191-0.26864 0.03692
  -8   0   5   -2.28   17.30 292-0.50710-0.14249-0.85897 0.86056-0.26752 0.35616
  -8  -3   8    3.15   17.82 292-0.50818 0.01763-0.85842 0.64721-0.26413 0.67232
  -9  -1   6    6.28   18.99 293-0.50614-0.19930-0.85942 0.78909-0.27047 0.40862
   5  -7  -6   -4.17   15.71 293-0.50501 0.76232-0.85985 0.36710-0.27356-0.08695
   5  -8  -3   44.26   16.59 293-0.50527 0.91892-0.85974 0.29547-0.27281 0.23318
   4  -6  -8   -6.63   17.01 294-0.50397 0.54371-0.86031 0.43737-0.27672-0.35617
   3  -6  -9   -6.52   18.54 293-0.50627 0.37954-0.85928 0.43891-0.26977-0.52324
   1  -1  -6   84.20   14.68 293-0.50477 0.30705-0.85996 0.79138-0.27430-0.30907
  -3  -3   6   35.91   14.62 293-0.50480 0.47793-0.85995 0.64787-0.27424 0.74845
  -4  -2   6  190.15   15.63 293-0.50485 0.36419-0.85993 0.71922-0.27409 0.69187
  -6   0  -4   -0.83   37.32 298-0.49454-0.39703-0.86361 0.86820-0.30378-0.45825
  -9   0   4    7.34   20.21 294-0.50421-0.30669-0.86021 0.86206-0.27600 0.20221
  -9  -2   7  -10.40   18.32 293-0.50627-0.15115-0.85928 0.71970-0.26977 0.51640
   5  -7  -4    3.43   16.23 294-0.50322 0.86446-0.86059 0.36652-0.27895 0.13166
   4  -5  -7    6.83   13.78 293-0.50439 0.59525-0.86010 0.50826-0.27546-0.24810
   3  -3  -2  232.71   14.17 293-0.50408 0.74165-0.86023 0.64824-0.27638 0.23038
   1  -3   2  452.33   27.06 295-0.50101 0.72053-0.86147 0.64892-0.28546 0.55472
   1  -4  -9   -3.09   18.32 294-0.50291 0.14833-0.86072 0.58151-0.27987-0.62475
  -5  -5   8   -8.68   16.95 294-0.50295 0.35266-0.86071 0.50831-0.27977 0.85648
  -6   0   5    6.41   12.65 293-0.50406 0.08310-0.86024 0.86143-0.27646 0.47628
  -6  -1   6    6.20   13.22 293-0.50383 0.13508-0.86033 0.79140-0.27711 0.58467
  -6  -4   8   10.49   15.91 293-0.50439 0.24098-0.86010 0.57863-0.27546 0.79631
  -7   1  -1   -0.54   30.15 296-0.49781-0.35072-0.86259 0.93701-0.29465-0.20240
  -7   0   5   -2.59   15.81 293-0.50397-0.03310-0.86028 0.86330-0.27672 0.42223
  -7  -2   7   20.81   15.31 294-0.50366 0.07384-0.86041 0.72087-0.27762 0.63612
  -8  -2   7   21.01   16.53 295-0.50233-0.03972-0.86096 0.72132-0.28158 0.58286
   4  -4  -5    3.93   13.40 295-0.50049 0.69551-0.86154 0.57940-0.28675-0.02364
   4  -7  -9    0.95   20.99 295-0.50056 0.48764-0.86151 0.37023-0.28654-0.44890
   1  -7   4   96.28   21.39 296-0.49873 0.82229-0.86216 0.36862-0.29178 0.77534
  -1  -1  -7   10.37   15.15 295-0.50169 0.02336-0.86108 0.79339-0.28324-0.51943
  -1  -7   6   10.01   16.24 295-0.50048 0.70190-0.86154 0.36698-0.28677 0.87317
  -2  -1  -7   -4.70   20.41 296-0.49967-0.09363-0.86183 0.79510-0.28910-0.56951
  -4   1  -4    7.58   22.57 296-0.49829-0.16434-0.86231 0.93544-0.29304-0.35597
  -5  -3   7    0.92   14.08 295-0.50156 0.29880-0.86113 0.65017-0.28361 0.75388
  -7   1   3   16.83   15.66 295-0.50081-0.13956-0.86142 0.93501-0.28580 0.21636
  -8  -1   6    9.13   15.74 295-0.50164-0.09396-0.86110 0.79267-0.28337 0.47890
   5  -7  -7    9.31   15.93 295-0.49987 0.70516-0.86173 0.36840-0.28857-0.17911
   5  -8  -8   23.06   17.98 296-0.49954 0.65284-0.86185 0.29836-0.28951-0.28459
   4  -4  -4    1.33   12.76 295-0.49949 0.74536-0.86187 0.57927-0.28968 0.08630
   3  -4  -8    0.64   15.22 296-0.49945 0.42399-0.86188 0.58165-0.28977-0.39578
   2  -3  -8   91.17   16.67 296-0.49874 0.31151-0.86213 0.65219-0.29183-0.44881
  -1  -2  -8   10.40   18.60 296-0.49853-0.03153-0.86220 0.72434-0.29243-0.61670
  -2   1   1    3.37   11.06 296-0.49941 0.32398-0.86190 0.93308-0.28993 0.28521
  -2   0  -6   44.56   18.74 296-0.49791-0.03958-0.86240 0.86481-0.29416-0.45680
  -2  -8   7    4.55   18.92 296-0.49822 0.63800-0.86230 0.29821-0.29331 0.92967
  -3   1   2  625.10   18.65 296-0.49920 0.26256-0.86197 0.93351-0.29052 0.33649
  -4  -4   7   -3.72   13.14 296-0.49994 0.41075-0.86170 0.57956-0.28836 0.81302
  -7  -1   6   11.11   14.02 295-0.50002 0.01802-0.86167 0.79279-0.28813 0.53933
  -9   0   3   -0.12   22.58 297-0.49699-0.36800-0.86270 0.86609-0.29676 0.11646
   5  -9  -2   15.99   18.83 297-0.49637 0.96261-0.86279 0.22691-0.29838 0.36474
   4  -4  -6   46.22   13.63 297-0.49718 0.63973-0.86253 0.58076-0.29609-0.12072
   4  -5  -2  271.86   19.51 297-0.49588 0.84692-0.86293 0.51037-0.29974 0.30969
   3  -3  -7    5.98   15.73 297-0.49611 0.47303-0.86286 0.65208-0.29908-0.28204
   3  -5  -9   20.18   17.58 297-0.49607 0.36936-0.86288 0.51197-0.29921-0.49400
   2  -1  -4  144.99   13.15 296-0.49812 0.51820-0.86223 0.79200-0.29343-0.02073
   2  -2  -7    9.80   14.43 297-0.49615 0.35910-0.86285 0.72315-0.29899-0.33652
   0  -1  -7   66.08   16.34 296-0.49750 0.13443-0.86243 0.79400-0.29520-0.45077
   0  -2  -8   -8.58   15.91 297-0.49731 0.07999-0.86249 0.72470-0.29571-0.55769
   0  -7   5   94.07   19.63 298-0.49503 0.75769-0.86318 0.36979-0.30209 0.83602
  -1   1  -4  428.16   19.58 297-0.49597 0.17376-0.86291 0.93515-0.29951-0.18223
  -1   0  -6   27.63   15.79 297-0.49700 0.07083-0.86259 0.86468-0.29659-0.39898
  -4   0   4 9064.26   50.24 297-0.49689 0.25174-0.86262 0.86345-0.29690 0.50177
  -4  -1   5    9.61   12.01 297-0.49723 0.30390-0.86252 0.79255-0.29596 0.60737
  -4  -7   8   -3.86   17.13 297-0.49748 0.46146-0.86244 0.36914-0.29524 0.92822
  -5   1   3    9.96   13.67 297-0.49604 0.08454-0.86289 0.93460-0.29929 0.34111
  -7  -4   8    9.12   17.06 296-0.49767 0.12098-0.86238 0.58162-0.29473 0.76000
   5  -6  -6    6.66   15.25 298-0.49385 0.75077-0.86345 0.43998-0.30514-0.05603
   5  -6  -5    2.02   14.87 298-0.49397 0.80290-0.86342 0.44033-0.30483 0.05077
   4  -8   0   -2.36   23.32 300-0.49002 0.94668-0.86438 0.29849-0.31544 0.53936
   2  -1  -3   21.03   12.30 297-0.49526 0.56632-0.86306 0.79275-0.30131 0.09278
   2  -4  -9   17.83   19.45 298-0.49493 0.25438-0.86316 0.58328-0.30218-0.54712
   1   0  -4 1848.96   27.76 298-0.49386 0.39899-0.86345 0.86435-0.30510-0.06561
   1   0  -3    1.20   10.79 298-0.49510 0.45233-0.86311 0.86358-0.30172 0.03689
  -2  -5   6  160.63   16.13 298-0.49420 0.58186-0.86336 0.51109-0.30422 0.83382
  -6   1   3    6.83   13.50 298-0.49384-0.03032-0.86346 0.93573-0.30518 0.29143
  -8  -4   8    4.25   17.67 298-0.49533 0.00471-0.86304 0.58275-0.30110 0.71067
  -9   0   2    1.54   22.37 299-0.49289-0.42568-0.86371 0.86728-0.30778 0.02002
   5  -7  -8   21.91   16.57 299-0.49235 0.64468-0.86390 0.37120-0.30945-0.26369
   5  -7  -3   98.25   19.42 299-0.49074 0.90459-0.86427 0.37003-0.31373 0.27453
   4  -5  -8   24.99   16.47 298-0.49358 0.53246-0.86358 0.51161-0.30611-0.32434
   4  -6  -9   -9.57   18.47 299-0.49167 0.47841-0.86406 0.44241-0.31127-0.42502
   4  -6  -1  212.79   23.15 300-0.48969 0.89335-0.86450 0.44083-0.31650 0.43345
   2  -1  -5   60.18   12.13 298-0.49346 0.46035-0.86361 0.79431-0.30645-0.11509
   2  -8   3   64.35   25.21 301-0.48642 0.87211-0.86512 0.30072-0.32503 0.75745
  -2  -3   5   18.44   10.97 298-0.49320 0.52759-0.86368 0.65200-0.30711 0.72983
  -3   0  -6    1.52   19.77 299-0.49128-0.16075-0.86415 0.86623-0.31229-0.49279
  -3  -1  -7   10.71   22.75 299-0.49127-0.21271-0.86415 0.79639-0.31233-0.59938
  -3  -6   7   -7.33   16.48 299-0.49190 0.51684-0.86401 0.44175-0.31065 0.89084
  -6  -5   8   -1.14   16.44 299-0.49167 0.22820-0.86406 0.51278-0.31127 0.83275
  -8   0   4   12.55   18.83 299-0.49173-0.20885-0.86404 0.86708-0.31108 0.29296
  -9  -1   5    6.42   19.25 298-0.49308-0.26842-0.86371 0.79707-0.30747 0.34098
   6 -10  -6    3.05   20.03 300-0.49065 0.86269-0.86435 0.15946-0.31396 0.00920
   5  -6  -7   -2.49   15.18 300-0.48947 0.69445-0.86460 0.44211-0.31710-0.15043
   4  -4  -7   -0.86   13.95 300-0.49025 0.58020-0.86444 0.58305-0.31504-0.20774
   3  -2  -5   26.19   12.21 299-0.49051 0.57122-0.86438 0.72341-0.31436-0.05203
   3  -2  -4  227.15   14.10 300-0.49047 0.62370-0.86439 0.72285-0.31446 0.05535
   1  -2  -8   14.72   15.62 299-0.49074 0.18786-0.86433 0.72547-0.31375-0.48449
  -2  -9   7   13.27   20.16 300-0.48951 0.62996-0.86459 0.23039-0.31700 0.95386
  -3  -2   5   26.33   11.65 300-0.49044 0.41093-0.86440 0.72370-0.31454 0.68201
  -5  -2   6   30.76   12.88 300-0.48998 0.23524-0.86450 0.72509-0.31577 0.67824
  -5  -6   8   18.12   17.01 299-0.49106 0.34221-0.86426 0.44209-0.31288 0.88968
  -6  -3   7   13.64   13.96 300-0.49060 0.17514-0.86436 0.65380-0.31412 0.72681
  -9  -3   7  -15.35   19.47 300-0.49060-0.16625-0.86436 0.65542-0.31412 0.56103
   6 -10  -5   -9.07   20.87 301-0.48735 0.91223-0.86496 0.15910-0.32275 0.12459
   5  -6  -4    5.56   14.32 300-0.48817 0.84899-0.86481 0.44090-0.32064 0.17304
   4  -4  -3   29.91   10.70 301-0.48813 0.78714-0.86482 0.58185-0.32073 0.22370
   1  -1  -7   65.03   16.92 301-0.48755 0.23687-0.86492 0.79586-0.32222-0.36836
   1  -3  -9   18.22   19.69 301-0.48729 0.13228-0.86497 0.65596-0.32289-0.58278
   0   0  -6   69.92   12.83 300-0.48840 0.17565-0.86477 0.86654-0.32002-0.32004
  -1  -8   6   14.08   18.59 301-0.48638 0.68775-0.86513 0.30069-0.32526 0.91077
  -4  -8   8   -3.80   17.17 301-0.48842 0.45261-0.86476 0.30162-0.31999 0.95251
  -5   0  -5    2.26   28.49 302-0.48386-0.34477-0.86551 0.86984-0.33163-0.47998
  -7   1   2   27.01   16.06 301-0.48714-0.20255-0.86500 0.93792-0.32328 0.14809
  -9  -2   6   -0.11   17.74 301-0.48842-0.22078-0.86476 0.72641-0.31999 0.45966
   6  -9  -7   -7.89   20.69 302-0.48455 0.80308-0.86539 0.23203-0.32993-0.08082
   6  -9  -6    1.69   20.86 302-0.48487 0.85727-0.86534 0.23035-0.32911 0.02407
   3  -2  -6  220.68   15.86 302-0.48523 0.51334-0.86529 0.72530-0.32820-0.14405
   1   0  -5    0.13   10.88 302-0.48567 0.33814-0.86522 0.86679-0.32707-0.15031
  -7  -3   7    5.74   14.62 301-0.48609 0.05692-0.86515 0.65534-0.32598 0.68398
  -7  -5   8   -1.36   18.09 302-0.48478 0.10774-0.86536 0.51403-0.32931 0.79421
  -8  -3   7   -0.32   15.27 302-0.48609-0.05716-0.86515 0.65541-0.32600 0.62833
   6  -9  -5   -1.26   20.54 303-0.48199 0.90436-0.86580 0.23203-0.33619 0.13842
   5  -6  -8   -4.41   18.15 302-0.48346 0.63390-0.86562 0.44373-0.33253-0.23840
   5  -8  -2   82.35   20.03 303-0.48143 0.94749-0.86586 0.30139-0.33757 0.40532
   3  -3  -8   32.22   16.24 303-0.48318 0.40772-0.86565 0.65505-0.33323-0.35270
   3  -4  -9    5.71   15.82 303-0.48310 0.35591-0.86566 0.58517-0.33345-0.45944
   2  -1  -6   32.57   12.47 302-0.48403 0.39885-0.86554 0.79657-0.33109-0.19726
  -1  -3   4  174.03   13.67 302-0.48359 0.57998-0.86560 0.65352-0.33218 0.70382
  -1  -5   5   34.38   14.48 303-0.48279 0.63107-0.86570 0.51272-0.33417 0.81340
  -2   1  -5  166.15   21.17 304-0.48047-0.00651-0.86596 0.93834-0.33992-0.30510
  -2 -10   7   -7.14   22.86 304-0.48100 0.62003-0.86590 0.16346-0.33862 0.97175
  -3  -4   6   30.73   12.64 303-0.48344 0.45681-0.86562 0.58382-0.33257 0.80688
  -4  -3   6   88.51   14.54 303-0.48242 0.34070-0.86575 0.65585-0.33510 0.75255
  -4  -5   7   -4.14   14.23 302-0.48419 0.39643-0.86552 0.51352-0.33070 0.85635
  -5   0   4   -1.97   10.34 303-0.48370 0.12384-0.86559 0.86671-0.33192 0.48067
  -5  -1   5    9.23   11.31 303-0.48319 0.17615-0.86565 0.79659-0.33321 0.58917
  -5  -4   7   17.70   13.35 303-0.48373 0.28195-0.86558 0.58425-0.33184 0.80054
  -7   0   4    9.95   15.09 303-0.48228-0.10373-0.86576 0.86796-0.33546 0.37280
  -8  -1   5    2.52   15.89 303-0.48224-0.16616-0.86577 0.79770-0.33558 0.42431
  -8  -5   8   -3.78   19.04 303-0.48321-0.00749-0.86565 0.51519-0.33314 0.74335
   4  -5  -9   -4.56   18.78 303-0.48088 0.46737-0.86590 0.51545-0.33895-0.39539
   3  -2  -3 1456.28   24.92 304-0.48068 0.66637-0.86592 0.72405-0.33945 0.18786
   2  -2  -8  -25.28   16.39 304-0.47964 0.29008-0.86601 0.72736-0.34198-0.39892
   2  -3  -9   19.15   18.28 304-0.47984 0.23888-0.86600 0.65643-0.34148-0.50622
   1   0  -2   96.36   13.58 303-0.48100 0.49169-0.86589 0.86527-0.33864 0.18155
   0  -3   3   28.05   12.90 304-0.48042 0.63773-0.86594 0.65394-0.34007 0.66119
  -3   0   3    1.21   11.50 304-0.48100 0.29612-0.86589 0.86646-0.33864 0.49212
  -3  -1   4  238.21   14.03 304-0.48085 0.34859-0.86590 0.79616-0.33903 0.59896
  -3  -7   7  -15.47   18.53 304-0.47959 0.50514-0.86602 0.37231-0.34208 0.92487
  -5  -7   8    1.61   17.38 304-0.48076 0.33128-0.86591 0.37316-0.33925 0.91709
  -6   0   4   46.31   13.79 304-0.47941 0.00565-0.86603 0.86808-0.34253 0.43484
  -6  -2   6   30.95   13.36 304-0.48102 0.11293-0.86588 0.72622-0.33859 0.64560
  -6  -6   8    5.56   16.66 303-0.48077 0.21762-0.86591 0.44332-0.33922 0.86409
  -7   1   0  162.62   25.28 306-0.47657-0.31821-0.86622 0.93967-0.34934-0.04019
  -7   1   1   36.42   19.97 305-0.47808-0.26419-0.86613 0.93984-0.34573 0.06214
  -8  -2   6   11.75   15.59 304-0.48091-0.11405-0.86589 0.72691-0.33885 0.53434
   6  -8  -7    2.17   19.83 305-0.47708 0.79555-0.86627 0.30305-0.34803-0.06302
   6  -8  -6   -5.51   17.96 305-0.47722 0.84830-0.86626 0.30262-0.34770 0.04290
   6 -10  -4   -8.53   20.70 305-0.47729 0.95372-0.86626 0.16076-0.34749 0.25619
   5  -5  -6    1.13   13.30 304-0.47911 0.73591-0.86613 0.51355-0.34316-0.01812
   5  -5  -5   -7.45   14.21 305-0.47722 0.78580-0.86626 0.51401-0.34770 0.09364
   4  -3  -5   13.82   12.48 305-0.47796 0.67231-0.86621 0.65450-0.34590 0.03553
   4  -4  -8   12.81   15.60 304-0.47903 0.51787-0.86613 0.58524-0.34334-0.28756
   1  -5   3  102.32   18.17 306-0.47542 0.74703-0.86635 0.51353-0.35197 0.72811
   0  -8   5   26.64   18.35 306-0.47615 0.73904-0.86632 0.30273-0.35020 0.88392
  -7  -2   6   12.72   13.34 305-0.47837-0.00338-0.86618 0.72705-0.34493 0.59644
  -8   0   3   -1.14   16.77 305-0.47709-0.27687-0.86627 0.86902-0.34800 0.22287
  -9  -1   4   -4.22   17.42 305-0.47848-0.33610-0.86618 0.79890-0.34467 0.27097
   5  -5  -7   12.16   14.57 305-0.47588 0.68055-0.86624 0.51398-0.35069-0.11720
   5 -11  -1    2.78   25.49 307-0.47241 0.99178-0.86634 0.08996-0.35879 0.53258
   4  -3  -6   64.98   13.30 305-0.47661 0.62065-0.86620 0.65475-0.34896-0.06641
   3  -2  -7    3.21   13.68 306-0.47549 0.45150-0.86626 0.72654-0.35160-0.22727
   2  -1  -2    5.85   11.02 306-0.47564 0.59881-0.86625 0.79547-0.35127 0.24929
   1  -8   4   73.96   22.15 307-0.47251 0.79627-0.86634 0.30199-0.35856 0.84320
   0  -5   4  442.38   21.07 306-0.47419 0.68469-0.86630 0.51340-0.35468 0.78202
  -1   1  -5  283.93   19.83 306-0.47541 0.10212-0.86626 0.93840-0.35179-0.23724
  -1  -9   6   14.93   18.47 306-0.47419 0.67532-0.86630 0.23266-0.35466 0.93921
  -2  -2   4 1778.78   26.34 306-0.47474 0.45744-0.86628 0.72511-0.35338 0.66927
  -2  -6   6   30.95   13.50 306-0.47554 0.56362-0.86625 0.44283-0.35150 0.88185
  -3   1  -5   17.35   22.21 306-0.47288-0.12789-0.86633 0.93960-0.35773-0.34176
  -4   1   2   44.51   12.22 306-0.47595 0.12648-0.86624 0.93782-0.35054 0.34156
  -6   1   2   50.47   16.66 307-0.47367-0.10418-0.86632 0.93882-0.35587 0.23542
  -6  -1   5    7.61   12.13 305-0.47600 0.05550-0.86623 0.79723-0.35038 0.55040
  -7  -1   5   -4.64   13.43 306-0.47608-0.05857-0.86623 0.79736-0.35025 0.49461
  -8   0  -1    9.09   30.23 307-0.47113-0.49030-0.86634 0.87117-0.36170-0.19015
  -9  -4   7  -18.46   18.88 306-0.47562-0.18136-0.86625 0.58689-0.35130 0.59900
   6  -8  -5   40.87   18.36 307-0.47213 0.89515-0.86632 0.30217-0.35974 0.16171
   1   0  -6  489.87   18.40 307-0.47253 0.27381-0.86631 0.86763-0.35883-0.22559
   0   1  -3  398.29   18.81 307-0.47274 0.31659-0.86631 0.93741-0.35833 0.03806
   0  -1  -8   -4.07   17.86 307-0.47235 0.05412-0.86631 0.79933-0.35921-0.49563
  -1  -1  -8   52.23   21.52 307-0.47273-0.05701-0.86631 0.79929-0.35833-0.55057
  -6  -4   7   -0.75   14.32 307-0.47366 0.15763-0.86629 0.58511-0.35622 0.76994
  -7  -6   8   16.93   17.38 307-0.47316 0.09691-0.86630 0.44496-0.35737 0.82323
   6  -9  -4   -2.13   20.63 308-0.46943 0.94497-0.86636 0.23209-0.36586 0.27460
   5  -6  -9  -12.74   18.63 308-0.47086 0.57173-0.86638 0.44511-0.36263-0.31842
   5  -6  -3   44.04   16.01 308-0.47047 0.88434-0.86637 0.44178-0.36351 0.32463
   4  -3  -7    7.85   14.12 308-0.47089 0.56135-0.86638 0.65561-0.36254-0.16144
   4  -3  -4    3.31   10.91 308-0.47079 0.71820-0.86638 0.65470-0.36278 0.15883
   2  -1  -7   -1.58   12.31 308-0.47086 0.33303-0.86638 0.79807-0.36263-0.27275
   0   1  -4  428.13   17.37 307-0.47099 0.26313-0.86638 0.93764-0.36234-0.06505
   0  -2  -9   -4.66   18.73 308-0.47073 0.00102-0.86638 0.72904-0.36293-0.59705
  -1   0  -7   -1.05   17.51 308-0.46943-0.01009-0.86636 0.86943-0.36586-0.43659
  -4   0  -6    4.18   24.80 308-0.46881-0.29649-0.86635 0.86931-0.36726-0.49318
  -4  -6   7   20.99   17.21 308-0.46923 0.38163-0.86636 0.44348-0.36631 0.89281
  -5   1   2  111.15   14.43 309-0.46852 0.00445-0.86634 0.93842-0.36791 0.30239
  -5  -8   8   17.06   19.41 308-0.47085 0.32221-0.86638 0.30306-0.36265 0.93918
  -7  -4   7   -5.14   16.26 308-0.46943 0.03975-0.86636 0.58562-0.36586 0.72474
  -8  -4   7    8.83   16.60 308-0.47013-0.07247-0.86637 0.58645-0.36427 0.66746
  -9  -2   5  -11.41   18.98 308-0.47000-0.29104-0.86637 0.72840-0.36457 0.39827
  -9  -3   6   -0.72   19.46 308-0.46956-0.23945-0.86636 0.65704-0.36556 0.50577
   6  -7  -7   10.05   17.33 309-0.46683 0.78569-0.86632 0.37311-0.37164-0.04024
   6  -7  -6   10.71   19.09 310-0.46566 0.83760-0.86627 0.37271-0.37420 0.06900
   5  -5  -8    6.79   15.30 308-0.46855 0.62141-0.86638 0.51489-0.36780-0.20715
   5  -5  -4    2.16   14.20 309-0.46709 0.82811-0.86633 0.51336-0.37104 0.22329
   3  -3  -9   -0.60   18.39 310-0.46549 0.33854-0.86626 0.65756-0.37456-0.41987
   1  -1  -8  192.46   19.56 309-0.46629 0.16483-0.86630 0.79774-0.37283-0.42481
   1  -2  -9   -2.55   20.23 310-0.46548 0.10926-0.86626 0.72948-0.37460-0.53546
   1  -2   1  286.69   32.32 311-0.46118 0.62806-0.86594 0.72407-0.38391 0.54706
   0   0  -7    3.75   16.26 310-0.46548 0.10050-0.86626 0.86921-0.37460-0.37304
  -1 -10   6   -2.84   21.31 308-0.46753 0.67056-0.86635 0.15948-0.37005 0.95880
  -3  -8   7   14.10   19.75 309-0.46715 0.49334-0.86634 0.30300-0.37090 0.95142
  -4  -2   5  142.43   12.93 309-0.46752 0.27335-0.86635 0.72720-0.37008 0.68094
  -5  -3   6   22.13   14.17 309-0.46654 0.21241-0.86631 0.65552-0.37228 0.73456
  -5  -5   7   -1.55   14.06 309-0.46789 0.26561-0.86636 0.51442-0.36926 0.83993
  -6  -7   8  -17.70   18.25 309-0.46843 0.20513-0.86638 0.37360-0.36808 0.88863
   5 -10  -1   -3.55   24.02 311-0.46139 0.98010-0.86595 0.16113-0.38350 0.55722
   4  -4  -9   14.79   17.07 310-0.46535 0.45217-0.86625 0.58611-0.37489-0.36282
   3 -10   2   75.69   41.63 318-0.44094 0.88855-0.86251 0.15766-0.42452 0.80665
  -2   0  -7    4.02   20.08 310-0.46460-0.12724-0.86620 0.86904-0.37656-0.48099
  -2  -4   5   -1.81   13.34 309-0.46549 0.50080-0.86625 0.58412-0.37460 0.79959
  -8   0   2   10.82   19.67 310-0.46469-0.34059-0.86621 0.87012-0.37636 0.14497
  -9  -1   3   -0.39   19.25 310-0.46509-0.40053-0.86623 0.79914-0.37549 0.19540
   6  -7  -8    3.39   19.48 311-0.46265 0.72985-0.86606 0.37320-0.38079-0.13794
   4  -3  -8   -3.52   15.46 311-0.46132 0.49918-0.86595 0.65593-0.38363-0.24631
   3  -2  -8   19.28   13.99 311-0.46222 0.38647-0.86603 0.72627-0.38170-0.30437
   0  -9   5   24.88   18.27 311-0.46121 0.72432-0.86594 0.23089-0.38388 0.91908
  -2  -1   3   20.93   11.99 311-0.46227 0.39168-0.86603 0.79562-0.38159 0.59112
  -3  -5   6   61.30   12.56 311-0.46232 0.43612-0.86603 0.51389-0.38148 0.85595
  -7   0   3  -10.22   15.95 311-0.46113-0.17955-0.86593 0.86855-0.38402 0.31485
  -7  -7   8   -1.13   18.13 311-0.46271 0.08589-0.86607 0.37383-0.38064 0.84684
  -8  -1   4   -6.95   17.44 311-0.46141-0.23927-0.86596 0.79774-0.38343 0.36541
   6  -7  -5   27.25   18.57 312-0.45851 0.88257-0.86565 0.37117-0.38953 0.19095
   6  -8  -4   21.89   18.25 312-0.45755 0.93290-0.86554 0.30115-0.39152 0.30016
   5  -4  -7    7.97   13.98 312-0.45878 0.66280-0.86569 0.58419-0.38894-0.07879
   5  -4  -6    8.47   13.29 311-0.46013 0.71637-0.86583 0.58390-0.38607 0.02479
   5  -5  -9   -6.01   17.36 312-0.45852 0.55846-0.86566 0.51475-0.38947-0.29107
   5  -7  -2    9.32   16.55 313-0.45803 0.92483-0.86560 0.37116-0.39051 0.45707
   2  -2  -9   -2.37   18.84 312-0.45880 0.21650-0.86569 0.72772-0.38889-0.46097
   1  -1   0 2187.60   74.70 314-0.45381 0.56888-0.86503 0.79332-0.39922 0.45618
   0   1  -5   60.00   12.56 311-0.46020 0.20054-0.86584 0.93772-0.38593-0.14718
  -1  -2   3  181.35   15.66 312-0.45897 0.50245-0.86571 0.72443-0.38856 0.65328
  -1  -6   5   30.05   15.66 313-0.45735 0.60621-0.86552 0.44242-0.39193 0.87060
  -2  -7   6    1.30   17.28 312-0.45852 0.54523-0.86566 0.37177-0.38947 0.92045
  -3  -3   5   26.54   11.57 312-0.45993 0.38088-0.86581 0.65505-0.38652 0.75327
  -3  -9   7    2.54   21.86 312-0.45834 0.48514-0.86564 0.23132-0.38986 0.97204
  -4  -4   6   35.38   13.30 312-0.45981 0.31905-0.86580 0.58449-0.38677 0.80519
  -6  -3   6   -0.39   15.57 312-0.45859 0.09057-0.86566 0.65556-0.38935 0.69705
  -6  -8   8    1.66   20.82 312-0.45973 0.19671-0.86579 0.30277-0.38694 0.90898
  -8   0   0    0.47   23.35 313-0.45520-0.45334-0.86523 0.86976-0.39638-0.04817
  -8  -3   6    6.05   16.26 311-0.46050-0.13434-0.86587 0.65629-0.38529 0.58107
   4  -4  -2  344.71   18.58 313-0.45663 0.80832-0.86542 0.58266-0.39344 0.40321
   3  -1  -5   13.15   11.90 312-0.45709 0.53742-0.86548 0.79530-0.39248 0.02612
   3  -3  -1  180.15   17.24 313-0.45568 0.74600-0.86529 0.65250-0.39539 0.45670
   2  -9   3  137.61   27.86 315-0.44956 0.83525-0.86431 0.23033-0.40779 0.84071
   1   0  -7    6.89   15.94 314-0.45457 0.20327-0.86513 0.86800-0.39768-0.29468
  -4   0   3    3.04   11.13 313-0.45723 0.15965-0.86549 0.86588-0.39219 0.48946
  -4  -1   4   -0.32   12.13 313-0.45736 0.21123-0.86551 0.79552-0.39190 0.59661
  -4  -7   7   11.08   17.92 313-0.45611 0.36887-0.86535 0.37158-0.39451 0.92252
  -6  -5   7   -2.85   15.29 313-0.45730 0.14144-0.86550 0.51375-0.39205 0.80625
  -7  -3   6    9.93   15.21 313-0.45667-0.02485-0.86542 0.65560-0.39336 0.64512
  -8   0   1    1.56   20.02 314-0.45277-0.40054-0.86486 0.86694-0.40135 0.06424
  -8  -2   5    2.00   15.89 313-0.45709-0.19108-0.86548 0.72648-0.39248 0.48156
  -9  -1   2    1.86   20.23 314-0.45455-0.46272-0.86513 0.79801-0.39773 0.11100
   6  -6  -7    6.05   16.78 313-0.45441 0.77218-0.86514 0.44238-0.39801-0.01378
   6 -10  -3   -0.87   22.31 315-0.45062 0.98225-0.86454 0.15712-0.40562 0.42227
   5  -4  -5  137.99   13.28 313-0.45476 0.76398-0.86520 0.58284-0.39725 0.14335
   3  -1  -6   30.65   12.20 313-0.45506 0.48374-0.86524 0.79559-0.39665-0.07630
   2   0  -5   -1.97   11.08 314-0.45426 0.42034-0.86512 0.86638-0.39830-0.02340
   2  -1  -8   20.35   15.32 314-0.45415 0.26461-0.86511 0.79640-0.39850-0.34353
   1  -9   4   14.47   20.74 315-0.45053 0.77533-0.86452 0.22906-0.40582 0.89020
  -5  -2   5  208.90   15.01 314-0.45266 0.14437-0.86488 0.72531-0.40152 0.65627
  -6   1   1   14.32   16.14 315-0.45207-0.17726-0.86478 0.93718-0.40272 0.17568
  -7  -5   7   -1.26   16.62 314-0.45312 0.02383-0.86495 0.51344-0.40061 0.75898
  -8  -5   7   -1.44   18.19 314-0.45469-0.08804-0.86518 0.51413-0.39743 0.70028
   6  -6  -8   -2.58   17.38 315-0.45133 0.71717-0.86447 0.44234-0.40439-0.11380
   6  -6  -6   33.27   15.02 315-0.45176 0.82248-0.86454 0.44131-0.40355 0.09819
   5  -4  -8    2.20   15.05 315-0.45205 0.60470-0.86459 0.58419-0.40295-0.17195
   4  -2  -6  169.33   15.71 315-0.45057 0.59368-0.86434 0.72333-0.40592-0.01000
   4  -3  -3  158.65   13.50 315-0.45120 0.75051-0.86445 0.65202-0.40466 0.30889
   2   0  -4 1013.91   21.22 315-0.45148 0.47135-0.86450 0.86424-0.40411 0.08925
   0   1  -2  309.97   17.09 314-0.45168 0.34819-0.86453 0.93526-0.40370 0.18971
   0 -10   5    0.06   20.12 315-0.45013 0.71300-0.86426 0.15933-0.40679 0.94293
  -1   1  -6  670.66   25.07 314-0.45144 0.02676-0.86449 0.93678-0.40419-0.29186
  -2   1  -6   12.13   19.60 315-0.44903-0.09037-0.86406 0.93672-0.40898-0.34126
  -3 -10   7    0.82   18.65 314-0.45191 0.47937-0.86457 0.15966-0.40324 0.98663
  -5  -6   7   12.53   13.94 315-0.45195 0.25061-0.86458 0.44222-0.40317 0.87271
  -6   1  -2    0.50   33.22 318-0.44063-0.34699-0.86226 0.93749-0.42523-0.12303
  -6   0   3   -1.83   13.99 315-0.45018-0.07572-0.86427 0.86602-0.40669 0.39327
  -9  -2   4   -8.85   21.19 315-0.45052-0.36214-0.86433 0.72602-0.40602 0.33246
  -9  -4   6   -2.70   19.25 315-0.45177-0.25725-0.86455 0.58505-0.40353 0.54428
   4  -2  -5  129.96   14.16 316-0.44769 0.64172-0.86366 0.72269-0.41181 0.10165
   4  -3  -9   21.94   17.44 316-0.44705 0.43372-0.86354 0.65345-0.41308-0.32613
   3  -1  -7   15.51   15.89 316-0.44798 0.42412-0.86372 0.79388-0.41127-0.16840
   3  -1  -4  238.92   14.30 315-0.44962 0.58306-0.86403 0.79344-0.40801 0.14924
   3  -2  -2  451.19   17.59 316-0.44866 0.68582-0.86385 0.72219-0.40992 0.36403
   2   0  -6  219.75   14.77 315-0.44892 0.36441-0.86390 0.86487-0.40941-0.11830
  -3   1   1  143.46   15.59 316-0.44803 0.15990-0.86373 0.93493-0.41113 0.35163
  -3   0  -7    4.16   23.66 316-0.44620-0.26000-0.86336 0.86770-0.41475-0.49970
  -5   0   3   -0.58   10.90 316-0.44862 0.03633-0.86384 0.86546-0.40998 0.45242
  -6  -2   5   35.38   14.80 316-0.44735 0.02734-0.86360 0.72459-0.41250 0.61307
  -7  -1   4   17.78   14.17 316-0.44901-0.13708-0.86392 0.79572-0.40921 0.44709
  -7  -2   5   12.90   13.58 315-0.44925-0.08466-0.86396 0.72530-0.40877 0.55385
  -9  -3   5  -16.28   19.07 316-0.44753-0.31318-0.86363 0.65544-0.41213 0.44590
   6  -6  -9    4.61   19.78 317-0.44423 0.65833-0.86291 0.44100-0.41858-0.20569
   5  -9  -1    7.30   23.80 318-0.44066 0.95975-0.86208 0.22570-0.42539 0.59871
   4  -2  -7    2.36   13.30 317-0.44640 0.53689-0.86336 0.72379-0.41440-0.10983
   3  -2  -9   -1.71   16.12 317-0.44566 0.31742-0.86321 0.72416-0.41583-0.37674
   3  -3 -10   -3.93   19.96 317-0.44625 0.26633-0.86333 0.65477-0.41469-0.48537
   0   1  -6  132.46   16.94 317-0.44412 0.13319-0.86288 0.93494-0.41883-0.22044
   0  -1  -9   -5.51   21.70 316-0.44596-0.02087-0.86327 0.79479-0.41526-0.53991
   0  -2   2 6240.62   62.87 317-0.44533 0.55068-0.86314 0.72159-0.41648 0.62985
   0 -11   5   10.33   22.42 318-0.44239 0.70638-0.86249 0.08706-0.42210 0.95726
  -1   0   1   48.08   14.61 317-0.44534 0.38400-0.86315 0.86348-0.41643 0.46745
  -2  -8   6    5.09   18.00 317-0.44521 0.53432-0.86312 0.29741-0.41668 0.95025
  -4   1  -5    2.82   25.62 318-0.44131-0.27380-0.86224 0.93622-0.42419-0.33151
  -4  -8   7  -16.11   19.18 317-0.44428 0.35646-0.86292 0.29886-0.41848 0.94571
  -5   1  -4   69.74   43.50 320-0.43638-0.33894-0.86099 0.93468-0.43338-0.27055
  -5  -1   4  111.44   12.33 317-0.44546 0.08649-0.86317 0.79467-0.41622 0.56510
  -5  -4   6   16.84   14.48 318-0.44361 0.19018-0.86277 0.58207-0.41978 0.78144
   6  -6  -5   -4.28   17.72 318-0.44172 0.86510-0.86224 0.43830-0.42357 0.22503
   6  -7  -4   -0.50   16.26 318-0.44142 0.91597-0.86217 0.36850-0.42413 0.33268
   6  -9  -3    6.49   19.80 318-0.44100 0.96991-0.86207 0.22588-0.42492 0.44057
   5  -4  -9    0.09   16.52 318-0.44281 0.54264-0.86250 0.58146-0.42149-0.25943
   5  -5  -3   45.87   15.94 318-0.44200 0.85517-0.86231 0.50903-0.42303 0.38264
   4  -5  -1    3.99   16.87 319-0.43909 0.84370-0.86160 0.50755-0.42854 0.54561
   4  -7   0    3.87   24.73 320-0.43446 0.89077-0.86037 0.36557-0.43705 0.66066
   1  -1  -9   15.10   20.47 318-0.44149 0.08597-0.86219 0.79472-0.42401-0.48186
  -1  -4   4   82.09   12.36 318-0.44304 0.53999-0.86255 0.58050-0.42105 0.79265
  -3  -6   6   40.15   15.24 318-0.44282 0.41739-0.86250 0.44024-0.42147 0.89615
  -6  -1   4    6.95   12.17 318-0.44300-0.02957-0.86254 0.79391-0.42113 0.51449
  -6  -6   7   10.59   15.54 318-0.44272 0.12805-0.86248 0.44096-0.42165 0.83672
  -8  -1   3   -0.32   16.56 318-0.44122-0.31305-0.86213 0.79537-0.42451 0.29993
  -8  -4   6   10.06   16.79 318-0.44147-0.15302-0.86218 0.58307-0.42404 0.62052
  -8  -6   7    3.73   19.44 318-0.44152-0.10091-0.86220 0.44141-0.42394 0.72771
   5  -4  -4   21.34   12.25 319-0.43943 0.80095-0.86160 0.57791-0.42774 0.28093
   4  -2  -8   11.17   14.74 319-0.43825 0.47655-0.86130 0.72096-0.42997-0.20119
   1 -10   4   26.94   25.08 320-0.43651 0.76279-0.86084 0.15455-0.43320 0.91889
   0   0  -8   20.35   16.83 318-0.44011 0.02324-0.86177 0.86448-0.42649-0.42687
   0  -6   4  136.59   18.89 319-0.43893 0.64961-0.86147 0.43850-0.42870 0.85642
  -1   0  -8    5.26   19.72 319-0.43764-0.09272-0.86114 0.86442-0.43112-0.47772
  -1  -1   2 1291.34   26.90 319-0.44011 0.43123-0.86177 0.79123-0.42648 0.58449
  -3  -2   4  279.85   15.86 319-0.43853 0.30760-0.86137 0.72112-0.42944 0.68971
  -4  -5   6   18.11   14.51 319-0.43824 0.29846-0.86130 0.50962-0.43000 0.84861
  -5  -7   7   -7.59   18.83 319-0.43869 0.23744-0.86141 0.36935-0.42915 0.89906
  -7   0   2  100.20   17.18 320-0.43743-0.25344-0.86109 0.86380-0.43150 0.25667
  -7  -6   7   -7.51   17.53 319-0.43952 0.01058-0.86162 0.44056-0.42760 0.78755
   6  -5  -8   17.10   16.57 320-0.43624 0.70255-0.86074 0.50771-0.43403-0.08510
   6  -5  -7   11.34   14.28 319-0.43774 0.75648-0.86114 0.50808-0.43128 0.01894
   5  -3  -7   -4.18   13.44 320-0.43708 0.64106-0.86096 0.64977-0.43248-0.03531
   5  -3  -6   41.95   14.97 320-0.43622 0.69220-0.86073 0.64884-0.43408 0.07337
   3  -1  -8   11.94   14.14 320-0.43579 0.36003-0.86062 0.79128-0.43486-0.25169
   2   0  -7   -4.12   11.36 320-0.43754 0.29940-0.86108 0.86347-0.43164-0.20431
   1   1  -5  174.14   14.75 320-0.43587 0.28889-0.86064 0.93226-0.43470-0.04231
   1   0  -8   14.75   17.85 320-0.43496 0.13180-0.86039 0.86243-0.43637-0.36097
  -1  -7   5  152.75   18.22 320-0.43469 0.58406-0.86031 0.36715-0.43687 0.91526
  -2  -5   5   16.00   13.19 320-0.43640 0.47175-0.86078 0.50805-0.43373 0.85734
  -4  -3   5   41.44   12.58 320-0.43666 0.24405-0.86085 0.65088-0.43328 0.74491
  -4  -9   7    0.84   18.74 320-0.43544 0.34815-0.86052 0.22606-0.43552 0.96328
  -5   1   1   99.98   17.07 320-0.43472-0.08128-0.86032 0.93291-0.43682 0.26618
  -6   1   0  100.85   19.55 321-0.43305-0.24887-0.85984 0.93308-0.43986 0.10703
  -6  -4   6   20.10   13.60 320-0.43698 0.06952-0.86094 0.58079-0.43268 0.74063
  -7  -4   6    0.72   14.65 320-0.43670-0.04522-0.86086 0.58112-0.43318 0.68599
  -9  -5   6    1.87   20.54 320-0.43548-0.27239-0.86053 0.51187-0.43544 0.57690
   7  -8  -7   15.47   19.58 320-0.43418 0.86696-0.86019 0.29528-0.43784 0.08194
   6  -5  -6   -6.00   14.40 321-0.43381 0.80383-0.86009 0.50717-0.43849 0.13336
   5  -3  -8   -0.76   15.79 321-0.43253 0.58445-0.85972 0.64883-0.44081-0.13364
   4  -2  -4  511.95   16.59 321-0.43412 0.68060-0.86018 0.71883-0.43795 0.23450
   2   0  -3    1.41   10.30 320-0.43413 0.50470-0.86018 0.85979-0.43794 0.22935
   2  -1  -9    8.28   16.69 320-0.43428 0.19287-0.86022 0.79133-0.43766-0.41054
   2 -10   3    2.87   26.44 323-0.42738 0.81514-0.85814 0.15121-0.44997 0.88404
   1   1  -4   97.69   12.98 320-0.43462 0.34042-0.86032 0.93134-0.43706 0.06718
  -2  -3   4 1430.69   24.87 321-0.43227 0.41542-0.85964 0.64831-0.44131 0.75727
  -2  -9   6   10.55   18.68 321-0.43252 0.52125-0.85972 0.22471-0.44085 0.97218
  -3   1  -6   61.18   25.59 322-0.43003-0.22264-0.85897 0.93270-0.44530-0.36023
  -8  -3   5    5.10   18.66 321-0.43258-0.21342-0.85973 0.65161-0.44073 0.53015
  -9  -2   3   12.91   21.34 322-0.43174-0.42987-0.85948 0.72203-0.44226 0.26296
   6  -5  -9    1.72   17.39 323-0.42804 0.64501-0.85813 0.50552-0.44908-0.17948
   5  -4 -10   -8.71   19.38 322-0.42949 0.47734-0.85859 0.57789-0.44650-0.34082
   4  -3 -10   29.57   19.17 321-0.43128 0.36562-0.85914 0.64931-0.44333-0.40058
   1 -11   4    6.08   23.65 323-0.42624 0.75229-0.85755 0.08102-0.45222 0.93703
  -3  -4   5   57.12   14.48 322-0.43032 0.35079-0.85885 0.57858-0.44505 0.81204
  -4   1   1  104.70   14.59 322-0.42991 0.02824-0.85872 0.93072-0.44578 0.33057
  -6  -7   7    9.06   16.40 322-0.42998 0.11571-0.85874 0.36679-0.44564 0.86106
  -8  -2   4    8.81   15.61 322-0.43125-0.26790-0.85913 0.72131-0.44340 0.42590
   7  -8  -6   -5.66   21.54 323-0.42624 0.91062-0.85755 0.29351-0.45229 0.20337
   6  -8  -3   14.02   18.75 323-0.42628 0.95244-0.85756 0.29263-0.45222 0.46698
   5  -3  -5   -9.02   14.14 323-0.42661 0.73518-0.85767 0.64563-0.45165 0.19703
   5  -6  -2  111.81   17.55 323-0.42653 0.89191-0.85764 0.43374-0.45177 0.51778
   4  -2  -9   22.81   16.41 323-0.42583 0.41198-0.85741 0.71737-0.45300-0.28516
   3  -1  -3   -0.95   11.74 323-0.42752 0.61117-0.85796 0.78713-0.45005 0.29771
   3 -11   2    7.36   35.07 327-0.41301 0.86162-0.85273 0.07615-0.47458 0.85669
   1   1  -6   93.66   12.77 322-0.42811 0.23041-0.85815 0.92972-0.44903-0.13423
  -2   2  -3    9.82   19.47 324-0.42238 0.03834-0.85624 0.99898-0.45894 0.02758
  -3  -7   6    7.98   16.89 323-0.42683 0.40170-0.85774 0.36366-0.45128 0.92848
  -4 -10   7  -18.82   19.33 323-0.42823 0.34114-0.85819 0.15420-0.44881 0.97530
  -5  -8   7   -0.82   17.28 323-0.42807 0.22699-0.85814 0.29523-0.44909 0.91993
  -6   1  -1   58.50   25.01 325-0.41967-0.31325-0.85527 0.92873-0.46354 0.02414
  -7  -7   7    6.60   18.02 323-0.42590-0.00089-0.85743 0.36669-0.45288 0.81047
  -9  -3   4   -1.22   21.62 323-0.42614-0.38853-0.85751 0.64995-0.45248 0.37963
  -9  -4   5   -9.02   20.78 323-0.42671-0.33319-0.85770 0.57947-0.45147 0.48544
   7  -7  -8    0.35   17.88 324-0.42481 0.80530-0.85703 0.36332-0.45486-0.00773
   5  -3  -9    7.62   16.92 324-0.42351 0.52358-0.85659 0.64569-0.45711-0.22434
   3  -2 -10   -4.61   18.73 324-0.42528 0.24508-0.85719 0.71902-0.45404-0.44590
   1  -6   3  101.25   19.67 325-0.42007 0.69210-0.85538 0.43204-0.46295 0.83934
   0   1  -7   58.72   17.29 324-0.42305 0.05915-0.85643 0.92940-0.45788-0.28862
  -1   1  -7    8.82   19.99 324-0.42327-0.05538-0.85651 0.93017-0.45752-0.34497
  -2 -10   6   -2.09   20.57 324-0.42364 0.51136-0.85664 0.15283-0.45686 0.98714
  -3  -1   3    5.59   12.54 324-0.42385 0.23946-0.85671 0.78716-0.45649 0.61071
  -5  -3   5    0.95   13.88 324-0.42272 0.11709-0.85632 0.64639-0.45845 0.71386
  -5  -5   6    2.14   16.12 323-0.42480 0.17130-0.85703 0.50611-0.45487 0.82016
  -7  -3   5   -1.00   15.76 323-0.42459-0.11108-0.85696 0.64845-0.45524 0.60205
  -8  -5   6   -6.77   17.88 324-0.42353-0.17025-0.85660 0.50700-0.45704 0.65321
   7  -7  -7  -12.10   17.61 325-0.42194 0.85503-0.85605 0.36212-0.45977 0.10377
   7  -9  -5    4.21   21.73 324-0.42178 0.95601-0.85599 0.22204-0.46004 0.31777
   6  -5  -5    4.08   16.73 325-0.42035 0.84317-0.85547 0.50165-0.46249 0.26366
   6  -6  -4    4.08   16.18 325-0.41954 0.89486-0.85518 0.43058-0.46384 0.37193
   3  -1  -9   17.57   17.48 325-0.42044 0.29257-0.85551 0.78608-0.46231-0.32951
   3  -4   0  104.35   23.93 327-0.41425 0.75636-0.85318 0.57005-0.47261 0.64037
   2   0  -8   22.84   14.54 324-0.42241 0.23279-0.85621 0.85803-0.45895-0.28334
  -2   2  -4   10.86   19.44 326-0.41749-0.01837-0.85443 0.99751-0.46726-0.07022
  -2 -11   6    4.04   21.68 324-0.42067 0.51122-0.85559 0.07831-0.46193 0.99625
  -3   2  -3   22.62   22.83 326-0.41501-0.08195-0.85348 0.99660-0.47136-0.01519
  -3   0   2    2.99   11.12 325-0.42123 0.18462-0.85579 0.85698-0.46098 0.50776
  -7  -1   3    4.40   15.13 326-0.41883-0.21868-0.85492 0.78705-0.46502 0.39621
  -8  -1   2    5.61   19.88 325-0.42010-0.38352-0.85539 0.78889-0.46289 0.23209
  -9  -2   2   -9.22   23.27 326-0.41857-0.49962-0.85483 0.71839-0.46546 0.17862
   6  -4  -8   -4.67   15.42 326-0.41836 0.68402-0.85479 0.57272-0.46590-0.05255
   6  -4  -7   -5.14   13.30 326-0.41836 0.73599-0.85479 0.57242-0.46590 0.05408
   4  -1  -7   -5.13   15.57 326-0.41716 0.50699-0.85433 0.78456-0.46793-0.05640
   4  -1  -6   46.34   12.34 326-0.41797 0.56053-0.85464 0.78335-0.46656 0.05030
   3   0  -6  219.93   14.22 326-0.41789 0.44731-0.85460 0.85394-0.46672-0.00471
   2 -11   3    6.91   24.78 327-0.41322 0.80087-0.85281 0.07576-0.47440 0.90826
   1   1  -3  155.87   15.65 326-0.41669 0.37459-0.85415 0.92454-0.46870 0.20510
   0  -4   3    7.01   12.80 326-0.41779 0.57565-0.85457 0.57188-0.46688 0.78795
  -1  -8   5  330.74   20.11 326-0.41594 0.56533-0.85387 0.29095-0.46993 0.94841
  -4  -6   6    7.49   13.05 325-0.41902 0.27946-0.85503 0.43286-0.46481 0.88329
  -5  -9   7   13.98   18.91 325-0.41907 0.21919-0.85504 0.22193-0.46474 0.93550
  -6   0   2  148.29   18.04 326-0.41639-0.16060-0.85404 0.85651-0.46920 0.34938
  -6  -3   5    8.46   13.40 325-0.41913-0.00057-0.85507 0.64558-0.46464 0.66513
  -6  -5   6   17.21   14.59 326-0.41704 0.04996-0.85428 0.50369-0.46814 0.77599
  -6  -8   7   16.11   16.31 325-0.41905 0.10526-0.85504 0.29291-0.46477 0.87989
  -7   0   1    1.48   17.67 328-0.41302-0.32644-0.85273 0.85495-0.47473 0.19322
  -7  -2   4   16.81   16.83 327-0.41550-0.16957-0.85370 0.71501-0.47066 0.50834
  -7  -5   6   -2.66   17.09 326-0.41716-0.06344-0.85433 0.50421-0.46793 0.71960
  -7  -8   7   -5.32   19.17 326-0.41689-0.01126-0.85423 0.29226-0.46838 0.82808
   5  -8  -1  236.76   28.15 329-0.40809 0.92635-0.85068 0.28593-0.48281 0.65580
   3   0  -7   -1.71   15.55 327-0.41370 0.38924-0.85297 0.85412-0.47379-0.10513
   1   1  -7   89.79   16.48 327-0.41422 0.16347-0.85318 0.92500-0.47293-0.21740
  -2   1  -7    4.35   20.80 327-0.41215-0.17971-0.85235 0.92573-0.47632-0.38102
  -4  -2   4  524.82   17.19 326-0.41606 0.17030-0.85389 0.71435-0.46991 0.67398
   7  -6  -8   14.55   21.47 328-0.41126 0.79171-0.85198 0.42773-0.47791 0.01442
   7  -7  -6    6.14   17.93 327-0.41236 0.89728-0.85243 0.35755-0.47613 0.22652
   6  -4  -9   -4.75   18.58 328-0.41256 0.62699-0.85251 0.57116-0.47580-0.15002
   6  -4  -6   -4.67   17.56 328-0.41075 0.78149-0.85178 0.56903-0.47873 0.17301
   5  -2  -7    4.68   15.82 328-0.41109 0.61456-0.85192 0.71047-0.47817 0.01025
   5  -3 -10    3.94   19.84 327-0.41198 0.45904-0.85227 0.64128-0.47675-0.30837
   4  -1  -8    5.12   14.19 327-0.41223 0.44926-0.85238 0.78120-0.47633-0.15336
   4  -2 -10    7.82   20.71 328-0.40948 0.34373-0.85125 0.71182-0.48076-0.36362
   3   0  -5    3.03   11.74 328-0.41246 0.49331-0.85247 0.85321-0.47596 0.10867
   2  -6   2  256.51   26.86 330-0.40475 0.73835-0.84924 0.42563-0.48824 0.81344
   1   0  -9   15.68   20.82 328-0.41087 0.05619-0.85183 0.85375-0.47851-0.42384
   0   0  -9   -9.42   21.46 328-0.41041-0.05942-0.85164 0.85471-0.47926-0.47973
  -1   2  -4  852.83   27.39 328-0.41081 0.08829-0.85181 0.99423-0.47861-0.00304
  -2  -6   5  177.67   15.44 328-0.41086 0.44648-0.85182 0.42996-0.47854 0.90148
  -3  -8   6   52.33   15.43 328-0.41183 0.38716-0.85222 0.28930-0.47698 0.95225
  -6  -9   7    9.26   19.23 328-0.41053 0.09713-0.85168 0.21925-0.47909 0.89391
  -8  -4   5    8.06   17.05 329-0.40963-0.23512-0.85131 0.57275-0.48053 0.56959
   7  -6  -7    0.80   18.54 330-0.40615 0.84075-0.84973 0.42483-0.48634 0.12892
   7  -8  -5   13.60   19.60 329-0.40721 0.94493-0.85018 0.28390-0.48467 0.34169
   5  -2  -8   -8.76   15.51 329-0.40871 0.55999-0.85082 0.71004-0.48229-0.09216
   4  -1  -5    7.61   12.38 329-0.40917 0.60356-0.85101 0.78013-0.48156 0.17057
   0  -1   1   27.81   16.13 329-0.40762 0.46023-0.85036 0.77921-0.48401 0.59162
   0  -7   4    1.81   14.96 329-0.40828 0.61921-0.85063 0.35645-0.48299 0.91121
  -4  -4   5    9.36   13.02 329-0.40768 0.21522-0.85038 0.56931-0.48393 0.79634
  -6  -2   4  143.78   15.61 329-0.40740-0.06524-0.85026 0.71092-0.48437 0.57842
  -8  -6   6   10.01   16.64 328-0.40880-0.18510-0.85086 0.43114-0.48214 0.67924
  -9  -5   5   -3.30   19.65 328-0.40921-0.35133-0.85103 0.50295-0.48150 0.51651
   6  -7  -3   13.94   19.26 331-0.40234 0.92992-0.84793 0.35271-0.49230 0.50718
   5  -2  -6   30.95   13.17 329-0.40636 0.66248-0.84970 0.70827-0.48603 0.12426
   5  -3  -4   37.76   13.65 330-0.40489 0.76555-0.84906 0.63617-0.48834 0.34050
   5  -4  -3   90.06   16.04 330-0.40519 0.81805-0.84919 0.56586-0.48787 0.44687
   3   0  -8   55.00   15.30 330-0.40402 0.32924-0.84868 0.84936-0.48969-0.19545
   2   1  -6   26.64   14.75 330-0.40363 0.31896-0.84850 0.91963-0.49030-0.03763
  -1   2  -5   15.07   17.33 330-0.40342 0.02970-0.84840 0.99128-0.49065-0.09722
  -1  -5   4  394.76   17.42 330-0.40394 0.50113-0.84864 0.49624-0.48984 0.86137
  -4   0   2  659.63   20.17 330-0.40316 0.05348-0.84829 0.84974-0.49104 0.48236
  -5   0   2  343.26   16.72 330-0.40371-0.05963-0.84854 0.85024-0.49017 0.42634
  -5  -2   4   60.88   11.43 329-0.40634 0.04775-0.84969 0.70984-0.48607 0.63529
  -5  -6   6   10.15   13.08 329-0.40557 0.15239-0.84936 0.42759-0.48726 0.85095
  -6  -1   3    7.54   13.31 330-0.40383-0.11957-0.84859 0.78003-0.48999 0.47673
  -7   0  -2    6.71   29.17 333-0.39376-0.50365-0.84391 0.84781-0.50527-0.09563
  -8  -1   1   -2.40   18.93 329-0.40514-0.45354-0.84917 0.78341-0.48795 0.14976
  -8  -2   3    6.21   15.38 330-0.40548-0.34599-0.84931 0.71192-0.48744 0.36370
  -8  -3   4   13.21   17.52 330-0.40320-0.29571-0.84831 0.63968-0.49096 0.47378
  -9  -3   3   -6.94   21.02 330-0.40417-0.46039-0.84874 0.64129-0.48948 0.31002
   5  -2  -9  -10.00   16.82 331-0.40083 0.50037-0.84711 0.70716-0.49486-0.18651
   4  -2  -3  239.84   14.77 331-0.40223 0.70095-0.84774 0.70545-0.49270 0.39636
   4  -3  -2 1246.43   27.82 331-0.40097 0.75203-0.84717 0.63451-0.49463 0.50457
   3  -1 -10   18.74   21.11 331-0.39996 0.22046-0.84671 0.77869-0.49616-0.40326
   2   1  -5   57.98   11.74 330-0.40231 0.36930-0.84778 0.91864-0.49257 0.07134
   2   0  -9    8.03   17.84 331-0.40256 0.16090-0.84789 0.85060-0.49220-0.35700
   1   0  -1   55.30   15.11 330-0.40347 0.46567-0.84830 0.84759-0.49079 0.44082
  -1   2  -3   84.13   15.97 331-0.39908 0.12987-0.84630 0.98847-0.49753 0.12238
  -1  -9   5   -6.80   17.45 331-0.40134 0.54966-0.84734 0.21353-0.49408 0.97235
  -2   2  -5   14.61   17.64 331-0.39860-0.08840-0.84608 0.98969-0.49825-0.14567
  -3   2  -4   21.85   20.68 332-0.39711-0.15132-0.84538 0.98898-0.50048-0.09246
  -3  -5   5   63.59   12.56 331-0.40243 0.32417-0.84783 0.49613-0.49239 0.85978
  -3  -9   6   13.15   19.18 331-0.40098 0.37612-0.84718 0.21349-0.49463 0.96984
  -4  -1   3    2.42   10.94 330-0.40304 0.10549-0.84811 0.77884-0.49146 0.58950
  -4  -7   6   14.25   14.08 330-0.40328 0.26401-0.84821 0.35538-0.49108 0.91044
  -7   0   0    7.18   19.49 331-0.39936-0.39681-0.84643 0.85083-0.49711 0.10808
  -7  -6   6   10.06   17.83 332-0.39956-0.07867-0.84652 0.42650-0.49681 0.74680
  -9  -4   4    7.37   19.13 331-0.40196-0.40972-0.84762 0.56932-0.49312 0.42080
   4  -1  -9    9.78   14.50 331-0.39990 0.38578-0.84664 0.77721-0.49642-0.24122
   2   1  -7    0.97   14.93 332-0.39699 0.25919-0.84527 0.91673-0.50085-0.13438
   2  -1  -1    3.55   13.63 332-0.39759 0.57301-0.84556 0.77429-0.49993 0.50453
   0   1  -8   -0.68   18.51 332-0.39759-0.02111-0.84556 0.91907-0.49993-0.35429
  -2  -2   3 1170.88   22.01 331-0.39961 0.32938-0.84650 0.70615-0.49686 0.70564
  -5   1   0  245.13   22.11 333-0.39322-0.17516-0.84346 0.91634-0.50646 0.22922
  -5  -1   3   13.46   10.90 332-0.39851-0.01283-0.84599 0.77767-0.49854 0.54132
  -6  -6   6   19.82   15.42 332-0.39935 0.03294-0.84638 0.42522-0.49729 0.80448
  -7  -4   5   26.22   15.01 332-0.39906-0.13379-0.84624 0.56690-0.49772 0.64311
   7  -5  -9    1.73   19.28 332-0.39583 0.72170-0.84452 0.49206-0.50282-0.06505
   7  -5  -8    0.78   18.01 333-0.39540 0.77487-0.84431 0.49108-0.50347 0.04054
   7  -6  -6   -3.76   15.84 333-0.39566 0.87978-0.84444 0.42032-0.50308 0.25338
   6  -3  -8    4.52   15.22 333-0.39626 0.66242-0.84472 0.63339-0.50218-0.01694
   6  -3  -7   -1.17   14.20 333-0.39417 0.71222-0.84371 0.63188-0.50531 0.09299
   6  -4  -5   10.62   14.91 333-0.39417 0.81623-0.84372 0.56046-0.50530 0.30630
   6  -5  -4   17.26   16.35 333-0.39256 0.86778-0.84293 0.48858-0.50766 0.41535
   6 -10  -2    6.84   24.82 333-0.39203 0.97201-0.84267 0.13589-0.50846 0.63003
   3   0  -4   15.80   11.23 332-0.39666 0.52914-0.84492 0.84467-0.50156 0.24148
   1   1  -8  136.90   19.81 333-0.39544 0.09187-0.84434 0.91656-0.50339-0.29389
  -1  -3   3  258.20   14.97 333-0.39549 0.43967-0.84436 0.63252-0.50333 0.76860
  -1 -10   5    2.73   21.08 332-0.39536 0.54760-0.84429 0.13623-0.50352 0.98731
  -3  -3   4  281.89   14.65 332-0.39653 0.26548-0.84485 0.63392-0.50177 0.76189
  -3 -10   6    2.24   21.30 332-0.39513 0.37109-0.84419 0.13759-0.50385 0.98218
  -5  -4   5  194.09   14.03 333-0.39597 0.08975-0.84459 0.56446-0.50261 0.75878
  -6  -4   5    0.41   14.88 333-0.39393-0.02560-0.84360 0.56376-0.50565 0.70690
  -7   0  -1    2.84   24.04 333-0.39127-0.45693-0.84230 0.84798-0.50955 0.01432
  -8  -1  -1    4.49   25.12 334-0.39166-0.56891-0.84249 0.77760-0.50899-0.04122
  -8  -1   0   -0.23   20.81 334-0.39194-0.51570-0.84262 0.77674-0.50859 0.06520
  -8  -7   6   15.23   19.40 332-0.39605-0.19745-0.84462 0.35434-0.50250 0.70007
   7  -7  -5   13.86   18.28 334-0.39116 0.92851-0.84218 0.34630-0.50981 0.36668
   6  -3  -9   -6.10   17.68 334-0.39268 0.60667-0.84293 0.63173-0.50759-0.11808
   5  -2  -5  191.33   13.75 334-0.39239 0.70086-0.84279 0.70038-0.50801 0.25392
   0   2  -5    8.34   14.02 333-0.39232 0.13122-0.84275 0.98531-0.50813-0.02525
  -1   1  -8   48.97   21.47 334-0.39133-0.13917-0.84226 0.91586-0.50957-0.39878
  -2  -4   4  451.83   15.60 334-0.39189 0.37450-0.84254 0.56145-0.50875 0.82505
  -2  -7   5   45.35   15.43 335-0.38922 0.42529-0.84121 0.34821-0.51264 0.93559
  -4  -8   6    5.17   18.17 334-0.39011 0.25117-0.84165 0.27797-0.51136 0.93100
  -5  -7   6    9.14   16.85 334-0.39034 0.13742-0.84176 0.34924-0.51104 0.87510
  -8  -5   5   -2.89   18.42 334-0.39086-0.25516-0.84203 0.49285-0.51027 0.60031
   7  -5  -7   -1.72   16.99 335-0.38913 0.82149-0.84114 0.48762-0.51284 0.15644
   7  -9  -4    0.13   21.73 336-0.38553 0.97576-0.83929 0.20329-0.51802 0.48222
   5  -2 -10    6.56   17.86 335-0.38860 0.43669-0.84088 0.70072-0.51360-0.27476
   4  -1  -4   -1.69   13.63 336-0.38548 0.63430-0.83927 0.76840-0.51808 0.31299
   3   0  -9   11.27   16.82 335-0.38901 0.26112-0.84108 0.84280-0.51303-0.28021
   2   1  -4  134.72   13.67 335-0.38808 0.40709-0.84061 0.91073-0.51437 0.19961
   0   2  -4   77.20   14.99 335-0.38797 0.17977-0.84055 0.98263-0.51453 0.08793
  -1   2  -6   17.78   18.47 335-0.38561-0.04037-0.83934 0.98310-0.51788-0.17711
  -1 -11   5   11.43   19.59 334-0.38823 0.53993-0.84069 0.06287-0.51414 0.99590
  -2   1   0  225.42   21.08 336-0.38416 0.15682-0.83858 0.91017-0.51997 0.40871
  -3 -11   6    5.17   19.74 335-0.38905 0.36365-0.84110 0.06628-0.51297 0.98818
  -7  -1   2   35.86   14.78 335-0.38875-0.30103-0.84095 0.77434-0.51339 0.33871
  -7  -7   6   -7.06   18.73 335-0.38737-0.09243-0.84025 0.34938-0.51537 0.76753
  -9  -3   2   -4.20   21.47 335-0.38679-0.53240-0.83995 0.63326-0.51621 0.22993
   6  -3 -10   16.72   19.30 336-0.38407 0.54618-0.83848 0.62721-0.52011-0.21250
   6  -3  -6   -4.17   14.03 336-0.38380 0.75427-0.83834 0.62582-0.52049 0.21463
   5  -5  -2   82.48   19.01 336-0.38260 0.84827-0.83771 0.48306-0.52218 0.58883
   4  -1 -10    1.31   19.46 336-0.38510 0.31825-0.83902 0.76971-0.51865-0.32440
   2   1  -8   17.00   15.69 336-0.38376 0.19398-0.83832 0.91050-0.52054-0.22132
   1  -4   2  115.69   17.29 336-0.38236 0.60168-0.83758 0.55445-0.52251 0.79213
   0   2  -6    7.24   15.75 336-0.38398 0.07081-0.83843 0.98139-0.52025-0.11958
   0  -8   4   -0.11   16.17 337-0.38190 0.59221-0.83734 0.27270-0.52315 0.94961
  -3   1  -7   -2.64   25.60 338-0.37740-0.32957-0.83489 0.91048-0.52939-0.38504
  -6  -7   6   -5.92   15.42 336-0.38545 0.01850-0.83921 0.34729-0.51814 0.82626
  -7  -3   4    0.70   13.50 336-0.38580-0.20003-0.83939 0.63039-0.51764 0.55604
   5  -1  -8   -0.70   15.71 337-0.37978 0.53143-0.83620 0.76561-0.52614-0.04891
   4   0  -7   -3.74   13.48 337-0.38201 0.47134-0.83740 0.83791-0.52303-0.00069
  -4   1  -6   11.04   31.90 339-0.37372-0.39401-0.83285 0.90796-0.53441-0.32781
  -4  -5   5   29.46   12.22 337-0.38159 0.18976-0.83718 0.48638-0.52360 0.83579
  -4  -9   6   -6.18   17.67 337-0.38013 0.24073-0.83639 0.20255-0.52564 0.94525
  -6   0   1   -4.67   15.84 337-0.38019-0.24997-0.83642 0.83945-0.52556 0.29917
  -7  -2   3    2.92   14.07 336-0.38192-0.25673-0.83735 0.70013-0.52315 0.45545
  -8  -2   2    1.95   18.81 337-0.37931-0.42206-0.83595 0.69924-0.52678 0.29720
  -9  -4   3  -14.44   22.35 337-0.37972-0.48702-0.83616 0.55848-0.52622 0.34725
  -9  -5   4    5.95   17.57 337-0.38173-0.42963-0.83725 0.48894-0.52340 0.45152
   7  -4  -9   14.56   18.31 338-0.37690 0.70377-0.83454 0.55166-0.53022-0.03896
   6  -9  -2    1.85   24.14 339-0.37336 0.95310-0.83256 0.19618-0.53504 0.65653
   5  -1  -7   -8.88   13.35 338-0.37895 0.58297-0.83567 0.76567-0.52741 0.05906
   4   0  -8   10.44   13.77 337-0.37866 0.41626-0.83551 0.83582-0.52781-0.10281
   4   0  -6  114.14   12.85 338-0.37821 0.51929-0.83526 0.83520-0.52844 0.11144
   1  -7   3  299.11   22.63 339-0.37456 0.64685-0.83323 0.33982-0.53343 0.90971
  -2   2  -2  111.43   26.77 340-0.36970 0.03792-0.83046 0.97292-0.53994 0.21581
  -3  -6   5   56.70   12.68 338-0.37836 0.30068-0.83534 0.41348-0.52823 0.89569
  -4  -3   4   11.11   11.59 338-0.37758 0.13259-0.83491 0.62467-0.52931 0.73500
  -5  -8   6   13.27   14.52 337-0.37819 0.12581-0.83525 0.27254-0.52845 0.89302
  -7  -5   5   19.35   15.56 337-0.37839-0.15447-0.83536 0.48571-0.52820 0.67432
  -7  -8   6    9.84   18.08 338-0.37607-0.10249-0.83408 0.27335-0.53136 0.78353
  -8  -4   4   -0.88   16.19 338-0.37860-0.32064-0.83547 0.55671-0.52791 0.51121
   7  -4  -8   -3.98   17.14 339-0.37511 0.75525-0.83347 0.55085-0.53274 0.06954
   7  -5  -6   -1.77   15.83 339-0.37466 0.85870-0.83322 0.47938-0.53336 0.28355
   7  -8  -4    6.73   22.01 339-0.37081 0.96002-0.83103 0.26458-0.53853 0.50219
   6  -6  -3   51.39   16.89 339-0.37294 0.90023-0.83225 0.40731-0.53567 0.55138
   5  -1  -9    2.05   15.44 339-0.37447 0.47337-0.83312 0.76287-0.53360-0.14730
  -2   2  -6   -0.81   19.16 340-0.37107-0.17040-0.83118 0.97518-0.53819-0.21269
  -2  -8   5   -1.40   17.18 338-0.37418 0.41108-0.83295 0.26723-0.53401 0.96046
  -4 -10   6   -1.98   18.34 339-0.37328 0.23520-0.83244 0.12796-0.53521 0.95515
  -6  -3   4   74.84   13.20 339-0.37457-0.09724-0.83317 0.62442-0.53347 0.62787
  -6  -8   6    9.31   15.85 339-0.37421 0.00824-0.83297 0.27083-0.53395 0.84312
  -8  -3   3    6.01   17.87 339-0.37390-0.37715-0.83280 0.62533-0.53437 0.41130
  -8  -6   5    0.54   17.53 339-0.37447-0.27207-0.83312 0.41310-0.53360 0.62437
   7  -6  -5    6.33   18.06 340-0.37072 0.90802-0.83089 0.40573-0.53875 0.39575
   6  -2  -9  -14.82   17.13 340-0.36931 0.58250-0.83008 0.68901-0.54061-0.08467
   6  -2  -8   20.56   14.83 339-0.37111 0.63664-0.83111 0.68942-0.53823 0.01906
   5  -1  -6   33.06   13.00 340-0.37115 0.62701-0.83113 0.75986-0.53819 0.17636
   4   0  -9    0.72   15.61 340-0.36931 0.35439-0.83008 0.83127-0.54061-0.19627
   3   1  -7   24.59   12.53 339-0.37182 0.34778-0.83152 0.90308-0.53727-0.04274
   3   1  -6   36.76   11.11 339-0.37134 0.39914-0.83124 0.90215-0.53794 0.06546
   3   0 -10   -8.07   19.60 340-0.36968 0.18863-0.83029 0.83282-0.54012-0.36028
   1   2  -6  199.10   15.75 340-0.37065 0.17139-0.83085 0.97310-0.53884-0.04518
   1   2  -5   19.21   12.89 340-0.36986 0.22272-0.83040 0.97209-0.53987 0.06235
   1   1  -9    0.04   19.91 340-0.36993 0.01268-0.83043 0.90465-0.53980-0.36581
  -1  -6   4  200.52   16.31 340-0.37035 0.46742-0.83067 0.40783-0.53925 0.91118
  -2  -1   2    1.48   11.56 340-0.36980 0.24713-0.83036 0.76041-0.53996 0.64253
  -3   2  -5    5.37   23.16 341-0.36513-0.23659-0.82761 0.97188-0.54610-0.15342
  -4 -11   6   -0.05   18.86 341-0.36760 0.23014-0.82908 0.05741-0.54287 0.95972
  -5  -3   4   47.72   12.06 340-0.37069 0.01207-0.83087 0.62131-0.53878 0.68841
  -5  -5   5    8.24   12.72 340-0.37144 0.06594-0.83130 0.48027-0.53779 0.79432
  -5  -9   6    7.39   19.67 340-0.36847 0.11654-0.82958 0.19646-0.54173 0.90570
  -6  -5   5   16.81   14.04 340-0.37115-0.04799-0.83113 0.48075-0.53818 0.73950
   7  -4  -7   14.85   15.95 341-0.36750 0.79955-0.82899 0.54538-0.54322 0.18642
   6  -2  -7    9.54   14.39 342-0.36469 0.68451-0.82732 0.68576-0.54690 0.13301
   5  -7  -1  109.65   24.82 343-0.35972 0.87728-0.82431 0.32901-0.55327 0.72665
   4  -4  -1    0.55   16.38 343-0.36146 0.76638-0.82538 0.54147-0.55105 0.66793
   3   1  -8   28.48   16.47 341-0.36569 0.28950-0.82792 0.89921-0.54559-0.14019
   3  -1  -2  657.57   19.70 340-0.36816 0.60596-0.82938 0.75750-0.54235 0.49630
   2   1  -9   26.36   18.71 341-0.36533 0.12363-0.82770 0.90051-0.54607-0.30206
   0   2  -7   -1.07   15.06 341-0.36633-0.00064-0.82830 0.97278-0.54477-0.20300
   0   1  -9    4.82   21.88 342-0.36518-0.10526-0.82762 0.90307-0.54626-0.41634
   0  -9   4   36.57   17.81 341-0.36602 0.57740-0.82812 0.19311-0.54515 0.97342
  -6  -9   6   -3.57   17.30 341-0.36571-0.00071-0.82793 0.19496-0.54557 0.85468
  -7  -9   6   -3.50   18.74 341-0.36813-0.11124-0.82936 0.19718-0.54240 0.79461
   6  -2 -10  -10.72   19.00 343-0.36033 0.52317-0.82462 0.68402-0.55263-0.18259
   6  -3  -5    6.14   14.47 343-0.36109 0.78510-0.82508 0.61179-0.55165 0.35205
   5  -1 -10   10.68   16.09 341-0.36372 0.41096-0.82667 0.75625-0.54829-0.23923
   5  -2  -4   58.64   14.35 342-0.36267 0.72346-0.82604 0.68258-0.54964 0.40254
   4   0  -5    0.06   11.22 341-0.36405 0.55719-0.82687 0.82554-0.54786 0.23719
   1   2  -7   -2.91   16.00 342-0.36207 0.10974-0.82567 0.96844-0.55041-0.13957
  -1   2  -7    0.58   19.42 343-0.35936-0.12030-0.82402 0.96921-0.55386-0.24944
  -3  -2   3 1566.87   23.79 341-0.36435 0.18037-0.82704 0.68719-0.54749 0.70066
  -4   1   0  434.80   22.12 342-0.36111-0.09310-0.82509 0.89787-0.55164 0.32968
  -5 -10   6    7.04   19.35 341-0.36353 0.11138-0.82655 0.12138-0.54854 0.91446
  -6  -1   2   57.90   14.02 342-0.36118-0.21577-0.82513 0.75727-0.55156 0.43209
  -6  -2   3   19.54   12.54 342-0.36260-0.16240-0.82599 0.68774-0.54975 0.53737
   6  -4  -4   27.82   14.90 342-0.36024 0.83467-0.82450 0.54049-0.55291 0.46026
   5  -3  -3   12.82   13.71 343-0.35876 0.77209-0.82359 0.61028-0.55479 0.51318
   3   1  -5   13.49   11.57 343-0.36006 0.43995-0.82439 0.89463-0.55314 0.18666
   0   2  -3  930.56   24.65 343-0.35909 0.20324-0.82379 0.96547-0.55437 0.23487
   0  -5   3   30.78   13.58 343-0.35996 0.51774-0.82433 0.47135-0.55327 0.87395
  -2  -9   5    9.02   16.20 343-0.36005 0.39648-0.82438 0.18979-0.55316 0.97685
  -3  -4   4   84.23   12.97 343-0.35848 0.22642-0.82341 0.54307-0.55514 0.81486
  -3  -7   5  115.38   15.81 343-0.35894 0.27997-0.82370 0.33208-0.55456 0.92184
  -4  -6   5   27.89   14.29 343-0.35980 0.16806-0.82424 0.40210-0.55345 0.86649
  -6 -10   6    3.27   18.30 343-0.36005-0.00616-0.82438 0.12085-0.55316 0.86235
  -7  -1   1   60.03   16.78 343-0.35862-0.38442-0.82350 0.75668-0.55495 0.27380
  -7  -4   4    6.11   15.04 344-0.35779-0.22551-0.82299 0.54405-0.55601 0.59411
  -7  -6   5    4.06   15.50 343-0.36041-0.17259-0.82461 0.40385-0.55268 0.69857
  -8  -2   1   12.95   18.82 343-0.35748-0.49772-0.82280 0.68607-0.55639 0.21991
  -8  -7   5    2.06   15.87 343-0.36005-0.28504-0.82438 0.33419-0.55316 0.64343
   7  -3  -9    7.77   17.63 344-0.35493 0.68265-0.82114 0.60909-0.55958-0.01045
   4   0 -10   21.02   19.59 343-0.35580 0.28930-0.82168 0.82238-0.55851-0.28320
   3   0  -3    3.92   11.67 344-0.35670 0.54160-0.82225 0.82174-0.55738 0.40402
   2  -2   0 5753.39   93.90 346-0.34764 0.57594-0.81646 0.67408-0.56849 0.68005
   1   1  -2 1247.25   26.62 343-0.35731 0.36791-0.82263 0.89278-0.55660 0.39948
   0 -10   4    0.35   19.71 345-0.35356 0.56481-0.82027 0.11482-0.56128 0.98849
  -2  -5   4  280.05   15.75 344-0.35537 0.33732-0.82141 0.47022-0.55903 0.87502
  -8  -5   4   15.14   15.75 343-0.35703-0.34123-0.82245 0.47352-0.55696 0.54075
   7  -3  -8   21.59   16.16 344-0.35272 0.73195-0.81973 0.60699-0.56228 0.09888
   7  -7  -4    4.54   17.90 345-0.35043 0.93944-0.81827 0.32306-0.56507 0.52880
   6  -2  -6   12.49   12.93 345-0.35242 0.72212-0.81954 0.67726-0.56264 0.25655
   6  -8  -2   -9.20   21.12 346-0.34689 0.92601-0.81597 0.25065-0.56934 0.69066
   5  -1  -5   -3.61   12.54 345-0.35102 0.65866-0.81864 0.74757-0.56436 0.30962
   3   1  -9   -4.26   17.06 345-0.35272 0.22369-0.81973 0.89221-0.56227-0.23049
   3  -2  -1  109.98   16.97 346-0.34913 0.63909-0.81742 0.67469-0.56666 0.62741
   1   2  -4 1874.88   29.18 344-0.35317 0.25862-0.82003 0.96157-0.56170 0.19101
   0 -11   4   -0.03   21.42 345-0.35179 0.56554-0.81914 0.04051-0.56341 0.99484
   0 -12   4    7.09   22.61 347-0.34651 0.55784-0.81571-0.02862-0.56981 0.99636
  -2   0   1    0.13   13.86 345-0.35158 0.17641-0.81901 0.81987-0.56366 0.55936
  -2 -10   5  -17.18   16.72 345-0.35140 0.38687-0.81889 0.11493-0.56390 0.98694
  -3   1   0  223.81   19.70 346-0.34724 0.00656-0.81620 0.88828-0.56892 0.40272
  -5   1  -1  260.84   24.42 347-0.34555-0.27521-0.81509 0.88853-0.57094 0.18684
  -5   0   1   -3.05   13.92 345-0.35045-0.16711-0.81827 0.82099-0.56506 0.39426
  -5  -2   3   12.65   13.07 345-0.35122-0.06025-0.81878 0.67982-0.56409 0.60729
  -5  -6   5    1.08   14.04 345-0.35102 0.04576-0.81864 0.39718-0.56436 0.82114
  -6  -6   5   19.84   13.85 344-0.35266-0.06649-0.81969 0.39883-0.56235 0.76454
   8  -6  -7   16.22   22.13 346-0.34693 0.89555-0.81599 0.39098-0.56937 0.26839
   7  -4  -6    5.07   13.92 345-0.34972 0.83417-0.81781 0.53430-0.56600 0.31598
   7  -5  -5    3.55   17.16 345-0.34835 0.88210-0.81692 0.46318-0.56765 0.42435
   2   2  -7    8.18   15.83 346-0.34689 0.20891-0.81596 0.95785-0.56942-0.06532
   2   2  -6   14.74   13.40 346-0.34768 0.26173-0.81648 0.95839-0.56845 0.03973
   2   1  -3   20.35   12.02 346-0.34923 0.42038-0.81749 0.88776-0.56659 0.35801
  -2 -11   5  -12.39   20.49 346-0.34756 0.38328-0.81640 0.04209-0.56861 0.99212
  -2 -12   5   19.62   22.21 346-0.34715 0.38453-0.81614-0.02833-0.56909 0.99293
  -4  -2   3  267.61   14.09 345-0.34975 0.05212-0.81783 0.67815-0.56595 0.66377
  -7  -3   3    3.16   15.94 346-0.34797-0.29191-0.81667 0.60822-0.56811 0.50050
  -8  -4   3    3.92   19.69 345-0.34915-0.40624-0.81744 0.53920-0.56669 0.44415
   8  -5  -8  -21.83   20.04 347-0.34364 0.83821-0.81386 0.46028-0.57325 0.16577
   8  -7  -6    8.33   21.83 348-0.34177 0.94053-0.81260 0.31754-0.57547 0.38187
   5   0  -9    7.89   16.06 348-0.34211 0.44189-0.81283 0.81379-0.57507-0.10798
   5   0  -8   -4.29   14.52 346-0.34646 0.49802-0.81572 0.81588-0.56990-0.00501
   5   0  -7   -4.31   14.80 347-0.34326 0.54622-0.81360 0.81352-0.57371 0.10589
   1   2  -8    4.18   14.62 346-0.34569 0.04206-0.81522 0.95825-0.57082-0.22623
   1  -8   3  987.28   27.84 348-0.34133 0.61351-0.81231 0.24805-0.57598 0.95274
   0   2  -8    5.65   18.84 347-0.34333-0.07474-0.81365 0.95787-0.57362-0.28047
  -1  -7   4    2.47   15.19 347-0.34242 0.43927-0.81304 0.31937-0.57469 0.94616
  -3  -8   5   78.31   16.63 347-0.34337 0.26595-0.81367 0.25184-0.57358 0.94102
  -6   0   0   55.12   19.01 348-0.34212-0.33964-0.81284 0.81622-0.57504 0.24206
  -6  -4   4   36.47   13.81 347-0.34525-0.12673-0.81493 0.53516-0.57134 0.66566
  -7  -2   2   14.55   16.96 346-0.34497-0.34572-0.81474 0.67724-0.57168 0.39707
  -7  -7   5   -5.56   16.28 347-0.34569-0.18719-0.81522 0.32388-0.57082 0.71649
  -8  -2   0    6.07   21.63 349-0.33809-0.56637-0.81012 0.67338-0.57973 0.13795
  -8  -3   2   36.16   16.89 347-0.34516-0.45797-0.81486 0.60702-0.57146 0.34211
   7  -3  -7   -3.57   15.46 348-0.34172 0.77380-0.81255 0.60056-0.57550 0.21917
   6  -1  -9   -5.49   16.15 348-0.34143 0.55472-0.81235 0.74252-0.57584-0.04966
   6  -1  -8    8.84   14.94 347-0.34172 0.60681-0.81255 0.74147-0.57551 0.05650
   6  -5  -3    2.93   17.73 349-0.33551 0.86483-0.80832 0.45341-0.58269 0.59780
   4   1  -8   -8.12   13.89 348-0.34076 0.37740-0.81190 0.88286-0.57664-0.05328
   4   1  -7    0.90   13.36 348-0.34086 0.42952-0.81196 0.88246-0.57652 0.05324
   4  -1  -3   12.91   11.40 348-0.34115 0.63968-0.81217 0.74059-0.57617 0.47869
  -2   2  -7   -9.07   22.11 349-0.33552-0.25849-0.80833 0.95237-0.58267-0.27473
  -2  -3   3  557.48   18.46 348-0.33950 0.26944-0.81105 0.59958-0.57810 0.78746
  -4  -4   4    1.61   11.41 348-0.34172 0.09642-0.81255 0.53135-0.57550 0.78018
  -4  -7   5   24.26   13.57 348-0.34125 0.14964-0.81223 0.31966-0.57607 0.88850
  -5  -1   2   92.37   12.11 348-0.34112-0.12313-0.81215 0.74393-0.57620 0.51191
  -8  -6   4   21.50   18.86 348-0.33973-0.35955-0.81121 0.39159-0.57782 0.56195
   6  -1 -10   10.22   18.47 349-0.33668 0.49730-0.80888 0.73865-0.58160-0.14927
   3   1 -10   17.52   21.29 349-0.33478 0.15437-0.80757 0.88027-0.58376-0.31509
   2   2  -8   -1.45   15.39 349-0.33741 0.14619-0.80938 0.95227-0.58077-0.16069
   2   2  -5  107.77   12.16 348-0.33761 0.30453-0.80952 0.95075-0.58052 0.15895
  -1  -4   3  302.68   17.35 349-0.33553 0.37999-0.80809 0.52621-0.58290 0.84755
  -3  -1   2  700.32   19.15 349-0.33727 0.10078-0.80929 0.73992-0.58092 0.62776
  -5  -4   4   18.33   12.29 348-0.33874-0.01962-0.81029 0.52978-0.57922 0.72885
  -6  -7   5   -1.57   15.52 349-0.33731-0.08254-0.80931 0.31725-0.58088 0.78272
  -7  -5   4    9.00   15.12 349-0.33665-0.24907-0.80886 0.45917-0.58163 0.62094
   6  -1  -7   -2.51   13.35 350-0.33370 0.65112-0.80673 0.73625-0.58503 0.17309
   5   0 -10   22.31   16.77 349-0.33413 0.38117-0.80703 0.80776-0.58453-0.20261
   4   1  -9   -5.28   15.57 350-0.33360 0.31826-0.80666 0.87868-0.58514-0.15140
   3   1  -4  241.50   16.03 350-0.33168 0.46410-0.80532 0.87544-0.58729 0.32779
   2  -7   2    3.48   21.39 351-0.32679 0.66090-0.80185 0.30700-0.59274 0.91872
   0  -3   2 7298.66   61.13 350-0.33191 0.43741-0.80548 0.59330-0.58704 0.80085
  -1   2  -8   -4.36   21.51 351-0.32966-0.20284-0.80390 0.94778-0.58955-0.31850
  -1  -2   2 1322.17   25.89 349-0.33428 0.32554-0.80713 0.66613-0.58437 0.74216
  -3  -9   5  105.35   16.42 350-0.33312 0.25567-0.80633 0.17408-0.58568 0.95389
  -5  -7   5   -2.70   13.97 350-0.33428 0.02833-0.80714 0.31472-0.58436 0.84044
  -7  -1   0  219.55   21.46 350-0.33082-0.46511-0.80472 0.73814-0.58825 0.19905
  -7  -8   5    9.99   17.33 350-0.33421-0.19768-0.80708 0.24574-0.58445 0.72999
   8  -5  -7   -9.86   20.41 351-0.32817 0.87549-0.80285 0.44934-0.59125 0.29081
   7  -2  -9  -10.55   17.15 351-0.33028 0.65799-0.80434 0.66384-0.58891 0.01942
   5   0  -6    1.94   12.16 351-0.33008 0.58549-0.80420 0.80428-0.58913 0.22796
   5  -4  -2   54.85   16.93 351-0.32764 0.79352-0.80247 0.51829-0.59183 0.65823
   4   1  -6   20.90   11.66 350-0.33095 0.47278-0.80482 0.87567-0.58814 0.17064
   4   0  -4 8587.21   52.70 350-0.33085 0.57791-0.80474 0.80407-0.58827 0.38476
   4  -2  -2 1138.45   26.68 351-0.32918 0.68095-0.80356 0.66094-0.59013 0.59980
  -1   2  -2 6100.53   76.54 352-0.32388 0.10576-0.79977 0.94196-0.59595 0.32696
  -3   2  -6   -4.80   25.96 353-0.32191-0.33388-0.79834 0.94278-0.59808-0.20846
  -4   0   1   -3.96   13.09 351-0.32777-0.07539-0.80257 0.80414-0.59168 0.47634
  -4  -1   2   37.55   12.25 351-0.33026-0.01977-0.80433 0.73488-0.58892 0.58034
  -4  -8   5  121.08   15.94 351-0.32731 0.13477-0.80223 0.24047-0.59220 0.90358
   8  -4  -8  -10.88   20.40 352-0.32375 0.81702-0.79964 0.51723-0.59615 0.18959
   8  -6  -6    9.08   19.84 353-0.32212 0.92248-0.79846 0.37385-0.59791 0.40458
   7  -2  -8    8.66   14.94 351-0.32632 0.70539-0.80150 0.65962-0.59333 0.13017
   7  -6  -4   12.37   19.09 352-0.32541 0.91469-0.80085 0.37590-0.59433 0.55811
   6  -2  -5   20.46   12.00 352-0.32552 0.74730-0.80092 0.65848-0.59422 0.39497
   3   2  -7    0.76   13.96 352-0.32491 0.30014-0.80048 0.94069-0.59488 0.01732
   1   2  -9   -7.18   20.45 352-0.32368-0.03333-0.79959 0.94303-0.59622-0.30650
   1  -9   3    0.49   19.47 352-0.32214 0.59637-0.79848 0.16177-0.59789 0.97669
  -1  -8   4  242.87   18.22 352-0.32285 0.41953-0.79899 0.23617-0.59712 0.96886
  -2  -6   4   55.00   12.06 352-0.32539 0.30785-0.80082 0.37971-0.59437 0.91032
  -3   0   1   -1.42   12.45 352-0.32368 0.03360-0.79959 0.80086-0.59622 0.53646
  -3  -5   4  123.96   12.36 352-0.32593 0.19389-0.80122 0.45047-0.59377 0.85376
  -3 -10   5   -9.86   17.54 352-0.32620 0.24814-0.80141 0.09708-0.59348 0.96165
  -3 -11   5    4.77   18.91 353-0.32244 0.24560-0.79869 0.02444-0.59757 0.96513
  -3 -12   5   15.23   19.94 352-0.32473 0.24858-0.80036-0.04603-0.59507 0.96541
  -6  -3   3    8.80   14.25 352-0.32468-0.19993-0.80032 0.59139-0.59513 0.58269
  -6  -8   5   -8.87   16.20 352-0.32560-0.09388-0.80098 0.23862-0.59413 0.79626
  -7  -9   5  -10.11   18.93 352-0.32639-0.20573-0.80155 0.16951-0.59326 0.73906
  -8  -5   3   -0.74   17.34 352-0.32400-0.42819-0.79983 0.45082-0.59586 0.47274
  -8  -7   4   -0.21   18.21 352-0.32560-0.37376-0.80098 0.31062-0.59413 0.57835
   7  -3  -6    0.57   16.46 353-0.32029 0.80542-0.79709 0.58465-0.59990 0.35014
   6  -3  -4   73.93   15.32 353-0.32128 0.79605-0.79782 0.58430-0.59884 0.50729
   4   1 -10   10.52   18.94 353-0.32009 0.25342-0.79694 0.86939-0.60012-0.24391
   3   2  -8   17.96   16.46 353-0.32043 0.24388-0.79719 0.93952-0.59976-0.08640
   2   2  -9    0.12   19.99 352-0.32202 0.07973-0.79836 0.94042-0.59804-0.24909
  -5  -8   5    9.04   15.84 352-0.32219 0.01724-0.79848 0.23605-0.59786 0.85506
  -6  -5   4    9.74   13.09 353-0.32082-0.15113-0.79748 0.44732-0.59933 0.69396
  -8  -3   1    7.55   19.29 353-0.31953-0.53636-0.79654 0.58938-0.60071 0.26425
   7  -4  -5    8.30   18.12 354-0.31747 0.85424-0.79506 0.51123-0.60301 0.45983
   7  -9  -3   -1.71   24.76 356-0.31028 0.95527-0.78966 0.15204-0.61052 0.68240
   6  -1  -6   -7.01   14.28 354-0.31599 0.68530-0.79396 0.72256-0.60459 0.29914
   6  -7  -2   -5.42   21.58 353-0.31747 0.89324-0.79506 0.30095-0.60302 0.72242
   3   2  -6  205.15   13.93 354-0.31718 0.34562-0.79485 0.93539-0.60332 0.13078
   0   2  -9   13.20   23.79 354-0.31513-0.15397-0.79332 0.93688-0.60549-0.35210
   0   1  -1   25.84   16.48 354-0.31727 0.26594-0.79491 0.86531-0.60323 0.49731
  -4  -9   5   12.31   15.48 353-0.31827 0.12729-0.79565 0.16237-0.60217 0.91510
  -6  -1   1   15.62   15.08 355-0.31468-0.31480-0.79298 0.72538-0.60596 0.37976
  -6  -9   5   -1.32   17.36 354-0.31755-0.10181-0.79513 0.16238-0.60292 0.80542
  -7  -4   3   27.13   15.55 354-0.31776-0.32047-0.79527 0.51662-0.60271 0.53500
  -7  -6   4   -8.12   15.58 354-0.31776-0.26824-0.79527 0.37489-0.60271 0.64187
  -8  -4   2   -1.33   17.52 354-0.31605-0.48856-0.79401 0.51583-0.60451 0.37422
   7  -2  -7   26.68   14.93 355-0.31334 0.74460-0.79200 0.64944-0.60739 0.25067
   5  -1  -4   91.29   12.32 355-0.31319 0.67406-0.79189 0.71894-0.60754 0.46065
   1 -10   3    0.44   19.48 356-0.30946 0.58364-0.78907 0.08261-0.61139 0.98969
   0  -6   3  511.23   19.95 355-0.31324 0.47140-0.79193 0.36890-0.60749 0.92794
  -4  -5   4    1.07   11.38 354-0.31404 0.06916-0.79253 0.44120-0.60665 0.81327
  -4 -10   5   23.33   17.96 355-0.31174 0.12117-0.79079 0.08783-0.60905 0.92118
  -5  -5   4    8.19   13.70 355-0.31216-0.04618-0.79111 0.44037-0.60861 0.75856
  -5  -9   5   -2.15   14.53 355-0.31374 0.00818-0.79230 0.15918-0.60697 0.86438
  -6   0  -1   -1.97   20.31 356-0.30795-0.42747-0.78792 0.79145-0.61292 0.17308
  -6  -2   2   22.46   13.97 355-0.31277-0.26371-0.79157 0.65345-0.60798 0.48935
  -6 -10   5    9.42   18.56 355-0.31161-0.10634-0.79070 0.08824-0.60917 0.81105
  -7  -1  -1   10.64   18.63 356-0.30865-0.53744-0.78846 0.72199-0.61220 0.11837
   8  -3  -9    5.90   21.01 356-0.30977 0.75134-0.78931 0.57717-0.61106 0.09748
   6   0  -9   -2.36   16.04 356-0.31017 0.52342-0.78961 0.79026-0.61064-0.01482
   6   0  -8   -3.06   15.27 356-0.30794 0.57304-0.78791 0.78775-0.61293 0.09426
   5   1  -9   16.89   16.07 356-0.30745 0.40673-0.78753 0.85839-0.61342-0.06817
   5   1  -8    9.78   16.72 356-0.30771 0.45970-0.78773 0.85899-0.61316 0.03729
   4   1  -5   20.68   11.89 355-0.30970 0.50333-0.78925 0.85892-0.61113 0.30042
   3   2  -9   -2.85   16.55 356-0.31017 0.18060-0.78961 0.93262-0.61064-0.18210
   2   2  -4 1415.81   23.89 356-0.30950 0.32934-0.78910 0.92934-0.61134 0.29705
   1   2  -3  177.66   15.53 356-0.30816 0.26609-0.78808 0.92907-0.61270 0.34900
   1 -11   3   17.88   21.02 357-0.30442 0.57859-0.78520 0.00890-0.61648 0.99433
   1 -12   3    3.12   21.60 356-0.30739 0.58236-0.78749-0.06025-0.61347 0.99221
   0   3  -6  458.10   22.98 356-0.30620-0.00573-0.78657 0.99971-0.61469-0.02467
  -1  -9   4   30.63   15.09 355-0.31001 0.40811-0.78949 0.15474-0.61081 0.98385
  -3  -3   3   -2.16   11.51 356-0.31089 0.12669-0.79015 0.57935-0.60991 0.76296
  -4 -11   5   -0.59   18.09 356-0.31017 0.11874-0.78961 0.01527-0.61064 0.92359
  -5  -3   3    5.54   11.29 356-0.30916-0.10203-0.78884 0.57933-0.61168 0.65448
  -5 -10   5   12.71   17.88 356-0.30710 0.00319-0.78726 0.08535-0.61378 0.86991
  -7  -2   1    2.01   16.13 356-0.30852-0.43364-0.78835 0.65095-0.61234 0.33116
  -7  -3   2   50.07   18.10 357-0.30632-0.38372-0.78667 0.57834-0.61456 0.43964
   8  -4  -7    2.90   17.24 357-0.30603 0.85214-0.78637 0.50307-0.61486 0.31427
   6   0 -10  -14.47   18.28 357-0.30613 0.46706-0.78644 0.78731-0.61475-0.11739
   5   0  -5   -7.04   12.81 357-0.30388 0.61149-0.78470 0.78400-0.61701 0.36232
   5  -2  -3   20.77   12.77 357-0.30448 0.71788-0.78517 0.64217-0.61641 0.57542
  -1 -10   4    9.22   16.92 357-0.30229 0.40086-0.78347 0.07831-0.61860 0.99192
  -4  -3   3  168.74   15.42 357-0.30327 0.00616-0.78423 0.57432-0.61763 0.71595
  -5 -11   5  -11.21   18.74 357-0.30613 0.00127-0.78644 0.01276-0.61475 0.87218
  -8  -6   3    3.54   17.62 357-0.30532-0.44587-0.78581 0.36701-0.61558 0.49300
   8  -3  -8    7.54   19.25 359-0.29788 0.79483-0.78004 0.56725-0.62292 0.21450
   8  -5  -6    2.78   20.77 358-0.30040 0.90055-0.78202 0.42756-0.62047 0.42670
   8  -7  -5    1.35   21.62 358-0.30003 0.95238-0.78173 0.28648-0.62083 0.53399
   7  -1  -9    6.98   17.93 358-0.30180 0.63035-0.78313 0.71295-0.61907 0.04892
   5   1 -10    4.35   18.09 359-0.29856 0.34626-0.78058 0.85304-0.62226-0.16752
   5   1  -7    2.77   13.26 358-0.30160 0.50470-0.78297 0.85340-0.61927 0.15149
   1   3  -6  271.09   18.24 358-0.30004 0.10158-0.78174 0.99420-0.62081 0.03746
   0   3  -5  193.29   18.01 357-0.30136 0.04013-0.78278 0.99592-0.61951 0.08664
  -1 -11   4   15.06   18.38 359-0.29823 0.39643-0.78033 0.00519-0.62257 0.99454
  -1 -12   4    8.64   20.14 358-0.29947 0.39793-0.78130-0.06258-0.62137 0.99306
  -2  -7   4    2.23   11.64 358-0.30201 0.28451-0.78329 0.29004-0.61886 0.93524
  -3  -6   4    1.04   13.48 357-0.30180 0.17075-0.78313 0.35921-0.61907 0.88277
  -6  -6   4   -4.27   14.24 358-0.30129-0.17153-0.78273 0.36173-0.61958 0.71435
  -7  -7   4  -16.25   15.02 358-0.30233-0.28301-0.78353 0.29270-0.61856 0.65713
  -8  -3   0   -3.58   21.06 358-0.29975-0.61084-0.78152 0.57422-0.62110 0.17672
   6   0  -7   -9.80   13.82 359-0.29733 0.61426-0.77954 0.77879-0.62356 0.21154
   4   2  -8    7.69   12.69 358-0.29773 0.33452-0.77987 0.92020-0.62315-0.00663
   3   2  -5   30.53   11.37 359-0.29715 0.37708-0.77940 0.92027-0.62373 0.25750
   1   3  -7    3.65   14.49 359-0.29757 0.04522-0.77973 0.99354-0.62332-0.06761
;
_shelx_hkl_checksum              75893
_shelx_res_file
;
    maleicacid.res created by SHELXL-2014/7
TITL maleicIPDS in P21/n #14
REM transformed to space group : P21/c:b1
REM reset to P21/n #14
CELL 0.71073 7.1511 10.1107 7.6405 90 119.405 90
ZERR 4 0.0008 0.0011 0.001 0 0.008 0
LATT 1
SYMM -X,0.5+Y,0.5-Z
SFAC C H O
UNIT 16 16 16
EQIV $1 1+X,+Y,1+Z
L.S. 5
PLAN  50
TEMP 24.85
HTAB O1 O3
HTAB O4 O2_$1
BOND
BOND $H
MORE -1
CONF
fmap 2
acta
SHEL 40 0.8
REM <olex2.extras>
REM <HklSrc "%.\\maleic%20acid.hkl">
REM </olex2.extras>
WGHT    0.061500
FVAR       1.98241
O3    3    0.465747    0.770591    0.721400    11.00000    0.06387    0.03374 =
         0.05973   -0.00249    0.00067   -0.00061
O2    3   -0.108486    0.746143    0.141404    11.00000    0.06214    0.05269 =
         0.05686   -0.00034   -0.00418    0.00055
O4    3    0.619188    0.580725    0.864320    11.00000    0.06227    0.04152 =
         0.05917    0.00299   -0.00343    0.00485
AFIX 147
H4    2    0.705652    0.630855    0.950392    11.00000   -1.50000
AFIX   0
O1    3    0.150004    0.843934    0.399114    11.00000    0.06282    0.03401 =
         0.05580    0.00057    0.00020   -0.00111
AFIX 147
H1    2    0.256775    0.824368    0.505351    11.00000   -1.50000
AFIX   0
C2    1    0.137466    0.603699    0.389168    11.00000    0.05280    0.03318 =
         0.05276   -0.00617    0.01150   -0.00656
AFIX  43
H2    2    0.055735    0.533852    0.308812    11.00000   -1.20000
AFIX   0
C3    1    0.307536    0.566237    0.558435    11.00000    0.05468    0.03072 =
         0.05612   -0.00242    0.01206   -0.00105
AFIX  43
H3    2    0.327531    0.475437    0.578221    11.00000   -1.20000
AFIX   0
C4    1    0.468982    0.649687    0.719274    11.00000    0.05235    0.03664 =
         0.05126    0.00322    0.01261    0.00359
C1    1    0.052720    0.736078    0.303541    11.00000    0.04757    0.04268 =
         0.04684   -0.00070    0.00764    0.00005
HKLF 4
REM  maleicIPDS in P21/n #14
REM R1 =  0.0416 for     541 Fo > 4sig(Fo)  and  0.0784 for all     979 data
REM     75 parameters refined using      0 restraints
END
WGHT      0.0615      0.0000
REM Highest difference peak  0.163,  deepest hole -0.209,  1-sigma level  0.044
Q1    1   0.5928  0.8648  0.7492  11.00000  0.05    0.13
Q2    1  -0.0045  0.5331  0.3167  11.00000  0.05    0.13
Q3    1   0.1974  0.9800  0.4563  11.00000  0.05    0.13
Q4    1  -0.1980  0.8011  0.0735  11.00000  0.05    0.13
Q5    1   0.0361  0.9249  0.3266  11.00000  0.05    0.12
Q6    1   0.5386  0.8018  0.9611  11.00000  0.05    0.11
Q7    1   0.2995  0.4312  0.8024  11.00000  0.05    0.11
Q8    1   0.4109  0.4197  0.5273  11.00000  0.05    0.10
Q9    1  -0.0993  0.8716  0.0191  11.00000  0.05    0.10
Q10   1   0.0384  0.6359  0.1682  11.00000  0.05    0.10
Q11   1   0.5194  0.8703  0.8355  11.00000  0.05    0.10
Q12   1   0.1665  0.4764  0.5356  11.00000  0.05    0.10
Q13   1   0.2672  0.3414  0.6415  11.00000  0.05    0.10
Q14   1   0.8002  0.4989  0.9150  11.00000  0.05    0.10
Q15   1   0.3138  0.4410  0.4598  11.00000  0.05    0.10
Q16   1   0.0667  0.8243  0.1390  11.00000  0.05    0.09
Q17   1   0.6618  0.4589  0.9499  11.00000  0.05    0.09
Q18   1   0.5000  0.5000  0.5000  10.50000  0.05    0.09
Q19   1   0.7430  0.6177  1.1191  11.00000  0.05    0.09
Q20   1   0.4277  0.8623  0.5616  11.00000  0.05    0.09
Q21   1   0.3393  0.8434  0.6760  11.00000  0.05    0.09
Q22   1  -0.1925  0.6985  0.1229  11.00000  0.05    0.09
Q23   1   0.8691  0.6038  1.0149  11.00000  0.05    0.08
Q24   1   0.2203  0.4625  0.6304  11.00000  0.05    0.08
Q25   1   0.6769  0.5184  1.0697  11.00000  0.05    0.08
Q26   1  -0.0540  0.4174  0.3144  11.00000  0.05    0.08
Q27   1   0.7024  0.7677  0.8212  11.00000  0.05    0.08
Q28   1   0.7469  0.6660  1.0226  11.00000  0.05    0.08
Q29   1   0.1256  0.5769  0.1341  11.00000  0.05    0.08
Q30   1   0.3438  0.8821  0.7387  11.00000  0.05    0.08
Q31   1   0.2569  0.7275  0.7572  11.00000  0.05    0.08
Q32   1   0.4978  0.4770  0.6373  11.00000  0.05    0.08
Q33   1   0.1255  0.6747  0.3533  11.00000  0.05    0.08
Q34   1   0.3796  0.8161  0.4759  11.00000  0.05    0.08
Q35   1   0.6388  0.7365  0.6610  11.00000  0.05    0.08
Q36   1   0.2103  0.5822  0.6018  11.00000  0.05    0.07
Q37   1   0.6672  0.8124  0.6909  11.00000  0.05    0.07
Q38   1   0.0671  0.6057  0.4115  11.00000  0.05    0.07
Q39   1  -0.0990  0.8783  0.1820  11.00000  0.05    0.07
Q40   1   0.5447  0.6247  0.7928  11.00000  0.05    0.07
Q41   1   0.5799  0.4386  0.6116  11.00000  0.05    0.07
Q42   1   0.5763  0.5809  0.9186  11.00000  0.05    0.07
Q43   1   0.3144  0.7204  0.6669  11.00000  0.05    0.07
Q44   1   0.2407  0.5684  0.2258  11.00000  0.05    0.06
Q45   1   0.2205  0.5481  0.4748  11.00000  0.05    0.06
Q46   1  -0.1196  0.7847  0.3876  11.00000  0.05    0.06
Q47   1   0.2380  0.4064  0.3165  11.00000  0.05    0.06
Q48   1   0.8530  0.5905  0.8836  11.00000  0.05    0.06
Q49   1   0.2580  0.8211  0.7478  11.00000  0.05    0.06
Q50   1   0.5407  0.5170  0.8098  11.00000  0.05    0.06
;
_shelx_res_checksum              15949
loop_
_space_group_symop_operation_xyz
'x, y, z'
'-x, y+1/2, -z+1/2'
'-x, -y, -z'
'x, -y-1/2, z-1/2'
loop_
_atom_site_type_symbol
_atom_site_label
_atom_site_fract_x
_atom_site_fract_y
_atom_site_fract_z
_atom_site_U_iso_or_equiv
_atom_site_adp_type
_atom_site_calc_flag
_atom_site_occupancy
O O3 0.4657(3) 0.77059(13) 0.7214(2) 0.0652(5) Uani d 1
O O2 -0.1085(3) 0.74614(16) 0.1414(2) 0.0716(5) Uani d 1
O O4 0.6192(3) 0.58072(14) 0.8643(2) 0.0687(5) Uani d 1
H H4 0.7057 0.6309 0.9504 0.103 Uiso calc 1
O O1 0.1500(3) 0.84393(12) 0.3991(2) 0.0633(5) Uani d 1
H H1 0.2568 0.8244 0.5054 0.095 Uiso calc 1
C C2 0.1375(3) 0.60370(19) 0.3892(3) 0.0525(6) Uani d 1
H H2 0.0557 0.5339 0.3088 0.063 Uiso calc 1
C C3 0.3075(3) 0.56624(19) 0.5584(3) 0.0537(6) Uani d 1
H H3 0.3275 0.4754 0.5782 0.064 Uiso calc 1
C C4 0.4690(3) 0.6497(2) 0.7193(3) 0.0523(6) Uani d 1
C C1 0.0527(3) 0.7361(2) 0.3035(3) 0.0524(6) Uani d 1
loop_
_atom_site_aniso_label
_atom_site_aniso_U_11
_atom_site_aniso_U_22
_atom_site_aniso_U_33
_atom_site_aniso_U_12
_atom_site_aniso_U_13
_atom_site_aniso_U_23
O3 0.0639(10) 0.0337(8) 0.0597(10) -0.0006(7) 0.0007(8) -0.0025(7)
O2 0.0621(10) 0.0527(10) 0.0569(9) 0.0006(8) -0.0042(8) -0.0003(7)
O4 0.0623(11) 0.0415(8) 0.0592(10) 0.0048(8) -0.0034(8) 0.0030(8)
O1 0.0628(11) 0.0340(8) 0.0558(9) -0.0011(7) 0.0002(8) 0.0006(7)
C2 0.0528(13) 0.0332(10) 0.0528(12) -0.0066(9) 0.0115(11) -0.0062(9)
C3 0.0547(13) 0.0307(10) 0.0561(13) -0.0011(10) 0.0121(11) -0.0024(9)
C4 0.0523(13) 0.0366(11) 0.0513(12) 0.0036(10) 0.0126(11) 0.0032(10)
C1 0.0476(12) 0.0427(11) 0.0468(12) 0.0000(10) 0.0076(11) -0.0007(10)
loop_
_atom_type_symbol
_atom_type_description
_atom_type_scat_dispersion_real
_atom_type_scat_dispersion_imag
_atom_type_scat_source
C C 0.0033 0.0016 'International Tables Vol C Tables 4.2.6.8 and 6.1.1.4'
H H 0.0000 0.0000 'International Tables Vol C Tables 4.2.6.8 and 6.1.1.4'
O O 0.0106 0.0060 'International Tables Vol C Tables 4.2.6.8 and 6.1.1.4'
loop_
_geom_angle_atom_site_label_1
_geom_angle_atom_site_label_2
_geom_angle_atom_site_label_3
_geom_angle
C4 O4 H4 109.5
C1 O1 H1 109.5
C3 C2 H2 114.0
C3 C2 C1 132.09(18)
C1 C2 H2 114.0
C2 C3 H3 115.8
C2 C3 C4 128.35(19)
C4 C3 H3 115.8
O3 C4 O4 122.44(18)
O3 C4 C3 124.93(19)
O4 C4 C3 112.63(17)
O2 C1 O1 118.61(18)
O2 C1 C2 120.27(19)
O1 C1 C2 121.11(17)
loop_
_geom_bond_atom_site_label_1
_geom_bond_atom_site_label_2
_geom_bond_distance
O3 C4 1.223(2)
O2 C1 1.213(2)
O4 H4 0.8200
O4 C4 1.304(2)
O1 H1 0.8200
O1 C1 1.307(2)
C2 H2 0.9300
C2 C3 1.323(3)
C2 C1 1.482(3)
C3 H3 0.9300
C3 C4 1.470(3)
loop_
_geom_hbond_atom_site_label_D
_geom_hbond_atom_site_label_H
_geom_hbond_atom_site_label_A
_geom_hbond_site_symmetry_A
_geom_hbond_distance_DH
_geom_hbond_distance_HA
_geom_hbond_distance_DA
_geom_hbond_angle_DHA
O4 H4 O2 1_656 0.82 1.83 2.650(2) 178.2
O1 H1 O3 . 0.82 1.68 2.500(2) 174.8
loop_
_geom_torsion_atom_site_label_1
_geom_torsion_atom_site_label_2
_geom_torsion_atom_site_label_3
_geom_torsion_atom_site_label_4
_geom_torsion
C2 C3 C4 O3 1.9(4)
C2 C3 C4 O4 -178.7(2)
C3 C2 C1 O2 179.3(2)
C3 C2 C1 O1 -0.1(4)
C1 C2 C3 C4 0.5(4)
