#------------------------------------------------------------------------------
#$Date: 2019-12-26 22:32:25 +0200 (Thu, 26 Dec 2019) $
#$Revision: 246198 $
#$URL: file:///home/coder/svn-repositories/cod/cif/2/31/19/2311979.cif $
#------------------------------------------------------------------------------
#
# This file is available in the Crystallography Open Database (COD),
# http://www.crystallography.net/. The original data for this entry
# were provided by IUCr Journals, http://journals.iucr.org/.
#
# The file may be used within the scientific community so long as
# proper attribution is given to the journal article from which the
# data were obtained.
#
data_2311979
loop_
_publ_author_name
'Wzgarda-Raj, Kinga'
'Rybarczyk-Pirek, Agnieszka J'
'Wojtulewski, S\/lawomir'
'Palusiak, Marcin'
_publ_section_title
;
 N-Oxide-N-oxide interactions and Cl...Cl halogen bonds in
 pentachloropyridine N-oxide: the many-body approach to interactions in
 the crystal state.
;
_journal_coeditor_code           UK3147
_journal_issue                   'Pt 2'
_journal_name_full
'Acta crystallographica. Section C, Structural chemistry'
_journal_page_first              113
_journal_page_last               119
_journal_paper_doi               10.1107/S2053229617017922
_journal_volume                  74
_journal_year                    2018
_chemical_formula_iupac          'C5 Cl5 N O'
_chemical_formula_moiety         'C5 Cl5 N O'
_chemical_formula_sum            'C5 Cl5 N O'
_chemical_formula_weight         267.31
_chemical_name_systematic
;
Pentachloropyridine <i>N</i>-oxide
;
_space_group_crystal_system      monoclinic
_space_group_IT_number           14
_space_group_name_Hall           '-P 2ybc'
_space_group_name_H-M_alt        'P 1 21/c 1'
_audit_creation_method           SHELXL-2014/7
_cell_angle_alpha                90
_cell_angle_beta                 106.936(3)
_cell_angle_gamma                90
_cell_formula_units_Z            4
_cell_length_a                   8.5852(2)
_cell_length_b                   17.0639(4)
_cell_length_c                   5.9883(2)
_cell_measurement_reflns_used    3739
_cell_measurement_temperature    100(2)
_cell_measurement_theta_max      76.1950
_cell_measurement_theta_min      5.3930
_cell_volume                     839.22(4)
_computing_cell_refinement
;
CrysAlis PRO (Agilent, 2011)
;
_computing_data_collection
;
CrysAlis PRO (Agilent, 2011)
;
_computing_data_reduction
;
CrysAlis PRO (Agilent, 2011)
;
_computing_molecular_graphics
;
<i>ORTEP-3 for Windows</i> (Farrugia, 2012) and
<i>Mercury</i> (Macrae <i>et al.</i>, 2008)
;
_computing_publication_material
;
publCIF (Westrip, 2010), <i>PLATON</i> (Spek, 2009) and
<i>WinGX</i> (Farrugia, 2012)
;
_computing_structure_refinement
;
SHELXL2014 (Sheldrick, 2015)
;
_computing_structure_solution
'<b>Structure solution software; please supply</b>'
_diffrn_ambient_temperature      100(2)
_diffrn_detector_area_resol_mean 10.4052
_diffrn_measured_fraction_theta_full 1.000
_diffrn_measured_fraction_theta_max 1.000
_diffrn_measurement_device_type  'Agilent SuperNova DualSource'
_diffrn_measurement_method
;
CrysAlisPro 1.171.39.15e (Rigaku Oxford Diffraction, 2015)
Empirical absorption correction using spherical harmonics,
implemented in SCALE3 ABSPACK scaling algorithm.
;
_diffrn_radiation_type           CuK\a
_diffrn_radiation_wavelength     1.54184
_diffrn_reflns_av_R_equivalents  0.0455
_diffrn_reflns_limit_h_max       10
_diffrn_reflns_limit_h_min       -10
_diffrn_reflns_limit_k_max       20
_diffrn_reflns_limit_k_min       -17
_diffrn_reflns_limit_l_max       7
_diffrn_reflns_limit_l_min       -7
_diffrn_reflns_number            8310
_diffrn_reflns_theta_full        68.459
_diffrn_reflns_theta_max         68.459
_diffrn_reflns_theta_min         5.184
_exptl_absorpt_coefficient_mu    15.313
_exptl_absorpt_correction_T_max  1.00000
_exptl_absorpt_correction_T_min  0.09952
_exptl_absorpt_correction_type   multi-scan
_exptl_absorpt_process_details
;
(CrysAlis PRO; Agilent, 2011)
;
_exptl_crystal_colour            colourless
_exptl_crystal_density_diffrn    2.116
_exptl_crystal_density_method    'not measured'
_exptl_crystal_description       plate
_exptl_crystal_F_000             520
_exptl_crystal_size_max          0.338
_exptl_crystal_size_mid          0.082
_exptl_crystal_size_min          0.022
_refine_diff_density_max         0.397
_refine_diff_density_min         -0.439
_refine_ls_extinction_method     none
_refine_ls_goodness_of_fit_ref   1.037
_refine_ls_hydrogen_treatment    undef
_refine_ls_matrix_type           full
_refine_ls_number_parameters     109
_refine_ls_number_reflns         1548
_refine_ls_number_restraints     0
_refine_ls_restrained_S_all      1.037
_refine_ls_R_factor_all          0.0364
_refine_ls_R_factor_gt           0.0316
_refine_ls_shift/su_max          0.001
_refine_ls_shift/su_mean         0.000
_refine_ls_structure_factor_coef Fsqd
_refine_ls_weighting_details
'w=1/[\s^2^(Fo^2^)+(0.0591P)^2^+0.0274P] where P=(Fo^2^+2Fc^2^)/3'
_refine_ls_weighting_scheme      calc
_refine_ls_wR_factor_gt          0.0816
_refine_ls_wR_factor_ref         0.0848
_reflns_number_gt                1391
_reflns_number_total             1548
_reflns_threshold_expression     'I > 2\s(I)'
_cod_data_source_file            uk3147sup1.cif
_cod_data_source_block           I
_cod_original_sg_symbol_H-M      'P 21/c'
_cod_database_code               2311979
_shelx_space_group_comment
;
The symmetry employed for this shelxl refinement is uniquely defined
by the following loop, which should always be used as a source of
symmetry information in preference to the above space-group names.
They are only intended as comments.
;
_shelx_hkl_file
;
  -1   0   0 50219.1 1542.39   4
   1   0   0 38365.5 1009.35  18
   2   0   0 269.738 250.958  18
  -2   0   0 341.124 292.625   4
  -2   0   0 255.636 270.351   3
  -2   0   0 98.4788 101.635  19
  -3   0   0 639989. 6341.99   4
   3   0   0 653632. 6693.86  18
  -3   0   0 637520. 6886.35   3
  -4   0   0-27.3407 62.6184   1
   4   0   0-100.740 244.723  18
  -4   0   0-37.0309 156.467   4
  -4   0   0-322.583 295.851   3
  -5   0   0 18956.4 1573.08   3
   5   0   0 20376.2 1532.08  20
   5   0   0 19311.0 1514.96  18
  -5   0   0 17570.2 1259.98   4
   6   0   0 159215. 4967.05  18
  -6   0   0 151907. 4963.68   3
   6   0   0 161448. 4872.13  20
  -7   0   0 48969.9 1591.87  14
  -7   0   0 44311.1 1666.74  12
  -7   0   0 44608.5 1629.49   8
  -7   0   0 49587.0 1641.95  10
  -8   0   0 31999.3 1319.52  10
  -8   0   0 30398.7 1319.72   8
  -8   0   0 32110.8 1294.90  14
  -8   0   0 27813.3 1283.03  12
  -9   0   0 20296.1 867.701   8
  -9   0   0 21524.4 901.356  10
  -9   0   0 20386.4 852.400  14
 -10   0   0 38.7642 61.4621  10
   0  -1   0 56.8604 37.6818   4
   0  -1   0-26.0629 34.2231  21
   0  -1   0-16.9115 38.6612   1
   1   1   0 11160.0 508.295  18
  -1  -1   0 25156.0 1530.33  19
   1  -1   0 11027.4 477.483  18
  -1   1   0 10672.3 320.558   1
   1  -1   0 22668.0 1316.69   2
  -2   1   0 48093.2 1586.74   3
   2  -1   0 44689.2 1455.72  18
  -2  -1   0 54088.5 1634.51   4
  -2   1   0 43415.3 1026.91   1
   2   1   0 42241.2 1503.24  18
  -2   1   0 57638.4 2122.11   4
  -3   1   0 90502.2 2666.54   4
  -3  -1   0 90028.5 2228.95   4
   3  -1   0 92888.9 2511.49  18
   3   1   0 89558.7 2554.39  18
  -3   1   0 91296.2 2650.64   3
  -4  -1   0 3023.70 607.800   3
  -4   1   0 2771.92 607.435   3
   4   1   0 3076.62 566.418  18
   4  -1   0 3249.17 589.045  18
  -4   1   0 3572.03 544.094   4
  -4  -1   0 2646.42 420.670   4
  -4  -1   0 3227.76 421.723   1
  -5  -1   0 33472.3 2126.22   3
   5  -1   0 34335.2 2026.65  18
   5   1   0 36686.2 2119.96  18
  -5   1   0 32192.1 2052.19   3
   5   1   0 35393.2 1969.21  20
  -5   1   0 29116.6 1685.34   4
  -6  -1   0 94064.1 3944.24   3
   6  -1   0 94921.8 3831.58  18
   6  -1   0 99489.0 3944.26  20
  -6   1   0 96235.2 3967.18   3
   6   1   0 90201.2 3507.28  20
   6   1   0 92169.4 3805.98  18
  -7   1   0 7713.79 702.634   8
  -7  -1   0 8610.08 702.114  10
  -7  -1   0 6166.19 618.357   8
  -7   1   0 7475.14 626.896  14
  -7  -1   0 8003.87 666.791  14
  -7   1   0 8383.30 677.756  10
  -7  -1   0 6708.60 684.205  12
  -8  -1   0 3535.03 465.285  14
  -8  -1   0 3129.93 451.428  10
  -8   1   0 2730.29 376.013  14
  -8  -1   0 2723.35 405.115   8
  -8   1   0 2848.49 410.383  10
  -8   1   0 2853.52 427.931   8
  -8  -1   0 2385.32 419.978  12
  -9  -1   0 13815.1 725.935  14
  -9   1   0 13145.5 681.684  10
  -9   1   0 12568.2 702.254   8
  -9  -1   0 12232.6 651.512   8
  -9  -1   0 14232.5 750.412  10
 -10  -1   0 6359.56 352.993  10
 -10   1   0 4987.92 279.456  10
   0  -2   0 82.1567 91.7981   1
   0  -2   0 36.2954 42.3616  20
   0   2   0 28.6731 23.2139   2
   0   2   0 51.0573 72.6117   4
   0  -2   0 41.9846 77.1644   4
   0  -2   0 57.9959 56.3966  18
   1  -2   0 50.3796 72.7321   1
   1   2   0 22.0064 65.6574  20
   1  -2   0 134.971 155.050   2
  -1   2   0 64.1983 53.6723   1
   1  -2   0 83.8805 62.0359  19
   1   2   0-31.3157 120.862  18
  -2   2   0 3596.22 655.368   4
   2   2   0 2781.97 418.505  18
  -2  -2   0 3334.11 391.587   4
   2  -2   0 3354.34 436.694  18
   2   2   0 3075.16 351.460  20
  -2   2   0 3134.19 442.453   3
  -2   2   0 2882.89 225.895   1
   3  -2   0 16745.6 1110.43  18
  -3   2   0 16150.9 1203.48   4
  -3   2   0 17180.2 1189.95   3
   3   2   0 15853.5 990.890  20
  -3  -2   0 17913.7 922.709   4
   3   2   0 17556.7 1201.54  18
   4  -2   0 1748.74 427.567  18
  -4   2   0 1294.69 455.598   3
  -4  -2   0 1660.91 316.047   4
   4   2   0 1352.97 421.909  18
   4   2   0 1361.72 387.356  20
  -4   2   0 2073.95 483.293   4
  -4  -2   0 1736.19 496.529   3
  -4  -2   0 1547.34 339.296   1
  -5   2   0 280.365 190.722   4
   5   2   0 158.380 127.410  20
  -5   2   0 470.760 312.727   3
   5  -2   0 132.102 176.224  18
  -5  -2   0 239.392 364.896   3
   5   2   0 514.164 338.513  18
   6  -2   0 39886.3 2578.77  20
   6  -2   0 37978.6 2418.85  18
  -6   2   0 33618.7 2183.85   4
  -6   2   0 37888.7 2525.68   3
  -6  -2   0 35879.5 2480.55   3
   6   2   0 37095.9 2450.67  18
  -7  -2   0 1772.32 342.039   8
  -7   2   0 1564.45 289.055  14
  -7   2   0 1364.92 325.943   8
  -7  -2   0 2022.42 347.658  10
  -7  -2   0 2079.35 414.023  12
  -7   2   0 1502.82 307.965  10
  -7  -2   0 1563.83 319.536  14
  -8  -2   0 1736.61 355.347  10
  -8   2   0 1349.16 281.775  10
  -8   2   0 1197.87 254.208  14
  -8  -2   0 1833.10 357.559  14
  -8   2   0 1631.46 368.522   8
  -8  -2   0 1413.56 335.963  12
  -8  -2   0 1436.21 300.122   8
  -9   2   0 30094.8 977.054  10
  -9  -2   0 32745.5 1132.67  10
  -9  -2   0 30158.7 1092.23  14
  -9   2   0 29641.4 1069.99   8
 -10  -2   0 557.636 119.386  10
   0  -3   0-53.3316 62.5591  20
   0  -3   0-105.721 141.778   4
   0   3   0-17.7176 34.9359   2
   0   3   0-3.05034 98.2346   4
   0  -3   0 105.670 128.686   1
   1  -3   0 7459.65 406.427   1
   1  -3   0 6445.26 250.628   2
   1   3   0 7864.75 327.068  20
  -1  -3   0 6639.40 232.154   4
  -1  -3   0 8598.46 362.280  20
   1   3   0 8041.59 506.754  18
   2   3   0 7918.34 477.269  20
   2   3   0 8501.97 683.333  18
   2  -3   0 7879.71 618.346  18
  -2   3   0 8622.72 694.124   3
  -2   3   0 6264.82 372.687   1
  -2  -3   0 8219.21 464.152   4
   2  -3   0 6813.88 384.227   1
  -3   3   0 3934.34 635.821   3
   3   3   0 4145.39 638.421  18
  -3   3   0 4399.11 720.915   4
   3   3   0 3607.16 465.071  20
   3  -3   0 4493.68 638.460  18
  -3  -3   0 5037.34 684.048   1
  -3  -3   0 4585.68 415.728   4
  -4   3   0-77.0918 215.947   4
  -4   3   0-355.402 354.405   3
   4  -3   0 131.273 281.632  18
   4   3   0 399.449 209.951  20
  -4  -3   0 33.6275 118.148   1
   4   3   0 166.493 271.601  18
  -5  -3   0 4899.92 852.333   3
  -5   3   0 4509.71 741.598   4
   5  -3   0 5503.33 813.705  18
  -5   3   0 4776.01 839.920   3
   5   3   0 5235.81 884.027  18
  -6  -3   0 3923.75 893.455   3
   6  -3   0 5497.89 911.468  18
  -6   3   0 3678.24 860.705   3
   6   3   0 3710.92 799.389  18
  -6   3   0 2446.87 619.883   4
  -7   3   0 7750.02 620.857  10
  -7   3   0 7423.20 704.532   8
  -7  -3   0 8111.12 762.286  12
  -7  -3   0 8122.45 697.174  10
  -7  -3   0 7873.72 662.819  14
  -7  -3   0 6981.15 631.662   8
   7   3   0 7688.10 626.239  17
  -8  -3   0 2329.58 429.995  12
  -8   3   0 2725.51 428.272   8
  -8  -3   0 2633.16 401.858  14
  -8   3   0 2282.94 339.802  10
  -8  -3   0 2986.96 460.167  10
  -9   3   0 4350.80 424.771   8
  -9  -3   0 4762.24 452.150  10
  -9  -3   0 4204.98 452.693  12
  -9   3   0 4179.11 348.161  10
  -9  -3   0 4948.24 458.332  14
 -10  -3   0 6437.17 349.775  10
   0   4   0 164647. 2101.76   4
   0  -4   0 165476. 2334.14   1
   0   4   0 164586. 1361.19   2
  -1   4   0 1609.88 405.465   4
  -1  -4   0 1248.04 153.946  20
   1   4   0 1352.51 256.467  18
  -1  -4   0 1497.79 357.664   1
  -1  -4   0 1204.53 184.567   4
   1  -4   0 1558.13 238.052   1
   1   4   0 1429.96 162.462  20
  -2   4   0 7883.26 983.798   4
  -2  -4   0 8081.55 888.036   1
  -2   4   0 9110.60 737.013   3
   2  -4   0 7748.10 414.347  19
   2  -4   0 8718.48 668.970  18
   2   4   0 8948.48 488.002  20
   2   4   0 8581.42 703.258  18
   2  -4   0 8080.94 479.699   1
   3   4   0 2508.03 359.101  20
  -3  -4   0 1712.86 197.828   4
   3  -4   0 2051.84 489.625  18
   3   4   0 2544.92 498.345  18
  -3   4   0 2551.35 526.940   3
  -3   4   0 2453.63 605.782   4
  -3  -4   0 2428.39 556.602   1
  -4   4   0 28968.1 1821.16   4
  -4  -4   0 31146.0 1661.50   1
   4   4   0 31621.1 1943.41  18
  -4   4   0 29795.6 1913.73   3
   4   4   0 30690.7 1504.84  20
   4  -4   0 32844.6 1834.93  18
  -5  -4   0 291.787 306.064   3
  -5   4   0 186.050 181.801   3
  -5   4   0 113.139 146.706   4
   5  -4   0-237.277 285.990  18
  -6  -4   0 5801.11 642.334  12
  -6  -4   0 5341.80 491.870  10
  -6   4   0 6036.68 609.610   8
  -6  -4   0 4863.79 474.696  14
  -6   4   0 4189.12 877.350   4
  -6  -4   0 3807.77 978.854   3
   6  -4   0 5121.03 899.474  18
  -7   4   0 3848.30 522.933   8
  -7  -4   0 3678.33 553.697  12
  -7  -4   0 3637.17 470.326  10
   7   4   0 3105.91 412.018  17
  -7  -4   0 4345.86 507.982  14
  -8  -4   0 313.616 223.563  14
  -8  -4   0 593.817 298.940  12
  -8   4   0 671.867 249.771   8
  -8  -4   0 646.706 265.531  10
  -9  -4   0 100.009 172.792  14
  -9  -4   0 126.436 146.727  12
  -9  -4   0 111.067 160.512  10
  -9   4   0 5.08058 107.691   8
 -10  -4   0 1829.63 185.130  10
   0   5   0 141.919 154.499   4
   0   5   0-158.765 207.820  21
   0  -5   0-27.5552 173.802   1
   0   5   0-6.64023 39.0706   2
  -1   5   0 4248.17 593.710   4
   1   5   0 4114.39 421.860  18
  -1   5   0 4357.64 490.375  21
  -1  -5   0 4064.95 580.987   1
  -1   5   0 3980.19 459.087   3
   1  -5   0 3947.68 420.692   1
   1   5   0 3914.16 265.149  20
  -1  -5   0 4136.95 481.407   4
  -2   5   0 41517.3 1589.47   3
   2   5   0 39514.6 947.363  20
  -2   5   0 37662.6 2066.71   4
   2   5   0 42058.6 1558.55  18
   2  -5   0 38321.4 807.950   2
  -2  -5   0 40322.1 1985.50   1
   2  -5   0 40532.9 1176.37   1
  -2   5   0 37609.4 1535.82  21
  -3   5   0 665.917 316.760   3
   3   5   0 718.948 345.815  18
  -3   5   0 671.431 372.728   4
   3   5   0 741.255 200.365  20
  -3  -5   0 688.746 406.742   1
   3  -5   0 365.734 259.496  18
   4  -5   0 13148.8 1195.66  18
  -4   5   0 11538.6 1262.73   4
  -4  -5   0 11897.0 1106.20   1
   4   5   0 12651.8 1279.89  18
  -4   5   0 11598.7 1262.84   3
   5   5   0 10241.8 1293.40  18
   5  -5   0 10199.5 1164.17  18
  -5   5   0 9600.03 1228.72   4
  -5  -5   0 11100.1 1110.17   1
  -5   5   0 12358.9 1421.23   3
   6   5   0 6386.87 596.046  17
  -6  -5   0 8022.69 761.571  12
  -6  -5   0 6344.59 544.686  10
  -6  -5   0 6522.13 559.759  14
  -6   5   0 6489.40 632.669   8
  -7  -5   0 14040.9 1032.01  12
  -7   5   0 14900.8 968.721   8
  -7  -5   0 14732.5 904.125  14
  -7  -5   0 13368.5 919.871   5
  -7  -5   0 14278.2 883.885  10
   7   5   0 14094.7 873.234  17
   8   5   0 394.640 216.803  17
  -8  -5   0 394.251 239.492  10
  -8   5   0 463.639 215.379   8
  -8  -5   0 108.740 172.913  14
  -8  -5   0-55.6540 205.349  12
  -9   5   0 908.505 220.765   8
  -9  -5   0 918.739 213.930  10
  -9  -5   0 1173.31 266.528  12
 -10  -5   0 7858.62 339.564  10
   0   6   0 4550.99 513.894  21
   0   6   0 4416.71 483.954   4
   0   6   0 3166.10 203.981   2
   0  -6   0 3807.77 470.055   1
   1   6   0 4362.99 468.566  18
  -1  -6   0 4663.38 618.738   1
   1  -6   0 4588.21 506.837   1
  -1   6   0 4659.39 545.324  21
   1   6   0 4729.54 549.761  21
  -1   6   0 3770.84 539.065   4
  -2   6   0 3032.48 487.070  21
   2  -6   0 3020.84 379.134   1
  -2   6   0 2824.32 473.973   3
  -2  -6   0 2694.15 613.263   1
  -2   6   0 3075.44 674.650   4
   2   6   0 2704.61 432.729  18
   2   6   0 2654.43 233.495  20
  -3  -6   0 6618.28 925.009   1
   3  -6   0 6217.71 732.081  18
  -3   6   0 6251.98 798.260   3
  -3   6   0 6587.72 1039.81   4
   3   6   0 6707.95 782.495  18
  -4   6   0 5856.11 923.427   3
   4  -6   0 4912.49 763.524  18
  -4   6   0 5269.05 916.689   4
   4   6   0 5735.18 868.672  18
  -4  -6   0 5978.38 852.176   1
  -5   6   0 17764.9 1742.39   3
  -5  -6   0 16430.1 1398.29   1
  -5   6   0 17795.3 1732.95   4
   5   6   0 16170.9 1635.29  18
   5  -6   0 17357.1 1524.25  18
  -6  -6   0 24780.8 1066.47  10
  -6   6   0 27628.0 1316.71   8
  -6   6   0 24592.4 1298.64  13
  -6  -6   0 26129.4 1141.10  14
  -6  -6   0 28446.0 1441.22  12
   6   6   0 25594.1 1209.91  17
  -6   6   0 26484.6 1323.06   9
   7   6   0 13559.8 866.039  17
  -7  -6   0 14721.8 883.530  10
  -7  -6   0 13357.2 949.375   5
  -7  -6   0 14721.8 1055.00  12
  -7   6   0 14035.8 939.473   8
  -7  -6   0 14940.4 911.411  14
  -8  -6   0 12856.3 790.959  10
   8   6   0 12822.8 766.175  17
  -8   6   0 12598.4 815.851   8
  -8  -6   0 12209.6 799.995  14
  -8  -6   0 12351.9 888.382  12
  -9   6   0 18499.8 782.677   8
  -9  -6   0 20333.9 931.399  12
  -9  -6   0 20595.3 798.901  10
   0   7   0-238.312 199.657  21
   0  -7   0-41.0554 204.008   1
   0   7   0 87.1620 189.421   4
  -1   7   0 25822.6 1436.02   4
   1  -7   0 26288.3 1259.23   1
   1   7   0 26526.1 1316.27  21
  -1  -7   0 27884.9 1524.51   1
  -1   7   0 26305.8 1348.68  21
  -2  -7   0 6830.20 914.456   1
  -2   7   0 6491.14 742.196  21
  -2   7   0 6565.38 719.137   3
  -2   7   0 7170.63 1006.89   4
   2   7   0 7388.64 714.846  18
   2  -7   0 6528.43 606.950   1
  -3  -7   0 37115.8 2236.33   1
  -3   7   0 35639.8 1906.20   3
   3   7   0 36307.3 1856.86  18
   3  -7   0 38923.3 1870.54  18
  -3   7   0 38195.7 2531.00   4
   4   7   0 38832.6 2279.85  18
  -4  -7   0 41883.0 2353.02   1
  -4   7   0 44459.6 2798.56   4
   4  -7   0 40317.6 2190.69  18
  -4   7   0 38179.8 2302.92   3
  -5  -7   0 1249.58 466.215   1
   5   7   0 1379.66 533.738  18
   5  -7   0 877.850 419.342  18
  -5   7   0 490.747 471.964   3
  -5   7   0 467.320 366.530   4
  -6  -7   0 13540.6 796.392  10
  -6   7   0 14328.8 999.300  16
  -6  -7   0 14071.8 862.354  14
  -6   7   0 14814.3 1034.05   9
   6   7   0 15083.0 949.687  17
  -6   7   0 14298.6 1021.75  13
  -6   7   0 15253.1 995.074   8
  -6  -7   0 16068.5 1108.77  12
  -7  -7   0 3229.04 446.592  14
  -7  -7   0 3126.56 475.313   5
   7   7   0 2589.52 408.899  17
  -7   7   0 3030.98 467.814   9
  -7   7   0 3607.28 521.236  13
  -7  -7   0 2714.04 389.454  10
  -7  -7   0 2883.57 484.089  12
  -7   7   0 2632.66 425.767   8
  -8  -7   0 7177.50 606.155  14
  -8   7   0 7192.76 616.892   8
   8   7   0 5700.25 507.563  17
  -8  -7   0 6092.10 638.107  12
  -8  -7   0 7300.78 581.580  10
  -9  -7   0 614.440 152.123  10
  -9   7   0 340.031 137.605   8
  -9  -7   0 347.762 149.990  12
   0  -8   0 196374. 3827.93   1
   0   8   0 194739. 3765.64  21
   1   8   0 16706.6 1131.13  21
   1  -8   0 16260.6 1097.11   1
  -1   8   0 15580.1 1140.92  21
  -1  -8   0 16181.7 1252.00   1
  -1   8   0 14835.3 1199.77   4
  -2   8   0 3580.90 589.264  21
  -2  -8   0 4155.96 784.624   1
   2  -8   0 3463.06 499.401   1
   2   8   0 4525.94 658.812  21
  -2   8   0 4244.82 823.032   4
   2   8   0 3389.15 541.158  18
  -3  -8   0 145333. 4659.92   1
  -3   8   0 144255. 3952.16   3
  -3   8   0 155110. 5374.29   4
   3   8   0 151081. 3893.19  18
  -4   8   0 2180.60 744.597   4
  -4   8   0 1269.73 530.412   3
   4  -8   0 2003.29 501.927  18
  -4  -8   0 2232.00 578.800   1
   4   8   0 1169.47 449.108  18
   5   8   0 1176.79 456.712  18
  -5   8   0 2603.89 467.852  13
  -5  -8   0 1390.33 466.383   1
   5   8   0 2682.18 443.554  17
  -5  -8   0 3182.53 511.275  12
  -5   8   0 3059.48 505.930   9
  -5   8   0 2508.73 414.798   8
  -6   8   0 5232.99 635.242  16
  -6   8   0 5216.43 675.680   9
  -6  -8   0 6295.73 605.659  14
  -6  -8   0 5532.46 512.026  10
  -6  -8   0 6446.63 705.673  12
   6   8   0 5314.01 583.066  17
  -6   8   0 5610.02 661.818  13
  -6   8   0 5600.92 600.793   8
  -7   8   0 93.4025 221.341   9
  -7  -8   0 69.3042 180.725  14
  -7  -8   0 345.464 279.372  12
  -7   8   0-33.9468 198.598   8
   7   8   0 309.212 200.119  17
  -7  -8   0 28.9911 100.495  10
  -7   8   0 296.387 232.503  13
  -8  -8   0 14066.7 902.063  12
  -8  -8   0 13981.1 812.796   5
  -8  -8   0 13877.1 786.954  14
   8   8   0 13166.7 742.538  17
  -8   8   0 14293.6 817.410   8
  -8  -8   0 13981.5 744.816  10
  -9  -8   0-222.009 136.030  12
  -9  -8   0 118.357 96.6821  10
   0  -9   0-69.9979 197.716   1
   0   9   0-256.980 204.691  21
   1  -9   0 76516.8 2596.13   1
  -1   9   0 73665.1 2634.18  21
   1   9   0 70227.4 2477.27  21
  -1  -9   0 73295.5 2797.23   1
  -1   9   0 79750.7 2863.45   4
   2   9   0 92859.5 3077.64  21
  -2  -9   0 92258.4 3628.73   1
  -2   9   0 90967.2 3124.00  21
  -2   9   0 93425.6 3844.58   4
   2  -9   0 96464.0 2743.94   1
  -3   9   0 54160.6 3377.10   4
   3   9   0 49710.3 2341.70  18
   3  -9   0 55894.6 2429.51  18
  -3  -9   0 46330.9 2801.77   1
   4   9   0 26147.0 1952.32  18
  -4  -9   0 27815.6 2182.33   1
  -4   9   0 26599.1 2061.14   3
  -4   9   0 29301.3 2638.60   4
  -5  -9   0 81297.4 2387.20  12
  -5  -9   0 81840.9 2129.67  14
   5   9   0 80822.7 2324.02  17
  -5   9   0 77224.3 2187.14   8
  -5   9   0 85595.9 2635.86   9
  -5   9   0 78189.4 2427.23  13
  -5   9   0 72796.7 1967.91  15
  -5   9   0 76858.6 2359.91  16
  -5   9   0 81370.9 2197.06  11
  -6   9   0 41228.1 1805.20  13
  -6   9   0 40789.2 1600.52   8
  -6  -9   0 43682.7 1418.23  10
  -6   9   0 39810.8 1702.28  16
  -6  -9   0 42788.1 1559.07  14
  -6   9   0 42258.7 1790.57   9
   6   9   0 39241.6 1583.39  17
  -6  -9   0 44208.4 1808.62  12
  -7  -9   0 22885.1 1083.45  14
  -7  -9   0 23901.1 1285.46  12
  -7   9   0 22100.4 1124.30   8
  -7   9   0 21348.5 1181.45  13
  -7  -9   0 22588.1 1001.82  10
   7   9   0 21617.7 1072.11  17
  -7   9   0 21480.2 1209.05   9
  -8  -9   0 33534.9 1194.13   5
  -8   9   0 30277.9 1124.98   9
  -8  -9   0 32968.3 1303.30  12
   8   9   0 31724.7 1102.61  17
  -8  -9   0 32703.7 1044.23  10
  -8   9   0 32921.4 1171.21   8
  -9   9   0 19825.9 679.265   8
  -9  -9   0 20159.7 771.229  12
   0 -10   0 68272.6 2712.77   1
   0  10   0 71169.1 2641.73  21
  -1  10   0 1618.56 501.845   4
  -1 -10   0 1629.69 467.733   1
   1  10   0 1474.61 431.365  21
  -1  10   0 1708.04 442.021  21
   1 -10   0 2027.33 468.720   1
  -2  10   0 2779.42 752.159   4
  -2 -10   0 1565.36 588.193   1
   2  10   0 2706.64 587.596  21
  -2  10   0 2456.86 568.780  21
  -3 -10   0 39718.0 2758.23   1
  -3  10   0 45160.3 3257.44   4
   3  10   0 39665.8 2346.25  21
   4  10   0 3547.67 540.093  17
  -4  10   0 3008.61 427.437   8
   4  10   0 3787.50 778.474  18
   4  10   0 3125.03 715.527  21
  -4  10   0 3451.98 521.749  13
  -4 -10   0 3655.19 823.956   1
  -4  10   0 3887.31 625.977   9
  -4  10   0 3269.38 516.516  16
  -5  10   0 3096.29 496.511  16
  -5  10   0 3103.09 556.612  13
  -5  10   0 3308.94 584.748   9
   5  10   0 3410.74 523.436  17
  -5  10   0 3002.89 487.614  11
  -5 -10   0 2928.18 438.735  14
  -5  10   0 2359.50 417.249   8
  -5 -10   0 3205.60 501.293  12
  -6  10   0 11700.4 971.102   9
  -6 -10   0 11349.2 805.063  14
  -6  10   0 11289.7 845.735   8
  -6  10   0 10993.4 902.644  16
  -6 -10   0 11812.7 737.820  10
   6  10   0 11856.0 885.941  17
  -6  10   0 12147.0 1009.27  13
  -6 -10   0 12124.0 943.213  12
  -7 -10   0-157.687 208.223  12
  -7 -10   0-12.0878 177.426  14
  -7  10   0-3.30774 197.031  13
   7  10   0-279.092 209.976  17
  -7 -10   0 114.516 113.463  10
  -7  10   0 211.669 236.884   9
  -7  10   0 103.630 161.758   8
  -8 -10   0 6308.26 417.876  10
  -8  10   0 5582.85 465.552   9
  -8  10   0 6512.64 514.133   8
  -8 -10   0 6673.54 506.277   5
   8  10   0 6631.57 491.422  17
  -8 -10   0 6863.32 587.436  12
  -8  10   0 7104.34 534.565  13
  -9  10   0 1758.27 196.475   8
  -9 -10   0 1657.55 209.071  12
   0 -11   0 235.558 220.440   1
   0  11   0 367.600 231.175  21
   1 -11   0 3365.05 651.282   1
   1  11   0 3340.84 648.149  21
  -1  11   0 3638.89 694.155   4
  -1  11   0 3121.81 614.152  21
  -1 -11   0 2602.09 643.828   1
  -2  11   0 11720.0 1297.60  21
  -2 -11   0 12851.6 1534.99   1
  -2  11   0 12480.1 1540.60   4
   2  11   0 11089.1 1189.84  21
  -3 -11   0-86.1517 291.682   1
   3  11   0 765.216 363.259  21
  -3  11   0-636.859 571.770   4
  -4  11   0 1051.96 408.550   9
  -4  11   0 1193.69 349.478   6
  -4 -11   0 960.057 275.217  12
  -4  11   0 585.302 297.754  16
  -4  11   0 241.871 196.416   8
  -4  11   0 848.955 318.336  13
  -4  11   0 636.715 314.396  11
   4  11   0 771.145 316.188  17
  -5  11   0 12310.0 1005.23  16
  -5  11   0 13294.6 973.555  11
  -5  11   0 12230.9 888.195   8
  -5 -11   0 13015.1 945.463  12
  -5  11   0 13513.4 1100.79  13
  -5  11   0 13556.3 1117.14   9
   5  11   0 13132.5 1000.18  17
  -6  11   0 1594.03 358.654  11
  -6  11   0 1930.44 376.130   8
  -6  11   0 1946.09 416.274  16
  -6 -11   0 1919.66 383.782  12
  -6 -11   0 2337.36 352.734  14
   6  11   0 1776.45 390.978  17
  -6  11   0 2412.05 480.125   9
  -6  11   0 1843.84 461.306  13
  -7  11   0 176.776 196.543  13
   7  11   0 87.8265 171.351  17
  -7 -11   0-48.0791 200.579  12
  -7  11   0-67.6393 165.934   9
   8  11   0 6959.16 459.252  17
  -8 -11   0 7278.62 470.439   5
  -8  11   0 6782.98 468.600   9
  -8 -11   0 8212.91 583.760  12
  -8  11   0 8235.46 534.831   8
  -8  11   0 7357.78 512.450  13
   0 -12   0 45017.8 2596.12   1
   0  12   0 48210.5 2539.46  21
   1 -12   0 17111.5 1567.50   1
  -1 -12   0 15771.5 1624.57   1
   1  12   0 16853.7 1491.52  21
  -1  12   0 14836.7 1441.31  21
   2  12   0 8249.01 1114.59  21
  -2  12   0 9464.33 1207.21  21
  -2  12   0 8027.90 1294.06   4
  -2 -12   0 8035.19 1335.26   1
  -3  12   0 30910.1 1653.12  11
  -3  12   0 29807.0 1564.84  16
  -3  12   0 26238.8 1149.94   8
  -3  12   0 29580.3 1588.03   9
  -3  12   0 28349.7 1540.20  13
   3  12   0 26796.9 1339.30  17
  -3  12   0 27444.6 1530.17   6
  -4  12   0 6481.76 842.846   9
  -4  12   0 4967.16 674.689  11
  -4  12   0 6412.63 760.893   6
  -4  12   0 5630.61 718.401  13
  -4  12   0 5337.55 680.990  16
  -4 -12   0 4609.75 547.479  12
  -4  12   0 4613.83 542.424   8
   4  12   0 5658.79 678.567  17
  -5 -12   0 86.5676 175.058  12
  -5  12   0 367.042 313.781   9
  -5  12   0 413.708 363.151  13
  -5  12   0 411.438 300.351  16
  -5  12   0-43.8103 230.327   8
   5  12   0 198.161 289.348  17
  -5  12   0-108.768 201.714  11
  -6  12   0 4989.80 692.821  13
  -6  12   0 5160.70 629.336  16
  -6  12   0 4710.52 550.492   8
  -6 -12   0 4757.47 570.786  12
   6  12   0 5417.18 595.210  17
  -6  12   0 4256.05 590.476   9
  -6  12   0 5845.56 581.004  11
   7  12   0-86.0862 146.129  17
  -7 -12   0 22.4464 210.409  12
  -7  12   0-52.1787 212.565   9
  -7  12   0-279.417 223.725  13
  -8 -12   0 159.687 132.058  12
   8  12   0 417.294 127.888  17
   0 -13   0 360.260 304.668   1
   0  13   0-9.99164 170.289   6
  -1  13   0-67.7033 125.294  11
  -1  13   0 59.6253 215.318  16
  -1  13   0 219.587 121.345   9
  -1 -13   0-228.673 485.367   1
   1  13   0 148.500 116.848   6
  -2  13   0 11980.5 1126.46   6
  -2  13   0 10997.0 911.779   9
  -2  13   0 12281.5 1090.05  13
  -2  13   0 10458.4 697.859   8
  -2  13   0 11597.4 965.254  16
  -2  13   0 11163.7 983.237  11
   2  13   0 10799.7 821.581  17
  -3  13   0 9489.87 940.090   6
  -3  13   0 9561.34 931.236  16
  -3  13   0 9586.29 975.575  11
  -3  13   0 9604.09 923.426   9
  -3  13   0 8473.27 874.019  13
   3  13   0 8359.98 790.156  17
  -3  13   0 8861.02 698.795   8
  -4  13   0 257.178 288.461  16
  -4  13   0-65.3354 281.238   8
   4  13   0 95.2542 230.280  17
  -4  13   0 135.570 264.709   6
  -4  13   0 281.720 311.785  11
  -4  13   0 319.310 286.171  13
  -4 -13   0 370.699 170.845  12
  -4  13   0 224.931 297.555   9
  -5  13   0 5243.93 585.493   8
  -5  13   0 5837.38 707.550  16
  -5  13   0 6154.04 673.126  11
   5  13   0 6606.59 704.568  17
  -5  13   0 5827.00 750.274   9
  -5  13   0 6120.58 742.422  13
  -5 -13   0 6312.22 634.390  12
   6  13   0 12308.5 835.645  17
  -6  13   0 10701.7 836.834  16
  -6 -13   0 11270.7 805.384  12
  -6  13   0 10858.7 759.244   8
  -6  13   0 11321.2 789.559  11
  -6  13   0 12004.5 964.047  13
  -6  13   0 10611.7 853.658   9
  -7  13   0 113.671 164.328  13
  -7 -13   0-177.561 189.726  12
   7  13   0 102.256 159.665  17
  -7  13   0 37.7204 169.252   9
   8  13   0-59.8829 70.8361  17
  -8  13   0 234.517 109.222   8
  -8 -13   0 282.163 107.112  12
   0  14   0 44051.1 1711.03  16
   0  14   0 48083.2 2364.81   6
   0  14   0 43878.9 1735.01  11
   1  14   0 3218.80 461.253  11
   1  14   0 3707.15 498.429  17
  -1  14   0 3979.59 561.879  11
   1  14   0 3950.47 632.041   6
  -1  14   0 4122.16 740.660   6
  -1  14   0 3687.51 539.577  16
   1  14   0 4378.94 572.073  16
  -2  14   0 11165.9 1012.77  11
   2  14   0 10028.9 867.104   6
  -2  14   0 10648.4 1031.27  13
  -2  14   0 11081.9 733.460   8
  -2  14   0 10424.8 942.704  16
  -2  14   0 11251.2 1121.58   6
  -2  14   0 10655.2 911.675   9
   2  14   0 9330.81 799.206  17
   3  14   0 14639.6 1023.42  17
  -3  14   0 14826.3 1191.80   6
  -3  14   0 15031.1 907.092   8
  -3  14   0 14677.5 1152.14   9
  -3  14   0 16194.5 1227.11  16
  -3  14   0 15684.3 1244.50  11
  -3  14   0 14289.4 1141.37  13
  -4  14   0 4969.18 681.453  13
   4  14   0 5497.80 664.216  17
  -4  14   0 5833.80 747.362  11
  -4  14   0 5228.38 684.189   6
  -4 -14   0 4938.05 550.326  12
  -4  14   0 5131.97 575.424   8
  -4  14   0 6012.06 750.017   9
  -4  14   0 5388.33 732.842  16
  -5  14   0 31485.7 1423.34  11
  -5  14   0 32351.1 1590.28   9
   5  14   0 30229.2 1390.55  17
  -5  14   0 34174.9 1632.56  13
  -5 -14   0 30527.9 1311.22  12
  -5  14   0 29789.6 1524.48  16
  -5  14   0 31527.2 1326.75   8
  -6  14   0 2971.72 380.083  11
  -6  14   0 3591.34 524.976  13
  -6  14   0 2154.14 352.413   8
   6  14   0 2919.06 414.489  17
  -6 -14   0 2866.79 399.050  12
  -6  14   0 2469.86 406.543   9
  -6  14   0 2767.21 439.185  16
   7  14   0 8650.20 515.056  17
  -7  14   0 10263.2 653.568  13
  -7 -14   0 9003.19 557.283  12
  -7 -14   0 9461.64 568.921   5
  -7  14   0 10120.9 556.987   8
   0  15   0-180.936 328.190   6
   0  15   0 135.751 173.185  16
   0  15   0-81.8793 172.373  11
   1  15   0 2144.10 411.276  17
  -1  15   0 2060.52 444.272  16
   1  15   0 2562.92 531.913   6
   1  15   0 2205.78 455.964  16
   1  15   0 2109.73 409.916  11
  -1  15   0 2823.11 477.895  11
  -1  15   0 2425.24 591.362   6
   2  15   0 6525.81 678.846  17
  -2  15   0 8001.88 969.450   6
   2  15   0 7260.72 761.944   6
  -2  15   0 7656.16 839.841  11
  -2  15   0 7254.90 827.688  13
  -2  15   0 7150.65 797.623  16
  -3  15   0 4984.78 539.870   8
  -3  15   0 4967.39 728.061  11
  -3  15   0 4088.35 646.315  16
  -3  15   0 4020.13 606.342  13
   3  15   0 4169.88 575.301  17
  -3  15   0 3568.16 617.079   6
  -3  15   0 4018.66 620.094   9
  -4  15   0-22.7974 218.081   6
   4  15   0-66.0127 243.518  17
  -4  15   0 184.917 227.458  11
  -4  15   0 557.926 282.927   8
  -4  15   0 121.111 254.207  16
  -4  15   0 304.995 296.876   9
  -4  15   0 21.1914 309.078  13
   5  15   0 1645.87 354.471  17
  -5 -15   0 1488.89 278.066  12
  -5  15   0 1727.39 441.071  16
  -5  15   0 2092.23 364.974   8
  -5  15   0 1796.18 415.542   9
  -5  15   0 1703.24 413.154  13
  -5  15   0 1296.77 308.144  11
  -6  15   0 700.318 258.477   8
   6  15   0 387.369 181.369  17
  -6  15   0 419.069 156.014  11
  -6  15   0 502.008 250.701  13
  -6 -15   0 396.155 176.608  12
  -6  15   0 280.551 201.071  16
  -7  15   0 130.067 129.486  13
  -7 -15   0 65.5822 80.7474  12
   7  15   0 342.385 120.662  17
  -7 -15   0 376.393 119.617   5
   0  16   0 12478.3 975.706  16
   0  16   0 14463.3 1275.21   6
   0  16   0 12790.5 954.165  11
  -1  16   0 17983.6 1479.69   6
   1  16   0 17524.1 1153.29  16
   1  16   0 16902.4 1224.55   6
  -1  16   0 17550.6 1184.42  11
  -1  16   0 16486.5 1129.48  16
   1  16   0 17365.8 1079.77  11
   1  16   0 17062.9 1075.81  17
  -2  16   0 5323.19 727.530  11
  -2  16   0 5404.37 789.502   6
   2  16   0 4968.22 592.404  17
  -2  16   0 5794.09 710.386  13
   2  16   0 5657.06 662.173   6
  -2  16   0 5433.48 701.038  16
  -3  16   0 4974.22 647.960  13
   3  16   0 4614.21 601.285  17
  -3  16   0 4834.97 679.438   6
  -3  16   0 6056.81 576.721   8
  -3  16   0 4011.41 627.831  16
  -3  16   0 4350.13 674.729  11
  -4  16   0 2789.11 528.587  11
   4  16   0 2889.13 451.757  17
  -4  16   0 3250.46 589.565  16
  -4  16   0 3819.23 473.375   8
  -4  16   0 2784.19 482.631  13
  -4  16   0 3301.72 520.019   6
   5  16   0-38.0695 169.527  17
  -5  16   0 139.863 183.070  11
  -5  16   0 20.7142 231.603  13
  -5  16   0 13.3339 213.972  16
  -5  16   0 738.214 308.785   8
  -6  16   0 16173.4 648.841   8
  -6  16   0 15450.8 816.377  13
  -6  16   0 13642.8 635.182  11
   6  16   0 15148.6 683.756  17
  -6  16   0 14560.2 756.993  16
   0  17   0-31.2518 280.857   6
   0  17   0-54.0458 229.234  16
   0  17   0-100.134 203.333  11
  -1  17   0 7708.65 788.245  11
   1  17   0 6832.48 660.839  11
  -1  17   0 7551.25 959.614   6
  -1  17   0 6458.33 725.287  16
   1  17   0 7491.98 746.744  16
   1  17   0 7530.56 812.793   6
   2  17   0 5590.33 608.029  17
  -2  17   0 6321.76 681.171  13
  -2  17   0 6890.10 782.802  11
   2  17   0 6944.07 689.552   6
  -2  17   0 7008.39 748.274  16
  -2  17   0 7636.70 876.813   6
  -3  17   0 4054.41 625.463  11
  -3  17   0 4060.97 597.518  16
   3  17   0 3539.43 472.224  17
  -3  17   0 3788.79 576.977   6
  -3  17   0 4123.68 552.086  13
  -4  17   0 375.788 215.953   8
  -4  17   0 156.271 221.546  11
  -4  17   0-177.355 207.552  13
   4  17   0-57.8808 125.624  17
  -4  17   0 118.729 179.411   6
  -4  17   0 104.002 269.972  16
   5  17   0 4593.16 417.343  17
  -5  17   0 4842.09 505.494  16
  -5  17   0 4533.09 479.701  13
  -5  17   0 4654.91 449.811  11
  -5  17   0 5144.10 392.980   8
  -6  17   0 1429.80 229.670  13
   6  17   0 1494.82 187.071  17
   0  18   0 31479.3 1472.15  16
   0  18   0 34030.6 1453.40  11
  -1  18   0 597.653 289.615  11
   1  18   0 286.851 222.490  11
   1  18   0 335.548 275.461   6
  -1  18   0 390.702 264.538  16
  -1  18   0 801.547 433.063   6
  -2  18   0 5978.50 690.112  11
  -2  18   0 6095.37 748.437   6
  -2  18   0 5743.96 636.667  16
   2  18   0 5608.54 537.881  17
   3  18   0 54931.5 1530.90  17
  -3  18   0 55197.7 1884.87  11
  -3  18   0 56251.7 1875.22   6
  -3  18   0 55474.7 1815.94  16
  -3  18   0 50041.9 1624.41  13
  -4  18   0 1230.52 303.909  16
  -4  18   0 1063.43 280.967  11
  -4  18   0 1414.05 290.552   6
   4  18   0 1345.50 242.204  17
  -4  18   0 1442.56 283.106  13
  -5  18   0 3735.09 362.583  13
   5  18   0 3619.18 293.709  17
  -5  18   0 3676.84 372.461  16
  -5  18   0 3717.95 347.917  11
   0  19   0 52.2793 162.615  11
   0  19   0-169.722 194.800  16
   0  19   0-403.265 287.075   6
  -1  19   0 2316.94 396.433  16
  -1  19   0 1823.45 374.333  11
   1  19   0 2729.06 425.100   6
  -1  19   0 2928.11 541.495   6
  -2  19   0 539.372 278.175  11
  -2  19   0 499.741 226.361  16
  -2  19   0 339.886 265.576   6
  -3  19   0 1163.12 288.173  16
   3  19   0 1223.27 208.351  17
  -3  19   0 1249.68 292.992   6
  -3  19   0 1410.90 326.369  11
   4  19   0 4225.38 300.663  17
  -4  19   0 3949.95 341.619  13
  -4  19   0 4321.93 379.168   6
  -4  19   0 4493.02 416.824  16
  -4  19   0 4814.22 428.925  11
   0  20   0 9401.90 722.460   6
   0  20   0 9229.03 597.091  11
  -1  20   0 4915.44 480.028  11
  -1  20   0 4972.89 568.938   6
   1  20   0 3834.82 416.804   6
  -1  20   0 3919.62 423.947  16
  -2  20   0 3005.12 386.991  11
  -2  20   0 1678.87 279.385  16
  -2  20   0 2652.38 379.606   6
  -3  20   0 17592.8 809.977  11
  -3  20   0 17970.9 785.615   6
   0  21   0-145.321 147.271   6
  -1  21   0 1152.36 248.151   6
  -2  21   0 464.726 149.095   6
 -10   0   1 174.463 102.687  10
  -9   0   1 442.807 212.013  10
  -8   0   1-381.529 243.354  12
  -8   0   1-167.144 180.972  10
  -8   0   1-369.675 194.737  14
  -7   0   1 104.220 163.618  10
  -7   0   1 641.587 266.353  12
  -7   0   1 382.099 154.255  14
  -6   0   1 40.3921 219.882   3
   6   0  -1 767.728 402.505  18
  -6   0   1 575.548 290.959   4
   5   0  -1-308.717 292.388  18
  -5   0   1 280.936 240.856   3
  -5   0   1 240.786 172.670   4
   4   0  -1-21.8988 202.507  18
  -4   0   1 35.6047 266.607   3
  -3   0   1-147.838 206.179   3
   3   0  -1-23.3232 112.797  19
  -3   0   1 18.6122 222.329   2
   3   0  -1 2.29271 246.276  18
  -2   0   1-26.5989 152.792   2
   2   0  -1-5.89597 190.614  18
  -2   0   1-8.69675 113.079   3
   2   0  -1 4.96299 149.865  19
   1   0  -1 50.5385 191.793   1
   1   0  -1-15.2199 152.817  19
  -1   0   1-38.1029 128.736   2
  -1   0   1 28.8474 112.391  20
   0   0  -1-65.3834 148.011   1
   0   0  -1 153.369 195.911  19
   0   0   1 23.5435 115.643   2
   0   0   1 0.13691 41.5052  21
   0   0   1 1.89483 138.246  20
  -1   0  -1 5.02627 209.121  19
   1   0   1-7.98719 141.665  18
  -1   0  -1-29.3726 135.458   1
   1   0   1 40.1627 212.691  20
  -2   0  -1-61.7608 127.913   1
  -2   0  -1 194.996 201.287   4
  -2   0  -1 127.522 181.540  19
   2   0   1 70.2093 303.166  20
   2   0   1-25.7620 214.131  18
   3   0   1-42.2565 309.350  20
  -3   0  -1 464.201 290.497   4
  -3   0  -1 38.9565 46.2488   1
  -3   0  -1-21.7693 100.409  19
  -3   0  -1 8.76385 263.929   3
   3   0   1 6.87161 291.345  18
   4   0   1 180.099 268.239  20
  -4   0  -1-85.8539 350.370   3
   4   0   1-551.320 389.770  18
  -4   0  -1 217.580 221.139   4
   5   0   1-167.915 314.145  18
  -5   0  -1-35.1094 352.738   3
   5   0   1 615.366 339.364  20
  -6   0  -1 23.7326 57.7152   5
  -6   0  -1-0.86827 135.473  10
  -6   0  -1 146.998 157.878  14
  -7   0  -1-123.517 155.010  14
  -7   0  -1 5.25359 169.767  10
  -7   0  -1-183.976 163.868   5
  -7   0  -1 235.546 190.117   8
  -8   0  -1-3.01459 156.309  14
  -8   0  -1-45.6472 143.772   8
  -8   0  -1-17.9709 167.389  10
  -9   0  -1-95.6125 87.2586  14
  -9   0  -1 99.8534 98.4763  10
  -9   0  -1-27.8045 104.761   8
 -10   1   1 6867.92 404.836  10
 -10  -1   1 7235.60 448.361  10
  -9   1   1 9639.34 656.191  10
  -9  -1   1 10496.2 711.476  10
  -8  -1   1 1381.49 308.931  14
  -8   1   1 1257.06 273.523  14
  -8   1   1 1633.21 332.079  10
  -8   1   1 1473.10 281.192   8
  -8  -1   1 1639.26 329.251  10
  -8  -1   1 1325.91 354.128  12
  -7   1   1 35395.3 1345.63  10
  -7   1   1 34765.2 1299.82  14
  -7  -1   1 35581.9 1362.81  10
  -7  -1   1 35624.4 1575.56  12
  -7  -1   1 34636.8 1328.43  14
  -7   1   1 34032.5 1514.06  12
  -7   1   1 34550.0 1341.16   8
   6  -1  -1 1337.62 517.503  18
   6   1  -1 2272.84 573.581  18
  -6   1   1 1348.38 459.737   3
  -6   1   1 2477.90 596.119   4
  -5   1   1-22.1399 214.384   3
  -5   1   1 415.289 239.153   4
   5  -1  -1 19.3405 267.979  18
  -5  -1   1-636.724 336.002   3
   5   1  -1 223.126 245.680  18
  -5  -1   1-130.179 158.462   4
  -4   1   1 812.112 379.211   4
  -4   1   1 688.805 322.186   3
  -4  -1   1 588.752 405.436   2
   4  -1  -1 856.140 340.479  18
   4   1  -1 611.262 299.848  18
  -4  -1   1 888.514 330.235   3
  -3  -1   1 19390.8 1210.35   2
   3  -1  -1 15505.7 697.114  19
  -3   1   1 16654.6 919.805   3
   3   1  -1 17368.3 985.157  19
   3   1  -1 17241.7 1084.85  18
  -3   1   1 19069.3 1134.20   2
  -3  -1   1 17644.1 952.806   3
   3  -1  -1 18736.8 1142.62  18
   2   1  -1 7588.01 598.078  18
  -2   1   1 7410.24 514.697   2
  -2   1   1 7914.64 457.012   3
  -2  -1   1 7777.41 464.548   3
   2   1  -1 7693.11 566.880  19
   2  -1  -1 7181.74 460.049  19
  -2  -1   1 8347.73 592.481   2
   1  -1  -1 9745.33 652.000   1
  -1  -1   1 9461.27 548.660   2
  -1   1   1 9632.25 512.408   2
   1  -1  -1 10471.1 371.286   3
   1  -1  -1 10207.5 573.514  19
  -1   1   1 10285.3 536.759  20
   1   1  -1 10500.6 613.406  19
  -1  -1   1 9711.20 438.411  20
   0  -1   1 7867.13 481.632   2
   0   1  -1 8888.07 592.088  19
   0   1  -1 9293.88 377.052  21
   0  -1   1 9740.64 387.062  21
   0  -1  -1 8457.41 556.377   1
   0   1  -1 8814.43 323.303  18
   0  -1   1 8680.62 495.016  20
   0   1  -1 8652.47 443.545   3
   0   1   1 9622.28 551.733  20
   1  -1   1 4203.61 358.287  18
  -1   1  -1 3692.70 421.880   4
  -1   1  -1 4291.79 534.807   3
   1   1   1 5100.18 457.040  18
  -1   1  -1 4535.62 451.506  19
   1  -1   1 4231.09 274.394   1
  -1   1  -1 3684.20 319.755   1
  -1  -1  -1 3667.68 408.968   1
   1   1   1 4533.07 473.089  20
   1  -1   1 4328.67 496.096  20
  -2   1  -1 252.971 173.119  19
   2  -1   1 232.248 333.942  20
  -2   1  -1 159.778 57.0021   1
  -2   1  -1 317.026 325.987   3
   2   1   1 292.189 294.147  20
   2   1   1 583.866 301.221  18
   2  -1   1-25.3267 236.897  18
  -2  -1  -1 222.178 181.287   1
  -2   1  -1 220.548 300.691   4
  -3   1  -1 36699.4 1952.28   3
  -3  -1  -1 35317.3 1415.76   1
   3   1   1 34182.2 1870.36  18
  -3   1  -1 34933.7 1118.43  19
   3  -1   1 30623.2 1741.98  18
  -3  -1  -1 30947.0 1556.28   4
   3  -1   1 32112.6 1934.69  20
   3   1   1 30224.6 1731.24  20
   4   1   1 13866.6 1390.83  18
   4   1   1 12277.7 1273.56  20
  -4  -1  -1 11980.9 1346.24   3
   4  -1   1 12886.5 1330.37  20
  -4   1  -1 14393.9 1448.21   4
  -4   1  -1 12344.7 1309.99   3
  -4  -1  -1 12771.4 1129.59   4
   4  -1   1 14230.6 1318.37  18
   5  -1   1 781.954 347.951  20
  -5  -1  -1-144.710 284.291   3
   5   1   1 682.005 376.149  18
   5  -1   1 90.9104 122.216  18
  -5   1  -1 529.674 436.081   3
   5   1   1 258.260 308.094  20
  -6  -1  -1 412.818 194.750  14
  -6   1  -1 531.442 215.490   5
  -6  -1  -1 236.443 151.258   5
  -6   1  -1-143.789 151.036  10
  -6   1  -1 125.633 149.540  14
  -6  -1  -1 435.985 184.883  10
  -7  -1  -1 407.595 232.071   5
  -7  -1  -1 878.489 238.924  14
  -7   1  -1 898.485 252.223  10
  -7   1  -1 597.021 236.969   8
  -7   1  -1 466.139 214.887   5
  -7  -1  -1 614.500 239.069   8
  -7   1  -1 665.650 214.915  14
  -7  -1  -1 832.051 261.523  10
  -8  -1  -1 1703.56 310.641  14
  -8  -1  -1 1453.30 297.176   8
  -8  -1  -1 1153.70 261.130   5
  -8   1  -1 1694.12 332.879   8
  -8   1  -1 1523.42 281.955  10
  -8   1  -1 1664.67 290.174  14
  -8  -1  -1 1340.63 276.792  10
  -9   1  -1 556.718 138.625  14
  -9  -1  -1 530.754 173.309   8
  -9   1  -1 548.326 162.176   8
  -9  -1  -1 516.388 153.894  10
  -9  -1  -1 364.732 139.091  14
  -9   1  -1 295.661 113.658  10
 -10  -2   1 1136.18 200.369  10
 -10   2   1 1219.13 171.693  10
  -9  -2   1 19597.3 964.447  10
  -9   2   1 16626.1 801.337   8
  -9   2   1 17783.2 850.242  10
  -8  -2   1 9399.40 859.574  12
  -8   2   1 9589.60 700.664  10
  -8   2   1 9401.34 706.396   8
  -8  -2   1 9024.12 705.716  14
  -8  -2   1 9617.02 738.550  10
   7   2  -1 3099.57 422.197  17
  -7  -2   1 2828.79 416.602  10
  -7   2   1 3016.57 413.403   8
  -7  -2   1 2811.71 507.248  12
  -7   2   1 2603.84 385.718  10
  -7  -2   1 2798.25 396.878  14
   6  -2  -1 47558.6 2775.48  18
   6   2  -1 39666.4 2420.67  18
  -6   2   1 40676.5 2512.93   4
  -6   2   1 42744.8 2441.23   3
  -5   2   1 74286.1 3261.57   4
   5  -2  -1 78810.4 3224.99  18
   5   2  -1 69250.2 2786.89  18
  -5   2   1 68788.4 2788.37   3
  -5  -2   1 68878.0 2714.76   4
  -5  -2   1 71051.0 2698.13   3
   4   2  -1 22.5981 198.622  18
  -4   2   1 154.372 305.454   4
   4  -2  -1-79.0426 241.148  18
  -4   2   1 628.111 287.058   3
  -4  -2   1-11.9560 178.404   3
  -3   2   1 7554.84 723.391   2
  -3  -2   1 7425.97 825.470   2
  -3   2   1 6856.13 623.087   3
   3  -2  -1 7999.85 774.128  18
   3   2  -1 6589.32 733.707  19
   3  -2  -1 6659.35 410.668  19
   3   2  -1 6506.28 689.039  18
   2   2  -1 47384.3 1505.62  18
  -2   2   1 47988.6 1231.25   2
  -2  -2   1 48351.6 1437.99   2
  -2   2   1 50138.9 1226.90   3
   2  -2  -1 45365.4 1570.06   1
   2  -2  -1 45883.1 1159.95  19
   2   2  -1 48421.8 1571.11  19
  -1  -2   1 13241.9 381.418   3
  -1   2   1 13215.8 592.249   2
   1  -2  -1 13129.8 775.184   1
  -1  -2   1 13029.1 449.653  20
  -1   2   1 13307.6 668.819  20
   1   2  -1 14093.2 782.302  19
   1  -2  -1 13826.5 472.820  21
   1   2  -1 13022.8 461.913  20
  -1  -2   1 13072.8 678.402   2
   1   2  -1 13033.9 562.780  18
   0   2  -1 186.854 213.601  19
   0   2  -1 187.426 105.851   3
   0   2   1 203.172 67.0327  21
   0  -2  -1 242.763 219.481   1
   0  -2   1 168.260 136.868   2
   0   2   1 173.995 181.391  20
   0   2  -1 106.418 113.931  21
   0  -2   1-0.48417 108.688  20
   1   2   1 6682.15 564.846  20
   1  -2   1 7227.09 679.486  20
  -1  -2  -1 7688.94 643.178   1
  -1   2  -1 6804.44 622.724   4
   1   2   1 7404.85 414.342   4
  -1   2  -1 7411.85 536.923  21
   1  -2   1 6604.30 334.822   1
   1  -2   1 6331.78 418.616  18
   1   2   1 7118.85 584.296  18
  -1   2  -1 6653.43 550.035  19
  -1   2  -1 7006.11 626.113   3
   2   2   1 35795.3 1500.12  20
   2  -2   1 34363.8 1899.88  20
   2  -2   1 33181.5 1463.78  18
  -2   2  -1 37111.8 1741.23   3
   2   2   1 37782.1 1545.37  18
  -2   2  -1 36544.5 1170.33  19
   3   2   1 26407.0 1672.15  18
   3  -2   1 27605.3 1894.47  20
   3  -2   1 25529.2 1553.95  18
   3   2   1 25175.7 1540.95  20
  -3  -2  -1 24353.3 1383.48   1
  -3   2  -1 25773.2 1642.23   3
   4  -2   1 18416.7 1430.68  18
   4   2   1 14948.2 1368.74  20
  -4  -2  -1 16023.5 1526.64   3
  -4   2  -1 16946.0 1674.30   4
   4  -2   1 17230.6 1524.37  20
  -4   2  -1 17156.9 1502.92   3
   4   2   1 15349.4 1507.83  18
   5  -2   1 364.393 239.729  18
  -5  -2  -1-467.700 505.116   3
   5   2   1 177.654 331.607  20
  -5   2  -1-842.831 379.846   4
   5   2   1 377.787 376.401  18
   5  -2   1 905.334 433.504  20
  -5   2  -1 73.9707 412.898   3
  -6  -2  -1 14605.2 861.920  14
  -6  -2  -1 12899.2 924.148   5
  -6   2  -1 14385.3 819.487  14
  -6   2  -1 14001.6 922.660   8
  -6   2  -1 13949.3 816.140  10
  -6  -2  -1 12888.0 868.893  12
  -6   2  -1 13339.8 927.293   5
  -6  -2  -1 14026.3 869.157  10
  -7   2  -1 16373.1 1011.65   8
  -7  -2  -1 16227.6 1032.40   5
  -7   2  -1 16454.9 1005.03   5
  -7  -2  -1 16501.9 942.569  10
  -7  -2  -1 17464.9 953.724  14
  -7  -2  -1 15465.7 960.509  12
  -7   2  -1 16293.9 889.310  10
  -7   2  -1 17136.1 895.498  14
  -8  -2  -1 2420.79 356.306  14
  -8   2  -1 2560.21 336.729  14
  -8  -2  -1 2227.57 382.037   5
  -8   2  -1 2138.31 357.862   8
  -8   2  -1 2492.03 336.226  10
  -8  -2  -1 2189.09 361.008   8
  -8  -2  -1 2413.88 375.476  10
  -9  -2  -1 28277.1 871.894   8
  -9   2  -1 28584.4 759.616  10
  -9   2  -1 29968.1 962.011   8
  -9  -2  -1 30660.2 930.763  14
 -10  -3   1 10019.5 522.548  10
  -9  -3   1 6596.26 636.924  12
  -9   3   1 6279.91 478.890  10
  -9   3   1 5619.99 482.170   8
  -9  -3   1 6599.97 575.938  10
  -8   3   1 1150.08 249.730  10
  -8  -3   1 2177.44 461.237  12
  -8   3   1 1253.82 279.858   8
  -8  -3   1 1182.69 291.302  14
  -8  -3   1 1350.24 320.097  10
  -7  -3   1 22971.7 1089.06  14
  -7  -3   1 23676.4 1334.82  12
   7   3  -1 22203.1 1108.49  17
  -7   3   1 23413.6 1137.53   8
  -7  -3   1 21808.9 1062.75  10
  -7   3   1 23705.7 1066.91  10
  -7   3   1 21890.3 1156.67   9
   6   3  -1 55923.4 2892.19  18
   6  -3  -1 60336.4 3163.13  18
  -6   3   1 55580.7 2861.49   3
  -6   3   1 57397.9 3084.71   4
   5  -3  -1 943.887 414.406  18
  -5  -3   1 518.229 292.338   3
   5   3  -1 659.000 339.324  18
  -5   3   1 1273.22 437.011   4
  -5   3   1 1102.00 417.617   3
  -4   3   1 27851.3 1589.55   3
  -4   3   1 28551.5 1946.69   4
   4   3  -1 27623.0 1579.15  18
   4  -3  -1 30818.9 1827.78  18
  -3   3   1 49594.3 1875.32   2
  -3   3   1 45035.1 1595.15   3
   3  -3  -1 51727.1 1883.41  18
   3   3  -1 44597.1 2054.66  19
   3  -3  -1 43628.4 977.022  19
  -3  -3   1 52232.3 2183.29   2
   3   3  -1 46036.8 1782.28  18
  -2   3   1 9993.29 612.782   3
   2  -3  -1 9610.26 571.546  19
   2  -3  -1 9417.73 748.468   1
   2   3  -1 10016.0 845.523  19
   2   3  -1 9701.39 656.756  18
  -2   3   1 9625.37 543.136   2
   2   3  -1 8655.88 328.404  20
  -2  -3   1 9389.44 687.214   2
  -1  -3   1 22234.6 890.740   2
  -1  -3   1 21801.5 502.367  20
   1   3  -1 22187.7 589.095  18
   1  -3  -1 24454.3 1105.33   1
  -1   3   1 22399.9 763.572   2
  -1   3   1 23512.0 950.529  20
   1   3  -1 23731.7 1143.78  19
  -1   3   1 22948.2 732.220  21
   0   3  -1 75918.3 1539.31  21
   0  -3  -1 72019.4 1813.80   1
   0   3  -1 73050.0 1393.41   3
   0   3   1 72902.6 1117.13  21
   0   3  -1 74959.2 1958.21  19
   0   3   1 70700.7 1642.26  20
   0  -3   1 72776.9 1452.59  20
   1   3   1 4110.30 261.725   4
   1   3   1 4472.51 481.238  20
   1  -3   1 4033.46 343.026  18
  -1   3  -1 3968.82 472.281  19
  -1   3  -1 4622.07 460.030  21
   1  -3   1 3509.18 284.567   1
  -1   3  -1 3998.19 485.235   3
  -1  -3  -1 4710.03 571.802   1
   1   3   1 4711.30 514.183  18
  -2   3  -1-44.2753 390.498   4
  -2  -3  -1-76.8805 267.068   1
   2  -3   1 111.607 197.345  18
   2   3   1 255.725 196.567  20
  -2   3  -1 191.914 302.454   3
  -2   3  -1 112.254 132.529  19
   2   3   1 57.4632 263.595  18
  -3   3  -1 51267.3 2340.41   3
   3  -3   1 52137.3 2128.53  18
   3   3   1 46854.4 2032.10  20
   3   3   1 50541.9 2273.43  18
  -3  -3  -1 51541.1 2252.14   1
   4   3   1 571.199 330.412  18
   4  -3   1 1104.27 366.603  18
  -4   3  -1 795.980 352.331   3
  -4   3  -1 1178.75 489.454   4
   4  -3   1 1514.83 521.096  20
   4   3   1 326.429 254.162  20
  -5  -3  -1 7446.38 1154.50   3
   5   3   1 7568.85 1125.85  18
  -5   3  -1 7125.66 1129.02   3
   5   3   1 5631.21 907.880  20
   5  -3   1 6954.61 1042.97  20
   5  -3   1 6445.09 870.680  18
  -5   3  -1 6616.93 1031.03   4
  -6   3  -1 19584.3 928.726  10
  -6  -3  -1 21191.5 1200.43   5
  -6  -3  -1 20504.4 1023.42  14
  -6   3  -1 20651.3 1122.80   8
  -6  -3  -1 19954.7 1106.56  12
  -6  -3  -1 21286.1 1086.60  10
  -6   3  -1 21316.9 1172.31   5
  -7  -3  -1 12874.7 894.568  12
  -7  -3  -1 11756.8 883.273   5
  -7   3  -1 12864.1 763.599  10
  -7  -3  -1 12740.8 815.560  14
  -7   3  -1 13251.5 895.055   5
  -7  -3  -1 12616.3 835.310  10
  -7   3  -1 13148.7 919.319   8
  -8  -3  -1 113.128 161.743  12
  -8  -3  -1 219.191 186.158  10
  -8  -3  -1 158.633 168.839  14
  -8  -3  -1 247.562 158.712   8
  -8  -3  -1 195.955 176.722   5
  -8   3  -1 69.1375 93.3279  10
  -8   3  -1 41.2091 176.533   8
  -9  -3  -1 1216.14 206.600  14
  -9   3  -1 1364.55 227.322   8
  -9  -3  -1 1120.50 198.086  10
  -9  -3  -1 1391.71 197.040   8
 -10  -4   1 18139.4 666.894  10
  -9  -4   1 14864.1 823.366  10
  -9   4   1 13750.5 742.724   8
  -9  -4   1 13737.1 912.368  12
  -9   4   1 14047.8 663.606  10
  -8   4   1 1839.21 310.556  10
  -8  -4   1 1631.78 437.482  12
  -8   4   1 1736.64 324.280   8
  -8  -4   1 1258.20 302.325  14
  -8  -4   1 1826.63 345.329  10
   8   4  -1 1481.03 311.342  17
  -8   4   1 1601.61 355.438   9
  -7  -4   1 99589.4 2242.31  10
  -7   4   1 97796.0 2354.17   8
  -7   4   1 100418. 2509.68   9
  -7   4   1 101121. 2141.81  10
  -7  -4   1 99661.3 2290.01  14
   7   4  -1 104281. 2412.03  17
   6   4  -1 54762.7 2933.56  18
  -6   4   1 56629.4 2956.90   3
  -6   4   1 60925.5 3283.81   4
   6  -4  -1 57938.8 3138.41  18
  -5   4   1 106.207 228.691   4
   5   4  -1 116.959 198.128  18
  -5  -4   1-558.727 377.954   3
  -5   4   1 222.350 282.999   3
   5  -4  -1-369.726 257.073  18
   4   4  -1 101702. 3151.19  18
  -4   4   1 103676. 3703.32   4
   4  -4  -1 108448. 3386.84  18
  -4   4   1 96431.9 3006.43   3
   3   4  -1 269741. 5717.98  19
  -3   4   1 299599. 4235.69   3
   3  -4  -1 292346. 2682.04  19
  -3  -4   1 344346. 5977.27   2
  -3   4   1 275426. 5826.54   4
   3  -4  -1 297648. 4396.47   1
   3   4  -1 291448. 2280.77  20
   3   4  -1 298812. 4568.00  18
   2   4  -1 51804.4 2164.34  19
  -2   4   1 53430.8 1525.96   3
   2   4  -1 50009.4 1436.71  18
  -2  -4   1 51070.3 1665.31   2
   2  -4  -1 49667.5 1737.26   1
  -2   4   1 51632.1 1186.40   2
   1   4  -1 71488.5 1094.29  18
  -1   4   1 70919.2 1316.73   2
  -1   4   1 73846.8 1825.47  20
  -1   4   1 74922.1 1518.91  21
   1  -4  -1 73386.2 2030.15   1
  -1  -4   1 66091.5 1566.23  18
  -1  -4   1 67867.1 1590.39   2
   1   4  -1 79712.8 2444.82  19
   1   4  -1 79170.1 1840.04  21
   0   4   1 918080. 6096.18  20
   0   4  -1 914886. 5388.78   3
   0   4   1 887575. 4765.65  21
   0  -4   1 893205. 5300.74   2
   1   4   1 143396. 2810.52  18
   1  -4   1 130075. 2140.31   2
  -1  -4  -1 147685. 3336.62   1
   1   4   1 134142. 2547.03  20
  -1   4  -1 137945. 3146.07   4
  -1   4  -1 134569. 2869.28  19
  -1   4  -1 140748. 2600.37  21
  -1   4  -1 140529. 2685.33   3
  -2   4  -1 2685.40 733.479   4
  -2   4  -1 2254.16 504.442   3
  -2   4  -1 2175.57 365.558  19
   2  -4   1 2377.39 408.846  18
  -2  -4  -1 1984.83 603.005   1
   2   4   1 2371.42 471.567  18
   2   4   1 2537.38 420.031  20
   3   4   1 208428. 4658.11  18
   3  -4   1 206658. 4024.36  18
  -3  -4  -1 212320. 5017.19   1
  -3   4  -1 200581. 4745.41   3
   3   4   1 197308. 4050.52  20
  -4  -4  -1 101404. 3100.34   1
   4  -4   1 92944.8 2962.41  18
   4   4   1 88564.7 3606.48  18
  -4   4  -1 112596. 4771.23   4
  -4   4  -1 101869. 3820.72   3
   4  -4   1 99639.6 3676.29  20
   4   4   1 91774.9 3233.96  20
   5  -4   1 11246.3 1162.82  18
   5   4   1 12373.3 1494.79  18
  -5  -4  -1 11456.6 1472.41   3
   5  -4   1 9992.89 1287.46  20
  -5   4  -1 12775.3 1529.20   3
  -5   4  -1 11904.9 1460.63   4
  -6  -4  -1 30390.2 1235.76  14
  -6   4  -1 31213.9 1397.76   8
  -6  -4  -1 29985.9 1268.25  10
  -6  -4  -1 29011.5 1417.30   5
  -6  -4  -1 30154.9 1372.21  12
  -6   4  -1 30285.6 1381.68   5
  -7  -4  -1 17800.7 973.086  14
  -7  -4  -1 16073.8 1032.08   5
  -7   4  -1 17998.5 1074.26   8
  -7  -4  -1 16923.2 944.987  10
  -7  -4  -1 16471.8 1033.12  12
  -8   4  -1 28703.6 1203.60   8
  -8  -4  -1 28762.2 1135.72  14
  -8  -4  -1 25622.2 1146.30  12
  -8  -4  -1 24275.8 1019.59   8
  -8  -4  -1 24428.4 1111.55   5
  -8  -4  -1 28144.6 1116.05  10
  -9  -4  -1 56.9740 99.0154  10
  -9   4  -1-132.630 120.555   8
  -9  -4  -1 61.0789 108.480  14
 -10  -5   1 14821.0 570.274  10
  -9   5   1-158.862 138.387   8
  -9  -5   1 20.0308 168.611  10
   8   5  -1 33814.8 1319.76  17
  -8   5   1 32962.8 1427.57   9
  -8  -5   1 33108.5 1309.64  14
  -8  -5   1 33444.4 1287.07  10
  -8   5   1 33509.1 1324.72   8
  -8  -5   1 36015.7 1671.91  12
  -7   5   1 254.837 145.060   9
   7   5  -1-94.1422 170.170  17
  -7  -5   1 352.997 213.802  14
  -7  -5   1 36.3664 127.255  10
  -7   5   1 2.00991 121.631   8
  -7  -5   1 635.077 288.983  12
  -6  -5   1 861.531 280.961  12
  -6   5   1 730.783 401.114   4
  -6  -5   1 937.569 265.681  14
   6   5  -1 93.4531 375.667  18
  -6   5   1 887.199 529.821   3
   6  -5  -1 512.281 309.150  18
   5   5  -1 121647. 4086.90  18
  -5   5   1 120262. 4352.50   4
  -5  -5   1 112300. 3728.28   3
   5  -5  -1 120187. 4214.85  18
   4   5  -1 1973.79 483.003  18
   4  -5  -1 2002.34 503.041  18
  -4   5   1 1931.09 553.529   4
  -4   5   1 1745.60 484.759   3
  -3   5   1 68.7049 178.006   3
  -3   5   1 192.311 324.329   4
  -3  -5   1 395.203 331.509   2
   3   5  -1 131.718 338.356  19
   3   5  -1 258.447 211.646  18
   3  -5  -1-80.5856 146.619   1
   3  -5  -1 126.967 81.9308  19
  -2   5   1 264577. 2573.24   2
  -2  -5   1 260052. 4062.35   2
   2  -5  -1 251199. 4230.99   1
   2   5  -1 266392. 5721.66  19
  -2   5   1 255614. 5377.76   4
   2   5  -1 255391. 3279.97  18
  -1   5   1 90951.9 1903.99  21
   1   5  -1 86672.2 1303.21  18
  -1   5   1 90367.7 2065.23  20
  -1   5   1 89259.1 1383.63   2
  -1   5   1 88096.4 2865.55   4
  -1  -5   1 82578.4 1754.22   2
   1   5  -1 91091.8 2198.23  21
   1  -5  -1 90396.4 2446.35   1
   0   5  -1 210586. 3260.57  21
   0   5   1 211184. 3100.81  20
   0   5   1 196848. 2594.69  21
   0  -5   1 200306. 2636.02  20
   0   5   1 204278. 3310.20   4
   0   5  -1 218611. 4637.07  19
   0  -5   1 203780. 2533.78   2
   0  -5  -1 195353. 3551.46   1
   1   5   1 185851. 3061.45  20
  -1   5  -1 197697. 4197.18  19
   1  -5   1 199594. 2671.02  18
  -1   5  -1 184174. 3304.27  21
  -1   5  -1 178811. 3178.43   3
   1  -5   1 181363. 2459.48   2
   1  -5   1 186349. 2402.99   1
   1   5   1 201482. 3546.50  18
  -1   5  -1 177694. 3777.28   4
  -1  -5  -1 202643. 4231.55   1
   2  -5   1 189.520 142.560  18
  -2   5  -1-166.371 190.802  19
  -2   5  -1 181.206 239.872   3
   2   5   1 457.804 238.123  20
   2  -5   1-221.812 143.595   2
  -2  -5  -1 256.606 338.982   1
  -2   5  -1 376.793 458.541   4
   2   5   1 28.1651 234.180  18
   3  -5   1 162866. 3450.42  18
  -3   5  -1 167691. 4469.77   3
   3   5   1 160463. 3637.54  20
   3   5   1 166082. 4232.48  18
  -3  -5  -1 168553. 4851.96   1
  -4   5  -1 28659.1 2092.08   3
   4  -5   1 27929.4 1575.60  18
  -4  -5  -1 25981.0 1689.26   1
   4   5   1 28111.1 2075.92  18
   4   5   1 28437.5 1803.22  20
  -4   5  -1 32040.1 2639.47   4
   4  -5   1 28424.2 1989.12  20
   5   5   1 4094.17 943.063  18
   5  -5   1 3893.13 822.213  20
  -5   5  -1 4618.03 989.494   3
  -5   5  -1 4421.37 941.338   4
  -6  -5  -1 190696. 3162.59  10
  -6   5  -1 187525. 3613.77  13
  -6  -5  -1 178590. 3558.76   5
  -6  -5  -1 190553. 3549.47  12
  -6   5  -1 186550. 3414.16   5
  -6  -5  -1 184694. 3043.08  14
  -6   5  -1 194719. 3505.57   8
  -7  -5  -1 17926.9 972.977  14
  -7   5  -1 16817.1 1022.03   8
  -7  -5  -1 15083.1 986.307  12
  -7  -5  -1 16562.6 1043.05   5
  -7  -5  -1 15801.6 913.878  10
  -8  -5  -1 392.138 185.881  10
  -8  -5  -1 588.948 227.660  14
  -8  -5  -1 662.183 218.636   8
  -8   5  -1 450.989 222.490   8
  -8  -5  -1 514.880 207.000  12
  -8  -5  -1 662.529 232.386   5
  -9  -5  -1 46096.2 1067.94  14
  -9   5  -1 47307.7 1113.97   8
  -9  -5  -1 44194.3 1054.35  12
 -10  -6   1 1069.29 156.177  10
  -9  -6   1 374.872 167.368  10
  -9  -6   1-111.270 181.336  12
  -9   6   1 23.0989 122.454   8
  -8  -6   1 17294.5 907.194  10
  -8  -6   1 18781.3 1209.07  12
  -8   6   1 16390.4 1021.89   9
   8   6  -1 16131.8 916.321  17
  -8   6   1 16687.8 935.339   8
  -7  -6   1 1950.66 367.127  14
  -7   6   1 1725.44 390.500   9
  -7  -6   1 2008.80 450.527  12
  -7   6   1 1737.37 337.211   8
   7   6  -1 1640.31 351.642  17
  -7  -6   1 1444.72 292.095  10
  -6   6   1 1543.49 327.694   8
  -6  -6   1 1074.11 288.738  12
   6   6  -1 1650.69 344.628  17
  -6  -6   1 1648.93 311.923  10
  -6  -6   1 1552.27 344.643  14
  -6   6   1 1353.24 311.601   9
  -5   6   1 9505.56 1186.82   3
  -5  -6   1 12088.5 1354.48   1
   5  -6  -1 9944.52 1229.20  18
   5   6  -1 10301.9 1251.94  18
  -5   6   1 10552.2 1333.89   4
   4  -6  -1 10408.9 1065.56  18
  -4   6   1 8507.71 1140.82   4
   4   6  -1 9878.91 1047.11  18
  -4   6   1 9133.09 991.574   3
  -3   6   1 4569.94 837.566   4
  -3   6   1 4836.58 624.286   3
   3  -6  -1 4700.04 620.879   1
   3   6  -1 3966.94 561.182  18
   2  -6  -1 23925.7 1391.44   1
  -2  -6   1 24334.1 1446.44   2
   2   6  -1 20410.6 956.313  18
  -2   6   1 24438.6 1751.44   4
   2   6  -1 19866.3 1877.53  19
  -1   6   1 18749.2 1344.89   4
  -1   6   1 15682.4 514.741   2
  -1   6   1 16462.3 916.094  21
   1   6  -1 16041.9 1001.60  21
  -1  -6   1 15781.0 842.302   2
   1  -6  -1 17856.5 1178.09   1
   1   6  -1 18210.2 1766.70  19
   0   6   1 22154.0 936.774   4
   0  -6  -1 21134.6 1277.84   1
   0   6   1 20454.6 947.858  21
   0   6   1 21528.3 1039.58  20
   0  -6   1 20064.2 767.371   2
   0   6  -1 20633.7 1151.00  21
   0  -6   1 19537.9 518.107  18
  -1   6  -1 14491.5 1172.27   4
   1   6   1 15033.1 896.625  21
  -1   6  -1 15379.4 981.688   3
   1  -6   1 15388.3 708.581  18
  -1   6  -1 17068.0 1109.02  21
   1  -6   1 15233.7 777.858   1
   1  -6   1 16043.1 695.112   2
  -1   6  -1 17288.3 1495.27  19
  -1  -6  -1 16310.2 1325.01   1
   1   6   1 15187.1 908.343  20
   2   6   1 3929.97 521.652  20
   2  -6   1 3835.22 422.044   2
  -2  -6  -1 2551.87 791.443   1
  -2   6  -1 2893.72 538.967  21
   2   6   1 3568.90 581.885  18
  -2   6  -1 2805.06 604.195  19
   2  -6   1 3656.78 440.165  18
  -2   6  -1 3590.78 591.629   3
  -2   6  -1 4831.31 1050.65   4
  -3  -6  -1 4111.52 831.330   1
   3   6   1 4829.44 655.997  20
   3   6   1 3431.75 631.792  18
  -3   6  -1 3784.38 711.155   3
   3  -6   1 3788.16 533.061  18
  -3   6  -1 4532.04 1154.31   4
   4   6   1-120.857 262.236  18
  -4  -6  -1 543.716 269.898   1
  -4   6  -1 1048.63 565.320   4
  -5  -6  -1 1111.42 334.523  12
  -5   6  -1 1252.69 336.284  15
  -5   6  -1 910.975 281.826   8
  -5  -6  -1 612.424 195.558  14
  -5  -6  -1 767.533 242.230  10
  -6   6  -1 8999.08 786.262   8
   6   6   1 7078.38 650.024  17
  -6  -6  -1 7838.48 655.898  14
  -6   6  -1 7803.05 693.981   5
  -6   6  -1 8455.50 813.136  13
  -6  -6  -1 7197.19 626.759  10
  -6  -6  -1 7948.85 766.454  12
  -7   6  -1 52.6266 196.953   8
  -7  -6  -1-91.9021 168.294   5
  -7  -6  -1 130.709 226.612  12
  -7  -6  -1 52.2007 195.103  14
  -7  -6  -1 130.135 171.732  10
  -8   6  -1 241.898 188.127   8
  -8  -6  -1 487.496 208.926   5
  -8  -6  -1 103.288 175.499  10
  -8  -6  -1-12.0742 156.222  12
  -8  -6  -1 227.159 179.879  14
  -9   6  -1 3019.36 283.009   8
  -9  -6  -1 3084.95 266.552  10
  -9  -6  -1 2759.11 265.431  12
 -10  -7   1 9586.12 366.782  10
  -9  -7   1 137.696 130.339  10
  -9  -7   1 180.615 179.857  12
  -9   7   1-187.431 192.083   8
   8   7  -1 21597.2 1051.69  17
  -8   7   1 23145.3 1087.61   8
  -8   7   1 22005.1 1178.80   9
  -8  -7   1 22462.3 992.104  10
  -8  -7   1 25647.1 1353.11  12
  -7  -7   1 2667.71 381.187  10
  -7   7   1 3136.82 509.514   9
   7   7  -1 3134.78 488.236  17
  -7  -7   1 3144.73 448.204  14
  -7   7   1 3388.72 471.637  13
  -7   7   1 3229.99 455.894   8
  -7  -7   1 2597.84 470.969  12
  -6  -7   1 567.562 179.529  10
  -6   7   1 254.532 192.334   9
  -6   7   1 523.508 207.487   8
  -6  -7   1 520.005 232.342  14
  -6   7   1-9.60591 167.167  13
   6   7  -1 609.632 224.827  17
  -6  -7   1 378.515 171.074  12
  -6   7   1 126.701 152.975  11
  -5   7   1 27698.1 2162.91   4
   5  -7  -1 22294.5 1863.66  18
  -5   7   1 21752.4 1827.09   3
  -5  -7   1 27123.5 2052.80   1
   5   7  -1 24461.5 1926.04  18
   4  -7  -1 9906.67 1088.73  18
  -4   7   1 9522.79 1073.19   3
  -4  -7   1 13455.4 1425.23   1
   4   7  -1 11730.5 1129.58  18
  -4   7   1 9806.98 1225.74   4
   3   7  -1 4994.54 623.954  18
  -3   7   1 5373.83 928.882   4
   3  -7  -1 5384.21 684.905   1
   2  -7  -1 20578.7 1379.81   1
   2   7  -1 19724.9 1290.79  21
   2   7  -1 18401.7 949.407  18
  -2   7   1 18957.8 1194.90  21
  -2  -7   1 18225.5 1486.17   2
  -2   7   1 20909.3 1628.94   4
  -1   7   1 442.393 234.772  21
  -1   7   1 1007.24 337.599   4
   1   7  -1 771.728 292.974  21
   1   7  -1 560.965 672.914  19
  -1  -7   1 591.203 244.215   2
   1  -7  -1 693.640 315.054   1
   0   7  -1 3853.52 1069.66  19
   0   7   1 3115.06 432.059  21
   0   7   1 3331.34 427.103  20
   0  -7  -1 2514.29 528.294   1
   0  -7   1 2877.64 315.749   2
   0  -7   1 2962.77 466.767   1
   0   7  -1 2605.12 483.139  21
   0   7   1 2968.32 345.655   4
   1   7   1-103.087 119.758  21
  -1   7  -1 119.637 175.118   3
   1  -7   1 460.376 166.908   1
  -1  -7  -1 253.882 295.882   1
  -1   7  -1-95.1935 265.331   4
   1   7   1 6.72231 135.448  20
  -1   7  -1 36.2111 188.705  21
  -1   7  -1 331.874 437.303  19
  -2   7  -1-542.545 488.953   4
  -2   7  -1 296.225 196.186   3
   2   7   1-248.272 179.867  20
  -2   7  -1 126.710 250.815  21
   2   7   1-334.046 238.749  18
  -2  -7  -1-380.606 395.331   1
  -3   7  -1 6434.17 1345.35   4
  -3  -7  -1 7043.35 1131.02   1
   3   7   1 6379.27 886.160  18
  -3   7  -1 6330.03 923.991   3
  -4  -7  -1 636.164 398.199   1
  -4   7  -1 903.590 424.900   3
   4   7   1 204.504 291.370  18
  -4   7  -1 378.463 354.606   4
  -5  -7  -1 372.726 174.863  10
  -5   7  -1 459.325 182.040   5
   5   7   1 305.691 174.464  17
  -5   7  -1 159.151 191.940  15
  -5  -7  -1 119.806 137.474  14
  -5  -7  -1 275.413 212.620  12
  -5   7  -1 31.6956 207.934  16
  -5   7  -1-18.0714 192.507   8
  -5   7  -1-385.112 206.618  13
   6   7   1 13579.3 892.369  17
  -6   7  -1 14830.7 1065.87  13
  -6   7  -1 13297.9 881.545   5
  -6   7  -1 13217.4 930.479   8
  -6  -7  -1 13395.4 986.176  12
  -6  -7  -1 13581.8 848.355  14
  -6  -7  -1 12510.5 797.014  10
   7   7   1 1499.42 308.487  17
  -7  -7  -1 1653.04 363.193  12
  -7  -7  -1 2134.49 361.106  14
  -7   7  -1 1810.57 384.785  13
  -7  -7  -1 1948.87 333.291  10
  -7  -7  -1 1462.15 373.530   5
  -7   7  -1 1969.36 395.353   8
  -8  -7  -1 64.7301 145.959  14
  -8   7  -1 91.3091 169.342   8
  -8  -7  -1-17.2284 146.146  12
  -8  -7  -1-49.4678 135.924   5
  -8  -7  -1 85.2120 132.424  10
  -9  -7  -1 9149.27 449.701  12
  -9   7  -1 10076.5 459.260   8
  -9  -7  -1 9956.22 420.203  10
  -9  -8   1 512.895 150.915  10
  -9   8   1 337.354 164.368   8
  -9   8   1 510.352 153.456   9
  -9  -8   1 739.898 230.382  12
   8   8  -1 746.908 260.359  17
  -8   8   1 842.721 290.179   9
  -8  -8   1 664.244 298.359  12
  -8  -8   1 886.721 231.126  10
  -8   8   1 954.236 245.260   8
  -7   8   1 431.913 295.709   9
   7   8  -1 483.321 243.541  17
  -7  -8   1 854.886 316.697  12
  -7   8   1 475.385 219.292   8
  -7   8   1 978.786 289.618  13
  -7  -8   1 772.700 214.567  10
   6   8  -1 2902.70 459.134  17
  -6  -8   1 2411.62 372.424  10
  -6  -8   1 2441.96 415.152  14
  -6   8   1 2062.44 377.143   8
  -6  -8   1 2261.06 400.433  12
  -6   8   1 2711.00 462.745  13
  -6   8   1 2232.41 400.400  11
  -6   8   1 2608.28 487.466   9
   5  -8  -1-40.6975 206.105  18
  -5  -8   1 56.0295 209.714   1
  -4  -8   1 8762.21 1271.94   1
   4   8  -1 7670.58 952.879  18
  -4   8   1 6280.81 1086.60   4
   4  -8  -1 6745.04 946.796  18
  -3  -8   1 5650.61 980.866   1
  -3   8   1 4875.65 878.507   4
   3  -8  -1 4879.71 699.928   1
   3   8  -1 5132.58 644.283  18
   2  -8  -1 11921.5 1139.81   1
  -2   8   1 11108.7 980.361  21
  -2   8   1 10584.2 1162.98   4
  -2  -8   1 13067.2 1403.38   1
   2   8  -1 10276.8 1007.15  21
   1   8  -1 3467.34 1082.03  19
  -1  -8   1 2383.38 503.418   1
  -1   8   1 1934.07 417.735   4
  -1  -8   1 1624.30 482.269   2
   1  -8  -1 1902.26 464.387   1
  -1   8   1 1951.43 420.953  21
   1   8  -1 1560.31 389.208  21
   0   8  -1 95463.1 5105.97  19
   0   8  -1 101287. 2907.39  21
   0  -8   1 106843. 2826.70   1
   0  -8  -1 93542.2 3044.25   1
   0   8   1 95325.4 2500.14  21
   0   8   1 111199. 2237.45   4
   0  -8   1 94638.4 2031.57  20
  -1  -8  -1 14466.4 1408.30   1
   1   8   1 12598.9 957.421  21
  -1   8  -1 15079.5 1229.42  21
   1   8   1 14639.2 912.650  20
   1  -8   1 14567.5 933.150   1
  -2   8  -1 10031.8 996.376   3
  -2   8  -1 10098.7 1087.52  21
  -2   8  -1 11215.6 1521.84   4
   2   8   1 9237.47 926.235  21
  -2  -8  -1 9668.69 1360.19   1
   3   8   1 16772.7 1488.24  18
  -3   8  -1 15343.1 1448.67   3
  -3   8  -1 16606.9 2210.68   4
  -3  -8  -1 16900.8 1866.66   1
  -4   8  -1 13366.5 1511.56   3
  -4  -8  -1 11567.4 1416.94   1
   4  -8   1 13407.8 1456.58  20
  -4   8  -1 15324.2 2134.55   4
   4   8   1 12174.5 1434.99  18
  -5   8  -1 4835.27 634.965   9
   5   8   1 3303.40 490.813  17
  -5   8  -1 3638.07 588.167  16
  -5  -8  -1 4064.86 458.830  14
  -5  -8  -1 4682.41 487.023  10
  -5   8  -1 5078.14 610.682  15
  -5   8  -1 4698.08 540.506   5
  -5   8  -1 3881.33 559.952  13
  -5  -8  -1 4698.27 626.728  12
  -5   8  -1 4618.47 555.767   8
  -6  -8  -1 13174.6 975.779  12
   6   8   1 13400.3 902.821  17
  -6  -8  -1 13333.0 839.625  14
  -6   8  -1 12950.7 839.325   5
  -6   8  -1 13158.7 913.331   8
  -6  -8  -1 11857.9 768.424  10
  -6   8  -1 12266.3 983.216  13
  -7  -8  -1 1712.09 300.462  10
  -7  -8  -1 1942.63 334.067  14
  -7  -8  -1 1804.97 351.225   5
  -7   8  -1 1887.01 390.073  13
   7   8   1 1850.80 311.384  17
  -7  -8  -1 1759.72 369.404  12
  -7   8  -1 2043.28 376.729   8
  -8  -8  -1 2191.70 281.760  10
  -8   8  -1 2125.50 304.193   8
  -8  -8  -1 2222.65 343.775  12
  -8  -8  -1 2065.74 319.472   5
  -8  -8  -1 2233.90 298.910  14
  -9   8  -1-203.093 88.0963   8
  -9  -9   1 2486.48 234.701  10
  -9   9   1 2022.13 242.249   9
  -9   9   1 2597.17 293.226   8
  -8   9   1 631.698 253.348   9
  -8   9   1 194.930 140.334  13
  -8   9   1-78.7828 283.210   8
   8   9  -1 119.164 162.838  17
  -8  -9   1 199.917 237.262  12
  -8  -9   1 398.045 164.413  10
   7   9  -1 4037.18 529.163  17
  -7  -9   1 3739.57 419.899  10
  -7   9   1 3644.43 515.691  13
  -7   9   1 3902.53 491.771   8
  -7  -9   1 3553.90 524.479  12
  -7   9   1 4554.64 593.370   9
   6   9  -1 209.936 225.560  17
  -6   9   1-62.6175 169.503  11
  -6   9   1 384.867 238.903   8
  -6   9   1 72.5169 186.842  13
  -6  -9   1 15.6877 142.709  12
  -6   9   1 103.262 160.476  16
  -6  -9   1 381.551 176.250  10
  -6   9   1-393.670 277.039   9
  -5   9   1 23870.7 1337.52   9
   5   9  -1 23440.3 1215.81  17
  -5   9   1 20250.7 1113.40   8
  -5   9   1 21721.5 1204.89  16
   5  -9  -1 20020.6 1872.41  18
  -5   9   1 23744.2 1180.82  11
  -5  -9   1 20784.9 1105.62  12
  -5   9   1 26453.0 1548.47  13
  -5  -9   1 19553.9 1079.45  14
  -4  -9   1 3583.34 840.859   1
   4  -9  -1 2699.94 615.895  18
  -4   9   1 2099.41 665.123   4
  -3   9   1 1562.83 569.487   4
   3   9  -1 2267.89 534.349  21
  -3  -9   1 2955.96 785.796   1
  -2   9   1 29790.6 1949.06   4
   2  -9  -1 30905.8 1906.51   1
  -2   9   1 32573.2 1819.45  21
   2   9  -1 31674.7 1848.64  21
  -2  -9   1 36417.3 2343.41   1
  -1  -9   1 6447.93 859.992   1
  -1   9   1 6061.72 737.613  21
  -1   9   1 6627.86 747.711   4
   1  -9  -1 5999.18 836.697   1
   1   9  -1 5810.69 767.198  21
   0  -9   1 2964.74 535.251   1
   0  -9  -1 1832.18 507.037   1
   0   9  -1 2278.23 486.213  21
   0   9   1 2691.28 481.059  21
   1  -9   1 4543.88 574.828   1
   1   9   1 5143.94 660.500  21
  -1  -9  -1 3737.27 780.796   1
  -1   9  -1 4858.21 772.222  21
  -2  -9  -1 489.413 359.695   1
   2   9   1 526.075 236.143  21
  -2   9  -1 268.338 277.244  21
  -2   9  -1 763.388 496.654   4
  -3   9  -1 6217.98 1385.06   4
  -3   9  -1 7339.94 1044.96   3
  -3  -9  -1 6732.72 1198.32   1
   3   9   1 6483.64 881.626  21
  -4  -9  -1-284.627 279.061   1
   4   9   1-31.2471 211.259  17
   4  -9   1 11.7286 116.303  20
  -4   9  -1 626.229 350.979   9
  -4   9  -1-125.856 189.411  15
  -4   9  -1 256.350 255.565  16
  -4   9  -1 84.1670 154.436   8
  -4  -9  -1 34.8515 137.031  12
  -4   9  -1-244.824 206.358  13
   5   9   1-294.977 216.636  17
  -5   9  -1 81.8822 234.108   9
  -5  -9  -1-364.470 164.489  10
  -5   9  -1 341.030 266.802  15
  -5   9  -1-50.7310 219.104  13
  -5   9  -1 24.7344 212.477   8
  -5   9  -1 1.38887 219.917  16
  -5   9  -1 141.645 178.386   5
  -5  -9  -1 5.17038 207.295  12
  -5  -9  -1-306.382 146.876  14
  -6   9  -1 33674.3 1566.55  16
  -6  -9  -1 37329.8 1617.82  12
  -6  -9  -1 37252.0 1303.13  10
  -6  -9  -1 37893.6 1397.00  14
  -6   9  -1 39466.2 1755.57  13
  -6   9  -1 38247.3 1510.42   8
  -6   9  -1 36888.4 1523.00   9
   6   9   1 37036.9 1478.13  17
   7   9   1 1069.35 247.340  17
  -7   9  -1 1086.47 295.444   8
  -7  -9  -1 997.731 233.014  10
  -7  -9  -1 1528.52 309.593  14
  -7   9  -1 796.924 257.675  13
  -7  -9  -1 1212.75 319.861  12
  -7  -9  -1 809.516 276.394   5
  -8  -9  -1 1560.45 234.460  14
  -8  -9  -1 1768.62 280.933   5
  -8   9  -1 1675.15 267.977   8
  -8  -9  -1 1712.41 226.795  10
  -8  -9  -1 1746.01 287.806  12
  -9  10   1 2095.41 245.303   8
  -9 -10   1 2354.88 303.967  12
  -9  10   1 1409.32 189.523   9
   8  10  -1 10482.5 667.507  17
  -8  10   1 10712.4 694.542   8
  -8 -10   1 10928.1 786.183  12
  -8  10   1 10775.3 706.473  13
  -8  10   1 10940.9 761.742   9
  -8 -10   1 9951.21 545.178  10
  -7  10   1 29475.2 1433.84   9
   7  10  -1 30187.5 1329.69  17
  -7  10   1 28289.3 1366.74  13
  -7  10   1 27953.3 1255.07   8
  -7  10   1 28789.0 1245.26  11
  -7 -10   1 27201.4 1335.70  12
  -7 -10   1 28648.3 1078.74  10
   6  10  -1 4961.73 604.951  17
  -6  10   1 4518.74 589.697  16
  -6  10   1 4892.45 590.893   8
  -6 -10   1 4546.32 541.202  12
  -6  10   1 4619.00 622.983   9
  -6  10   1 6192.52 727.442  13
  -6  10   1 4891.50 578.537  11
   5  10  -1 11137.7 867.456  17
  -5  10   1 11368.3 977.977   9
  -5  10   1 10449.3 825.331   8
  -5  10   1 11689.9 874.285  11
  -5  10   1 10224.5 852.396  16
  -5 -10   1 9003.22 738.557  12
  -5  10   1 11903.8 1071.79  13
   4  10  -1 45874.9 2805.97  21
  -4 -10   1 50910.9 3206.57   1
   4 -10  -1 43423.9 2571.56  18
  -4  10   1 46307.7 3108.38   4
   3  10  -1 1075.02 436.621  21
  -3  10   1 630.405 432.480   4
  -3 -10   1 1691.24 626.803   1
  -2  10   1 503.822 402.988   4
   2 -10  -1 648.595 311.024   1
  -2  10   1 291.883 215.451  21
   2  10  -1 10.5097 116.648  21
  -2 -10   1 811.629 371.527   1
  -1  10   1 39700.3 2047.83  21
  -1 -10   1 44910.4 2347.26   1
   1 -10  -1 41129.4 2337.20   1
   1  10  -1 38926.8 2084.40  21
   0  10   1 13439.1 1145.40  21
   0 -10  -1 13977.9 1359.05   1
   0  10  -1 14781.7 1296.46  21
   0 -10   1 15142.0 1238.41   1
  -1  10  -1 3020.72 659.637  21
  -1 -10  -1 3889.81 840.214   1
   1  10   1 3629.72 583.980  21
  -2 -10  -1 30527.7 2614.09   1
   2  10   1 26948.4 1714.67  21
  -2  10  -1 30204.0 2139.89  21
  -3  10  -1 2408.62 996.951   4
  -3 -10  -1 2785.31 823.226   1
   3  10   1 2341.43 561.065  21
  -4  10  -1 1436.42 372.221  13
  -4  10  -1 1801.12 443.248  16
  -4  10  -1 1671.82 353.693   8
  -4  10  -1 1851.82 537.129   9
  -4  10  -1 2027.46 427.918  15
   4  10   1 1607.29 355.668  17
  -4  10  -1 1665.39 330.771   5
  -4  10  -1 1653.82 372.915  11
  -4 -10  -1 1425.28 360.518  12
  -5  10  -1 32118.6 1392.62   8
   5  10   1 30634.5 1432.18  17
  -5  10  -1 33077.2 1650.75   9
  -5 -10  -1 31228.7 1169.51  10
  -5  10  -1 33529.8 1646.77  16
  -5 -10  -1 33583.4 1305.52  14
  -5  10  -1 31199.1 1346.94   5
  -5  10  -1 31409.6 1587.47  13
  -5 -10  -1 32793.6 1574.79  12
  -5  10  -1 32603.7 1443.48  15
  -6 -10  -1 1920.92 339.336  14
  -6  10  -1 2289.90 404.955   8
  -6  10  -1 1730.56 384.179   9
  -6  10  -1 2577.21 499.306  13
   6  10   1 1784.07 354.937  17
  -6 -10  -1 1994.46 424.912  12
  -6 -10  -1 2506.63 335.980  10
  -6  10  -1 1587.18 420.919  16
  -7 -10  -1 3057.15 347.379  10
  -7 -10  -1 3043.60 363.610  14
  -7  10  -1 2406.78 402.312  13
  -7  10  -1 3108.52 389.586   8
  -7 -10  -1 3036.35 441.890  12
  -7 -10  -1 2641.10 398.788   5
   7  10   1 3064.50 388.743  17
  -8 -10  -1 18015.3 588.546  10
  -8 -10  -1 20159.7 822.322  12
  -8  10  -1 20201.0 752.548   8
  -8 -10  -1 18714.2 745.121   5
  -9  11   1 538.340 133.851   8
  -8  11   1 10557.8 669.676  13
  -8  11   1 11399.5 725.214   9
   8  11  -1 10919.0 643.508  17
  -8  11   1 10884.1 657.995   8
  -8 -11   1 11896.0 749.693  12
  -7  11   1 7787.11 728.180  13
  -7  11   1 8886.23 806.082   9
   7  11  -1 9616.41 750.475  17
  -7 -11   1 8761.14 738.595  12
  -7  11   1 9193.17 711.819   8
  -7  11   1 9611.00 714.251  11
   6  11  -1 11532.5 877.744  17
  -6  11   1 10753.1 859.826   8
  -6  11   1 12740.5 989.474  16
  -6  11   1 12296.0 1018.40   9
  -6  11   1 12430.8 1043.76  13
  -6  11   1 10784.5 850.708  11
  -6 -11   1 10983.5 819.406  12
  -5  11   1 1076.67 366.000   9
   5  11  -1 795.159 283.058  17
  -5  11   1 941.484 297.503   8
  -5  11   1 1379.88 424.371  13
  -5 -11   1 683.945 218.326  12
  -5  11   1 1198.58 355.713  11
  -5  11   1 967.160 324.517  16
   4  11  -1 462.897 269.054  17
  -4  11   1 917.450 394.179   6
  -4  11   1 793.721 294.764  16
  -4  11   1 878.305 376.550   9
  -4  11   1 818.584 375.667  13
  -4  11   1 382.136 212.219   8
  -4  11   1 299.780 205.354  11
   3  11  -1 49318.4 2768.17  21
  -3 -11   1 52604.7 3350.30   1
  -3  11   1 44937.9 2983.40   4
  -2 -11   1-190.011 229.936   1
   2 -11  -1-231.714 328.075   1
  -2  11   1 759.856 398.671   4
  -2  11   1-437.557 268.358  21
   2  11  -1 388.415 278.822  21
  -1 -11   1 756.899 327.322   1
   1 -11  -1 694.871 352.593   1
  -1  11   1-24.5535 166.405  21
   1  11  -1 589.741 371.807  21
   0  11  -1 24079.5 1768.22  21
   0  11   1 22376.1 1587.71  21
   0 -11   1 23828.8 1659.75   1
   0 -11  -1 20131.6 1761.92   1
  -1 -11  -1 1883.53 586.048   1
   1  11   1 2261.01 505.120  21
  -1  11  -1 1342.22 464.192  21
  -2 -11  -1 2513.42 809.409   1
   2  11   1 1590.06 456.710  21
  -2  11  -1 1748.67 633.712  21
  -3  11  -1 199.776 234.696  16
   3  11   1 539.972 227.143  17
  -3  11  -1-95.4609 176.101   6
  -3 -11  -1 198.075 166.400  12
  -3  11  -1-160.894 257.566  11
  -3  11  -1-1.44004 182.792  13
  -3  11  -1-82.1627 115.135   5
  -3  11  -1 411.158 311.445   9
   4  11   1 18450.3 1123.90  17
  -4  11  -1 18834.8 1091.73   5
  -4  11  -1 19901.7 1427.12   9
  -4  11  -1 21512.1 1277.80  11
  -4  11  -1 17026.4 1003.87   8
  -4  11  -1 20649.0 1352.98  16
  -4  11  -1 18239.7 1211.52  13
  -4  11  -1 19780.8 1141.51  15
  -4 -11  -1 18537.0 1185.20  12
  -5  11  -1 2646.42 518.005  16
   5  11   1 2289.34 441.319  17
  -5 -11  -1 2965.89 505.831  12
  -5  11  -1 2616.70 428.179  15
  -5  11  -1 3109.05 425.439   5
  -5  11  -1 2459.93 504.140  13
  -5  11  -1 2689.48 436.999   8
  -5  11  -1 2470.44 502.146   9
  -6 -11  -1-227.071 225.374  12
  -6  11  -1-96.0059 212.257  16
  -6 -11  -1-13.7352 135.367  14
   6  11   1 0.93127 166.154  17
  -6  11  -1 176.214 199.606   8
  -6  11  -1-567.258 318.012  13
  -6  11  -1 39.8899 178.324   9
  -7 -11  -1 5800.77 407.772  10
   7  11   1 6305.44 483.474  17
  -7  11  -1 5959.10 494.254   8
  -7  11  -1 6081.37 589.950  13
  -7 -11  -1 5420.86 537.392   5
  -7 -11  -1 5688.48 533.258  12
  -8 -11  -1 191.135 115.525  12
  -8 -11  -1 203.388 101.204   5
   8  12  -1 14229.7 674.745  17
  -8  12   1 13843.6 715.444  13
  -8  12   1 13745.0 676.969   8
  -8  12   1 13359.0 727.239   9
  -8 -12   1 13638.5 729.719  12
  -7  12   1 740.566 245.986   8
  -7  12   1 1267.60 296.051  16
  -7  12   1 1643.60 364.816   9
  -7  12   1 1496.92 347.385  13
  -7  12   1 1507.69 292.966  11
  -7 -12   1 1264.39 299.407  12
   7  12  -1 1273.14 297.892  17
   6  12  -1 2193.63 422.736  17
  -6  12   1 1753.00 464.383   9
  -6  12   1 1805.51 387.367  11
  -6  12   1 2100.47 450.393  16
  -6  12   1 1921.95 459.570  13
  -6  12   1 1353.06 358.736   8
  -6 -12   1 2005.80 367.884  12
   5  12  -1 11903.7 898.802  17
  -5  12   1 10687.6 923.198  16
  -5  12   1 12479.6 1063.97  13
  -5  12   1 12532.1 1070.87   9
  -5  12   1 10565.0 851.280   8
  -5  12   1 11233.2 911.096  11
  -5 -12   1 10043.8 780.981  12
  -4  12   1 361.837 259.495  13
   4  12  -1-10.0914 209.047  17
  -4  12   1 418.512 262.609   9
  -4  12   1 28.9989 279.075   6
  -4  12   1 382.343 255.364  11
  -4  12   1-334.999 229.293   8
  -4  12   1 655.803 306.917  16
  -3  12   1 7156.27 748.214   9
  -3  12   1 8272.26 804.950  11
  -3  12   1 7156.57 621.894   8
   3  12  -1 6119.89 633.235  17
  -3  12   1 7099.96 848.508  13
  -3  12   1 7719.71 744.977  16
  -3  12   1 7181.25 866.597   6
   2  12  -1-64.8561 142.942  21
  -2 -12   1-806.612 393.552   1
   1 -12  -1 19714.0 1866.69   1
   1  12  -1 18494.0 1639.75  21
  -1  12   1 18215.4 1571.11  21
  -1 -12   1 21114.2 1814.61   1
   0 -12  -1 4034.46 826.907   1
   0 -12   1 3421.55 683.577   1
   0  12  -1 3992.04 796.326  21
   0  12   1 4661.36 801.306  21
  -1  12  -1 8970.96 1238.79  21
  -1 -12  -1 8071.62 1330.70   1
  -2  12  -1 17389.6 1148.16  16
  -2  12  -1 18185.2 1026.91   5
  -2  12  -1 17217.6 1322.48  11
   2  12   1 19684.9 1077.16  17
  -2  12  -1 19304.5 1228.18   9
  -2  12  -1 19660.3 1448.06  13
  -2 -12  -1 17757.9 1028.07  12
  -2  12  -1 19161.8 1322.10   6
  -3  12  -1 19211.2 1305.02  16
  -3  12  -1 18782.5 1093.59   5
  -3  12  -1 18787.9 1306.24  13
  -3 -12  -1 17236.3 1118.25  12
  -3  12  -1 18309.5 1206.06   6
  -3  12  -1 20964.1 1445.62  11
  -3  12  -1 19677.6 1430.24   9
   3  12   1 18663.9 1126.07  17
   4  12   1-112.483 210.211  17
  -4  12  -1 64.6200 227.663  11
  -4  12  -1 182.068 298.024   9
  -4  12  -1 518.942 314.664  16
  -4  12  -1-162.604 194.801   8
  -4  12  -1 399.426 206.498   5
  -4 -12  -1 280.358 207.811  12
  -4  12  -1-244.354 260.206  13
   5  12   1 2441.25 446.082  17
  -5 -12  -1 2403.31 435.974  12
  -5  12  -1 2099.30 476.647  13
  -5  12  -1 1698.27 457.040  16
  -5  12  -1 2505.28 395.168   8
  -5  12  -1 2575.38 385.706   5
  -5  12  -1 3207.20 445.121  15
  -5  12  -1 1947.25 419.970   9
   6  12   1 1194.58 312.067  17
  -6  12  -1 884.818 300.036  16
  -6  12  -1 1152.62 349.068  13
  -6  12  -1 650.480 208.725   8
  -6 -12  -1 935.443 298.705  12
  -6  12  -1 519.451 230.781   9
   7  12   1 1560.30 240.503  17
  -7 -12  -1 1826.12 299.243  12
  -7 -12  -1 1381.04 274.366   5
  -7  12  -1 1466.23 293.000  13
  -7  12  -1 891.506 206.806   8
  -8 -12  -1-0.70799 57.1486  12
  -8  13   1 24172.9 865.679   9
   8  13  -1 24574.5 791.762  17
  -8 -13   1 22255.9 784.206  12
  -8  13   1 24154.0 848.637  13
   7  13  -1 276.393 184.915  17
  -7  13   1-76.6646 232.106   8
  -7  13   1 144.369 210.419   9
  -7  13   1 123.026 107.419  11
  -7  13   1 97.3712 182.295  13
  -7 -13   1-74.8691 148.959  12
  -7  13   1 142.821 154.022  16
  -6  13   1 99.0040 244.783  13
  -6  13   1-73.7575 272.828   9
  -6  13   1 681.788 264.784  16
   6  13  -1 415.389 257.158  17
  -6  13   1-229.801 392.408   8
  -6 -13   1 303.537 185.941  12
  -6  13   1 378.164 201.277  11
   5  13  -1 53746.9 1845.11  17
  -5  13   1 51365.4 1828.77   8
  -5  13   1 56662.4 2184.29  13
  -5 -13   1 46865.8 1641.99  12
  -5  13   1 55016.1 2039.65   6
  -5  13   1 58192.7 2245.13   9
  -5  13   1 52201.2 1993.18  16
  -5  13   1 53140.8 1935.98  11
  -4  13   1 2421.99 528.062   6
  -4  13   1 2506.65 500.385  11
  -4  13   1 2458.56 517.064  13
  -4  13   1 2620.62 506.483   9
  -4  13   1 1715.02 387.692   8
  -4  13   1 2894.38 490.913  16
   4  13  -1 1646.07 361.630  17
  -3  13   1 2076.16 399.631  16
   3  13  -1 1693.45 335.983  17
  -3  13   1 1866.24 503.053   6
  -3  13   1 2037.11 482.259  13
  -3  13   1 2008.11 385.802   8
  -3  13   1 1459.00 366.280  11
  -3  13   1 1894.17 412.813   9
  -2  13   1 94822.0 2524.24  16
  -2  13   1 93786.7 2494.92   9
  -2  13   1 102810. 3402.71   6
   2  13  -1 86697.7 2451.52  11
   2  13  -1 79832.3 2461.39   6
  -2  13   1 88162.1 2071.77   8
  -2  13   1 94943.8 3065.13  13
  -2  13   1 94438.2 2640.94  11
  -1  13   1 61.5896 156.846  17
  -1  13   1 304.257 197.729   8
   1  13  -1 438.242 286.704   6
  -1 -13   1-283.608 221.189   1
   1 -13  -1-839.288 413.879   1
  -1  13   1-228.113 191.620  11
   1  13  -1-225.837 189.431  11
  -1  13   1 175.940 215.994  16
  -1  13   1-838.496 382.856   6
   0  13   1 24493.3 1120.82  17
   0  13   1 25370.3 1705.49   6
   0  13  -1 22091.5 1738.05   6
   0  13   1 22244.0 1149.09  16
   0  13  -1 21758.9 1245.24  11
   1  13   1 62975.8 1884.17  17
  -1  13  -1 65236.3 2900.64   6
  -1  13  -1 53532.2 1984.13  16
   1  13   1 60841.3 2295.99   6
   1  13   1 55810.8 1804.79  16
  -1  13  -1 62783.3 2295.92  11
  -2  13  -1-283.319 284.040   6
  -2  13  -1 261.725 269.274   9
   2  13   1 629.962 280.639  17
  -2  13  -1 325.862 254.255  13
  -2  13  -1 285.443 168.288   5
  -2  13  -1 404.426 249.728  16
   2  13   1-100.277 116.340  16
  -2 -13  -1-132.237 130.969  12
  -2  13  -1-72.7398 278.929  11
  -3  13  -1 71459.8 2190.40   5
  -3  13  -1 78021.1 2618.64  16
  -3  13  -1 69605.9 2416.94   6
  -3 -13  -1 67945.8 2216.85  12
  -3  13  -1 71956.2 2637.95   9
   3  13   1 71471.8 2205.57  17
  -3  13  -1 71925.1 2593.14  13
  -3  13  -1 75088.0 2717.16  11
  -4  13  -1 11578.3 857.558   5
  -4  13  -1 11768.0 1085.54   9
  -4  13  -1 12111.1 984.722  11
   4  13   1 10463.4 885.510  17
  -4  13  -1 10539.9 773.305   8
  -4  13  -1 12641.8 1110.63  16
  -4  13  -1 11205.9 996.457  13
  -4 -13  -1 11312.9 916.532  12
  -4  13  -1 11513.3 956.504   6
  -5 -13  -1 1919.55 381.219  12
   5  13   1 1700.29 387.800  17
  -5  13  -1 1578.53 406.278  13
  -5  13  -1 969.222 274.001   8
  -5  13  -1 1646.33 292.518   5
  -5  13  -1 1442.10 428.437  16
  -5  13  -1 2024.37 434.206   9
  -5  13  -1 1886.31 361.155  11
   6  13   1 35621.8 1241.95  17
  -6  13  -1 36312.3 1204.66   8
  -6 -13  -1 35770.2 1327.04  12
  -7  13  -1 1320.16 206.576   8
  -7 -13  -1 1783.16 262.506  12
   7  13   1 1943.07 242.966  17
  -7 -13  -1 1780.66 270.546   5
  -8  14   1 932.263 156.054   8
  -7  14   1 8800.24 585.558  16
  -7  14   1 9230.20 660.705   9
  -7  14   1 10388.6 637.043   8
  -7 -14   1 7798.45 521.570  12
   7  14  -1 9290.24 585.668  17
  -7  14   1 10067.7 696.049  13
  -7  14   1 8496.04 544.646  11
   6  14  -1 29596.9 1220.75  17
  -6  14   1 30808.1 1424.63   9
  -6  14   1 28641.4 1242.85  11
  -6  14   1 30905.2 1438.51  13
  -6  14   1 31273.0 1285.68   8
  -6  14   1 29349.9 1349.81  16
  -5  14   1 1316.80 390.321  16
  -5  14   1 793.194 310.158   6
  -5  14   1 835.047 355.166   9
   5  14  -1 1257.14 338.368  17
  -5  14   1 1643.89 375.461  11
  -5  14   1 908.277 339.649   8
  -5  14   1 1532.73 457.685  13
  -4  14   1 28200.1 1519.20  16
  -4  14   1 26753.7 1490.85  13
  -4  14   1 29267.8 1626.63   9
  -4  14   1 28175.0 1308.73   8
  -4  14   1 27538.5 1523.91   6
   4  14  -1 25487.3 1282.56  17
  -4  14   1 28673.4 1556.17  11
  -3  14   1 48974.2 2167.92   6
  -3  14   1 49802.4 1644.63   8
  -3  14   1 49774.0 2076.77  13
  -3  14   1 52633.1 2057.04   9
  -3  14   1 51934.2 1997.31  16
  -3  14   1 52038.7 2102.55  11
   3  14  -1 45927.8 1754.03  17
  -2  14   1 3191.89 441.040   8
  -2  14   1 2927.55 477.399  16
  -2  14   1 2337.03 589.718   6
  -2  14   1 3417.92 510.761   9
  -2  14   1 3217.05 617.618  13
   2  14  -1 2558.84 446.316   6
  -2  14   1 2564.34 463.332  11
   2  14  -1 1925.68 391.774  11
   1  14  -1 12128.7 955.779  11
  -1  14   1 11993.6 889.863  16
  -1  14   1 13563.3 975.628  11
  -1  14   1 12664.3 799.908   8
   1  14  -1 12755.8 1171.08   6
  -1  14   1 14561.8 1361.57   6
  -1  14   1 12690.9 822.854  17
   0  14   1 30813.1 1307.57  17
   0  14   1 31556.1 1223.30   8
   0  14  -1 31176.4 1609.09  16
   0  14   1 32655.3 1907.16   6
   0  14   1 32071.2 1410.05  11
   0  14   1 28272.7 1352.30  16
   0  14  -1 29957.2 1518.82  11
   0  14  -1 30719.9 2039.45   6
   1  14   1 11764.1 1041.76   6
   1  14   1 11244.2 860.898  16
  -1  14  -1 13284.2 1092.35  11
   1  14   1 12801.8 889.900  17
  -1  14  -1 13789.5 1415.60   6
  -1  14  -1 10993.0 964.473  16
  -2  14  -1 22234.9 1389.15  16
  -2  14  -1 22493.3 1539.08  13
   2  14   1 21314.0 1176.05  16
  -2 -14  -1 18868.0 1136.43  12
  -2  14  -1 22247.9 1524.38  11
   2  14   1 22703.2 1225.45  17
  -2  14  -1 22595.4 1532.96   6
  -3  14  -1 34922.9 1802.24  13
   3  14   1 33598.6 1545.51  17
  -3  14  -1 35187.2 1845.07  11
  -3  14  -1 37226.6 1839.12  16
  -3 -14  -1 33880.0 1549.71  12
  -3  14  -1 34640.2 1734.68   6
  -4  14  -1 12982.1 1108.53  16
  -4  14  -1 12578.2 988.496   6
   4  14   1 10899.9 884.361  17
  -4  14  -1 10536.1 955.782  13
  -4  14  -1 10832.8 754.723   8
  -4  14  -1 11024.0 913.840  11
  -4 -14  -1 11794.5 890.745  12
  -5  14  -1 13369.0 1020.17  16
  -5  14  -1 13767.0 1026.03  13
  -5  14  -1 12799.9 757.585   8
  -5 -14  -1 12484.8 846.387  12
   5  14   1 12489.8 848.318  17
  -5  14  -1 12511.2 817.719  11
  -6 -14  -1 5061.92 472.135  12
  -6  14  -1 5184.92 424.331   8
  -6  14  -1 5869.22 603.675  13
   6  14   1 5389.54 465.652  17
   7  14   1 13856.0 508.185  17
  -7 -14  -1 14542.8 609.490   5
  -7 -14  -1 15092.1 608.853  12
  -7  14  -1 13338.4 454.227   8
   7  15  -1 455.995 140.722  17
  -7  15   1 263.117 149.309   9
  -7  15   1 315.975 119.042  11
  -7  15   1 215.455 155.321  13
  -6  15   1 346.193 229.575   9
  -6  15   1 283.616 207.118  16
  -6  15   1 464.811 259.663  13
   6  15  -1 358.907 188.417  17
  -6  15   1 429.342 197.476  11
  -5  15   1 3356.59 519.247   8
  -5  15   1 2641.15 487.548  16
   5  15  -1 1841.69 336.802  17
  -5  15   1 2771.81 527.740   9
  -5  15   1 2123.18 410.380   6
  -5  15   1 2189.68 473.331  13
  -5  15   1 2282.26 449.625  11
  -4  15   1 7319.44 810.187  16
  -4  15   1 7487.58 795.439   6
  -4  15   1 6927.44 801.351   9
  -4  15   1 9038.72 756.334   8
  -4  15   1 7474.96 782.718  13
  -4  15   1 7331.17 794.825  11
   4  15  -1 6567.36 643.835  17
  -3  15   1 456.367 301.496  11
  -3  15   1 650.809 340.586  16
  -3  15   1 962.497 281.847   9
  -3  15   1 231.474 260.221   6
  -3  15   1 1576.10 403.651   8
   3  15  -1 436.418 239.278  17
  -3  15   1 466.794 305.748  13
   2  15  -1 1603.51 386.620   6
  -2  15   1 1767.99 522.733   6
   2  15  -1 1462.74 379.202  11
  -2  15   1 1804.61 352.978   8
  -2  15   1 1218.85 397.450  13
  -2  15   1 2118.02 451.084  16
  -2  15   1 1454.69 391.442  11
  -2  15   1 1174.56 308.452   9
  -1  15   1 332.147 208.961  17
   1  15  -1 501.965 317.268   6
   1  15  -1-6.61144 224.722  11
  -1  15   1 376.686 208.632   8
  -1  15   1 345.915 207.249  11
  -1  15   1 322.339 242.957  16
  -1  15   1 446.420 419.791   6
   0  15   1 2421.02 559.636   6
   0  15   1 1727.86 319.081   8
   0  15   1 2414.59 416.319  17
   0  15  -1 2206.52 468.743  11
   0  15   1 2144.06 401.919  16
   0  15  -1 2565.57 543.521  16
   0  15  -1 2384.20 648.967   6
   0  15   1 2839.61 426.435  11
   1  15   1 677.125 267.428  17
   1  15   1 497.000 232.233  16
   1  15   1 262.348 209.779   6
  -1  15  -1 296.269 274.243  11
  -1  15  -1 215.123 356.754   6
  -1  15  -1 268.073 226.372  16
  -2  15  -1 317.266 373.944  11
  -2  15  -1 721.648 379.374  16
   2  15   1-197.479 209.050  16
  -2  15  -1 393.588 277.352  13
   2  15   1 165.645 229.163  17
  -2  15  -1 108.640 344.179   6
  -3  15  -1 3586.56 639.539  16
  -3  15  -1 3879.79 612.499   6
  -3  15  -1 3353.98 574.101  13
  -3 -15  -1 4453.46 568.983  12
   3  15   1 3737.72 542.994  17
  -3  15  -1 3905.65 670.617  11
   4  15   1 1160.35 343.041  17
  -4  15  -1 709.477 301.958  11
  -4  15  -1 1412.97 391.634   6
  -4  15  -1 1641.66 461.712  16
  -4  15  -1 1351.64 396.323  13
  -4 -15  -1 1468.97 346.996  12
  -5  15  -1 475.989 280.640  16
  -5  15  -1 12.8285 210.416  13
  -5  15  -1 734.605 210.928   8
   5  15   1 284.858 211.503  17
  -5  15  -1 105.650 151.507  11
  -5 -15  -1 485.811 208.826  12
   6  15   1 1486.65 235.629  17
  -6  15  -1 1757.19 311.894  13
  -6  15  -1 1636.81 211.588   8
  -6 -15  -1 1148.54 223.928  12
  -7  16   1 1208.92 168.916   8
  -7  16   1 1015.81 182.770  13
   7  16  -1 845.377 139.688  17
   6  16  -1 254.251 135.631  17
  -6  16   1 233.247 200.646   9
  -6  16   1-139.250 143.100  11
  -6  16   1 11.1473 167.147  13
  -6  16   1 250.514 166.508  16
   5  16  -1 88.3861 145.967  17
  -5  16   1 311.530 260.223   9
  -5  16   1 82.3959 205.097  16
  -5  16   1 121.600 206.981  13
  -5  16   1 113.588 150.952   6
  -5  16   1 448.638 238.467  11
  -4  16   1 1048.60 381.971  16
   4  16  -1 938.943 268.999  17
  -4  16   1 856.045 316.936   6
  -4  16   1 1056.86 341.527  13
  -4  16   1 1382.78 373.304   9
  -4  16   1 1228.71 388.881  11
  -3  16   1 14726.2 1108.57  16
  -3  16   1 15592.7 1175.99   6
  -3  16   1 15849.2 917.941   8
  -3  16   1 16084.6 1166.87  11
  -3  16   1 15156.0 1084.45  13
   3  16  -1 14659.6 941.513  17
  -3  16   1 15149.7 1040.04   9
  -2  16   1 12368.9 973.361  16
  -2  16   1 13564.8 1208.06   6
   2  16  -1 12436.9 1002.77   6
  -2  16   1 12978.1 802.723   8
  -2  16   1 12266.3 986.906  13
   2  16  -1 11344.6 913.363  11
  -2  16   1 12638.5 1015.42  11
  -1  16   1 685.146 238.759  17
  -1  16   1 682.782 257.476  11
   1  16  -1 683.015 305.082   6
  -1  16   1 413.171 206.133   8
  -1  16   1 812.788 310.048  16
   1  16  -1 522.745 256.406  11
  -1  16   1 615.789 401.523   6
   0  16  -1 24985.3 1505.67  16
   0  16   1 21863.4 1228.47  16
   0  16   1 23454.5 1187.32  17
   0  16   1 23765.5 1204.43  11
   0  16  -1 22391.6 1343.59  11
   0  16   1 24923.2 1581.21   6
   0  16  -1 22555.4 1695.66   6
   1  16   1 22233.7 1337.87   6
  -1  16  -1 20924.9 1330.76  16
  -1  16  -1 24440.9 1743.44   6
   1  16   1 21659.8 1203.91  16
   1  16   1 21859.3 1170.42  17
  -1  16  -1 22519.8 1424.62  11
   2  16   1 3202.00 496.183  17
  -2  16  -1 3184.13 579.559  16
  -2  16  -1 3641.31 666.107   6
   2  16   1 3155.93 453.817  16
  -2  16  -1 2720.49 528.062  13
  -2  16  -1 2891.76 577.366  11
  -3  16  -1 36092.6 1679.35  16
  -3  16  -1 36265.2 1682.41   6
  -3  16  -1 36508.4 1730.80  11
   3  16   1 34177.7 1475.15  17
  -3  16  -1 34320.0 1635.30  13
  -3 -16  -1 33657.8 1358.96  12
   4  16   1 2854.83 449.669  17
  -4  16  -1 3281.68 543.808  16
  -4  16  -1 2452.19 428.630   6
  -4  16  -1 2572.12 449.781  13
  -4 -16  -1 2874.07 391.667  12
  -4  16  -1 3241.63 472.634  11
   5  16   1 287.209 174.343  17
  -5  16  -1 369.806 223.814  16
  -5  16  -1 252.081 202.007  13
  -5 -16  -1 59.4760 105.673  12
  -5  16  -1 206.502 127.527  11
   6  16   1 4414.86 314.419  17
  -6 -16  -1 4870.87 388.746   5
  -6 -16  -1 3786.91 282.070  12
  -6  17   1 3449.12 337.654  16
   6  17  -1 3361.52 275.112  17
  -6  17   1 3803.36 381.824  13
  -6  17   1 3763.60 303.447   8
  -6  17   1 4087.73 350.230  11
   5  17  -1 4211.70 376.312  17
  -5  17   1 4635.03 485.013  11
  -5  17   1 5268.60 458.834   8
  -5  17   1 4166.07 463.606  13
  -5  17   1 4641.47 453.231   6
  -5  17   1 5076.72 529.350  16
  -4  17   1 1158.40 346.478  11
  -4  17   1 799.942 327.528  16
   4  17  -1 1154.73 241.689  17
  -4  17   1 1296.40 334.106  13
  -4  17   1 1649.49 323.901   8
  -4  17   1 1560.86 370.862   6
  -3  17   1 11011.3 911.902  16
  -3  17   1 10936.0 953.719   6
  -3  17   1 11130.6 718.517   8
  -3  17   1 11021.8 938.753  11
  -3  17   1 9927.37 817.112  13
  -2  17   1 12103.2 1081.19   6
  -2  17   1 10806.6 696.545   8
  -2  17   1 10732.4 847.361  13
   2  17  -1 11232.1 847.064  11
  -2  17   1 10823.4 884.403  16
  -2  17   1 11057.4 916.186  11
   2  17  -1 11194.6 895.416   6
  -1  17   1 132.444 193.805  16
   1  17  -1 736.914 268.080  11
  -1  17   1-85.2006 140.627  11
  -1  17   1 713.863 394.374   6
   1  17  -1 573.443 375.998   6
  -1  17   1-60.8492 171.703   8
   0  17   1 1243.32 300.179  17
   0  17   1 1079.09 372.331   6
   0  17  -1 885.027 330.788  11
   0  17   1 1193.40 341.531  16
   0  17   1 965.143 300.792  11
   0  17  -1 1258.70 401.205  16
   0  17  -1 1708.81 554.893   6
   1  17   1 329.176 237.017  17
  -1  17  -1 494.017 315.799  16
   1  17   1 239.177 241.269  16
   1  17   1 547.696 228.782   6
  -1  17  -1 634.333 391.459   6
  -1  17  -1 198.761 323.056  11
   2  17   1 624.472 242.836  17
  -2  17  -1 917.080 356.022  16
  -2  17  -1 943.926 395.865   6
  -2  17  -1 720.131 278.289  13
  -2  17  -1 508.996 394.489  11
  -3  17  -1 7205.18 741.773  11
   3  17   1 6945.29 641.253  17
  -3  17  -1 6696.20 695.397  13
  -3  17  -1 6725.46 693.504   6
  -3  17  -1 7329.94 721.303  16
  -4  17  -1 3099.86 420.935  13
  -4  17  -1 3426.44 475.890  16
   4  17   1 3083.92 402.743  17
  -4  17  -1 3238.06 422.804   6
  -4  17  -1 2997.66 404.260  11
  -5  17  -1 58.0586 135.953  13
   5  17   1 263.827 143.936  17
  -5  17  -1 229.146 82.3921  11
  -5  18   1 1130.58 249.458  16
   5  18  -1 794.939 133.472  17
  -5  18   1 651.397 160.011   6
  -5  18   1 1055.84 227.434  11
  -5  18   1 1091.59 181.823   8
  -5  18   1 1053.61 225.754  13
  -4  18   1 29696.6 1172.67  13
  -4  18   1 30272.4 1002.41   8
  -4  18   1 32185.3 1308.13  16
  -4  18   1 32421.0 1276.99   6
  -4  18   1 33077.8 1319.95  11
  -3  18   1 4618.80 592.580   6
  -3  18   1 4689.53 596.814  16
  -3  18   1 5018.10 602.249  11
  -3  18   1 4410.66 425.479   8
  -3  18   1 4771.28 529.352  13
   2  18  -1 1037.56 300.483   6
  -2  18   1 591.142 339.576   6
  -2  18   1 527.195 265.035  16
  -2  18   1 623.210 189.782   8
  -2  18   1 539.644 293.862  11
  -1  18   1 8883.02 909.897   6
   1  18  -1 8295.35 843.467   6
  -1  18   1 8413.89 736.980  16
  -1  18   1 9063.31 738.441  11
   1  18  -1 9045.43 783.938  11
   0  18   1 9678.79 790.681  16
   0  18  -1 10731.0 872.402  11
   0  18  -1 10128.5 1027.47   6
   0  18   1 10678.6 762.053  17
   0  18   1 11939.8 982.727   6
  -1  18  -1 8898.41 950.318   6
   1  18   1 7196.79 657.293  16
  -1  18  -1 7391.17 709.340  16
   1  18   1 8100.08 716.037   6
   1  18   1 6854.57 641.260  17
  -1  18  -1 7654.26 790.410  11
  -2  18  -1 21191.7 1251.65   6
  -2  18  -1 21094.7 1252.82  11
  -2  18  -1 18740.1 1068.20  16
   2  18   1 18736.6 975.749  17
  -3  18  -1 17494.8 979.426   6
  -3  18  -1 17024.5 936.376  16
   3  18   1 17479.8 874.028  17
  -3  18  -1 15725.3 873.624  13
  -3  18  -1 18200.8 1019.72  11
  -4  18  -1 2470.10 308.189   6
  -4  18  -1 2749.93 363.205  16
  -4  18  -1 2267.87 305.420  13
  -4  18  -1 2200.59 309.054  11
   4  18   1 2765.59 311.442  17
   5  18   1 12025.4 456.495  17
  -5  19   1 9381.60 475.945  16
  -5  19   1 8584.56 449.228  11
  -4  19   1 8024.89 548.617   6
  -4  19   1 9016.48 613.446  16
  -4  19   1 7520.99 488.342  13
  -4  19   1 9422.35 620.072  11
  -3  19   1-2.72985 176.113   6
  -3  19   1 7.68994 179.333  16
  -3  19   1-34.4544 173.461  11
   2  19  -1 19200.7 930.837   6
  -2  19   1 18767.1 1016.88  16
  -2  19   1 20485.0 1037.11  11
  -1  19   1 277.988 245.376  16
  -1  19   1 138.691 268.680   6
   1  19  -1 222.093 243.478   6
  -1  19   1 95.2152 144.132  11
   1  19  -1 795.189 264.057  11
   0  19  -1 6802.22 765.906   6
   0  19   1 7410.93 721.408   6
   0  19  -1 7621.75 686.042  11
   0  19   1 7011.91 635.615  16
  -1  19  -1 12634.1 988.812   6
   1  19   1 11989.6 717.015  17
   1  19   1 12554.1 764.621   6
  -1  19  -1 10866.4 737.243  16
   1  19   1 11598.5 727.064  16
  -1  19  -1 12352.1 888.886  11
   2  19   1 1170.68 259.898  17
  -2  19  -1 1767.60 311.932  16
  -2  19  -1 1434.69 372.855  11
  -2  19  -1 1464.37 349.721   6
  -3  19  -1 2629.61 344.468   6
  -3  19  -1 2197.76 311.455  16
   3  19   1 2332.92 280.178  17
  -3  19  -1 2705.25 355.461  11
   4  19   1 573.976 120.344  17
  -3  20   1 4141.17 391.888  16
  -3  20   1 3945.29 390.968  11
  -3  20   1 5102.16 446.801   6
  -2  20   1 1439.73 285.031  16
  -2  20   1 1239.88 299.188   6
  -2  20   1 1374.41 259.927  11
   1  20  -1 4595.16 479.315   6
  -1  20   1 4197.99 452.294  16
  -1  20   1 4647.72 529.947   6
  -1  20   1 4468.30 391.527  11
   0  20   1 629.044 213.168  16
   0  20   1 820.604 249.271   6
   0  20  -1 1068.90 287.098  11
   0  20  -1 1017.78 323.310   6
  -1  20  -1-83.4223 231.774   6
  -1  20  -1 173.391 201.199  11
   2  20   1 215.338 83.3518  17
  -2  20  -1 505.287 141.673  16
  -2  20  -1 309.221 171.142   6
  -2  20  -1 565.936 233.236  11
  -3  20  -1 498.372 149.270  11
  -2  21   1-204.165 134.282   6
  -1  21   1 146.352 130.854   6
   0  21  -1 3123.70 343.031   6
  -1  21  -1 128.012 126.775   6
 -10   0   2 49882.2 1249.95  10
  -9   0   2 1274.07 289.937  10
  -8   0   2 9844.57 757.089   9
  -8   0   2 10338.5 746.982  10
  -7   0   2 91516.0 2415.08   9
  -7   0   2 93815.6 2629.12  12
  -6   0   2 106.207 268.006   4
   6   0  -2-473.399 280.905  18
  -5   0   2 31145.2 2233.50   2
   5   0  -2 29166.4 1956.82  18
   4   0  -2 224871. 4039.89  19
  -4   0   2 219902. 4401.72   2
   4   0  -2 211689. 4665.55  18
  -3   0   2 31765.2 1431.21   2
   3   0  -2 36246.9 1563.63  19
   3   0  -2 34645.9 1548.55  18
  -2   0   2 245369. 3504.72  20
   2   0  -2 245170. 4022.33  19
  -2   0   2 250593. 3959.23   2
  -1   0   2 24103.6 1118.77  20
  -1   0   2 20457.8 1082.52   2
   1   0  -2 24160.5 1421.05   1
   1   0  -2 23705.3 485.688  21
   1   0  -2 24294.7 1325.12  19
   0   0  -2 36991.7 1739.54  19
   0   0  -2 36438.8 1682.78   1
   0   0   2 36493.1 1545.03   2
   0   0   2 38498.0 1563.15  20
   1   0   2 507265. 6180.06  20
   1   0   2 486801. 4862.49  18
  -1   0  -2 498144. 6555.96  19
   2   0   2 1905.31 426.214  18
  -2   0  -2 2365.98 488.910  19
  -2   0  -2 2355.09 527.929   3
  -2   0  -2 2088.40 372.167   1
   2   0   2 2296.26 529.583  20
  -3   0  -2 26867.7 1884.02   3
  -3   0  -2 27988.0 1544.24  19
   3   0   2 28096.7 2085.96  20
   3   0   2 32158.6 2069.83  18
   4   0   2 261150. 6970.30  20
   4   0   2 231390. 6572.68  18
  -5   0  -2 590.440 205.551  15
  -5   0  -2 371.220 208.797  10
  -5   0  -2 56.6220 163.046  14
  -5   0  -2 428.898 225.369   5
  -6   0  -2 606.671 243.718   5
  -6   0  -2 723.097 259.592  10
  -6   0  -2 509.836 197.825  14
  -7   0  -2 110286. 2179.66  14
  -7   0  -2 114094. 2214.71  10
  -7   0  -2 113135. 2533.12   8
  -7   0  -2 111358. 2625.34   5
  -8   0  -2 1799.74 262.550  10
  -8   0  -2 1908.19 265.175  14
  -8   0  -2 1834.57 314.481   8
  -8   0  -2 1255.66 251.209   5
  -9   0  -2 10434.6 436.863   8
 -10   1   2 8267.61 498.382  10
 -10  -1   2 8688.91 537.349  10
  -9   1   2 3946.27 443.622  10
  -9  -1   2 3770.90 458.552  10
  -8   1   2 7836.63 700.879   9
  -8   1   2 8787.26 680.945  10
  -8  -1   2 8450.86 675.087  10
  -8  -1   2 7689.34 658.518   9
  -7   1   2 888.925 275.316  10
  -7  -1   2 653.354 257.925  10
  -7   1   2 265.996 208.929   9
  -7  -1   2 438.492 236.593  12
  -7  -1   2 810.340 361.753   9
   6  -1  -2 2092.05 601.633  18
   6   1  -2 1780.25 520.150  18
  -6  -1   2 1313.08 533.215   4
  -6   1   2 762.148 454.004   4
  -5  -1   2 24747.3 2086.19   2
  -5   1   2 23161.3 1988.37   2
   5   1  -2 23670.5 1708.08  18
   5  -1  -2 23575.3 1809.38  18
  -4  -1   2 76786.1 2675.57   2
  -4   1   2 75361.5 2511.37   2
  -4   1   2 71219.9 1729.99   3
   4  -1  -2 75371.6 2206.53  19
   4   1  -2 75191.0 2540.12  19
   4  -1  -2 75991.6 2785.23  18
   4   1  -2 70451.5 2654.03  18
   3   1  -2 1299.62 359.218  19
  -3  -1   2 1710.65 382.106   2
  -3   1   2 1950.22 383.946   2
   3   1  -2 1563.52 392.302  18
   3  -1  -2 1217.70 335.967  19
  -2  -1   2 149603. 2631.50  20
  -2   1   2 159755. 2932.44  20
   2  -1  -2 154564. 3177.21  19
   2  -1  -2 161711. 3788.99   1
  -2   1   2 161895. 3124.56   2
  -2  -1   2 161167. 3178.11   2
   2   1  -2 155033. 3301.23  19
  -1   1   2 98109.3 2317.77  20
  -1  -1   2 94556.5 2122.02  20
  -1   1   2 93221.3 2294.07   2
   1  -1  -2 99630.8 2856.57   1
  -1  -1   2 95233.8 2350.20   2
   1   1  -2 95448.2 1343.01  21
   1  -1  -2 97257.0 2627.14  19
   0   1  -2 13087.2 769.964   3
   0   1   2 12344.2 918.851  20
   0  -1  -2 11800.8 987.294   1
   0   1   2 12535.2 919.550   2
   0  -1   2 11881.4 878.721   2
   0  -1  -2 11224.6 1005.03  19
   0   1  -2 12125.7 1038.17  19
   0  -1   2 12664.1 902.386  20
   1  -1   2 71298.6 1699.03  18
   1   1   2 70852.6 2039.16  18
  -1  -1  -2 73961.4 2633.37  19
  -1   1  -2 69764.7 2336.79   3
   1  -1   2 72807.2 2360.71  20
  -1  -1  -2 68001.0 2405.23   1
  -1   1  -2 74468.3 2554.88  19
   2   1   2 36508.4 1663.58  18
  -2   1  -2 37886.0 1979.47   3
  -2  -1  -2 34840.9 1690.83   1
   2  -1   2 39721.1 1607.40  18
   2   1   2 36890.8 1942.42  20
   2  -1   2 39704.3 2122.54  20
  -2  -1  -2 36787.9 1855.26  19
  -2   1  -2 38155.3 1788.28  19
   3   1   2 68147.3 2985.58  18
  -3  -1  -2 63893.6 2422.59  19
  -3   1  -2 67107.1 2977.73   3
  -3  -1  -2 65539.4 2951.21   3
   3  -1   2 58097.3 3099.25  20
   3   1   2 64299.1 3032.99  20
   3  -1   2 71009.2 3053.76  18
   4  -1   2 962.591 527.295  18
   4   1   2 484.015 347.257  18
  -4   1  -2 279.803 261.003   3
  -4  -1  -2 855.967 417.691   3
   4  -1   2 1113.34 508.724  20
   4   1   2 878.279 472.803  20
  -5   1  -2-12.8598 152.270   5
  -5  -1  -2 333.511 164.321   5
  -5   1  -2 380.492 207.411  15
  -5  -1  -2 622.092 247.426  14
  -5   1  -2 498.133 215.117  14
  -5   1  -2 615.162 263.189  10
  -5  -1  -2 599.363 283.578  10
  -6   1  -2 45371.9 1474.72  10
  -6   1  -2 48412.1 1844.25   5
  -6  -1  -2 46078.0 1812.65   5
  -6   1  -2 45001.5 1497.77  14
  -6  -1  -2 46199.6 1580.25  10
  -6  -1  -2 45429.5 1536.09  14
  -7   1  -2 7764.76 577.360  10
  -7   1  -2 6435.78 527.751  14
  -7  -1  -2 7498.49 591.136  14
  -7   1  -2 7020.14 678.954   5
  -7   1  -2 7437.08 664.869   8
  -7  -1  -2 7853.63 683.862   8
  -7  -1  -2 6998.97 695.085   5
  -7  -1  -2 7650.67 601.517  10
  -8   1  -2 293.758 120.628  10
  -8  -1  -2 762.201 232.916   8
  -8  -1  -2 367.589 153.586  10
  -8   1  -2 287.580 156.254  14
  -8  -1  -2 392.449 156.381  14
  -8   1  -2 448.989 199.515   8
  -8   1  -2 365.628 156.123   5
  -8  -1  -2 329.641 167.658   5
  -9   1  -2 15283.7 526.491   8
  -9  -1  -2 13419.9 476.142   8
 -10  -2   2 509.186 180.562  10
 -10   2   2 772.184 159.911  10
  -9   2   2 2325.73 348.789   9
  -9   2   2 3285.04 394.905  10
  -9  -2   2 3181.91 419.172  10
  -8   2   2 25645.2 1245.73   9
  -8  -2   2 29388.9 1517.27  12
  -8   2   2 28419.6 1200.02  10
  -8  -2   2 28019.5 1211.47  10
  -7  -2   2 5948.72 697.496  12
  -7   2   2 5946.63 623.786   9
  -7  -2   2 5641.35 607.629  10
  -7   2   2 5178.97 553.822  10
   6  -2  -2 959.003 442.141  18
   6   2  -2 1020.10 394.899  18
  -6   2   2 616.347 384.956   4
  -5  -2   2 95596.1 4266.74   2
  -5   2   2 91831.7 3970.65   2
   5   2  -2 98288.2 3395.56  18
   5  -2  -2 93786.1 3674.38  18
  -4   2   2 7648.40 820.078   2
   4  -2  -2 7857.72 936.684  18
  -4  -2   2 7746.57 907.653   2
  -4   2   2 6996.03 586.916   3
   4  -2  -2 7876.43 704.201  19
   4   2  -2 7603.91 899.662  19
   4   2  -2 8001.74 890.026  18
   3   2  -2 5850.37 739.997  19
   3   2  -2 5499.08 652.684  18
  -3   2   2 5290.33 561.550   2
   3  -2  -2 4863.18 577.983  19
  -3  -2   2 5303.38 641.522   2
   2   2  -2 98453.7 2131.37  18
  -2   2   2 99641.0 2418.69  20
   2  -2  -2 102779. 3071.39   1
  -2  -2   2 99174.5 1966.21  20
   2  -2  -2 97648.5 2534.62  19
  -2   2   2 103551. 2496.09   2
  -2  -2   2 105209. 2597.58   2
   1  -2  -2 3555.37 560.973  19
   1  -2  -2 4389.38 667.781   1
  -1  -2   2 3901.85 447.999  20
  -1   2   2 3791.23 489.813   2
  -1  -2   2 3848.09 516.023   2
   1   2  -2 3805.98 332.347  21
  -1   2   2 3597.57 499.199  20
   1   2  -2 4656.75 661.696  19
   0  -2  -2 14361.0 1120.36   1
   0   2  -2 14066.2 1110.12  19
   0   2   2 14314.0 1006.00  20
   0   2   2 14363.1 998.762   2
   0  -2   2 12441.7 889.150   2
   0   2  -2 15400.0 724.193  21
   0  -2  -2 15438.0 1207.38  19
   0   2  -2 15007.6 758.703   3
   0  -2   2 14609.4 962.919  20
   1  -2   2 22038.0 850.240  18
   1   2   2 22972.8 1249.33  18
   1  -2   2 23282.8 1355.49  20
  -1  -2  -2 20234.1 1425.42   1
  -1   2  -2 22001.9 1277.92   3
   1   2   2 22878.2 1386.24  20
   1  -2   2 22895.5 1295.26   2
  -1   2  -2 24240.5 1449.57  19
   2   2   2 4873.37 676.531  18
  -2  -2  -2 5504.98 789.982   1
  -2   2  -2 4681.52 724.808   3
   2  -2   2 4393.94 760.624  20
  -2   2  -2 5074.01 665.111  19
   2   2   2 4987.09 738.513  20
  -2  -2  -2 4968.43 754.420  19
   2  -2   2 5534.44 595.726  18
   3   2   2 1146.94 458.366  18
   3  -2   2 1749.01 482.132  18
   3  -2   2 228.032 445.452  20
  -3  -2  -2 925.691 355.630  19
   3   2   2 1018.68 369.421  20
  -3   2  -2 929.066 448.514   3
   4  -2   2 5298.49 958.985  18
   4   2   2 5214.12 1024.61  18
   4  -2   2 5651.28 1047.55  20
   4   2   2 4155.41 832.191  20
  -4   2  -2 5662.62 948.170   3
  -4  -2  -2 5265.93 991.406   3
  -5  -2  -2-71.2085 216.392  10
  -5  -2  -2-448.184 236.747  14
  -5   2  -2 26.6250 114.512  14
  -5   2  -2 133.784 190.095  15
  -5   2  -2 479.428 261.775  10
  -5   2  -2-319.409 185.227   5
  -5  -2  -2 237.090 182.458   5
  -6   2  -2 90.6171 140.863  14
  -6   2  -2 132.745 144.134  10
  -6  -2  -2 137.874 170.057   5
  -6  -2  -2 22.0663 165.661  14
  -6  -2  -2 310.023 192.278  10
  -6   2  -2 264.036 251.420   8
  -6   2  -2 269.475 205.588   5
  -7  -2  -2 8223.39 628.384  10
  -7   2  -2 7591.64 562.915  14
  -7  -2  -2 7750.53 601.398  14
  -7   2  -2 8287.43 719.362   5
  -7   2  -2 8686.26 722.996   8
  -7  -2  -2 8030.79 722.854   5
  -7   2  -2 7841.66 561.704  10
  -8   2  -2 1769.07 214.533  10
  -8  -2  -2 1683.53 268.034  10
  -8  -2  -2 1852.12 282.011  14
  -8   2  -2 2076.28 335.131   8
  -8  -2  -2 1986.93 327.688   8
  -8   2  -2 1753.21 270.078   5
  -8  -2  -2 1795.81 299.643   5
  -8   2  -2 1613.14 230.664  14
  -9   2  -2 2456.65 218.078   8
 -10   3   2 13770.5 550.726  10
 -10  -3   2 15610.9 695.526  10
  -9  -3   2 1750.26 323.651  10
  -9   3   2 1577.23 275.667  10
  -9   3   2 1547.80 289.350   9
  -8  -3   2 23287.9 1360.79  12
  -8   3   2 21084.9 1137.26   9
  -8   3   2 22860.9 1058.64  10
  -8  -3   2 21404.3 1044.52  10
  -7  -3   2 28591.7 1303.97  10
  -7   3   2 25367.7 1286.83   9
   7   3  -2 27472.9 1263.21  17
  -7  -3   2 28396.4 1463.50  12
  -7   3   2 26225.0 1192.43  10
   6   3  -2 1551.18 482.322  18
  -6   3   2 2116.91 704.439   4
   6  -3  -2 2902.84 711.149  18
   5   3  -2 5015.12 777.697  18
  -5   3   2 6325.63 1084.93   4
  -5  -3   2 5370.70 1075.35   2
  -5   3   2 5312.40 983.075   2
   5  -3  -2 6736.49 994.183  18
   5   3  -2 5184.51 927.342  19
  -4   3   2 17239.0 1232.45   2
   4  -3  -2 18152.9 1379.56  18
  -4  -3   2 18882.0 1491.31   2
   4   3  -2 16999.1 1450.92  19
   4   3  -2 17089.3 1271.35  18
   3   3  -2 8064.43 766.881  18
  -3  -3   2 8567.95 820.527   2
   3  -3  -2 8062.14 967.256   1
  -3   3   2 7797.32 672.026   2
   3  -3  -2 8821.42 754.616  19
   3   3  -2 8606.19 912.822  19
   2   3  -2 1483.21 305.465  18
  -2  -3   2 1602.07 237.402  20
   2   3  -2 1522.33 471.143  19
  -2  -3   2 1461.90 367.046   2
   2  -3  -2 1526.01 385.025  19
  -2   3   2 1489.52 314.524   2
  -2   3   2 1317.24 352.104  20
   2  -3  -2 2001.52 519.906   1
   1   3  -2 7602.24 315.725  18
  -1  -3   2 9514.52 645.658  20
   1  -3  -2 10339.0 1001.98   1
  -1   3   2 10507.3 854.085  20
   1  -3  -2 10494.1 947.652  19
  -1   3   2 10123.5 770.137   2
  -1  -3   2 10617.7 831.769   2
   1   3  -2 10003.6 602.053  21
   1   3  -2 10970.9 1004.59  19
   1   3  -2 10119.5 426.871  18
   0   3   2 623.330 281.323   2
   0   3   2 628.714 321.417  20
   0  -3   2 239.371 186.443   2
   0  -3  -2 91.3340 277.713   1
   0   3  -2 676.656 209.848   3
   0   3  -2 558.567 186.475  21
   0  -3   2 731.843 261.257  20
   0   3  -2 480.360 314.501  19
   1  -3   2 254.191 219.960   2
  -1  -3  -2 497.857 315.843   1
  -1   3  -2 238.897 181.539   3
  -1   3  -2 866.317 364.899  19
   1  -3   2 860.530 313.306  20
   1   3   2 1150.82 356.830  20
   2   3   2 11977.4 1063.22  18
  -2  -3  -2 13528.0 1352.32   1
   2   3   2 13978.3 1211.18  20
  -2   3  -2 12375.1 1162.29   3
  -2   3  -2 13435.2 1060.51  19
   2  -3   2 13882.7 1439.93  20
   2  -3   2 12439.2 806.748  18
   3  -3   2-18.8901 168.230  18
  -3  -3  -2-339.553 245.601  19
   3   3   2 287.399 306.392  18
   3   3   2 255.119 286.900  20
   3  -3   2-3.55856 276.262  20
  -3   3  -2 720.032 371.958   3
   4   3   2 1381.33 565.087  18
  -4   3  -2 815.664 457.598   3
  -4  -3  -2 761.395 447.163   3
   4   3   2 1249.85 525.153  20
   4  -3   2 1150.86 540.601  20
  -5  -3  -2 1832.77 405.586  10
  -5   3  -2 1051.72 293.579  15
  -5  -3  -2 1280.74 321.036  14
  -5   3  -2 1508.73 319.464  14
  -5  -3  -2 1762.68 330.303  12
  -5   3  -2 1409.56 348.415   5
  -5  -3  -2 1764.86 392.711   5
  -6   3  -2 2731.80 364.010  14
  -6   3  -2 2575.31 357.137  10
  -6  -3  -2 2696.72 420.296  10
  -6  -3  -2 2651.80 466.860   5
  -6  -3  -2 2221.12 372.816  14
  -6   3  -2 2851.15 462.477   8
  -6  -3  -2 2463.86 395.079  12
  -6   3  -2 2504.57 435.905   5
  -7  -3  -2-182.828 171.661  14
  -7   3  -2 142.789 124.336  14
  -7  -3  -2-38.3992 205.656   5
  -7   3  -2-193.509 216.906   8
  -7   3  -2-26.3096 162.103   5
  -7  -3  -2-41.7157 151.474  10
  -8  -3  -2 23.1686 117.944  10
  -8  -3  -2-26.9646 112.469  14
  -8   3  -2 21.4817 176.436   8
  -8  -3  -2 137.688 136.050   8
  -8   3  -2-264.657 142.398   5
  -8  -3  -2-19.7501 113.795   5
  -9   3  -2 4072.89 258.334   8
 -10  -4   2 1542.81 238.568  10
  -9   4   2-35.8902 94.7050  10
  -9  -4   2 283.709 181.785  10
  -9   4   2 274.476 146.553   9
  -8   4   2 1190.58 265.850  10
  -8  -4   2 882.455 259.746  10
  -8   4   2 1120.71 324.380   9
  -8   4   2 1021.95 223.862   8
  -8  -4   2 1027.09 327.631  12
   7   4  -2 299.833 223.862  17
  -7   4   2 493.452 227.432  10
  -7  -4   2 515.085 224.732  10
  -7   4   2 229.092 211.909   9
  -7   4   2 201.671 154.801   8
  -7  -4   2 16.8966 216.618  12
   6  -4  -2 657.115 394.656  18
  -6   4   2 412.776 311.605   4
   5  -4  -2 469.962 317.356  18
   5   4  -2-790.612 339.625  18
   5   4  -2-550.995 411.085  19
  -5  -4   2-412.215 477.033   2
  -5   4   2-234.602 236.648   4
  -4   4   2 8921.01 929.343   2
   4   4  -2 8893.78 1159.47  19
  -4  -4   2 8700.39 1110.84   2
   4  -4  -2 9097.64 985.951  18
   4   4  -2 7906.44 860.092  18
  -3  -4   2 18270.5 1226.01   2
   3  -4  -2 16911.0 1391.28   1
  -3   4   2 16679.5 969.966   2
   3  -4  -2 15712.7 1027.53  19
   3   4  -2 18184.6 1410.12  19
   3   4  -2 16765.4 1038.78  18
  -2   4   2 2658.60 468.065  20
  -2  -4   2 2302.13 430.833   2
   2   4  -2 3170.90 599.210  19
   2  -4  -2 2336.21 532.779   1
  -2   4   2 2344.74 378.741   2
   2  -4  -2 2655.40 503.009  19
  -2  -4   2 2429.83 241.486  20
   2   4  -2 2333.16 286.270  18
   1   4  -2 925.999 428.871  19
  -1  -4   2 788.314 289.360   2
   1  -4  -2 1009.92 425.137   1
  -1   4   2 781.126 324.756  20
  -1  -4   2 588.249 200.582  20
   1   4  -2 874.943 215.531  21
  -1   4   2 586.007 229.080   2
   0   4   2 16651.5 1127.38  20
   0  -4   2 16515.4 1000.71  20
   0   4  -2 16453.0 840.442   3
   0  -4  -2 17854.2 1367.57   1
   0   4  -2 18037.1 1363.41  19
   0   4   2 18053.7 1161.32   2
   0   4  -2 16362.6 913.290  21
   0  -4   2 17199.1 1064.18   2
   0   4   2 14290.7 371.718  21
   1  -4   2 2178.36 431.181   2
  -1   4  -2 2513.11 455.957   3
   1   4   2 2913.77 566.719  20
  -1   4  -2 2381.92 584.470  19
  -1   4  -2 2218.75 421.492  21
   1  -4   2 2599.59 512.398  20
  -1  -4  -2 2333.61 648.969   1
   2  -4   2 2520.71 495.121   2
   2   4   2 2967.35 597.171  20
  -2   4  -2 2472.04 549.571   3
  -2   4  -2 2227.85 467.541  19
  -2  -4  -2 2365.91 742.395   1
   2   4   2 2526.17 531.093  18
   2  -4   2 3742.87 804.489  20
   3   4   2 27119.9 1935.40  18
  -3  -4  -2 28977.6 2029.65   1
  -3   4  -2 26377.4 1944.32   3
   3   4   2 24892.2 1851.27  20
   4  -4   2-666.439 373.762  20
  -4   4  -2-78.7643 216.289   3
   4   4   2 15.2414 245.278  20
   4   4   2 381.719 365.164  18
  -5  -4  -2 5206.07 557.958  14
  -5   4  -2 4545.35 576.443   5
  -5   4  -2 4153.98 575.189  13
  -5  -4  -2 5707.92 681.637   5
  -5  -4  -2 5826.38 643.208  12
  -5   4  -2 4900.09 579.017  15
  -5   4  -2 4493.39 549.966   8
  -5  -4  -2 5175.29 587.757  10
  -6  -4  -2 2707.51 432.479  10
  -6  -4  -2 2643.16 397.113  14
  -6   4  -2 2762.47 473.134   8
  -6  -4  -2 2550.94 484.637   5
  -6  -4  -2 2151.79 390.066  12
  -6   4  -2 2693.67 465.382   5
  -7  -4  -2-2.25392 152.630  10
  -7  -4  -2 188.080 199.577   5
  -7  -4  -2 85.8002 157.829  14
  -7   4  -2 15.2842 197.337   8
  -7  -4  -2-0.85271 147.917  12
  -7   4  -2-57.3081 237.775   5
  -8  -4  -2 1841.96 269.667  10
  -8  -4  -2 1982.96 276.573  14
  -8   4  -2 2203.93 299.922   8
  -8  -4  -2 2027.77 295.760   8
  -8   4  -2 1715.53 237.768   5
  -8  -4  -2 1826.09 286.141   5
 -10  -5   2 9166.75 485.554  10
  -9   5   2 14601.8 840.319   9
  -9  -5   2 14660.3 764.269  10
  -8  -5   2 430.478 195.689  10
  -8   5   2 151.478 149.936  10
  -8   5   2 409.591 280.327   9
  -8   5   2 441.498 204.123   8
  -8  -5   2 388.313 301.742  12
  -7   5   2 13857.1 977.032   9
  -7   5   2 16262.5 978.725   8
  -7  -5   2 16134.5 1117.59  12
   7   5  -2 15505.9 961.202  17
  -7   5   2 14643.8 854.792  10
  -7  -5   2 14794.2 923.551  10
  -6  -5   2 9100.25 771.022  10
   6   5  -2 7917.78 1109.72  18
  -6  -5   2 9575.56 850.102  12
   6   5  -2 9564.80 721.713  17
  -6   5   2 9269.03 775.579   9
   5  -5  -2 160.653 180.312  18
  -5  -5   2-271.800 517.615   2
  -5   5   2 239.684 311.314   4
   5   5  -2 662.538 341.744  18
  -4   5   2 4680.51 923.745   4
  -4  -5   2 6715.52 1043.50   2
   4   5  -2 4801.66 1000.72  19
   4   5  -2 5576.61 743.915  18
   3  -5  -2 2719.68 609.548   1
  -3  -5   2 3058.81 557.255   2
   3  -5  -2 2675.97 487.106  19
   3   5  -2 3330.05 719.857  19
  -3   5   2 3501.76 429.523   2
   3   5  -2 2462.36 413.329  18
   2   5  -2 1406.04 471.428  19
  -2   5   2 1065.13 236.942   2
  -2  -5   2 1206.57 331.737   2
  -2   5   2 954.871 294.669  20
   2  -5  -2 1052.90 434.831   1
   2   5  -2 891.434 294.352  21
  -1   5   2 7917.36 801.692  20
   1  -5  -2 8030.23 942.544   1
  -1  -5   2 8343.19 760.982   2
   1   5  -2 7233.74 645.222  21
  -1   5   2 7817.80 691.513   2
  -1  -5   2 6930.28 506.163  20
   1   5  -2 8849.69 1025.99  19
   0   5   2 572.081 246.363   2
   0  -5  -2 723.691 397.380   1
   0  -5   2 222.890 198.119   2
   0   5  -2 442.234 173.179   3
   0   5  -2 715.391 233.741  21
   0  -5   2 362.720 190.241  20
   0   5   2 577.188 128.000  21
   0   5   2 312.755 254.889  20
   0   5  -2 603.854 320.076  19
   1  -5   2 171.596 186.821   2
  -1   5  -2 75.9185 132.819   3
  -1   5  -2-170.271 228.741  19
   1   5   2 356.558 285.943  20
  -1   5  -2-135.770 198.374  21
   1  -5   2-257.891 236.083  20
   2   5   2 22910.6 1597.58  18
   2  -5   2 25079.2 2153.19  20
  -2   5  -2 21970.3 1563.04   3
   2   5   2 22233.3 1576.05  20
  -2   5  -2 22454.3 1424.27  19
   2  -5   2 24531.1 1505.09   2
   3   5   2 25822.6 1938.62  18
  -3  -5  -2 29908.3 2252.81   1
   3  -5   2 21662.3 2309.25  20
  -3   5  -2 26151.8 1987.65   3
   3   5   2 26852.3 1935.68  20
   3  -5   2 29099.2 1888.58   2
   4   5   2 338.186 549.905  18
  -4   5  -2 370.856 327.947   3
   4  -5   2 567.817 388.448  20
  -5   5  -2 5955.02 708.646  13
  -5   5  -2 5720.68 645.473  15
  -5  -5  -2 7560.77 717.656  10
  -5  -5  -2 6717.96 616.235  14
  -5   5  -2 6954.41 719.930   5
  -5   5  -2 6757.90 651.518   8
  -5  -5  -2 6629.45 754.081   5
  -5  -5  -2 6090.44 663.356  12
  -6   5  -2 9782.21 807.806  15
  -6  -5  -2 8868.11 671.771  14
  -6   5  -2 10684.6 873.169   5
  -6   5  -2 10949.0 856.268   8
  -6  -5  -2 10670.0 926.113   5
  -6  -5  -2 9871.88 819.144  12
  -6  -5  -2 10312.0 743.219  10
  -7  -5  -2 2055.12 330.017  14
  -7   5  -2 2343.43 436.073   8
  -7  -5  -2 2152.62 336.055  10
  -7   5  -2 2379.10 378.158   5
  -7  -5  -2 2131.71 403.026   5
  -7  -5  -2 2370.45 370.507  12
  -8  -5  -2 3838.67 355.518  10
  -8  -5  -2 3931.52 358.830  14
  -8   5  -2 3886.75 384.585   8
  -8  -5  -2 3832.73 365.944   8
  -8  -5  -2 3865.07 385.068   5
 -10  -6   2 535.061 120.929  10
  -9   6   2 846.579 213.415   8
  -9   6   2 1493.82 296.166   9
  -9  -6   2 1499.71 257.530  10
  -8   6   2 4000.34 523.236   9
  -8   6   2 4111.79 456.040   8
  -8  -6   2 4834.67 631.835  12
   8   6  -2 4613.33 532.104  17
  -8  -6   2 4530.47 469.410  10
   7   6  -2 16196.8 990.399  17
  -7   6   2 17429.3 1032.37   8
  -7  -6   2 16493.3 1098.42  12
  -7   6   2 16259.6 1059.19   9
  -7  -6   2 15974.0 935.239  10
  -6  -6   2 14297.2 949.625  10
   6   6  -2 15219.0 918.375  17
  -6   6   2 14710.0 984.290   9
  -6   6   2 13169.9 930.195   8
  -6  -6   2 15964.1 1093.24  12
  -5   6   2 39849.4 2809.04   4
   5  -6  -2 41670.5 2601.22  18
   4   6  -2 27162.8 2459.07  19
  -4   6   2 27538.5 2238.19   4
  -3  -6   2 6004.38 834.357   2
  -3   6   2 3960.47 822.440   4
   3  -6  -2 5878.36 881.382   1
   3   6  -2 5231.06 1012.69  19
   3  -6  -2 6259.48 729.802  19
  -2  -6   2 5727.62 670.649   2
   2  -6  -2 6447.03 932.446   1
   2   6  -2 6248.29 991.845  19
   2   6  -2 6453.54 731.347  21
  -2   6   2 5661.88 535.761   2
  -1  -6   2 92101.6 1719.47  20
   1  -6  -2 93957.4 3264.40   1
  -1  -6   2 105614. 2664.30   2
   1   6  -2 93335.8 2482.77  21
  -1   6   2 96901.8 2363.70   2
   1   6  -2 100618. 3686.98  19
  -1   6   2 102722. 2863.46  20
   0  -6  -2 2198.01 548.082   1
   0   6   2 2792.17 479.476   2
   0  -6   2 2713.27 447.341   2
   0  -6   2 2587.68 405.624  20
   0   6  -2 2983.77 683.917  19
   0   6  -2 2229.27 427.970  21
   0   6   2 2749.92 523.077  20
   1  -6   2 189.011 175.502  20
  -1   6  -2 326.028 137.347  19
   1  -6   2 9.05412 81.0978   2
  -1   6  -2 313.863 172.450   3
   1   6   2-426.117 289.754  20
  -1  -6  -2 300.672 435.189   1
  -1   6  -2-16.9810 161.406  21
   2  -6   2 340.631 203.991   2
  -2   6  -2 458.025 299.359   3
  -2  -6  -2 165.620 500.977   1
   2   6   2 560.629 353.794  20
   3   6   2 891.910 436.334  18
   3  -6   2 1734.24 714.608  20
  -3   6  -2 239.818 249.790   3
  -3  -6  -2 543.972 382.838   1
   3   6   2 1775.33 522.881  20
   4   6   2 293.769 248.516  18
  -4  -6  -2 1026.55 315.229  10
  -4  -6  -2 65.9075 154.450  12
   4  -6   2 596.417 445.266  20
  -4   6  -2 350.332 229.928  15
  -4   6  -2-303.771 190.409  13
  -4   6  -2 38.2135 239.192  16
  -4   6  -2 577.164 228.107   5
  -5  -6  -2 8107.73 719.827  10
  -5  -6  -2 6971.67 612.454  14
  -5   6  -2 6981.70 765.725  13
  -5   6  -2 7560.54 735.949  15
  -5   6  -2 7055.16 728.341   5
  -5   6  -2 7665.50 700.835   8
  -5  -6  -2 6843.42 733.344  12
  -6  -6  -2 392.694 189.287  10
  -6   6  -2 936.635 390.095  15
  -6   6  -2 354.735 249.179   8
  -6  -6  -2 161.144 177.308  14
  -6   6  -2 711.711 262.317   5
  -6  -6  -2-97.6475 200.815  12
  -6  -6  -2 267.868 253.894   5
  -7  -6  -2 7029.83 555.591  14
  -7   6  -2 7619.33 641.575   8
  -7  -6  -2 6209.20 623.541   5
  -7  -6  -2 6482.26 527.694  10
  -7   6  -2 6308.50 556.271   5
  -7  -6  -2 6940.67 617.440  12
  -8  -6  -2 7655.59 463.906  10
  -8  -6  -2 7518.69 461.439  14
  -8  -6  -2 6671.14 419.954   8
  -8   6  -2 8007.11 502.591   8
  -8  -6  -2 7678.20 506.441   5
  -8  -6  -2 6530.89 420.326  12
 -10  -7   2 37829.1 780.627  10
  -9  -7   2 1556.08 242.219  10
  -9   7   2 1526.78 297.162   9
  -9   7   2 1190.73 223.676   8
   8   7  -2 2215.01 389.194  17
  -8  -7   2 1863.17 296.540  10
  -8   7   2 2144.34 427.874   9
  -8   7   2 1711.11 316.455   8
  -8  -7   2 2196.14 464.822  12
   7   7  -2 95025.1 2373.55  17
  -7   7   2 89121.9 2318.69   8
  -7   7   2 88635.9 2370.32  13
  -7  -7   2 87360.2 2493.97  12
  -7   7   2 90622.7 2511.94   9
  -7   7   2 93527.0 2282.45  11
  -7  -7   2 87342.3 2146.71  10
   6   7  -2 19925.8 1065.68  17
  -6   7   2 20302.5 1184.92   9
  -6   7   2 17656.3 1089.19   8
  -6   7   2 19818.6 1274.33  13
  -6  -7   2 20740.4 1226.07  12
  -6  -7   2 17335.0 1018.05  10
   5  -7  -2 4442.21 914.096  18
  -5   7   2 4925.67 1033.73   4
  -4   7   2 13163.9 1579.30   4
  -4  -7   2 11745.6 1673.00   2
   4  -7  -2 10683.7 1232.05   1
   4   7  -2 9643.12 1559.99  19
  -3   7   2 32053.8 2295.60   4
  -3  -7   2 41790.0 2291.97   2
   3  -7  -2 38437.5 1874.50  19
   3   7  -2 30062.5 2537.07  19
   3  -7  -2 36506.3 2272.63   1
   3   7  -2 34949.5 1933.23  21
   2   7  -2 21652.8 1392.56  21
   2  -7  -2 23609.3 1832.67   1
  -2   7   2 19665.2 1738.16   4
   2   7  -2 22672.7 2022.25  19
  -2  -7   2 24167.4 1407.87   2
  -1  -7   2 9327.81 806.027   2
   1  -7  -2 9225.01 1083.52   1
  -1   7   2 9510.42 733.363   2
  -1   7   2 7072.56 969.314   4
   1   7  -2 9530.67 1309.68  19
   1   7  -2 8858.41 841.899  21
  -1   7   2 10880.6 970.709  20
   0  -7  -2 86494.1 3459.76   1
   0   7  -2 99639.8 4083.73  19
   0   7  -2 87480.7 2668.04  21
   0   7   2 97850.7 2735.41   2
   0   7   2 97029.0 2988.84  20
   0  -7   2 101270. 2637.84   2
   0  -7   2 85606.3 2262.54  20
  -1   7  -2 5889.42 695.589   3
  -1   7  -2 6617.14 977.324  19
   1   7   2 5910.85 793.352  20
   1  -7   2 5741.33 759.712  20
  -1   7  -2 5846.52 766.115  21
  -1  -7  -2 7064.02 1264.51   1
  -2   7  -2 12465.4 1219.30   3
   2   7   2 12898.4 1227.61  20
   2  -7   2 13834.9 1678.97  20
  -3   7  -2-56.7875 189.873   3
   3  -7   2 183.873 209.865  20
  -4   7  -2 1.27734 150.754  13
   4   7   2 465.089 218.815  17
  -4  -7  -2 96.6499 183.687  10
  -4   7  -2-14.2067 156.005  15
  -4  -7  -2 195.967 130.117  14
  -4   7  -2 220.612 281.114  16
  -4   7  -2 198.933 175.148   8
  -4   7  -2 263.960 205.285   5
  -4  -7  -2 222.156 251.775  12
  -5   7  -2 16792.2 1106.30  15
  -5  -7  -2 16313.6 907.898  14
  -5   7  -2 18511.5 1156.13   5
  -5   7  -2 16266.3 1122.08  13
  -5   7  -2 18449.6 1069.26   8
  -5  -7  -2 16716.1 1126.75  12
  -5  -7  -2 17843.7 1026.89  10
  -6  -7  -2 541.711 227.215  10
  -6  -7  -2 609.308 258.170   5
  -6   7  -2 351.095 247.028   8
  -6  -7  -2 331.766 192.185  14
  -6   7  -2 291.013 177.884   5
  -6  -7  -2 96.5318 204.840  12
  -7   7  -2 8541.67 601.071   5
  -7  -7  -2 9207.73 607.046  14
  -7   7  -2 10483.2 705.947   8
  -7  -7  -2 9655.48 724.433   5
  -7  -7  -2 9894.95 713.400  12
  -7  -7  -2 9152.04 596.747  10
  -8  -7  -2 6522.12 396.616  10
  -8  -7  -2 7034.77 421.582  14
  -8   7  -2 7061.46 435.732   8
  -8  -7  -2 7023.17 457.553   5
  -8  -7  -2 5907.30 390.751  12
  10  -8  -2 1842.61 204.025   7
  -9   8   2 2293.22 344.214   9
  -9   8   2 2391.50 291.899   8
  -9  -8   2 2270.13 267.483  10
  -8  -8   2 475.720 163.739  10
  -8   8   2 207.233 236.661   9
  -8   8   2-214.112 200.584   8
   8   8  -2 311.274 227.911  17
  -8  -8   2 703.492 277.654  12
   7   8  -2 40517.7 1553.97  17
  -7   8   2 39331.3 1511.62  11
  -7   8   2 39109.4 1690.25   9
  -7   8   2 38225.6 1527.02   8
  -7   8   2 37730.6 1576.95  13
  -7  -8   2 36433.7 1560.18  12
  -7  -8   2 37559.2 1378.95  10
   6   8  -2 1783.42 355.565  17
  -6  -8   2 1850.28 335.209  10
  -6   8   2 1856.54 437.134   9
  -6   8   2 1786.79 427.348  13
  -6   8   2 1895.47 373.774   8
  -6  -8   2 1881.99 399.989  12
   5  -8  -2 1720.76 512.973  18
  -5   8   2 1460.56 324.382   9
   5   8  -2 1757.54 339.912  17
  -5   8   2 2368.81 535.848  13
  -5   8   2 1628.46 317.433   8
  -4   8   2 17874.8 1775.67   4
   4   8  -2 18552.3 1620.38  21
  -3   8   2 5903.07 1009.64   4
   3  -8  -2 6906.25 1048.49   1
  -3  -8   2 6571.13 1034.73   2
   3   8  -2 6461.35 876.561  21
   3   8  -2 6776.61 1285.61  19
  -2  -8   2 17397.3 1288.09   2
  -2   8   2 14935.3 1520.44   4
   2  -8  -2 13665.9 1462.97   1
   2   8  -2 13662.2 1178.25  21
   2   8  -2 15676.0 1917.23  19
   1  -8  -2 6949.33 985.922   1
  -1   8   2 5179.40 772.132   4
  -1  -8   2 6952.38 691.595   2
  -1   8   2 6961.76 778.149  20
   1   8  -2 5749.10 749.938  21
   1   8  -2 7398.16 1378.07  19
   0  -8  -2 58040.1 2997.46   1
   0   8  -2 55125.1 2300.46  21
   0   8   2 58369.5 2353.25  20
   0   8  -2 63978.7 3773.58  19
   1  -8   2 66511.0 2549.14  20
   1   8   2 67641.3 2653.23  20
  -1   8  -2 63220.1 2603.72  21
  -1   8  -2 69995.4 3706.49  19
  -2  -8  -2 4230.34 1178.34   1
   2   8   2 7281.87 906.336  20
   2  -8   2 6164.23 1116.56  20
  -2   8  -2 7266.72 941.710   3
  -3   8  -2 14548.0 1564.45   3
   3  -8   2 13941.0 1920.29  20
   4   8   2 69736.3 2077.60  17
  -4  -8  -2 74867.4 2275.99  10
  -4  -8  -2 63984.1 1763.26  14
  -4   8  -2 62689.6 2233.30  16
  -4   8  -2 61420.2 2086.12  15
  -4   8  -2 67042.9 2192.33   5
  -4   8  -2 60313.8 2157.44  13
  -4   8  -2 67447.8 2019.29   8
  -4  -8  -2 62783.3 2074.88  12
  -5   8  -2 1131.66 370.923  15
  -5  -8  -2 1137.55 253.386  14
  -5   8  -2 1247.41 353.684  13
   5   8   2 1233.50 329.339  17
  -5   8  -2 1434.15 350.322   8
  -5  -8  -2 1306.36 310.885  10
  -5   8  -2 1170.42 331.457   5
  -5  -8  -2 1255.77 382.339  12
  -6  -8  -2 2645.68 361.708  10
  -6  -8  -2 2420.38 368.073  14
  -6   8  -2 2229.54 375.420   8
  -6   8  -2 2358.43 377.121   5
  -6  -8  -2 2370.42 438.597  12
  -6  -8  -2 3013.05 514.085   5
  -7  -8  -2 12702.7 651.554  10
  -7  -8  -2 12899.0 690.286  14
  -7   8  -2 11325.1 642.273   5
  -7   8  -2 13916.3 756.855   8
  -7  -8  -2 12274.4 784.031   5
  -7  -8  -2 13768.4 812.070  12
  -8  -8  -2 13.1361 74.4379  10
  -8  -8  -2-54.8742 72.5481  14
  -8   8  -2-111.737 84.2527   8
  -8  -8  -2-178.303 87.1092  12
  -8  -8  -2 152.664 93.4605   5
  -9   9   2 13136.4 604.940   8
  -9   9   2 14459.8 746.226   9
   8   9  -2 11472.0 774.036  17
  -8   9   2 10118.6 810.709   9
  -8   9   2 8736.34 646.813   8
  -8   9   2 8927.92 674.954  13
  -8  -9   2 9832.33 760.123  12
  -8   9   2 8584.68 610.535  11
  -8  -9   2 9235.64 581.194  10
   7   9  -2 38947.2 1507.25  17
  -7   9   2 37491.8 1658.56   9
  -7   9   2 35579.3 1463.67   8
  -7   9   2 36766.1 1564.93  13
  -7  -9   2 32278.5 1441.98  12
  -7   9   2 36107.4 1451.39  11
  -7  -9   2 35249.5 1296.70  10
   6   9  -2 27248.5 1253.58  17
  -6   9   2 26112.2 1342.45   8
  -6   9   2 28311.6 1562.91  13
  -6  -9   2 25388.4 1333.42  12
  -6   9   2 28044.5 1321.84  11
  -6   9   2 28085.9 1456.86   9
   5   9  -2 42682.1 1556.50  17
  -5   9   2 47221.6 1867.57   9
  -5   9   2 43980.7 1678.65   8
  -5   9   2 46263.1 2184.81  13
  -5  -9   2 44391.5 1867.80  12
  -4   9   2 67796.0 3515.81   4
   4   9  -2 67509.4 3163.29  21
  -3  -9   2 31496.4 2573.55   2
  -3   9   2 32481.9 2346.11   4
   3  -9  -2 33049.3 2362.81   1
   3   9  -2 29609.5 1952.06  21
  -2   9   2 81208.1 3406.71   4
   2  -9  -2 87044.5 3805.27   1
   2   9  -2 80693.1 3021.42  21
   1  -9  -2 167431. 5046.63   1
   1   9  -2 175384. 7326.08  19
   1   9  -2 170147. 4266.50  21
   0  -9  -2 110091. 4312.68   1
   0  -9   2 117474. 3327.14   1
   0   9   2 111941. 3288.84  20
   0   9  -2 110013. 3483.71  21
   0   9  -2 120948. 5913.84  19
  -1   9  -2 36951.7 2116.51  21
   1   9   2 37072.8 1989.08  20
  -1   9  -2 36988.3 2989.08  19
  -2  -9  -2 52578.9 4270.30   1
   2  -9   2 74197.8 3716.75  20
   3   9   2 81283.5 2083.21  17
  -3   9  -2 77482.4 2338.11  16
  -3   9  -2 68447.7 2722.72   9
  -3   9  -2 84887.1 2199.29  15
  -3   9  -2 82064.8 2368.84   5
  -3   9  -2 86208.1 2812.71  13
  -3  -9  -2 84576.8 2199.61  12
   3  -9   2 66475.2 3980.20  20
   4   9   2-1.10427 149.616  17
  -4  -9  -2-217.650 154.518  10
  -4   9  -2-272.591 367.894   9
  -4  -9  -2-254.571 157.962  14
  -4   9  -2 46.0928 272.253  13
  -4   9  -2-318.094 249.575   8
  -4   9  -2 57.8459 204.252  16
  -4   9  -2 16.0950 166.263   5
  -4  -9  -2-205.182 223.878  12
  -4   9  -2-103.368 212.403  15
  -5  -9  -2 23029.2 1074.78  10
   5   9   2 24193.1 1238.28  17
  -5  -9  -2 24784.1 1082.47  14
  -5   9  -2 22530.8 1220.15   5
  -5   9  -2 23281.0 1260.23  15
  -5   9  -2 21684.0 1311.33  13
  -5   9  -2 24455.5 1191.17   8
  -5  -9  -2 22988.4 1291.61  12
  -6  -9  -2 87437.1 1860.89  10
   6   9   2 95719.8 2040.09  17
  -6  -9  -2 92519.2 1990.16  14
  -6   9  -2 89948.2 2129.95   5
  -6   9  -2 92553.3 2126.77   8
  -6  -9  -2 93796.7 2474.55   5
  -6  -9  -2 93513.6 2367.09  12
  -7  -9  -2 1714.28 251.254  10
  -7  -9  -2 1333.90 231.173  14
  -7   9  -2 1231.97 228.060   8
  -7   9  -2 1278.72 220.277   5
  -7  -9  -2 1708.04 319.053   5
  -7  -9  -2 1455.97 283.973  12
  -8  -9  -2 7923.29 391.753   5
  -8   9  -2 9259.28 384.561   8
  -9  10   2 7469.65 499.850   9
  -9  10   2 7038.10 417.676   8
   8  10  -2 1480.66 315.524  17
  -8  10   2 1686.60 352.011   9
  -8  10   2 1311.25 262.899  13
  -8  10   2 1732.96 312.826   8
  -8 -10   2 1310.88 314.436  12
  -8  10   2 1129.93 231.881  11
   7  10  -2 10075.6 769.270  17
  -7  10   2 10187.7 897.521   9
  -7  10   2 10235.9 794.921   8
  -7  10   2 9467.31 831.220  13
  -7 -10   2 9006.12 745.884  12
  -7  10   2 10012.4 767.725  11
   6  10  -2 7963.31 679.390  17
  -6  10   2 9147.93 866.468   9
  -6  10   2 7520.00 739.371   8
  -6  10   2 8875.39 895.126  13
  -6 -10   2 8142.11 758.547  12
  -6  10   2 7765.26 735.559  11
   5  10  -2 2013.79 383.957  17
  -5  10   2 2670.92 475.185  16
  -5  10   2 2250.76 475.122   9
  -5  10   2 1986.65 395.841  11
  -5  10   2 1492.62 526.174  13
  -5  10   2 1827.25 362.818   8
   4  10  -2 30350.0 1397.97  17
  -4  10   2 31210.1 1345.20  16
  -4  10   2 29372.1 1475.61   9
  -4  10   2 28900.2 1262.18   8
  -4  10   2 26518.2 1686.23  13
  -4  10   2 31524.6 1445.40  11
   3 -10  -2 1863.60 613.737   1
  -3  10   2 2486.43 719.386   4
  -3 -10   2 4411.24 990.699   1
   3  10  -2 2893.72 646.505  21
   2 -10  -2 1608.19 605.167   1
   2  10  -2 1830.96 830.924  19
   2  10  -2 492.544 282.193  21
  -2 -10   2 360.394 278.554   1
   1 -10  -2 1955.48 619.157   1
   1  10  -2 1419.79 437.084  21
   1  10  -2 1021.52 673.578  19
  -1 -10   2 1952.17 521.390   1
   0 -10  -2 6.54088 110.585   1
   0  10  -2 431.322 280.010  21
   0  10  -2 337.557 511.220  19
  -1 -10  -2 12080.0 1831.16   1
  -1  10  -2 12097.1 1302.26  21
  -2  10  -2 8311.37 715.950   5
  -2 -10  -2 6465.14 1576.53   1
  -3  10  -2 4753.35 615.949   6
   3  10   2 5192.08 566.031  17
  -3  10  -2 4235.72 587.136  16
  -3  10  -2 4623.87 561.157  15
  -3  10  -2 5327.92 626.947   5
  -3  10  -2 5447.47 759.782  13
  -3 -10  -2 4666.09 551.871  12
  -4 -10  -2 27368.1 1206.65  10
  -4  10  -2 23808.2 1409.59  16
  -4  10  -2 22771.8 1281.92  15
   4  10   2 24478.4 1269.09  17
  -4  10  -2 23063.1 1272.59   5
  -4  10  -2 24673.1 1181.86   8
  -4  10  -2 23385.9 1394.08  13
  -4 -10  -2 22275.1 1276.74  12
   5  10   2 264.549 207.163  17
  -5  10  -2 223.550 253.080  15
  -5  10  -2 333.721 282.180  13
  -5 -10  -2 398.659 203.724  14
  -5  10  -2 362.226 212.960   8
  -5  10  -2 407.265 220.733   5
  -5 -10  -2 454.848 281.919  12
  -5 -10  -2 203.384 145.831  10
   6  10   2 5579.21 486.349  17
  -6 -10  -2 5994.90 477.426  10
  -6 -10  -2 5311.67 469.516  14
  -6  10  -2 5434.65 510.253   5
  -6  10  -2 6167.64 526.595   8
  -6 -10  -2 6406.06 646.458   5
  -6 -10  -2 5703.30 601.984  12
  -7 -10  -2 14222.8 590.361  10
  -7 -10  -2 13538.9 597.990  14
  -7  10  -2 14140.5 634.955   8
  -7 -10  -2 15068.8 767.024   5
  -7 -10  -2 16016.9 773.295  12
  -9  11   2 147.443 94.7078   9
   9 -11  -2 179.875 80.4754   7
  -8  11   2 3413.92 355.689  11
  -8  11   2 3854.38 418.856   8
  -8  11   2 2929.79 383.653  13
   8  11  -2 3711.08 419.101  17
  -8 -11   2 2809.48 358.005  12
  -8  11   2 3306.85 445.957   9
   7  11  -2 3179.48 443.016  17
  -7  11   2 3632.72 565.859   9
  -7  11   2 3290.28 466.648   8
  -7  11   2 2356.76 437.258  13
  -7 -11   2 2374.85 376.367  12
  -7  11   2 3174.76 452.218  11
   6  11  -2 1542.85 324.378  17
  -6  11   2 1975.62 497.905  13
  -6  11   2 1236.23 359.351   8
  -6 -11   2 1236.06 316.406  12
  -6  11   2 1602.62 443.872   9
  -6  11   2 1308.19 350.175  11
   5  11  -2 1023.57 277.026  17
  -5  11   2 1604.15 372.485  16
  -5  11   2 1807.40 421.030   9
  -5  11   2 1351.46 380.486   6
  -5  11   2 1781.81 520.108  13
  -5  11   2 1276.21 353.169   8
  -5  11   2 1747.92 393.828  11
   4  11  -2 43166.7 1689.58  17
  -4  11   2 37799.4 1554.52  16
  -4  11   2 38899.2 1770.88   9
  -4  11   2 38209.6 1481.74   8
  -4  11   2 34114.9 1917.42  13
  -4  11   2 38789.3 1684.79  11
  -3  11   2 76.2776 146.393  11
  -3  11   2 85.0041 124.735   8
  -3  11   2-68.9152 343.763  13
  -3  11   2 85.9470 179.158  16
   3  11  -2-133.333 229.651  11
   2  11  -2-478.994 338.837  21
   2 -11  -2-463.214 316.017   1
  -2 -11   2 12.1639 75.3477   1
   1 -11  -2 13973.2 1636.81   1
  -1 -11   2 15370.5 1456.57   1
   1  11  -2 15665.4 1513.37  21
   0 -11  -2 8076.60 1283.01   1
   0  11  -2 8213.36 1115.31  21
  -1  11  -2 6026.33 903.248   6
  -1 -11  -2 6926.94 1499.49   1
  -1  11  -2 5873.92 593.056   5
   1  11   2 6191.94 568.693  17
   2  11   2 17262.7 985.980  17
  -2  11  -2 17369.8 1059.76   5
  -2  11  -2 15193.7 1447.31  13
  -2  11  -2 15108.5 1048.36  16
  -2 -11  -2 16824.9 976.488  12
  -2  11  -2 15022.9 1117.04   6
  -2  11  -2 13490.1 1299.90  11
  -2  11  -2 16472.2 900.488  15
  -3  11  -2 14481.7 1056.53   6
   3  11   2 15325.1 971.886  17
  -3  11  -2 14814.5 1087.76  16
  -3  11  -2 13968.3 949.920  15
  -3  11  -2 16674.1 1088.31   5
  -3  11  -2 16806.0 1304.16  13
  -3 -11  -2 16137.1 1048.95  12
  -3  11  -2 16628.0 1217.89  11
   4  11   2 138.391 213.681  17
  -4  11  -2 81.5986 295.786  16
  -4  11  -2 89.4622 210.740  15
  -4  11  -2 25.6783 244.937  13
  -4  11  -2 210.845 208.669   5
  -4 -11  -2 407.329 279.690  12
  -5 -11  -2 5464.41 472.272  10
   5  11   2 4700.44 553.798  17
  -5  11  -2 5027.96 550.902  15
  -5  11  -2 5681.94 584.161   5
  -5  11  -2 5582.98 524.504   8
  -5  11  -2 4556.13 631.020  13
  -5 -11  -2 5254.37 613.862  12
  -6 -11  -2 7073.16 466.572  10
   6  11   2 6439.95 509.858  17
  -6 -11  -2 6132.59 448.233  14
  -6  11  -2 6074.99 500.192   5
  -6  11  -2 6714.10 505.020   8
  -6 -11  -2 7345.13 661.292   5
  -6 -11  -2 6761.96 595.719  12
  -7  11  -2 5397.65 348.173   8
  -7 -11  -2 6101.84 458.006   5
  -7 -11  -2 6483.78 456.377  12
  -8  12   2-61.2249 154.658   9
  -8  12   2 112.466 114.446  13
  -8  12   2 129.737 88.1559  11
   8 -12  -2-110.527 112.167   7
   7  12  -2 5155.47 514.852  17
  -7  12   2 6235.68 593.762   8
  -7  12   2 4231.19 523.058  13
  -7 -12   2 4637.14 488.559  12
  -7  12   2 5212.00 632.744   9
  -7  12   2 4684.49 506.588  11
   6  12  -2 20.0496 150.205  17
  -6  12   2 162.798 209.944  16
  -6  12   2 298.714 311.518   9
  -6  12   2 238.223 256.053  13
  -6  12   2 489.027 314.386   8
  -6  12   2 195.789 221.775  11
   5  12  -2 187.369 190.410  17
  -5  12   2 446.388 281.566   9
  -5  12   2 22.2249 242.128   6
  -5  12   2 377.081 247.936  16
  -5  12   2 344.877 310.617  13
  -5  12   2 251.566 317.827   8
  -5  12   2 49.8827 223.756  11
   4  12  -2 1605.73 393.002  17
  -4  12   2 1314.07 384.720   9
  -4  12   2 2235.10 436.277  16
  -4  12   2 2135.60 600.663   6
  -4  12   2 2203.43 454.307  11
  -4  12   2 2283.26 442.392   8
  -4  12   2 1563.42 440.105  13
  -4  12   2 2307.50 406.078  17
  -3  12   2 6609.33 655.399  16
  -3  12   2 5912.69 601.872  17
  -3  12   2 7304.82 644.857   8
  -3  12   2 5601.97 782.936  13
   3  12  -2 6117.37 678.757   6
  -3  12   2 6522.94 717.265  11
  -3  12   2 7274.25 736.884   9
   3  12  -2 6440.97 735.054  11
  -2  12   2 14953.7 960.805  16
  -2  12   2 15094.2 917.609  17
  -2  12   2 16082.1 913.807   8
  -2  12   2 12563.3 1155.61  13
   2  12  -2 11898.9 1010.42   6
   2  12  -2 13283.9 1006.89  11
  -2  12   2 14900.3 984.516  11
  -1  12   2 1480.57 320.330  17
  -1  12   2 1667.71 342.221  16
   1  12  -2 1613.20 386.549  11
  -1  12   2 1647.56 325.766   8
   1  12  -2 2696.66 664.331   6
   0  12   2 47664.5 1681.07  16
   0  12  -2 53324.3 1764.83   5
   0  12   2 50346.0 1593.55   8
   0  12   2 54819.5 1695.15  17
   0 -12  -2 50158.3 1578.73  12
   0  12  -2 47651.1 1983.24  11
   1  12   2 13655.5 880.754  17
   1  12   2 13658.8 1182.52   6
   1  12   2 12001.0 878.448  16
  -1  12  -2 13242.3 1078.47  16
  -1  12  -2 13830.8 937.050   5
  -1  12  -2 13321.3 1319.91   6
  -1  12  -2 13981.2 1242.30  11
  -1  12  -2 13425.7 1197.60  13
  -1 -12  -2 13796.5 870.457  12
   1  12   2 12461.0 803.022   8
  -1  12  -2 12790.1 734.108  15
  -2  12  -2 12190.0 1049.71   6
  -2  12  -2 10410.8 908.970  16
   2  12   2 10904.6 872.433  16
  -2  12  -2 11360.6 781.579  15
  -2  12  -2 12393.4 936.074   5
   2  12   2 12024.2 849.094  17
  -2  12  -2 11815.9 1237.22  13
  -2 -12  -2 12516.8 882.142  12
  -2  12  -2 9692.71 1104.41  11
  -3  12  -2 23882.3 1348.15   6
   3  12   2 24404.5 1256.38  17
  -3  12  -2 23408.0 1371.74  16
  -3  12  -2 23330.2 1250.11  15
  -3  12  -2 26994.6 1394.08   5
  -3  12  -2 26595.0 1661.30  13
  -3 -12  -2 26282.0 1359.83  12
   3  12   2 25182.8 1299.15  16
  -3  12  -2 27584.7 1550.17  11
   4  12   2 6786.24 672.462  17
  -4  12  -2 7828.93 845.722  16
   4  12   2 8149.18 684.144  16
  -4  12  -2 6910.01 681.951  15
  -4  12  -2 7769.34 733.611   5
  -4  12  -2 7314.76 825.307  13
  -4 -12  -2 6531.88 699.013  12
   5  12   2 6016.60 588.401  17
  -5  12  -2 8286.35 658.466   5
  -5  12  -2 6719.03 541.311   8
  -5  12  -2 7349.33 775.407  13
  -5 -12  -2 7111.79 680.224  12
  -5  12  -2 6549.56 584.306  15
  -6  12  -2 11046.3 601.056   5
  -6  12  -2 9672.71 536.114   8
  -6 -12  -2 12285.3 792.731   5
  -6 -12  -2 11372.5 704.995  12
   6  12   2 11682.9 615.183  17
  -7 -12  -2 114.674 108.111   5
  -7 -12  -2 183.112 103.414  12
  -8  13   2 1260.68 241.420   9
  -8  13   2 1558.44 242.986  13
  -8  13   2 860.632 159.771  11
   7  13  -2 1441.84 277.702  17
  -7  13   2 1357.08 285.771  11
  -7  13   2 1703.09 395.181   9
  -7  13   2 1371.07 311.570  13
   7 -13  -2 1501.87 246.562   7
   6  13  -2 236.669 185.619  17
  -6  13   2 271.838 264.233   9
  -6  13   2 248.548 269.453  11
  -6  13   2 196.922 247.394  13
  -6  13   2 923.388 449.427   8
  -6  13   2 214.020 199.178  16
   5  13  -2 5924.86 585.818  17
  -5  13   2 6050.65 741.899   6
  -5  13   2 6336.81 698.573  16
  -5  13   2 6933.16 733.168   8
  -5  13   2 5999.51 763.424  13
  -5  13   2 6361.38 760.528   9
  -5  13   2 6728.64 730.107  11
   4  13  -2 652.495 267.893  17
  -4  13   2 620.963 259.376  17
  -4  13   2 248.187 250.836  16
  -4  13   2 102.257 189.455   9
  -4  13   2-109.244 243.678   6
  -4  13   2 1228.60 393.842   8
  -4  13   2 615.925 242.717  13
  -4  13   2 852.761 350.990  11
  -3  13   2 5782.32 880.671   6
  -3  13   2 5580.58 644.632  16
  -3  13   2 5901.22 659.343   9
  -3  13   2 5979.13 608.968   8
  -3  13   2 4965.50 547.822  17
  -3  13   2 4715.91 748.235  13
  -3  13   2 5635.52 698.098  11
   3  13  -2 5689.93 694.154  11
   3  13  -2 4516.35 590.359   6
   2  13  -2 13183.7 1092.59   6
  -2  13   2 16770.0 1554.99   6
  -2  13   2 14801.6 1003.94  16
  -2  13   2 14692.1 926.133  17
  -2  13   2 14056.3 887.322   8
  -2  13   2 13079.1 1222.63  13
   2  13  -2 13811.8 1068.44  11
  -2  13   2 15322.4 1039.28  11
  -1  13   2 20777.8 1769.19   6
  -1  13   2 17730.5 1078.93  16
  -1  13   2 18084.0 1002.68   8
  -1  13   2 18004.9 1005.28  17
  -1  13   2 14030.6 1270.71  13
  -1  13   2 18008.3 1037.58  11
   1  13  -2 20089.3 1609.33   6
   1  13  -2 16014.0 1122.87  11
   0  13   2 132.081 234.629  16
   0  13  -2-167.601 446.576   6
   0  13   2 84.0975 385.092   6
   0  13  -2-739.100 356.771  11
   0  13   2-149.346 174.532   8
   0  13   2 134.289 158.700  17
   0 -13  -2-58.6678 82.8808  12
   1  13   2 1199.65 304.758  17
  -1  13  -2 1175.82 409.098  16
  -1  13  -2 1264.73 512.480   6
   1  13   2 1482.59 352.258  16
   1  13   2 1352.06 411.007   6
   1  13   2 880.538 258.137   8
  -1  13  -2 1315.77 451.310  13
  -1  13  -2 978.758 276.316   5
  -1 -13  -2 1358.04 293.526  12
  -1  13  -2 1060.15 420.943  11
   2  13   2 19225.0 1098.71  17
   2  13   2 16706.5 1068.87  16
  -2  13  -2 16483.7 1160.78  16
  -2  13  -2 17353.8 993.119  15
  -2  13  -2 19881.2 1200.96   5
  -2  13  -2 16194.2 1233.80   6
  -2  13  -2 16700.4 1444.39  13
  -2 -13  -2 18183.2 1098.79  12
  -2  13  -2 16341.5 1419.87  11
  -3  13  -2 5877.36 709.482   6
  -3  13  -2 5182.51 677.722  16
   3  13   2 4860.90 578.478  16
  -3  13  -2 5878.41 641.929  15
  -3  13  -2 5058.22 774.063  13
  -3 -13  -2 5452.33 652.976  12
  -3  13  -2 6162.83 689.122   5
   3  13   2 5810.37 632.725  17
  -3  13  -2 5872.45 745.920  11
   4  13   2 2414.61 426.247  17
  -4  13  -2 1664.19 456.655  16
  -4  13  -2 1729.51 336.884  15
  -4  13  -2 1858.77 467.025  13
  -4  13  -2 1848.33 372.636   5
  -4 -13  -2 1858.78 418.003  12
   5  13   2 2267.65 361.752  17
  -5  13  -2 2437.81 466.477  13
  -5  13  -2 1702.05 313.199   5
  -5 -13  -2 2323.57 387.945  12
   6  13   2 15156.4 633.476  17
  -6 -13  -2 16325.2 768.550  12
  -8  14   2 237.290 113.549   9
  -8  14   2 560.221 143.836   8
   7  14  -2 18701.9 781.029  17
  -7  14   2 19808.9 981.373   9
  -7  14   2 22230.6 911.595   8
  -7  14   2 20074.0 967.267  13
  -7  14   2 19830.7 890.322  11
   6  14  -2 7837.77 585.672  17
  -6  14   2 8125.94 694.999  16
  -6  14   2 8528.22 772.190   9
  -6  14   2 8855.61 775.511  13
  -6  14   2 8903.58 732.722  11
   5  14  -2 4477.27 501.679  17
  -5  14   2 4097.43 555.788  16
  -5  14   2 3837.53 586.870   9
  -5  14   2 3563.24 554.411   6
  -5  14   2 5277.00 662.822   8
  -5  14   2 4783.03 656.200  13
  -5  14   2 3622.61 548.838  11
  -4  14   2 88720.9 2868.57   6
  -4  14   2 89393.9 2665.79   9
  -4  14   2 86116.6 2259.38   8
  -4  14   2 89458.3 2839.74  13
  -4  14   2 86839.7 2489.35  16
  -4  14   2 91797.9 2705.66  11
   3  14  -2 7485.16 783.867   6
  -3  14   2 7631.47 734.775   9
  -3  14   2 8370.85 1006.63   6
  -3  14   2 8262.38 794.241  16
  -3  14   2 8501.79 713.172   8
  -3  14   2 7154.98 890.011  13
  -3  14   2 7398.86 674.030  17
  -3  14   2 7754.17 796.726  11
   2  14  -2 7651.61 849.026   6
  -2  14   2 8222.20 705.119  17
  -2  14   2 8414.34 1084.23   6
  -2  14   2 7933.98 768.495  16
  -2  14   2 7784.51 668.289   8
  -2  14   2 6193.63 868.824  13
   2  14  -2 7497.26 803.522  11
  -2  14   2 8521.03 774.172  11
  -1  14   2 23349.3 1164.16  17
  -1  14   2 23628.7 1812.92   6
  -1  14   2 21671.7 1220.22  16
  -1  14   2 22733.7 1117.86   8
   1  14  -2 24304.4 1767.16   6
   1  14  -2 20418.1 1297.85  11
  -1  14   2 22897.8 1188.15  11
   0  14   2 40.2386 176.088  17
   0  14   2 426.178 333.671   6
   0  14   2 561.599 273.066  16
   0  14   2 456.823 220.686   8
   0  14  -2 571.554 542.165   6
   0 -14  -2 344.408 178.592  12
   0  14  -2 687.558 315.719  11
  -1  14  -2 22521.4 1734.21   6
   1  14   2 22578.9 1180.15  17
   1  14   2 21212.2 1356.24   6
  -1  14  -2 21586.3 1402.87  16
   1  14   2 21433.4 1211.56  16
  -1  14  -2 20977.3 1416.55  13
  -1 -14  -2 22595.0 1181.10  12
  -1  14  -2 22123.8 1594.43  11
   1  14   2 21702.1 1065.33   8
   2  14   2 29272.5 1370.69  17
  -2  14  -2 26273.2 1463.09  16
   2  14   2 25730.5 1317.33  16
  -2  14  -2 30360.4 1499.28   5
  -2  14  -2 27479.2 1777.36  13
  -2 -14  -2 28942.6 1414.92  12
  -2  14  -2 27612.6 1605.47   6
  -2  14  -2 26479.8 1745.07  11
  -3  14  -2 2496.23 501.375  16
   3  14   2 2519.05 458.450  17
  -3  14  -2 2548.82 520.271   6
   3  14   2 2419.72 406.005  16
  -3  14  -2 2395.63 391.267  15
  -3  14  -2 2412.11 501.206  11
  -3  14  -2 2219.98 526.592  13
  -3  14  -2 2176.47 437.129   5
  -3 -14  -2 2516.43 473.260  12
   4  14   2 13083.4 875.535  17
  -4  14  -2 14017.3 1039.49  16
  -4  14  -2 13153.5 750.160  15
  -4  14  -2 13416.6 876.201   5
  -4  14  -2 14031.0 1042.93  13
  -4 -14  -2 14073.9 933.873  12
  -4  14  -2 12525.8 822.028  11
   5  14   2 3712.50 408.102  17
  -5 -14  -2 3901.19 444.144  12
   6  14   2 12150.6 496.155  17
  -6 -14  -2 12584.4 603.289  12
  -7  15   2 12706.7 683.045   9
  -7  15   2 14522.7 645.260   8
  -7  15   2 14235.6 731.584  13
  -7  15   2 13451.4 656.728  11
   6  15  -2 853.569 200.554  17
  -6  15   2 937.065 253.989  16
  -6  15   2 558.339 270.891   9
  -6  15   2 798.560 276.240  13
  -6  15   2 602.620 255.435  11
   5  15  -2 854.623 230.713  17
  -5  15   2 622.909 263.291  16
  -5  15   2 613.031 265.687   6
  -5  15   2 633.313 323.648   9
  -5  15   2 916.689 329.238  13
  -5  15   2 1289.73 364.831  11
  -4  15   2 19142.7 1274.59   6
  -4  15   2 19122.3 1179.29   9
  -4  15   2 20534.8 1122.43   8
  -4  15   2 20823.2 1295.16  13
  -4  15   2 19866.5 1204.70  16
  -4  15   2 22090.0 1311.19  11
   3  15  -2 7023.95 740.553   6
  -3  15   2 6724.98 869.888   6
  -3  15   2 6439.09 626.262   8
  -3  15   2 7378.36 874.455  13
  -3  15   2 7387.40 760.393  16
  -3  15   2 7215.72 682.190   9
  -3  15   2 6561.38 619.513  17
  -3  15   2 7404.73 789.569  11
   2  15  -2 5372.53 706.654   6
  -2  15   2 5519.26 592.835  17
  -2  15   2 6527.17 916.648   6
  -2  15   2 6145.55 698.396  16
  -2  15   2 5523.12 570.791   8
  -2  15   2 6805.93 843.445  13
   2  15  -2 6462.26 743.936  11
  -2  15   2 6358.42 688.253  11
  -1  15   2 145.045 179.644  17
   1  15  -2-49.8435 461.672   6
  -1  15   2 591.745 296.392  16
  -1  15   2 165.903 319.764   6
  -1  15   2-327.814 230.615   8
   1  15  -2 185.685 263.951  11
  -1  15   2 460.553 246.049  11
   0  15   2 458.700 260.887  16
   0  15  -2 491.645 320.712  11
   0  15   2 59.3483 255.565   6
   0  15   2 350.393 188.766   8
   0  15   2 627.136 280.128  17
   1  15   2 2160.92 424.605  17
  -1  15  -2 2429.46 486.651  16
  -1  15  -2 1829.74 615.931   6
   1  15   2 2045.12 422.514   6
  -1  15  -2 1596.53 531.121  11
  -1 -15  -2 1820.10 369.476  12
   1  15   2 1783.38 420.903  16
   2  15   2-78.1327 215.853  17
  -2  15  -2 50.9656 316.361   6
  -2  15  -2 267.225 383.090  13
  -2 -15  -2 111.668 207.881  12
   2  15   2 105.337 219.202  16
  -2  15  -2-508.809 441.286  11
  -2  15  -2 442.831 292.688  16
   3  15   2 45.5885 227.654  17
  -3  15  -2 194.404 248.653  16
  -3  15  -2-259.199 290.661   6
   3  15   2 136.849 161.889  16
  -3  15  -2 322.559 279.318  11
  -3  15  -2 219.288 301.553  13
  -3 -15  -2 35.3438 167.923  12
   4  15   2 2759.09 415.359  17
  -4  15  -2 2660.06 467.978  16
  -4  15  -2 2840.47 478.071  13
  -4 -15  -2 3002.94 430.343  12
  -4  15  -2 2935.65 401.924  11
   5  15   2 213.761 133.394  17
  -5 -15  -2 267.644 143.400  12
  -5 -15  -2 161.896 158.044   5
  -6 -15  -2 3845.31 297.619   5
  -6 -15  -2 4121.20 286.467  12
  -7  16   2-163.934 83.4894  11
  -7  16   2 77.0878 93.2031  13
  -7  16   2-210.170 98.5151   8
   6  16  -2 242.167 112.301  17
  -6  16   2 697.047 192.732  16
  -6  16   2 433.618 191.947   9
  -6  16   2 700.392 245.370  13
  -6  16   2 1059.97 249.452   8
  -6  16   2 573.265 202.564  11
   5  16  -2 15208.9 722.722  17
  -5  16   2 16999.2 971.739   6
  -5  16   2 16281.3 968.461  16
  -5  16   2 14736.1 906.667   9
  -5  16   2 16632.1 906.748   8
  -5  16   2 16913.4 1004.69  13
  -5  16   2 16810.8 1007.36  11
  -4  16   2 880.483 333.591  16
  -4  16   2 459.729 243.452   9
  -4  16   2 857.749 341.645   6
  -4  16   2 933.374 335.617   8
  -4  16   2 733.259 311.711  13
  -4  16   2 1068.38 347.774  11
  -3  16   2 3007.90 399.281  17
  -3  16   2 3498.77 531.912  16
   3  16  -2 2865.78 474.427   6
  -3  16   2 3862.88 674.934   6
  -3  16   2 3516.74 453.016   8
  -3  16   2 3280.25 539.733  11
  -3  16   2 3180.78 540.827  13
   2  16  -2 13803.9 1093.24   6
  -2  16   2 15794.7 942.589  17
  -2  16   2 17267.3 1383.48   6
  -2  16   2 15375.1 886.482   8
  -2  16   2 15840.3 1070.32  16
  -2  16   2 16733.1 1191.00  13
   2  16  -2 14700.0 1074.89  11
  -2  16   2 16327.6 1063.83  11
  -1  16   2 951.755 307.894  17
   1  16  -2 887.018 415.462   6
  -1  16   2 914.659 243.901  11
  -1  16   2 1274.88 284.635   8
  -1  16   2 1156.55 425.289   6
  -1  16   2 1219.78 353.608  16
   1  16  -2 1319.48 399.211  11
   0  16  -2 11342.5 1273.47   6
   0  16   2 12815.7 1097.80   6
   0  16   2 12730.2 874.365  17
   0  16   2 12672.0 933.147  16
   0  16   2 12690.5 784.762   8
   0  16  -2 12010.9 1063.47  11
   1  16   2 1667.73 385.845  17
  -1  16  -2 1387.28 421.272  16
   1  16   2 1479.99 365.174  16
   1  16   2 1944.45 388.435   6
  -1  16  -2 1573.41 609.960   6
  -1 -16  -2 1764.56 355.331  12
  -1  16  -2 1691.92 562.261  11
   2  16   2-79.3593 223.793  17
  -2  16  -2 342.210 241.652  16
   2  16   2 526.436 222.058  16
  -2  16  -2 186.102 296.614   6
  -2  16  -2-235.575 307.208  13
  -2 -16  -2 67.8532 173.919  12
  -2  16  -2 338.107 328.685  11
  -3  16  -2 17077.3 1063.65   6
   3  16   2 15724.5 937.635  17
  -3  16  -2 16179.1 1007.43  16
   3  16   2 15155.9 797.168  16
  -3  16  -2 15433.3 1054.47  13
  -3 -16  -2 18218.1 983.883  12
  -3  16  -2 16716.0 1020.48  11
   4  16   2 1322.71 278.944  17
  -4 -16  -2 1301.00 264.946  12
  -4  16  -2 1575.75 260.568  11
   5  16   2 1163.23 183.902  17
  -5 -16  -2 1112.40 215.966   5
  -5 -16  -2 1336.99 198.637  12
  -6  17   2 154.665 85.1645  16
  -6  17   2-85.8298 130.354   8
  -6  17   2 13.8821 120.415  13
  -6  17   2 196.542 116.713  11
  -5  17   2 13169.0 780.385  16
  -5  17   2 13360.8 767.888   6
  -5  17   2 13140.3 704.912   8
  -5  17   2 12406.0 780.963  13
  -5  17   2 13577.9 813.505  11
  -4  17   2 333.790 238.654  16
  -4  17   2 42.3479 225.091   6
  -4  17   2 276.381 202.640   8
  -4  17   2 634.369 247.609  13
  -4  17   2 749.985 312.672  11
  -3  17   2-5.33208 216.970   6
  -3  17   2 62.9160 214.731  13
  -3  17   2 58.8161 244.681  16
  -3  17   2-134.098 248.220  11
   2  17  -2 7972.87 805.083   6
  -2  17   2 7450.10 624.667  17
  -2  17   2 10152.3 993.163   6
  -2  17   2 8983.31 798.382  16
  -2  17   2 8010.48 736.580  13
  -2  17   2 8264.57 616.250   8
  -2  17   2 8346.97 723.780  11
  -1  17   2 3386.56 454.456  17
  -1  17   2 3796.80 550.685  16
  -1  17   2 3596.23 636.846   6
  -1  17   2 3390.02 408.008   8
   1  17  -2 3190.74 627.393   6
   1  17  -2 4062.66 595.490  11
   0  17   2 326.198 224.697  17
   0  17   2 222.868 232.187  16
   0  17   2-213.224 227.413   6
   0  17  -2 480.606 332.640  11
   1  17   2 3773.61 490.724  17
   1  17   2 3242.22 477.250   6
   1  17   2 3529.08 497.300  16
  -1  17  -2 4146.64 579.923  16
  -1  17  -2 3768.71 705.922   6
  -1  17  -2 3317.87 635.612  11
   2  17   2 620.362 275.500  17
  -2  17  -2-25.3613 179.799  16
  -2  17  -2 255.828 283.798   6
   2  17   2 362.683 204.085  16
  -2 -17  -2 514.686 172.884  12
  -2  17  -2 578.223 350.392  11
  -3  17  -2 3098.37 424.137   6
  -3  17  -2 2507.14 371.347  16
   3  17   2 3093.42 407.069  17
  -3 -17  -2 2671.70 343.775  12
  -3  17  -2 2789.14 415.203  11
   4  17   2 87.4623 117.854  17
  -4 -17  -2 159.455 106.730  12
  -5  18   2 8993.73 517.309   6
  -5  18   2 10328.5 586.671  16
  -5  18   2 10008.0 510.722   8
  -5  18   2 10194.7 592.869  13
  -5  18   2 10088.6 600.849  11
  -4  18   2 1186.39 291.920  16
  -4  18   2 1197.28 301.667   6
  -4  18   2 1434.29 294.284  11
  -4  18   2 1054.06 230.074   8
  -4  18   2 1336.91 273.276  13
  -3  18   2 328.432 237.619  16
  -3  18   2 105.694 239.909   6
  -3  18   2-275.195 205.712   8
  -3  18   2 158.090 197.222  13
  -3  18   2-117.605 186.008  11
   2  18  -2 26902.2 1284.60   6
  -2  18   2 31771.6 1564.38   6
  -2  18   2 29453.1 1319.96  16
  -2  18   2 30326.4 1061.83   8
  -2  18   2 27809.9 1061.53  17
  -2  18   2 28245.8 1166.79  11
   1  18  -2 9938.07 921.279   6
  -1  18   2 11471.4 750.473  17
  -1  18   2 10349.0 919.487   6
  -1  18   2 10302.7 780.479  16
  -1  18   2 10777.6 631.574   8
   1  18  -2 10948.2 870.586  11
   0  18   2-282.989 197.108  17
   0  18  -2 299.121 373.920   6
   0  18   2 11.5324 213.362  16
   0  18   2-412.953 256.094   6
   0  18  -2 673.846 389.961  11
  -1  18  -2 37584.2 1723.25   6
   1  18   2 33909.2 1283.42  17
   1  18   2 32145.9 1265.07  16
  -1  18  -2 35191.7 1599.09  11
   2  18   2 1441.63 292.032  17
  -2  18  -2 1225.11 244.872  16
  -2  18  -2 1496.81 374.455   6
   2  18   2 1262.07 239.979  16
  -2  18  -2 2020.24 399.798  11
   3  18   2 2126.01 292.352  17
  -3  18  -2 2061.65 302.932   6
  -3  18  -2 2236.04 311.735  11
   4  18   2 23514.9 668.337  17
  -4  19   2 248.498 141.736  16
  -4  19   2 598.336 180.999   6
  -4  19   2 561.542 122.400   8
  -4  19   2 538.799 139.551  13
  -4  19   2 304.591 157.762  11
  -3  19   2 14506.6 813.397  16
  -3  19   2 14815.8 862.662   6
  -3  19   2 13637.5 603.359   8
  -3  19   2 12467.5 695.510  11
   2  19  -2 416.589 202.688   6
  -2  19   2 285.170 221.438  16
  -2  19   2 242.819 248.532   6
  -2  19   2 291.885 122.661   8
  -2  19   2 65.0865 117.463  11
  -1  19   2 878.612 220.537  17
   1  19  -2 707.794 285.966   6
  -1  19   2 298.669 184.219  16
  -1  19   2 812.409 287.122   6
   0  19   2 3482.44 397.727  17
   0  19   2 3389.04 419.762   6
   0  19   2 2723.86 389.964  16
   0  19  -2 3382.53 568.058   6
   0  19  -2 4118.61 563.128  11
   1  19   2 953.605 229.303  17
  -1  19  -2 1093.72 322.812   6
   1  19   2 1306.18 243.057  16
   2  19   2 39.5409 112.022  17
  -2  19  -2 291.821 174.326   6
   3  19   2 2492.54 228.518  17
  -3  20   2 94.5193 109.954  16
  -3  20   2 86.4313 102.483   6
  -2  20   2 4001.11 425.441   6
  -2  20   2 3610.84 380.685  16
   1  20  -2 320.359 182.645   6
  -1  20   2 154.773 142.177  16
  -1  20   2 453.519 195.158   6
   0  20  -2 4552.28 481.870   6
   0  20   2 3464.30 340.998  16
  -1  20  -2 11207.2 656.072   6
 -10   0   3 20.4738 104.323  10
  -9   0   3-0.86262 138.454   9
  -9   0   3 237.203 184.578  10
  -8   0   3 40.5593 220.955  10
  -8   0   3-380.812 243.992   9
  -7   0   3-25.8044 249.450  10
  -6   0   3-326.482 252.010  10
  -6   0   3-279.171 274.083   2
   5   0  -3-285.439 255.614  18
  -5   0   3-320.065 222.067   2
   4   0  -3-381.119 225.513  18
   4   0  -3-91.1430 267.767  19
  -4   0   3-75.6919 207.026   2
  -3   0   3 116.045 224.105   2
  -3   0   3 59.5147 101.885  20
  -2   0   3 103.217 230.434   2
   2   0  -3 35.4701 319.000  19
  -2   0   3 285.169 239.526  20
   1   0  -3-536.714 399.731  19
  -1   0   3-37.3247 271.542   2
  -1   0   3 172.516 223.486  20
   0   0  -3-73.2486 252.554  19
   0   0   3-316.660 239.576   2
   0   0   3-282.599 321.355  20
   0   0  -3 130.137 163.861   3
   1   0   3 267.817 280.426   2
  -1   0  -3 483.862 287.926   3
   1   0   3-160.849 250.221  20
  -1   0  -3-241.080 220.107  19
   2   0   3 20.7753 177.500   2
  -2   0  -3-274.705 218.166   3
  -2   0  -3 348.144 287.303  19
   2   0   3-102.750 314.829  20
   3   0   3 128.219 384.885   2
  -3   0  -3-19.7360 304.665   3
   3   0   3 237.475 447.777  20
  -4   0  -3-47.9251 247.046  10
  -4   0  -3-44.5830 130.572  15
  -4   0  -3 174.778 303.523  14
  -4   0  -3-199.904 229.722   5
  -4   0  -3 133.934 251.460   7
  -5   0  -3-92.1853 230.486  10
  -5   0  -3 120.821 210.211  14
  -5   0  -3-549.408 283.872   5
  -6   0  -3 52.5283 189.869  14
  -6   0  -3-121.251 181.232  10
  -6   0  -3 77.7191 240.391   5
  -7   0  -3-6.49578 79.5933  10
  -7   0  -3 161.098 131.404  14
  -7   0  -3 67.3780 169.898   8
  -8   0  -3 75.5207 46.8639  14
  -8   0  -3-86.0236 91.9063   8
  -8   0  -3-13.2794 71.5963   5
 -10   1   3 15283.0 649.999   9
  10  -1  -3 15788.1 644.836   7
 -10   1   3 19305.6 750.426  10
 -10  -1   3 19448.4 775.185  10
  -9   1   3 6016.88 537.673  10
  -9   1   3 5296.78 538.020   9
  -9  -1   3 5424.01 527.988   9
  -9  -1   3 6404.85 557.539  10
  -8  -1   3 18715.6 1138.01   9
  -8   1   3 17863.8 1096.05   9
  -8   1   3 19322.8 1076.35  10
  -8  -1   3 20345.1 1125.68  10
  -7  -1   3 25759.6 1458.72  10
  -7   1   3 23073.2 1341.51   9
  -7   1   3 22726.7 1303.19  10
   6  -1  -3 7017.69 1155.71  18
   6   1  -3 8241.91 1136.20  18
  -6  -1   3 6554.61 1293.80   2
  -6   1   3 7831.17 1407.90   2
  -6   1   3 6260.10 682.714  10
  -6  -1   3 5848.34 693.803  10
  -5   1   3 12667.6 1344.84   2
  -5  -1   3 14218.8 1474.42   2
   5  -1  -3 10511.5 1251.86  18
   5   1  -3 12594.7 1319.76  18
   4  -1  -3 11640.2 1139.68  19
  -4  -1   3 9656.98 1054.77   2
  -4   1   3 11018.4 1090.15   2
   4   1  -3 11638.9 1189.83  19
   4  -1  -3 11503.0 1142.96  18
   4   1  -3 10787.3 1093.23  18
  -3  -1   3 1505.14 352.957  20
   3  -1  -3 1060.63 459.614  19
  -3   1   3 1169.34 363.755   2
  -3  -1   3 1568.88 480.144   2
   3   1  -3 1597.80 500.340  19
   3   1  -3 1121.45 359.880  18
  -3   1   3 1191.94 404.788  20
  -2  -1   3 11224.1 934.539  20
  -2   1   3 11321.1 1057.13   2
  -2  -1   3 11464.4 1077.74   2
  -2   1   3 11120.3 1013.25  20
   2  -1  -3 10911.0 1128.19  19
   2   1  -3 11502.2 1206.76  19
   1  -1  -3-444.079 382.300  19
   1   1  -3-84.5329 311.617  19
  -1   1   3-100.931 224.020   2
  -1  -1   3 201.830 276.764   2
   1  -1  -3 7.19793 277.484   1
  -1  -1   3 89.6941 204.712  20
  -1   1   3 103.712 299.275  20
   0   1  -3 2187.74 580.054  19
   0   1   3 1441.05 455.745   2
   0  -1   3 1524.24 445.961   2
   0   1  -3 1251.37 325.862   3
   0  -1  -3 1419.92 518.859   1
   0  -1  -3 2198.14 643.010  19
   0  -1   3 1685.50 497.642  20
   0   1   3 1405.51 462.644  20
   1   1   3 4022.80 690.585   2
  -1  -1  -3 4196.04 864.013  19
  -1  -1  -3 4890.57 845.586   1
  -1   1  -3 3725.27 612.110   3
  -1  -1  -3 4503.95 686.571   3
   1  -1   3 4654.31 740.940   2
   1   1   3 5334.11 835.742  20
   1  -1   3 4493.97 752.982  20
  -1   1  -3 4230.55 814.456  19
  -2  -1  -3 485.854 329.997  19
   2   1   3 616.473 385.503   2
  -2   1  -3 149.938 312.182  19
   2  -1   3 79.8320 141.893   2
  -2   1  -3 672.015 301.436   3
  -2  -1  -3-2.36872 97.0498   3
   2  -1   3-14.7979 283.572  20
   2   1   3-332.128 311.601  20
   3  -1   3-3.71963 135.869   2
  -3  -1  -3 412.705 345.048   3
   3  -1   3 986.388 549.995  20
   3   1   3 934.119 493.556  20
  -4   1  -3 3009.04 561.899  10
  -4  -1  -3 2951.84 590.443  10
  -4   1  -3 4003.06 504.055  15
  -4  -1  -3 3028.77 582.342  14
  -4   1  -3 2209.60 532.581  14
  -4   1  -3 4408.57 600.995   5
  -4  -1  -3 4055.65 575.559   5
  -4  -1  -3 3526.89 628.696   7
  -4   1  -3 4103.62 701.988   7
  -5   1  -3 1947.55 388.641  10
  -5  -1  -3 2249.95 467.248  10
  -5   1  -3 2003.36 386.002  15
  -5  -1  -3 1491.38 374.448  14
  -5   1  -3 2229.55 428.059  14
  -5   1  -3 1707.45 387.918   5
  -5  -1  -3 2019.34 416.292   5
  -6   1  -3 74.2043 142.577  10
  -6  -1  -3-271.829 192.743  10
  -6  -1  -3-65.1428 209.650  14
  -6   1  -3-11.4633 176.867  14
  -6   1  -3 140.240 199.134   8
  -6   1  -3 20.4003 201.384   5
  -6  -1  -3 230.393 253.992   5
  -7   1  -3 5280.86 390.914  10
  -7  -1  -3 4740.73 409.160  10
  -7   1  -3 5001.90 412.478  14
  -7  -1  -3 4982.01 428.472  14
  -7   1  -3 4689.32 492.441   5
  -7  -1  -3 4764.86 507.209   5
  -7   1  -3 4878.00 472.155   8
  -7  -1  -3 4779.50 479.330   8
  -8  -1  -3 526.504 94.2632  10
  -8  -1  -3 393.893 101.573  14
  -8   1  -3 553.479 129.551   8
  -8  -1  -3 775.761 149.151   8
  -8   1  -3 610.481 123.251   5
  -8  -1  -3 537.247 127.264   5
 -10  -2   3-75.0611 118.883  10
 -10   2   3 29.3931 71.4420   9
 -10   2   3-9.07030 108.687  10
  10  -2  -3 88.5224 107.340   7
  -9   2   3 14933.3 872.634   9
  -9  -2   3 14738.5 832.618   9
  -9   2   3 15940.2 832.688  10
  -9  -2   3 15922.1 844.468  10
  -8   2   3 6556.30 689.205   9
  -8  -2   3 6873.08 720.481   9
  -8   2   3 7497.96 673.486  10
  -8  -2   3 6825.17 668.534  10
  -7   2   3 26545.9 1414.02   9
  -7   2   3 26799.6 1377.94  10
  -7  -2   3 28055.9 1531.52  10
  -6   2   3 2065.58 408.632  10
  -6  -2   3 1975.53 423.226  10
  -6   2   3 1770.82 772.819   2
  -5   2   3 31547.1 2113.46   2
  -5  -2   3 31533.7 2251.32   2
   5   2  -3 29000.4 2080.18  19
   5  -2  -3 30425.0 2170.83  18
   5   2  -3 30314.1 1992.53  18
  -4  -2   3 81474.1 3098.99   2
   4  -2  -3 82614.7 2946.78  19
   4   2  -3 81864.4 3278.07  19
  -4   2   3 80183.1 2904.25   2
   4  -2  -3 81745.3 3027.28  18
   4   2  -3 83709.5 3008.61  18
   3   2  -3 154.446 192.064  18
   3   2  -3 39.4466 238.253  19
   3  -2  -3 324.262 252.021  19
  -3   2   3 256.272 176.081   2
  -3  -2   3-444.522 306.284   2
  -3  -2   3 1.08170 156.666  20
   3   2  -3 230.682 128.333  21
  -3   2   3 147.535 229.559  20
  -2   2   3 15275.0 1222.80  20
  -2  -2   3 15878.0 1083.13  20
   2   2  -3 16795.1 1466.39  19
   2  -2  -3 14856.3 1491.58   1
  -2   2   3 15034.2 1215.12   2
  -2  -2   3 14471.8 1219.09   2
   2  -2  -3 13811.0 1275.69  19
   1  -2  -3 126899. 4269.17   1
  -1   2   3 131244. 3628.64   2
  -1   2   3 121877. 3411.68  20
  -1  -2   3 125729. 3536.37   2
  -1  -2   3 128466. 3324.49  20
   1  -2  -3 126098. 4020.11  19
   1   2  -3 127588. 4109.47  19
   0  -2   3 8672.39 986.606  20
   0  -2  -3 7489.96 1143.31   1
   0   2   3 8195.24 992.802   2
   0  -2   3 8658.61 993.283   2
   0   2   3 8515.34 993.248  20
   0  -2  -3 8123.24 1166.84  19
   0   2  -3 8755.14 1148.49  19
   1   2   3 919.553 374.474   2
   1  -2   3 1165.21 435.547   2
  -1   2  -3 919.382 371.856   3
  -1  -2  -3 1152.48 450.296   1
  -1   2  -3 1156.89 428.136  19
   1  -2   3 1090.82 393.886  20
   1   2   3 802.194 388.638  20
  -1  -2  -3 1305.38 551.506  19
  -2   2  -3 15445.1 1423.64   3
  -2  -2  -3 13195.6 1358.63   3
   2   2   3 16187.0 1643.00   2
   2  -2   3 17676.8 1603.39   2
   2  -2   3 17453.5 1804.25  20
   2   2   3 18401.8 1716.95  20
  -2  -2  -3 15193.7 1538.55  19
  -2   2  -3 16416.0 1478.24  19
   3  -2   3 3000.28 776.290   2
  -3   2  -3 2622.26 673.687   3
  -3  -2  -3 2532.22 685.752   3
   3  -2   3 2944.69 895.068  20
   3   2   3 3490.48 858.000  20
  -4   2  -3 244.208 274.912  10
  -4  -2  -3 387.604 328.697  10
  -4  -2  -3 376.242 284.961  14
  -4   2  -3 91.1690 282.086  14
  -4   2  -3-37.9964 236.246   5
  -4   2  -3 382.951 317.654   7
  -4  -2  -3 107.904 212.352   5
  -4   2  -3 94.6953 203.979  15
  -4  -2  -3-193.202 292.375   7
  -5   2  -3 14427.7 891.696  10
  -5  -2  -3 14931.1 1078.53  10
  -5   2  -3 13053.3 866.357  15
  -5  -2  -3 12797.9 912.954  14
  -5   2  -3 15621.4 1043.66  14
  -5   2  -3 13390.2 990.130   5
  -5  -2  -3 13786.3 1059.23   5
  -6   2  -3 4893.40 451.222  10
  -6  -2  -3 5226.71 550.487  10
  -6  -2  -3 4671.15 492.538  14
  -6   2  -3 4974.36 490.416  14
  -6   2  -3 5415.70 603.886   5
  -6   2  -3 4612.91 544.706   8
  -6  -2  -3 4438.71 588.739   5
  -7   2  -3 4339.27 332.259  10
  -7  -2  -3 4405.60 403.956  10
  -7   2  -3 4132.36 357.595  14
  -7  -2  -3 4507.93 407.335  14
  -7   2  -3 4388.43 471.653   5
  -7   2  -3 4679.23 460.350   8
  -7  -2  -3 4519.60 494.741   5
  -7  -2  -3 4220.76 451.245   8
  -8  -2  -3 7297.77 331.147  10
  -8  -2  -3 8000.23 376.222  14
  -8  -2  -3 7254.09 380.112   5
  -8   2  -3 8135.63 402.706   8
  -8  -2  -3 7602.14 396.748   8
 -10   3   3 23560.8 831.986   9
  10  -3  -3 24765.3 866.273   7
 -10  -3   3 26548.5 863.601  10
  -9   3   3 13311.0 832.759   9
  -9  -3   3 12434.4 741.682   9
  -9   3   3 13825.6 745.245  10
  -9  -3   3 12823.3 745.227  10
  -8   3   3 5342.31 627.866   9
  -8  -3   3 6958.33 716.016   9
  -8   3   3 6179.34 595.172  10
  -8  -3   3 6425.14 633.584  10
  -7   3   3 28203.0 1449.50   9
  -7   3   3 30850.0 1429.62  10
  -7  -3   3 29802.4 1556.62  10
  -6   3   3 15164.0 1070.72   9
  -6   3   3 13122.8 913.783  10
  -5   3   3 22424.5 1756.63   2
  -5  -3   3 21059.4 1913.07   2
   5   3  -3 16006.9 1682.43  19
   5  -3  -3 17074.2 1611.50  18
   4  -3  -3-171.175 206.449  19
  -4   3   3-351.114 254.053   2
  -4  -3   3-101.218 216.058   2
  -3   3   3 639.553 296.214   2
  -3  -3   3 63.5914 169.638   2
   3   3  -3 967.521 434.589  19
   3  -3  -3 128.902 166.598  19
   3   3  -3 310.888 218.897  21
  -3   3   3 743.462 323.518  20
   2  -3  -3 91698.1 3690.63   1
  -2   3   3 99368.5 3103.73   2
   2   3  -3 99818.1 3675.11  19
  -2  -3   3 92312.6 3070.69   2
   2   3  -3 95086.6 2138.36  21
  -2  -3   3 93222.5 2466.72  20
  -2   3   3 91922.6 3015.22  20
   2  -3  -3 86575.3 3191.37  19
  -1   3   3 2511.37 535.360   2
  -1  -3   3 2235.94 502.654   2
   1  -3  -3 2773.49 682.581   1
   1   3  -3 2293.91 327.902  21
  -1  -3   3 2090.99 461.371  20
  -1   3   3 1980.67 484.092  20
   1  -3  -3 1190.16 445.384  19
   1   3  -3 2071.89 580.245  19
   0   3   3 6631.87 901.619  20
   0  -3  -3 6574.20 1070.70   1
   0   3   3 6855.82 909.276   2
   0  -3   3 6286.34 866.646   2
   0  -3   3 6537.42 875.675  20
   0   3  -3 7020.96 1050.87  19
   0  -3  -3 5658.55 1050.28  19
  -1   3  -3 42210.9 1978.73   3
  -1  -3  -3 45722.1 2911.86  19
  -1  -3  -3 45230.6 2932.29   1
   1   3   3 43732.7 2309.82   2
   1  -3   3 47021.6 2402.49   2
   1   3   3 45208.4 2474.46  20
   1  -3   3 42706.4 2311.35  20
  -1   3  -3 50380.4 2727.38  19
  -2   3  -3 6695.45 944.403   3
   2  -3   3 7090.67 1032.54   2
   2  -3   3 7221.38 1195.23  20
   2   3   3 8004.83 1161.20  20
  -2  -3  -3 7028.81 1102.40  19
   3  -3   3 5027.36 1030.63   2
  -3   3  -3 5454.34 941.081   3
  -3  -3  -3 4578.47 928.365   3
   3  -3   3 4646.95 1171.44  20
   3   3   3 7102.00 1233.61  20
  -4  -3  -3 1141.10 433.112  10
  -4   3  -3 1188.32 322.734  15
  -4  -3  -3 2105.53 452.635  14
  -4   3  -3 787.639 349.159  14
  -4  -3  -3 1334.86 345.735   5
  -4   3  -3 1799.93 428.996   5
  -4  -3  -3 1145.90 394.663   7
  -5  -3  -3 167.213 237.922  10
  -5   3  -3 323.534 260.816  15
  -5  -3  -3 311.826 225.387  14
  -5   3  -3 295.919 208.876  14
  -5   3  -3 28.8151 189.029   8
  -5   3  -3 314.162 246.347   5
  -5  -3  -3 10.7309 311.643   5
  -6  -3  -3 8686.35 684.141  10
  -6  -3  -3 6932.04 580.795  14
  -6   3  -3 7358.72 564.049  14
  -6   3  -3 8202.47 734.113   5
  -6   3  -3 8222.57 699.925   8
  -6  -3  -3 8720.05 797.819   5
  -7  -3  -3 5681.50 457.106  10
  -7   3  -3 4987.99 364.252  14
  -7  -3  -3 5089.00 421.259  14
  -7   3  -3 5172.57 492.889   5
  -7   3  -3 5967.13 499.711   8
  -7  -3  -3 5595.48 532.349   5
  -7  -3  -3 5428.29 490.485   8
  -8  -3  -3 1268.32 148.230  10
  -8  -3  -3 978.026 139.023  14
  -8  -3  -3 1185.60 159.222   5
  -8   3  -3 1093.26 154.501   8
  -8  -3  -3 1258.45 166.568   8
 -10   4   3 2032.23 257.330   9
  10  -4  -3 2812.79 303.360   7
 -10  -4   3 2770.15 286.326  10
  -9   4   3 3035.20 418.104   9
  -9   4   3 3309.28 356.034  10
  -9  -4   3 3111.10 373.175  10
  -8   4   3 7675.98 723.704   9
  -8   4   3 8077.50 647.331  10
  -8  -4   3 8503.60 700.078  10
  -7   4   3 8258.36 806.325   9
  -7   4   3 8358.63 725.221  10
  -7  -4   3 8692.42 837.888  10
  -6   4   3 27084.0 1278.52  10
  -6   4   3 28598.7 1440.55   9
   5  -4  -3 6654.53 1052.12  18
  -5  -4   3 9876.96 1369.89   2
   5   4  -3 7575.00 1277.09  19
  -4   4   3 24265.7 1546.60   2
   4   4  -3 24079.4 1983.68  19
  -4  -4   3 22726.2 1713.47   2
   3  -4  -3 48172.6 2817.77   1
   3   4  -3 46741.9 1926.12  21
  -3   4   3 49446.8 2221.52   2
  -3  -4   3 44891.5 2189.53   2
   3  -4  -3 45408.2 2311.14  19
   3   4  -3 42001.1 2462.05  19
   2  -4  -3 85253.1 3658.03   1
  -2  -4   3 82134.0 2197.21  20
   2   4  -3 83426.4 2246.09  21
  -2   4   3 89021.3 2941.60   2
  -2  -4   3 84996.0 2978.40   2
  -2   4   3 86932.6 2999.58  20
   2  -4  -3 81368.3 3172.40  19
   2   4  -3 91536.3 3634.79  19
   1   4  -3 2510.99 658.833  19
  -1   4   3 2860.60 573.174   2
   1  -4  -3 2255.17 639.781   1
  -1  -4   3 3058.78 613.431   2
  -1  -4   3 2208.19 458.312  20
   1   4  -3 2269.96 387.130  21
  -1   4   3 1700.31 485.616  20
   1  -4  -3 1640.06 568.493  19
   0  -4   3 31016.0 1801.08  20
   0   4  -3 30882.2 2224.51  19
   0  -4  -3 29944.9 2368.14   1
   0   4   3 30216.9 1919.39   2
   0  -4  -3 29301.8 2363.76  19
   0  -4   3 29131.8 1838.29   2
   0   4  -3 28893.0 1378.75  21
   0   4   3 31370.2 1947.86  20
   1  -4   3 149021. 4295.77  20
  -1   4  -3 160665. 3799.50   3
  -1  -4  -3 159668. 5931.98   1
   1   4   3 162219. 4565.34   2
   1  -4   3 167108. 4575.50   2
   1   4   3 164210. 4703.20  20
  -1  -4  -3 171173. 5986.97  19
  -1   4  -3 178368. 5121.35  19
  -2   4  -3 42330.2 2401.26   3
   2  -4   3 48540.6 2726.09   2
   2  -4   3 48414.8 3153.64  20
   2   4   3 44471.2 2692.44  20
  -2  -4  -3 42993.6 2866.90  19
  -3  -4  -3 24.0181 165.946  10
   3  -4   3-254.481 283.208   2
  -3   4  -3 1150.98 509.823   3
  -3   4  -3-292.487 234.572   5
   3  -4   3-998.750 675.402  20
   3   4   3 740.708 709.242  20
  -4   4  -3 117272. 2846.12  15
  -4  -4  -3 133683. 3175.09  14
  -4   4  -3 96719.3 2957.55  14
  -4   4  -3 125947. 3100.67   5
  -4  -4  -3 127474. 3131.01   5
  -4  -4  -3 121513. 2847.98  12
  -4  -4  -3 110283. 3241.75   7
  -5  -4  -3 45058.5 1785.37  10
  -5   4  -3 37674.5 1544.89  15
  -5  -4  -3 38711.7 1482.30  14
  -5   4  -3 42215.1 1543.42  14
  -5   4  -3 39814.5 1693.11   5
  -5   4  -3 39142.1 1525.17   8
  -5  -4  -3 43608.3 1858.49   5
  -6  -4  -3 3393.84 442.023  10
  -6  -4  -3 3130.08 393.222  14
  -6   4  -3 3355.15 354.982  14
  -6   4  -3 3675.78 498.945   5
  -6   4  -3 3267.90 456.505   8
  -6  -4  -3 3261.61 502.423   5
  -7  -4  -3 43894.7 1183.34  10
  -7  -4  -3 44176.1 1173.48  14
  -7   4  -3 40003.8 1243.10   5
  -7   4  -3 44438.9 1267.61   8
  -7  -4  -3 44946.5 1408.24   5
  -7  -4  -3 42610.5 1267.16   8
  -8  -4  -3 17818.0 498.324  10
  -8  -4  -3 17322.5 510.342  14
  -8   4  -3 16346.2 491.820   8
 -10   5   3 10984.0 547.573   9
  10  -5  -3 13022.8 609.276   7
 -10  -5   3 12051.5 520.335  10
  -9  -5   3 16436.1 775.837  10
  -9   5   3 17644.1 945.346   9
  -8  -5   3 493.916 238.782  10
  -8   5   3 546.890 270.547   9
  -8   5   3 459.224 220.353  10
  -7   5   3 30412.1 1496.80   9
  -7   5   3 31766.2 1345.84  10
  -7  -5   3 30096.3 1459.14  10
   6   5  -3 19772.2 1093.06  17
  -6   5   3 20464.7 1208.43   9
  -6  -5   3 22167.1 1593.24  12
  -6   5   3 19587.3 1056.81  10
  -6  -5   3 17167.4 1079.66  10
   5  -5  -3 104.195 262.198  18
  -5   5   3 1631.48 754.187   4
  -5  -5   3 1093.64 554.514   2
   4   5  -3 154560. 4149.55  21
   4   5  -3 153832. 5361.67  19
  -4  -5   3 162883. 4767.67   2
   3   5  -3 6859.81 805.079  21
  -3   5   3 7764.75 858.928   2
   3  -5  -3 6729.30 1110.11   1
   3  -5  -3 7059.05 984.809  19
  -3  -5   3 6461.36 874.738   2
   3   5  -3 5758.07 971.969  19
   2  -5  -3 18649.5 1788.77   1
  -2   5   3 22171.2 1480.96   2
   2   5  -3 19960.1 1214.73  21
  -2  -5   3 20541.4 1501.16   2
  -2   5   3 21129.4 1530.39  20
   2  -5  -3 18783.4 1568.37  19
   2   5  -3 20692.9 1806.44  19
   1   5  -3 163097. 5157.51  19
   1  -5  -3 154128. 5041.35   1
  -1   5   3 153348. 4192.02  20
  -1   5   3 163871. 4121.55   2
  -1  -5   3 161049. 4199.13   2
   1   5  -3 153827. 3281.59  21
  -1  -5   3 158218. 3461.29  20
   1  -5  -3 146806. 4754.30  19
   0   5   3 154.731 188.455   2
   0  -5   3 127.663 180.080   2
   0  -5  -3-175.828 292.930  19
   0   5  -3 301.998 194.675  21
   0   5  -3-300.585 298.802  19
   0  -5   3-84.2409 226.733  20
   0  -5  -3-394.755 453.433   1
   0   5   3-577.193 325.996  20
   1   5   3 906.236 386.691   2
   1  -5   3-225.409 262.459   2
  -1  -5  -3 109.336 211.648   1
   1  -5   3 183.941 221.094  20
   1   5   3 320.677 322.619  20
  -1  -5  -3-132.805 212.577  19
  -1   5  -3 168.006 184.258  19
  -2   5  -3 147582. 4513.12   3
  -2  -5  -3 175728. 6451.59   1
   2  -5   3 169918. 5072.36   2
   2  -5   3 171422. 6046.55  20
   2   5   3 156675. 5084.16  20
  -2  -5  -3 164908. 5762.10  19
  -3  -5  -3 8560.40 842.660  10
  -3   5  -3 9287.45 758.981  15
  -3  -5  -3 7312.29 835.505  14
  -3   5  -3 8667.35 839.290   5
  -3  -5  -3 7679.11 764.833   5
  -3   5  -3 7998.79 866.037   7
  -3  -5  -3 8390.44 705.792  12
  -3  -5  -3 9067.61 781.462   7
   3   5   3 8972.03 1329.02  20
  -4   5  -3 19749.8 1228.69  15
  -4  -5  -3 21420.6 1224.68  14
  -4  -5  -3 15127.4 1188.86  10
  -4   5  -3 19614.9 1249.21   5
  -4   5  -3 19000.3 1068.27   8
  -4  -5  -3 18795.9 1223.89   5
  -4  -5  -3 20738.3 1239.27  12
  -4  -5  -3 16135.5 1215.53   7
  -5  -5  -3 35674.3 1528.75  10
  -5   5  -3 34262.4 1523.42  15
  -5  -5  -3 32836.4 1319.18  14
  -5   5  -3 32918.9 1541.69   5
  -5   5  -3 32294.8 1364.27   8
  -5  -5  -3 37905.5 1726.35   5
  -5  -5  -3 35006.3 1489.41  12
  -6  -5  -3 5814.70 529.529  10
  -6  -5  -3 5253.71 482.916  14
  -6   5  -3 5762.71 591.338   5
  -6   5  -3 5600.37 550.517   8
  -6  -5  -3 6054.88 658.606   5
  -6  -5  -3 4906.79 468.958  12
  -7  -5  -3 34693.6 1015.86  14
  -7   5  -3 33519.2 1075.49   5
  -7   5  -3 36374.5 1087.13   8
  -7  -5  -3 37460.2 1246.24   5
  -7  -5  -3 34905.2 1108.19   8
  -7  -5  -3 35935.8 1031.37  10
 -10   6   3 3290.81 287.289   9
 -10  -6   3 3181.46 246.112  10
  -9   6   3 11830.1 778.175   9
  -9  -6   3 10355.9 587.755  10
  -8  -6   3 818.547 233.790  10
  -8   6   3 601.438 288.260   9
  -7   6   3 12726.8 974.739   9
  -7   6   3 12954.8 824.005  10
  -7  -6   3 12408.0 899.384  10
  -6  -6   3 2988.26 434.413  10
   6   6  -3 2929.53 452.954  17
  -6   6   3 3113.85 513.498   9
  -6   6   3 2084.82 417.656   8
  -6   6   3 3048.80 567.091  13
  -6  -6   3 3629.85 653.095  12
  -5   6   3 3921.72 533.001   9
  -5  -6   3 3179.81 972.395   2
   5   6  -3 2384.69 884.673  19
  -4  -6   3 30178.0 2166.08   2
   4   6  -3 27773.8 1855.58  21
   4   6  -3 28798.6 2555.45  19
   3  -6  -3 79.9130 380.214   1
  -3  -6   3 213.323 221.660   2
   3  -6  -3-348.202 227.614  19
   3   6  -3-184.015 208.573  21
   3   6  -3 391.743 401.420  19
   2   6  -3 469.051 425.837  19
  -2   6   3 109.114 127.502   2
   2  -6  -3-3.07490 196.494   1
  -2  -6   3 472.837 323.967   2
  -2   6   3 441.855 298.787  20
   2   6  -3 681.716 264.981  21
   2  -6  -3 294.611 338.191  19
   1  -6  -3 9093.72 1280.54   1
  -1   6   3 9657.37 1015.23   2
   1   6  -3 10796.1 946.743  21
  -1  -6   3 10497.5 1092.04   2
  -1   6   3 10884.3 1172.21  20
   1  -6  -3 10845.3 1393.53  19
   1   6  -3 10402.3 1395.09  19
   0   6   3 213.989 248.436   2
   0   6  -3 139.221 348.146  19
   0  -6   3 98.4511 179.539   2
   0  -6  -3 934.146 470.542   1
   0   6  -3 537.661 226.728  21
   0  -6   3 49.7784 76.5911  20
   0   6   3 830.615 351.399  20
   0  -6  -3-413.563 503.930  19
  -1   6  -3 7763.62 1109.74  19
   1   6   3 4737.55 858.722  20
  -1  -6  -3 6909.61 1377.76   1
   1   6   3 6757.94 1007.85   2
   1  -6   3 7838.58 1016.29   2
   1  -6   3 6076.02 860.555  20
  -1  -6  -3 6287.33 1323.96  19
   2   6   3 10675.5 1353.78  20
   2   6   3 10062.1 1348.28   2
  -2  -6  -3 12453.2 1849.27   1
   2  -6   3 11422.4 1580.80  20
  -2  -6  -3 9314.33 1511.43  19
  -3  -6  -3 4226.76 614.860  10
  -3   6  -3 4466.26 570.216  15
  -3  -6  -3 4713.22 667.846  14
  -3   6  -3 4301.99 613.447   5
  -3  -6  -3 4720.66 538.510  12
  -3  -6  -3 4235.32 544.036   7
  -4  -6  -3 6138.77 760.202  10
  -4   6  -3 6643.57 756.076  15
  -4  -6  -3 7397.82 708.413  14
  -4   6  -3 7721.44 800.454   5
  -4   6  -3 7108.00 665.515   8
  -4  -6  -3 6108.68 720.714   5
  -4  -6  -3 6434.65 729.904  12
  -4  -6  -3 4974.87 679.862   7
  -5  -6  -3 1986.58 482.196   5
  -5  -6  -3 2257.95 407.227  10
  -5   6  -3 2589.90 495.117  15
  -5  -6  -3 2347.90 377.637  14
  -5   6  -3 2398.90 394.915   8
  -5   6  -3 2082.80 403.982   5
  -5  -6  -3 2495.60 444.197  12
  -6  -6  -3 222.899 174.789  10
  -6  -6  -3 66.5119 127.505  14
  -6   6  -3-60.5982 133.740   8
  -6   6  -3 275.246 228.177   5
  -6  -6  -3 196.945 123.360  12
  -6  -6  -3 219.572 251.461   5
  -7  -6  -3 1785.28 245.849  10
  -7  -6  -3 1561.40 230.135  14
  -7   6  -3 1456.49 222.205   8
  -7  -6  -3 1510.31 244.609   8
  -7   6  -3 1267.78 208.971   5
  -7  -6  -3 1924.66 306.375   5
  10  -7  -3 14111.5 554.528   7
  -9   7   3 2262.79 357.061   9
  -9  -7   3 1857.34 240.168  10
  -8   7   3 2424.89 454.985   9
  -8   7   3 2314.22 319.353   8
  -8   7   3 2161.05 350.263  11
  -8  -7   3 2805.87 374.124  10
  -7   7   3 24926.2 1345.47   9
  -7   7   3 27784.8 1368.70   8
  -7   7   3 27205.5 1469.08  13
  -7  -7   3 23121.9 1191.42  10
   6   7  -3 10338.5 799.499  17
  -6   7   3 11416.2 918.371   9
  -6   7   3 8666.31 819.973   8
  -6   7   3 9534.29 984.516  13
  -6  -7   3 11372.1 1100.95  12
  -6  -7   3 10235.8 783.244  10
   5   7  -3 2333.08 414.805  17
  -5   7   3 1936.82 372.083   9
  -5   7   3 2463.28 427.947   8
  -5   7   3 2143.46 446.204  13
  -4   7   3 44016.7 3232.37   4
   4   7  -3 53297.7 3790.33  19
   4   7  -3 51104.9 2599.96  21
   3  -7  -3 13315.4 1694.58   1
   3   7  -3 12550.5 1219.44  21
   3  -7  -3 11772.0 1328.88  19
   3   7  -3 12649.6 1678.36  19
  -3  -7   3 13207.5 1308.66   2
   2  -7  -3 3584.25 835.011   1
  -2  -7   3 2846.85 562.137   2
   2   7  -3 3319.54 585.882  21
  -2   7   3 3755.85 676.324  20
   2  -7  -3 2961.77 680.774  19
   2   7  -3 3217.18 900.888  19
   1  -7  -3 26817.1 2264.24   1
   1   7  -3 26808.2 1619.87  21
  -1  -7   3 31135.4 1891.44   2
  -1   7   3 30311.5 1987.25  20
   1  -7  -3 26211.5 2239.63  19
   1   7  -3 30023.1 2534.14  19
   0   7   3 4568.51 843.791   2
   0  -7   3 5013.66 771.120   2
   0  -7  -3 3743.81 991.014   1
   0   7  -3 4431.21 698.211  21
   0   7   3 4058.66 762.044  20
   0   7  -3 4802.33 1066.07  19
   1   7   3 4059.70 790.606   2
  -1  -7  -3 3654.75 1021.81   1
   1   7   3 2496.14 639.608  20
  -1   7  -3 3847.55 845.245  19
  -2   7  -3 34938.7 1312.87  15
  -2  -7  -3 31444.4 3217.65   1
  -2   7  -3 35746.2 1558.34   5
   2   7   3 30064.8 2396.77   2
   2  -7   3 30060.0 2531.90  20
   2   7   3 27838.0 2202.92  20
  -2  -7  -3 30683.5 2671.44  19
  -3  -7  -3 3686.18 583.021  10
  -3   7  -3 4462.07 578.333  15
  -3  -7  -3 4324.05 599.102  14
  -3  -7  -3 3641.23 495.903  12
  -3   7  -3 3341.41 552.146   5
  -3  -7  -3 3458.01 491.982   7
  -4  -7  -3 1233.40 362.030  10
  -4   7  -3 1182.27 399.812  15
  -4  -7  -3 868.396 257.141  14
  -4   7  -3 1034.01 285.108   8
  -4   7  -3 1200.60 347.562   5
  -4  -7  -3 1259.27 381.402  12
  -4  -7  -3 841.891 364.029   5
  -4  -7  -3 1084.59 388.682   7
  -5  -7  -3 4035.80 499.744  10
  -5   7  -3 3844.02 582.280  15
  -5  -7  -3 3996.48 457.761  14
  -5   7  -3 3488.39 450.442   8
  -5  -7  -3 4044.50 613.501   5
  -5  -7  -3 4301.50 566.749  12
  -5   7  -3 3121.89 472.927   5
  -6  -7  -3 154.599 144.327  10
  -6  -7  -3 188.766 155.848  14
  -6   7  -3 330.261 151.535   8
  -6   7  -3 139.896 180.018   5
  -6  -7  -3 175.521 136.704  12
  -6  -7  -3 187.442 217.931   5
  -7  -7  -3 1987.46 234.367  10
  -7  -7  -3 2000.22 237.639  14
  -7   7  -3 1781.62 220.408   8
  -7  -7  -3 1856.68 238.415   8
  -7  -7  -3 2231.05 295.117   5
  -7   7  -3 1424.50 208.828   5
   9  -8  -3 628.733 218.426   7
  -9  -8   3 489.453 132.155  10
  -9   8   3 412.744 201.481   9
  -8   8   3 642.865 310.354   9
  -8  -8   3 211.152 142.602  10
  -8   8   3 573.641 198.837   8
  -8   8   3 508.111 216.510  11
  -7  -8   3 1411.24 322.419  10
   7   8  -3 1494.07 336.541  17
  -7   8   3 1811.37 413.330   9
  -7   8   3 1803.71 458.714  13
  -7   8   3 1644.06 367.908   8
   6   8  -3 29.5518 155.875  17
  -6   8   3-390.832 237.886   9
  -6   8   3 104.335 187.624   8
  -6   8   3 53.0153 208.704  13
  -6  -8   3 213.473 249.881  12
   5   8  -3 616.410 292.628  17
  -5   8   3 245.065 196.090   9
  -5   8   3 298.814 206.540   8
  -5   8   3-254.701 278.560  13
  -4   8   3 25082.2 2474.94   4
  -4   8   3 28622.3 1451.62  13
  -4  -8   3 31678.1 2634.94   2
   4  -8  -3 24995.6 2309.47   1
   4   8  -3 21960.6 1802.46  21
   4   8  -3 22004.7 2616.20  19
  -3  -8   3 14269.6 1468.80   2
  -3   8   3 10070.9 1509.65   4
   3  -8  -3 13233.3 1730.80   1
   3   8  -3 10593.2 1151.89  21
   3  -8  -3 11276.8 1324.48  19
   3   8  -3 10291.3 1733.51  19
   2  -8  -3 7675.51 1250.13   1
   2   8  -3 5088.07 806.880  21
   2  -8  -3 6236.04 973.009  19
  -2  -8   3 6752.51 905.802   2
   2   8  -3 6500.97 1286.03  19
   1   8  -3 695.469 336.651  21
   1  -8  -3-92.9022 295.072   1
  -1   8   3 752.240 343.411  20
   1   8  -3 763.503 465.952  19
   0  -8  -3 10838.9 1712.44   1
   0   8  -3 7650.61 974.384  21
   0   8   3 8490.37 1122.55  20
   0   8  -3 9925.77 1528.89  19
  -1  -8  -3-776.651 613.689   1
   1   8   3 1624.12 560.780  20
  -2   8  -3 10455.7 923.244   6
   2   8   3 12524.6 786.110  17
  -2  -8  -3 14127.1 993.457  10
  -2   8  -3 12713.2 820.707  15
  -2   8  -3 13391.4 972.458   5
  -2  -8  -3 11793.7 790.776  12
   3   8   3 31763.6 1330.24  17
  -3   8  -3 31345.3 1481.74  15
  -3  -8  -3 34020.9 1432.47  14
  -3   8  -3 29771.6 1516.65   5
  -3  -8  -3 30851.7 1417.24  12
  -4  -8  -3 1620.84 377.209  10
  -4   8  -3 2511.02 504.399  15
  -4  -8  -3 1494.98 328.797  14
  -4   8  -3 1781.64 419.501   5
  -4  -8  -3 1679.22 414.264  12
  -4  -8  -3 1395.19 374.636   5
  -5  -8  -3 8029.11 642.362  10
  -5   8  -3 9354.83 807.421  15
  -5  -8  -3 7408.61 575.183  14
  -5   8  -3 8062.84 707.602   5
  -5   8  -3 8115.57 618.108   8
  -5  -8  -3 8530.58 791.095   5
  -5  -8  -3 8678.49 777.741  12
  -6  -8  -3 3691.06 368.009  10
  -6  -8  -3 3758.52 377.221  14
  -6   8  -3 3590.40 411.835   5
  -6   8  -3 3582.91 363.452   8
  -6  -8  -3 4206.34 511.528   5
  -6  -8  -3 3984.94 419.433  12
  -7  -8  -3 3896.92 284.045  10
  -7  -8  -3 3676.19 282.933  14
  -7   8  -3 3109.17 256.398   5
  -7   8  -3 3060.57 231.299   8
  -7  -8  -3 3229.10 272.799   8
  -7  -8  -3 3962.63 347.879   5
  -9   9   3 13141.0 716.329   9
   9  -9  -3 13049.7 669.667   7
  -8  -9   3 25.4290 98.1287  10
  -8   9   3 154.439 249.237   9
  -8   9   3 262.497 182.467   8
  -8   9   3-75.5541 154.619  11
   7   9  -3 5881.92 573.960  17
  -7   9   3 6643.64 727.389   9
  -7   9   3 6703.33 657.047   8
  -7   9   3 7250.14 758.888  13
  -7   9   3 7305.63 681.543  11
   6   9  -3 3386.57 474.775  17
  -6   9   3 3790.64 570.192   9
  -6   9   3 3272.04 521.825   8
  -6   9   3 3061.00 624.608  13
   5   9  -3 19178.5 1219.87  17
  -5   9   3 14768.8 1055.23   9
  -5   9   3 16535.9 1059.12   8
  -5   9   3 15683.5 1298.31  13
  -4   9   3 16030.3 1058.65   9
  -4   9   3 17067.1 951.260   8
  -4   9   3 19090.9 1311.33  13
   4  -9  -3 18137.6 1047.61   7
  -3   9   3-538.774 261.101  13
   3  -9  -3-1564.23 611.724   1
   3   9  -3 212.944 192.058  21
   3   9  -3-978.932 723.776  19
   2   9  -3 207.229 111.896  21
   2  -9  -3 680.791 395.545  19
   2  -9  -3 664.554 455.265   1
  -1   9   3 12551.5 1309.56  20
   1  -9  -3 12142.6 1661.02   1
   1   9  -3 11308.8 1976.71  19
   1   9  -3 10225.3 1193.67  21
   0  -9  -3 1745.09 711.720   1
   0   9  -3 3160.45 657.276  21
   0   9   3 1187.03 508.846  20
   0   9  -3 2921.53 1088.57  19
   1   9   3 1315.46 280.326  17
  -1   9  -3 824.085 417.492   6
  -1   9  -3 1302.93 269.061  15
  -1   9  -3 1679.83 494.870  13
  -1   9  -3 1443.42 308.809   5
  -1  -9  -3 1229.00 271.183  12
  -1   9  -3 256.594 368.581  11
  -2   9  -3 56868.9 2103.36   6
   2   9   3 64959.3 1865.18  17
  -2   9  -3 60853.3 2277.42  16
  -2  -9  -3 74636.2 2448.14  10
  -2   9  -3 69232.8 1913.92  15
  -2   9  -3 66082.3 2148.37   5
  -2  -9  -3 66479.6 1937.94  12
   3   9   3 10240.9 792.466  17
  -3  -9  -3 8733.81 890.916  10
  -3   9  -3 10050.3 879.305  15
  -3   9  -3 9698.02 864.768   5
  -3  -9  -3 9370.38 804.618  12
   4   9   3 2384.17 399.585  17
  -4  -9  -3 2664.79 419.046  10
  -4   9  -3 2830.40 531.146  15
  -4  -9  -3 2522.00 356.130  14
  -4   9  -3 2799.58 478.159   5
  -4  -9  -3 2448.30 480.451  12
  -4  -9  -3 2897.87 514.084   5
  -5  -9  -3 3440.46 401.675  10
  -5   9  -3 4362.90 562.469  15
  -5  -9  -3 3641.79 383.920  14
  -5   9  -3 3501.33 452.715   5
  -5   9  -3 2725.30 342.784   8
  -5  -9  -3 4078.82 562.783   5
  -5  -9  -3 3478.00 486.214  12
  -6  -9  -3 579.730 156.509  10
  -6  -9  -3 284.737 120.013  14
  -6   9  -3 168.057 84.9015   8
  -6   9  -3 384.683 170.973   5
  -6  -9  -3 419.563 170.791  12
  -6  -9  -3 564.936 224.788   5
  -7  -9  -3 4277.38 253.404  10
  -7  -9  -3 4902.75 349.230   5
  -9  10   3 353.757 147.116   9
   9 -10  -3 298.691 134.701   7
  -8  10   3 690.113 284.571   9
  -8  10   3 484.179 185.349  13
  -8  10   3 581.056 203.871  11
   8 -10  -3 888.910 262.811   7
   7  10  -3 7472.00 616.885  17
  -7  10   3 8807.36 805.349   9
  -7  10   3 10504.4 792.279   8
  -7  10   3 9731.78 845.741  13
   7 -10  -3 8440.09 789.755   7
  -7  10   3 9141.73 747.253  11
   6  10  -3 16331.8 995.911  17
  -6  10   3 16426.6 1131.19   9
  -6  10   3 14999.1 1061.03   8
  -6  10   3 15944.6 1266.96  13
   6 -10  -3 16987.7 1192.45   7
  -6  10   3 18691.1 1132.48  11
   5  10  -3 650.644 256.777  17
  -5  10   3 332.664 238.716   9
  -5  10   3 521.436 259.947   8
  -5  10   3 188.049 318.744  13
   5 -10  -3 666.261 261.651   7
  -4  10   3 65289.0 1948.83  16
  -4  10   3 56519.5 2014.00   9
  -4  10   3 58552.1 1821.01   8
  -4  10   3 62512.7 2497.84  13
   4 -10  -3 59217.5 1897.69  12
   4 -10  -3 57614.2 1881.05   7
   3  10  -3 19313.5 1231.56   6
  -3  10   3 22379.1 1135.19  16
  -3  10   3 21712.5 1057.37   8
  -3  10   3 20919.8 1314.35  13
   3 -10  -3 21917.6 1153.51  12
   3 -10  -3 20577.7 1054.96   7
   2  10  -3-432.443 251.447   6
  -2  10   3 246.559 182.809  16
   2  10  -3 32.7544 108.183  15
  -2  10   3-83.2984 129.688   8
  -2  10   3 599.114 225.871  13
  -2  10   3 262.081 188.630  17
   2 -10  -3-109.254 124.653  12
   2  10  -3 51.6219 240.732  11
   2 -10  -3-44.2426 226.783  19
   1  10  -3 34117.4 2287.20   6
  -1  10   3 31811.1 1289.50  17
  -1  10   3 29617.7 1326.72  16
   1  10  -3 30496.4 1145.72  15
   1  10  -3 30025.0 1254.82   5
  -1  10   3 30466.0 1266.69   8
  -1  10   3 24189.9 1227.49  13
   1 -10  -3 31417.0 1310.50  12
   1  10  -3 27318.2 1493.83  11
   1  10  -3 27530.4 2050.55  21
   1  10  -3 27212.2 3279.26  19
   0  10  -3 12227.2 733.913  15
   0  10   3 11576.1 779.685   8
   0  10  -3 12191.4 826.273   5
   0 -10  -3 11902.9 790.281  12
   0  10  -3 12840.0 1230.90  11
   0  10   3 13421.1 835.609  17
   1  10   3 1575.23 313.458  17
  -1  10  -3 890.115 434.336  16
  -1  10  -3 1637.61 516.429   6
  -1  10  -3 1415.45 278.699  15
  -1  10  -3 1153.01 293.309   5
  -1 -10  -3 1707.59 323.148  12
  -1  10  -3 862.384 405.174  11
   2  10   3 2399.12 390.167  17
  -2  10  -3 2031.57 411.401   6
  -2  10  -3 2124.49 477.714  16
  -2  10  -3 2150.01 380.496  15
  -2  10  -3 1657.80 606.575  13
  -2  10  -3 1881.91 396.525   5
  -2 -10  -3 1751.09 336.568  12
   3  10   3 1054.46 322.860  17
  -3 -10  -3 1825.15 413.730  10
  -3  10  -3 1505.62 370.721  15
  -3  10  -3 946.817 326.093   5
  -3 -10  -3 1395.26 346.893  12
   4  10   3 1374.11 325.939  17
  -4  10  -3 1411.52 375.122  15
  -4 -10  -3 1401.25 295.130  10
  -4  10  -3 1186.15 339.882   5
  -4 -10  -3 1327.87 365.053  12
  -4 -10  -3 1282.02 376.508   5
  -5 -10  -3-113.188 130.282  10
  -5  10  -3-15.2211 204.276  15
  -5 -10  -3 49.9812 119.051  14
  -5  10  -3-96.1315 197.276   5
  -5 -10  -3 36.7408 196.318  12
  -5 -10  -3 69.0705 232.367   5
  -6 -10  -3 9550.55 477.711  10
  -6 -10  -3 9626.93 471.731  14
  -6  10  -3 9696.27 555.356   5
  -6 -10  -3 9766.92 579.528  12
  -9  11   3 4516.23 343.117   9
  -8  11   3-89.3162 185.526   9
  -8  11   3 84.4065 100.095  13
  -8  11   3 281.715 182.961   8
  -8  11   3 153.978 141.163  11
   8 -11  -3 35.1114 134.977   7
  -7  11   3 69261.0 2108.24   9
  -7  11   3 70880.0 1887.79   8
  -7  11   3 71566.0 2120.61  13
   7 -11  -3 71160.7 2087.36   7
  -7  11   3 74006.3 2017.60  11
   6  11  -3 4168.24 515.659  17
  -6  11   3 4588.45 628.466   9
  -6  11   3 4253.03 602.288   8
  -6  11   3 4233.10 663.179  13
   6 -11  -3 4194.15 576.656   7
  -6  11   3 4132.36 555.272  11
   5  11  -3 10488.4 895.357  17
  -5  11   3 9200.45 869.835   9
  -5  11   3 9003.66 803.838   8
  -5  11   3 8632.21 1042.20  13
   5 -11  -3 8198.02 677.318  12
   5 -11  -3 9644.69 838.446   7
  -5  11   3 10222.0 882.943  11
  -4  11   3 41959.6 1620.61  16
  -4  11   3 39736.2 1710.76   9
  -4  11   3 39822.1 1546.63   8
  -4  11   3 39469.9 2100.81  13
   4 -11  -3 39412.6 1554.11  12
   4 -11  -3 40955.5 1560.21   7
  -4  11   3 42422.0 1769.67  11
   3  11  -3 650.929 314.404   6
  -3  11   3 250.447 159.243  16
  -3  11   3 319.480 185.797   8
  -3  11   3-79.8635 257.303  13
   3 -11  -3 302.920 153.799  12
  -3  11   3-3.59158 157.852  11
   2  11  -3 16944.0 1333.01   6
  -2  11   3 21598.0 1123.22  17
  -2  11   3 19433.3 1119.37  16
   2  11  -3 19212.2 943.071  15
  -2  11   3 20962.8 1081.50   8
  -2  11   3 17508.9 1199.37  13
   2 -11  -3 20308.4 1092.91  12
   2  11  -3 16802.0 1171.65  11
  -2  11   3 19350.6 1069.63  11
  -1  11   3 399.444 200.615  17
  -1  11   3 90.4526 167.186  16
   1  11  -3 110.291 157.794  15
  -1  11   3 118.170 182.363   8
  -1  11   3 433.359 238.529  13
   1  11  -3-19.7767 176.930   5
   1 -11  -3 38.9099 108.266  12
   1  11  -3 355.189 261.225  11
   0  11   3 433.433 225.278  17
   0  11  -3-392.941 625.740   6
   0  11   3 228.360 191.406  16
   0  11  -3 429.161 184.208  15
   0  11   3 240.887 200.103   8
   0  11  -3 34.2377 162.554   5
   0 -11  -3 382.911 187.440  12
   0  11  -3 91.4993 364.003  11
  -1  11  -3 14946.1 1336.09   6
   1  11   3 14904.2 917.124  17
  -1  11  -3 14810.9 1311.08  16
  -1  11  -3 13928.2 828.991  15
  -1  11  -3 13649.2 963.154   5
  -1 -11  -3 15291.7 922.167  12
   2  11   3 481.022 232.828  17
  -2  11  -3 1102.40 354.071  16
  -2  11  -3 815.025 353.325   6
  -2  11  -3 866.144 257.196  15
  -2  11  -3 673.343 276.186   5
  -2 -11  -3 880.892 259.521  12
  -2  11  -3 855.949 355.295  11
   3  11   3 390.386 220.843  17
  -3  11  -3 95.9913 229.008   6
  -3  11  -3 155.608 238.488  15
  -3  11  -3 185.827 227.163   5
  -3 -11  -3 275.687 243.372  12
   4  11   3 1807.06 338.381  17
  -4 -11  -3 1940.02 299.507  10
  -4  11  -3 2235.61 420.848  15
  -4  11  -3 1890.71 380.566   5
  -4 -11  -3 1887.81 419.066  12
  -4 -11  -3 1899.08 415.858   5
  -5 -11  -3 1666.40 241.880  10
   5  11   3 1409.76 238.109  16
  -5  11  -3 1451.37 301.097  15
  -5  11  -3 1729.96 298.805   5
  -5 -11  -3 1642.82 326.313  12
  -5 -11  -3 1352.84 319.651   5
  -6  11  -3 8146.50 458.967   5
  -6 -11  -3 9239.48 573.174   5
  -6 -11  -3 8485.88 497.567  12
  -8  12   3 716.936 225.847   9
  -8  12   3 588.852 154.804  13
  -8  12   3 597.911 162.805   8
  -8  12   3 595.590 156.409  11
   8 -12  -3 569.855 160.686   7
  -7  12   3 31042.8 1336.73   9
  -7  12   3 29829.4 1161.31   8
  -7  12   3 31529.8 1331.38  13
   7 -12  -3 31725.9 1249.30   7
  -7  12   3 33304.3 1301.79  11
   6  12  -3 4817.45 524.685  17
  -6  12   3 4706.63 506.224  17
  -6  12   3 4400.26 563.624   6
  -6  12   3 6148.09 707.615   9
  -6  12   3 6339.97 667.476   8
  -6  12   3 5172.17 713.063  13
   6 -12  -3 5488.46 605.865   7
  -6  12   3 5703.44 647.885  11
  -5  12   3 1559.41 373.794  17
  -5  12   3 1807.97 382.469  16
  -5  12   3 793.406 292.664   9
  -5  12   3 1435.14 457.599   6
  -5  12   3 1975.87 427.137   8
  -5  12   3 1727.07 545.031  13
  -5  12   3 1417.00 371.154  11
   5 -12  -3 1573.49 348.251   7
  -4  12   3 22014.2 1212.96  17
  -4  12   3 21160.9 1169.62  16
  -4  12   3 19422.9 1194.95   9
  -4  12   3 22229.7 1301.14  11
  -4  12   3 20035.9 1112.85   8
  -4  12   3 18613.6 1502.03  13
   4 -12  -3 19308.6 1053.69  12
  -3  12   3 2713.04 430.142  17
   3  12  -3 2873.32 514.446   6
  -3  12   3 2547.47 435.828  16
   3  12  -3 2116.53 322.868  15
  -3  12   3 2378.46 403.372   8
  -3  12   3 2129.99 574.443  13
   3 -12  -3 2261.86 385.098  12
  -3  12   3 2175.88 413.465  11
  -2  12   3 1078.80 300.566  17
   2  12  -3 963.433 413.296   6
  -2  12   3 1090.96 312.666  16
   2  12  -3 850.931 213.865  15
  -2  12   3 1136.13 279.127   8
  -2  12   3 1304.31 386.752  13
   2 -12  -3 694.337 244.387  12
   2  12  -3 1446.24 414.738  11
  -2  12   3 983.752 241.569  11
   1  12  -3 23204.3 2022.63   6
  -1  12   3 24425.1 1187.57  17
  -1  12   3 22063.4 1217.72  16
   1  12  -3 21078.1 980.657  15
  -1  12   3 22885.5 1161.70   8
  -1  12   3 19577.4 1353.63  13
   1 -12  -3 22759.4 1139.18  12
   1  12  -3 20123.4 1377.21  11
   0  12   3 36981.3 1471.70  17
   0  12   3 37809.8 1616.11  16
   0  12  -3 36088.9 1292.55  15
   0  12  -3 38841.2 1583.19   5
   0  12   3 38279.6 1488.05   8
   0 -12  -3 38890.0 1477.87  12
   0  12  -3 43012.4 2326.61  11
  -1  12  -3 8567.59 1058.69   6
   1  12   3 8865.60 730.859  17
  -1  12  -3 8884.52 1040.69  16
   1  12   3 8205.57 785.823  16
  -1  12  -3 8833.00 680.846  15
  -1  12  -3 9407.99 814.865   5
  -1 -12  -3 8610.56 731.227  12
   2  12   3 1660.65 369.639  17
  -2  12  -3 1731.59 424.244  16
  -2  12  -3 1338.71 436.434   6
   2  12   3 1795.53 402.876  16
  -2  12  -3 1420.70 319.390  15
  -2  12  -3 1510.42 400.878   5
  -2 -12  -3 2044.70 399.921  12
  -2  12  -3 2402.15 533.604  11
  -3  12  -3 11935.9 917.935   6
   3  12   3 11643.0 835.037  17
   3  12   3 12688.9 934.540  16
  -3  12  -3 11596.1 886.775  15
  -3  12  -3 13060.7 953.238   5
  -3 -12  -3 11628.4 901.366  12
   4  12   3 12043.2 762.164  17
   4  12   3 13058.0 804.942  16
  -4  12  -3 12661.4 842.361  15
  -4  12  -3 13418.0 872.867   5
  -4 -12  -3 12642.5 856.852   5
  -4 -12  -3 11597.4 858.062  12
   5  12   3 858.380 176.357  17
  -5  12  -3 1375.46 257.527   5
  -5 -12  -3 1220.40 278.891  12
  -5 -12  -3 1210.16 280.406   5
  -6 -12  -3 5845.89 400.495   5
  -6 -12  -3 5454.67 362.528  12
  -8  13   3 2113.79 278.106   9
  -8  13   3 1689.13 195.625   8
  -8  13   3 1642.49 206.307  13
  -8  13   3 1832.54 218.249  11
  -7  13   3 25292.1 1105.91   9
  -7  13   3 26589.9 1004.44   8
  -7  13   3 28220.9 1158.71  13
   7 -13  -3 26552.8 945.733   7
  -7  13   3 29260.9 1141.24  11
   6  13  -3 4008.51 438.658  17
  -6  13   3 3266.89 383.382  17
  -6  13   3 3596.42 478.304   6
  -6  13   3 3646.00 522.270   9
  -6  13   3 4151.00 549.165   8
  -6  13   3 4602.26 616.667  13
   6 -13  -3 3735.04 452.911   7
  -6  13   3 4269.34 547.283  11
  -5  13   3 6711.90 635.595  17
  -5  13   3 6852.56 816.900   6
  -5  13   3 6472.21 637.099  16
  -5  13   3 6444.71 710.536   9
   5  13  -3 5553.94 491.715  15
  -5  13   3 8050.89 742.994   8
  -5  13   3 7412.52 855.502  13
  -5  13   3 7284.35 735.578  11
  -4  13   3 25493.8 1280.57  17
  -4  13   3 26689.3 1775.25   6
  -4  13   3 25062.5 1273.39  16
  -4  13   3 25665.5 1328.39   9
   4  13  -3 22552.9 987.388  15
  -4  13   3 24983.1 1236.46   8
  -4  13   3 22474.9 1616.57  13
  -4  13   3 26265.9 1423.69  11
  -3  13   3 920.880 306.543  17
   3  13  -3 1025.90 387.892   6
  -3  13   3 782.806 280.677  16
   3  13  -3 1013.92 241.140  15
  -3  13   3 643.948 238.107   8
  -3  13   3 754.259 399.767  13
   3 -13  -3 923.252 242.917  12
  -3  13   3 237.520 227.155  11
  -2  13   3-60.2021 188.372  17
   2  13  -3-580.964 365.928   6
  -2  13   3-93.2213 252.997  16
   2  13  -3 371.741 163.680  15
  -2  13   3-113.530 215.089   8
  -2  13   3-442.078 324.632  13
   2 -13  -3 151.624 145.316  12
  -2  13   3 70.2845 146.352  11
   1  13  -3 131683. 4654.27   6
  -1  13   3 125715. 2713.20  17
  -1  13   3 126437. 2923.95  16
   1  13  -3 120383. 2308.34  15
  -1  13   3 125646. 2731.93   8
  -1  13   3 114908. 3519.99  13
   1 -13  -3 123846. 2631.80  12
   1  13  -3 111928. 3245.65  11
   0  13  -3 2979.97 885.889   6
   0  13   3 2834.79 508.623  16
   0  13  -3 2380.71 348.118  15
   0  13   3 2886.74 468.367   8
   0  13   3 2951.65 450.976  17
   0 -13  -3 2928.15 438.174  12
   0  13  -3 2591.56 688.505  11
   1  13   3 217.392 229.781  17
  -1  13  -3 843.925 384.567  16
  -1  13  -3-297.419 397.269   6
   1  13   3 138.323 232.816  16
  -1  13  -3 229.474 171.338  15
  -1  13  -3 2.36499 220.437   5
  -1 -13  -3-36.6024 179.706  12
  -1  13  -3 157.938 476.884  11
  -2  13  -3 23201.6 1366.11   6
   2  13   3 27981.2 1293.99  17
   2  13   3 26518.7 1344.08  16
  -2  13  -3 27401.0 1285.84  15
  -2  13  -3 28661.3 1420.40   5
  -2 -13  -3 28650.5 1358.48  12
  -2  13  -3 27766.8 1609.69  11
   3  13   3 744.071 276.493  17
  -3  13  -3 325.669 244.374   6
   3  13   3 227.311 195.048  16
  -3  13  -3 365.636 258.792  15
  -3  13  -3 160.819 219.869   5
  -3 -13  -3 387.269 258.052  12
   4  13   3 7755.97 594.024  17
   4  13   3 8685.75 609.622  16
  -4  13  -3 8598.22 627.701  15
  -4  13  -3 10163.1 713.866   5
  -4 -13  -3 7890.26 634.522   5
  -4 -13  -3 7984.15 683.719  12
   5  13   3 21078.8 664.261  17
  -5  13  -3 22833.9 829.803   5
  -5 -13  -3 23060.4 918.725   5
  -5 -13  -3 23614.3 909.987  12
  -7  14   3 673.107 211.665   9
  -7  14   3 597.816 188.301   8
  -7  14   3 881.915 226.179  13
  -7  14   3 982.770 235.646  11
  -6  14   3 3258.98 420.952   6
  -6  14   3 2979.20 434.832   9
  -6  14   3 3546.34 478.939   8
  -6  14   3 3951.28 529.841  13
  -6  14   3 3559.90 474.341  11
  -5  14   3 10362.3 706.211  17
  -5  14   3 11322.6 953.412   6
  -5  14   3 10679.2 791.130  16
  -5  14   3 9995.55 800.659   9
  -5  14   3 10227.1 813.186   8
  -5  14   3 11859.9 1047.95  13
  -5  14   3 12379.9 916.717  11
  -4  14   3 854.959 273.738  17
  -4  14   3 828.365 295.231  16
  -4  14   3 1601.06 496.129   6
  -4  14   3 562.039 251.687   8
  -4  14   3 753.874 425.022  13
  -4  14   3 1215.19 347.793  11
   3  14  -3 14217.2 1078.00   6
  -3  14   3 16933.4 1020.73  17
  -3  14   3 18568.7 1583.36   6
  -3  14   3 17309.9 1080.27  16
   3  14  -3 16537.6 817.830  15
  -3  14   3 16224.9 962.319   8
  -3  14   3 14686.0 1302.03  13
   3 -14  -3 14682.7 836.271  12
  -3  14   3 17511.8 1113.53  11
   2  14  -3 18851.7 1421.51   6
  -2  14   3 22067.7 1845.47   6
  -2  14   3 20172.9 1186.27  16
   2  14  -3 19240.4 898.349  15
  -2  14   3 19015.0 1050.86   8
  -2  14   3 15901.0 1391.53  13
  -2  14   3 19262.7 1079.86  17
   2 -14  -3 19036.0 998.944  12
  -2  14   3 17774.7 1032.90  11
  -1  14   3 2038.92 393.126  17
   1  14  -3 1580.19 705.637   6
  -1  14   3 2173.02 438.006  16
   1  14  -3 1816.24 289.210  15
  -1  14   3 2113.81 701.799   6
  -1  14   3 1901.19 367.571   8
  -1  14   3 2851.41 659.591  13
   1 -14  -3 2024.05 361.324  12
   1  14  -3 2776.29 673.258  11
   0  14  -3 14121.3 1588.85   6
   0  14   3 14397.2 925.061  17
   0  14   3 15144.0 1332.20   6
   0  14   3 14404.7 1008.67  16
   0  14  -3 13875.4 796.194  15
   0  14   3 13931.8 905.786   8
   0 -14  -3 15609.6 947.386  12
   0  14  -3 14407.1 1362.11  11
  -1  14  -3 30866.4 1853.05   6
   1  14   3 29342.4 1334.33  17
  -1  14  -3 27990.3 1643.27  16
   1  14   3 29201.0 1419.08  16
  -1  14  -3 29849.1 1239.47  15
  -1 -14  -3 29867.8 1353.83  12
  -1  14  -3 26606.5 1854.64  11
   2  14   3 2429.63 432.961  17
  -2  14  -3 2314.30 480.512   6
   2  14   3 2146.87 412.480  16
  -2  14  -3 2116.96 384.195  15
  -2  14  -3 2975.91 490.122   5
  -2 -14  -3 2423.38 413.898  12
  -2  14  -3 3129.98 577.351  11
  -3  14  -3 13172.0 905.301   6
   3  14   3 13512.6 854.907  17
   3  14   3 13547.8 831.286  16
  -3  14  -3 13813.3 834.279  15
  -3  14  -3 14662.4 938.619   5
  -3 -14  -3 12542.7 894.739  12
   4  14   3 23211.6 925.233  17
   4  14   3 22876.0 826.636  16
  -4  14  -3 24895.0 900.406  15
  -4 -14  -3 25501.2 1014.40   5
  -4 -14  -3 26045.9 1081.34  12
  -5 -14  -3 3971.92 338.200   5
  -5 -14  -3 4441.50 362.514  12
  -7  15   3-91.7434 106.507   9
  -7  15   3-136.833 125.215   8
  -7  15   3-66.8515 103.544  13
  -7  15   3 65.2168 111.886  11
  -6  15   3 7615.02 525.074   6
  -6  15   3 8219.87 584.592   9
  -6  15   3 9449.40 622.226   8
  -6  15   3 10677.9 739.990  13
  -6  15   3 9466.69 658.936  11
  -5  15   3 1024.34 222.785  17
  -5  15   3 1526.80 285.566  16
  -5  15   3 1601.08 318.744   9
  -5  15   3 1019.29 310.661   6
  -5  15   3 1296.79 327.392   8
  -5  15   3 1310.80 375.865  13
  -5  15   3 1608.79 361.315  11
  -4  15   3 1022.58 263.818  17
  -4  15   3 972.461 311.977  16
  -4  15   3 1295.20 457.328   6
  -4  15   3 682.838 273.451   8
  -4  15   3 969.173 375.132  13
  -4  15   3 973.616 309.378  11
   3  15  -3 11007.8 919.310   6
  -3  15   3 13348.8 1239.09   6
  -3  15   3 12464.5 912.832  16
  -3  15   3 11151.7 784.995   8
  -3  15   3 12696.0 1115.94  13
  -3  15   3 11422.6 816.423  17
  -3  15   3 12477.9 904.713  11
  -2  15   3 2784.24 448.127  17
  -2  15   3 3399.68 519.759  16
   2  15  -3 3352.30 645.936   6
  -2  15   3 3824.48 793.954   6
  -2  15   3 2546.21 405.793   8
  -2  15   3 2832.56 611.636  13
   2 -15  -3 2617.70 370.396  12
  -2  15   3 2723.89 403.229  11
   1  15  -3 8630.36 1182.99   6
  -1  15   3 7538.32 681.539  17
  -1  15   3 9679.00 1128.39   6
  -1  15   3 7927.39 748.134  16
  -1  15   3 8231.43 678.245   8
   1 -15  -3 8017.93 644.525  12
   1  15  -3 9134.78 992.910  11
   0  15  -3 10472.5 1346.22   6
   0  15   3 9715.30 761.881  17
   0  15   3 9672.36 944.218   6
   0  15   3 10188.2 840.767  16
   0  15  -3 9964.33 658.166  15
   0 -15  -3 9887.15 750.107  12
   0  15  -3 10619.7 1196.29  11
   1  15   3 3128.91 497.556  16
  -1  15  -3 3791.61 734.244   6
  -1  15  -3 2920.49 402.545  15
  -1 -15  -3 3193.50 460.023  12
   1  15   3 3830.61 515.755  17
  -1  15  -3 4706.46 821.743  11
   2  15   3 1697.38 366.728  17
  -2  15  -3 813.723 366.547   6
   2  15   3 1257.13 334.018  16
  -2  15  -3 1082.93 280.505  15
  -2 -15  -3 1373.34 358.200  12
  -2  15  -3 1693.90 458.816  11
   3  15   3 666.802 242.398  17
  -3  15  -3 1132.79 298.371   6
   3  15   3 742.307 191.470  16
  -3  15  -3 733.962 190.837  15
  -3 -15  -3 760.620 266.856  12
  -3 -15  -3 567.834 191.141   5
   4  15   3 1129.16 209.579  17
  -4 -15  -3 1187.94 238.523  12
  -4 -15  -3 921.186 196.283   5
  -6  16   3 2211.75 279.214   8
  -6  16   3 2499.67 339.781  13
  -6  16   3 2263.18 301.706  11
  -5  16   3 990.018 238.315  16
  -5  16   3 985.876 280.085   6
  -5  16   3 727.480 223.057   8
  -5  16   3 1032.92 279.117  13
  -5  16   3 891.132 268.261  11
  -4  16   3 645.213 197.840  17
  -4  16   3 563.405 249.315  16
  -4  16   3 583.288 320.525   6
  -4  16   3 329.365 218.906   8
  -4  16   3 542.599 265.289  13
  -4  16   3 470.806 267.978  11
  -3  16   3 999.786 269.045  17
   3  16  -3 791.523 288.060   6
  -3  16   3 612.308 287.949  16
  -3  16   3 558.370 367.649   6
  -3  16   3 357.383 206.194  11
  -3  16   3 476.385 231.331   8
  -3  16   3 72.2527 233.235  13
  -2  16   3 449.424 207.533  17
   2  16  -3 933.150 389.604   6
  -2  16   3 873.406 302.550  16
  -2  16   3 474.048 388.026   6
  -2  16   3 520.533 237.405   8
  -2  16   3 1296.49 368.710  13
  -1  16   3 112.000 180.729  17
   1  16  -3-150.393 450.128   6
  -1  16   3-239.542 225.340  16
  -1  16   3-366.674 342.608   6
  -1  16   3 121.631 190.575   8
   1 -16  -3 120.634 136.839  12
   0  16  -3 10090.1 1201.22   6
   0  16   3 9922.99 744.055  17
   0  16   3 8778.37 817.448   6
   0  16   3 9371.41 767.937  16
   0 -16  -3 10871.5 761.648  12
   0  16  -3 10754.2 1124.11  11
  -1  16  -3 7380.72 850.069   6
   1  16   3 6197.72 606.377  17
   1  16   3 6651.64 631.158  16
  -1 -16  -3 6585.57 619.778  12
  -1  16  -3 7709.76 929.193  11
  -2  16  -3 8973.06 766.344   6
   2  16   3 8671.95 653.282  17
   2  16   3 7768.66 614.643  16
  -2 -16  -3 8561.73 673.985  12
   3  16   3 1865.26 291.047  17
   3  16   3 2040.26 249.678  16
  -3 -16  -3 2184.00 264.378   5
  -3 -16  -3 2417.93 323.676  12
   4  16   3 6899.34 365.708  17
  -4 -16  -3 7369.66 410.511  12
  -6  17   3 1642.83 184.881   8
  -6  17   3 1392.37 209.703  13
  -6  17   3 1285.18 185.487  11
  -5  17   3 5635.52 459.706   6
  -5  17   3 6028.77 442.715  16
  -5  17   3 5623.36 433.585   8
  -5  17   3 6057.85 497.384  13
  -5  17   3 6282.81 491.364  11
  -4  17   3 599.659 155.656  17
  -4  17   3 623.557 227.891  16
  -4  17   3 881.566 269.401   6
  -4  17   3 407.719 182.106   8
  -4  17   3 667.136 247.279  13
  -4  17   3 657.792 226.267  11
  -3  17   3 125.160 133.525  17
  -3  17   3 163.737 197.119  16
  -3  17   3 32.6870 240.364   6
  -3  17   3 252.723 173.388   8
  -3  17   3 403.323 186.107  13
  -3  17   3 44.1769 132.591  11
  -2  17   3 3357.07 414.194  17
  -2  17   3 3045.31 449.945  16
   2  17  -3 3175.34 533.064   6
  -2  17   3 3623.89 596.280   6
  -2  17   3 3214.02 368.130   8
   1  17  -3 37211.3 1890.00   6
  -1  17   3 39180.2 1364.25  17
  -1  17   3 38894.9 1699.61   6
  -1  17   3 37164.5 1425.57  16
   0  17   3 296.815 198.448  17
   0  17  -3 564.761 468.984   6
   0  17   3 417.267 248.476  16
   0  17   3 323.443 190.270   6
   0 -17  -3 229.490 136.607  12
  -1  17  -3 5274.64 670.439   6
   1  17   3 5320.93 507.189  17
   1  17   3 4389.10 480.767  16
  -1 -17  -3 4308.14 453.751  12
  -2  17  -3 7857.07 632.551   6
   2  17   3 7659.42 550.971  17
   2  17   3 7401.63 515.059  16
  -2 -17  -3 7875.58 536.153  12
   3  17   3-21.1242 98.3322  17
  -3 -17  -3 174.104 90.1935  12
  -5  18   3 1085.03 159.234   8
  -4  18   3 14165.2 747.227   6
  -4  18   3 12836.7 670.846  16
  -4  18   3 13699.3 622.916   8
  -4  18   3 11219.4 586.380  13
  -4  18   3 10906.9 576.499  11
  -3  18   3 10750.5 559.663  17
  -3  18   3 13297.6 847.780   6
  -3  18   3 13155.8 758.620  16
  -3  18   3 12303.6 623.565   8
  -3  18   3 9512.76 570.073  13
  -3  18   3 9157.36 524.389  11
  -2  18   3 490.890 164.519  17
   2  18  -3 775.333 312.583   6
  -2  18   3 1085.19 285.002  16
  -2  18   3 696.828 308.742   6
   1  18  -3 4721.92 625.740   6
  -1  18   3 4231.17 429.290  17
  -1  18   3 3993.87 489.174   6
  -1  18   3 3744.58 442.676  16
   0  18  -3 4261.06 621.491   6
   0  18   3 4249.90 427.426  17
   0  18   3 3128.74 351.072   6
   0  18   3 3718.09 421.974  16
  -1  18  -3 3991.57 501.331   6
   1  18   3 3509.04 370.136  17
   1  18   3 3749.88 384.904  16
   2  18   3 169.852 107.990  17
  -3  19   3 918.049 194.513  16
  -3  19   3 1316.74 242.229   6
  -2  19   3 1174.71 176.033  17
  -2  19   3 1252.49 234.094  16
  -2  19   3 1272.09 272.766   6
  -1  19   3 8076.16 490.546  17
  -1  19   3 7241.08 506.081   6
  -1  19   3 8212.52 550.842  16
   0  19   3 1436.91 225.658  17
   0  19   3 1600.41 244.145  16
   1  19   3 646.630 138.988  17
 -10   0   4 10809.6 517.606   9
  -9   0   4 16267.0 884.352   9
  -9   0   4 16923.1 831.296  10
  -8   0   4 1300.21 372.870  10
  -8   0   4 1306.42 380.609   9
   8   0  -4 1567.92 371.751   7
   7   0  -4 14281.3 1270.26   7
  -7   0   4 13518.2 1149.39  10
   6   0  -4 68043.0 2456.66   7
  -6   0   4 64589.7 2202.11  10
  -5   0   4 662.478 189.032  10
   5   0  -4 505.277 221.016   7
   4   0  -4 2769.66 735.264  19
  -4   0   4 4263.31 790.243   2
  -3   0   4 123231. 4215.65   2
  -3   0   4 114418. 3608.63  20
   3   0  -4 117370. 4519.23  19
  -2   0   4 10885.1 1278.41   2
  -2   0   4 10494.8 1184.42  20
   2   0  -4 11717.8 1470.51  19
  -1   0   4 35572.0 2393.90   2
  -1   0   4 31966.4 2199.98  20
   1   0  -4 31453.6 2545.45  19
   0   0   4 60378.7 3134.22   2
   0   0   4 63764.4 3246.47  20
   0   0  -4 64931.1 3745.74  19
   1   0   4 7832.00 1164.19   2
   1   0   4 10791.5 1389.46  20
  -1   0  -4 10780.5 1522.80  19
  -2   0  -4 151366. 3102.45  14
  -2   0  -4 152616. 3214.50   7
  -3   0  -4-181.924 308.102  10
  -3   0  -4 348.126 306.768   7
  -3   0  -4 450.243 391.063  14
  -3   0  -4 575.622 236.195   5
  -4   0  -4 15687.5 1198.03  10
  -4   0  -4 16220.4 1239.50  14
  -4   0  -4 15251.4 1084.90   5
  -4   0  -4 15879.6 1277.08   7
  -5   0  -4 117526. 2361.19  10
  -5   0  -4 116958. 2490.93  14
  -5   0  -4 115573. 2699.66   5
  -6   0  -4-21.5506 87.3830  10
  -6   0  -4-6.17721 98.4210  14
  -6   0  -4-10.6469 120.188   8
  -6   0  -4-46.1006 153.571   5
  -7   0  -4 4310.86 303.637   5
  -7   0  -4 3765.31 257.219   8
 -10   1   4 1277.08 190.533   9
 -10  -1   4 1203.87 178.702   9
  -9   1   4 15479.6 860.736   9
  -9  -1   4 16660.6 886.974   9
   9  -1  -4 16701.7 800.077   7
  -8   1   4 256.872 255.594  10
  -8  -1   4 372.348 262.372  10
  -8   1   4 485.784 283.012   9
  -8  -1   4-200.566 268.559   9
   8  -1  -4-94.3231 213.948   7
  -7   1   4 266.583 345.158  10
  -7  -1   4 163.194 287.188  10
  -7   1   4 464.682 341.907   9
   7  -1  -4 163.953 328.081   7
   6   1  -4 14892.7 1105.78   7
   6  -1  -4 14580.8 1201.67   7
  -6   1   4 15632.0 1081.65  10
  -6  -1   4 15169.4 1071.34  10
  -5   1   4 2745.46 393.489  10
  -5  -1   4 2814.27 373.330  10
   5  -1  -4 3144.11 477.792   7
  -4   1   4 23100.0 1851.36   2
  -4  -1   4 24140.1 1919.65   2
   4  -1  -4 24000.0 2011.85  19
   4   1  -4 23311.1 2039.24  19
  -3   1   4 162.887 220.927   2
  -3  -1   4 667.678 344.472   2
   3   1  -4 118.037 277.352  19
  -3  -1   4 156.016 243.653  20
  -3   1   4 179.290 247.954  20
   3  -1  -4-479.375 413.490  19
  -2   1   4 4928.08 884.194   2
  -2  -1   4 5228.05 942.227   2
   2  -1  -4 5202.61 1006.47  19
  -2  -1   4 5305.75 848.977  20
  -2   1   4 5395.06 848.892  20
   2   1  -4 4785.46 952.917  19
  -1   1   4 29754.4 2191.02   2
  -1  -1   4 29234.1 2160.23   2
  -1  -1   4 27487.9 2017.49  20
  -1   1   4 30326.2 2161.47  20
   1  -1  -4 30979.6 2501.71  19
   1   1  -4 27717.2 2386.60  19
   0   1   4 22701.2 1941.21   2
   0  -1   4 22307.8 1906.02   2
   0  -1   4 21777.4 1887.39  20
   0   1   4 21777.0 1913.70  20
   0  -1  -4 20001.5 2203.74  19
   0   1  -4 21297.8 2113.56  19
   1   1   4-99.9765 258.669   2
  -1  -1  -4 3.84944 209.356  19
   1  -1   4-277.855 286.476   2
   1  -1   4-36.1399 218.398  20
  -2  -1  -4 106532. 2664.21  14
  -2   1  -4 107168. 2610.22  14
  -2   1  -4 91149.1 2738.40   5
  -2  -1  -4 92921.0 2829.37   5
  -2   1  -4 107573. 2761.24   7
  -2  -1  -4 100997. 2613.09   7
  -3   1  -4 1002.79 404.782  10
  -3  -1  -4 1492.56 491.540  10
  -3  -1  -4 1110.85 407.815  14
  -3   1  -4 1552.17 451.928  14
  -3   1  -4 1084.63 334.467   5
  -3  -1  -4 964.746 362.420   5
  -3   1  -4 874.688 352.237   7
  -3  -1  -4 1162.67 412.693   7
  -4   1  -4 7199.89 802.870  10
  -4  -1  -4 6913.35 870.180  10
  -4   1  -4 6096.69 568.805  15
  -4  -1  -4 7215.79 834.453  14
  -4   1  -4 6992.70 853.671  14
  -4   1  -4 7260.88 775.174   5
  -4  -1  -4 6877.09 741.948   5
  -4  -1  -4 7738.61 929.623   7
  -5   1  -4 11520.7 707.111  10
  -5  -1  -4 12267.0 811.878  10
  -5  -1  -4 12605.6 827.665  14
  -5   1  -4 12827.5 842.623  14
  -5   1  -4 12090.4 897.492   5
  -5  -1  -4 13150.7 945.485   5
  -5   1  -4 11088.8 744.986   8
  -6   1  -4 857.137 155.699  10
  -6  -1  -4 848.061 174.053  10
  -6  -1  -4 812.910 189.263  14
  -6   1  -4 885.514 181.661  14
  -6   1  -4 869.703 203.715   8
  -6  -1  -4 549.540 181.358   8
  -6   1  -4 1414.03 296.510   5
  -6  -1  -4 1318.26 307.055   5
  -7  -1  -4 12441.2 410.514  14
  -7   1  -4 15812.9 559.751   5
  -7  -1  -4 15767.2 574.210   5
  -7   1  -4 14007.2 469.413   8
  -7  -1  -4 13875.5 488.145   8
 -10   2   4 3969.38 327.062   9
 -10  -2   4 2559.86 227.474   9
  -9   2   4 12762.3 782.137   9
  -9  -2   4 12965.7 771.720   9
   9  -2  -4 13115.1 737.175   7
  -9  -2   4 14147.2 752.986  10
  -8   2   4 7206.69 718.300   9
  -8  -2   4 7790.55 775.884   9
   8  -2  -4 8280.99 847.441   7
  -8   2   4 8259.42 722.740  10
  -8  -2   4 8745.85 796.866  10
  -7   2   4 27792.1 1477.70   9
  -7  -2   4 14601.1 1185.57  10
   7  -2  -4 18252.6 1577.51   7
  -7   2   4 26628.1 1463.10  10
  -6   2   4 39.0265 186.993  10
  -6  -2   4 452.497 230.178  10
   6  -2  -4 51.1614 371.491   7
   5  -2  -4 8386.11 730.906   7
  -5  -2   4 8036.63 618.762  10
  -4   2   4 100427. 3857.81   2
  -4  -2   4 96007.3 3764.66   2
   4  -2  -4 104226. 4180.73  19
   4   2  -4 94706.1 4180.52  19
   4  -2  -4 106952. 3837.97  18
  -3   2   4 5077.34 847.206   2
  -3  -2   4 4627.48 838.223   2
  -3   2   4 4532.80 804.218  20
   3  -2  -4 4951.06 922.367  19
   3   2  -4 5397.57 1071.07  19
  -2  -2   4 8676.00 1037.39  20
  -2   2   4 8675.44 1166.18   2
  -2  -2   4 8112.14 1097.41   2
  -2   2   4 7718.50 1059.47  20
   2  -2  -4 8776.31 1291.89  19
   2   2  -4 9954.79 1398.09  19
  -1   2   4 100662. 3957.07  20
  -1   2   4 102210. 4112.18   2
  -1  -2   4 102610. 4054.00   2
  -1  -2   4 96751.3 3691.21  20
   1  -2  -4 95465.3 4460.38  19
   1   2  -4 94962.0 4440.10  19
   0   2   4 1547.13 508.285   2
   0  -2   4 1155.10 473.562   2
   0  -2  -4 1213.84 539.048  19
   0  -2   4 1935.12 561.618  20
   0   2   4 1373.04 521.955  20
   0   2  -4 2013.21 677.241  19
   1   2   4 12545.0 1524.56   2
   1  -2   4 12770.7 1524.16   2
   1  -2   4 14347.5 1632.36  20
   1   2   4 12149.6 1587.21  20
  -1  -2  -4 13087.9 1765.79  19
  -1   2  -4 14749.5 1696.49  19
  -2   2  -4 48131.5 1545.60  15
  -2  -2  -4 57382.0 2013.71  14
  -2   2  -4 57465.6 1909.21  14
  -2   2  -4 45632.0 1936.25   5
  -2  -2  -4 47312.6 2047.97   5
  -2   2  -4 54324.7 2026.97   7
  -2  -2  -4 51881.1 1857.39   7
  -3   2  -4 1126.33 400.541  10
  -3  -2  -4 2033.97 566.638  10
  -3   2  -4 842.063 269.868  15
  -3  -2  -4 838.705 389.528  14
  -3   2  -4 1921.60 511.540  14
  -3   2  -4 1181.06 355.621   5
  -3  -2  -4 1936.30 445.363   5
  -3   2  -4 1398.69 470.636   7
  -3  -2  -4 1766.69 458.664   7
  -4   2  -4 8429.61 779.038  10
  -4  -2  -4 7735.31 916.762  10
  -4   2  -4 7608.50 653.225  15
  -4  -2  -4 7635.63 836.251  14
  -4   2  -4 7468.44 884.763  14
  -4   2  -4 8246.86 811.562   5
  -4  -2  -4 8851.24 836.618   5
  -4  -2  -4 7947.23 948.840   7
  -5   2  -4 9849.71 607.163  10
  -5  -2  -4 12459.9 841.020  10
  -5  -2  -4 10787.8 748.121  14
  -5   2  -4 11059.5 763.627  14
  -5   2  -4 10997.6 847.662   5
  -5   2  -4 10126.1 698.557   8
  -5  -2  -4 10234.1 822.256   5
  -6  -2  -4 55.3040 99.0365  10
  -6   2  -4 114.027 89.8477  14
  -6  -2  -4 229.914 143.348  14
  -6   2  -4 247.248 147.915   8
  -6  -2  -4 332.720 167.044   8
  -6   2  -4 202.165 161.034   5
  -6  -2  -4 86.1678 172.392   5
  -7  -2  -4 815.281 116.335  14
  -7  -2  -4 655.712 115.770   8
  -7   2  -4 967.592 148.449   5
  -7  -2  -4 718.334 135.841   5
 -10   3   4 15457.6 619.198   9
  10  -3  -4 13276.7 485.907   7
  -9   3   4 9751.85 685.068   9
  -9  -3   4 9040.19 635.191   9
   9  -3  -4 8724.58 615.091   7
  -9  -3   4 9205.28 589.777  10
  -8   3   4 3916.01 551.352   9
   8  -3  -4 4396.86 640.667   7
  -8  -3   4 4189.77 552.659  10
  -7   3   4 24616.0 1367.85   9
  -7   3   4 24215.7 1330.13  10
   7  -3  -4 16813.7 1559.75   7
  -6  -3   4 17051.7 1084.50  10
  -6   3   4 16776.9 1170.03   9
   6  -3  -4 19707.1 1477.22   7
  -6   3   4 15863.6 1045.41  10
  -5  -3   4 186.255 113.528  10
   5  -3  -4 343.697 233.730   7
  -4   3   4 52487.3 2749.42   2
   4  -3  -4 53022.7 2973.89  19
  -4  -3   4 54024.9 2854.81   2
   4   3  -4 56414.7 3328.01  19
  -3   3   4 8717.17 1118.25   2
  -3  -3   4 8329.54 1125.92   2
  -3   3   4 8452.02 1086.74  20
   3  -3  -4 8894.81 1255.44  19
   3   3  -4 8710.75 1323.17  19
  -2   3   4 2911.68 662.233   2
  -2  -3   4 2523.26 629.871   2
  -2   3   4 2297.76 587.488  20
   2  -3  -4 2220.02 690.760  19
   2   3  -4 1797.32 629.512  19
   1  -3  -4 5473.71 1167.82   1
   1   3  -4 5836.70 1134.55  19
  -1   3   4 6336.68 998.356   2
  -1  -3   4 5247.94 941.462   2
  -1  -3   4 5842.01 900.801  20
  -1   3   4 4895.80 956.867  20
   1  -3  -4 6897.78 1236.13  19
   0   3   4 1968.45 604.799   2
   0  -3   4 3009.91 725.648   2
   0  -3  -4 3352.86 960.678   1
   0  -3   4 3654.79 743.852  20
   0   3   4 3774.37 829.260  20
   0  -3  -4 2857.95 883.561  19
   0   3  -4 4408.08 868.551  19
   1   3   4 3261.02 733.138   2
   1  -3   4 2165.42 629.603   2
  -1  -3  -4 3068.64 438.618  14
  -1   3  -4 2716.05 374.052  14
  -1  -3  -4 2744.88 390.095   7
   1  -3   4 2927.44 743.065  20
   1   3   4 1776.68 631.215  20
  -1  -3  -4 3327.23 957.431  19
  -1   3  -4 1877.82 726.200  19
  -2   3  -4 6643.21 590.841  15
  -2  -3  -4 7154.81 758.017  14
  -2   3  -4 7017.16 682.272  14
  -2   3  -4 6420.59 737.718   5
  -2  -3  -4 6963.07 839.592   5
  -2   3  -4 6744.27 766.324   7
  -2  -3  -4 6679.24 681.059   7
  -3  -3  -4 1067.75 441.043  10
  -3   3  -4 955.913 304.942  15
  -3  -3  -4 333.404 289.700  14
  -3   3  -4 1312.84 470.389  14
  -3   3  -4 690.264 326.861   5
  -3  -3  -4 989.732 350.557   5
  -3   3  -4 226.428 310.681   7
  -3  -3  -4 1196.13 397.222   7
  -4  -3  -4 1473.64 470.366  10
  -4   3  -4 1690.88 347.987  15
  -4  -3  -4 1831.97 439.241  14
  -4   3  -4 1632.05 479.916  14
  -4   3  -4 1836.73 346.049   8
  -4   3  -4 2194.71 483.325   5
  -4  -3  -4 1898.79 446.166   5
  -4  -3  -4 1805.46 503.211   7
  -5  -3  -4 221.849 216.429  10
  -5  -3  -4 44.8537 164.582  14
  -5   3  -4 110.394 152.074  14
  -5   3  -4 158.150 142.049   8
  -5   3  -4 135.099 252.339   5
  -5  -3  -4 121.286 234.316   5
  -6  -3  -4 1598.47 238.567  10
  -6   3  -4 1715.98 206.459  14
  -6  -3  -4 2010.45 256.186  14
  -6   3  -4 1977.67 272.659   8
  -6  -3  -4 2485.85 361.545   5
  -6  -3  -4 2009.92 285.819   8
  -6   3  -4 2074.49 322.287   5
 -10   4   4 384.282 117.209   9
  10  -4  -4 220.242 84.6650   7
  -9  -4   4 1687.75 267.870  10
  -9   4   4 1872.79 340.378   9
  -9  -4   4 1556.79 280.500   9
   9  -4  -4 1834.18 298.804   7
  -8  -4   4 1828.71 349.053  10
  -8   4   4 1778.50 379.096   9
   8  -4  -4 2402.55 524.298   7
  -7  -4   4 720.563 359.638  10
  -7   4   4 1173.85 377.963   9
   7  -4  -4 292.264 399.727   7
  -6  -4   4 213.508 165.804  10
  -6   4   4-282.757 240.507   9
   6  -4  -4 48.1924 293.434   7
  -5  -4   4-109.116 92.9754  10
  -5   4   4 263.761 190.616   9
  -5   4   4 113.651 161.941  13
   5  -4  -4-118.477 172.717   7
  -4   4   4 4227.89 801.025   2
  -4  -4   4 3517.46 732.112   2
   4  -4  -4 5231.38 547.785   7
  -3   4   4-547.099 306.366   2
  -3  -4   4-641.294 306.472   2
  -3   4   4 159.076 277.996  20
   3  -4  -4-625.310 405.039  19
   3   4  -4-323.326 278.058  19
  -2   4   4 4162.17 787.802   2
  -2  -4   4 4066.18 856.455   2
   2  -4  -4 3441.22 889.597   1
  -2   4   4 3917.13 780.449  20
   2  -4  -4 3226.76 763.921  19
   2   4  -4 1948.82 647.517  19
   1  -4  -4 1515.27 628.663   1
  -1   4   4-47.3041 183.048   2
  -1  -4   4 120.364 178.125   2
  -1   4   4 1067.02 471.535  20
   1  -4  -4-572.026 409.079  19
   1   4  -4-1089.78 579.298  19
   0   4   4 497.043 347.261   2
   0  -4   4-27.1969 313.728   2
   0  -4  -4-443.439 475.408  19
   0  -4  -4 2183.24 1136.27   1
   0   4  -4 1727.36 620.294  19
   0  -4   4-572.127 358.834  20
   0   4   4 203.815 424.402  20
   1  -4   4 26.7352 106.021   2
  -1   4  -4 154.925 104.292  15
  -1  -4  -4-133.277 113.268  14
  -1   4  -4 1.79817 124.978  14
  -1   4  -4 377.717 230.121   5
  -1  -4  -4 111.782 153.425   7
  -2   4  -4 7633.48 624.539  15
  -2  -4  -4 8344.64 861.430  14
  -2   4  -4 8434.13 749.838  14
  -2   4  -4 7713.67 796.514   5
  -2  -4  -4 7156.64 857.465   5
  -2  -4  -4 7969.30 627.370  12
  -2   4  -4 7437.82 835.722   7
  -2  -4  -4 7585.99 719.195   7
  -3  -4  -4 1902.29 520.755  10
  -3   4  -4 1646.50 383.532  15
  -3  -4  -4 1574.00 502.143  14
  -3   4  -4 3001.34 597.500  14
  -3   4  -4 1866.92 457.867   5
  -3   4  -4 2131.07 505.938   7
  -3  -4  -4 2347.56 450.174   5
  -3  -4  -4 2324.85 505.718   7
  -4  -4  -4 2366.85 555.150  10
  -4   4  -4 2097.34 403.179  15
  -4  -4  -4 2272.22 444.284  14
  -4   4  -4 2258.89 495.524  14
  -4   4  -4 1623.18 301.982   8
  -4   4  -4 2372.95 472.159   5
  -4  -4  -4 2485.50 480.066   5
  -4  -4  -4 2356.87 530.458   7
  -5  -4  -4 646.695 248.728  10
  -5  -4  -4 280.832 186.585  14
  -5   4  -4 902.504 199.976  14
  -5   4  -4 689.983 210.003   8
  -5   4  -4 387.636 248.650   5
  -5  -4  -4 348.403 237.894   5
  -6  -4  -4 482.937 160.384  10
  -6  -4  -4 584.585 152.485  14
  -6   4  -4 536.862 145.008   8
  -6   4  -4 479.065 174.499   5
  -6  -4  -4 708.295 229.885   5
 -10   5   4 7447.25 404.380   9
  10  -5  -4 7911.94 370.984   7
  -9   5   4 5596.70 521.271   9
  -9  -5   4 4711.72 424.806   9
   9  -5  -4 5637.92 488.269   7
  -9   5   4 5070.82 404.632  11
  -8   5   4 8447.12 738.249   9
   8  -5  -4 9841.26 892.038   7
  -8  -5   4 9175.81 713.487  10
  -7   5   4 16424.7 1074.04   9
   7  -5  -4 14456.0 1344.25   7
  -6  -5   4 1345.36 301.820  10
  -6   5   4 1550.82 387.458   9
  -6   5   4 1603.08 407.278  13
   6  -5  -4 1572.60 520.410   7
  -5   5   4 40936.0 1723.52   9
  -5   5   4 41380.1 1671.68  13
   5  -5  -4 41028.6 1699.62   7
  -5  -5   4 38581.9 1317.91  10
   4  -5  -4 576.610 202.124   7
  -3  -5   4-418.982 252.373   2
   3  -5  -4 358.328 406.048  19
   3   5  -4-494.646 465.734  19
  -2   5   4 5898.27 937.186   2
   2  -5  -4 6730.26 1287.63   1
  -2  -5   4 5984.17 964.149   2
  -2   5   4 6664.19 1016.99  20
   2  -5  -4 7080.16 1236.73  19
   2   5  -4 4991.53 1131.15  19
  -1   5   4-265.544 363.473   2
  -1  -5   4 139.755 187.997   2
  -1   5   4-235.070 354.335  20
   1  -5  -4-668.968 470.382  19
   1   5  -4 592.550 429.236  19
   0   5   4 6181.22 1039.42   2
   0  -5   4 5640.79 999.813   2
   0   5   4 6266.62 1078.19  20
   0  -5  -4 2573.30 1107.65   1
   0  -5  -4 4349.22 1196.72  19
   0   5  -4 5289.07 1126.87  19
  -1   5  -4 7643.95 580.531  15
  -1  -5  -4 9037.95 802.118  14
  -1   5  -4 8118.23 661.505  14
  -1   5  -4 7690.32 713.006   5
  -1  -5  -4 7583.84 604.388  12
  -1  -5  -4 7251.45 643.548   7
  -2   5  -4 15061.5 885.791  15
  -2  -5  -4 15777.6 1241.85  14
  -2   5  -4 17485.6 1058.72  14
  -2   5  -4 15785.9 1138.84   5
  -2  -5  -4 15806.7 1236.84   5
  -2  -5  -4 16048.5 912.787  12
  -2  -5  -4 16446.1 1032.55   7
  -3  -5  -4 472.716 314.030  10
  -3   5  -4 7.87560 215.303  15
  -3  -5  -4 332.813 320.441  14
  -3   5  -4 605.351 338.453  14
  -3   5  -4 399.098 334.211   5
  -3  -5  -4 223.557 169.803  12
  -3  -5  -4 327.119 254.980   5
  -3  -5  -4 398.218 263.711   7
  -4  -5  -4 5053.00 701.558  10
  -4   5  -4 4284.76 534.571  15
  -4  -5  -4 4722.85 567.439  14
  -4   5  -4 4289.74 587.564  14
  -4   5  -4 4760.94 618.438   5
  -4  -5  -4 4265.92 568.403   5
  -4  -5  -4 4652.90 682.951   7
  -5  -5  -4 110.523 180.487  10
  -5   5  -4 331.558 223.830  15
  -5  -5  -4 163.218 138.475  14
  -5   5  -4 75.0349 84.8093  14
  -5   5  -4 127.863 131.543   8
  -5   5  -4-315.239 229.528   5
  -5  -5  -4 223.124 218.514   5
  -6  -5  -4 3736.32 320.906  10
  -6  -5  -4 3307.24 301.011  14
  -6   5  -4 3832.40 380.317   5
  -6   5  -4 3040.59 276.191   8
  -6  -5  -4 4185.72 414.178   5
  -9   6   4 12209.9 728.120   9
  -9  -6   4 9731.76 549.766   9
   9  -6  -4 11154.9 644.501   7
  -9   6   4 11449.4 580.804  11
  -8  -6   4 1208.03 276.757  10
  -8   6   4 1293.34 331.976   9
   8  -6  -4 828.974 292.518   7
  -7   6   4 11962.9 908.153   9
   7  -6  -4 11331.6 1151.12   7
  -7  -6   4 9424.71 781.871  10
  -6  -6   4-25.5569 97.8970  10
  -6   6   4-287.653 216.492   9
  -6   6   4 30.7899 307.918  13
   6  -6  -4 319.303 306.222   7
  -5   6   4 1444.94 318.410   9
  -5   6   4 1747.63 397.999  13
   5  -6  -4 1338.66 335.679   7
   4  -6  -4 84647.7 2218.34   7
   3  -6  -4 8920.21 718.504   7
  -3  -6   4 8845.75 1191.73   2
   3  -6  -4 9040.63 1326.61  19
  -2  -6   4 2936.57 754.631   2
   2  -6  -4 2623.69 951.167   1
  -2   6   4 2373.89 686.218  20
   2  -6  -4 929.298 433.304  19
   2   6  -4 2159.46 812.280  19
   1   6  -4 45229.4 1376.32  15
   1  -6  -4 40743.2 3524.27   1
  -1   6   4 43827.5 2709.13   2
  -1  -6   4 43680.4 2732.11   2
  -1   6   4 40815.3 2651.12  20
   1  -6  -4 43828.3 3427.18  19
   1   6  -4 39086.2 3201.87  19
   0   6   4 8335.95 1218.01   2
   0   6  -4 6740.91 538.715  15
   0  -6  -4 6358.32 580.644  12
   0  -6  -4 6986.63 618.933   7
  -1   6  -4 283.538 163.887  15
  -1  -6  -4 9.76171 159.033  14
  -1   6  -4 632.841 213.000  14
  -1   6  -4 191.077 206.440   5
  -1  -6  -4-148.933 130.385  12
  -1  -6  -4 389.114 164.330   7
  -2   6  -4 18890.9 1012.02  15
  -2   6  -4 21275.6 1157.64  14
  -2   6  -4 18509.1 1199.06   5
  -2  -6  -4 18310.5 1314.05   5
  -2  -6  -4 18896.0 1012.39  12
  -2  -6  -4 19133.5 1113.86   7
  -3  -6  -4 196.818 290.582  10
  -3   6  -4-156.139 259.539  15
  -3  -6  -4 116.532 260.508  14
  -3   6  -4 80.6197 256.437  14
  -3   6  -4-29.5666 264.977   5
  -3  -6  -4 215.260 242.007  12
  -3  -6  -4-147.514 223.602   5
  -3  -6  -4 234.251 228.133   7
  -4  -6  -4 126.932 240.745  10
  -4   6  -4 22.6504 199.347  15
  -4  -6  -4 311.281 203.334  14
  -4   6  -4 323.293 243.543   5
  -4  -6  -4 157.864 166.775  12
  -4  -6  -4 86.7460 183.479   5
  -4  -6  -4 129.319 205.457   7
  -5  -6  -4 579.283 213.273  10
  -5   6  -4 851.735 245.949  15
  -5  -6  -4 661.227 190.443  14
  -5   6  -4 464.413 216.132   5
  -5  -6  -4 694.527 250.518   5
  -6  -6  -4 1558.52 207.181  10
  -6  -6  -4 1507.22 206.150  14
  -6   6  -4 1512.31 234.123   5
  -6  -6  -4 1613.37 257.574   5
  -9   7   4 46246.3 1323.68   9
   9  -7  -4 42684.2 1179.51   7
  -8   7   4 2307.61 411.610   9
   8  -7  -4 3022.66 472.636   7
  -7   7   4 14607.9 992.197   9
  -7   7   4 14722.2 1111.95  13
   7  -7  -4 15704.0 1252.51   7
  -7  -7   4 12600.1 837.131  10
  -6   7   4 55443.2 1964.12   9
  -6   7   4 60597.2 2457.53  13
   6  -7  -4 57612.9 2323.91   7
  -6  -7   4 56825.8 1732.44  10
  -5   7   4 5141.07 623.829   9
  -5   7   4 6275.03 742.912  13
   5  -7  -4 6018.83 688.683   7
  -4   7   4 5517.40 503.230   8
  -4   7   4 6921.11 691.656  13
   4  -7  -4 5852.93 600.616   7
  -3   7   4 27550.5 1082.85   8
   3  -7  -4 31865.6 1355.73  12
   3  -7  -4 30682.7 1335.24   7
   2   7  -4 25526.3 1103.49  15
  -2   7   4 22106.1 1006.04   8
   2  -7  -4 25777.2 1220.02  12
   2  -7  -4 24995.3 1204.34   7
  -2  -7   4 23291.7 1935.27   2
  -1   7   4 18560.1 956.711  17
   1   7  -4 18692.9 929.138  15
  -1   7   4 19273.7 1000.96   8
   1  -7  -4 19750.0 1056.33  12
   1  -7  -4 18791.4 1029.13   7
   0   7   4 13000.9 769.372  17
   0   7  -4 12428.1 742.179  15
   0   7  -4 12323.4 783.613  14
   0   7  -4 12335.0 820.538   5
   0  -7  -4 14277.7 873.103  12
   0  -7  -4 12376.9 831.037   7
  -1   7  -4 13906.5 807.481  15
  -1   7  -4 14910.0 882.358  14
  -1   7  -4 14278.9 976.756   5
  -1  -7  -4 14158.6 860.223  12
  -1  -7  -4 14242.5 887.843   7
  -2  -7  -4 22917.9 1344.11  10
  -2   7  -4 20622.9 1077.50  15
  -2  -7  -4 21635.3 1430.22  14
  -2   7  -4 19154.4 1212.84   5
  -2  -7  -4 22011.2 1382.73   5
  -2  -7  -4 19728.2 1055.83  12
  -2  -7  -4 22270.9 1189.93   7
  -3  -7  -4 4322.08 666.303  10
  -3   7  -4 4783.17 603.599  15
  -3  -7  -4 6466.92 661.802  14
  -3   7  -4 4856.04 636.301   5
  -3  -7  -4 4755.36 611.764   5
  -3  -7  -4 5090.85 589.669  12
  -3  -7  -4 5126.42 678.481   7
  -4  -7  -4 2306.75 437.913  10
  -4   7  -4 2635.93 452.179  15
  -4  -7  -4 2138.11 346.445  14
  -4   7  -4 1993.95 406.352   5
  -4  -7  -4 1883.34 351.615  12
  -4  -7  -4 1880.63 369.752   5
  -5  -7  -4 4115.61 408.340  10
  -5   7  -4 3717.53 411.077  15
  -5  -7  -4 3792.90 356.786  14
  -5   7  -4 3808.27 432.252   5
  -5  -7  -4 4032.51 451.364   5
  -5  -7  -4 3283.22 330.729  12
  -6  -7  -4 16712.5 573.372  10
  -6  -7  -4 16760.7 571.623  14
  -6   7  -4 16625.9 646.000   5
  -6  -7  -4 17826.5 709.441   5
  -9   8   4 654.124 200.232   9
   9  -8  -4 315.080 94.5005  12
  -9   8   4 447.341 132.174  11
   9  -8  -4 632.608 170.337   7
  -8   8   4 3288.15 461.701   9
   8  -8  -4 3480.91 460.559   7
  -8   8   4 3499.27 414.050  11
  -7   8   4 3396.73 476.059   9
  -7   8   4 4172.34 588.299  13
   7  -8  -4 3818.14 610.525   7
  -6   8   4 9347.42 811.345   9
  -6   8   4 8934.47 977.805  13
   6  -8  -4 8951.73 903.654   7
  -5   8   4 4982.53 596.533   9
  -5   8   4 5138.43 590.000   8
  -5   8   4 5372.02 741.893  13
   5  -8  -4 5324.83 633.154   7
  -4   8   4 12245.6 776.930   8
  -4   8   4 12832.1 1016.54  13
   4  -8  -4 11091.0 820.143   7
  -3   8   4 17292.3 895.091   8
   3  -8  -4 20171.4 1116.23  12
   3  -8  -4 19278.2 1067.56   7
  -2   8   4 2503.42 393.251  16
   2   8  -4 2124.56 335.033  15
  -2   8   4 2190.80 336.043   8
   2  -8  -4 2448.91 405.401  12
   2  -8  -4 2646.54 420.719   7
  -1   8   4 1267.69 290.085  17
   1   8  -4 1012.69 253.628  15
  -1   8   4 1322.30 282.062   8
   1  -8  -4 1141.53 298.594  12
   1  -8  -4 532.083 184.981   7
   0   8   4 2963.02 408.838  17
   0   8  -4 3646.52 901.792   6
   0   8  -4 2985.02 392.160  15
   0   8  -4 2741.64 415.589   5
   0  -8  -4 2876.40 417.447  12
   0  -8  -4 3011.55 425.770   7
   1   8   4 23901.2 1055.57  17
  -1   8  -4 23137.2 1063.12  15
  -1   8  -4 23968.3 1242.82   5
  -1  -8  -4 23285.3 1148.48  12
  -1  -8  -4 22520.6 1121.49   7
  -2  -8  -4 5517.75 711.036  10
  -2   8  -4 4707.48 546.787  15
  -2  -8  -4 5833.21 681.417  14
  -2   8  -4 4599.54 584.879   5
  -2  -8  -4 5296.81 708.588   5
  -2  -8  -4 5378.69 579.383  12
  -2  -8  -4 5084.93 582.832   7
  -3  -8  -4-85.0772 220.183  10
  -3   8  -4 636.382 314.342  15
  -3  -8  -4 988.210 263.174  14
  -3   8  -4 801.235 308.688   5
  -3  -8  -4 731.323 271.308  12
  -3  -8  -4 725.256 268.988   7
  -3  -8  -4 446.585 250.164   5
  -4  -8  -4 21678.2 1099.60  10
  -4   8  -4 20356.2 1082.40  15
  -4  -8  -4 18546.4 838.381  14
  -4   8  -4 19711.4 1064.72   5
  -4  -8  -4 17570.1 953.426   5
  -4  -8  -4 18067.4 968.475  12
  -5  -8  -4 30832.9 979.216  10
  -5   8  -4 27159.1 981.874  15
  -5  -8  -4 28189.2 872.614  14
  -5   8  -4 30437.9 1079.60   5
  -5  -8  -4 30294.5 1093.73   5
  -5  -8  -4 28179.7 922.556  12
  -6  -8  -4 363.019 90.2261  10
  -6   8  -4 294.690 104.784   5
  -6  -8  -4 342.823 101.564   5
  -9   9   4 1393.94 221.779   9
   9  -9  -4 1378.87 201.550   7
  -9   9   4 885.412 140.351  11
  -8   9   4 8259.38 646.982   9
   8  -9  -4 7589.74 487.041  12
   8  -9  -4 7846.98 602.435   7
  -8   9   4 8611.66 602.347  11
  -7   9   4 11887.8 856.874   9
  -7   9   4 14191.9 836.356   8
  -7   9   4 13729.6 972.460  13
   7  -9  -4 12109.0 928.731   7
  -6   9   4 674.838 200.934   9
  -6   9   4 924.204 335.358   8
  -6   9   4 1708.09 526.251  13
   6  -9  -4 1003.20 360.564   7
  -5   9   4 4161.15 551.584   9
  -5   9   4 5067.37 595.370   8
  -5   9   4 5276.80 777.799  13
   5  -9  -4 4776.90 613.731  12
   5  -9  -4 4370.90 586.396   7
  -4   9   4 29559.0 1256.64   8
  -4   9   4 32309.6 1680.13  13
   4  -9  -4 31940.1 1461.80  12
   4  -9  -4 28891.2 1337.12   7
  -3   9   4 18562.8 1010.52  16
   3   9  -4 17421.0 935.177  15
  -3   9   4 16869.3 916.384   8
  -3   9   4 17421.4 1146.87  13
   3  -9  -4 19240.8 1106.88  12
   3  -9  -4 17810.6 1032.97   7
   2   9  -4 14262.1 1357.14   6
  -2   9   4 12756.3 853.634  17
  -2   9   4 13742.1 912.402  16
   2   9  -4 13869.9 840.579  15
  -2   9   4 12472.4 801.935   8
   2  -9  -4 13748.4 922.385  12
   2  -9  -4 13686.0 905.917   7
  -1   9   4 73675.0 1997.25  17
   1   9  -4 70619.7 1859.12  15
  -1   9   4 68845.6 1948.40   8
   1   9  -4 70795.5 1941.77   5
   1  -9  -4 71998.8 2055.39  12
   1  -9  -4 70367.2 2006.01   7
   0   9  -4 47348.7 2725.05   6
   0   9   4 44687.8 1527.42  17
   0   9  -4 43203.7 1435.13  15
   0   9  -4 43855.0 1594.11   5
   0  -9  -4 48114.9 1651.09  12
   0  -9  -4 45588.6 1570.60   7
   1   9   4 9340.95 686.426  17
  -1   9  -4 8447.06 659.751  15
  -1   9  -4 8345.99 755.309   5
  -1  -9  -4 9959.80 770.867  12
  -1  -9  -4 8754.16 691.415   7
   2   9   4 33371.0 1264.21  17
  -2  -9  -4 35943.1 1814.79  10
  -2   9  -4 34550.9 1417.10  15
  -2   9  -4 32245.7 1502.87   5
  -2  -9  -4 37489.4 1733.41   5
  -2  -9  -4 36029.8 1465.35  12
  -2  -9  -4 35187.0 1470.92   7
  -3  -9  -4 33774.3 1587.38  10
  -3   9  -4 29374.3 1383.10  15
  -3   9  -4 30248.9 1405.97   5
  -3  -9  -4 27526.7 1279.12   5
  -3  -9  -4 30297.7 1350.74  12
  -4  -9  -4 24494.0 1044.19  10
  -4   9  -4 22296.6 1091.19  15
  -4  -9  -4 20640.9 790.115  14
  -4   9  -4 22461.6 1086.49   5
  -4  -9  -4 19996.7 958.138   5
  -4  -9  -4 20993.2 1018.21  12
  -5  -9  -4 14427.5 600.519  10
  -5   9  -4 14770.7 683.929  15
  -5  -9  -4 13573.1 537.098  14
  -5   9  -4 15040.0 709.185   5
  -5  -9  -4 13543.2 680.473   5
  -5  -9  -4 13650.8 623.452  12
  -9  10   4 1386.18 182.656   9
  -8  10   4 8103.36 468.206  17
  -8  10   4 8627.24 609.728   9
  -8  10   4 7126.03 464.794  13
   8 -10  -4 6782.66 389.565  12
   8 -10  -4 8566.71 569.433   7
  -8  10   4 9712.89 602.429  11
  -7  10   4-4.75553 207.410   9
  -7  10   4 458.076 202.185   8
  -7  10   4-410.586 241.135  13
   7 -10  -4-82.8637 150.288  12
  -7  10   4-253.963 203.967  11
   7 -10  -4-109.041 208.690   7
  -6  10   4 7508.34 720.934   9
  -6  10   4 7305.98 735.679   8
  -6  10   4 7127.64 865.773  13
   6 -10  -4 7899.48 700.148  12
   6 -10  -4 6782.25 714.026   7
  -5  10   4 343.483 187.644   9
  -5  10   4 246.309 209.376   8
  -5  10   4 269.600 285.718  13
   5 -10  -4 174.475 199.102  12
   5 -10  -4 227.532 190.055   7
  -4  10   4 3266.13 465.123   8
  -4  10   4 3075.57 596.454  13
   4 -10  -4 2505.48 434.346  12
   4 -10  -4 3028.29 428.787   7
  -3  10   4 21148.5 1113.61  17
  -3  10   4 20751.3 1095.52  16
   3  10  -4 20735.8 1009.23  15
  -3  10   4 19152.8 1003.22   8
  -3  10   4 19683.9 1285.25  13
   3 -10  -4 21274.2 1184.81  12
   3 -10  -4 20942.4 1108.14   7
   2  10  -4 10176.5 1245.49   6
  -2  10   4 9568.55 744.356  17
  -2  10   4 9013.83 760.622  16
   2  10  -4 9192.40 692.410  15
  -2  10   4 8774.18 692.642   8
  -2  10   4 8430.01 811.140  13
   2 -10  -4 9990.56 801.014  12
   2 -10  -4 9101.17 738.207   7
  -1  10   4 1042.10 293.031  17
   1  10  -4 363.407 644.222   6
  -1  10   4 1245.66 325.825  16
   1  10  -4 1545.09 298.938  15
  -1  10   4 1011.43 269.601   8
   1  10  -4 1154.44 276.964   5
   1 -10  -4 1163.35 305.351  12
   1 -10  -4 1540.90 300.699   7
   0  10  -4 12511.2 1509.79   6
   0  10   4 13321.4 853.041  17
   0  10  -4 12038.5 776.070  15
   0  10  -4 12686.9 874.747   5
   0 -10  -4 12500.3 857.728  12
   0 -10  -4 12207.9 805.696   7
  -1  10  -4 7267.98 891.588   6
   1  10   4 7603.91 647.688  17
  -1  10  -4 7487.47 633.579  15
  -1  10  -4 7548.70 720.664   5
  -1 -10  -4 8311.85 709.737  12
   2  10   4 5356.73 523.829  17
  -2 -10  -4 4618.43 678.667  10
  -2  10  -4 5267.01 589.638  15
  -2  10  -4 5589.77 629.918   5
  -2 -10  -4 6186.00 632.890  12
  -3 -10  -4 9870.19 773.955  10
  -3  10  -4 9041.48 771.726  15
  -3  10  -4 9320.79 774.521   5
  -3 -10  -4 7255.68 639.434   5
  -3 -10  -4 9207.04 757.154  12
  -4 -10  -4 4851.17 418.275  10
  -4  10  -4 4525.80 488.691  15
  -4  10  -4 4655.59 478.783   5
  -4 -10  -4 3731.20 398.221   5
  -4 -10  -4 4203.75 459.977  12
  -5 -10  -4 2902.80 237.176  10
   5  10   4 2381.97 240.117  16
  -5  10  -4 3109.14 313.077   5
  -5 -10  -4 3165.76 303.083   5
  -5 -10  -4 3123.81 288.070  12
  -8  11   4 1225.55 160.330  17
  -8  11   4 2274.75 301.547   9
   8  11  -4 1302.97 176.821  15
  -8  11   4 1584.30 202.474  13
   8 -11  -4 2452.67 281.967   7
  -8  11   4 2542.14 295.983  11
  -7  11   4 2093.40 305.767  17
  -7  11   4 2410.34 374.141   9
  -7  11   4 2224.39 305.925   8
  -7  11   4 2310.10 386.382  13
   7 -11  -4 1932.85 260.912  12
  -7  11   4 2404.71 378.749  11
   7 -11  -4 2294.84 365.156   7
  -6  11   4 26790.6 1434.02   6
  -6  11   4 26691.7 1276.26   9
  -6  11   4 25721.2 1278.18   8
  -6  11   4 28299.2 1555.44  13
   6 -11  -4 25626.8 1129.85  12
   6 -11  -4 25257.5 1243.60   7
  -6  11   4 29829.1 1325.96  11
  -5  11   4 5652.28 611.462   9
  -5  11   4 5266.37 624.008   8
  -5  11   4 5908.20 850.962  13
   5 -11  -4 5344.63 609.912  12
   5 -11  -4 5088.80 568.024   7
  -5  11   4 5630.87 631.233  11
  -4  11   4 1790.07 392.184  17
  -4  11   4 2187.62 369.063  16
   4  11  -4 1607.74 307.148  15
  -4  11   4 1945.39 374.346   8
  -4  11   4 2547.00 581.919  13
   4 -11  -4 1864.50 387.788  12
  -4  11   4 2057.22 399.897  11
   4 -11  -4 1795.89 338.603   7
  -3  11   4 29829.6 1326.96  17
  -3  11   4 29371.2 1321.69  16
   3  11  -4 30101.7 1209.16  15
  -3  11   4 27996.7 1246.19   8
  -3  11   4 30916.8 1684.71  13
   3 -11  -4 30156.0 1383.99  12
   3 -11  -4 29546.7 1274.97   7
  -3  11   4 28377.7 1318.32  11
  -2  11   4 284.356 226.117  17
   2  11  -4 150.937 436.075   6
  -2  11   4 230.079 221.609  16
   2  11  -4 312.668 170.932  15
  -2  11   4 200.905 209.341   8
  -2  11   4 132.157 239.141  13
   2 -11  -4 96.9806 172.957  12
   2 -11  -4-184.196 106.493   7
  -1  11   4 5075.55 552.228  17
   1  11  -4 4034.66 1164.03   6
  -1  11   4 5654.49 624.358  16
   1  11  -4 5147.40 512.897  15
  -1  11   4 5157.45 558.741   8
  -1  11   4 4469.71 611.490  13
   1 -11  -4 5371.79 587.008  12
   0  11  -4 13378.1 1572.53   6
   0  11   4 12476.0 834.880  17
   0  11   4 11439.7 913.120  16
   0  11  -4 11647.9 765.224  15
   0  11  -4 12004.8 865.635   5
   0  11   4 11542.9 921.984  13
   0 -11  -4 12311.0 850.214  12
   1  11   4 1106.28 296.357  17
  -1  11  -4 1330.47 499.686   6
  -1  11  -4 790.608 254.498  15
  -1  11  -4 664.345 301.469   5
  -1 -11  -4 916.815 291.961  12
   2  11   4 1500.16 315.487  17
  -2 -11  -4 1865.47 430.730  10
  -2  11  -4 1993.84 389.824  15
  -2  11  -4 1979.00 406.918   5
  -2 -11  -4 1919.53 401.726  12
   3  11   4 5797.82 484.577  17
  -3 -11  -4 7879.44 581.184  10
  -3  11  -4 6437.24 632.509  15
  -3  11  -4 6608.05 637.689   5
  -3 -11  -4 6082.31 554.339   5
  -3 -11  -4 6260.76 621.005  12
  -4 -11  -4 181.715 99.4304  10
   4  11   4 416.431 156.693  16
  -4  11  -4 244.541 181.002  15
  -4  11  -4 142.327 156.896   5
  -4 -11  -4 113.314 162.218  12
  -4 -11  -4 218.294 126.985   5
  -5  11  -4 1003.57 166.007   5
  -5 -11  -4 909.388 150.708  12
  -5 -11  -4 465.608 118.072   5
  -8  12   4 17.5593 70.6640   9
  -8  12   4 279.050 105.500  11
  -7  12   4 549.746 175.160  17
  -7  12   4 543.971 197.121   9
   7  12  -4 541.294 142.153  15
  -7  12   4 696.335 175.744   8
  -7  12   4 614.344 209.205  13
  -7  12   4 1017.06 258.175  11
   7 -12  -4 676.774 200.295   7
  -6  12   4 3304.13 417.670  17
  -6  12   4 3258.81 447.463   9
   6  12  -4 2631.34 322.535  15
  -6  12   4 3212.34 469.471   6
  -6  12   4 2823.42 414.802   8
  -6  12   4 3346.90 546.706  13
   6 -12  -4 3018.62 359.142  12
  -6  12   4 3084.52 456.119  11
   6 -12  -4 2484.97 388.785   7
  -5  12   4 752.976 304.483  17
   5  12  -4 452.251 179.928  15
  -5  12   4 517.268 250.313   8
  -5  12   4 1202.99 470.298  13
   5 -12  -4 345.262 209.094  12
  -5  12   4 859.528 285.918  11
   5 -12  -4 456.251 208.088   7
  -4  12   4 4480.27 564.130  17
  -4  12   4 5223.94 532.734  16
   4  12  -4 4517.10 466.744  15
  -4  12   4 4785.71 557.426   8
  -4  12   4 4193.57 769.271  13
   4 -12  -4 5064.35 568.049  12
   4 -12  -4 5183.53 523.506   7
  -4  12   4 4747.66 565.176  11
  -3  12   4 487.232 255.255  17
  -3  12   4 1058.22 299.329  16
   3  12  -4 659.522 234.424  15
  -3  12   4 640.582 257.128   8
  -3  12   4 923.534 441.247  13
   3 -12  -4 154.625 157.439  12
  -3  12   4 1010.98 246.760  11
   3 -12  -4 741.553 211.342   7
  -2  12   4-31.6887 192.575  17
   2  12  -4 75.1564 453.788   6
  -2  12   4-284.708 216.590  16
   2  12  -4-67.5677 141.568  15
  -2  12   4 71.5833 206.765   8
  -2  12   4 30.3192 273.707  13
   2 -12  -4 3.00048 196.063  12
  -1  12   4 2161.95 384.033  17
   1  12  -4 2005.02 981.731   6
  -1  12   4 2316.58 409.581  16
   1  12  -4 2408.83 349.464  15
  -1  12   4 2140.27 377.320   8
  -1  12   4 1818.08 433.999  13
   1 -12  -4 2512.02 419.767  12
   0  12   4 280.690 228.508  17
   0  12  -4 326.792 653.094   6
   0  12   4-185.224 225.460  16
   0  12  -4-54.0066 149.570  15
   0  12  -4 41.6972 181.278   5
   0 -12  -4 98.5198 178.056  12
   1  12   4 2604.56 407.147  17
  -1  12  -4 2903.37 622.799   6
   1  12   4 2472.71 478.709  16
  -1  12  -4 2096.59 369.556  15
  -1  12  -4 2398.88 414.008   5
  -1 -12  -4 2383.74 414.285  12
   2  12   4 9906.30 690.310  17
   2  12   4 11827.6 880.921  16
  -2  12  -4 10376.1 780.832  15
  -2  12  -4 10434.5 809.430   5
  -2 -12  -4 11390.3 855.307  12
   3  12   4 2825.04 338.306  17
   3  12   4 2608.65 398.542  16
  -3  12  -4 2817.03 402.408  15
  -3  12  -4 3249.10 431.814   5
  -3 -12  -4 3152.05 449.861  12
  -3 -12  -4 2515.40 339.812   5
   4  12   4 3921.26 346.513  16
  -4  12  -4 4432.55 381.216  15
  -4  12  -4 4957.86 414.924   5
  -4 -12  -4 3691.21 325.536   5
  -4 -12  -4 4704.25 423.862  12
  -7  13   4 2.78177 70.9390  17
  -7  13   4-78.6766 103.932   9
   7  13  -4 86.2971 58.2052  15
  -7  13   4 90.5351 99.1512   8
  -7  13   4 48.6190 106.916  13
  -7  13   4 209.768 152.466  11
   7 -13  -4 177.403 90.8009   7
  -6  13   4 4362.35 424.948  17
  -6  13   4 3997.49 472.496   6
  -6  13   4 4071.60 427.051   9
   6  13  -4 4479.77 387.686  15
  -6  13   4 4292.65 466.803   8
  -6  13   4 5314.24 603.202  13
   6 -13  -4 4767.35 445.230   7
  -6  13   4 4813.52 503.627  11
  -5  13   4 4783.25 525.316  17
  -5  13   4 4874.74 709.306   6
   5  13  -4 4514.22 432.254  15
  -5  13   4 3534.71 500.671   8
  -5  13   4 4482.92 674.479  13
   5 -13  -4 3245.71 370.463  12
   5 -13  -4 4418.01 467.014   7
  -5  13   4 4129.26 507.056  11
  -4  13   4 9950.06 771.456  17
  -4  13   4 10446.9 744.316  16
   4  13  -4 9680.38 633.992  15
  -4  13   4 11211.5 804.128   8
  -4  13   4 9947.60 1067.03  13
   4 -13  -4 10457.9 745.105  12
  -4  13   4 9560.55 784.305  11
  -3  13   4 507.255 236.377  17
  -3  13   4 669.580 236.346  16
   3  13  -4 562.776 187.307  15
  -3  13   4 694.240 253.735   8
  -3  13   4 245.101 374.630  13
   3 -13  -4 441.022 204.425  12
  -3  13   4 671.284 211.616  11
  -2  13   4 333.853 220.773  17
   2  13  -4 817.889 597.659   6
  -2  13   4 427.692 265.882  16
   2  13  -4 288.712 159.869  15
  -2  13   4 303.955 206.942   8
  -2  13   4 38.8125 269.165  13
   2 -13  -4 221.891 183.036  12
   1  13  -4 21719.9 2096.14   6
  -1  13   4 26682.4 1184.52  17
  -1  13   4 25520.8 1270.60  16
   1  13  -4 24227.9 1022.30  15
  -1  13   4 25723.0 1590.53  13
   1 -13  -4 24599.0 1171.23  12
   0  13   4 985.502 260.595  17
   0  13  -4 1582.96 739.845   6
   0  13   4 1244.67 372.070  16
   0  13  -4 1229.26 270.742  15
   0 -13  -4 1024.45 265.537  12
   1  13   4 1085.77 309.928  17
   1  13   4 722.464 294.580  16
  -1  13  -4 1105.26 292.586  15
  -1 -13  -4 972.127 296.048  12
   2  13   4 21337.9 974.854  17
   2  13   4 21821.7 1094.36  16
  -2  13  -4 21922.3 1065.30  15
  -2  13  -4 21528.7 1090.58   5
  -2 -13  -4 23467.3 1138.89  12
   3  13   4-44.9763 87.4968  17
   3  13   4 279.090 157.093  16
  -3  13  -4 21.6770 166.418  15
  -3  13  -4-5.75601 160.248   5
  -3 -13  -4 105.148 168.714  12
   4  13   4 14.1492 53.6270  16
  -4 -13  -4-58.3017 96.2281  12
  -7  14   4 520.605 136.297  13
  -7  14   4 512.915 152.765  11
  -6  14   4 4895.48 374.201  17
  -6  14   4 5416.15 452.984   6
  -6  14   4 5306.33 440.273   8
  -6  14   4 6168.42 559.749  13
  -6  14   4 6113.18 498.697  11
  -5  14   4 3707.74 423.563  17
  -5  14   4 4093.35 550.631   6
   5  14  -4 3445.82 337.959  15
  -5  14   4 3524.19 452.527   8
  -5  14   4 4402.59 611.990  13
   5 -14  -4 2942.67 293.426  12
  -5  14   4 3704.55 447.679  11
  -4  14   4 1619.70 336.216  17
  -4  14   4 2055.26 344.953  16
   4  14  -4 1373.81 237.744  15
  -4  14   4 2023.71 546.733   6
  -4  14   4 1641.73 343.778   8
  -4  14   4 1386.22 448.237  13
   4 -14  -4 969.777 221.490  12
  -4  14   4 1420.84 316.219  11
  -3  14   4 19775.3 1032.62  17
  -3  14   4 23079.9 1689.00   6
  -3  14   4 19355.9 1013.75  16
   3  14  -4 17148.6 787.604  15
  -3  14   4 20235.7 1023.17   8
  -3  14   4 16390.6 1315.29  13
   3 -14  -4 17548.2 914.442  12
  -3  14   4 17371.7 897.034  11
  -2  14   4 3044.38 438.605  17
  -2  14   4 3702.87 494.794  16
   2  14  -4 3178.29 356.080  15
  -2  14   4 3799.61 468.438   8
  -2  14   4 3155.40 607.147  13
   2 -14  -4 3885.70 448.065  12
  -1  14   4 4176.07 493.561  17
   1  14  -4 5160.39 1101.03   6
  -1  14   4 4461.60 550.999  16
   1  14  -4 3652.32 399.318  15
  -1  14   4 4196.63 760.200   6
  -1  14   4 3384.17 622.944  13
   1 -14  -4 4573.46 496.325  12
   0  14  -4 14257.1 1426.30   6
   0  14   4 12283.7 798.325  17
   0  14   4 11883.2 960.144   6
   0  14   4 12428.6 860.245  16
   0  14  -4 13270.4 756.774  15
   0 -14  -4 13869.6 855.849  12
   1  14   4 2513.55 375.050  17
   1  14   4 3347.13 481.721  16
  -1  14  -4 3131.16 403.123  15
  -1 -14  -4 3581.08 467.567  12
   2  14   4 7721.53 570.341  17
   2  14   4 8515.85 640.486  16
  -2  14  -4 8497.78 613.962  15
  -2 -14  -4 9359.57 691.321  12
   3  14   4 7598.15 434.345  17
   3  14   4 8324.49 504.518  16
  -3  14  -4 9220.64 516.532  15
  -3 -14  -4 9121.60 583.163  12
  -6  15   4 17453.3 652.140   8
  -6  15   4 18864.1 804.511  13
  -6  15   4 16432.7 703.556  11
  -5  15   4 1355.04 225.170  17
  -5  15   4 1447.77 298.053   6
  -5  15   4 1801.12 301.405   8
  -5  15   4 1536.26 341.044  13
  -5  15   4 1931.29 293.059  11
  -4  15   4 574.833 218.078  17
  -4  15   4 739.904 213.573  16
   4  15  -4 623.140 158.143  15
  -4  15   4 896.732 340.223   6
  -4  15   4 712.404 263.680   8
  -4  15   4 824.751 327.928  13
   4 -15  -4 648.933 154.634  12
  -4  15   4 741.097 229.140  11
  -3  15   4 10787.8 714.965  17
  -3  15   4 10620.6 1038.43   6
  -3  15   4 10806.5 729.282  16
   3  15  -4 9562.94 543.204  15
  -3  15   4 9699.04 673.641   8
  -3  15   4 10034.7 937.308  13
   3 -15  -4 9315.39 595.383  12
  -2  15   4 1686.25 309.584  17
  -2  15   4 2367.43 387.787  16
   2  15  -4 1888.01 256.509  15
  -2  15   4 2165.55 576.510   6
  -2  15   4 1770.30 312.579   8
  -2  15   4 2108.56 496.973  13
   2 -15  -4 1853.28 314.853  12
  -1  15   4 4506.84 467.169  17
  -1  15   4 5692.21 579.797  16
   1  15  -4 4584.86 408.760  15
  -1  15   4 3835.30 610.114   6
   1 -15  -4 4631.85 482.902  12
   0  15   4 1001.11 270.019  17
   0  15   4 906.913 274.162  16
   0  15  -4 909.806 230.361  15
   0  15   4 671.301 236.793   6
   0 -15  -4 851.874 241.443  12
   1  15   4-79.6650 145.411  17
   1  15   4 89.4018 158.463  16
  -1  15  -4-153.632 136.923  15
  -1 -15  -4-284.658 204.288  12
   2  15   4 4014.57 376.490  17
   2  15   4 3752.70 381.973  16
  -2  15  -4 3351.39 331.163  15
  -2 -15  -4 4005.15 426.459  12
  -3 -15  -4 602.051 154.583  12
  -5  16   4 3907.83 379.031   6
  -5  16   4 4110.46 352.944   8
  -5  16   4 3818.29 381.332  13
  -5  16   4 3169.66 316.436  11
  -4  16   4 32230.9 1018.84  17
  -4  16   4 35305.9 1367.85   6
  -4  16   4 32577.1 1062.65  16
  -4  16   4 33149.4 1097.97   8
  -4  16   4 34939.7 1277.94  13
  -3  16   4 380.919 180.964  17
  -3  16   4 834.955 226.447  16
  -3  16   4 593.436 303.089   6
  -3  16   4 501.591 186.310   8
  -3  16   4 420.230 224.979  13
   3 -16  -4 309.282 117.040  12
  -2  16   4 4970.96 462.911  17
  -2  16   4 3904.83 601.655   6
  -2  16   4 4775.33 476.021  16
   2  16  -4 4298.99 343.702  15
  -2  16   4 3738.09 462.780  13
   2 -16  -4 3964.24 386.409  12
  -1  16   4 42123.2 1272.16  17
  -1  16   4 42181.0 1368.21  16
   1  16  -4 39271.6 1073.60  15
   1 -16  -4 42179.2 1285.70  12
   0  16   4 2449.51 324.501  17
   0  16   4 2315.78 356.763  16
   0  16  -4 2359.86 281.597  15
   0 -16  -4 2346.56 332.614  12
   1  16   4 9580.62 557.388  17
   1  16   4 9982.99 621.570  16
  -1  16  -4 8308.76 462.148  15
  -1 -16  -4 9437.60 603.093  12
   2  16   4 8817.95 445.703  17
   2  16   4 9146.53 470.853  16
  -2 -16  -4 10307.7 531.653  12
  -4  17   4 1027.20 156.190  17
  -4  17   4 1357.97 246.454   6
  -4  17   4 1272.33 203.273  13
  -3  17   4-198.496 130.302  17
  -3  17   4-88.9224 116.319  16
  -3  17   4 158.834 180.745   6
  -3  17   4 211.044 107.623  13
  -2  17   4 309.758 155.257  17
  -2  17   4 620.119 204.442  16
  -2  17   4 564.245 226.949   6
  -1  17   4 13473.9 661.923  17
  -1  17   4 14255.4 724.224  16
   1 -17  -4 12146.7 595.866  12
   0  17   4 328.870 158.187  17
   0  17   4 395.105 170.307  16
   0 -17  -4 116.437 111.629  12
   1  17   4 500.737 126.562  17
   1  17   4 570.741 140.071  16
  -3  18   4 5629.00 408.842   6
  -2  18   4 46.2449 84.4376  17
  -2  18   4-34.3998 99.6204  16
  -1  18   4 22670.9 727.265  17
  -1  18   4 22547.2 771.790  16
  -9   0   5 192.279 160.472   9
  -8   0   5 131.419 221.824   9
  -7   0   5-268.322 260.626   9
   7   0  -5-348.926 250.519   7
   6   0  -5 181.120 213.258   7
   5   0  -5-13.0894 181.941   7
   4   0  -5 29.2253 75.9575   7
   3   0  -5 51.4803 166.317   7
   2   0  -5 116.752 85.4985   7
   1   0  -5 151.221 182.851  14
   1   0  -5 129.438 204.654   7
   0   0  -5-25.0616 164.413  14
   0   0  -5 154.403 203.981   7
  -1   0  -5 100.189 198.275  14
  -1   0  -5 373.610 254.419   7
  -2   0  -5 34.3954 248.616  10
  -2   0  -5 2.71717 262.533  14
  -2   0  -5-239.581 295.935   5
  -2   0  -5-8.35950 277.156   7
  -3   0  -5-203.722 244.296  10
  -3   0  -5-345.899 265.646  14
  -3   0  -5 226.139 288.668   5
  -3   0  -5-81.8143 320.025   7
  -4   0  -5 181.908 149.353  10
  -4   0  -5-40.2269 178.554  14
  -4   0  -5-57.2924 117.876   8
  -4   0  -5 0.83918 137.618   5
  -5   0  -5-83.6078 63.6074  10
  -5   0  -5-193.644 95.8046   8
  -5   0  -5-201.705 115.962   5
  -9   1   5 11598.5 655.428   9
  -9  -1   5 11777.1 661.542   9
  -8   1   5 1304.05 331.900   9
  -8  -1   5 1076.00 318.894   9
   8  -1  -5 1481.67 300.990   7
  -7   1   5 23650.7 1305.64   9
   7  -1  -5 14944.3 1164.75   7
   6  -1  -5 5194.81 689.416   7
   5   1  -5 19216.0 1087.93   7
   5  -1  -5 16815.9 1039.63   7
   4   1  -5 26290.0 1242.95   7
   4  -1  -5 25438.2 1218.53   7
   3   1  -5 5213.09 569.177   7
   3  -1  -5 5259.57 590.180   7
   2   1  -5 2179.29 411.915   7
   2  -1  -5 2250.63 417.760   7
   1  -1  -5 7608.46 687.522  14
   1   1  -5 7173.67 665.792  14
   1   1  -5 7280.95 675.442   7
   1  -1  -5 8164.97 749.680   7
   0  -1  -5 632.221 271.753  14
   0   1  -5 288.916 195.694  14
   0   1  -5 352.305 200.824   7
   0  -1  -5 159.107 209.318   7
  -1  -1  -5 9499.48 826.697  14
  -1   1  -5 8464.51 754.890  14
  -1   1  -5 9249.97 835.593   7
  -1  -1  -5 9452.68 797.944   7
  -2   1  -5-38.2378 217.353  10
  -2  -1  -5 117.221 293.506  14
  -2   1  -5 544.740 349.791  14
  -2   1  -5 689.363 337.023   5
  -2  -1  -5 812.827 403.590   5
  -2   1  -5 444.371 307.110   7
  -2  -1  -5 809.613 339.278   7
  -3   1  -5 434.894 278.816  10
  -3  -1  -5 238.574 281.442  10
  -3  -1  -5 389.601 337.488  14
  -3   1  -5 172.861 290.316  14
  -3   1  -5 690.578 318.574   5
  -3  -1  -5 676.998 307.536   5
  -3   1  -5 170.286 304.779   7
  -3  -1  -5 384.294 314.275   7
  -4   1  -5 670.149 179.519  10
  -4  -1  -5 1004.93 248.522  10
  -4  -1  -5 1263.25 274.543  14
  -4   1  -5 740.398 227.206  14
  -4   1  -5 699.909 166.292   8
  -4   1  -5 613.171 232.203   5
  -4  -1  -5 996.768 259.124   5
  -5  -1  -5 1078.14 152.417  10
  -5  -1  -5 1476.13 196.027  14
  -5   1  -5 1447.47 183.740  14
  -5   1  -5 1625.91 237.053   5
  -5  -1  -5 1149.97 176.166   8
  -5  -1  -5 1576.52 224.580   5
  -9   2   5 5425.78 457.130   9
  -9  -2   5 6014.50 474.932   9
   9  -2  -5 4564.71 323.307   7
  -8   2   5 27269.1 1210.22   9
  -8  -2   5 30051.0 1347.75   9
   8  -2  -5 28455.8 1249.96   7
  -7   2   5 6450.56 685.020   9
   7  -2  -5 3318.28 641.010   7
  -6   2   5 3744.19 562.457   9
   6  -2  -5 2979.61 535.633   7
   5  -2  -5 56801.8 1922.21   7
   4  -2  -5 74425.0 2074.24   7
   3   2  -5 22751.7 954.167  15
   3  -2  -5 21896.8 1067.10  12
   3   2  -5 23596.0 1145.24   7
   3  -2  -5 23664.3 1217.53   7
   2   2  -5 4067.13 413.676  15
   2  -2  -5 3915.17 457.887  12
   2   2  -5 4113.34 507.749   7
   2  -2  -5 4084.35 542.069   7
   1   2  -5 24573.3 993.018  15
   1  -2  -5 24540.7 1212.75  14
   1   2  -5 23951.4 1172.40   7
   1  -2  -5 26720.4 1306.24   7
   0  -2  -5 27118.2 1313.95  14
   0   2  -5 24358.4 1196.20  14
   0   2  -5 24353.2 1239.01   7
   0  -2  -5 23578.0 1215.65   7
  -1  -2  -5 4271.38 583.625  14
  -1   2  -5 3734.18 509.876  14
  -1   2  -5 4237.24 604.021   7
  -1  -2  -5 3537.27 526.573   7
  -2   2  -5 38987.8 1639.09  10
  -2  -2  -5 41162.8 1940.74  14
  -2   2  -5 40526.1 1705.95  14
  -2   2  -5 32676.7 1634.86   5
  -2   2  -5 35171.8 1776.10   7
  -2  -2  -5 37845.8 1700.42   7
  -3   2  -5 740.470 296.602  10
  -3  -2  -5 361.929 274.170  10
  -3  -2  -5 570.535 368.981  14
  -3   2  -5 208.501 264.553  14
  -3   2  -5 710.064 328.680   5
  -3  -2  -5 452.765 261.861   5
  -3   2  -5 556.657 312.063   7
  -3  -2  -5-89.2959 248.539   7
  -4   2  -5 2324.73 268.444  10
  -4  -2  -5 2426.91 356.323  10
  -4  -2  -5 2172.00 356.303  14
  -4   2  -5 2031.17 331.087  14
  -4   2  -5 1994.20 355.769   5
  -4  -2  -5 2192.10 315.253   5
  -5  -2  -5 45.2157 66.6261  10
  -5  -2  -5 172.558 100.107  14
  -5   2  -5 222.966 89.2340  14
  -5  -2  -5 160.552 86.4834   8
  -5   2  -5 82.6025 108.923   5
  -5  -2  -5 76.7958 84.6726   5
  -9   3   5 30216.2 1024.98   9
  -9  -3   5 30180.4 999.023   9
   9  -3  -5 27089.3 803.259   7
  -8   3   5 808.811 287.561   9
  -8  -3   5 1011.34 346.122   9
   8  -3  -5 1375.93 313.613   7
  -7   3   5 932.193 261.161   9
   7  -3  -5 311.205 338.191   7
  -6   3   5 23319.2 1294.72   9
   6  -3  -5 24789.3 1517.56   7
  -5   3   5 19514.4 1229.49   9
   5  -3  -5 19824.7 1151.94   7
   4  -3  -5 4208.28 524.007   7
   3   3  -5 11004.4 691.624  15
   3  -3  -5 11012.9 783.566  12
   3  -3  -5 10161.3 799.665   7
   2   3  -5 1844.16 286.270  15
   2  -3  -5 1607.98 348.374  14
   2  -3  -5 1776.99 329.645  12
   2  -3  -5 2173.62 436.958   7
   1   3  -5 40966.8 1326.07  15
   1  -3  -5 40950.1 1532.78  14
   1  -3  -5 40911.0 1394.46  12
   1   3  -5 39875.5 1475.75   7
   1  -3  -5 42552.5 1659.06   7
   0   3  -5 119.990 148.793  15
   0  -3  -5-185.524 187.658  14
   0   3  -5-53.1800 180.149  14
   0   3  -5-3.21827 130.944   7
   0  -3  -5 66.7064 207.681   7
  -1   3  -5 7277.11 607.251  15
  -1  -3  -5 8271.53 813.378  14
  -1   3  -5 6628.24 653.333  14
  -1   3  -5 7817.53 794.597   7
  -1  -3  -5 7302.85 694.844   7
  -2   3  -5 79562.5 2347.38  10
  -2  -3  -5 87992.2 2531.05  10
  -2   3  -5 75918.9 2058.05  15
  -2  -3  -5 74765.4 2674.79  14
  -2   3  -5 87392.5 2456.40  14
  -2   3  -5 75073.5 2422.86   5
  -2   3  -5 75819.5 2591.18   7
  -2  -3  -5 88446.5 2496.96   7
  -3  -3  -5 304.911 307.264  10
  -3   3  -5 435.456 194.559  15
  -3  -3  -5 837.546 376.536  14
  -3   3  -5 185.085 237.220  14
  -3   3  -5 697.520 268.859   5
  -3  -3  -5 567.664 251.195   5
  -3  -3  -5 312.419 276.456   7
  -4  -3  -5 1629.44 296.887  10
  -4  -3  -5 1564.85 288.982  14
  -4   3  -5 1301.45 241.327  14
  -4   3  -5 1389.05 271.257   5
  -4  -3  -5 1160.66 233.226   5
  -5  -3  -5 8787.98 413.735  10
  -5  -3  -5 9735.48 458.339  14
  -5   3  -5 8358.68 366.434  14
  -5   3  -5 8849.12 488.733   5
  -5  -3  -5 8980.41 466.769   5
  -5  -3  -5 9608.72 477.995   8
  -9   4   5 174.429 150.207   9
  -9  -4   5 194.706 124.606   9
   9  -4  -5 131.893 85.9097   7
  -8   4   5-210.504 196.618   9
   8  -4  -5 188.567 185.494   7
  -7   4   5 9609.03 765.938   9
   7  -4  -5 4102.76 713.283   7
  -6   4   5 12429.7 926.544   9
  -6   4   5 12386.0 933.197  13
   6  -4  -5 13340.2 1122.64   7
  -5   4   5 1644.76 358.182   9
  -5   4   5 1541.77 346.425  13
   5  -4  -5 1577.16 388.647   7
   4  -4  -5 725.970 240.524   7
   3   4  -5 20549.2 962.349  15
   3  -4  -5 20732.5 1103.14  12
   3  -4  -5 19432.6 1100.51   7
   2   4  -5 12389.8 753.110  15
   2  -4  -5 11539.7 801.710  14
   2  -4  -5 11986.2 844.853  12
   2  -4  -5 12293.9 916.770   7
   1   4  -5 4804.65 467.740  15
   1  -4  -5 4982.85 550.714  14
   1  -4  -5 5140.91 519.299  12
   1  -4  -5 4910.84 576.370   7
   0   4  -5 3882.86 428.790  15
   0  -4  -5 4622.37 569.816  14
   0   4  -5 3390.62 445.345  14
   0  -4  -5 2886.86 384.167  12
   0  -4  -5 3794.90 499.821   7
   0   4  -5 3103.29 461.731   7
  -1   4  -5 6404.55 563.802  15
  -1  -4  -5 6886.45 782.717  14
  -1   4  -5 5755.95 602.799  14
  -1   4  -5 4930.03 565.663   5
  -1   4  -5 6272.37 747.669   7
  -1  -4  -5 5457.44 589.331   7
  -2  -4  -5 36990.0 1679.06  10
  -2   4  -5 31163.2 1325.24  15
  -2   4  -5 35961.5 1570.48  14
  -2   4  -5 32308.7 1552.22   5
  -2   4  -5 32637.6 1646.40   7
  -2  -4  -5 34036.2 1537.40   7
  -3  -4  -5 3166.60 551.401  10
  -3   4  -5 4023.22 462.612  15
  -3  -4  -5 4812.10 615.045  14
  -3   4  -5 2492.59 479.831  14
  -3   4  -5 3702.73 503.392   5
  -3  -4  -5 4063.14 512.781   5
  -3  -4  -5 4167.04 590.353   7
  -4  -4  -5 1225.47 274.769  10
  -4  -4  -5 1272.62 261.130  14
  -4   4  -5 867.217 192.221  14
  -4   4  -5 686.794 214.157   5
  -4  -4  -5 698.575 187.909   5
  -5  -4  -5 51590.3 971.379  10
  -5  -4  -5 53440.8 1008.40  14
  -5   4  -5 55721.0 1153.58   5
  -5  -4  -5 53303.3 1077.75   8
  -9   5   5 6091.48 436.698   9
  -9  -5   5 5082.20 372.269   9
   9  -5  -5 5329.56 350.475   7
  -9   5   5 5049.38 344.131  11
  -8   5   5 2424.38 374.760   9
   8  -5  -5 2628.93 405.061   7
  -7   5   5 457.418 238.857   9
   7  -5  -5 302.208 397.691   7
  -6   5   5 3576.28 506.412   9
  -6   5   5 4429.52 597.574  13
   6  -5  -5 4458.95 676.192   7
  -5   5   5 2818.27 431.534   9
  -5   5   5 3142.64 495.302  13
   5  -5  -5 3328.14 512.729   7
   4  -5  -5-44.6813 181.214   7
   3   5  -5 37242.0 1339.01  15
   3  -5  -5 36945.4 1479.18  12
   3  -5  -5 34873.7 1486.00   7
  -2   5   5 11795.2 777.521  17
   2   5  -5 11707.5 761.017  15
   2  -5  -5 10885.6 809.052  12
   2  -5  -5 11340.6 860.067   7
   1   5  -5 7416.28 590.777  15
   1  -5  -5 7693.17 678.762  14
   1  -5  -5 7401.27 643.720  12
   1  -5  -5 7791.51 710.130   7
   0   5  -5 73233.0 1797.05  15
   0   5  -5 75545.1 2053.16  14
   0  -5  -5 73992.5 1860.01  12
   0  -5  -5 76123.5 2122.58   7
  -1   5  -5 144.873 167.592  15
  -1  -5  -5 796.148 338.917  14
  -1   5  -5 83.4221 156.393  14
  -1   5  -5 54.1363 191.656   5
  -1  -5  -5 270.234 181.801  12
  -1   5  -5 337.544 270.954   7
  -1  -5  -5 333.506 221.327   7
  -2  -5  -5 8760.24 881.360  10
  -2   5  -5 7161.52 648.229  15
  -2  -5  -5 6812.43 835.331  14
  -2   5  -5 7827.18 754.091  14
  -2   5  -5 6720.45 726.254   5
  -2  -5  -5 8059.51 770.295   7
  -3  -5  -5 32323.0 1545.89  10
  -3   5  -5 38217.2 1341.06  15
  -3  -5  -5 48824.8 1673.46  14
  -3   5  -5 31718.0 1405.29  14
  -3   5  -5 41362.0 1574.55   5
  -3  -5  -5 41154.8 1519.98   5
  -3  -5  -5 34030.0 1542.46   7
  -4  -5  -5 1528.61 265.677  10
  -4   5  -5 1586.53 238.876  15
  -4  -5  -5 1535.47 246.412  14
  -4   5  -5 1072.16 187.566  14
  -4   5  -5 1311.01 266.965   5
  -4  -5  -5 1198.87 222.216   5
  -5  -5  -5 1896.06 187.264  10
  -5  -5  -5 1914.34 186.653  14
  -5   5  -5 1667.75 200.127   5
  -5  -5  -5 1284.91 150.489   5
  -5  -5  -5 1704.31 191.973   8
  -9   6   5 2900.15 294.077   9
  -9  -6   5 2398.09 232.704   9
   9  -6  -5 2415.43 223.900  12
   9  -6  -5 2568.22 235.621   7
  -9   6   5 2141.24 217.414  11
  -8   6   5 30558.9 1128.08   9
   8  -6  -5 35098.9 1297.34   7
  -7   6   5 396.594 208.646   9
   7  -6  -5 308.849 291.131   7
  -6   6   5 11469.6 835.617   9
  -6   6   5 13194.7 1033.12  13
   6  -6  -5 13494.1 1101.70   7
  -5   6   5 7505.23 674.970   9
  -5   6   5 7685.79 757.610  13
   5  -6  -5 7952.67 751.964   7
   4  -6  -5 555.993 264.819  12
   4  -6  -5 1099.46 292.341   7
   3   6  -5 28625.4 1187.82  15
   3  -6  -5 28100.6 1306.37  12
   3  -6  -5 26432.6 1267.60   7
  -2   6   5 15619.0 906.465  17
   2   6  -5 16918.0 931.407  15
   2  -6  -5 16787.8 1011.93  12
   2  -6  -5 15741.3 1023.47   7
   1   6  -5 20845.6 999.034  15
   1  -6  -5 19652.2 1047.49  12
   1  -6  -5 20260.5 1136.97   7
   0   6  -5 15416.9 853.455  15
   0   6  -5 14772.0 912.741  14
   0  -6  -5 14915.3 866.131  12
   0  -6  -5 14511.2 929.711   7
  -1   6  -5 3747.53 448.421  15
  -1   6  -5 3534.11 470.192  14
  -1  -6  -5 2413.32 527.448  14
  -1  -6  -5 2867.01 385.877  12
  -1   6  -5 3032.89 458.774   5
  -1  -6  -5 3772.09 488.817   7
  -2  -6  -5 787.725 412.997  10
  -2   6  -5 390.567 234.629  15
  -2  -6  -5 859.224 302.323  14
  -2   6  -5 598.401 305.282  14
  -2   6  -5 604.834 266.161   5
  -2  -6  -5 420.746 195.715  12
  -2  -6  -5 959.221 297.525   7
  -3  -6  -5 10587.6 887.258  10
  -3   6  -5 10272.6 697.904  15
  -3  -6  -5 12171.8 744.471  14
  -3   6  -5 10796.2 749.472  14
  -3   6  -5 11134.6 795.055   5
  -3  -6  -5 11768.1 789.314   5
  -3  -6  -5 8973.63 811.562   7
  -4  -6  -5 1214.21 232.618  10
  -4   6  -5 1256.21 218.452  15
  -4  -6  -5 1532.27 220.435  14
  -4   6  -5 1004.83 227.765   5
  -4  -6  -5 1120.85 192.759   5
  -5  -6  -5 362.932 86.2997  10
  -5   6  -5 271.604 94.1508   5
  -5  -6  -5 178.185 81.5251   8
  -9   7   5 9484.55 451.919   9
   9  -7  -5 9400.30 405.277   7
  -8   7   5-1.30264 130.482   9
   8  -7  -5 288.236 159.955  12
   8  -7  -5-53.7310 160.143   7
  -7   7   5 1337.98 288.837   9
  -7   7   5 1374.56 318.173  13
   7  -7  -5 1589.70 427.652   7
  -6   7   5 27450.0 1245.44   9
  -6   7   5 29069.4 1541.01  13
   6  -7  -5 27820.6 1479.16   7
  -5   7   5 1025.86 357.242  13
   5  -7  -5 888.355 315.772  12
   5  -7  -5 707.268 252.173   7
   4   7  -5 890.362 254.060  15
  -4   7   5 923.993 310.829  13
   4  -7  -5 852.463 300.632  12
   4  -7  -5 1196.48 331.089   7
   3   7  -5 21326.7 1056.76  15
   3  -7  -5 20701.7 1135.52  12
   3  -7  -5 19196.3 1092.15   7
  -2   7   5 14801.0 888.855  17
  -2   7   5 15732.3 935.854  16
   2   7  -5 16450.1 927.958  15
   2  -7  -5 14679.8 947.966  12
   2  -7  -5 15743.1 1018.96   7
  -1   7   5 181.930 167.046  17
   1   7  -5 341.498 192.710  15
   1   7  -5-242.882 183.561  14
   1  -7  -5 94.8268 152.004  12
   1  -7  -5-110.832 178.374   7
   0   7  -5 13304.9 801.572  15
   0   7  -5 14557.0 884.241  14
   0  -7  -5 14129.9 861.444  12
   0  -7  -5 13875.5 905.038   7
  -1   7  -5 4230.62 480.246  15
  -1   7  -5 3881.36 480.446  14
  -1   7  -5 3808.68 499.850   5
  -1  -7  -5 3833.84 622.880  14
  -1  -7  -5 3695.10 455.223  12
  -1  -7  -5 4139.33 521.655   7
  -2  -7  -5 378.495 282.688  10
  -2   7  -5 131.673 213.882  15
  -2  -7  -5 214.626 196.762  14
  -2   7  -5 26.6654 141.435  14
  -2   7  -5-291.030 201.123   5
  -2  -7  -5 76.7685 126.725  12
  -2  -7  -5 121.811 251.959   7
  -3  -7  -5 7990.32 722.947  10
  -3   7  -5 7399.26 589.339  15
  -3  -7  -5 7758.19 524.767  14
  -3   7  -5 8137.83 653.404   5
  -3  -7  -5 7067.43 520.001  12
  -3  -7  -5 6223.15 643.470   7
  -4  -7  -5 3311.57 331.676  10
  -4   7  -5 2952.01 295.465  15
  -4  -7  -5 2852.98 256.530  14
  -4   7  -5 3371.39 341.683   5
  -4  -7  -5 2198.35 241.700   5
  -8   8   5-158.776 128.915   9
   8  -8  -5-187.393 116.728  12
  -8   8   5-157.501 124.822  11
   8  -8  -5-49.8677 126.771   7
  -7   8   5 381.569 187.010   9
  -7   8   5 469.630 196.687  13
   7  -8  -5 403.020 222.019  12
   7  -8  -5 333.599 238.299   7
  -6   8   5 6301.89 590.126   9
  -6   8   5 6249.80 731.598  13
   6  -8  -5 7494.18 718.866  12
   6  -8  -5 6636.77 721.011   7
   5   8  -5-219.748 195.030  15
  -5   8   5 228.990 260.156  13
   5  -8  -5-372.934 252.846  12
   5  -8  -5 178.061 213.721   7
   4   8  -5 385.854 196.469  15
  -4   8   5 152.370 251.052  13
   4  -8  -5 486.915 237.508  12
   4  -8  -5 85.2623 162.047   7
  -3   8   5 7753.25 662.182  17
   3   8  -5 8898.01 686.427  15
  -3   8   5 7634.37 588.811   8
   3  -8  -5 8508.48 741.860  12
   3  -8  -5 7777.52 697.349   7
  -2   8   5 737.104 230.142  17
  -2   8   5 509.653 255.537  16
   2   8  -5 417.791 245.328  15
   2  -8  -5 370.615 219.896  12
   2  -8  -5 272.494 221.652   7
  -1   8   5 4224.04 477.357  17
   1   8  -5 4602.79 505.534  15
   1   8  -5 4401.14 505.161  14
   1  -8  -5 4709.78 535.295  12
   1  -8  -5 4703.33 555.137   7
   0   8  -5 5510.81 539.904  15
   0   8  -5 4642.11 485.331   5
   0   8  -5 5526.06 546.249  14
   0  -8  -5 5285.51 541.530  12
   0  -8  -5 5156.07 570.340   7
  -1  -8  -5 943.500 365.385  10
  -1   8  -5 1050.49 285.555  15
  -1   8  -5 1138.90 272.471  14
  -1   8  -5 1248.84 273.893   5
  -1  -8  -5 935.190 266.959  12
  -1  -8  -5 1010.00 286.556   7
  -2  -8  -5 5903.20 719.091  10
  -2   8  -5 6743.88 621.306  15
  -2  -8  -5 6934.18 535.781  14
  -2   8  -5 6870.59 644.886   5
  -2  -8  -5 7477.48 602.488  12
  -2  -8  -5 7234.72 690.399   7
  -3  -8  -5-42.1830 161.832  10
  -3   8  -5-145.820 161.449  15
  -3  -8  -5 98.0475 104.743  14
  -3   8  -5-56.3976 158.622   5
  -3  -8  -5 54.9124 110.816  12
  -4  -8  -5 3390.20 292.237  10
  -4   8  -5 3767.21 314.958  15
  -4   8  -5 3362.40 314.935   5
  -8   9   5 10030.8 491.456  17
  -8   9   5 8678.21 478.402   9
   8   9  -5 9333.28 459.916  15
   8  -9  -5 9120.88 449.432  12
   8  -9  -5 10243.0 527.092   7
  -8   9   5 10344.9 540.441  11
  -7   9   5 3180.01 374.020   9
   7   9  -5 3757.08 415.632  15
  -7   9   5 3579.32 446.592  13
   7  -9  -5 4234.88 448.615  12
   7  -9  -5 3567.98 454.806   7
  -7   9   5 4149.91 432.008  11
   6   9  -5 3652.52 452.637  15
  -6   9   5 2473.23 357.452   9
  -6   9   5 2865.68 512.721  13
   6  -9  -5 2870.55 448.227  12
   6  -9  -5 3006.28 457.729   7
   5   9  -5 11192.3 750.414  15
  -5   9   5 11525.1 1019.65  13
   5  -9  -5 11028.2 856.370  12
   5  -9  -5 10196.7 798.626   7
  -4   9   5 1420.63 355.213  17
   4   9  -5 1303.22 299.689  15
  -4   9   5 1190.85 274.633   8
  -4   9   5 1079.60 383.332  13
   4  -9  -5 1066.01 327.985  12
   4  -9  -5 1213.13 294.316   7
  -3   9   5 128.964 194.872  17
   3   9  -5 178.091 199.741  15
  -3   9   5-172.232 131.264   8
  -3   9   5 199.765 254.817  13
   3  -9  -5-260.875 202.952  12
   3  -9  -5-82.7529 142.109   7
  -2   9   5 5133.83 531.479  17
  -2   9   5 5020.86 545.611  16
   2   9  -5 5542.28 554.875  15
   2  -9  -5 5515.30 593.039  12
   2  -9  -5 5169.94 558.056   7
  -1   9   5 515.467 217.446  17
  -1   9   5 451.667 233.607  16
   1   9  -5 716.228 224.430  15
   1   9  -5 537.387 203.408  14
   1  -9  -5 785.200 266.522  12
   1  -9  -5 693.403 228.466   7
   0   9   5 4001.34 432.778  17
   0   9  -5 4895.40 509.683  15
   0   9  -5 4529.88 490.711   5
   0  -9  -5 4450.96 503.420  12
   0  -9  -5 4595.04 505.349   7
  -1  -9  -5 240.407 235.735  10
  -1   9  -5-66.7519 204.549  15
  -1   9  -5 50.3276 194.460   5
  -1  -9  -5 71.8027 181.335  12
  -1  -9  -5-8.52564 140.728   7
  -2  -9  -5 1684.84 405.072  10
  -2   9  -5 1218.58 314.671  15
  -2   9  -5 1380.25 309.020   5
  -2  -9  -5 1764.26 338.029  12
  -2  -9  -5 1265.72 317.430   7
  -3  -9  -5 5434.95 451.794  10
  -3   9  -5 4700.18 447.914  15
  -3   9  -5 5287.30 474.021   5
  -3  -9  -5 4418.82 393.687  12
  -4  -9  -5-165.206 71.7779  10
   4   9   5-172.814 94.9186  16
  -4   9  -5-136.457 86.3341   5
  -8  10   5 7255.45 350.886  17
   8  10  -5 7831.90 355.038  15
   8 -10  -5 9427.64 431.626   7
  -8  10   5 9473.25 457.338  11
  -7  10   5 186.626 145.755  17
  -7  10   5 216.920 156.478   9
   7  10  -5 320.321 163.300  15
  -7  10   5 225.046 150.438  13
   7 -10  -5 428.939 154.790  12
  -7  10   5 315.328 158.815  11
   7 -10  -5 412.788 190.619   7
  -6  10   5 137.965 197.527  17
   6  10  -5 6.01021 165.827  15
  -6  10   5-365.142 283.051  13
   6 -10  -5 222.522 209.043  12
  -6  10   5 353.096 206.865  11
   6 -10  -5-203.674 203.961   7
  -5  10   5 544.695 290.571  17
   5  10  -5 82.8782 186.397  15
  -5  10   5-56.4259 164.599   8
  -5  10   5 203.719 283.443  13
   5 -10  -5 412.414 253.207  12
  -5  10   5 757.759 265.215  11
   5 -10  -5 234.750 204.010   7
  -4  10   5 6548.09 626.973  17
   4  10  -5 6906.00 576.862  15
  -4  10   5 6869.01 615.197   8
  -4  10   5 7711.08 860.389  13
   4 -10  -5 7424.12 690.165  12
   4 -10  -5 6806.43 616.841   7
  -4  10   5 6077.06 561.833  11
  -3  10   5 6773.83 606.489  17
  -3  10   5 7067.31 597.051  16
   3  10  -5 7116.56 594.777  15
  -3  10   5 6417.92 551.306   8
  -3  10   5 7181.24 755.853  13
   3 -10  -5 7291.19 664.041  12
   3 -10  -5 6518.85 606.067   7
  -2  10   5 8510.10 665.430  17
  -2  10   5 8778.05 719.579  16
   2  10  -5 9387.89 681.484  15
   2  10  -5 8443.30 620.147  14
  -2  10   5 8349.64 793.845  13
   2 -10  -5 8640.70 694.245  12
   2 -10  -5 10078.2 735.748   7
  -1  10   5 12012.3 753.850  17
  -1  10   5 11749.0 822.069  16
   1  10  -5 13180.9 804.864  15
  -1  10   5 11288.6 884.346  13
   1 -10  -5 12642.6 828.506  12
   1 -10  -5 13242.3 816.049   7
   0  10   5 7381.81 576.774  17
   0 -10  -5 7593.70 721.539  10
   0  10   5 8225.18 715.589  16
   0  10  -5 7870.61 631.317  15
   0  10  -5 6492.51 565.756   5
   0  10   5 5711.42 595.709  13
   0 -10  -5 7124.01 624.901  12
   0 -10  -5 6825.56 584.977   7
  -1 -10  -5 7524.59 771.910  10
   1  10   5 10363.8 807.564  16
  -1  10  -5 9922.28 727.834  15
  -1  10  -5 8872.89 687.604   5
  -1 -10  -5 9365.07 690.213  12
  -1 -10  -5 9618.68 709.462   7
  -2 -10  -5 17.1935 163.091  10
   2  10   5-148.512 190.340  16
  -2  10  -5-34.2943 184.219  15
  -2  10  -5 156.141 149.825   5
  -2 -10  -5 106.423 155.164  12
  -3 -10  -5 1295.12 193.623  10
   3  10   5 1696.89 267.219  16
  -3  10  -5 1646.68 269.057  15
  -3  10  -5 1389.44 241.649   5
  -3 -10  -5 1603.56 236.135  12
  -7  11   5 57.3063 104.228  17
   7  11  -5-6.95295 76.5923  15
  -7  11   5-17.8860 97.8027  13
   7 -11  -5-18.2617 76.0965  12
  -7  11   5 36.1572 99.8004  11
   7 -11  -5 36.6337 104.190   7
  -6  11   5 54568.5 1507.05  17
  -6  11   5 49776.9 1670.56   6
   6  11  -5 52218.4 1391.90  15
  -6  11   5 53595.7 1816.10  13
   6 -11  -5 51467.9 1438.59  12
   6 -11  -5 47987.4 1448.95   7
  -6  11   5 51687.3 1463.98  11
  -5  11   5 12914.9 834.769  17
   5  11  -5 12362.2 726.566  15
  -5  11   5 12828.7 1070.24  13
   5 -11  -5 12513.8 821.985  12
   5 -11  -5 12325.8 789.592   7
  -5  11   5 11482.4 760.580  11
  -4  11   5 2012.68 360.539  17
   4  11  -5 2102.32 333.991  15
  -4  11   5 1757.15 331.043   8
  -4  11   5 2351.93 545.152  13
   4 -11  -5 1619.70 331.142  12
   4 -11  -5 1871.09 336.270   7
  -4  11   5 1712.20 302.875  11
  -3  11   5 36397.2 1312.69  17
  -3  11   5 36161.9 1296.82  16
   3  11  -5 38633.4 1284.82  15
  -3  11   5 38706.5 1767.43  13
   3 -11  -5 36132.5 1367.73  12
   3 -11  -5 36289.4 1314.27   7
  -2  11   5 8580.95 641.261  17
  -2  11   5 8832.99 683.068  16
   2  11  -5 9202.60 647.420  15
  -2  11   5 9026.72 849.494  13
   2 -11  -5 9350.10 700.967  12
   2 -11  -5 8028.09 610.870   7
  -1  11   5 17940.6 899.068  17
  -1  11   5 20292.0 1050.50  16
   1  11  -5 21610.6 986.461  15
  -1  11   5 16695.6 1103.63  13
   1 -11  -5 20571.2 1011.00  12
   1 -11  -5 18917.1 896.513   7
   0  11   5 8397.55 595.195  17
   0  11   5 8599.01 717.553  16
   0  11  -5 9564.88 674.889  15
   0  11   5 7563.00 709.261  13
   0 -11  -5 8776.03 675.500  12
   0 -11  -5 7668.77 571.229   7
  -1 -11  -5 1461.79 321.235  10
   1  11   5 1643.06 372.686  16
  -1  11  -5 2046.24 366.921  15
  -1  11  -5 1507.47 293.039   5
  -1 -11  -5 2021.30 349.912  12
  -2 -11  -5 23748.2 822.686  10
   2  11   5 22780.5 992.681  16
  -2  11  -5 23149.8 1011.32  15
  -2  11  -5 23587.1 986.361   5
  -2 -11  -5 23126.1 976.883  12
   3  11   5 1198.96 191.965  16
  -3  11  -5 1682.03 239.398  15
  -3 -11  -5 1250.19 187.106  12
  -7  12   5 3086.42 241.225  17
   7  12  -5 2809.93 214.854  15
  -6  12   5 2421.06 315.243  17
   6  12  -5 2250.36 268.386  15
  -6  12   5 2292.90 338.285   6
  -6  12   5 3455.25 443.014  13
   6 -12  -5 2383.03 271.672  12
   6 -12  -5 2367.08 299.406   7
  -6  12   5 2682.89 319.629  11
  -5  12   5 16812.9 871.307  17
   5  12  -5 17403.3 785.525  15
  -5  12   5 15152.3 847.726   8
  -5  12   5 17197.4 1132.34  13
   5 -12  -5 16432.1 843.320  12
   5 -12  -5 16613.1 833.748   7
  -5  12   5 14717.8 788.096  11
  -4  12   5 12764.8 782.917  17
   4  12  -5 13076.3 706.764  15
  -4  12   5 13394.7 836.005   8
  -4  12   5 12613.7 1067.23  13
   4 -12  -5 13199.5 796.930  12
   4 -12  -5 13177.6 747.107   7
  -4  12   5 10202.9 638.154  11
  -3  12   5 12879.4 763.614  17
  -3  12   5 13881.8 774.417  16
   3  12  -5 13220.0 705.435  15
  -3  12   5 14024.4 1093.03  13
   3 -12  -5 14644.1 840.209  12
   3 -12  -5 12911.4 717.816   7
  -2  12   5 10083.5 668.066  17
  -2  12   5 12021.1 753.191  16
   2  12  -5 11552.1 671.409  15
  -2  12   5 10770.9 955.671  13
   2 -12  -5 10964.5 717.490  12
   2 -12  -5 10518.1 631.208   7
  -1  12   5 5825.85 504.385  17
  -1  12   5 6559.89 581.620  16
   1  12  -5 6779.54 534.550  15
  -1  12   5 5584.77 672.164  13
   1 -12  -5 6195.10 553.424  12
   0  12   5 11004.9 650.458  17
   0  12   5 11889.9 785.788  16
   0  12  -5 12487.9 741.921  15
   0 -12  -5 12194.5 743.780  12
   1  12   5 11337.6 583.890  17
   1  12   5 12829.8 784.962  16
  -1  12  -5 11937.8 740.402  15
  -1 -12  -5 12263.5 745.254  12
   2  12   5 156.301 149.245  16
  -2  12  -5-93.8830 163.145  15
  -2 -12  -5-21.5320 103.625  12
   3  12   5 1391.64 168.493  16
  -3  12  -5 1602.66 188.371  15
  -6  13   5 2766.46 270.414  17
  -6  13   5 2103.97 247.866   6
   6  13  -5 2586.28 234.956  15
  -6  13   5 2425.57 263.338  11
  -5  13   5 187.074 150.414  17
   5  13  -5 371.639 146.035  15
  -5  13   5 420.268 235.318   6
  -5  13   5 415.375 260.004  13
   5 -13  -5 204.858 120.051  12
   5 -13  -5 452.413 148.974   7
  -5  13   5 306.136 163.546  11
  -4  13   5 666.114 225.345  17
   4  13  -5 589.856 170.595  15
  -4  13   5 533.861 327.252  13
   4 -13  -5 891.946 227.355  12
  -3  13   5 9262.49 616.507  17
  -3  13   5 9757.91 614.046  16
   3  13  -5 10015.5 570.958  15
  -3  13   5 8316.96 850.337  13
   3 -13  -5 10016.8 655.476  12
  -2  13   5 99.2845 146.589  17
  -2  13   5 208.942 149.411  16
   2  13  -5 134.145 120.262  15
  -2  13   5 5.50030 263.265  13
   2 -13  -5 96.1623 173.896  12
  -1  13   5 1702.53 281.801  17
  -1  13   5 2112.34 330.689  16
   1  13  -5 2013.24 286.425  15
  -1  13   5 1573.94 369.519  13
   1 -13  -5 2281.05 332.442  12
   0  13   5 18088.1 772.091  17
   0  13   5 20134.7 949.190  16
   0  13  -5 20599.9 883.738  15
   0 -13  -5 20576.4 908.330  12
   1  13   5 193.939 106.626  17
   1  13   5 103.263 136.213  16
  -1  13  -5 22.1836 150.756  15
  -1 -13  -5-12.1815 131.708  12
   2  13   5 623.507 152.825  16
  -2  13  -5 688.436 160.954  15
  -2 -13  -5 638.108 154.946  12
  -5  14   5 4372.51 357.701  17
  -5  14   5 4536.56 439.391   6
   5  14  -5 3661.95 269.178  15
  -5  14   5 5089.48 462.822  13
   5 -14  -5 3617.92 262.694  12
  -4  14   5 12677.7 656.887  17
  -4  14   5 13819.0 920.075   6
   4  14  -5 13032.1 569.063  15
  -4  14   5 13648.6 879.895  13
   4 -14  -5 12515.8 612.567  12
  -3  14   5 2039.49 283.684  17
  -3  14   5 2057.22 270.094  16
   3  14  -5 2042.64 247.859  15
  -3  14   5 1844.31 473.796   6
  -3  14   5 2491.45 446.781  13
   3 -14  -5 2096.38 302.071  12
  -2  14   5 2858.44 329.960  17
  -2  14   5 2951.18 352.388  16
   2  14  -5 3000.46 300.253  15
  -2  14   5 2802.82 498.483   6
  -2  14   5 2936.36 501.799  13
   2 -14  -5 3290.46 361.218  12
  -1  14   5 8908.08 533.441  17
  -1  14   5 10011.9 616.268  16
   1  14  -5 10251.0 560.541  15
   1 -14  -5 10289.0 615.650  12
   0  14   5 1397.75 213.093  17
   0  14   5 1646.89 276.787  16
   0  14  -5 1522.27 245.076  15
   0 -14  -5 1529.44 262.276  12
   1  14   5 2756.92 307.495  16
  -1  14  -5 2396.47 267.515  15
  -1 -14  -5 2737.38 302.854  12
  -4  15   5 2277.12 257.042  17
  -4  15   5 2878.05 354.298   6
  -4  15   5 2887.11 328.381  13
  -3  15   5 2402.56 283.557  17
  -3  15   5 1875.51 219.940  16
   3  15  -5 2390.69 230.249  15
  -3  15   5 2684.63 412.238   6
  -3  15   5 2671.54 353.288  13
   3 -15  -5 2395.33 270.525  12
  -2  15   5 4298.86 358.756  17
  -2  15   5 3610.20 446.727   6
  -2  15   5 4347.99 361.825  16
   2  15  -5 4665.14 335.242  15
   2 -15  -5 4977.68 396.927  12
  -1  15   5 1006.06 186.505  17
  -1  15   5 922.657 193.059  16
  -1  15   5 461.961 136.215   6
   1  15  -5 1091.83 181.316  15
   1 -15  -5 1203.40 217.698  12
   0  15   5 2445.71 228.014  17
   0  15   5 2765.78 296.601  16
   0  15  -5 2107.03 227.101  15
   0 -15  -5 2969.94 296.064  12
  -3  16   5 822.225 146.746  17
  -2  16   5 2827.35 251.747  17
  -8   0   6 752.851 197.022   9
   8   0  -6 656.701 159.578  12
  -7   0   6 1092.45 263.723   9
  -6   0   6 210.022 179.784   9
   6   0  -6 277.820 225.054   7
   5   0  -6 454.126 166.350  12
   5   0  -6 1015.63 286.212   7
   4   0  -6 677.556 243.180   7
   3   0  -6 1744.34 345.826  14
   3   0  -6 2281.31 374.987   7
   2   0  -6 55736.8 1741.65  14
   2   0  -6 55291.2 1750.21   7
   1   0  -6 360.289 234.621  14
   1   0  -6 258.620 190.781   7
   0   0  -6 3966.52 542.649  14
   0   0  -6 4801.39 608.965   7
  -1   0  -6 15239.2 996.692  10
  -1   0  -6 16502.6 1132.97  14
  -1   0  -6 18187.4 1195.59   7
  -2   0  -6 87.1106 170.457  10
  -2   0  -6 353.226 281.610  14
  -2   0  -6 445.410 267.422   7
  -3   0  -6 11351.8 494.781  10
  -3   0  -6 16562.0 713.541  14
  -8   1   6 3818.86 358.712   9
  -8  -1   6 4469.25 394.086   9
   8  -1  -6 4725.16 392.748  12
   8   1  -6 4011.01 344.490  12
  -7   1   6 399.044 184.118   9
  -7  -1   6 768.848 253.464   9
   7  -1  -6 594.420 197.615   7
  -6   1   6 1056.11 290.254   9
   6  -1  -6 920.623 275.978  12
   6  -1  -6 1177.81 330.166   7
  -5   1   6 7727.30 711.121   9
   5  -1  -6 7462.88 588.993  12
   5   1  -6 7899.87 675.806   7
   5  -1  -6 9076.46 771.469   7
   4   1  -6 2496.98 388.390   7
   4  -1  -6 1533.93 337.536   7
   3  -1  -6 3354.72 452.937  14
   3   1  -6 3379.19 436.770   7
   3  -1  -6 3931.18 482.868   7
   2  -1  -6 15865.4 930.811  14
   2   1  -6 14199.7 890.229  14
   2   1  -6 15095.3 900.807   7
   2  -1  -6 14878.9 927.544   7
   1  -1  -6 9340.48 746.910  14
   1   1  -6 9414.84 757.898  14
   1   1  -6 9070.76 739.545   7
   1  -1  -6 9522.60 778.404   7
   0  -1  -6 20165.1 1148.92  14
   0   1  -6 19544.8 1114.84  14
   0   1  -6 19741.4 1172.49   7
   0  -1  -6 20038.7 1152.12   7
  -1   1  -6 935.436 289.319  10
  -1  -1  -6 1211.51 339.910  10
  -1  -1  -6 1492.41 423.488  14
  -1   1  -6 1094.22 379.176  14
  -1   1  -6 769.876 322.475   7
  -1  -1  -6 949.122 358.155   7
  -2   1  -6 3317.88 440.146  10
  -2  -1  -6 3173.65 450.452  10
  -2  -1  -6 3659.50 542.825  14
  -2   1  -6 3390.08 522.958  14
  -2  -1  -6 4841.10 603.639   7
  -3  -1  -6 22283.5 814.976  14
  -3   1  -6 23093.6 830.611  14
  -8   2   6 30483.7 930.481   9
   8  -2  -6 32349.5 998.032  12
  -7   2   6 3584.98 396.257   9
  -7  -2   6 3795.42 455.490   9
   7   2  -6 2699.50 353.878  15
   7  -2  -6 3709.25 500.248   7
   7  -2  -6 2886.23 431.417  12
  -6   2   6 13284.3 829.357   9
   6   2  -6 14193.9 806.068  15
   6  -2  -6 14016.7 917.246  12
   6  -2  -6 13094.5 1013.59   7
   5   2  -6 23717.7 930.199  15
  -5   2   6 23419.6 1113.59  13
   5  -2  -6 23519.8 1061.67  12
   5  -2  -6 25998.3 1290.10   7
   4  -2  -6 84.8698 123.743  12
   4  -2  -6 207.052 207.867   7
   3  -2  -6 30425.6 1250.78  14
   3   2  -6 30724.6 1215.74   7
   3  -2  -6 31872.1 1318.12   7
   2  -2  -6 939.241 260.501  14
   2   2  -6 1346.58 329.867  14
   2   2  -6 1060.46 256.894   7
   2  -2  -6 684.242 240.273   7
   1  -2  -6-10.8099 163.019  14
   1   2  -6 238.055 211.365  14
   1   2  -6 11.9545 132.661   7
   1  -2  -6-151.058 206.917   7
   0  -2  -6 40543.1 1641.45  14
   0   2  -6 37793.3 1492.39  14
   0   2  -6 37812.1 1612.74   7
   0  -2  -6 36438.6 1523.25   7
  -1   2  -6 478.549 254.383  10
  -1  -2  -6 447.864 229.894  10
  -1  -2  -6 333.630 307.177  14
  -1   2  -6 549.035 316.230  14
  -1   2  -6 273.528 256.320   7
  -1  -2  -6 324.295 272.345   7
  -2   2  -6 408.522 164.742  10
  -2  -2  -6 772.357 280.905  10
  -2  -2  -6 753.973 305.517  14
  -2   2  -6 318.422 258.907  14
  -2  -2  -6 449.494 260.193   7
  -3  -2  -6 12884.7 583.534  10
  -3  -2  -6 14595.0 636.933  14
  -3   2  -6 13648.3 622.785  14
  -8   3   6 416.959 133.609   9
   8   3  -6 396.999 91.8343  15
  -8  -3   6 558.220 171.703   9
   8  -3  -6 506.059 142.458  12
   8  -3  -6 568.297 136.656   7
   7   3  -6 671.128 214.122  15
  -7   3   6 602.588 179.839   9
  -7  -3   6 949.735 285.146   9
   7  -3  -6 223.475 207.227  12
   7  -3  -6 701.465 274.113   7
  -6   3   6 11869.7 755.327   9
   6   3  -6 13555.7 807.062  15
   6  -3  -6 11519.6 832.830  12
   6  -3  -6 11492.3 966.734   7
   5   3  -6 24505.5 968.356  15
   5  -3  -6 21708.2 1034.60  14
  -5   3   6 26675.1 1221.21  13
   5  -3  -6 23537.1 1082.91  12
   5  -3  -6 26872.1 1314.58   7
   4   3  -6 21.0192 80.2321  15
   4  -3  -6-27.8463 139.364  14
   4  -3  -6 70.6162 148.525  12
   4  -3  -6 156.620 187.512   7
   3   3  -6 13531.2 669.329  15
   3  -3  -6 14042.0 833.156  14
   3  -3  -6 13903.9 759.051  12
   3  -3  -6 13136.2 847.186   7
   2   3  -6 14042.1 677.689  15
   2  -3  -6 14110.7 862.425  14
   2   3  -6 13325.7 867.721  14
   2  -3  -6 14051.3 891.410   7
   1  -3  -6 1139.53 328.080  14
   1   3  -6 1725.80 341.784  14
   1   3  -6 1072.29 298.306   7
   1  -3  -6 548.587 263.178   7
   0  -3  -6 11323.4 897.668  14
   0   3  -6 10816.1 803.380  14
   0   3  -6 9137.76 794.904   7
   0  -3  -6 10743.7 829.882   7
  -1  -3  -6 12623.2 915.345  10
  -1   3  -6 14211.8 965.738  14
  -1   3  -6 12059.1 899.327   7
  -1  -3  -6 12992.2 949.215   7
  -2  -3  -6 1833.87 386.301  10
  -2  -3  -6 2504.17 402.365  14
  -2   3  -6 1508.86 364.502  14
  -2  -3  -6 2369.81 433.212   7
  -3  -3  -6 5367.97 381.236  10
  -3  -3  -6 5383.65 367.611  14
  -3   3  -6 5502.01 373.209  14
  -8   4   6 1143.47 178.210   9
   8   4  -6 1004.79 147.402  15
  -8  -4   6 1630.58 247.535   9
   8  -4  -6 1208.22 194.734  12
   8  -4  -6 1248.35 191.380   7
  -7   4   6 1914.86 271.742   9
   7   4  -6 1491.33 301.586  15
   7  -4  -6 1834.47 321.149  12
   7  -4  -6 1746.51 407.164   7
   6   4  -6 8107.62 635.763  15
  -6   4   6 7765.98 687.848  13
   6  -4  -6 6992.74 647.089  12
   6  -4  -6 6617.12 758.431   7
   5   4  -6 31.7903 117.284  15
  -5   4   6 169.889 161.294  13
   5  -4  -6 68.3525 152.658  12
   5  -4  -6-285.244 258.138   7
   4   4  -6 3041.14 333.992  15
   4  -4  -6 2541.01 406.129   7
   4  -4  -6 2359.70 358.125  12
   3   4  -6 2261.06 297.258  15
   3  -4  -6 3097.54 416.155  14
   3  -4  -6 2184.02 323.693  12
   3  -4  -6 2191.79 369.904   7
   2   4  -6 5760.39 450.430  15
   2  -4  -6 6445.58 582.800  14
   2   4  -6 5810.79 588.133  14
   2  -4  -6 5451.86 459.922  12
   2  -4  -6 5634.33 582.296   7
   1   4  -6 2406.14 307.940  15
   1   4  -6 2963.91 440.007  14
   1  -4  -6 2925.71 430.125  14
   1  -4  -6 2624.68 426.137   7
   0   4  -6 1702.38 287.317  15
   0  -4  -6 2073.05 431.618  14
   0   4  -6 2171.72 381.194  14
   0  -4  -6 2571.30 454.873   7
  -1  -4  -6 662.236 333.983  10
  -1  -4  -6 396.135 288.785  14
  -1   4  -6 851.970 309.759  14
  -1  -4  -6 1199.60 334.744   7
  -2  -4  -6 271.356 225.752  10
  -2  -4  -6 319.856 178.906  14
  -2   4  -6 430.030 229.165  14
  -2  -4  -6 82.1737 219.620   7
  -3  -4  -6 9.16336 103.507  10
  -3  -4  -6 28.5637 74.4877  14
  -3   4  -6 137.356 81.5295  14
  -8  -5   6 3040.81 298.714   9
   8   5  -6 2511.58 212.722  15
   8  -5  -6 2550.14 245.596  12
   8  -5  -6 3218.93 278.261   7
  -7   5   6 5315.87 409.019   9
   7   5  -6 5205.76 495.544  15
   7  -5  -6 6203.07 525.964  12
   6   5  -6 6932.34 593.216  15
  -6   5   6 7221.24 694.528  13
   6  -5  -6 5809.84 586.595  12
   6  -5  -6 6382.83 717.264   7
   5   5  -6 2293.67 328.066  15
  -5   5   6 2815.02 448.960  13
   5  -5  -6 2459.58 394.711  12
   5  -5  -6 2459.94 443.138   7
  -4   5   6 15261.1 782.031  17
   4   5  -6 16079.2 758.546  15
   4  -5  -6 16250.1 868.173  12
   4  -5  -6 17144.3 959.680   7
   3   5  -6 6822.58 490.399  15
   3  -5  -6 6832.37 560.937  12
   3  -5  -6 7074.70 631.836   7
   2   5  -6 2812.91 329.632  15
   2  -5  -6 3238.04 434.812  14
   2   5  -6 2177.65 382.704  14
   2  -5  -6 2929.92 360.579  12
   2  -5  -6 2844.32 418.888   7
   1   5  -6 1501.23 247.024  15
   1  -5  -6 1678.78 373.852  14
   1   5  -6 1592.74 331.765  14
   1  -5  -6 1585.17 250.811  12
   1  -5  -6 1341.86 321.840   7
   0   5  -6 70.2528 113.066  15
   0  -5  -6 205.558 225.748  14
   0   5  -6 165.877 199.206  14
   0  -5  -6 212.849 207.924   7
  -1  -5  -6 405.890 295.892  10
  -1   5  -6 353.113 166.074  15
  -1  -5  -6 706.480 283.990  14
  -1   5  -6 743.906 272.629  14
  -1  -5  -6 871.373 296.653   7
  -2  -5  -6 471.997 250.827  10
  -2  -5  -6 423.577 153.819  14
  -2   5  -6 570.514 207.847  14
  -2  -5  -6 610.227 241.825   7
  -3  -5  -6 1137.89 164.605  10
  -3  -5  -6 877.563 116.972  14
  -8   6   6 27231.6 705.310  17
  -8  -6   6 27268.2 769.359   9
   8  -6  -6 26492.1 683.901  12
   7   6  -6 328.666 174.527  15
   7  -6  -6 305.751 181.726  12
   7  -6  -6 296.520 200.951   7
   6   6  -6 231.060 203.269  15
  -6   6   6 365.483 275.719  13
   6  -6  -6 503.495 228.995  12
   6  -6  -6 244.745 273.205   7
   5   6  -6 19878.4 893.387  15
  -5   6   6 22351.4 1195.19  13
   5  -6  -6 19020.6 986.755  12
   5  -6  -6 21340.9 1133.54   7
  -4   6   6 4514.17 439.542  17
   4   6  -6 4611.25 419.024  15
  -4   6   6 4330.13 538.969  13
   4  -6  -6 4615.55 477.857  12
   4  -6  -6 4225.05 498.439   7
   3   6  -6 9538.30 586.561  15
   3  -6  -6 9404.13 634.691  12
   3  -6  -6 10739.4 748.936   7
   2   6  -6 71.3283 124.890  15
   2   6  -6 310.801 214.722  14
   2  -6  -6 434.128 168.935  12
   2  -6  -6 321.911 201.161   7
  -1   6   6 4496.34 446.751  16
   1   6  -6 3775.59 390.785  15
   1   6  -6 4196.18 483.298  14
   1  -6  -6 3463.98 366.376  12
   1  -6  -6 3844.05 476.367   7
   0   6  -6 14135.3 743.384  15
   0   6  -6 16629.3 939.601  14
   0  -6  -6 14191.8 693.804  12
   0  -6  -6 15348.6 914.927   7
  -1  -6  -6 2643.08 461.696  10
  -1   6  -6 1845.50 294.971  15
  -1  -6  -6 2363.46 331.995  14
  -1   6  -6 2039.27 390.667  14
  -1  -6  -6 2510.66 429.650   7
  -2  -6  -6 5145.11 502.821  10
  -2   6  -6 4259.28 312.418  15
  -2  -6  -6 4508.39 319.180  14
  -2   6  -6 5907.14 441.718  14
  -2  -6  -6 4662.71 488.235   7
  -3  -6  -6 1631.05 175.054  10
   3   6   6 1544.63 174.107  16
  -7   7   6 5694.27 445.998  17
   7   7  -6 5624.76 443.357  15
   7  -7  -6 5224.52 416.740  12
   7  -7  -6 6757.21 536.512   7
  -7   7   6 5137.31 389.083  11
  -6   7   6 7961.13 615.053  17
   6   7  -6 8538.81 629.301  15
  -6   7   6 8695.06 752.387  13
   6  -7  -6 7374.49 598.169  12
   6  -7  -6 7009.33 671.676   7
  -5   7   6 77897.7 1861.23  17
   5   7  -6 83633.2 1813.80  15
  -5   7   6 91018.1 2422.03  13
   5  -7  -6 77410.6 1913.69  12
   5  -7  -6 85019.9 2165.14   7
  -4   7   6 8169.67 573.344  17
   4   7  -6 8860.45 575.256  15
  -4   7   6 9671.41 786.321  13
   4  -7  -6 8308.65 618.721  12
   4  -7  -6 8246.62 655.060   7
  -3   7   6 5257.74 434.566  17
   3   7  -6 5127.78 440.871  15
   3   7  -6 4921.61 489.436  14
  -3   7   6 5624.51 602.652  13
   3  -7  -6 5018.24 464.682  12
   3  -7  -6 5157.52 517.471   7
   2   7  -6 45782.4 1275.04  15
   2   7  -6 48485.1 1481.66  14
   2  -7  -6 45464.2 1461.00   7
  -1   7   6 15488.1 793.687  16
   1   7  -6 14594.7 738.074  15
   1   7  -6 16357.8 872.261  14
   1  -7  -6 13792.5 710.139  12
   1  -7  -6 14622.1 836.793   7
   0   7   6 496.340 189.017  16
   0   7  -6 535.280 189.625  15
   0   7  -6 334.340 168.276  14
   0  -7  -6 413.571 145.604  12
   0  -7  -6 322.793 210.921   7
  -1  -7  -6 27697.5 1275.33  10
  -1   7  -6 26318.8 1151.44  14
  -2  -7  -6 41110.9 1176.00  10
  -2   7  -6 32106.9 808.648  15
  -7   8   6 2173.09 250.533  17
   7   8  -6 2382.60 264.979  15
   7  -8  -6 2198.27 241.714  12
   7  -8  -6 2100.42 265.498   7
  -7   8   6 1640.59 208.302  11
  -6   8   6 672.957 207.342  17
   6   8  -6 701.459 220.663  15
  -6   8   6 880.633 288.324  13
   6  -8  -6 832.171 210.075  12
   6  -8  -6 676.252 263.601   7
  -6   8   6 796.922 189.168  11
  -5   8   6 404.022 200.693  17
   5   8  -6 549.316 205.873  15
  -5   8   6 794.884 292.603  13
   5  -8  -6 551.156 198.680  12
   5  -8  -6 480.349 245.142   7
  -5   8   6 410.850 160.427  11
  -4   8   6-8.48260 113.414  17
   4   8  -6 77.9544 126.553  15
  -4   8   6 125.312 230.486  13
   4  -8  -6-245.639 169.906  12
   4  -8  -6-210.224 196.039   7
  -3   8   6 8213.72 529.844  17
   3   8  -6 9550.50 579.411  15
   3   8  -6 8933.95 622.239  14
  -3   8   6 10080.4 795.745  13
   3  -8  -6 9018.93 604.758  12
   3  -8  -6 9085.15 641.271   7
   2   8  -6 315.303 156.700  15
   2   8  -6 4.92945 136.844  14
  -2   8   6 468.144 246.512  13
   2  -8  -6 239.866 145.179  12
   2  -8  -6 293.373 193.289   7
  -1   8   6-85.2966 159.679  16
   1   8  -6 141.545 160.625  15
   1   8  -6 73.2318 116.795  14
   1  -8  -6-38.3410 97.0177  12
   1  -8  -6-145.194 160.013   7
   0  -8  -6 6057.08 588.901  10
   0   8   6 5314.00 491.243  16
   0   8  -6 4635.56 436.305  15
   0   8  -6 6056.38 527.475  14
   0  -8  -6 4687.73 400.974  12
   0  -8  -6 5085.88 494.794   7
  -1  -8  -6 2440.36 380.288  10
   1   8   6 3585.96 404.628  16
  -1   8  -6 3443.35 367.565  15
  -1  -8  -6 2948.02 272.908  12
  -1  -8  -6 3240.56 409.842   7
  -2  -8  -6 5248.03 351.205  10
   2   8   6 4740.23 366.563  16
  -2   8  -6 4215.55 278.266  15
  -7   9   6 3730.71 270.704  17
   7   9  -6 4483.36 287.563  15
   7  -9  -6 3641.73 251.315  12
   7  -9  -6 4315.63 303.271   7
  -6   9   6 3285.50 343.874  17
   6   9  -6 3453.37 358.298  15
  -6   9   6 3100.20 399.215  13
   6  -9  -6 3025.84 325.313  12
   6  -9  -6 3335.05 381.443   7
  -6   9   6 2520.99 282.257  11
  -5   9   6 908.533 227.613  17
   5   9  -6 1243.73 238.796  15
  -5   9   6 690.724 293.494  13
   5  -9  -6 1087.33 255.888  12
   5  -9  -6 1180.54 269.220   7
  -5   9   6 851.989 164.555  11
  -4   9   6 3540.83 368.287  17
   4   9  -6 3810.28 377.842  15
   4   9  -6 3842.80 389.229  14
  -4   9   6 4449.37 557.241  13
   4  -9  -6 4123.61 415.092  12
   4  -9  -6 3757.91 418.076   7
  -3   9   6 9375.78 543.187  17
   3   9  -6 10317.3 592.732  15
   3   9  -6 9480.61 589.596  14
  -3   9   6 11320.7 848.768  13
   3  -9  -6 9477.61 600.544  12
   3  -9  -6 10849.6 661.808   7
   2   9  -6 2623.36 320.172  15
   2   9  -6 2471.84 303.008  14
  -2   9   6 2526.15 427.587  13
   2  -9  -6 2071.93 297.907  12
   2  -9  -6 1879.09 281.025   7
  -1   9   6 2488.32 313.871  16
   1   9  -6 2635.67 327.600  15
   1   9  -6 2964.17 322.563  14
  -1   9   6 2260.50 388.054  13
   1  -9  -6 2249.28 290.634  12
   1  -9  -6 2200.71 316.144   7
   0  -9  -6 16265.6 902.037  10
   0   9   6 18867.6 844.467  16
   0   9  -6 20049.9 854.988  15
   0   9   6 16278.1 797.500  13
   0  -9  -6 18299.9 749.010  12
   0  -9  -6 18331.1 851.700   7
  -1  -9  -6 11967.6 622.158  10
   1   9   6 11776.4 635.941  16
  -1   9  -6 12811.8 633.386  15
  -1  -9  -6 8508.15 430.999  12
  -1  -9  -6 7725.67 509.253   7
  -6  10   6 827.343 170.603  17
   6  10  -6 856.577 173.339  15
  -6  10   6 720.658 180.685  13
   6 -10  -6 646.035 145.732  12
   6 -10  -6 653.442 151.976   7
  -5  10   6 1391.21 246.118  17
   5  10  -6 1912.38 271.082  15
   5  10  -6 1570.26 227.023  14
  -5  10   6 2099.17 378.388  13
   5 -10  -6 1491.22 248.594  12
   5 -10  -6 1655.60 270.361   7
  -4  10   6 3879.12 369.514  17
   4  10  -6 4822.50 395.092  15
   4  10  -6 3458.45 325.343  14
  -4  10   6 5287.21 595.099  13
   4 -10  -6 4311.49 410.411  12
   4 -10  -6 4569.16 419.984   7
  -3  10   6 1265.14 214.563  17
   3  10  -6 1230.80 226.866  15
   3  10  -6 1016.32 196.677  14
  -3  10   6 1443.43 381.352  13
   3 -10  -6 994.024 214.436  12
   3 -10  -6 1028.92 206.704   7
  -2  10   6 1397.48 204.959  17
   2  10  -6 2349.70 292.191  15
  -2  10   6 2101.48 385.097  13
   2 -10  -6 1696.78 255.114  12
   2 -10  -6 1940.12 276.021   7
  -1  10   6 333.069 130.628  16
   1  10  -6 672.564 192.857  15
  -1  10   6 683.298 222.501  13
   1 -10  -6 538.345 162.959  12
   1 -10  -6 416.087 168.462   7
   0 -10  -6 988.337 218.368  10
   0  10   6 1415.33 242.131  16
   0  10  -6 1417.46 252.719  15
   0  10   6 901.156 196.567  13
   0 -10  -6 1266.27 210.826  12
   0 -10  -6 843.922 190.900   7
   1  10   6 3727.67 329.932  16
  -1  10  -6 4638.91 349.129  15
  -5  11   6 6218.27 413.975  17
  -5  11   6 7607.26 597.890   6
   5  11  -6 8503.95 466.827  15
  -5  11   6 7668.23 590.388  13
   5 -11  -6 7158.02 440.930  12
   5 -11  -6 6589.45 408.904   7
  -4  11   6 2245.51 265.049  17
   4  11  -6 2294.33 257.406  15
  -4  11   6 2135.59 409.099  13
   4 -11  -6 2162.71 279.704  12
   4 -11  -6 2372.75 261.935   7
  -3  11   6 586.150 156.782  17
   3  11  -6 822.633 185.308  15
  -3  11   6 796.254 294.120  13
   3 -11  -6 650.571 174.518  12
   3 -11  -6 737.178 175.106   7
  -2  11   6 19433.9 639.620  17
   2  11  -6 27375.7 867.846  15
  -2  11   6 26795.1 1243.41  13
   2 -11  -6 25605.7 855.940  12
   2 -11  -6 21547.3 749.204   7
  -1  11   6 3086.62 302.028  16
   1  11  -6 3628.87 341.468  15
  -1  11   6 3101.42 402.628  13
   1 -11  -6 3599.04 324.749  12
   0  11   6 2414.53 269.486  16
   0  11  -6 2301.31 276.430  15
   0 -11  -6 2132.55 237.231  12
  -4  12   6 1001.98 170.183  17
   4  12  -6 1013.68 170.036  15
  -4  12   6 887.239 253.256   6
  -4  12   6 764.029 234.290  13
   4 -12  -6 916.510 171.206  12
  -3  12   6 3309.60 275.973  17
  -3  12   6 3516.54 515.996   6
  -3  12   6 3048.64 430.583  13
   3 -12  -6 4046.97 334.889  12
   2  12  -6 3699.65 309.694  15
  -2  12   6 2627.84 391.075  13
   2 -12  -6 3208.80 293.749  12
   1  12  -6 1643.54 223.725  15
   1 -12  -6 1456.59 197.373  12
   0  12  -6 1482.56 192.866  15
   3  13  -6 38.4365 57.1087  15
   3 -13  -6 87.9079 83.3044  12
   2  13  -6 2242.00 222.573  15
   2 -13  -6 2206.05 230.643  12
   5   0  -7 166.507 150.719  14
   4   0  -7-129.476 146.915  14
   4   0  -7-368.564 139.891   7
   3   0  -7 49.8359 118.403  14
   3   0  -7 187.881 129.896   7
   2   0  -7-27.4625 136.757  14
   2   0  -7 200.862 126.679   7
   1   0  -7-28.6847 134.530  14
   1   0  -7-362.805 164.620   7
   0   0  -7 18.2547 83.3607  10
   0   0  -7-95.5568 135.966  14
   0   0  -7 206.140 117.152   7
   6   1  -7 11670.6 594.803  14
   5  -1  -7 7201.15 504.911  14
   5   1  -7 7838.95 595.913  14
   4  -1  -7 396.959 174.869  14
   4   1  -7-35.0865 134.174  14
  -4   1   7 200.548 115.390  13
   4  -1  -7 182.523 142.159   7
   3  -1  -7 10678.5 638.904  14
   3   1  -7 10670.3 623.381  14
   3  -1  -7 10843.0 635.226   7
   2  -1  -7 16635.5 802.819  14
   2   1  -7 15284.6 730.056  14
   2   1  -7 15734.4 797.399   7
   2  -1  -7 14499.5 734.673   7
   1   1  -7-12.6908 104.471  10
   1  -1  -7 120.880 171.577  14
   1   1  -7 77.1499 153.396  14
   1   1  -7 3.39690 113.029   7
   1  -1  -7 435.853 184.534   7
   0  -1  -7 4078.98 392.248  14
   0   1  -7 4021.41 398.874  14
   0  -1  -7 5065.37 416.242   7
   6   2  -7 1189.60 228.296  14
   5   2  -7 1768.37 334.584  14
   5  -2  -7 876.518 219.003   7
   4  -2  -7 13269.5 703.650  14
   4   2  -7 12864.8 705.643  14
  -4   2   7 11183.9 613.579  13
   4  -2  -7 13265.4 725.411   7
   3  -2  -7 6239.71 505.365  14
   3   2  -7 5301.24 445.622  14
   3  -2  -7 5223.16 440.553   7
   2   2  -7 1733.12 272.857  14
   2  -2  -7 1663.48 292.349  14
   2  -2  -7 2260.91 297.070   7
   1   2  -7 2127.88 301.255  14
   1  -2  -7 1742.88 315.247  14
   1  -2  -7 1935.26 285.103   7
   0  -2  -7 5655.25 424.820  10
   0  -2  -7 8863.52 525.383  14
   0   2  -7 6585.15 486.353  14
   0  -2  -7 8584.84 534.733   7
   6   3  -7 1911.29 290.185  14
   5   3  -7 25256.1 1063.12  14
   5  -3  -7 20336.6 919.086   7
   4   3  -7 1047.28 239.252  14
  -4   3   7 928.712 203.465  13
   4  -3  -7 1048.18 241.195   7
   3  -3  -7 4600.71 456.542  14
   3   3  -7 4056.61 386.475  14
   3  -3  -7 4218.76 388.285   7
   2   3  -7 39724.8 1123.98  14
   2  -3  -7 37176.1 1114.01   7
   1  -3  -7-93.2909 149.802  14
   1   3  -7-100.085 118.983  14
   1  -3  -7 45.5263 137.493   7
   0  -3  -7 5473.46 415.678  10
   0  -3  -7 9478.46 476.709  14
   0   3  -7 6550.43 471.657  14
   0  -3  -7 8237.36 516.632   7
   6   4  -7 410.458 176.984  14
  -5   4   7 890.038 179.005  13
   5  -4  -7 872.179 223.149   7
   4   4  -7 1451.33 249.065  14
  -4   4   7 1344.33 243.397  13
   4  -4  -7 2090.07 308.030   7
   3   4  -7 848.066 196.999  14
  -3   4   7 748.963 218.538  13
   3  -4  -7 791.358 184.883   7
   2   4  -7 7761.84 492.960  14
   2  -4  -7 7798.29 501.891   7
   1  -4  -7 2532.49 302.633  10
   1   4  -7 2830.68 317.840  14
   1  -4  -7 1908.49 260.263  14
   1  -4  -7 2298.58 286.677   7
   0  -4  -7 268.876 117.272  10
   0   4  -7 361.568 133.042  14
   0  -4  -7 61.4352 103.547   7
   5   5  -7 947.183 227.948  14
  -5   5   7 653.980 164.298  13
   5  -5  -7 985.414 219.059   7
   4   5  -7 3559.64 355.838  14
  -4   5   7 3152.96 358.133  13
   4  -5  -7 3489.07 359.087   7
   3   5  -7 182.702 120.683  14
  -3   5   7 200.375 151.231  13
   3  -5  -7 103.738 127.019   7
   2   5  -7 3019.02 305.389  14
  -2   5   7 2252.00 322.467  13
   2  -5  -7 2346.20 280.108   7
   1  -5  -7 263.322 145.962  10
   1   5  -7 185.825 124.259  14
   1  -5  -7 127.383 122.078   7
   0  -5  -7 1026.11 180.415  10
   0  -5  -7 1304.97 201.169   7
   5   6  -7 62.5537 112.838  14
   5  -6  -7 98.5274 102.002   7
   4   6  -7 7456.71 481.232  14
  -4   6   7 7786.43 542.163  13
   4  -6  -7 7529.41 497.705   7
   3   6  -7 1259.87 206.084  14
  -3   6   7 1176.77 247.922  13
   3  -6  -7 1055.50 199.516   7
  -2   6   7 10512.4 645.656  13
   2  -6  -7 10018.6 534.662   7
   1  -6  -7 6146.26 444.417  10
   1   6  -7 6406.09 422.814  14
  -1   6   7 7454.03 495.595  13
   1  -6  -7 7212.84 453.509   7
   4   7  -7 640.346 149.582  14
  -4   7   7 935.917 211.447  13
   4  -7  -7 690.890 169.830   7
   3   7  -7 633.106 146.879  14
  -3   7   7 896.967 229.695  13
   3  -7  -7 680.045 158.926   7
  -2   7   7 17775.3 822.141  13
   2  -7  -7 17206.8 664.592   7
  -3   8   7 183.273 155.127  13
   0   0   0    0.00    0.00   0
TITL exp_3133 in P2(1)/c
REM P2(1)/c (#14 in standard setting)
CELL 1.54184   8.585253  17.063851   5.988345  90.0000 106.9355  90.0000
ZERR    4.00   0.000242   0.000380   0.000160   0.0000   0.0029   0.0000
LATT  1
SYMM -x, y+1/2,-z+1/2
SFAC C H N O
UNIT 44.00 40.00 4.00 4.00
TREF
HKLF 4
END
;
_shelx_hkl_checksum              64222
_shelx_res_file
;
    shelx.res created by SHELXL-2014/7
TITL exp_3133_a.res in P2(1)/c
CELL   1.54184   8.5852  17.0639   5.9883   90.000  106.936   90.000
ZERR   4.00   0.0002   0.0004   0.0002    0.000    0.003    0.000
LATT   1
SYMM   - X, 1/2 + Y, 1/2 - Z
SFAC   C    CL   N    O
UNIT   20 20 4 4
MERG   2
OMIT   0.00 137.00
FMAP   2
PLAN   5
ACTA   137.00
BOND   $H
CONF
LIST   6
L.S.   10
TEMP   -173.00
WGHT   0.059100    0.027400
FVAR       3.90282
CL4   2    0.668134    0.469365    0.916875    11.00000    0.01843    0.01646 =
         0.01400   -0.00348    0.00557   -0.00124
CL3   2    0.327834    0.410160    0.601847    11.00000    0.01316    0.01867 =
         0.01877   -0.00082    0.00710    0.00076
CL2   2    0.314572    0.313630    0.149874    11.00000    0.01550    0.01986 =
         0.01572   -0.00179    0.00146   -0.00312
CL6   2    0.941006    0.320905    0.325952    11.00000    0.01660    0.02802 =
         0.02285   -0.00419    0.01037    0.00194
CL5   2    0.981001    0.421410    0.781989    11.00000    0.01281    0.03327 =
         0.01973   -0.00626    0.00331   -0.00376
O1    4    0.618070    0.290709    0.077496    11.00000    0.02745    0.01773 =
         0.01484   -0.00607    0.00793   -0.00224
N1    3    0.629462    0.327900    0.267946    11.00000    0.01681    0.01201 =
         0.01277   -0.00081    0.00513   -0.00108
C3    1    0.502836    0.388800    0.532400    11.00000    0.01407    0.01256 =
         0.01498    0.00238    0.00536    0.00235
C5    1    0.792523    0.392679    0.612823    11.00000    0.01520    0.01413 =
         0.01458    0.00026    0.00284   -0.00188
C4    1    0.653895    0.412990    0.675725    11.00000    0.01536    0.01124 =
         0.01280    0.00049    0.00425    0.00147
C2    1    0.492593    0.346540    0.331412    11.00000    0.01609    0.01052 =
         0.01484    0.00207    0.00356    0.00029
C6    1    0.778672    0.349527    0.411777    11.00000    0.01590    0.01481 =
         0.01663    0.00209    0.00828    0.00076
HKLF 4
REM  exp_3133_a.res in P2(1)/c
REM R1 =  0.0316 for    1391 Fo > 4sig(Fo)  and  0.0364 for all    1548 data
REM    109 parameters refined using      0 restraints
END
WGHT      0.0591      0.0274
REM Highest difference peak  0.397,  deepest hole -0.439,  1-sigma level  0.100
Q1    1   0.5433  0.4694  0.8829  11.00000  0.05    0.40
Q2    1   0.7951  0.4688  0.9786  11.00000  0.05    0.39
Q3    1   0.4436  0.4100  0.6058  11.00000  0.05    0.38
Q4    1   0.9632  0.2427  0.3593  11.00000  0.05    0.36
Q5    1   0.4252  0.3227  0.2042  11.00000  0.05    0.34
;
_shelx_res_checksum              91720
loop_
_space_group_symop_operation_xyz
'x, y, z'
'-x, y+1/2, -z+1/2'
'-x, -y, -z'
'x, -y-1/2, z-1/2'
loop_
_atom_site_type_symbol
_atom_site_label
_atom_site_fract_x
_atom_site_fract_y
_atom_site_fract_z
_atom_site_U_iso_or_equiv
_atom_site_adp_type
_atom_site_calc_flag
_atom_site_occupancy
Cl Cl4 0.66813(6) 0.46937(3) 0.91688(9) 0.01612(17) Uani d 1
Cl Cl3 0.32783(7) 0.41016(3) 0.60185(10) 0.01635(17) Uani d 1
Cl Cl2 0.31457(7) 0.31363(3) 0.14987(10) 0.01768(17) Uani d 1
Cl Cl6 0.94101(7) 0.32091(4) 0.32595(11) 0.02151(18) Uani d 1
Cl Cl5 0.98100(7) 0.42141(4) 0.78199(10) 0.02224(18) Uani d 1
O O1 0.6181(2) 0.29071(10) 0.0775(3) 0.0196(4) Uani d 1
N N1 0.6295(2) 0.32790(11) 0.2679(3) 0.0137(4) Uani d 1
C C3 0.5028(3) 0.38880(13) 0.5324(4) 0.0136(5) Uani d 1
C C5 0.7925(3) 0.39268(13) 0.6128(4) 0.0150(5) Uani d 1
C C4 0.6539(3) 0.41299(13) 0.6757(4) 0.0131(5) Uani d 1
C C2 0.4926(3) 0.34654(13) 0.3314(4) 0.0140(5) Uani d 1
C C6 0.7787(3) 0.34953(14) 0.4118(4) 0.0150(5) Uani d 1
loop_
_atom_site_aniso_label
_atom_site_aniso_U_11
_atom_site_aniso_U_22
_atom_site_aniso_U_33
_atom_site_aniso_U_12
_atom_site_aniso_U_13
_atom_site_aniso_U_23
Cl4 0.0184(3) 0.0165(3) 0.0140(3) -0.00124(19) 0.0056(2) -0.00348(18)
Cl3 0.0132(3) 0.0187(3) 0.0188(3) 0.00076(18) 0.0071(2) -0.0008(2)
Cl2 0.0155(3) 0.0199(3) 0.0157(3) -0.00312(19) 0.0015(2) -0.00179(19)
Cl6 0.0166(3) 0.0280(3) 0.0228(3) 0.0019(2) 0.0104(2) -0.0042(2)
Cl5 0.0128(3) 0.0333(4) 0.0197(3) -0.0038(2) 0.0033(2) -0.0063(2)
O1 0.0275(9) 0.0177(8) 0.0148(9) -0.0022(7) 0.0079(7) -0.0061(6)
N1 0.0168(10) 0.0120(9) 0.0128(9) -0.0011(7) 0.0051(8) -0.0008(7)
C3 0.0141(11) 0.0126(11) 0.0150(11) 0.0024(8) 0.0054(8) 0.0024(8)
C5 0.0152(11) 0.0141(11) 0.0146(11) -0.0019(9) 0.0028(9) 0.0003(8)
C4 0.0154(11) 0.0112(11) 0.0128(11) 0.0015(8) 0.0042(9) 0.0005(8)
C2 0.0161(11) 0.0105(10) 0.0148(11) 0.0003(8) 0.0036(9) 0.0021(8)
C6 0.0159(11) 0.0148(11) 0.0166(11) 0.0008(8) 0.0083(9) 0.0021(9)
loop_
_atom_type_symbol
_atom_type_description
_atom_type_scat_dispersion_real
_atom_type_scat_dispersion_imag
_atom_type_scat_source
C C 0.0181 0.0091 'International Tables Vol C Tables 4.2.6.8 and 6.1.1.4'
Cl Cl 0.3639 0.7018 'International Tables Vol C Tables 4.2.6.8 and 6.1.1.4'
N N 0.0311 0.0180 'International Tables Vol C Tables 4.2.6.8 and 6.1.1.4'
O O 0.0492 0.0322 'International Tables Vol C Tables 4.2.6.8 and 6.1.1.4'
loop_
_geom_angle_atom_site_label_1
_geom_angle_atom_site_label_2
_geom_angle_atom_site_label_3
_geom_angle
O1 N1 C6 120.5(2)
O1 N1 C2 120.7(2)
C6 N1 C2 118.8(2)
C2 C3 C4 120.1(2)
C2 C3 Cl3 118.99(18)
C4 C3 Cl3 120.86(18)
C6 C5 C4 120.2(2)
C6 C5 Cl5 119.55(19)
C4 C5 Cl5 120.24(18)
C5 C4 C3 118.4(2)
C5 C4 Cl4 120.80(18)
C3 C4 Cl4 120.79(18)
N1 C2 C3 121.2(2)
N1 C2 Cl2 115.51(18)
C3 C2 Cl2 123.25(19)
N1 C6 C5 121.1(2)
N1 C6 Cl6 115.69(18)
C5 C6 Cl6 123.18(19)
loop_
_geom_bond_atom_site_label_1
_geom_bond_atom_site_label_2
_geom_bond_distance
_geom_bond_publ_flag
Cl4 C4 1.710(2) y
Cl3 C3 1.711(2) y
Cl2 C2 1.693(2) y
Cl6 C6 1.692(2) y
Cl5 C5 1.712(2) y
O1 N1 1.284(3) y
N1 C6 1.370(3) y
N1 C2 1.374(3) y
C3 C2 1.384(3) ?
C3 C4 1.393(3) ?
C5 C6 1.386(3) ?
C5 C4 1.393(3) ?
loop_
_geom_contact_atom_site_label_1
_geom_contact_atom_site_label_2
_geom_contact_distance
_geom_contact_site_symmetry_1
_geom_contact_site_symmetry_2
_geom_contact_publ_flag
Cl4 Cl5 3.5550(10) 1_555 3_767 y
Cl3 Cl4 3.5320(10) 1_555 3_667 y
Cl4 Cl4 3.4770(10) 1_555 3_667 y
Cl3 Cl5 3.4550(10) 1_555 1_455 y
Cl3 Cl6 3.5890(10) 1_555 1_455 y
Cl6 Cl2 3.6580(10) 1_555 1_655 y
O1 N1 2.766(2) 1_555 4_554 y
Cl4 N1 3.2810(10) 1_555 1_556 y
Cl2 Cl5 3.5720(10) 1_555 1_454 y
Cl5 Cl2 3.5720(10) 1_555 1_656 y
Cl2 Cl2 3.6990(10) 1_555 4_554 y
Cl2 Cl2 3.6990(10) 1_555 4_555 y
loop_
_geom_torsion_atom_site_label_1
_geom_torsion_atom_site_label_2
_geom_torsion_atom_site_label_3
_geom_torsion_atom_site_label_4
_geom_torsion
C6 C5 C4 C3 0.1(3)
Cl5 C5 C4 C3 179.63(17)
C6 C5 C4 Cl4 -177.46(18)
Cl5 C5 C4 Cl4 2.1(3)
C2 C3 C4 C5 -0.8(3)
Cl3 C3 C4 C5 178.82(17)
C2 C3 C4 Cl4 176.73(17)
Cl3 C3 C4 Cl4 -3.6(3)
O1 N1 C2 C3 -177.9(2)
C6 N1 C2 C3 2.3(3)
O1 N1 C2 Cl2 2.7(3)
C6 N1 C2 Cl2 -177.13(17)
C4 C3 C2 N1 -0.4(3)
Cl3 C3 C2 N1 179.99(17)
C4 C3 C2 Cl2 178.99(17)
Cl3 C3 C2 Cl2 -0.7(3)
O1 N1 C6 C5 177.2(2)
C2 N1 C6 C5 -3.0(3)
O1 N1 C6 Cl6 -2.3(3)
C2 N1 C6 Cl6 177.52(17)
C4 C5 C6 N1 1.8(4)
Cl5 C5 C6 N1 -177.69(17)
C4 C5 C6 Cl6 -178.72(17)
Cl5 C5 C6 Cl6 1.7(3)
