#------------------------------------------------------------------------------
#$Date: 2019-12-26 22:04:29 +0200 (Thu, 26 Dec 2019) $
#$Revision: 246140 $
#$URL: file:///home/coder/svn-repositories/cod/cif/2/31/18/2311854.cif $
#------------------------------------------------------------------------------
#
# This file is available in the Crystallography Open Database (COD),
# http://www.crystallography.net/. The original data for this entry
# were provided by IUCr Journals, http://journals.iucr.org/.
#
# The file may be used within the scientific community so long as
# proper attribution is given to the journal article from which the
# data were obtained.
#
data_2311854
loop_
_publ_author_name
'Schirmer, Marie Luis'
'Spannenberg, Anke'
'Werner, Thomas'
_publ_section_title
;
 Highly functionalized alkenes produced from base-free organocatalytic
 Wittig reactions: (E)-3-benzylidenepyrrolidine-2,5-dione,
 (E)-3-benzylidene-1-methylpyrrolidine-2,5-dione and
 (E)-3-benzylidene-1-tert-butylpyrrolidine-2,5-dione.
;
_journal_issue                   'Pt 6'
_journal_name_full
'Acta crystallographica. Section C, Structural chemistry'
_journal_page_first              504
_journal_page_last               508
_journal_paper_doi               10.1107/S2053229616008159
_journal_volume                  72
_journal_year                    2016
_chemical_formula_iupac          'C11 H9 N O2'
_chemical_formula_moiety         'C11 H9 N O2'
_chemical_formula_sum            'C11 H9 N O2'
_chemical_formula_weight         187.19
_chemical_name_systematic
;
(<i>E</i>)-3-Benzylidenepyrrolidine-2,5-dione
;
_space_group_crystal_system      triclinic
_space_group_IT_number           2
_space_group_name_Hall           '-P 1'
_space_group_name_H-M_alt        'P -1'
_atom_sites_solution_hydrogens   mixed
_atom_sites_solution_primary     direct
_atom_sites_solution_secondary   difmap
_audit_creation_method           SHELXL-2014
_cell_angle_alpha                91.6608(10)
_cell_angle_beta                 97.6593(10)
_cell_angle_gamma                101.0806(10)
_cell_formula_units_Z            2
_cell_length_a                   5.0425(2)
_cell_length_b                   9.0386(3)
_cell_length_c                   10.1045(4)
_cell_measurement_reflns_used    4420
_cell_measurement_temperature    150(2)
_cell_measurement_theta_max      28.80
_cell_measurement_theta_min      2.30
_cell_volume                     447.21(3)
_computing_cell_refinement
;
SAINT (Bruker, 2013)
;
_computing_data_collection
;
APEX2 (Bruker, 2014)
;
_computing_data_reduction        SAINT
_computing_molecular_graphics
;
XP in SHELXTL (Sheldrick, 2008) and Mercury (Macrae <i>et al.</i>,
2006)
;
_computing_publication_material
;
publCIF (Westrip, 2010)
;
_computing_structure_refinement
;
SHELXL2014 (Sheldrick, 2015)
;
_computing_structure_solution
;
SHELXS97 (Sheldrick, 2008)
;
_diffrn_ambient_temperature      150(2)
_diffrn_detector_area_resol_mean 8.3333
_diffrn_measured_fraction_theta_full 1.000
_diffrn_measured_fraction_theta_max 1.000
_diffrn_measurement_device_type  'Bruker APEXII CCD'
_diffrn_measurement_method       '\f and \w scans'
_diffrn_radiation_type           MoK\a
_diffrn_radiation_wavelength     0.71073
_diffrn_reflns_av_R_equivalents  0.0187
_diffrn_reflns_limit_h_max       6
_diffrn_reflns_limit_h_min       -6
_diffrn_reflns_limit_k_max       12
_diffrn_reflns_limit_k_min       -12
_diffrn_reflns_limit_l_max       13
_diffrn_reflns_limit_l_min       -13
_diffrn_reflns_number            8305
_diffrn_reflns_theta_full        25.242
_diffrn_reflns_theta_max         28.858
_diffrn_reflns_theta_min         2.037
_exptl_absorpt_coefficient_mu    0.097
_exptl_absorpt_correction_T_max  0.99
_exptl_absorpt_correction_T_min  0.92
_exptl_absorpt_correction_type   multi-scan
_exptl_absorpt_process_details
;
(SADABS; Bruker, 2014)
;
_exptl_crystal_colour            colourless
_exptl_crystal_density_diffrn    1.390
_exptl_crystal_description       prism
_exptl_crystal_F_000             196
_exptl_crystal_size_max          0.432
_exptl_crystal_size_mid          0.204
_exptl_crystal_size_min          0.081
_refine_diff_density_max         0.333
_refine_diff_density_min         -0.262
_refine_ls_extinction_method     none
_refine_ls_goodness_of_fit_ref   1.056
_refine_ls_hydrogen_treatment    mixed
_refine_ls_matrix_type           full
_refine_ls_number_parameters     131
_refine_ls_number_reflns         2338
_refine_ls_number_restraints     0
_refine_ls_restrained_S_all      1.056
_refine_ls_R_factor_all          0.0459
_refine_ls_R_factor_gt           0.0391
_refine_ls_shift/su_max          0.001
_refine_ls_shift/su_mean         0.000
_refine_ls_structure_factor_coef Fsqd
_refine_ls_weighting_details
'w=1/[\s^2^(Fo^2^)+(0.0626P)^2^+0.1005P] where P=(Fo^2^+2Fc^2^)/3'
_refine_ls_weighting_scheme      calc
_refine_ls_wR_factor_gt          0.1042
_refine_ls_wR_factor_ref         0.1097
_reflns_number_gt                2008
_reflns_number_total             2338
_reflns_threshold_expression     'I > 2\s(I)'
_cod_data_source_file            ov3077sup1.cif
_cod_data_source_block           I
_cod_database_code               2311854
_shelx_space_group_comment
;
The symmetry employed for this shelxl refinement is uniquely defined
by the following loop, which should always be used as a source of
symmetry information in preference to the above space-group names.
They are only intended as comments.
;
_shelx_hkl_file
;
   1   0   0    2.06    0.07
   1   0   0    2.02    0.07
   2   0   0   54.09    0.96
   2   0   0   54.93    0.96
  -3   0   0    1.60    0.08
   3   0   0    1.44    0.10
   3   0   0    1.31    0.10
  -4   0   0    0.05    0.05
   4   0   0    0.07    0.06
   4   0   0    0.16    0.07
  -5   0   0    2.46    0.14
   5   0   0    2.31    0.16
   5   0   0    2.31    0.16
  -6   0   0    0.76    0.10
   6   0   0    0.69    0.12
   6  -1   0   -0.14    0.07
   6  -1   0   -0.06    0.08
   5  -1   0    0.21    0.08
   5  -1   0    0.15    0.07
  -5   1   0    0.16    0.05
  -5   1   0    0.21    0.06
   4  -1   0   12.55    0.32
   4  -1   0   12.46    0.33
  -4   1   0   12.78    0.30
  -4   1   0   12.71    0.30
   3  -1   0   65.07    1.18
   3  -1   0   67.58    1.18
  -3   1   0   65.34    1.16
   2  -1   0   59.77    1.04
   2  -1   0   59.26    1.04
  -2   1   0   59.56    1.03
   1  -1   0  112.41    1.86
   1  -1   0  110.10    1.85
   1  -1   0  114.28    1.88
   1  -1   0  113.27    1.85
  -1   1   0  109.93    1.86
  -1   1   0  110.69    1.85
  -1   1   0  108.14    1.90
  -1   1   0  108.47    1.84
   0  -1   0   50.34    0.84
   0  -1   0   48.86    0.84
   0   1   0   50.64    0.84
   0   1   0   50.71    0.84
  -1  -1   0  326.71    5.38
  -1  -1   0  325.78    5.38
  -1  -1   0  317.85    5.38
  -1  -1   0  307.23    5.42
   1   1   0  316.19    5.38
   1   1   0  331.62    5.44
   1   1   0  335.52    5.43
   1   1   0  327.25    5.42
  -2  -1   0    0.19    0.02
  -2  -1   0    0.13    0.03
   2   1   0    0.16    0.04
   2   1   0    0.15    0.02
   2   1   0    0.12    0.04
  -3  -1   0    1.60    0.09
   3   1   0    1.59    0.11
   3   1   0    1.40    0.10
  -4  -1   0    0.30    0.06
   4   1   0    0.30    0.07
   4   1   0    0.30    0.08
  -5  -1   0    0.34    0.07
   5   1   0    0.26    0.08
   5   1   0    0.26    0.08
  -6  -1   0    0.14    0.07
   6   1   0    0.04    0.10
   6  -2   0    8.41    0.30
   6  -2   0    8.53    0.32
   5  -2   0   -0.03    0.07
   5  -2   0    0.02    0.06
  -5   2   0    0.07    0.05
   4  -2   0    0.65    0.09
   4  -2   0    0.44    0.07
  -4   2   0    0.59    0.06
  -4   2   0    0.62    0.07
   3  -2   0    0.89    0.08
   3  -2   0    0.95    0.08
  -3   2   0    0.89    0.07
   2  -2   0   96.80    1.66
   2  -2   0   96.40    1.67
   2  -2   0  101.11    1.62
  -2   2   0   94.56    1.66
  -2   2   0   96.81    1.62
   1  -2   0    0.01    0.03
   1  -2   0   -0.03    0.04
   1  -2   0    0.05    0.02
  -1   2   0    0.00    0.02
  -1   2   0    0.01    0.02
  -1   2   0    0.06    0.03
  -1   2   0    0.04    0.02
   0  -2   0   75.63    1.30
   0  -2   0   77.08    1.30
   0  -2   0   76.01    1.29
   0  -2   0   80.04    1.30
   0   2   0   76.80    1.30
   0   2   0   76.45    1.31
   0   2   0   78.41    1.30
  -1  -2   0    0.30    0.03
  -1  -2   0    0.21    0.03
  -1  -2   0    0.33    0.04
  -1  -2   0    0.28    0.03
   1   2   0    0.34    0.04
   1   2   0    0.24    0.03
   1   2   0    0.33    0.05
  -2  -2   0    5.37    0.12
  -2  -2   0    5.28    0.12
  -2  -2   0    5.13    0.12
  -2  -2   0    5.17    0.15
   2   2   0    5.34    0.16
   2   2   0    5.41    0.15
   2   2   0    5.15    0.12
   2   2   0    5.24    0.15
  -3  -2   0    8.21    0.22
  -3  -2   0    8.28    0.17
   3   2   0    8.09    0.23
   3   2   0    8.22    0.24
  -4  -2   0    0.09    0.05
   4   2   0    0.06    0.07
   4   2   0    0.34    0.07
  -5  -2   0    0.13    0.06
   5   2   0    0.06    0.08
   5   2   0    0.13    0.09
  -6  -2   0    1.59    0.15
   6   2   0    1.16    0.16
   6  -3   0   -0.02    0.07
   6  -3   0   -0.11    0.08
   5  -3   0   11.95    0.34
   5  -3   0   11.71    0.35
  -5   3   0   12.02    0.32
   4  -3   0    3.36    0.17
   4  -3   0    3.04    0.15
  -4   3   0    3.09    0.14
   3  -3   0    4.89    0.16
   3  -3   0    5.04    0.18
  -3   3   0    5.01    0.11
  -3   3   0    4.85    0.15
   2  -3   0    1.57    0.10
   2  -3   0    1.47    0.06
   2  -3   0    1.41    0.08
  -2   3   0    1.41    0.05
  -2   3   0    1.53    0.05
  -2   3   0    1.39    0.08
  -2   3   0    1.52    0.06
   1  -3   0    0.05    0.03
   1  -3   0    0.06    0.03
  -1   3   0    0.04    0.03
  -1   3   0    0.11    0.03
  -1   3   0    0.17    0.03
  -1   3   0    0.08    0.03
   0  -3   0    7.87    0.18
   0  -3   0    7.67    0.16
   0   3   0    8.09    0.17
   0   3   0    7.83    0.19
   0   3   0    8.11    0.17
  -1  -3   0    0.66    0.05
  -1  -3   0    0.69    0.05
  -1  -3   0    0.71    0.05
   1   3   0    0.69    0.05
   1   3   0    0.72    0.06
   1   3   0    0.68    0.05
  -2  -3   0    1.24    0.06
  -2  -3   0    0.97    0.06
  -2  -3   0    0.91    0.06
  -2  -3   0    0.82    0.07
   2   3   0    0.99    0.08
   2   3   0    0.95    0.08
   2   3   0    1.00    0.06
   2   3   0    1.06    0.06
  -3  -3   0    6.62    0.14
  -3  -3   0    6.36    0.15
  -3  -3   0    6.36    0.20
   3   3   0    6.44    0.20
   3   3   0    6.51    0.20
  -4  -3   0    0.92    0.10
   4   3   0    0.92    0.10
  -5  -3   0    2.03    0.15
  -6  -3   0    1.71    0.16
   6  -4   0    0.13    0.10
   6  -4   0    0.28    0.08
   5  -4   0    4.86    0.21
   5  -4   0    4.59    0.22
  -5   4   0    4.73    0.19
   4  -4   0   19.31    0.44
   4  -4   0   19.24    0.47
  -4   4   0   20.31    0.44
   3  -4   0    2.10    0.12
   3  -4   0    2.04    0.14
  -3   4   0    2.20    0.07
  -3   4   0    2.11    0.11
  -3   4   0    2.15    0.08
   2  -4   0    2.17    0.06
   2  -4   0    2.22    0.08
   2  -4   0    2.13    0.10
   2  -4   0    2.13    0.08
  -2   4   0    2.11    0.08
  -2   4   0    2.07    0.10
  -2   4   0    2.02    0.08
  -2   4   0    2.05    0.08
   1  -4   0   15.97    0.28
   1  -4   0   15.62    0.32
   1  -4   0   16.05    0.32
  -1   4   0   15.53    0.31
  -1   4   0   15.52    0.31
  -1   4   0   15.48    0.33
   0  -4   0    0.06    0.03
   0  -4   0    0.04    0.02
   0  -4   0    0.03    0.03
   0   4   0   -0.04    0.04
   0   4   0    0.03    0.03
   0   4   0   -0.01    0.02
  -1  -4   0    0.59    0.05
  -1  -4   0    0.63    0.05
  -1  -4   0    0.65    0.06
   1   4   0    0.66    0.07
   1   4   0    0.73    0.06
   1   4   0    0.56    0.05
  -2  -4   0    8.84    0.21
  -2  -4   0    8.80    0.23
  -2  -4   0    9.08    0.21
   2   4   0    9.06    0.21
   2   4   0    9.21    0.24
   2   4   0    9.04    0.24
  -3  -4   0    2.94    0.10
  -3  -4   0    3.25    0.15
  -3  -4   0    3.00    0.11
   3   4   0    3.03    0.16
   3   4   0    2.99    0.15
  -4  -4   0    3.10    0.13
  -4  -4   0    3.22    0.16
   4   4   0    3.18    0.19
  -5  -4   0    2.58    0.17
   6  -5   0    2.73    0.22
   6  -5   0    2.75    0.19
   5  -5   0    0.17    0.09
   5  -5   0    0.21    0.07
  -5   5   0    0.16    0.07
   4  -5   0    1.46    0.14
   4  -5   0    1.49    0.12
  -4   5   0    1.60    0.12
  -4   5   0    1.53    0.07
   3  -5   0    3.59    0.15
  -3   5   0    3.68    0.12
  -3   5   0    3.72    0.16
  -3   5   0    3.85    0.11
   2  -5   0    4.07    0.15
   2  -5   0    3.98    0.13
   2  -5   0    4.12    0.13
  -2   5   0    3.93    0.15
  -2   5   0    3.90    0.12
  -2   5   0    4.03    0.12
   1  -5   0   16.05    0.34
   1  -5   0   16.76    0.30
   1  -5   0   16.43    0.34
  -1   5   0   16.12    0.34
  -1   5   0   16.81    0.36
  -1   5   0   16.23    0.34
   0  -5   0   39.49    0.73
   0  -5   0   38.75    0.73
   0  -5   0   39.74    0.71
   0   5   0   39.32    0.72
   0   5   0   40.00    0.73
   0   5   0   40.49    0.75
  -1  -5   0   27.42    0.52
  -1  -5   0   27.18    0.52
  -1  -5   0   26.66    0.53
   1   5   0   26.89    0.52
   1   5   0   27.70    0.52
   1   5   0   26.83    0.55
  -2  -5   0    1.01    0.08
  -2  -5   0    1.11    0.09
  -2  -5   0    1.03    0.08
   2   5   0    1.20    0.11
   2   5   0    0.76    0.09
  -3  -5   0    8.70    0.22
  -3  -5   0    8.61    0.21
  -3  -5   0    8.44    0.26
   3   5   0    8.71    0.26
   3   5   0    8.79    0.26
  -4  -5   0    0.01    0.06
  -4  -5   0    0.04    0.04
  -5  -5   0    0.37    0.10
   6  -6   0    3.45    0.21
   5  -6   0    1.87    0.15
  -5   6   0    1.62    0.14
   4  -6   0    0.48    0.08
  -4   6   0    0.55    0.05
  -4   6   0    0.56    0.09
  -4   6   0    0.50    0.05
   3  -6   0   58.21    1.11
  -3   6   0   60.85    1.07
  -3   6   0   59.13    1.06
  -3   6   0   60.91    1.12
   2  -6   0   33.31    0.64
   2  -6   0   33.88    0.67
   2  -6   0   34.14    0.64
  -2   6   0   33.10    0.63
  -2   6   0   33.46    0.67
  -2   6   0   32.49    0.63
   1  -6   0    7.24    0.20
   1  -6   0    7.42    0.17
   1  -6   0    7.53    0.20
  -1   6   0    7.67    0.23
  -1   6   0    7.19    0.20
  -1   6   0    7.37    0.20
   0  -6   0   17.79    0.36
   0  -6   0   17.78    0.38
   0  -6   0   18.13    0.39
   0   6   0   18.85    0.39
   0   6   0   17.67    0.38
   0   6   0   18.45    0.41
  -1  -6   0    1.22    0.09
  -1  -6   0    1.20    0.09
  -1  -6   0    1.23    0.09
   1   6   0    1.23    0.09
   1   6   0    1.50    0.14
   1   6   0    1.21    0.08
  -2  -6   0    0.05    0.04
  -2  -6   0    0.06    0.05
  -2  -6   0    0.03    0.04
   2   6   0    0.08    0.07
   2   6   0    0.22    0.08
  -3  -6   0    2.87    0.16
  -3  -6   0    3.11    0.12
  -3  -6   0    3.10    0.13
   3   6   0    3.00    0.21
   3   6   0    2.80    0.16
  -4  -6   0    6.49    0.19
  -4  -6   0    6.95    0.26
   4   6   0    6.59    0.31
  -5  -6   0    0.58    0.12
   6  -7   0    1.96    0.18
   5  -7   0    0.05    0.07
  -5   7   0   -0.04    0.07
   4  -7   0    7.81    0.27
  -4   7   0    7.85    0.21
  -4   7   0    7.74    0.20
  -4   7   0    7.98    0.27
   3  -7   0    3.66    0.18
  -3   7   0    3.69    0.14
  -3   7   0    4.13    0.19
  -3   7   0    3.58    0.13
   2  -7   0    5.77    0.19
   2  -7   0    5.53    0.18
  -2   7   0    5.82    0.22
  -2   7   0    5.86    0.18
  -2   7   0    5.55    0.18
   1  -7   0   13.59    0.32
   1  -7   0   13.04    0.31
  -1   7   0   12.21    0.30
  -1   7   0   12.33    0.31
  -1   7   0   13.52    0.35
   0  -7   0    4.52    0.15
   0  -7   0    4.35    0.16
   0  -7   0    4.19    0.16
   0   7   0    4.31    0.16
   0   7   0    4.57    0.16
   0   7   0    4.45    0.21
  -1  -7   0   12.97    0.31
  -1  -7   0   12.50    0.31
  -1  -7   0   12.39    0.31
   1   7   0   12.09    0.34
   1   7   0   12.97    0.31
   1   7   0   12.34    0.31
  -2  -7   0    0.09    0.05
  -2  -7   0   -0.03    0.05
  -2  -7   0    0.08    0.05
   2   7   0    0.10    0.07
   2   7   0   -0.02    0.07
  -3  -7   0    0.09    0.05
  -3  -7   0    0.18    0.05
  -3  -7   0    0.15    0.07
   3   7   0    0.22    0.08
  -4  -7   0    3.03    0.20
  -4  -7   0    3.01    0.14
   5  -8   0    2.95    0.19
  -5   8   0    2.58    0.19
   4  -8   0    4.01    0.20
  -4   8   0    4.01    0.14
  -4   8   0    3.71    0.20
  -4   8   0    3.98    0.15
   3  -8   0    5.56    0.22
  -3   8   0    5.64    0.18
  -3   8   0    5.28    0.23
  -3   8   0    5.55    0.19
   2  -8   0   28.95    0.61
  -2   8   0   30.85    0.60
  -2   8   0   28.15    0.60
  -2   8   0   29.73    0.65
   1  -8   0    2.33    0.13
   1  -8   0    2.08    0.13
  -1   8   0    2.01    0.12
  -1   8   0    2.34    0.12
  -1   8   0    2.26    0.17
   0  -8   0    3.88    0.16
   0  -8   0    3.81    0.16
   0   8   0    3.78    0.16
   0   8   0    3.72    0.20
   0   8   0    4.08    0.16
  -1  -8   0    6.57    0.22
  -1  -8   0    6.92    0.22
  -1  -8   0    6.59    0.21
   1   8   0    6.80    0.26
   1   8   0    6.61    0.22
   1   8   0    6.52    0.22
  -2  -8   0    2.56    0.14
  -2  -8   0    2.67    0.15
  -2  -8   0    3.10    0.15
   2   8   0    2.68    0.18
  -3  -8   0    0.33    0.07
  -3  -8   0    0.21    0.08
   3   8   0    0.46    0.09
  -4  -8   0    0.65    0.12
  -4  -8   0    0.81    0.09
   5  -9   0    0.66    0.11
  -5   9   0    0.41    0.12
   4  -9   0    1.97    0.16
  -4   9   0    1.96    0.12
  -4   9   0    1.69    0.16
   3  -9   0    0.08    0.07
  -3   9   0    0.12    0.09
  -3   9   0    0.08    0.05
  -3   9   0    0.15    0.05
  -2   9   0    6.56    0.21
  -2   9   0    6.05    0.21
  -2   9   0    6.18    0.26
   1  -9   0    8.26    0.26
   1  -9   0    7.88    0.26
  -1   9   0    7.95    0.29
  -1   9   0    8.16    0.25
  -1   9   0    8.09    0.25
   0  -9   0    0.77    0.09
   0  -9   0    0.74    0.09
   0   9   0    0.84    0.12
   0   9   0    0.80    0.09
   0   9   0    0.87    0.10
  -1  -9   0    0.32    0.07
   1   9   0    0.29    0.09
  -2  -9   0    2.42    0.16
  -2  -9   0    2.31    0.15
   2   9   0    2.86    0.19
  -3  -9   0    7.09    0.25
  -3  -9   0    6.90    0.28
   3   9   0    6.70    0.28
   4 -10   0    0.31    0.09
  -4  10   0    0.14    0.06
  -4  10   0   -0.01    0.10
   3 -10   0    0.96    0.12
  -3  10   0    1.00    0.14
  -3  10   0    1.05    0.11
  -2  10   0   -0.02    0.05
  -2  10   0   -0.03    0.09
   1 -10   0    3.67    0.18
   1 -10   0    3.59    0.19
  -1  10   0    3.61    0.18
  -1  10   0    3.73    0.23
   0 -10   0   11.44    0.33
   0  10   0   11.23    0.36
   0  10   0   10.30    0.38
   0  10   0   11.08    0.32
  -1 -10   0    0.32    0.08
   1  10   0    0.36    0.10
  -2 -10   0   -0.04    0.05
   2  10   0    0.13    0.09
   4 -11   0    1.88    0.18
  -4  11   0    1.92    0.20
  -4  11   0    2.08    0.14
   3 -11   0    2.06    0.18
  -3  11   0    2.19    0.21
  -3  11   0    2.15    0.15
  -2  11   0    4.82    0.21
  -2  11   0    4.89    0.27
   1 -11   0    2.67    0.17
  -1  11   0    2.39    0.22
  -1  11   0    2.17    0.16
   0 -11   0    0.08    0.07
   0  11   0    0.18    0.07
   0  11   0    0.20    0.11
  -1 -11   0    4.04    0.21
   1  11   0    4.04    0.25
  -2  12   0    1.41    0.19
  -2  12   0    1.33    0.13
   1 -12   0    0.33    0.09
  -1  12   0    0.32    0.09
  -1  12   0    0.34    0.13
   0 -12   0    0.64    0.11
   0  12   0    0.69    0.14
   0  12   0    0.37    0.13
   0  12  -1    0.16    0.12
   0  12  -1    0.08    0.08
   0 -12   1    0.05    0.07
  -1  12  -1    0.93    0.12
  -1  12  -1    0.63    0.14
   1 -12   1    0.97    0.13
  -2  12  -1    0.15    0.13
  -2  12  -1    0.48    0.10
   2 -12   1    0.14    0.12
   1  11  -1    0.40    0.12
  -1 -11   1    0.33    0.09
   0  11  -1   -0.02    0.10
   0  11  -1   -0.07    0.06
   0 -11   1    0.01    0.06
  -1  11  -1   -0.01    0.06
  -1  11  -1   -0.08    0.10
   1 -11   1    0.05    0.07
  -2  11  -1    0.69    0.14
  -2  11  -1    0.94    0.11
   2 -11   1    0.58    0.13
  -3  11  -1    1.30    0.12
  -3  11  -1    1.12    0.16
   3 -11   1    1.17    0.14
  -4  11  -1    0.09    0.06
  -4  11  -1   -0.20    0.11
   4 -11   1    0.16    0.09
   2  10  -1    1.04    0.14
  -2 -10   1    0.86    0.11
  -2 -10   1    0.82    0.12
   1  10  -1    1.98    0.19
  -1 -10   1    2.14    0.15
   0  10  -1    0.08    0.06
   0  10  -1   -0.03    0.08
   0  10  -1    0.06    0.09
   0 -10   1    0.07    0.06
  -1  10  -1    0.09    0.10
  -1  10  -1    0.10    0.06
   1 -10   1    0.04    0.06
   1 -10   1    0.24    0.07
  -2  10  -1    4.54    0.19
  -2  10  -1    4.20    0.24
  -3  10  -1    1.78    0.17
  -3  10  -1    1.85    0.13
   3 -10   1    2.04    0.18
  -4  10  -1    9.33    0.35
  -4  10  -1    8.79    0.27
   4 -10   1    7.95    0.32
   3   9  -1    1.10    0.14
  -3  -9   1    0.82    0.10
  -3  -9   1    0.93    0.12
   2   9  -1    3.09    0.19
   2   9  -1    2.48    0.20
  -2  -9   1    3.02    0.17
  -2  -9   1    3.04    0.16
   1   9  -1    0.10    0.08
  -1  -9   1   -0.06    0.05
  -1  -9   1    0.00    0.05
   0   9  -1    1.83    0.16
   0   9  -1    1.74    0.12
   0   9  -1    1.56    0.12
   0  -9   1    1.57    0.12
   0  -9   1    1.53    0.13
  -1   9  -1   15.76    0.43
  -1   9  -1   15.52    0.39
  -1   9  -1   15.63    0.39
   1  -9   1   15.79    0.39
   1  -9   1   15.94    0.40
  -2   9  -1    1.34    0.11
  -2   9  -1    1.03    0.10
  -2   9  -1    1.37    0.14
  -3   9  -1    3.08    0.15
  -3   9  -1    3.22    0.21
  -3   9  -1    3.01    0.21
   3  -9   1    3.15    0.19
  -4   9  -1    0.52    0.11
  -4   9  -1    0.58    0.07
   4  -9   1    0.50    0.10
  -5   9  -1    8.63    0.34
   5  -9   1    9.00    0.34
   4   8  -1    1.90    0.18
  -4  -8   1    1.71    0.12
  -4  -8   1    1.53    0.16
   3   8  -1    2.03    0.17
  -3  -8   1    1.73    0.15
  -3  -8   1    1.71    0.12
   2   8  -1   -0.10    0.08
   2   8  -1    0.07    0.07
  -2  -8   1    0.05    0.05
  -2  -8   1    0.00    0.06
  -2  -8   1   -0.01    0.05
   1   8  -1    1.53    0.15
   1   8  -1    1.64    0.11
   1   8  -1    1.77    0.12
  -1  -8   1    1.64    0.12
  -1  -8   1    1.64    0.11
  -1  -8   1    1.48    0.11
   0   8  -1    3.57    0.19
   0   8  -1    3.64    0.15
   0   8  -1    3.70    0.16
   0  -8   1    3.58    0.15
   0  -8   1    3.66    0.16
   0  -8   1    3.60    0.16
  -1   8  -1    6.47    0.25
  -1   8  -1    6.69    0.21
  -1   8  -1    6.35    0.21
   1  -8   1    6.67    0.22
   1  -8   1    6.78    0.22
  -2   8  -1   61.51    1.16
  -2   8  -1   64.20    1.20
  -2   8  -1   66.20    1.16
   2  -8   1   61.78    1.22
   2  -8   1   61.87    1.20
  -3   8  -1    0.22    0.05
  -3   8  -1    0.02    0.08
  -3   8  -1    0.13    0.04
   3  -8   1    0.09    0.07
  -4   8  -1    3.34    0.20
  -4   8  -1    3.46    0.14
  -4   8  -1    3.24    0.13
   4  -8   1    3.45    0.19
  -5   8  -1   -0.04    0.08
   5  -8   1   -0.03    0.07
   4   7  -1    0.29    0.09
  -4  -7   1    0.14    0.08
  -4  -7   1    0.18    0.05
   3   7  -1    0.25    0.08
   3   7  -1    0.27    0.08
  -3  -7   1    0.36    0.06
  -3  -7   1    0.21    0.05
  -3  -7   1    0.24    0.08
   2   7  -1    4.28    0.21
   2   7  -1    4.39    0.20
  -2  -7   1    4.63    0.18
  -2  -7   1    4.47    0.16
  -2  -7   1    4.25    0.16
   1   7  -1    6.58    0.25
   1   7  -1    6.82    0.21
   1   7  -1    6.22    0.20
  -1  -7   1    6.32    0.20
  -1  -7   1    6.44    0.21
  -1  -7   1    6.56    0.20
   0   7  -1   10.07    0.26
   0   7  -1   10.11    0.30
   0   7  -1   10.08    0.26
   0  -7   1   10.01    0.25
   0  -7   1   10.08    0.27
   0  -7   1   10.12    0.27
  -1   7  -1    2.85    0.13
  -1   7  -1    2.67    0.12
  -1   7  -1    2.54    0.17
   1  -7   1    2.74    0.13
   1  -7   1    2.83    0.14
  -2   7  -1    0.16    0.05
  -2   7  -1    0.26    0.09
  -2   7  -1    0.17    0.05
   2  -7   1    0.24    0.06
   2  -7   1    0.12    0.07
  -3   7  -1    0.42    0.09
  -3   7  -1    0.46    0.06
  -3   7  -1    0.45    0.06
   3  -7   1    0.50    0.08
  -4   7  -1    0.31    0.05
  -4   7  -1    0.27    0.04
  -4   7  -1    0.20    0.08
   4  -7   1    0.26    0.07
  -5   7  -1    2.83    0.18
   5  -7   1    3.31    0.19
   6  -7   1   -0.01    0.08
  -5  -6   1    1.00    0.14
   4   6  -1    2.45    0.16
  -4  -6   1    2.41    0.12
  -4  -6   1    2.48    0.17
   3   6  -1    0.28    0.08
   3   6  -1    0.15    0.07
  -3  -6   1    0.14    0.04
  -3  -6   1    0.10    0.06
  -3  -6   1    0.11    0.05
   2   6  -1    0.05    0.07
   2   6  -1    0.00    0.08
  -2  -6   1    0.09    0.05
  -2  -6   1   -0.04    0.04
  -2  -6   1    0.00    0.04
   1   6  -1    0.32    0.05
   1   6  -1    0.32    0.05
   1   6  -1    0.21    0.08
  -1  -6   1    0.28    0.05
  -1  -6   1    0.23    0.05
  -1  -6   1    0.26    0.06
   0   6  -1    0.88    0.08
   0   6  -1    0.83    0.07
   0   6  -1    0.77    0.10
   0  -6   1    0.76    0.07
   0  -6   1    0.95    0.08
   0  -6   1    0.88    0.08
  -1   6  -1    7.76    0.20
  -1   6  -1    7.49    0.23
  -1   6  -1    7.77    0.20
   1  -6   1    8.04    0.18
   1  -6   1    7.35    0.21
   1  -6   1    7.65    0.21
  -2   6  -1    5.25    0.16
  -2   6  -1    5.13    0.16
  -2   6  -1    5.23    0.20
   2  -6   1    5.59    0.17
   2  -6   1    5.42    0.17
   2  -6   1    5.29    0.19
  -3   6  -1   13.30    0.34
  -3   6  -1   12.90    0.28
  -3   6  -1   13.39    0.29
   3  -6   1   12.81    0.34
  -4   6  -1    2.07    0.14
  -4   6  -1    2.17    0.09
   4  -6   1    1.80    0.14
  -5   6  -1    0.33    0.08
   5  -6   1    0.44    0.09
   6  -6   1    0.04    0.08
  -5  -5   1    0.37    0.10
   4   5  -1    0.00    0.06
  -4  -5   1   -0.03    0.03
  -4  -5   1    0.01    0.06
   3   5  -1    0.34    0.07
   3   5  -1    0.39    0.08
  -3  -5   1    0.37    0.05
  -3  -5   1    0.36    0.05
  -3  -5   1    0.36    0.07
   2   5  -1    2.99    0.15
   2   5  -1    2.83    0.16
  -2  -5   1    2.85    0.11
  -2  -5   1    2.96    0.13
  -2  -5   1    2.95    0.12
   1   5  -1    0.44    0.05
   1   5  -1    0.43    0.07
   1   5  -1    0.45    0.05
  -1  -5   1    0.41    0.05
  -1  -5   1    0.42    0.05
  -1  -5   1    0.38    0.05
   0   5  -1    0.54    0.05
   0   5  -1    0.47    0.07
   0   5  -1    0.57    0.06
   0  -5   1    0.43    0.05
   0  -5   1    0.47    0.05
   0  -5   1    0.39    0.05
  -1   5  -1   30.27    0.58
  -1   5  -1   30.74    0.60
  -1   5  -1   30.83    0.58
   1  -5   1   30.44    0.58
   1  -5   1   32.09    0.55
   1  -5   1   31.59    0.59
  -2   5  -1    0.74    0.06
  -2   5  -1    0.82    0.06
  -2   5  -1    0.90    0.08
   2  -5   1    0.86    0.08
   2  -5   1    0.91    0.05
   2  -5   1    0.86    0.07
   2  -5   1    0.91    0.07
  -3   5  -1   24.56    0.52
  -3   5  -1   24.60    0.47
  -3   5  -1   25.16    0.47
   3  -5   1   25.07    0.53
  -4   5  -1    7.17    0.17
  -4   5  -1    7.55    0.23
   4  -5   1    7.22    0.24
  -5   5  -1    2.00    0.16
   5  -5   1    1.83    0.15
   6  -5   1    1.44    0.15
  -5  -4   1    0.40    0.09
   4   4  -1    6.50    0.24
  -4  -4   1    6.46    0.16
  -4  -4   1    6.58    0.23
   3   4  -1    0.00    0.07
   3   4  -1    0.07    0.06
  -3  -4   1    0.00    0.03
  -3  -4   1    0.01    0.03
  -3  -4   1    0.00    0.05
   2   4  -1    0.48    0.05
   2   4  -1    0.53    0.08
   2   4  -1    0.40    0.07
  -2  -4   1    0.42    0.05
  -2  -4   1    0.52    0.06
  -2  -4   1    0.43    0.05
   1   4  -1    9.57    0.24
   1   4  -1    9.32    0.21
   1   4  -1    9.10    0.21
  -1  -4   1    9.44    0.21
  -1  -4   1    9.08    0.21
  -1  -4   1    9.25    0.22
   0   4  -1   16.45    0.33
   0   4  -1   16.50    0.32
   0   4  -1   16.11    0.34
   0  -4   1   16.03    0.32
   0  -4   1   16.24    0.31
   0  -4   1   16.13    0.33
  -1   4  -1    0.72    0.05
  -1   4  -1    0.79    0.05
  -1   4  -1    0.61    0.06
   1  -4   1    0.66    0.05
   1  -4   1    0.72    0.05
   1  -4   1    0.65    0.05
  -2   4  -1   14.74    0.29
  -2   4  -1   14.45    0.29
  -2   4  -1   14.49    0.31
  -2   4  -1   13.68    0.29
   2  -4   1   14.40    0.29
   2  -4   1   14.79    0.29
   2  -4   1   14.68    0.32
   2  -4   1   14.05    0.27
  -3   4  -1    0.01    0.02
  -3   4  -1    0.00    0.02
  -3   4  -1    0.02    0.04
   3  -4   1    0.00    0.05
  -4   4  -1    0.48    0.07
   4  -4   1    0.37    0.07
   4  -4   1    0.47    0.09
   5  -4   1    6.99    0.27
   5  -4   1    7.03    0.26
   6  -4   1   -0.02    0.07
   6  -4   1   -0.04    0.09
  -6  -3   1   -0.07    0.07
   5   3  -1    0.09    0.07
  -5  -3   1    0.10    0.06
   4   3  -1   -0.08    0.05
  -4  -3   1    0.03    0.05
   3   3  -1   12.36    0.31
   3   3  -1   11.78    0.30
  -3  -3   1   11.81    0.25
  -3  -3   1   12.08    0.23
  -3  -3   1   11.61    0.30
   2   3  -1   25.77    0.51
   2   3  -1   25.32    0.47
   2   3  -1   25.63    0.47
   2   3  -1   25.36    0.51
  -2  -3   1   25.70    0.50
  -2  -3   1   26.36    0.47
  -2  -3   1   24.91    0.47
  -2  -3   1   26.96    0.47
   1   3  -1    0.94    0.05
   1   3  -1    1.00    0.08
   1   3  -1    0.86    0.05
  -1  -3   1    0.87    0.05
  -1  -3   1    1.03    0.06
  -1  -3   1    0.94    0.06
   0   3  -1    0.86    0.05
   0   3  -1    0.66    0.05
   0   3  -1    0.62    0.06
   0  -3   1    0.65    0.05
   0  -3   1    0.71    0.05
   0  -3   1    0.66    0.05
  -1   3  -1    0.10    0.03
  -1   3  -1    0.10    0.02
  -1   3  -1    0.06    0.02
  -1   3  -1    0.11    0.03
   1  -3   1    0.14    0.04
   1  -3   1    0.07    0.03
   1  -3   1    0.07    0.02
   1  -3   1    0.11    0.03
  -2   3  -1    6.51    0.14
  -2   3  -1    6.38    0.16
  -2   3  -1    6.43    0.14
  -2   3  -1    6.45    0.14
   2  -3   1    6.32    0.14
   2  -3   1    6.48    0.14
   2  -3   1    6.53    0.18
  -3   3  -1   49.89    0.87
  -3   3  -1   51.02    0.92
   3  -3   1   52.29    0.95
   3  -3   1   51.71    0.95
  -4   3  -1    0.01    0.04
   4  -3   1    0.07    0.06
   4  -3   1    0.06    0.07
   5  -3   1    1.19    0.13
   5  -3   1    1.02    0.11
   6  -3   1    0.18    0.10
   6  -3   1    0.29    0.09
  -6  -2   1    9.82    0.33
   5   2  -1    0.80    0.11
   5   2  -1    0.56    0.11
  -5  -2   1    0.74    0.10
   4   2  -1    0.06    0.06
   4   2  -1    0.08    0.06
  -4  -2   1    0.10    0.05
   3   2  -1    3.64    0.15
   3   2  -1    3.81    0.16
  -3  -2   1    3.63    0.14
  -3  -2   1    3.46    0.09
   2   2  -1   12.58    0.25
   2   2  -1   12.99    0.28
   2   2  -1   13.05    0.29
  -2  -2   1   12.70    0.24
  -2  -2   1   13.46    0.24
  -2  -2   1   12.82    0.25
   1   2  -1  641.69   10.48
   1   2  -1  627.72   10.57
   1   2  -1  640.08   10.56
   1   2  -1  644.79   10.49
  -1  -2   1  641.61   10.48
  -1  -2   1  616.31   11.30
  -1  -2   1  620.75   10.48
  -1  -2   1  606.87   10.53
   0   2  -1   58.76    1.00
   0   2  -1   58.95    1.00
   0   2  -1   59.20    1.01
   0  -2   1   59.47    1.00
   0  -2   1   57.87    1.00
   0  -2   1   58.55    1.00
  -1   2  -1   87.68    1.50
  -1   2  -1   88.33    1.50
  -1   2  -1   87.32    1.51
  -1   2  -1   93.11    1.50
   1  -2   1   90.75    1.52
   1  -2   1   90.35    1.50
   1  -2   1   88.49    1.50
  -2   2  -1   58.44    0.98
  -2   2  -1   57.46    0.98
  -2   2  -1   58.28    0.98
  -2   2  -1   57.75    1.01
   2  -2   1   58.04    1.03
   2  -2   1   58.16    0.98
   2  -2   1   59.31    1.03
  -3   2  -1   13.68    0.29
   3  -2   1   13.66    0.32
   3  -2   1   13.77    0.32
  -4   2  -1    0.52    0.06
   4  -2   1    0.43    0.08
   4  -2   1    0.54    0.08
  -5   2  -1    0.59    0.07
   5  -2   1    0.48    0.10
   5  -2   1    0.40    0.09
   6  -2   1    1.44    0.16
   6  -2   1    1.29    0.14
   6   1  -1    0.09    0.09
   6   1  -1   -0.18    0.08
  -6  -1   1    0.06    0.07
   5   1  -1    0.80    0.11
   5   1  -1    0.75    0.11
  -5  -1   1    0.65    0.09
   4   1  -1   31.68    0.64
   4   1  -1   30.34    0.65
  -4  -1   1   31.39    0.62
   3   1  -1   20.01    0.41
   3   1  -1   19.54    0.42
  -3  -1   1   18.96    0.40
   2   1  -1   90.67    1.54
   2   1  -1   91.42    1.50
   2   1  -1   89.46    1.55
  -2  -1   1   88.37    1.54
  -2  -1   1   88.87    1.50
   1   1  -1   51.80    0.88
   1   1  -1   50.82    0.86
   1   1  -1   52.25    0.89
  -1  -1   1   51.95    0.86
  -1  -1   1   50.29    0.86
  -1  -1   1   50.21    0.86
  -1  -1   1   50.02    0.88
   0   1  -1   11.24    0.21
   0  -1   1   11.85    0.21
   0  -1   1   11.28    0.21
  -1   1  -1   34.81    0.58
  -1   1  -1   33.81    0.58
  -1   1  -1   33.21    0.59
  -1   1  -1   34.07    0.58
   1  -1   1   33.94    0.59
   1  -1   1   34.31    0.60
   1  -1   1   33.75    0.58
   1  -1   1   34.46    0.60
  -2   1  -1   41.75    0.69
  -2   1  -1   40.94    0.72
   2  -1   1   41.40    0.74
   2  -1   1   41.05    0.70
   2  -1   1   41.58    0.75
  -3   1  -1   19.84    0.40
   3  -1   1   20.31    0.42
   3  -1   1   20.10    0.43
  -4   1  -1    0.65    0.07
   4  -1   1    0.70    0.09
   4  -1   1    0.64    0.09
  -5   1  -1    1.16    0.10
   5  -1   1    1.34    0.13
   5  -1   1    1.10    0.12
   6  -1   1    0.53    0.11
   6   0  -1    0.11    0.09
   6   0  -1    0.20    0.10
  -6   0   1    0.12    0.08
   5   0  -1    0.36    0.08
   5   0  -1    0.38    0.09
  -5   0   1    0.38    0.07
  -5   0   1    0.40    0.07
   4   0  -1   10.85    0.29
   4   0  -1   10.67    0.30
  -4   0   1   10.85    0.27
   3   0  -1   48.54    0.88
   3   0  -1   48.69    0.90
  -3   0   1   47.85    0.87
   2   0  -1    7.55    0.18
   2   0  -1    7.91    0.19
  -2   0   1    7.41    0.17
   1   0  -1   25.80    0.45
   1   0  -1   25.87    0.43
   1   0  -1   25.47    0.43
   1   0  -1   25.98    0.46
  -1   0   1   25.99    0.43
  -1   0   1   25.63    0.43
  -1   0   1   25.54    0.45
  -1   0   1   25.14    0.43
   0   0  -1   16.68    0.29
   0   0  -1   16.84    0.29
   0   0   1   17.00    0.29
   0   0   1   16.47    0.29
  -1   0  -1   43.40    0.74
  -1   0  -1   45.32    0.75
  -1   0  -1   44.33    0.74
   1   0   1   45.14    0.75
   1   0   1   43.82    0.74
   1   0   1   44.19    0.77
   1   0   1   44.59    0.76
   2   0   1    5.25    0.10
   2   0   1    5.15    0.14
   2   0   1    4.95    0.15
   3   0   1    8.74    0.23
  -4   0  -1    5.01    0.16
   4   0   1    5.12    0.20
   4   0   1    5.00    0.19
  -5   0  -1   -0.01    0.04
   5   0   1    0.00    0.07
   5   0   1   -0.05    0.06
  -6   0  -1    1.68    0.14
   6   0   1    1.47    0.15
   6  -1  -1    1.96    0.18
   6  -1  -1    1.97    0.17
   5  -1  -1    0.76    0.10
   5  -1  -1    0.84    0.11
  -5   1   1    0.92    0.09
  -5   1   1    0.95    0.09
   4  -1  -1    5.92    0.20
   4  -1  -1    5.99    0.22
  -4   1   1    6.09    0.18
  -4   1   1    6.07    0.19
   3  -1  -1   17.38    0.36
   3  -1  -1   17.75    0.39
  -3   1   1   17.54    0.35
  -3   1   1   17.15    0.37
   2  -1  -1    1.71    0.07
   2  -1  -1    1.68    0.04
   2  -1  -1    1.63    0.09
  -2   1   1    1.68    0.06
  -2   1   1    1.67    0.07
   1  -1  -1   13.03    0.23
   1  -1  -1   12.96    0.25
   1  -1  -1   12.95    0.24
   1  -1  -1   12.85    0.23
  -1   1   1   13.03    0.23
  -1   1   1   12.54    0.23
  -1   1   1   12.24    0.23
   0  -1  -1  204.14    3.39
   0  -1  -1  202.77    3.38
   0  -1  -1  197.74    3.38
   0   1   1  203.18    3.39
  -1  -1  -1    0.23    0.02
  -1  -1  -1    0.23    0.02
  -1  -1  -1    0.31    0.03
   1   1   1    0.22    0.03
   1   1   1    0.25    0.02
   1   1   1    0.21    0.03
   1   1   1    0.17    0.03
  -2  -1  -1    1.86    0.05
  -2  -1  -1    1.87    0.05
  -2  -1  -1    1.82    0.05
   2   1   1    1.89    0.06
   2   1   1    1.85    0.08
   3   1   1   12.37    0.30
   3   1   1   12.51    0.29
  -4  -1  -1    0.91    0.09
   4   1   1    0.90    0.10
   4   1   1    1.14    0.10
  -5  -1  -1   22.05    0.51
   5   1   1   21.89    0.54
  -6  -1  -1    2.80    0.18
   6   1   1    2.48    0.21
   6  -2  -1    2.24    0.19
   6  -2  -1    2.23    0.17
   5  -2  -1    1.25    0.11
   5  -2  -1    1.36    0.13
  -5   2   1    1.21    0.11
   4  -2  -1    7.89    0.23
   4  -2  -1    7.77    0.25
  -4   2   1    7.99    0.20
  -4   2   1    7.90    0.23
   3  -2  -1    2.26    0.12
   3  -2  -1    2.22    0.10
   3  -2  -1    2.43    0.07
  -3   2   1    2.45    0.08
  -3   2   1    2.47    0.10
   2  -2  -1   41.12    0.74
   2  -2  -1   41.32    0.76
   2  -2  -1   41.53    0.71
  -2   2   1   42.13    0.71
  -2   2   1   42.58    0.71
  -2   2   1   42.23    0.71
  -2   2   1   41.74    0.71
  -2   2   1   41.80    0.75
   1  -2  -1    8.54    0.19
   1  -2  -1    8.37    0.17
  -1   2   1    8.57    0.17
  -1   2   1    8.73    0.19
  -1   2   1    8.47    0.17
  -1   2   1    8.91    0.17
   0  -2  -1   19.86    0.36
   0   2   1   19.75    0.36
   0   2   1   20.48    0.36
   0   2   1   19.27    0.37
  -1  -2  -1   19.63    0.35
  -1  -2  -1   18.82    0.35
  -1  -2  -1   18.58    0.35
   1   2   1   19.28    0.35
   1   2   1   19.60    0.35
   1   2   1   19.63    0.37
   1   2   1   19.31    0.35
   1   2   1   18.75    0.36
  -2  -2  -1   24.06    0.44
  -2  -2  -1   23.82    0.43
  -2  -2  -1   23.84    0.43
   2   2   1   24.80    0.48
   2   2   1   24.31    0.46
   2   2   1   24.29    0.44
   2   2   1   24.83    0.46
  -3  -2  -1    0.26    0.03
  -3  -2  -1    0.22    0.05
   3   2   1    0.27    0.06
   3   2   1    0.24    0.07
  -4  -2  -1    2.11    0.13
   4   2   1    2.06    0.12
   4   2   1    1.91    0.15
  -5  -2  -1    7.96    0.27
   5   2   1    7.75    0.30
  -6  -2  -1    7.99    0.29
   6   2   1    7.39    0.33
   6  -3  -1    0.75    0.11
   6  -3  -1    0.85    0.13
  -6   3   1    0.72    0.12
   5  -3  -1    0.79    0.09
   5  -3  -1    0.77    0.11
  -5   3   1    0.58    0.08
   4  -3  -1    1.21    0.11
   4  -3  -1    1.02    0.11
  -4   3   1    1.07    0.10
   3  -3  -1    0.53    0.08
   3  -3  -1    0.54    0.06
  -3   3   1    0.57    0.04
  -3   3   1    0.57    0.06
  -3   3   1    0.68    0.04
   2  -3  -1   29.64    0.55
   2  -3  -1   29.97    0.53
   2  -3  -1   30.15    0.57
  -2   3   1   28.83    0.56
  -2   3   1   29.93    0.53
  -2   3   1   30.95    0.53
  -2   3   1   29.58    0.53
   1  -3  -1  101.43    1.71
   1  -3  -1  100.75    1.71
  -1   3   1  102.31    1.72
  -1   3   1   99.91    1.71
  -1   3   1  101.27    1.70
   0  -3  -1   54.49    0.94
   0  -3  -1   55.55    0.95
   0  -3  -1   54.90    0.95
   0   3   1   53.28    0.96
   0   3   1   55.06    0.95
   0   3   1   56.15    0.95
  -1  -3  -1    2.09    0.08
  -1  -3  -1    2.01    0.08
  -1  -3  -1    2.07    0.08
   1   3   1    2.13    0.08
   1   3   1    2.19    0.09
   1   3   1    2.11    0.08
  -2  -3  -1   27.44    0.54
  -2  -3  -1   27.80    0.50
  -2  -3  -1   26.97    0.51
  -2  -3  -1   27.97    0.50
   2   3   1   27.88    0.51
   2   3   1   27.78    0.52
   2   3   1   27.39    0.50
   2   3   1   26.85    0.53
  -3  -3  -1    3.17    0.14
  -3  -3  -1    3.31    0.09
  -3  -3  -1    3.20    0.10
   3   3   1    3.34    0.14
   3   3   1    3.14    0.14
   3   3   1    2.87    0.17
  -4  -3  -1    3.00    0.15
   4   3   1    2.99    0.18
  -5  -3  -1    3.87    0.20
   5   3   1    3.26    0.21
  -6  -3  -1    0.00    0.08
   6  -4  -1    2.36    0.17
   6  -4  -1    2.17    0.19
  -6   4   1    2.28    0.16
   5  -4  -1    0.73    0.11
   5  -4  -1    0.64    0.09
  -5   4   1    0.73    0.09
   4  -4  -1   31.52    0.64
   4  -4  -1   30.97    0.67
  -4   4   1   32.09    0.64
  -4   4   1   30.87    0.55
   3  -4  -1    4.48    0.19
   3  -4  -1    4.45    0.15
  -3   4   1    4.52    0.12
  -3   4   1    4.44    0.16
  -3   4   1    4.64    0.11
   2  -4  -1   23.39    0.49
   2  -4  -1   23.90    0.45
   2  -4  -1   24.46    0.45
   2  -4  -1   23.58    0.47
  -2   4   1   23.90    0.44
  -2   4   1   24.46    0.44
  -2   4   1   23.25    0.44
  -2   4   1   22.91    0.47
   1  -4  -1    4.11    0.12
   1  -4  -1    4.01    0.12
  -1   4   1    3.96    0.11
  -1   4   1    4.06    0.12
   0  -4  -1    6.81    0.17
   0  -4  -1    6.58    0.17
   0  -4  -1    7.05    0.15
   0   4   1    6.73    0.18
   0   4   1    6.97    0.17
  -1  -4  -1    0.21    0.04
  -1  -4  -1    0.20    0.04
  -1  -4  -1    0.14    0.04
   1   4   1    0.12    0.05
   1   4   1    0.12    0.03
   1   4   1    0.18    0.03
  -2  -4  -1    6.47    0.17
  -2  -4  -1    6.67    0.19
  -2  -4  -1    6.60    0.17
   2   4   1    6.54    0.19
   2   4   1    6.64    0.17
   2   4   1    6.67    0.20
  -3  -4  -1   14.70    0.31
  -3  -4  -1   14.44    0.30
  -3  -4  -1   14.29    0.35
   3   4   1   14.67    0.34
   3   4   1   14.19    0.34
  -4  -4  -1    1.58    0.13
  -5  -4  -1    1.44    0.14
   6  -5  -1    0.03    0.10
  -6   5   1   -0.03    0.06
   5  -5  -1    2.15    0.17
   5  -5  -1    2.09    0.14
  -5   5   1    2.27    0.15
   4  -5  -1    0.04    0.05
   4  -5  -1   -0.02    0.07
  -4   5   1    0.01    0.02
  -4   5   1    0.01    0.05
   3  -5  -1    0.99    0.11
   3  -5  -1    0.86    0.08
  -3   5   1    0.88    0.06
  -3   5   1    0.93    0.09
  -3   5   1    0.95    0.06
   2  -5  -1    4.51    0.14
   2  -5  -1    4.66    0.14
   2  -5  -1    4.76    0.16
  -2   5   1    4.51    0.16
  -2   5   1    4.46    0.14
  -2   5   1    4.39    0.13
   1  -5  -1   14.60    0.27
   1  -5  -1   15.04    0.32
   1  -5  -1   14.43    0.31
  -1   5   1   14.23    0.31
  -1   5   1   14.81    0.31
  -1   5   1   15.01    0.33
   0  -5  -1    2.84    0.11
   0  -5  -1    2.90    0.10
   0  -5  -1    2.58    0.11
   0   5   1    2.93    0.13
   0   5   1    2.73    0.11
   0   5   1    2.83    0.11
  -1  -5  -1    9.09    0.22
  -1  -5  -1    8.95    0.23
  -1  -5  -1    9.34    0.23
   1   5   1    9.51    0.22
   1   5   1    9.20    0.25
   1   5   1    9.15    0.23
  -2  -5  -1    2.62    0.11
  -2  -5  -1    2.79    0.13
  -2  -5  -1    2.70    0.12
   2   5   1    2.77    0.14
   2   5   1    2.71    0.14
  -3  -5  -1    9.67    0.28
  -3  -5  -1    9.99    0.24
  -3  -5  -1    9.82    0.23
   3   5   1   10.13    0.28
  -4  -5  -1    0.48    0.06
  -4  -5  -1    0.58    0.09
  -5  -5  -1    0.19    0.09
   6  -6  -1    0.06    0.12
  -6   6   1    0.08    0.08
   5  -6  -1    2.16    0.20
   5  -6  -1    2.27    0.15
  -5   6   1    2.33    0.16
   4  -6  -1    0.16    0.06
  -4   6   1    0.09    0.06
  -4   6   1    0.16    0.04
  -4   6   1    0.17    0.03
   3  -6  -1   27.11    0.57
  -3   6   1   27.36    0.53
  -3   6   1   26.25    0.52
  -3   6   1   27.45    0.58
   2  -6  -1    2.64    0.12
   2  -6  -1    2.66    0.12
  -2   6   1    2.48    0.11
  -2   6   1    2.62    0.14
  -2   6   1    2.53    0.11
   1  -6  -1   22.75    0.46
   1  -6  -1   22.51    0.46
  -1   6   1   22.20    0.46
  -1   6   1   22.84    0.46
  -1   6   1   23.25    0.49
   0  -6  -1   12.27    0.29
   0  -6  -1   12.29    0.26
   0  -6  -1   11.83    0.29
   0   6   1   12.03    0.28
   0   6   1   12.29    0.29
   0   6   1   11.77    0.31
  -1  -6  -1    4.05    0.15
  -1  -6  -1    4.13    0.15
  -1  -6  -1    3.93    0.15
   1   6   1    3.93    0.14
   1   6   1    3.95    0.18
   1   6   1    4.08    0.14
  -2  -6  -1    0.00    0.04
  -2  -6  -1   -0.03    0.04
  -2  -6  -1   -0.01    0.04
   2   6   1    0.03    0.06
   2   6   1    0.03    0.06
  -3  -6  -1    1.87    0.10
  -3  -6  -1    1.74    0.10
  -3  -6  -1    1.74    0.13
   3   6   1    1.73    0.13
  -4  -6  -1   -0.03    0.04
  -4  -6  -1   -0.06    0.06
  -5  -6  -1    0.02    0.08
  -6   7   1    1.93    0.18
   5  -7  -1    6.84    0.26
  -5   7   1    7.36    0.27
   4  -7  -1    0.17    0.06
  -4   7   1    0.13    0.07
  -4   7   1    0.08    0.04
  -4   7   1    0.05    0.03
   3  -7  -1   64.54    1.21
  -3   7   1   64.81    1.22
  -3   7   1   65.18    1.17
  -3   7   1   64.20    1.16
   2  -7  -1    1.07    0.09
   2  -7  -1    1.09    0.09
  -2   7   1    1.09    0.09
  -2   7   1    1.07    0.09
  -2   7   1    1.04    0.11
   1  -7  -1    1.42    0.11
   1  -7  -1    1.45    0.11
  -1   7   1    1.67    0.15
  -1   7   1    1.43    0.10
  -1   7   1    1.21    0.09
   0  -7  -1    0.29    0.05
   0  -7  -1    0.26    0.06
   0  -7  -1    0.29    0.06
   0   7   1    0.27    0.05
   0   7   1    0.35    0.06
   0   7   1    0.21    0.09
  -1  -7  -1    0.22    0.06
  -1  -7  -1    0.35    0.07
  -1  -7  -1    0.18    0.05
   1   7   1    0.30    0.05
   1   7   1    0.31    0.06
   1   7   1    0.22    0.08
  -2  -7  -1    5.48    0.20
  -2  -7  -1    5.70    0.19
  -2  -7  -1    5.62    0.19
   2   7   1    5.63    0.22
  -3  -7  -1    5.37    0.18
  -3  -7  -1    5.08    0.22
  -3  -7  -1    5.09    0.18
   3   7   1    5.29    0.22
  -4  -7  -1    0.57    0.07
  -4  -7  -1    0.73    0.11
   5  -8  -1    1.85    0.16
  -5   8   1    1.92    0.17
   4  -8  -1    0.00    0.06
  -4   8   1   -0.07    0.03
  -4   8   1   -0.05    0.03
  -4   8   1    0.02    0.07
   3  -8  -1    0.29    0.08
  -3   8   1    0.27    0.09
  -3   8   1    0.31    0.05
  -3   8   1    0.35    0.06
   2  -8  -1   25.08    0.55
  -2   8   1   26.78    0.54
  -2   8   1   27.34    0.59
  -2   8   1   24.67    0.54
   1  -8  -1    4.45    0.17
   1  -8  -1    4.65    0.18
  -1   8   1    4.50    0.17
  -1   8   1    4.16    0.21
  -1   8   1    4.22    0.17
   0  -8  -1    0.73    0.08
   0  -8  -1    0.70    0.08
   0   8   1    0.72    0.11
   0   8   1    0.62    0.08
   0   8   1    0.66    0.08
  -1  -8  -1    0.62    0.08
  -1  -8  -1    0.62    0.08
  -1  -8  -1    0.48    0.08
   1   8   1    0.62    0.10
   1   8   1    0.72    0.08
  -2  -8  -1    6.28    0.22
  -2  -8  -1    6.69    0.23
   2   8   1    6.28    0.25
  -3  -8  -1    6.26    0.25
  -3  -8  -1    6.20    0.22
  -4  -8  -1    0.42    0.07
  -4  -8  -1    0.54    0.11
   5  -9  -1    3.02    0.20
  -5   9   1    2.63    0.21
  -5   9   1    2.69    0.14
   4  -9  -1    0.00    0.06
  -4   9   1    0.01    0.04
  -4   9   1   -0.08    0.08
   3  -9  -1   -0.03    0.07
  -3   9   1    0.21    0.10
  -3   9   1    0.22    0.06
  -3   9   1    0.18    0.06
  -2   9   1    2.45    0.19
  -2   9   1    2.54    0.14
  -2   9   1    2.28    0.13
   1  -9  -1    2.44    0.15
   1  -9  -1    1.91    0.14
  -1   9   1    2.35    0.14
  -1   9   1    2.25    0.18
  -1   9   1    2.06    0.13
   0  -9  -1    3.87    0.18
   0  -9  -1    4.11    0.18
   0   9   1    3.90    0.22
   0   9   1    4.29    0.18
   0   9   1    4.34    0.18
  -1  -9  -1    0.42    0.08
   1   9   1    0.49    0.10
  -2  -9  -1    1.54    0.13
  -2  -9  -1    1.10    0.11
   2   9   1    1.26    0.14
  -3  -9  -1    1.58    0.13
  -3  -9  -1    1.67    0.15
   4 -10  -1    5.98    0.26
  -4  10   1    5.93    0.22
  -4  10   1    6.21    0.30
   3 -10  -1   -0.07    0.06
  -3  10   1   -0.09    0.09
  -3  10   1   -0.03    0.05
  -2  10   1   -0.01    0.09
  -2  10   1    0.14    0.06
   1 -10  -1    2.98    0.17
   1 -10  -1    2.75    0.16
  -1  10   1    2.98    0.16
  -1  10   1    2.67    0.21
   0 -10  -1    0.32    0.08
   0  10   1    0.38    0.08
   0  10   1    0.29    0.11
  -1 -10  -1    2.53    0.16
   1  10   1    2.75    0.21
  -2 -10  -1    0.89    0.11
   2  10   1    1.03    0.14
   4 -11  -1    3.73    0.23
  -4  11   1    3.45    0.18
  -4  11   1    3.30    0.26
   3 -11  -1    3.92    0.23
  -3  11   1    3.63    0.26
  -3  11   1    4.23    0.20
  -2  11   1    0.61    0.13
  -2  11   1    0.66    0.10
   1 -11  -1   -0.04    0.06
  -1  11   1    0.08    0.06
  -1  11   1   -0.01    0.10
   0 -11  -1    0.08    0.07
   0  11   1    0.08    0.06
   0  11   1    0.13    0.11
  -1 -11  -1    2.31    0.17
   1  11   1    2.65    0.22
  -2  12   1    0.06    0.07
  -2  12   1   -0.17    0.11
   1 -12  -1    0.17    0.08
  -1  12   1    0.07    0.07
  -1  12   1   -0.06    0.11
  -1  12  -2    0.13    0.08
  -1  12  -2   -0.05    0.11
   1 -12   2    0.19    0.15
  -2  12  -2    0.85    0.12
  -2  12  -2    0.56    0.15
   2 -12   2    0.57    0.14
   1  11  -2    2.04    0.19
  -1 -11   2    1.93    0.16
   0  11  -2    7.55    0.32
   0  11  -2    8.17    0.29
   0 -11   2    7.87    0.29
  -1  11  -2    4.04    0.26
  -1  11  -2    4.49    0.21
   1 -11   2    4.28    0.21
  -2  11  -2    0.24    0.12
  -2  11  -2    0.10    0.06
   2 -11   2    0.04    0.10
  -3  11  -2    1.05    0.16
  -3  11  -2    1.27    0.13
   3 -11   2    1.04    0.14
   2  10  -2    0.33    0.11
   2  10  -2    0.10    0.11
  -2 -10   2    0.25    0.08
  -2 -10   2    0.12    0.09
   1  10  -2    0.70    0.12
  -1 -10   2    0.85    0.11
   0  10  -2    2.19    0.15
   0  10  -2    1.92    0.18
   0 -10   2    2.03    0.14
  -1  10  -2   19.24    0.52
  -1  10  -2   20.03    0.49
   1 -10   2   20.85    0.49
   1 -10   2   21.19    0.50
  -2  10  -2    0.32    0.10
  -2  10  -2    0.48    0.08
   2 -10   2    0.29    0.10
  -3  10  -2    3.63    0.23
  -3  10  -2    3.66    0.17
   3 -10   2    3.99    0.23
  -4  10  -2    1.16    0.16
  -4  10  -2    1.31    0.12
   4 -10   2    1.43    0.15
   3   9  -2    0.22    0.10
  -3  -9   2    0.13    0.06
  -3  -9   2    0.05    0.08
   2   9  -2    3.03    0.22
   2   9  -2    3.21    0.20
  -2  -9   2    3.45    0.17
  -2  -9   2    3.30    0.18
   1   9  -2    4.38    0.21
   1   9  -2    4.09    0.22
  -1  -9   2    4.05    0.18
  -1  -9   2    3.96    0.18
   0   9  -2    0.44    0.10
   0   9  -2    0.45    0.08
   0   9  -2    0.34    0.07
   0  -9   2    0.39    0.07
   0  -9   2    0.41    0.07
  -1   9  -2   12.90    0.34
  -1   9  -2   12.68    0.34
  -1   9  -2   12.86    0.39
   1  -9   2   12.49    0.34
   1  -9   2   13.33    0.35
  -2   9  -2    1.46    0.11
  -2   9  -2    1.53    0.15
  -2   9  -2    1.60    0.11
   2  -9   2    1.27    0.13
  -3   9  -2    0.93    0.10
  -3   9  -2    0.72    0.12
   3  -9   2    0.76    0.11
  -4   9  -2    2.54    0.20
  -4   9  -2    2.59    0.14
   4  -9   2    3.19    0.20
   5  -9   2    1.90    0.18
   4   8  -2    0.77    0.12
  -4  -8   2    0.44    0.11
  -4  -8   2    0.71    0.09
   3   8  -2    0.17    0.08
   3   8  -2    0.13    0.08
  -3  -8   2    0.00    0.07
  -3  -8   2    0.05    0.05
   2   8  -2    2.27    0.19
   2   8  -2    2.23    0.17
  -2  -8   2    2.27    0.13
  -2  -8   2    1.99    0.15
  -2  -8   2    2.23    0.13
   1   8  -2    0.53    0.10
   1   8  -2    0.51    0.08
   1   8  -2    0.63    0.08
  -1  -8   2    0.53    0.08
  -1  -8   2    0.54    0.08
  -1  -8   2    0.37    0.07
   0   8  -2    7.56    0.27
   0   8  -2    7.98    0.24
   0   8  -2    7.36    0.23
   0  -8   2    7.64    0.23
   0  -8   2    7.72    0.22
   0  -8   2    7.39    0.23
  -1   8  -2   12.45    0.32
  -1   8  -2   12.69    0.36
  -1   8  -2   12.60    0.32
   1  -8   2   12.48    0.32
   1  -8   2   12.09    0.32
  -2   8  -2    0.40    0.07
  -2   8  -2    0.31    0.09
  -2   8  -2    0.29    0.06
   2  -8   2    0.38    0.08
  -3   8  -2    0.74    0.11
  -3   8  -2    0.67    0.08
  -3   8  -2    0.68    0.07
   3  -8   2    0.65    0.10
  -4   8  -2    0.05    0.04
  -4   8  -2   -0.04    0.03
  -4   8  -2    0.06    0.08
   4  -8   2   -0.03    0.06
   5  -8   2    0.04    0.07
   4   7  -2    1.79    0.16
  -4  -7   2    1.67    0.16
  -4  -7   2    1.70    0.11
   3   7  -2    2.22    0.17
   3   7  -2    2.16    0.16
  -3  -7   2    2.01    0.15
  -3  -7   2    2.01    0.12
  -3  -7   2    2.28    0.12
   2   7  -2    0.59    0.09
   2   7  -2    0.93    0.12
  -2  -7   2    0.83    0.08
  -2  -7   2    0.99    0.10
  -2  -7   2    0.83    0.08
   1   7  -2    0.03    0.08
   1   7  -2    0.03    0.04
   1   7  -2    0.05    0.04
  -1  -7   2    0.08    0.06
  -1  -7   2    0.04    0.05
  -1  -7   2    0.08    0.05
   0   7  -2    5.49    0.18
   0   7  -2    5.40    0.18
   0   7  -2    5.70    0.23
   0  -7   2    5.50    0.18
   0  -7   2    5.71    0.19
   0  -7   2    5.43    0.18
  -1   7  -2   10.91    0.28
  -1   7  -2   11.66    0.32
  -1   7  -2   10.86    0.28
   1  -7   2   10.83    0.28
   1  -7   2   11.71    0.26
   1  -7   2   11.18    0.29
  -2   7  -2   42.04    0.80
  -2   7  -2   44.66    0.84
  -2   7  -2   41.86    0.80
   2  -7   2   41.51    0.80
   2  -7   2   41.76    0.84
  -3   7  -2    0.91    0.08
  -3   7  -2    1.01    0.11
  -3   7  -2    0.80    0.07
   3  -7   2    0.76    0.10
  -4   7  -2    5.06    0.15
  -4   7  -2    5.27    0.16
  -4   7  -2    5.11    0.22
   4  -7   2    5.14    0.23
   5  -7   2    5.36    0.25
   6  -7   2    9.53    0.36
  -5  -6   2    1.56    0.16
   4   6  -2    2.73    0.18
   4   6  -2    2.68    0.17
  -4  -6   2    2.66    0.12
  -4  -6   2    2.21    0.17
   3   6  -2    0.37    0.08
   3   6  -2    0.28    0.08
  -3  -6   2    0.34    0.08
  -3  -6   2    0.19    0.05
  -3  -6   2    0.22    0.05
   2   6  -2   12.62    0.35
   2   6  -2   12.42    0.34
  -2  -6   2   12.83    0.30
  -2  -6   2   12.66    0.32
  -2  -6   2   11.88    0.30
   1   6  -2   21.90    0.45
   1   6  -2   22.38    0.49
   1   6  -2   21.26    0.45
  -1  -6   2   22.27    0.46
  -1  -6   2   22.15    0.46
  -1  -6   2   21.41    0.45
   0   6  -2   10.28    0.25
   0   6  -2   10.01    0.29
   0   6  -2   10.95    0.26
   0  -6   2    9.88    0.25
   0  -6   2   10.42    0.25
   0  -6   2   10.39    0.26
  -1   6  -2    1.34    0.09
  -1   6  -2    1.56    0.13
  -1   6  -2    1.33    0.09
   1  -6   2    1.41    0.09
   1  -6   2    1.28    0.09
   1  -6   2    1.32    0.09
  -2   6  -2    4.55    0.19
  -2   6  -2    4.72    0.15
  -2   6  -2    4.55    0.15
   2  -6   2    4.68    0.16
   2  -6   2    4.51    0.18
   2  -6   2    4.81    0.16
  -3   6  -2    2.89    0.12
  -3   6  -2    2.77    0.16
  -3   6  -2    2.61    0.11
   3  -6   2    2.48    0.15
  -4   6  -2    0.05    0.06
  -4   6  -2    0.00    0.03
   4  -6   2    0.01    0.06
   5  -6   2    0.46    0.09
   6  -6   2    3.54    0.23
  -5  -5   2    0.19    0.09
   4   5  -2    3.53    0.19
  -4  -5   2    3.18    0.12
  -4  -5   2    3.17    0.18
   3   5  -2    1.44    0.13
   3   5  -2    1.37    0.13
  -3  -5   2    1.29    0.08
  -3  -5   2    1.46    0.09
  -3  -5   2    1.64    0.12
   2   5  -2    0.01    0.04
   2   5  -2    0.07    0.08
   2   5  -2    0.00    0.06
  -2  -5   2    0.09    0.04
  -2  -5   2    0.03    0.05
  -2  -5   2   -0.02    0.03
   1   5  -2    2.37    0.13
   1   5  -2    2.48    0.10
   1   5  -2    2.42    0.10
  -1  -5   2    2.27    0.10
  -1  -5   2    2.40    0.11
  -1  -5   2    2.48    0.10
   0   5  -2    4.54    0.14
   0   5  -2    4.50    0.17
   0   5  -2    4.60    0.14
   0  -5   2    4.62    0.14
   0  -5   2    4.82    0.15
   0  -5   2    4.69    0.14
  -1   5  -2    1.30    0.07
  -1   5  -2    1.35    0.08
  -1   5  -2    1.29    0.10
   1  -5   2    1.26    0.08
   1  -5   2    1.07    0.07
   1  -5   2    1.11    0.07
  -2   5  -2   12.75    0.27
  -2   5  -2   12.50    0.27
  -2   5  -2   12.35    0.30
   2  -5   2   12.54    0.27
   2  -5   2   12.27    0.25
   2  -5   2   12.08    0.27
   2  -5   2   11.65    0.30
  -3   5  -2    4.92    0.14
  -3   5  -2    5.12    0.14
  -3   5  -2    5.08    0.18
   3  -5   2    4.85    0.19
  -4   5  -2    4.53    0.13
  -4   5  -2    4.57    0.18
   4  -5   2    4.58    0.20
   5  -5   2    0.40    0.09
   6  -5   2    1.09    0.14
   5   4  -2    0.29    0.09
  -5  -4   2    0.36    0.09
   4   4  -2    1.73    0.15
  -4  -4   2    1.72    0.13
  -4  -4   2    1.74    0.08
   3   4  -2    1.09    0.11
   3   4  -2    1.06    0.11
  -3  -4   2    1.33    0.11
  -3  -4   2    1.24    0.07
  -3  -4   2    0.96    0.07
   2   4  -2    7.69    0.19
   2   4  -2    7.87    0.23
   2   4  -2    7.92    0.23
   2   4  -2    7.90    0.24
  -2  -4   2    7.89    0.19
  -2  -4   2    7.76    0.19
   1   4  -2   10.36    0.23
   1   4  -2   10.49    0.26
   1   4  -2   10.42    0.23
  -1  -4   2   10.46    0.23
  -1  -4   2   10.32    0.24
  -1  -4   2   10.43    0.23
   0   4  -2    9.76    0.22
   0   4  -2    9.24    0.23
   0   4  -2    9.61    0.21
   0  -4   2    9.52    0.21
   0  -4   2    9.27    0.21
   0  -4   2    9.49    0.22
  -1   4  -2   32.63    0.59
  -1   4  -2   31.75    0.60
  -1   4  -2   30.82    0.58
   1  -4   2   32.11    0.59
   1  -4   2   32.96    0.57
   1  -4   2   31.93    0.59
  -2   4  -2   28.55    0.52
  -2   4  -2   27.66    0.54
  -2   4  -2   28.95    0.53
  -2   4  -2   28.20    0.52
   2  -4   2   28.23    0.53
   2  -4   2   27.62    0.56
   2  -4   2   28.95    0.52
   2  -4   2   28.80    0.53
  -3   4  -2    0.21    0.03
  -3   4  -2    0.16    0.03
  -3   4  -2    0.23    0.05
   3  -4   2    0.21    0.06
   3  -4   2    0.12    0.04
  -4   4  -2    3.63    0.15
   4  -4   2    3.60    0.17
   5  -4   2    1.92    0.15
   6  -4   2    0.07    0.08
  -6  -3   2    0.43    0.11
   5   3  -2    3.31    0.20
  -5  -3   2    3.44    0.18
   4   3  -2    2.07    0.15
  -4  -3   2    1.88    0.13
   3   3  -2    3.46    0.17
   3   3  -2    3.61    0.16
  -3  -3   2    3.34    0.15
  -3  -3   2    3.81    0.11
  -3  -3   2    3.67    0.10
   2   3  -2    2.15    0.08
   2   3  -2    1.89    0.11
   2   3  -2    1.92    0.08
   2   3  -2    1.96    0.11
  -2  -3   2    2.13    0.08
  -2  -3   2    2.05    0.08
  -2  -3   2    1.94    0.10
  -2  -3   2    1.75    0.08
   1   3  -2  103.67    1.77
   1   3  -2  106.31    1.77
   1   3  -2  102.96    1.79
  -1  -3   2  102.86    1.78
  -1  -3   2  103.60    1.77
  -1  -3   2  106.53    1.77
   0   3  -2   26.12    0.49
   0   3  -2   25.38    0.47
   0   3  -2   26.22    0.48
   0  -3   2   25.84    0.47
   0  -3   2   26.57    0.48
   0  -3   2   25.65    0.48
  -1   3  -2  179.36    3.03
  -1   3  -2  177.56    3.04
  -1   3  -2  178.79    3.01
   1  -3   2  183.81    3.01
   1  -3   2  181.59    3.03
   1  -3   2  182.17    3.02
   1  -3   2  179.42    3.02
  -2   3  -2   16.47    0.31
  -2   3  -2   16.65    0.31
  -2   3  -2   16.18    0.32
  -2   3  -2   15.60    0.31
   2  -3   2   15.70    0.31
   2  -3   2   15.80    0.31
   2  -3   2   15.79    0.34
   2  -3   2   16.39    0.33
  -3   3  -2    0.90    0.05
  -3   3  -2    0.89    0.08
   3  -3   2    0.86    0.08
  -4   3  -2    0.28    0.06
   4  -3   2    0.35    0.08
   4  -3   2    0.25    0.07
   5  -3   2    6.03    0.24
   5  -3   2    5.87    0.24
   6  -3   2    1.15    0.14
   6   2  -2   -0.01    0.08
  -6  -2   2    0.08    0.08
   5   2  -2    3.38    0.19
  -5  -2   2    3.14    0.17
   4   2  -2    1.80    0.14
   4   2  -2    1.86    0.14
  -4  -2   2    1.95    0.13
   3   2  -2   11.50    0.30
  -3  -2   2   11.88    0.22
  -3  -2   2   11.68    0.28
  -3  -2   2   11.35    0.23
   2   2  -2   42.70    0.76
   2   2  -2   43.08    0.81
   2   2  -2   43.77    0.80
  -2  -2   2   44.35    0.76
  -2  -2   2   43.89    0.76
  -2  -2   2   45.44    0.76
  -2  -2   2   42.85    0.79
   1   2  -2   71.26    1.23
   1   2  -2   72.00    1.23
   1   2  -2   72.93    1.26
  -1  -2   2   74.28    1.23
  -1  -2   2   72.29    1.23
  -1  -2   2   73.31    1.23
  -1  -2   2   71.70    1.24
   0   2  -2  196.04    3.36
   0   2  -2  203.54    3.37
   0   2  -2  195.68    3.37
   0  -2   2  201.64    3.36
   0  -2   2  200.77    3.34
   0  -2   2  199.09    3.35
  -1   2  -2   20.33    0.38
  -1   2  -2   20.53    0.38
  -1   2  -2   21.71    0.38
  -1   2  -2   20.97    0.38
   1  -2   2   20.48    0.38
   1  -2   2   20.30    0.38
   1  -2   2   21.18    0.40
   1  -2   2   20.93    0.38
  -2   2  -2  113.98    1.92
  -2   2  -2  115.06    1.92
  -2   2  -2  118.26    1.92
  -2   2  -2  114.97    1.94
   2  -2   2  113.62    1.97
   2  -2   2  113.54    1.92
   2  -2   2  114.49    1.94
  -3   2  -2   -0.01    0.03
  -3   2  -2    0.02    0.02
   3  -2   2    0.04    0.05
   3  -2   2    0.02    0.05
   4  -2   2    1.55    0.13
   4  -2   2    1.55    0.13
   5  -2   2    0.12    0.08
   5  -2   2    0.04    0.07
   6  -2   2    0.47    0.11
   6   1  -2   -0.04    0.07
  -6  -1   2    0.00    0.06
  -6  -1   2    0.03    0.07
   5   1  -2    0.41    0.09
   5   1  -2    0.35    0.09
  -5  -1   2    0.38    0.08
   4   1  -2    2.59    0.16
   4   1  -2    2.72    0.15
  -4  -1   2    2.52    0.13
   3   1  -2   16.06    0.37
   3   1  -2   15.82    0.34
  -3  -1   2   15.91    0.34
  -3  -1   2   15.77    0.28
   2   1  -2   39.38    0.69
   2   1  -2   38.76    0.66
   2   1  -2   37.48    0.71
  -2  -1   2   38.67    0.66
  -2  -1   2   37.87    0.66
  -2  -1   2   38.64    0.66
  -2  -1   2   37.84    0.69
   1   1  -2  968.80   17.45
   1   1  -2  942.39   17.34
   1   1  -2  989.08   16.88
  -1  -1   2  970.22   17.10
  -1  -1   2 1000.00   16.84
  -1  -1   2  936.75   17.33
  -1  -1   2  971.89   17.05
   0   1  -2    9.27    0.19
   0   1  -2    9.76    0.19
   0   1  -2    9.83    0.19
   0  -1   2    9.57    0.19
   0  -1   2    9.76    0.19
   0  -1   2    9.82    0.20
   0  -1   2    9.63    0.19
  -1   1  -2    0.46    0.04
  -1   1  -2    0.43    0.04
  -1   1  -2    0.43    0.04
   1  -1   2    0.39    0.04
   1  -1   2    0.36    0.04
   1  -1   2    0.38    0.03
  -2   1  -2   16.42    0.31
  -2   1  -2   16.41    0.30
  -2   1  -2   16.93    0.30
  -2   1  -2   16.91    0.30
   2  -1   2   16.33    0.34
   2  -1   2   16.85    0.33
   2  -1   2   16.71    0.33
  -3   1  -2    4.63    0.13
   3  -1   2    4.67    0.16
   4  -1   2   26.77    0.56
   4  -1   2   27.26    0.58
   5  -1   2    1.60    0.14
  -6   1  -2    1.89    0.21
   6  -1   2    1.43    0.16
   6   0  -2    0.16    0.09
  -6   0   2    0.25    0.07
   5   0  -2    5.89    0.24
   5   0  -2    5.73    0.22
  -5   0   2    6.10    0.22
  -5   0   2    6.17    0.21
   4   0  -2    9.64    0.29
   4   0  -2   10.15    0.27
  -4   0   2    9.89    0.26
   3   0  -2    0.40    0.05
   3   0  -2    0.35    0.06
  -3   0   2    0.38    0.05
   2   0  -2   19.48    0.34
   2   0  -2   18.91    0.39
   2   0  -2   19.11    0.36
  -2   0   2   19.17    0.33
  -2   0   2   19.41    0.34
  -2   0   2   19.38    0.36
  -2   0   2   18.52    0.33
   1   0  -2   55.58    0.95
   1   0  -2   56.27    0.97
  -1   0   2   56.36    0.95
  -1   0   2   57.22    0.96
  -1   0   2   57.06    0.95
  -1   0   2   55.15    0.95
   0   0  -2  135.56    2.37
   0   0  -2  141.28    2.35
   0   0   2  138.64    2.37
   0   0   2  146.20    2.37
   0   0   2  144.54    2.37
  -1   0  -2   70.02    1.20
  -1   0  -2   72.36    1.20
   1   0   2   72.78    1.22
   1   0   2   71.78    1.20
   1   0   2   69.49    1.21
  -2   0  -2   21.17    0.38
  -2   0  -2   21.37    0.37
  -2   0  -2   21.83    0.38
  -2   0  -2   20.72    0.37
   2   0   2   21.40    0.38
   2   0   2   21.46    0.40
  -3   0  -2    0.08    0.03
   3   0   2    0.09    0.05
   3   0   2    0.11    0.05
   4   0   2    0.28    0.07
   4   0   2    0.17    0.07
  -5   0  -2    6.74    0.23
   5   0   2    6.61    0.26
  -6   0  -2    0.05    0.06
   6   0   2   -0.13    0.08
   6  -1  -2    0.03    0.09
  -6   1   2    0.03    0.06
   5  -1  -2    5.15    0.20
   5  -1  -2    4.96    0.22
  -5   1   2    5.37    0.20
  -5   1   2    5.30    0.19
   4  -1  -2    3.86    0.18
   4  -1  -2    4.14    0.16
  -4   1   2    4.22    0.15
  -4   1   2    3.95    0.16
   3  -1  -2    0.01    0.04
   3  -1  -2   -0.03    0.02
   3  -1  -2    0.05    0.03
  -3   1   2    0.02    0.03
  -3   1   2    0.01    0.03
   2  -1  -2    4.29    0.10
   2  -1  -2    4.16    0.11
  -2   1   2    4.16    0.13
  -2   1   2    4.19    0.11
  -2   1   2    4.17    0.09
  -2   1   2    4.28    0.09
  -2   1   2    4.26    0.09
   1  -1  -2    1.91    0.06
   1  -1  -2    1.85    0.07
  -1   1   2    1.93    0.06
  -1   1   2    2.02    0.07
  -1   1   2    1.90    0.06
  -1   1   2    1.95    0.06
  -1   1   2    1.83    0.06
   0  -1  -2   24.01    0.43
   0  -1  -2   23.66    0.43
   0  -1  -2   23.92    0.42
   0   1   2   23.18    0.42
   0   1   2   23.77    0.42
   0   1   2   24.81    0.42
   0   1   2   24.40    0.42
  -1  -1  -2    0.26    0.03
  -1  -1  -2    0.25    0.03
  -1  -1  -2    0.27    0.03
   1   1   2    0.27    0.04
   1   1   2    0.25    0.03
  -2  -1  -2   27.60    0.49
  -2  -1  -2   27.19    0.49
  -2  -1  -2   27.72    0.49
   2   1   2   27.95    0.54
   2   1   2   27.93    0.51
   2   1   2   28.77    0.50
  -3  -1  -2    3.63    0.09
   3   1   2    3.81    0.13
   3   1   2    3.89    0.17
   4   1   2    0.09    0.06
  -5  -1  -2    5.52    0.21
   5   1   2    5.19    0.24
  -6  -1  -2    0.28    0.08
   6   1   2    0.22    0.11
   6  -2  -2    6.08    0.28
  -6   2   2    7.05    0.26
   5  -2  -2   11.74    0.35
   5  -2  -2   11.15    0.31
  -5   2   2   11.95    0.33
   4  -2  -2    1.34    0.12
   4  -2  -2    1.41    0.11
  -4   2   2    1.42    0.09
  -4   2   2    1.40    0.11
   3  -2  -2   17.91    0.40
   3  -2  -2   17.49    0.36
  -3   2   2   17.88    0.32
  -3   2   2   18.03    0.38
  -3   2   2   17.96    0.34
   2  -2  -2    0.30    0.03
   2  -2  -2    0.30    0.03
   2  -2  -2    0.28    0.05
  -2   2   2    0.27    0.04
  -2   2   2    0.26    0.03
  -2   2   2    0.30    0.03
  -2   2   2    0.30    0.03
  -2   2   2    0.27    0.03
   1  -2  -2    2.44    0.09
   1  -2  -2    2.31    0.07
   1  -2  -2    2.35    0.07
  -1   2   2    2.42    0.08
  -1   2   2    2.39    0.07
  -1   2   2    2.35    0.07
   0  -2  -2    0.28    0.03
   0  -2  -2    0.36    0.04
   0   2   2    0.37    0.03
   0   2   2    0.40    0.04
   0   2   2    0.30    0.03
  -1  -2  -2    7.82    0.17
  -1  -2  -2    7.77    0.17
  -1  -2  -2    7.69    0.17
   1   2   2    7.75    0.19
   1   2   2    7.79    0.16
   1   2   2    8.02    0.17
   1   2   2    7.86    0.17
   1   2   2    7.74    0.17
  -2  -2  -2    1.04    0.05
  -2  -2  -2    1.07    0.06
  -2  -2  -2    1.00    0.05
   2   2   2    0.89    0.05
   2   2   2    0.98    0.06
   2   2   2    0.95    0.09
   2   2   2    1.01    0.06
  -3  -2  -2    2.13    0.08
   3   2   2    2.11    0.14
   3   2   2    2.03    0.10
  -4  -2  -2    1.21    0.10
   4   2   2    0.88    0.11
  -5  -2  -2    0.30    0.08
   5   2   2    0.25    0.10
  -6  -2  -2    7.13    0.28
   6   2   2    6.55    0.32
   6  -3  -2    1.12    0.15
  -6   3   2    1.08    0.12
   5  -3  -2    6.77    0.22
   5  -3  -2    6.38    0.26
  -5   3   2    6.67    0.23
   4  -3  -2    0.65    0.10
   4  -3  -2    0.54    0.07
  -4   3   2    0.61    0.08
   3  -3  -2    0.02    0.04
   3  -3  -2    0.04    0.05
  -3   3   2    0.09    0.04
  -3   3   2    0.06    0.02
  -3   3   2    0.05    0.02
  -3   3   2    0.06    0.02
   2  -3  -2   16.76    0.32
   2  -3  -2   16.29    0.32
   2  -3  -2   16.10    0.32
   2  -3  -2   16.53    0.35
  -2   3   2   15.99    0.31
  -2   3   2   16.58    0.31
  -2   3   2   16.28    0.34
  -2   3   2   16.56    0.31
   1  -3  -2   12.31    0.25
   1  -3  -2   12.23    0.26
   1  -3  -2   12.40    0.25
  -1   3   2   12.43    0.25
  -1   3   2   12.30    0.26
  -1   3   2   11.62    0.24
   0  -3  -2    6.01    0.15
   0  -3  -2    6.16    0.15
   0   3   2    6.35    0.15
   0   3   2    6.28    0.15
   0   3   2    6.02    0.15
  -1  -3  -2    0.36    0.04
  -1  -3  -2    0.51    0.05
   1   3   2    0.43    0.04
   1   3   2    0.43    0.05
   1   3   2    0.35    0.04
  -2  -3  -2   18.20    0.36
  -2  -3  -2   18.63    0.36
   2   3   2   18.22    0.37
   2   3   2   18.42    0.36
   2   3   2   18.98    0.37
   2   3   2   18.95    0.41
  -3  -3  -2   18.20    0.36
  -3  -3  -2   18.69    0.35
   3   3   2   18.31    0.44
  -4  -3  -2    1.08    0.10
   4   3   2    0.82    0.12
  -5  -3  -2   27.15    0.63
   5   3   2   27.48    0.66
   6  -4  -2    0.18    0.10
  -6   4   2    0.16    0.07
   5  -4  -2    1.56    0.15
   5  -4  -2    1.56    0.12
  -5   4   2    1.85    0.13
   4  -4  -2    0.25    0.06
   4  -4  -2    0.38    0.09
  -4   4   2    0.18    0.03
  -4   4   2    0.29    0.07
   3  -4  -2    0.12    0.05
   3  -4  -2    0.15    0.07
  -3   4   2    0.08    0.03
  -3   4   2    0.05    0.02
  -3   4   2    0.08    0.04
   2  -4  -2   23.74    0.49
   2  -4  -2   24.39    0.47
   2  -4  -2   24.85    0.46
   2  -4  -2   24.92    0.46
  -2   4   2   24.27    0.49
  -2   4   2   24.08    0.45
  -2   4   2   23.56    0.46
   1  -4  -2    9.57    0.21
   1  -4  -2    8.77    0.20
  -1   4   2    9.91    0.23
  -1   4   2    9.38    0.21
  -1   4   2    9.46    0.21
   0  -4  -2   79.46    1.41
   0  -4  -2   82.34    1.41
   0   4   2   81.61    1.40
   0   4   2   82.05    1.40
   0   4   2   81.19    1.41
  -1  -4  -2    6.72    0.17
  -1  -4  -2    6.60    0.18
   1   4   2    7.00    0.17
   1   4   2    6.69    0.17
   1   4   2    6.57    0.18
  -2  -4  -2    3.25    0.12
  -2  -4  -2    3.32    0.12
  -2  -4  -2    3.21    0.13
   2   4   2    3.38    0.14
   2   4   2    3.55    0.17
   2   4   2    3.34    0.12
  -3  -4  -2    1.08    0.07
  -3  -4  -2    1.08    0.10
  -3  -4  -2    1.15    0.08
  -4  -4  -2   -0.06    0.05
  -5  -4  -2   12.18    0.38
   6  -5  -2    2.11    0.20
  -6   5   2    2.08    0.17
   5  -5  -2    0.23    0.07
   5  -5  -2    0.32    0.10
  -5   5   2    0.22    0.07
   4  -5  -2   73.86    1.40
   4  -5  -2   74.87    1.35
  -4   5   2   75.29    1.33
  -4   5   2   74.97    1.37
  -4   5   2   73.40    1.28
   3  -5  -2   26.64    0.53
   3  -5  -2   25.96    0.57
  -3   5   2   26.27    0.55
  -3   5   2   26.78    0.51
  -3   5   2   26.87    0.50
   2  -5  -2   18.56    0.37
   2  -5  -2   17.84    0.37
  -2   5   2   17.58    0.36
  -2   5   2   17.35    0.36
  -2   5   2   17.88    0.39
   1  -5  -2   39.57    0.73
   1  -5  -2   40.51    0.68
   1  -5  -2   39.82    0.73
  -1   5   2   39.44    0.74
  -1   5   2   38.88    0.72
  -1   5   2   39.50    0.73
   0  -5  -2    1.10    0.06
   0  -5  -2    1.04    0.08
   0  -5  -2    1.01    0.08
   0   5   2    1.14    0.07
   0   5   2    1.09    0.09
   0   5   2    1.12    0.07
  -1  -5  -2    0.38    0.06
  -1  -5  -2    0.42    0.05
  -1  -5  -2    0.36    0.05
   1   5   2    0.38    0.05
   1   5   2    0.36    0.07
   1   5   2    0.54    0.06
  -2  -5  -2    4.84    0.17
  -2  -5  -2    4.77    0.15
  -2  -5  -2    5.08    0.16
   2   5   2    5.10    0.19
  -3  -5  -2    5.57    0.16
  -3  -5  -2    5.33    0.20
  -3  -5  -2    5.28    0.17
  -4  -5  -2    0.77    0.10
  -4  -5  -2    0.91    0.08
  -5  -5  -2    0.01    0.08
   6  -6  -2    0.64    0.14
  -6   6   2    0.43    0.10
   5  -6  -2    6.68    0.28
  -5   6   2    6.60    0.25
   4  -6  -2    1.51    0.11
   4  -6  -2    1.44    0.15
  -4   6   2    1.42    0.13
  -4   6   2    1.49    0.07
  -4   6   2    1.53    0.08
   3  -6  -2   13.09    0.32
  -3   6   2   13.05    0.34
  -3   6   2   13.06    0.29
  -3   6   2   12.81    0.29
   2  -6  -2    9.12    0.24
   2  -6  -2    9.34    0.24
  -2   6   2    8.61    0.23
  -2   6   2    9.48    0.27
  -2   6   2    8.88    0.22
   1  -6  -2   -0.07    0.03
   1  -6  -2   -0.03    0.04
  -1   6   2    0.05    0.06
  -1   6   2   -0.03    0.03
  -1   6   2    0.02    0.04
   0  -6  -2   21.06    0.41
   0  -6  -2   20.42    0.44
   0  -6  -2   20.56    0.44
   0   6   2   21.38    0.44
   0   6   2   21.30    0.43
   0   6   2   20.87    0.46
  -1  -6  -2    8.82    0.23
  -1  -6  -2    8.54    0.23
  -1  -6  -2    8.48    0.24
   1   6   2    8.38    0.22
   1   6   2    8.65    0.23
   1   6   2    8.36    0.26
  -2  -6  -2   -0.04    0.04
  -2  -6  -2    0.01    0.04
  -2  -6  -2    0.02    0.04
   2   6   2    0.02    0.06
  -3  -6  -2    1.84    0.10
  -3  -6  -2    1.88    0.11
  -3  -6  -2    1.75    0.14
  -4  -6  -2   -0.05    0.05
  -4  -6  -2    0.11    0.04
  -6   7   2    4.69    0.24
  -5   7   2    0.13    0.08
   4  -7  -2    5.74    0.21
  -4   7   2    6.09    0.17
  -4   7   2    5.92    0.24
  -4   7   2    5.98    0.18
   3  -7  -2    7.70    0.24
  -3   7   2    7.44    0.25
  -3   7   2    7.86    0.21
  -3   7   2    7.59    0.22
   2  -7  -2    0.16    0.06
   2  -7  -2    0.23    0.06
  -2   7   2    0.31    0.06
  -2   7   2    0.34    0.06
  -2   7   2    0.20    0.08
   1  -7  -2    0.03    0.05
   1  -7  -2    0.05    0.05
  -1   7   2    0.07    0.04
  -1   7   2    0.13    0.08
  -1   7   2   -0.03    0.04
   0  -7  -2    2.06    0.13
   0  -7  -2    2.18    0.13
   0  -7  -2    1.97    0.12
   0   7   2    2.09    0.12
   0   7   2    1.95    0.16
   0   7   2    2.03    0.11
  -1  -7  -2   10.39    0.27
  -1  -7  -2   10.27    0.26
  -1  -7  -2    9.81    0.27
   1   7   2   10.10    0.27
   1   7   2    9.93    0.27
   1   7   2   10.12    0.30
  -2  -7  -2    3.85    0.16
  -2  -7  -2    3.75    0.17
  -2  -7  -2    4.11    0.16
   2   7   2    4.12    0.19
  -3  -7  -2    0.12    0.07
  -3  -7  -2    0.16    0.05
  -4  -7  -2    0.15    0.08
  -4  -7  -2    0.15    0.05
  -5   8   2    1.41    0.15
   4  -8  -2    0.11    0.06
  -4   8   2    0.12    0.04
  -4   8   2    0.12    0.05
  -4   8   2   -0.04    0.07
   3  -8  -2    0.23    0.07
  -3   8   2    0.39    0.06
  -3   8   2    0.41    0.06
  -3   8   2    0.28    0.08
   2  -8  -2    1.13    0.10
  -2   8   2    1.07    0.09
  -2   8   2    1.08    0.09
  -2   8   2    1.22    0.13
   1  -8  -2    5.37    0.19
   1  -8  -2    5.46    0.20
  -1   8   2    5.26    0.18
  -1   8   2    5.18    0.22
  -1   8   2    5.05    0.18
   0  -8  -2    0.07    0.06
   0  -8  -2    0.11    0.05
   0   8   2    0.13    0.05
   0   8   2    0.08    0.05
   0   8   2    0.05    0.07
  -1  -8  -2    1.65    0.12
  -1  -8  -2    1.78    0.13
  -1  -8  -2    1.72    0.12
   1   8   2    1.66    0.11
   1   8   2    1.73    0.16
  -2  -8  -2    6.06    0.23
  -2  -8  -2    6.62    0.22
   2   8   2    6.35    0.24
  -3  -8  -2    0.15    0.07
  -3  -8  -2    0.26    0.07
  -5   9   2    5.43    0.27
  -5   9   2    5.15    0.18
   4  -9  -2    0.45    0.09
  -4   9   2    0.29    0.10
  -4   9   2    0.33    0.06
   3  -9  -2    0.55    0.10
  -3   9   2    0.65    0.08
  -3   9   2    0.91    0.13
  -2   9   2   -0.07    0.08
  -2   9   2    0.10    0.05
  -2   9   2    0.02    0.05
   1  -9  -2    6.81    0.23
   1  -9  -2    6.54    0.24
  -1   9   2    6.66    0.23
  -1   9   2    6.86    0.22
  -1   9   2    6.59    0.27
   0  -9  -2    0.18    0.07
   0  -9  -2    0.24    0.07
   0   9   2    0.15    0.09
   0   9   2    0.23    0.06
   0   9   2    0.19    0.06
  -1  -9  -2    1.21    0.11
   1   9   2    1.36    0.14
  -2  -9  -2    8.65    0.28
  -2  -9  -2    8.14    0.28
   2   9   2    8.43    0.30
  -3  -9  -2    9.29    0.32
  -3  -9  -2    8.90    0.29
   4 -10  -2    6.93    0.29
  -4  10   2    7.81    0.33
  -4  10   2    7.18    0.24
   3 -10  -2    2.44    0.18
  -3  10   2    2.50    0.15
  -3  10   2    2.50    0.21
  -2  10   2    1.22    0.12
  -2  10   2    1.08    0.14
   1 -10  -2    2.16    0.23
   1 -10  -2    2.07    0.15
  -1  10   2    2.40    0.15
  -1  10   2    2.28    0.19
   0 -10  -2    1.21    0.12
   0  10   2    1.25    0.12
   0  10   2    1.35    0.15
  -1 -10  -2    1.41    0.13
   1  10   2    1.12    0.14
  -2 -10  -2    4.78    0.22
  -4  11   2   -0.19    0.11
  -4  11   2    0.05    0.06
   3 -11  -2    5.82    0.27
  -3  11   2    5.68    0.23
  -3  11   2    5.64    0.30
  -2  11   2    0.04    0.10
  -2  11   2    0.09    0.06
   1 -11  -2    0.14    0.07
  -1  11   2    0.22    0.07
  -1  11   2    0.19    0.11
   0 -11  -2    2.45    0.17
   0  11   2    2.59    0.22
   0  11   2    2.69    0.17
  -1 -11  -2    4.35    0.22
   1  11   2    3.65    0.25
  -2  12   2    1.11    0.18
  -2  12   2    1.20    0.13
   1 -12  -2    0.07    0.08
  -1  12   2   -0.18    0.11
  -1  12   2    0.09    0.07
  -1  12  -3    0.66    0.15
  -1  12  -3    0.48    0.10
   1  11  -3    0.11    0.10
  -1 -11   3   -0.03    0.06
   0  11  -3    2.90    0.23
   0  11  -3    2.74    0.18
   0 -11   3    2.53    0.17
  -1  11  -3    3.47    0.24
  -1  11  -3    3.22    0.19
   1 -11   3    3.46    0.19
  -2  11  -3    3.04    0.18
  -2  11  -3    2.53    0.23
   2 -11   3    2.52    0.22
  -3  11  -3    5.81    0.24
  -3  11  -3    5.38    0.29
   3 -11   3    5.36    0.28
   2  10  -3    0.20    0.10
   2  10  -3   -0.08    0.11
  -2 -10   3    0.10    0.07
  -2 -10   3   -0.11    0.08
   1  10  -3    2.93    0.21
  -1 -10   3    3.16    0.18
   0  10  -3   10.57    0.32
   0  10  -3   10.04    0.35
   0 -10   3   10.91    0.32
  -1  10  -3   -0.03    0.09
  -1  10  -3   -0.06    0.05
   1 -10   3    0.04    0.06
   1 -10   3   -0.03    0.05
  -2  10  -3    0.94    0.13
  -2  10  -3    0.88    0.10
   2 -10   3    0.83    0.12
  -3  10  -3    0.10    0.06
  -3  10  -3   -0.12    0.09
   3 -10   3   -0.03    0.08
  -4  10  -3    2.21    0.14
  -4  10  -3    1.43    0.17
   4 -10   3    1.81    0.17
   3   9  -3    0.30    0.10
   3   9  -3    0.44    0.12
  -3  -9   3    0.33    0.08
  -3  -9   3    0.10    0.09
   2   9  -3    0.13    0.08
   2   9  -3    0.02    0.10
  -2  -9   3    0.03    0.08
  -2  -9   3    0.14    0.06
   1   9  -3    0.51    0.11
   1   9  -3    0.70    0.09
  -1  -9   3    0.55    0.09
  -1  -9   3    0.70    0.10
   0   9  -3    7.13    0.24
   0   9  -3    7.32    0.28
   0   9  -3    7.49    0.25
   0  -9   3    7.04    0.24
   0  -9   3    7.34    0.24
  -1   9  -3   32.13    0.72
  -1   9  -3   33.14    0.68
  -1   9  -3   32.65    0.69
   1  -9   3   33.31    0.69
   1  -9   3   32.91    0.69
  -2   9  -3    1.62    0.12
  -2   9  -3    1.64    0.16
  -2   9  -3    1.53    0.12
   2  -9   3    1.44    0.14
  -3   9  -3    3.05    0.15
  -3   9  -3    2.84    0.20
   3  -9   3    2.77    0.19
  -4   9  -3    4.64    0.18
  -4   9  -3    4.04    0.24
   4  -9   3    4.59    0.24
   5  -9   3    0.41    0.11
   4   8  -3    0.13    0.09
   4   8  -3    0.20    0.10
  -4  -8   3   -0.05    0.05
  -4  -8   3   -0.07    0.08
   3   8  -3    3.18    0.20
   3   8  -3    2.78    0.19
  -3  -8   3    2.57    0.18
  -3  -8   3    2.69    0.15
   2   8  -3    5.65    0.27
   2   8  -3    5.57    0.25
  -2  -8   3    5.54    0.23
  -2  -8   3    6.26    0.21
   1   8  -3    3.10    0.19
   1   8  -3    3.21    0.15
   1   8  -3    3.34    0.15
  -1  -8   3    3.27    0.15
  -1  -8   3    3.21    0.15
  -1  -8   3    3.07    0.16
   0   8  -3    5.78    0.24
   0   8  -3    5.81    0.20
   0   8  -3    5.92    0.20
   0  -8   3    5.92    0.20
   0  -8   3    5.87    0.20
   0  -8   3    5.90    0.20
  -1   8  -3    3.42    0.15
  -1   8  -3    3.36    0.20
  -1   8  -3    3.41    0.15
   1  -8   3    3.60    0.16
   1  -8   3    3.68    0.16
  -2   8  -3    4.30    0.17
  -2   8  -3    4.42    0.21
  -2   8  -3    3.91    0.16
   2  -8   3    4.57    0.20
  -3   8  -3    0.91    0.09
  -3   8  -3    0.84    0.08
  -3   8  -3    1.04    0.13
   3  -8   3    1.13    0.12
  -4   8  -3    3.54    0.15
  -4   8  -3    3.32    0.13
  -4   8  -3    3.25    0.21
   4  -8   3    3.35    0.19
   5  -8   3    1.58    0.16
   4   7  -3    0.66    0.12
   4   7  -3    0.45    0.10
  -4  -7   3    0.37    0.10
  -4  -7   3    0.27    0.06
   3   7  -3    0.08    0.07
   3   7  -3    0.17    0.09
  -3  -7   3    0.03    0.05
  -3  -7   3   -0.05    0.06
  -3  -7   3    0.06    0.04
   2   7  -3    0.02    0.07
   2   7  -3   -0.03    0.08
  -2  -7   3    0.07    0.06
  -2  -7   3    0.02    0.04
  -2  -7   3    0.01    0.04
   1   7  -3    0.44    0.07
   1   7  -3    0.15    0.08
   1   7  -3    0.37    0.06
  -1  -7   3    0.38    0.06
  -1  -7   3    0.28    0.06
  -1  -7   3    0.27    0.07
   0   7  -3    1.36    0.13
   0   7  -3    1.61    0.11
   0   7  -3    1.66    0.11
   0  -7   3    1.58    0.11
   0  -7   3    1.72    0.12
   0  -7   3    1.60    0.12
  -1   7  -3    1.23    0.13
  -1   7  -3    1.25    0.10
  -1   7  -3    1.31    0.10
   1  -7   3    1.18    0.09
   1  -7   3    1.24    0.10
   1  -7   3    1.49    0.11
  -2   7  -3   12.84    0.34
  -2   7  -3   12.21    0.30
  -2   7  -3   12.17    0.30
   2  -7   3   12.42    0.34
  -3   7  -3    5.62    0.22
  -3   7  -3    5.48    0.18
  -3   7  -3    5.54    0.17
   3  -7   3    5.89    0.23
  -4   7  -3    0.45    0.05
  -4   7  -3    0.55    0.06
   4  -7   3    0.51    0.10
   5  -7   3    0.11    0.08
   5   6  -3    0.19    0.10
  -5  -6   3    0.32    0.11
   4   6  -3    0.02    0.06
   4   6  -3   -0.05    0.07
  -4  -6   3   -0.05    0.06
  -4  -6   3    0.04    0.04
   3   6  -3    0.08    0.08
   3   6  -3    0.19    0.08
  -3  -6   3    0.06    0.04
  -3  -6   3    0.07    0.04
  -3  -6   3    0.15    0.07
   2   6  -3    0.46    0.10
   2   6  -3    0.35    0.09
  -2  -6   3    0.32    0.07
  -2  -6   3    0.25    0.05
  -2  -6   3    0.33    0.06
   1   6  -3    0.05    0.04
   1   6  -3   -0.06    0.07
   1   6  -3   -0.01    0.04
  -1  -6   3   -0.02    0.04
  -1  -6   3    0.02    0.04
  -1  -6   3    0.03    0.06
   0   6  -3    0.54    0.07
   0   6  -3    0.28    0.05
   0   6  -3    0.56    0.09
   0  -6   3    0.53    0.07
   0  -6   3    0.52    0.07
   0  -6   3    0.41    0.06
  -1   6  -3    0.02    0.03
  -1   6  -3   -0.02    0.04
  -1   6  -3    0.03    0.07
   1  -6   3    0.04    0.04
   1  -6   3    0.00    0.04
   1  -6   3   -0.01    0.05
  -2   6  -3    0.12    0.05
  -2   6  -3    0.18    0.05
  -2   6  -3    0.26    0.08
   2  -6   3    0.09    0.05
   2  -6   3    0.15    0.05
   2  -6   3    0.03    0.06
  -3   6  -3   10.10    0.24
  -3   6  -3    9.85    0.28
  -3   6  -3    9.66    0.23
   3  -6   3    9.30    0.29
  -4   6  -3    0.59    0.06
   4  -6   3    0.47    0.09
   5  -6   3    0.91    0.12
   6  -6   3    5.99    0.29
   5   5  -3    1.47    0.16
  -5  -5   3    0.97    0.13
   4   5  -3    0.06    0.07
  -4  -5   3   -0.13    0.06
  -4  -5   3    0.07    0.04
   3   5  -3    0.99    0.11
   3   5  -3    0.88    0.10
  -3  -5   3    1.05    0.10
  -3  -5   3    0.91    0.07
  -3  -5   3    0.96    0.08
   2   5  -3    9.19    0.29
   2   5  -3    9.09    0.27
   2   5  -3    8.77    0.26
  -2  -5   3    9.08    0.23
  -2  -5   3    9.03    0.25
  -2  -5   3    9.05    0.23
   1   5  -3    1.79    0.09
   1   5  -3    1.64    0.09
   1   5  -3    1.72    0.13
  -1  -5   3    1.79    0.09
  -1  -5   3    1.69    0.09
  -1  -5   3    2.06    0.11
   0   5  -3   41.41    0.79
   0   5  -3   40.62    0.77
   0   5  -3   41.64    0.77
   0  -5   3   41.91    0.76
   0  -5   3   41.80    0.77
   0  -5   3   42.53    0.77
  -1   5  -3    5.13    0.15
  -1   5  -3    4.79    0.15
  -1   5  -3    4.73    0.17
   1  -5   3    4.88    0.15
   1  -5   3    5.23    0.18
   1  -5   3    5.09    0.15
   1  -5   3    4.90    0.15
  -2   5  -3    3.94    0.13
  -2   5  -3    4.27    0.13
  -2   5  -3    4.24    0.16
   2  -5   3    4.11    0.17
   2  -5   3    4.29    0.13
   2  -5   3    4.11    0.14
   2  -5   3    4.22    0.14
  -3   5  -3    3.29    0.15
  -3   5  -3    3.30    0.12
  -3   5  -3    3.23    0.11
   3  -5   3    3.37    0.13
   3  -5   3    2.92    0.16
  -4   5  -3   14.77    0.30
   4  -5   3   14.38    0.39
   5  -5   3    0.18    0.08
   6  -5   3    0.77    0.13
   5   4  -3    0.72    0.12
  -5  -4   3    0.65    0.11
   4   4  -3    0.07    0.07
  -4  -4   3   -0.02    0.06
  -4  -4   3    0.08    0.03
   3   4  -3   32.17    0.67
   3   4  -3   32.31    0.69
  -3  -4   3   33.38    0.62
  -3  -4   3   32.71    0.60
  -3  -4   3   32.92    0.67
   2   4  -3   27.03    0.56
   2   4  -3   26.19    0.51
   2   4  -3   28.10    0.61
   2   4  -3   26.61    0.57
  -2  -4   3   26.63    0.52
  -2  -4   3   27.07    0.51
  -2  -4   3   26.94    0.54
   1   4  -3    4.14    0.13
   1   4  -3    4.19    0.15
   1   4  -3    4.07    0.13
  -1  -4   3    4.06    0.13
  -1  -4   3    3.94    0.14
  -1  -4   3    3.98    0.13
   0   4  -3   16.14    0.33
   0   4  -3   15.99    0.33
   0   4  -3   15.96    0.34
   0  -4   3   16.28    0.33
   0  -4   3   16.32    0.33
   0  -4   3   15.79    0.33
  -1   4  -3   42.31    0.77
  -1   4  -3   42.59    0.77
  -1   4  -3   41.82    0.78
   1  -4   3   43.59    0.76
   1  -4   3   43.26    0.79
   1  -4   3   42.66    0.77
   1  -4   3   42.91    0.77
  -2   4  -3   45.80    0.82
  -2   4  -3   44.68    0.83
  -2   4  -3   45.12    0.81
   2  -4   3   45.36    0.82
   2  -4   3   46.34    0.82
   2  -4   3   45.91    0.82
   2  -4   3   45.67    0.85
  -3   4  -3    0.07    0.05
  -3   4  -3    0.16    0.04
  -3   4  -3    0.17    0.03
   3  -4   3    0.12    0.04
   3  -4   3    0.08    0.06
  -4   4  -3    3.29    0.10
   4  -4   3    3.48    0.18
   5  -4   3   -0.08    0.06
   6  -4   3    1.11    0.14
   6   3  -3    0.51    0.12
  -6  -3   3    0.32    0.10
   5   3  -3    0.54    0.10
  -5  -3   3    0.47    0.09
   4   3  -3    7.23    0.26
  -4  -3   3    7.36    0.17
  -4  -3   3    7.55    0.24
   3   3  -3    0.01    0.07
  -3  -3   3    0.05    0.05
  -3  -3   3   -0.01    0.03
   2   3  -3  337.29    5.90
   2   3  -3  353.33    5.83
   2   3  -3  363.23    5.82
   2   3  -3  345.02    6.14
  -2  -3   3  350.29    5.86
  -2  -3   3  348.39    5.85
  -2  -3   3  353.26    5.88
   1   3  -3    0.48    0.06
   1   3  -3    0.46    0.04
   1   3  -3    0.49    0.04
  -1  -3   3    0.50    0.05
  -1  -3   3    0.54    0.05
  -1  -3   3    0.62    0.05
   0   3  -3   34.87    0.64
   0   3  -3   35.08    0.65
   0   3  -3   35.89    0.64
   0  -3   3   36.28    0.64
   0  -3   3   34.80    0.64
   0  -3   3   36.57    0.64
  -1   3  -3   30.52    0.57
  -1   3  -3   31.88    0.57
  -1   3  -3   31.69    0.57
   1  -3   3   31.62    0.57
   1  -3   3   31.77    0.59
   1  -3   3   31.37    0.57
   1  -3   3   31.35    0.57
  -2   3  -3    0.58    0.05
  -2   3  -3    0.60    0.05
  -2   3  -3    0.52    0.05
  -2   3  -3    0.56    0.05
   2  -3   3    0.52    0.06
   2  -3   3    0.47    0.04
   2  -3   3    0.52    0.05
   2  -3   3    0.60    0.05
  -3   3  -3    0.45    0.04
  -3   3  -3    0.42    0.06
  -3   3  -3    0.51    0.04
   3  -3   3    0.44    0.06
   3  -3   3    0.45    0.07
   4  -3   3    1.95    0.14
   5  -3   3    4.05    0.20
   6  -3   3    0.99    0.14
   6   2  -3    0.26    0.10
  -6  -2   3    0.02    0.07
   5   2  -3   14.10    0.41
  -5  -2   3   14.53    0.38
   4   2  -3    9.35    0.30
  -4  -2   3    9.96    0.27
   3   2  -3   14.59    0.37
  -3  -2   3   15.12    0.29
  -3  -2   3   14.74    0.34
  -3  -2   3   15.00    0.28
   2   2  -3    0.28    0.05
   2   2  -3    0.32    0.04
   2   2  -3    0.27    0.04
   2   2  -3    0.19    0.06
  -2  -2   3    0.31    0.05
  -2  -2   3    0.31    0.03
  -2  -2   3    0.28    0.03
  -2  -2   3    0.37    0.04
   1   2  -3   55.69    0.99
   1   2  -3   55.43    0.98
   1   2  -3   56.81    0.96
   1   2  -3   55.93    0.96
  -1  -2   3   56.05    0.96
  -1  -2   3   54.14    0.97
  -1  -2   3   54.70    0.96
   0   2  -3    6.38    0.15
   0   2  -3    6.33    0.15
   0  -2   3    6.39    0.15
   0  -2   3    6.37    0.15
   0  -2   3    6.27    0.15
  -1   2  -3   18.35    0.34
  -1   2  -3   17.99    0.34
  -1   2  -3   18.25    0.34
   1  -2   3   18.16    0.34
   1  -2   3   17.98    0.34
   1  -2   3   18.18    0.36
   1  -2   3   18.00    0.35
  -2   2  -3    0.09    0.02
  -2   2  -3    0.12    0.03
  -2   2  -3    0.09    0.02
  -2   2  -3    0.08    0.02
   2  -2   3    0.05    0.03
   2  -2   3    0.10    0.04
   2  -2   3    0.08    0.02
  -3   2  -3    1.08    0.04
  -3   2  -3    1.14    0.07
  -3   2  -3    1.10    0.05
   3  -2   3    1.10    0.10
   4  -2   3    2.14    0.14
   4  -2   3    2.12    0.14
   5  -2   3    0.83    0.11
   6  -2   3    1.09    0.14
   6   1  -3    1.79    0.18
  -6  -1   3    1.39    0.14
  -6  -1   3    1.59    0.14
   5   1  -3    0.15    0.08
  -5  -1   3    0.29    0.07
   4   1  -3    6.65    0.24
   4   1  -3    6.78    0.21
  -4  -1   3    6.50    0.21
   3   1  -3    0.71    0.07
   3   1  -3    0.57    0.08
  -3  -1   3    0.68    0.04
  -3  -1   3    0.73    0.04
  -3  -1   3    0.72    0.07
   2   1  -3   -0.01    0.02
   2   1  -3    0.03    0.04
  -2  -1   3    0.00    0.02
  -2  -1   3    0.02    0.02
  -2  -1   3    0.00    0.03
  -2  -1   3    0.00    0.02
   1   1  -3    8.71    0.20
   1   1  -3    8.83    0.18
   1   1  -3    8.57    0.18
   1   1  -3    8.54    0.19
  -1  -1   3    8.69    0.18
  -1  -1   3    8.67    0.18
  -1  -1   3    8.60    0.19
  -1  -1   3    8.57    0.18
   0   1  -3   11.94    0.24
   0   1  -3   11.71    0.23
   0   1  -3   11.88    0.23
   0  -1   3   11.68    0.24
   0  -1   3   11.67    0.23
   0  -1   3   12.06    0.23
  -1   1  -3   14.27    0.28
  -1   1  -3   14.50    0.28
  -1   1  -3   14.10    0.28
   1  -1   3   14.31    0.29
   1  -1   3   14.70    0.29
   1  -1   3   14.28    0.28
  -2   1  -3    1.40    0.06
  -2   1  -3    1.41    0.06
  -2   1  -3    1.44    0.05
  -2   1  -3    1.38    0.05
   2  -1   3    1.39    0.06
   2  -1   3    1.35    0.08
   2  -1   3    1.34    0.08
  -3   1  -3    0.32    0.03
   3  -1   3    0.36    0.06
   3  -1   3    0.16    0.06
   4  -1   3    3.18    0.17
   4  -1   3    3.00    0.15
   5  -1   3    3.22    0.19
  -6   1  -3   -0.01    0.06
   6  -1   3   -0.04    0.09
   6   0  -3    3.01    0.22
  -6   0   3    3.15    0.18
   5   0  -3    1.42    0.14
  -5   0   3    1.24    0.11
  -5   0   3    1.57    0.13
   4   0  -3    0.03    0.07
   4   0  -3    0.15    0.06
  -4   0   3    0.08    0.05
   3   0  -3    0.43    0.05
   3   0  -3    0.38    0.07
  -3   0   3    0.45    0.05
  -3   0   3    0.36    0.03
   2   0  -3    7.11    0.20
   2   0  -3    7.44    0.16
   2   0  -3    7.43    0.16
  -2   0   3    7.16    0.15
  -2   0   3    7.44    0.15
  -2   0   3    7.49    0.15
  -2   0   3    7.20    0.17
   1   0  -3   18.12    0.35
   1   0  -3   17.32    0.33
   1   0  -3   18.23    0.33
  -1   0   3   17.97    0.33
  -1   0   3   17.74    0.33
  -1   0   3   17.51    0.33
  -1   0   3   18.27    0.33
   0   0  -3    6.32    0.14
   0   0  -3    6.10    0.14
   0   0  -3    5.98    0.13
   0   0   3    6.48    0.13
   0   0   3    6.06    0.14
   0   0   3    6.22    0.14
   0   0   3    6.30    0.14
  -1   0  -3   27.93    0.51
  -1   0  -3   27.85    0.51
   1   0   3   28.61    0.52
   1   0   3   27.80    0.52
   1   0   3   29.47    0.51
   1   0   3   29.50    0.51
  -2   0  -3    5.96    0.12
  -2   0  -3    6.11    0.13
  -2   0  -3    6.38    0.14
  -2   0  -3    6.17    0.14
   2   0   3    6.38    0.15
   2   0   3    6.18    0.14
  -3   0  -3   20.48    0.37
   3   0   3   20.46    0.42
   3   0   3   20.36    0.45
   4   0   3    7.24    0.25
   5   0   3    8.00    0.30
  -6   0  -3    3.17    0.18
   6   0   3    2.92    0.22
   6  -1  -3    2.87    0.21
  -6   1   3    2.82    0.17
   5  -1  -3    1.15    0.13
  -5   1   3    1.28    0.11
   4  -1  -3    1.08    0.10
   4  -1  -3    1.19    0.12
  -4   1   3    0.99    0.09
  -4   1   3    1.07    0.10
   3  -1  -3   17.62    0.40
   3  -1  -3   18.53    0.36
  -3   1   3   18.17    0.33
  -3   1   3   18.17    0.39
  -3   1   3   18.26    0.36
   2  -1  -3    1.04    0.05
   2  -1  -3    1.01    0.08
   2  -1  -3    1.21    0.05
  -2   1   3    1.15    0.05
  -2   1   3    1.19    0.06
  -2   1   3    1.06    0.05
  -2   1   3    1.17    0.05
  -2   1   3    1.12    0.07
   1  -1  -3    3.33    0.10
   1  -1  -3    3.41    0.09
   1  -1  -3    3.29    0.09
  -1   1   3    3.26    0.10
  -1   1   3    3.26    0.09
  -1   1   3    3.46    0.09
  -1   1   3    3.45    0.09
  -1   1   3    3.40    0.09
   0  -1  -3   33.37    0.60
   0  -1  -3   33.80    0.60
   0   1   3   33.34    0.60
   0   1   3   34.76    0.59
   0   1   3   35.06    0.59
   0   1   3   34.30    0.60
  -1  -1  -3   11.59    0.24
  -1  -1  -3   11.77    0.24
  -1  -1  -3   11.56    0.23
   1   1   3   11.87    0.25
   1   1   3   12.15    0.24
   1   1   3   11.67    0.25
   1   1   3   12.16    0.24
  -2  -1  -3   27.13    0.50
  -2  -1  -3   27.31    0.49
  -2  -1  -3   28.22    0.50
   2   1   3   28.32    0.50
   2   1   3   26.71    0.54
   2   1   3   28.27    0.50
  -3  -1  -3    4.24    0.11
  -3  -1  -3    4.31    0.10
   3   1   3    4.17    0.18
   4   1   3   61.08    1.17
   5   1   3    5.55    0.25
  -6  -1  -3    1.21    0.13
   6   1   3    0.90    0.15
   6  -2  -3   -0.01    0.09
  -6   2   3    0.18    0.07
   5  -2  -3    0.08    0.07
  -5   2   3    0.07    0.05
   4  -2  -3    0.94    0.08
   4  -2  -3    0.83    0.10
  -4   2   3    1.12    0.10
   3  -2  -3    8.86    0.20
   3  -2  -3    8.59    0.25
  -3   2   3    8.79    0.18
  -3   2   3    8.71    0.19
  -3   2   3    8.30    0.23
  -3   2   3    9.10    0.17
   2  -2  -3   23.65    0.43
   2  -2  -3   23.40    0.47
   2  -2  -3   23.34    0.42
   2  -2  -3   23.84    0.43
  -2   2   3   22.85    0.42
  -2   2   3   22.51    0.46
  -2   2   3   23.77    0.43
  -2   2   3   22.88    0.43
  -2   2   3   23.86    0.43
   1  -2  -3   67.23    1.14
   1  -2  -3   65.94    1.14
   1  -2  -3   67.57    1.15
  -1   2   3   65.85    1.14
  -1   2   3   67.15    1.12
  -1   2   3   64.80    1.14
  -1   2   3   66.95    1.15
   0  -2  -3   17.74    0.34
   0  -2  -3   17.62    0.34
   0   2   3   17.78    0.34
   0   2   3   17.92    0.34
   0   2   3   17.79    0.33
   0   2   3   17.34    0.33
  -1  -2  -3   88.99    1.53
  -1  -2  -3   88.79    1.53
   1   2   3   90.85    1.51
   1   2   3   88.89    1.55
   1   2   3   90.41    1.53
   1   2   3   90.26    1.53
  -2  -2  -3    5.49    0.14
  -2  -2  -3    5.42    0.14
   2   2   3    5.39    0.18
   2   2   3    5.53    0.13
   2   2   3    5.77    0.14
   2   2   3    5.68    0.14
  -3  -2  -3    0.80    0.06
  -3  -2  -3    0.84    0.05
   3   2   3    0.81    0.10
   4   2   3   13.11    0.37
  -5  -2  -3    3.49    0.18
   5   2   3    3.14    0.21
   6  -3  -3    0.71    0.13
  -6   3   3    0.58    0.10
   5  -3  -3   22.87    0.57
  -5   3   3   23.90    0.54
   4  -3  -3   19.62    0.47
   4  -3  -3   19.21    0.41
  -4   3   3   20.02    0.45
  -4   3   3   19.12    0.35
   3  -3  -3   11.90    0.31
   3  -3  -3   12.10    0.26
  -3   3   3   11.71    0.24
  -3   3   3   12.32    0.24
  -3   3   3   12.24    0.30
   2  -3  -3   60.16    1.03
   2  -3  -3   59.69    1.03
   2  -3  -3   59.12    1.02
   2  -3  -3   58.03    1.06
  -2   3   3   59.58    1.06
  -2   3   3   56.42    0.99
  -2   3   3   59.01    1.02
  -2   3   3   59.39    1.02
  -2   3   3   58.22    1.02
   1  -3  -3    0.92    0.06
   1  -3  -3    0.99    0.06
   1  -3  -3    1.03    0.07
  -1   3   3    1.09    0.07
  -1   3   3    0.93    0.06
  -1   3   3    1.02    0.04
  -1   3   3    0.91    0.06
   0  -3  -3    2.83    0.10
   0  -3  -3    2.78    0.10
   0   3   3    2.89    0.10
   0   3   3    2.82    0.10
  -1  -3  -3    4.66    0.14
  -1  -3  -3    4.76    0.14
   1   3   3    5.20    0.14
   1   3   3    5.02    0.14
   1   3   3    4.92    0.14
   1   3   3    5.00    0.11
  -2  -3  -3   55.48    1.01
  -2  -3  -3   56.47    1.01
   2   3   3   57.99    1.01
   2   3   3   58.55    1.06
   2   3   3   58.45    1.02
  -3  -3  -3    0.08    0.04
  -3  -3  -3    0.06    0.03
   3   3   3    0.17    0.08
  -4  -3  -3    1.25    0.11
   4   3   3    1.02    0.13
  -5  -3  -3    0.07    0.06
   5   3   3   -0.05    0.09
   6  -4  -3    6.12    0.29
  -6   4   3    6.14    0.26
   5  -4  -3    2.37    0.18
  -5   4   3    2.56    0.16
   4  -4  -3    0.16    0.08
   4  -4  -3    0.02    0.04
  -4   4   3    0.03    0.05
  -4   4   3    0.07    0.03
   3  -4  -3   11.36    0.31
   3  -4  -3   11.21    0.26
  -3   4   3   11.22    0.29
  -3   4   3   10.88    0.24
  -3   4   3   11.17    0.24
   2  -4  -3   11.89    0.26
   2  -4  -3   11.76    0.26
   2  -4  -3   11.48    0.26
   2  -4  -3   11.77    0.29
  -2   4   3   11.69    0.25
  -2   4   3   12.01    0.28
  -2   4   3   11.34    0.25
   1  -4  -3   39.45    0.71
   1  -4  -3   39.40    0.71
  -1   4   3   38.40    0.71
  -1   4   3   40.31    0.72
  -1   4   3   37.77    0.71
   0  -4  -3    1.46    0.08
   0  -4  -3    1.36    0.08
   0   4   3    1.47    0.08
   0   4   3    1.44    0.07
   0   4   3    1.23    0.08
  -1  -4  -3    2.57    0.11
  -1  -4  -3    2.58    0.10
   1   4   3    2.46    0.10
   1   4   3    2.47    0.10
   1   4   3    2.59    0.12
  -2  -4  -3    6.57    0.18
  -2  -4  -3    6.37    0.18
   2   4   3    6.44    0.18
  -3  -4  -3    0.01    0.03
  -3  -4  -3    0.13    0.04
  -4  -4  -3    3.06    0.13
  -4  -4  -3    2.92    0.17
  -5  -4  -3    3.39    0.20
   6  -5  -3    2.07    0.20
  -6   5   3    2.86    0.19
   5  -5  -3    0.82    0.13
  -5   5   3    0.88    0.11
   4  -5  -3   31.13    0.69
   4  -5  -3   30.65    0.68
  -4   5   3   30.69    0.56
  -4   5   3   30.85    0.66
  -4   5   3   32.10    0.58
   3  -5  -3   10.07    0.25
   3  -5  -3   10.10    0.30
  -3   5   3   10.26    0.28
  -3   5   3   10.19    0.23
  -3   5   3   10.11    0.23
   2  -5  -3    1.18    0.08
   2  -5  -3    1.15    0.08
   2  -5  -3    1.17    0.11
  -2   5   3    1.13    0.07
  -2   5   3    1.13    0.10
  -2   5   3    1.08    0.07
   1  -5  -3   15.29    0.33
   1  -5  -3   15.11    0.29
   1  -5  -3   15.23    0.33
  -1   5   3   15.29    0.34
  -1   5   3   15.30    0.33
  -1   5   3   15.12    0.33
   0  -5  -3    7.08    0.20
   0  -5  -3    7.63    0.20
   0   5   3    7.74    0.20
   0   5   3    7.53    0.21
   0   5   3    7.16    0.19
  -1  -5  -3    0.03    0.04
  -1  -5  -3    0.04    0.04
   1   5   3    0.03    0.03
   1   5   3   -0.04    0.03
   1   5   3    0.06    0.06
  -2  -5  -3    0.65    0.07
  -2  -5  -3    0.58    0.07
  -2  -5  -3    0.63    0.07
   2   5   3    0.56    0.08
  -3  -5  -3    0.12    0.06
  -3  -5  -3    0.03    0.04
  -3  -5  -3    0.07    0.04
  -4  -5  -3    0.32    0.05
  -4  -5  -3    0.30    0.08
  -5  -5  -3    6.17    0.28
   6  -6  -3    1.43    0.17
  -6   6   3    1.35    0.14
   5  -6  -3    0.32    0.11
  -5   6   3    0.40    0.09
   4  -6  -3   12.09    0.36
  -4   6   3   11.67    0.27
  -4   6   3   11.83    0.34
  -4   6   3   11.69    0.26
   3  -6  -3   11.50    0.30
  -3   6   3   11.93    0.28
  -3   6   3   11.61    0.27
  -3   6   3   11.76    0.32
   2  -6  -3   10.54    0.27
   2  -6  -3   11.12    0.27
  -2   6   3   10.49    0.26
  -2   6   3   10.91    0.29
  -2   6   3   10.35    0.26
   1  -6  -3    0.82    0.08
   1  -6  -3    0.85    0.08
  -1   6   3    0.93    0.08
  -1   6   3    0.86    0.09
  -1   6   3    0.94    0.08
   0  -6  -3    4.11    0.16
   0  -6  -3    4.17    0.13
   0  -6  -3    4.29    0.16
   0   6   3    4.04    0.15
   0   6   3    3.97    0.15
   0   6   3    4.29    0.18
  -1  -6  -3   17.75    0.39
  -1  -6  -3   17.21    0.39
  -1  -6  -3   17.41    0.40
   1   6   3   17.64    0.39
   1   6   3   18.32    0.39
   1   6   3   17.61    0.41
  -2  -6  -3    8.44    0.24
  -2  -6  -3    8.42    0.23
  -2  -6  -3    8.31    0.25
   2   6   3    8.84    0.34
  -3  -6  -3    4.18    0.16
  -3  -6  -3    4.06    0.18
  -3  -6  -3    4.35    0.15
  -4  -6  -3    2.32    0.12
  -4  -6  -3    2.63    0.18
   6  -7  -3    0.12    0.13
  -6   7   3    0.20    0.10
   5  -7  -3    0.64    0.14
  -5   7   3    0.62    0.10
  -4   7   3    2.75    0.11
  -4   7   3    2.79    0.12
  -4   7   3    2.62    0.17
   3  -7  -3   10.57    0.28
  -3   7   3   10.28    0.26
  -3   7   3   10.06    0.26
  -3   7   3    9.85    0.31
   2  -7  -3   27.68    0.57
   2  -7  -3   28.47    0.57
  -2   7   3   26.50    0.56
  -2   7   3   28.08    0.56
  -2   7   3   27.26    0.59
   1  -7  -3    0.79    0.08
   1  -7  -3    0.67    0.08
  -1   7   3    0.73    0.07
  -1   7   3    0.70    0.10
  -1   7   3    0.72    0.08
   0  -7  -3    0.42    0.07
   0  -7  -3    0.44    0.07
   0   7   3    0.37    0.09
   0   7   3    0.52    0.07
   0   7   3    0.22    0.05
  -1  -7  -3   16.52    0.38
  -1  -7  -3   16.97    0.39
  -1  -7  -3   16.96    0.39
   1   7   3   16.51    0.40
   1   7   3   16.42    0.40
   1   7   3   15.87    0.38
  -2  -7  -3   26.12    0.56
  -2  -7  -3   25.71    0.55
  -2  -7  -3   25.88    0.56
  -3  -7  -3    0.02    0.06
  -3  -7  -3   -0.01    0.04
  -4  -7  -3    0.00    0.05
  -4  -7  -3    0.07    0.08
  -5   8   3    0.25    0.10
  -5   8   3    0.28    0.05
  -4   8   3    5.21    0.24
  -4   8   3    5.74    0.18
  -4   8   3    5.37    0.18
   3  -8  -3    1.38    0.12
  -3   8   3    1.38    0.10
  -3   8   3    1.56    0.10
  -3   8   3    1.18    0.12
   2  -8  -3    0.46    0.07
  -2   8   3    0.61    0.10
  -2   8   3    0.39    0.06
  -2   8   3    0.42    0.07
   1  -8  -3   10.97    0.30
   1  -8  -3   11.09    0.30
  -1   8   3   10.92    0.29
  -1   8   3   10.90    0.29
  -1   8   3   10.77    0.33
   0  -8  -3    6.08    0.21
   0  -8  -3    6.08    0.21
   0   8   3    6.08    0.21
   0   8   3    6.02    0.21
   0   8   3    6.50    0.24
  -1  -8  -3    1.35    0.12
  -1  -8  -3    1.57    0.12
   1   8   3    1.46    0.13
  -2  -8  -3    1.01    0.11
  -2  -8  -3    0.83    0.10
  -3  -8  -3    7.99    0.26
  -3  -8  -3    7.96    0.29
  -5   9   3    2.89    0.22
  -5   9   3    3.11    0.14
  -4   9   3    0.32    0.06
  -4   9   3    0.28    0.10
   3  -9  -3    0.93    0.11
  -3   9   3    0.99    0.10
  -3   9   3    0.70    0.12
  -2   9   3    0.87    0.10
  -2   9   3    0.91    0.13
  -2   9   3    1.08    0.11
   1  -9  -3    0.66    0.09
   1  -9  -3    0.56    0.09
  -1   9   3    0.60    0.08
  -1   9   3    0.65    0.11
  -1   9   3    0.55    0.08
   0  -9  -3   12.60    0.37
   0  -9  -3   14.01    0.37
   0   9   3   13.61    0.35
   0   9   3   13.57    0.36
   0   9   3   13.53    0.39
  -1  -9  -3    2.40    0.16
   1   9   3    2.79    0.19
  -2  -9  -3    3.29    0.18
  -3  -9  -3    0.30    0.09
  -3  -9  -3    0.45    0.09
  -4  10   3    3.10    0.16
  -4  10   3    2.64    0.23
   3 -10  -3    0.82    0.12
  -3  10   3    0.89    0.14
  -3  10   3    1.05    0.11
  -2  10   3    0.81    0.14
  -2  10   3    1.06    0.11
   1 -10  -3    0.36    0.08
  -1  10   3    0.32    0.11
  -1  10   3    0.22    0.07
   0 -10  -3    4.56    0.21
   0  10   3    4.63    0.20
   0  10   3    5.07    0.26
  -1 -10  -3    0.13    0.07
   1  10   3    0.07    0.10
  -2 -10  -3    5.00    0.23
  -3  11   3   -0.01    0.11
  -3  11   3    0.29    0.08
  -2  11   3    0.09    0.11
  -2  11   3    0.11    0.06
   1 -11  -3    0.11    0.07
  -1  11   3    0.20    0.07
  -1  11   3    0.08    0.11
   0 -11  -3    1.79    0.16
   0  11   3    1.54    0.15
   0  11   3    1.86    0.19
  -1 -11  -3    0.56    0.11
   1  11  -4    0.19    0.11
  -1 -11   4    0.01    0.07
   0  11  -4   13.08    0.39
   0  11  -4   12.63    0.43
   0 -11   4   12.98    0.39
  -1  11  -4   -0.10    0.06
  -1  11  -4   -0.16    0.10
   1 -11   4    0.16    0.10
  -2  11  -4    0.66    0.15
  -2  11  -4    1.01    0.12
   2 -11   4    0.99    0.14
  -3  11  -4    0.20    0.07
  -3  11  -4   -0.13    0.11
   3 -11   4    0.16    0.10
   2  10  -4    0.77    0.13
   2  10  -4    0.93    0.17
  -2 -10   4    0.97    0.11
  -2 -10   4    1.05    0.14
   1  10  -4    1.06    0.14
  -1 -10   4    1.07    0.12
  -1 -10   4    0.93    0.12
   0  10  -4    0.26    0.08
   0  10  -4    0.30    0.10
   0 -10   4    0.41    0.09
  -1  10  -4    2.29    0.15
  -1  10  -4    2.30    0.20
   1 -10   4    2.18    0.15
  -2  10  -4    0.01    0.09
  -2  10  -4    0.08    0.06
   2 -10   4    0.11    0.09
  -3  10  -4    5.07    0.26
  -3  10  -4    4.93    0.21
   3 -10   4    5.04    0.26
  -4  10  -4    0.71    0.10
   4 -10   4    0.78    0.13
   3   9  -4    0.34    0.11
   3   9  -4    0.59    0.13
  -3  -9   4    0.36    0.11
  -3  -9   4    0.32    0.08
   2   9  -4    0.07    0.08
   2   9  -4   -0.17    0.09
  -2  -9   4    0.01    0.08
  -2  -9   4   -0.09    0.05
   1   9  -4    5.13    0.23
   1   9  -4    4.95    0.24
  -1  -9   4    5.12    0.22
  -1  -9   4    5.47    0.21
   0   9  -4    6.23    0.26
   0   9  -4    5.93    0.22
   0   9  -4    5.83    0.22
   0  -9   4    5.56    0.22
   0  -9   4    6.07    0.23
   0  -9   4    6.30    0.22
  -1   9  -4    1.31    0.14
  -1   9  -4    1.20    0.11
  -1   9  -4    0.98    0.10
   1  -9   4    1.10    0.11
   1  -9   4    1.36    0.12
  -2   9  -4    0.38    0.07
  -2   9  -4    0.50    0.11
   2  -9   4    0.30    0.09
  -3   9  -4   -0.10    0.09
  -3   9  -4   -0.04    0.05
   3  -9   4    0.02    0.07
  -4   9  -4    0.10    0.06
   4  -9   4    0.13    0.08
   4   8  -4    0.97    0.15
   4   8  -4    0.92    0.14
  -4  -8   4    0.86    0.09
  -4  -8   4    0.91    0.14
   3   8  -4    0.11    0.08
   3   8  -4    0.12    0.09
  -3  -8   4    0.06    0.06
  -3  -8   4    0.00    0.08
   2   8  -4   -0.14    0.09
   2   8  -4    0.03    0.07
  -2  -8   4    0.04    0.05
  -2  -8   4    0.01    0.07
   1   8  -4    2.05    0.13
   1   8  -4    2.28    0.18
   1   8  -4    2.29    0.14
  -1  -8   4    2.22    0.13
  -1  -8   4    2.03    0.15
  -1  -8   4    1.89    0.13
   0   8  -4    8.46    0.25
   0   8  -4    7.93    0.25
   0   8  -4    8.13    0.28
   0  -8   4    8.48    0.25
   0  -8   4    8.15    0.25
   0  -8   4    8.07    0.25
  -1   8  -4    9.96    0.28
  -1   8  -4   10.58    0.32
  -1   8  -4    9.95    0.28
   1  -8   4   10.12    0.29
   1  -8   4    9.41    0.28
  -2   8  -4    0.51    0.08
  -2   8  -4    0.49    0.10
  -2   8  -4    0.51    0.07
   2  -8   4    0.42    0.09
  -3   8  -4    1.71    0.15
  -3   8  -4    1.73    0.11
  -3   8  -4    1.60    0.11
   3  -8   4    1.71    0.16
  -4   8  -4    1.50    0.11
   4  -8   4    1.25    0.14
   5  -8   4   12.89    0.42
   4   7  -4    0.36    0.10
   4   7  -4    0.33    0.11
  -4  -7   4    0.01    0.08
  -4  -7   4    0.11    0.06
   3   7  -4    1.36    0.14
   3   7  -4    1.50    0.16
  -3  -7   4    1.40    0.11
  -3  -7   4    1.64    0.14
   2   7  -4    1.94    0.18
   2   7  -4    2.01    0.16
  -2  -7   4    2.24    0.12
  -2  -7   4    2.23    0.12
  -2  -7   4    2.09    0.15
   1   7  -4    0.12    0.05
   1   7  -4    0.12    0.07
   1   7  -4    0.08    0.05
  -1  -7   4    0.13    0.07
  -1  -7   4    0.07    0.05
  -1  -7   4    0.17    0.05
   0   7  -4    1.41    0.11
   0   7  -4    1.45    0.10
   0   7  -4    1.83    0.16
   0  -7   4    1.59    0.13
   0  -7   4    1.50    0.11
   0  -7   4    1.53    0.11
  -1   7  -4   13.80    0.37
  -1   7  -4   13.54    0.33
  -1   7  -4   12.84    0.33
   1  -7   4   13.82    0.33
   1  -7   4   13.76    0.32
   1  -7   4   13.05    0.33
  -2   7  -4    3.01    0.17
  -2   7  -4    3.00    0.13
  -2   7  -4    3.06    0.14
   2  -7   4    2.89    0.17
  -3   7  -4    3.33    0.14
  -3   7  -4    3.43    0.19
  -3   7  -4    3.33    0.14
   3  -7   4    3.29    0.19
  -4   7  -4   -0.02    0.04
  -4   7  -4    0.03    0.04
   4  -7   4    0.06    0.07
   5  -7   4    0.74    0.12
   5   6  -4    0.65    0.13
  -5  -6   4    0.82    0.14
   4   6  -4    2.65    0.20
  -4  -6   4    2.49    0.12
  -4  -6   4    2.34    0.18
   3   6  -4    2.83    0.18
   3   6  -4    2.96    0.19
  -3  -6   4    2.70    0.12
  -3  -6   4    2.96    0.17
  -3  -6   4    2.79    0.13
   2   6  -4    4.42    0.20
   2   6  -4    4.33    0.22
  -2  -6   4    4.42    0.16
  -2  -6   4    4.29    0.18
  -2  -6   4    4.31    0.16
   1   6  -4    1.51    0.13
   1   6  -4    1.44    0.11
   1   6  -4    1.65    0.10
  -1  -6   4    1.56    0.10
  -1  -6   4    1.65    0.12
  -1  -6   4    1.55    0.11
   0   6  -4    0.36    0.06
   0   6  -4    0.49    0.07
   0   6  -4    0.44    0.09
   0  -6   4    0.50    0.07
   0  -6   4    0.43    0.07
   0  -6   4    0.38    0.06
  -1   6  -4   34.05    0.66
  -1   6  -4   33.33    0.66
  -1   6  -4   33.63    0.68
   1  -6   4   34.67    0.66
   1  -6   4   34.61    0.65
   1  -6   4   33.53    0.68
   1  -6   4   33.45    0.66
  -2   6  -4    1.78    0.15
  -2   6  -4    1.72    0.10
  -2   6  -4    1.62    0.10
   2  -6   4    1.82    0.11
   2  -6   4    1.94    0.15
   2  -6   4    1.78    0.14
  -3   6  -4    3.45    0.13
  -3   6  -4    3.32    0.13
  -3   6  -4    3.37    0.17
   3  -6   4    3.21    0.17
  -4   6  -4    0.47    0.06
   4  -6   4    0.43    0.09
   5  -6   4    1.14    0.13
   5   5  -4    2.06    0.20
  -5  -5   4    2.22    0.18
   4   5  -4    1.66    0.16
  -4  -5   4    1.63    0.10
  -4  -5   4    1.67    0.14
   3   5  -4   23.96    0.57
  -3  -5   4   25.37    0.55
  -3  -5   4   24.87    0.50
  -3  -5   4   24.84    0.49
   2   5  -4    7.43    0.26
   2   5  -4    7.04    0.24
  -2  -5   4    6.85    0.20
  -2  -5   4    6.95    0.23
  -2  -5   4    6.83    0.20
   1   5  -4   22.10    0.45
   1   5  -4   22.24    0.45
   1   5  -4   21.23    0.47
  -1  -5   4   21.70    0.45
  -1  -5   4   22.13    0.45
  -1  -5   4   22.00    0.46
   0   5  -4   17.28    0.37
   0   5  -4   16.86    0.38
   0   5  -4   17.44    0.37
   0  -5   4   16.89    0.37
   0  -5   4   17.41    0.37
   0  -5   4   17.61    0.37
  -1   5  -4   18.04    0.38
  -1   5  -4   17.65    0.38
  -1   5  -4   18.12    0.40
   1  -5   4   18.02    0.38
   1  -5   4   18.81    0.38
   1  -5   4   17.76    0.40
   1  -5   4   18.72    0.39
  -2   5  -4    0.93    0.09
  -2   5  -4    0.87    0.07
  -2   5  -4    1.02    0.08
   2  -5   4    0.82    0.07
   2  -5   4    0.94    0.08
   2  -5   4    0.99    0.10
  -3   5  -4    3.15    0.11
  -3   5  -4    3.23    0.12
   3  -5   4    3.16    0.16
   3  -5   4    3.10    0.13
  -4   5  -4    1.91    0.09
   4  -5   4    1.99    0.15
   5  -5   4    0.16    0.08
   6  -5   4    0.02    0.08
   5   4  -4    2.66    0.20
  -5  -4   4    2.76    0.18
   4   4  -4    2.82    0.18
  -4  -4   4    2.99    0.17
  -4  -4   4    2.81    0.11
   3   4  -4    0.52    0.10
   3   4  -4    0.67    0.09
  -3  -4   4    0.69    0.07
  -3  -4   4    0.63    0.06
  -3  -4   4    0.69    0.09
   2   4  -4    8.97    0.26
   2   4  -4    8.83    0.27
   2   4  -4    8.99    0.22
  -2  -4   4    9.07    0.22
  -2  -4   4    8.97    0.25
  -2  -4   4    8.60    0.22
   1   4  -4   12.83    0.29
   1   4  -4   12.93    0.29
   1   4  -4   12.86    0.31
  -1  -4   4   13.24    0.29
  -1  -4   4   12.76    0.28
  -1  -4   4   12.77    0.30
   0   4  -4   22.74    0.45
   0   4  -4   22.39    0.45
   0   4  -4   22.39    0.46
   0  -4   4   22.88    0.45
   0  -4   4   22.67    0.45
   0  -4   4   22.93    0.45
  -1   4  -4    4.78    0.14
  -1   4  -4    5.05    0.16
  -1   4  -4    4.94    0.15
   1  -4   4    4.98    0.15
   1  -4   4    4.77    0.15
   1  -4   4    4.63    0.16
   1  -4   4    5.00    0.15
  -2   4  -4    5.06    0.16
  -2   4  -4    4.76    0.14
  -2   4  -4    5.04    0.15
   2  -4   4    5.02    0.15
   2  -4   4    5.09    0.16
   2  -4   4    5.01    0.18
  -3   4  -4    3.79    0.12
  -3   4  -4    3.59    0.12
   3  -4   4    3.57    0.17
   3  -4   4    3.61    0.14
  -4   4  -4    3.04    0.10
   4  -4   4    2.93    0.17
   5  -4   4    5.83    0.25
   6  -4   4    0.23    0.10
   6   3  -4    1.28    0.16
  -6  -3   4    1.09    0.14
   5   3  -4    1.64    0.16
  -5  -3   4    1.88    0.15
   4   3  -4    1.04    0.13
  -4  -3   4    0.94    0.10
  -4  -3   4    1.12    0.07
   3   3  -4    6.03    0.24
  -3  -3   4    6.10    0.16
  -3  -3   4    6.21    0.21
  -3  -3   4    6.15    0.16
   2   3  -4    6.10    0.21
   2   3  -4    6.12    0.16
   2   3  -4    5.96    0.16
  -2  -3   4    6.14    0.19
  -2  -3   4    5.98    0.16
  -2  -3   4    6.14    0.16
   1   3  -4   21.82    0.42
   1   3  -4   21.76    0.42
   1   3  -4   21.54    0.44
  -1  -3   4   21.16    0.42
  -1  -3   4   21.75    0.42
  -1  -3   4   21.55    0.43
   0   3  -4    2.50    0.10
   0   3  -4    2.57    0.10
   0   3  -4    2.51    0.10
   0  -3   4    2.60    0.10
   0  -3   4    2.47    0.09
  -1   3  -4    5.00    0.14
  -1   3  -4    5.00    0.14
  -1   3  -4    4.96    0.14
   1  -3   4    5.17    0.14
   1  -3   4    5.17    0.16
   1  -3   4    4.94    0.14
   1  -3   4    5.26    0.15
  -2   3  -4    3.20    0.11
  -2   3  -4    3.41    0.12
  -2   3  -4    3.15    0.11
   2  -3   4    3.47    0.11
   2  -3   4    3.51    0.13
   2  -3   4    3.45    0.11
   2  -3   4    3.31    0.14
  -3   3  -4    5.68    0.15
  -3   3  -4    5.89    0.14
   3  -3   4    5.92    0.18
   3  -3   4    5.82    0.21
   4  -3   4    1.09    0.11
   5  -3   4    0.60    0.11
   6  -3   4    2.97    0.22
   6   2  -4    0.10    0.09
  -6  -2   4    0.01    0.08
   5   2  -4    0.34    0.10
  -5  -2   4    0.47    0.09
   4   2  -4    0.01    0.06
  -4  -2   4   -0.01    0.05
  -4  -2   4    0.02    0.02
   3   2  -4    4.44    0.19
  -3  -2   4    4.27    0.16
  -3  -2   4    4.55    0.12
  -3  -2   4    4.29    0.12
   2   2  -4   92.72    1.58
   2   2  -4   92.21    1.58
   2   2  -4   91.78    1.62
  -2  -2   4   89.55    1.60
  -2  -2   4   92.42    1.57
  -2  -2   4   94.01    1.57
   1   2  -4    1.42    0.07
   1   2  -4    1.38    0.10
   1   2  -4    1.34    0.07
   1   2  -4    1.48    0.08
  -1  -2   4    1.48    0.07
  -1  -2   4    1.42    0.07
   0   2  -4    1.11    0.06
   0   2  -4    1.17    0.06
   0  -2   4    1.20    0.06
   0  -2   4    1.08    0.06
   0  -2   4    1.21    0.06
   0  -2   4    1.19    0.07
  -1   2  -4   52.37    0.90
  -1   2  -4   51.92    0.92
  -1   2  -4   52.89    0.92
   1  -2   4   52.89    0.93
   1  -2   4   51.97    0.92
   1  -2   4   52.43    0.93
   1  -2   4   52.16    0.92
  -2   2  -4    4.99    0.13
  -2   2  -4    4.84    0.12
  -2   2  -4    4.76    0.13
   2  -2   4    4.92    0.13
   2  -2   4    4.72    0.16
   2  -2   4    4.95    0.15
   2  -2   4    4.88    0.13
  -3   2  -4   42.64    0.72
  -3   2  -4   40.81    0.73
   3  -2   4   39.88    0.80
   3  -2   4   41.13    0.77
   4  -2   4    0.57    0.09
   5  -2   4    0.20    0.08
   6  -2   4   -0.13    0.08
   6   1  -4    0.74    0.13
  -6  -1   4    0.85    0.11
   5   1  -4    2.38    0.17
  -5  -1   4    2.46    0.15
   4   1  -4    3.34    0.18
  -4  -1   4    3.74    0.16
  -4  -1   4    3.51    0.10
   3   1  -4   10.37    0.29
  -3  -1   4    9.94    0.22
  -3  -1   4   10.47    0.21
  -3  -1   4   10.30    0.26
   2   1  -4   38.42    0.67
   2   1  -4   36.23    0.71
   2   1  -4   36.37    0.66
  -2  -1   4   37.12    0.68
  -2  -1   4   37.39    0.66
  -2  -1   4   36.96    0.66
  -2  -1   4   37.73    0.66
   1   1  -4    0.06    0.03
   1   1  -4    0.05    0.03
   1   1  -4    0.06    0.04
  -1  -1   4    0.07    0.03
  -1  -1   4    0.08    0.04
  -1  -1   4    0.05    0.03
   0   1  -4   19.94    0.39
   0   1  -4   20.26    0.37
   0   1  -4   19.86    0.39
   0  -1   4   20.64    0.39
   0  -1   4   20.94    0.39
   0  -1   4   20.10    0.39
   0  -1   4   20.48    0.37
  -1   1  -4    6.43    0.16
  -1   1  -4    6.61    0.16
   1  -1   4    6.50    0.17
   1  -1   4    6.52    0.17
   1  -1   4    6.50    0.16
   1  -1   4    6.65    0.16
  -2   1  -4    7.38    0.17
  -2   1  -4    7.44    0.17
  -2   1  -4    7.77    0.17
   2  -1   4    7.31    0.20
   2  -1   4    7.75    0.18
   2  -1   4    7.46    0.21
   2  -1   4    7.67    0.17
  -3   1  -4   22.10    0.42
  -3   1  -4   22.61    0.41
   3  -1   4   22.25    0.49
   4  -1   4   26.13    0.58
   5  -1   4    2.77    0.19
   6  -1   4    0.36    0.12
   6   0  -4    3.39    0.23
  -6   0   4    3.10    0.19
   5   0  -4    1.75    0.16
  -5   0   4    1.64    0.13
  -5   0   4    1.63    0.12
   4   0  -4    1.01    0.11
  -4   0   4    0.96    0.05
  -4   0   4    0.97    0.09
   3   0  -4    4.10    0.17
   3   0  -4    4.22    0.13
  -3   0   4    3.98    0.14
  -3   0   4    4.06    0.10
  -3   0   4    4.01    0.11
   2   0  -4    2.88    0.09
   2   0  -4    3.01    0.09
   2   0  -4    2.73    0.12
  -2   0   4    2.91    0.09
  -2   0   4    2.94    0.09
  -2   0   4    2.82    0.10
  -2   0   4    2.52    0.09
   1   0  -4    1.33    0.07
   1   0  -4    1.29    0.06
   1   0  -4    1.25    0.06
  -1   0   4    1.32    0.06
  -1   0   4    1.26    0.06
  -1   0   4    1.28    0.07
   0   0  -4   66.17    1.13
   0   0  -4   65.46    1.15
   0   0  -4   66.33    1.15
   0   0   4   66.25    1.14
   0   0   4   66.39    1.15
   0   0   4   68.56    1.13
   0   0   4   66.47    1.14
  -1   0  -4    0.11    0.03
  -1   0  -4    0.10    0.03
   1   0   4    0.08    0.03
   1   0   4    0.07    0.03
   1   0   4    0.13    0.03
   1   0   4    0.04    0.03
  -2   0  -4   18.97    0.37
  -2   0  -4   19.31    0.41
  -2   0  -4   19.35    0.37
   2   0   4   18.97    0.41
   2   0   4   19.47    0.37
   2   0   4   19.40    0.38
   2   0   4   19.50    0.40
  -3   0  -4    9.71    0.21
  -3   0  -4    9.56    0.20
   3   0   4    9.87    0.28
   4   0   4    3.33    0.18
   5   0   4    6.10    0.27
  -6   0  -4    0.40    0.09
   6   0   4    0.33    0.12
   6  -1  -4    5.99    0.28
  -6   1   4    6.11    0.25
   5  -1  -4    0.40    0.10
  -5   1   4    0.27    0.07
   4  -1  -4    3.87    0.19
  -4   1   4    3.81    0.09
  -4   1   4    3.89    0.15
  -4   1   4    3.87    0.17
   3  -1  -4    8.13    0.18
   3  -1  -4    7.92    0.24
  -3   1   4    7.61    0.22
  -3   1   4    8.15    0.17
  -3   1   4    7.81    0.20
  -3   1   4    7.96    0.17
   2  -1  -4    2.74    0.09
   2  -1  -4    2.55    0.12
   2  -1  -4    2.72    0.09
  -2   1   4    2.69    0.08
  -2   1   4    2.63    0.09
  -2   1   4    2.72    0.09
  -2   1   4    2.74    0.09
  -2   1   4    2.72    0.11
   1  -1  -4   11.69    0.24
   1  -1  -4   11.43    0.24
   1  -1  -4   11.60    0.24
  -1   1   4   11.28    0.23
  -1   1   4   11.39    0.24
  -1   1   4   11.46    0.24
  -1   1   4   11.19    0.24
   0  -1  -4   28.99    0.53
   0  -1  -4   28.55    0.50
   0  -1  -4   29.15    0.53
   0   1   4   29.19    0.51
   0   1   4   28.79    0.51
   0   1   4   28.88    0.53
   0   1   4   29.04    0.53
   0   1   4   29.21    0.53
  -1  -1  -4   49.99    0.91
  -1  -1  -4   52.25    0.91
   1   1   4   52.02    0.92
   1   1   4   50.43    0.92
   1   1   4   53.56    0.91
   1   1   4   52.41    0.91
  -2  -1  -4    3.43    0.11
  -2  -1  -4    3.54    0.11
   2   1   4    3.50    0.11
   2   1   4    3.74    0.14
  -3  -1  -4    1.02    0.07
  -3  -1  -4    1.04    0.06
   3   1   4    0.85    0.10
   4   1   4    1.67    0.14
   5   1   4    6.67    0.28
   6  -2  -4   -0.05    0.09
  -6   2   4    0.00    0.06
   5  -2  -4    0.88    0.12
  -5   2   4    0.92    0.11
   4  -2  -4   -0.02    0.07
  -4   2   4   -0.01    0.02
  -4   2   4   -0.06    0.04
   3  -2  -4   26.66    0.56
   3  -2  -4   26.70    0.51
  -3   2   4   27.48    0.49
  -3   2   4   26.26    0.54
  -3   2   4   26.78    0.49
  -3   2   4   26.71    0.50
   2  -2  -4    0.57    0.05
   2  -2  -4    0.47    0.05
   2  -2  -4    0.60    0.04
   2  -2  -4    0.60    0.07
  -2   2   4    0.65    0.06
  -2   2   4    0.47    0.04
  -2   2   4    0.59    0.05
  -2   2   4    0.54    0.04
   1  -2  -4   34.42    0.63
   1  -2  -4   34.27    0.62
   1  -2  -4   34.49    0.62
  -1   2   4   33.70    0.62
  -1   2   4   34.76    0.60
  -1   2   4   34.26    0.62
  -1   2   4   34.22    0.62
   0  -2  -4    2.20    0.07
   0  -2  -4    2.19    0.09
   0  -2  -4    2.24    0.09
   0   2   4    2.26    0.08
   0   2   4    2.16    0.08
   0   2   4    2.25    0.07
   0   2   4    2.05    0.08
  -1  -2  -4   47.37    0.85
  -1  -2  -4   47.96    0.86
   1   2   4   48.03    0.85
   1   2   4   49.82    0.82
   1   2   4   46.39    0.86
   1   2   4   47.73    0.87
   1   2   4   48.31    0.85
  -2  -2  -4    8.53    0.20
  -2  -2  -4    8.25    0.20
   2   2   4    8.31    0.24
   2   2   4    8.65    0.20
  -3  -2  -4    2.28    0.09
  -3  -2  -4    2.10    0.09
   3   2   4    2.19    0.15
   4   2   4   25.06    0.59
   5   2   4    0.63    0.13
   6  -3  -4    2.14    0.20
  -6   3   4    2.30    0.17
   5  -3  -4   11.12    0.36
  -5   3   4   10.95    0.33
   4  -3  -4    1.12    0.12
  -4   3   4    1.06    0.06
  -4   3   4    1.00    0.10
   3  -3  -4   13.84    0.35
  -3   3   4   13.76    0.29
  -3   3   4   13.81    0.33
  -3   3   4   13.91    0.28
   2  -3  -4   15.39    0.32
   2  -3  -4   15.38    0.32
   2  -3  -4   15.24    0.29
   2  -3  -4   15.32    0.34
  -2   3   4   15.30    0.28
  -2   3   4   14.86    0.31
  -2   3   4   15.33    0.34
  -2   3   4   14.64    0.31
   1  -3  -4   34.70    0.64
   1  -3  -4   35.05    0.64
   1  -3  -4   35.03    0.64
  -1   3   4   34.65    0.64
  -1   3   4   35.29    0.61
  -1   3   4   34.50    0.65
  -1   3   4   35.35    0.64
   0  -3  -4    0.12    0.03
   0  -3  -4    0.11    0.03
   0   3   4    0.11    0.03
   0   3   4    0.07    0.03
   0   3   4    0.13    0.03
   0   3   4    0.06    0.03
  -1  -3  -4    2.57    0.11
  -1  -3  -4    2.83    0.11
   1   3   4    2.82    0.10
   1   3   4    2.89    0.11
   1   3   4    2.83    0.10
  -2  -3  -4    0.12    0.04
  -2  -3  -4    0.05    0.03
   2   3   4    0.12    0.07
  -3  -3  -4    0.62    0.06
  -3  -3  -4    0.77    0.07
   3   3   4    0.58    0.10
   4   3   4   10.98    0.35
  -5  -3  -4    0.55    0.10
   5   3   4    0.50    0.13
   6  -4  -4    0.03    0.09
  -6   4   4    0.16    0.08
   5  -4  -4   43.32    0.92
  -5   4   4   44.21    0.90
   4  -4  -4    0.00    0.07
  -4   4   4   -0.04    0.03
  -4   4   4   -0.04    0.02
  -4   4   4    0.06    0.05
   3  -4  -4    0.98    0.11
  -3   4   4    0.86    0.06
  -3   4   4    1.03    0.10
  -3   4   4    1.01    0.07
   2  -4  -4    8.70    0.20
   2  -4  -4    8.64    0.21
   2  -4  -4    8.72    0.21
   2  -4  -4    8.05    0.23
  -2   4   4    8.28    0.20
  -2   4   4    8.30    0.23
  -2   4   4    8.29    0.21
   1  -4  -4    0.28    0.05
   1  -4  -4    0.31    0.05
  -1   4   4    0.29    0.05
  -1   4   4    0.30    0.05
  -1   4   4    0.29    0.04
   0  -4  -4    0.21    0.04
   0  -4  -4    0.20    0.04
   0   4   4    0.13    0.04
   0   4   4    0.17    0.04
   0   4   4    0.15    0.05
  -1  -4  -4   20.96    0.43
  -1  -4  -4   20.49    0.43
   1   4   4   21.26    0.43
   1   4   4   21.63    0.43
   1   4   4   21.74    0.43
  -2  -4  -4    0.58    0.06
  -2  -4  -4    0.76    0.08
  -3  -4  -4    4.41    0.14
  -3  -4  -4    4.47    0.15
  -4  -4  -4    0.66    0.10
  -4  -4  -4    0.64    0.07
  -5  -4  -4    0.42    0.10
   6  -5  -4    0.22    0.11
  -6   5   4    0.13    0.08
   5  -5  -4    3.26    0.22
  -5   5   4    3.59    0.19
   4  -5  -4   23.31    0.55
  -4   5   4   23.56    0.53
  -4   5   4   23.46    0.46
  -4   5   4   23.06    0.44
   3  -5  -4    3.41    0.18
  -3   5   4    3.31    0.16
  -3   5   4    3.20    0.12
  -3   5   4    3.35    0.12
   2  -5  -4    0.99    0.08
   2  -5  -4    1.09    0.10
   2  -5  -4    1.02    0.08
  -2   5   4    0.88    0.07
  -2   5   4    1.15    0.11
  -2   5   4    0.93    0.07
   1  -5  -4    2.92    0.12
   1  -5  -4    2.98    0.13
  -1   5   4    3.16    0.12
  -1   5   4    3.02    0.12
  -1   5   4    3.34    0.14
   0  -5  -4   26.44    0.53
   0  -5  -4   26.17    0.53
   0   5   4   26.68    0.53
   0   5   4   26.86    0.53
   0   5   4   26.79    0.53
  -1  -5  -4    2.00    0.11
  -1  -5  -4    1.79    0.11
   1   5   4    2.26    0.11
   1   5   4    2.35    0.13
   1   5   4    2.01    0.11
  -2  -5  -4    2.00    0.11
  -2  -5  -4    1.92    0.11
  -3  -5  -4   -0.07    0.04
  -3  -5  -4   -0.03    0.04
  -3  -5  -4    0.00    0.04
  -4  -5  -4    0.01    0.06
  -4  -5  -4    0.02    0.04
   6  -6  -4    1.31    0.18
  -6   6   4    1.23    0.14
   5  -6  -4   -0.12    0.08
  -5   6   4   -0.05    0.06
   4  -6  -4    0.40    0.10
  -4   6   4    0.55    0.06
  -4   6   4    0.40    0.05
  -4   6   4    0.35    0.08
   3  -6  -4    2.74    0.17
  -3   6   4    2.81    0.12
  -3   6   4    2.40    0.15
  -3   6   4    2.67    0.11
   2  -6  -4    1.39    0.10
   2  -6  -4    1.30    0.10
  -2   6   4    1.21    0.09
  -2   6   4    1.33    0.12
  -2   6   4    1.40    0.09
   1  -6  -4    1.37    0.10
   1  -6  -4    1.49    0.11
  -1   6   4    1.12    0.09
  -1   6   4    1.32    0.13
  -1   6   4    1.38    0.09
   0  -6  -4    2.94    0.14
   0  -6  -4    2.92    0.14
   0   6   4    3.20    0.17
   0   6   4    2.96    0.13
   0   6   4    3.04    0.13
  -1  -6  -4    3.96    0.16
  -1  -6  -4    4.01    0.16
   1   6   4    4.22    0.16
   1   6   4    4.14    0.16
   1   6   4    3.89    0.17
  -2  -6  -4    0.15    0.05
  -2  -6  -4    0.11    0.05
  -2  -6  -4    0.04    0.05
  -3  -6  -4    2.65    0.15
  -3  -6  -4    2.54    0.13
  -3  -6  -4    2.85    0.13
  -4  -6  -4    0.09    0.07
  -4  -6  -4    0.13    0.05
   6  -7  -4    4.93    0.30
  -6   7   4    5.14    0.26
   5  -7  -4    1.84    0.19
  -5   7   4    1.70    0.16
  -5   7   4    1.93    0.15
  -4   7   4    0.13    0.04
  -4   7   4    0.08    0.07
  -4   7   4    0.13    0.04
  -3   7   4    0.12    0.04
  -3   7   4    0.23    0.05
  -3   7   4    0.24    0.08
   2  -7  -4    0.29    0.06
   2  -7  -4    0.30    0.06
  -2   7   4    0.31    0.08
  -2   7   4    0.33    0.06
  -2   7   4    0.27    0.06
   1  -7  -4    2.66    0.14
   1  -7  -4    2.56    0.13
  -1   7   4    2.54    0.13
  -1   7   4    2.61    0.16
  -1   7   4    2.50    0.13
   0  -7  -4   -0.01    0.04
   0  -7  -4    0.03    0.05
   0   7   4   -0.02    0.04
   0   7   4    0.01    0.07
   0   7   4   -0.03    0.03
  -1  -7  -4    0.44    0.07
  -1  -7  -4    0.36    0.06
  -1  -7  -4    0.20    0.06
   1   7   4    0.38    0.07
   1   7   4    0.50    0.09
  -2  -7  -4   -0.01    0.05
  -2  -7  -4   -0.07    0.05
  -2  -7  -4   -0.02    0.05
  -3  -7  -4   10.59    0.30
  -3  -7  -4   10.05    0.32
  -4  -7  -4    2.14    0.13
  -4  -7  -4    2.06    0.18
  -5   8   4    2.68    0.21
  -5   8   4    2.88    0.13
  -4   8   4    0.03    0.08
  -4   8   4    0.03    0.04
  -3   8   4    0.05    0.05
  -3   8   4    0.01    0.07
  -3   8   4    0.01    0.04
   2  -8  -4    0.03    0.05
  -2   8   4   -0.01    0.04
  -2   8   4   -0.07    0.07
  -2   8   4    0.00    0.04
   1  -8  -4    6.59    0.23
   1  -8  -4    6.84    0.23
  -1   8   4    6.59    0.22
  -1   8   4    6.50    0.25
  -1   8   4    6.52    0.21
   0  -8  -4    2.44    0.14
   0  -8  -4    2.19    0.14
   0   8   4    2.39    0.13
   0   8   4    2.14    0.17
   0   8   4    2.34    0.13
  -1  -8  -4   24.47    0.55
  -2  -8  -4    3.59    0.18
  -2  -8  -4    3.54    0.18
  -3  -8  -4    4.97    0.21
  -3  -8  -4    5.10    0.23
  -5   9   4    5.05    0.19
  -5   9   4    4.88    0.27
  -4   9   4    0.01    0.09
  -4   9   4    0.05    0.05
  -3   9   4    3.03    0.20
  -3   9   4    3.12    0.16
  -2   9   4    4.00    0.22
  -2   9   4    4.12    0.18
   1  -9  -4    0.96    0.11
   1  -9  -4    1.00    0.10
  -1   9   4    1.08    0.11
  -1   9   4    1.02    0.10
  -1   9   4    0.96    0.13
   0  -9  -4    0.00    0.06
   0   9   4    0.00    0.08
   0   9   4   -0.06    0.05
   0   9   4   -0.05    0.04
  -1  -9  -4    9.08    0.30
  -2  -9  -4    1.55    0.14
  -4  10   4    4.51    0.19
  -4  10   4    4.69    0.27
  -3  10   4    0.92    0.10
  -3  10   4    0.84    0.14
  -2  10   4    0.27    0.11
  -2  10   4    0.23    0.07
   1 -10  -4    2.96    0.18
  -1  10   4    2.42    0.21
  -1  10   4    2.50    0.16
   0 -10  -4    0.47    0.09
   0  10   4    0.37    0.12
   0  10   4    0.60    0.09
  -1 -10  -4    0.09    0.07
  -3  11   4   -0.04    0.06
  -3  11   4   -0.10    0.11
  -2  11   4    2.93    0.25
  -2  11   4    3.37    0.19
   1 -11  -4    0.14    0.08
  -1  11   4    0.13    0.12
  -1  11   4    0.40    0.09
   0 -11  -4    0.38    0.09
   0  11   4    0.20    0.12
   1  11  -5    6.53    0.31
  -1 -11   5    6.32    0.26
   0  11  -5   -0.04    0.10
   0  11  -5   -0.04    0.06
   0 -11   5    0.07    0.07
  -1  11  -5    0.00    0.10
  -1  11  -5    0.03    0.07
   1 -11   5   -0.06    0.10
  -2  11  -5    0.04    0.11
  -2  11  -5    0.00    0.07
   2 -11   5    0.14    0.10
   2  10  -5    0.21    0.10
   2  10  -5    0.43    0.14
  -2 -10   5    0.26    0.08
  -2 -10   5    0.04    0.10
   1  10  -5    6.25    0.29
  -1 -10   5    5.89    0.24
  -1 -10   5    5.83    0.26
   0  10  -5   12.23    0.36
   0  10  -5   12.92    0.40
   0 -10   5   12.31    0.36
  -1  10  -5    1.47    0.14
  -1  10  -5    1.36    0.16
   1 -10   5    1.01    0.12
   1 -10   5    1.28    0.15
  -2  10  -5    3.38    0.23
  -2  10  -5    4.00    0.19
   2 -10   5    3.53    0.23
  -3  10  -5    3.02    0.17
   3 -10   5    3.54    0.23
   3   9  -5    1.21    0.17
   3   9  -5    1.40    0.16
  -3  -9   5    1.04    0.15
  -3  -9   5    1.28    0.13
   2   9  -5    0.81    0.13
   2   9  -5    0.82    0.15
  -2  -9   5    0.66    0.10
  -2  -9   5    0.71    0.12
   1   9  -5    0.58    0.12
   1   9  -5    0.71    0.11
  -1  -9   5    0.69    0.11
  -1  -9   5    0.84    0.10
   0   9  -5    7.48    0.26
   0   9  -5    7.25    0.26
   0   9  -5    7.52    0.29
   0  -9   5    7.37    0.26
   0  -9   5    7.54    0.25
  -1   9  -5    2.37    0.19
  -1   9  -5    2.26    0.15
   1  -9   5    2.43    0.15
   1  -9   5    1.94    0.17
   1  -9   5    2.25    0.14
  -2   9  -5    0.33    0.07
  -2   9  -5    0.35    0.10
   2  -9   5    0.41    0.10
  -3   9  -5    0.02    0.05
   3  -9   5    0.01    0.08
  -4   9  -5    1.38    0.12
   4  -9   5    1.71    0.17
   3   8  -5    2.62    0.21
   3   8  -5    2.36    0.21
  -3  -8   5    2.09    0.14
  -3  -8   5    2.36    0.19
   2   8  -5    0.05    0.10
   2   8  -5    0.09    0.08
  -2  -8   5   -0.05    0.07
  -2  -8   5    0.05    0.05
   1   8  -5    0.82    0.11
   1   8  -5    0.71    0.09
   1   8  -5    0.77    0.09
  -1  -8   5    0.82    0.10
  -1  -8   5    0.93    0.10
  -1  -8   5    0.73    0.11
   0   8  -5    3.70    0.17
   0   8  -5    4.03    0.17
   0   8  -5    3.73    0.20
   0  -8   5    3.76    0.17
   0  -8   5    3.52    0.16
   0  -8   5    3.55    0.17
  -1   8  -5    3.32    0.19
  -1   8  -5    2.96    0.15
  -1   8  -5    3.21    0.16
   1  -8   5    3.14    0.16
   1  -8   5    3.17    0.16
   1  -8   5    3.00    0.18
   1  -8   5    3.12    0.16
  -2   8  -5    3.13    0.15
  -2   8  -5    3.52    0.16
  -2   8  -5    3.47    0.20
   2  -8   5    3.59    0.20
  -3   8  -5    3.46    0.16
   3  -8   5    3.37    0.20
  -4   8  -5   -0.01    0.04
   4  -8   5   -0.03    0.08
   5  -8   5    5.40    0.28
   4   7  -5    0.03    0.09
  -4  -7   5    0.18    0.10
  -4  -7   5    0.20    0.06
   3   7  -5    3.93    0.23
   3   7  -5    3.96    0.22
  -3  -7   5    4.12    0.17
  -3  -7   5    3.69    0.21
   2   7  -5    2.05    0.16
   2   7  -5    2.19    0.19
  -2  -7   5    2.20    0.12
  -2  -7   5    1.83    0.15
  -2  -7   5    1.91    0.13
   1   7  -5    3.33    0.15
   1   7  -5    3.28    0.15
   1   7  -5    3.26    0.18
  -1  -7   5    3.18    0.15
  -1  -7   5    3.35    0.16
  -1  -7   5    3.16    0.15
   0   7  -5    3.87    0.19
   0   7  -5    3.80    0.16
   0   7  -5    3.68    0.16
   0  -7   5    3.86    0.17
   0  -7   5    3.80    0.16
  -1   7  -5    0.44    0.07
  -1   7  -5    0.44    0.06
  -1   7  -5    0.54    0.09
   1  -7   5    0.47    0.07
   1  -7   5    0.46    0.07
   1  -7   5    0.44    0.08
   1  -7   5    0.41    0.07
  -2   7  -5    4.32    0.16
  -2   7  -5    4.28    0.17
  -2   7  -5    4.27    0.20
   2  -7   5    4.23    0.20
   2  -7   5    4.20    0.17
  -3   7  -5    1.05    0.09
  -3   7  -5    1.07    0.09
   3  -7   5    1.10    0.12
  -4   7  -5    0.37    0.06
   4  -7   5    0.48    0.10
   5  -7   5    7.33    0.31
  -5  -6   5    0.10    0.10
   4   6  -5    0.43    0.11
  -4  -6   5    0.45    0.10
  -4  -6   5    0.52    0.07
   3   6  -5   12.96    0.38
   3   6  -5   12.79    0.39
  -3  -6   5   13.27    0.32
  -3  -6   5   13.34    0.37
  -3  -6   5   13.01    0.32
   2   6  -5    5.20    0.24
   2   6  -5    5.72    0.23
  -2  -6   5    5.73    0.19
  -2  -6   5    5.76    0.19
  -2  -6   5    5.48    0.21
   1   6  -5   21.08    0.45
   1   6  -5   20.44    0.45
   1   6  -5   20.25    0.47
  -1  -6   5   20.14    0.44
  -1  -6   5   20.33    0.45
  -1  -6   5   20.26    0.45
   0   6  -5    0.01    0.04
   0   6  -5    0.10    0.08
   0   6  -5    0.06    0.05
   0  -6   5    0.08    0.05
   0  -6   5    0.15    0.05
   0  -6   5    0.11    0.07
  -1   6  -5    0.11    0.08
  -1   6  -5    0.13    0.05
  -1   6  -5    0.12    0.05
   1  -6   5    0.06    0.07
   1  -6   5    0.05    0.04
   1  -6   5    0.21    0.07
   1  -6   5    0.05    0.05
  -2   6  -5    1.72    0.14
  -2   6  -5    1.81    0.11
  -2   6  -5    1.83    0.11
   2  -6   5    1.85    0.11
   2  -6   5    1.92    0.14
  -3   6  -5    5.76    0.18
  -3   6  -5    5.62    0.18
   3  -6   5    5.31    0.22
  -4   6  -5    2.29    0.11
   4  -6   5    2.09    0.16
   5  -6   5    1.08    0.14
   5   5  -5    1.35    0.16
  -5  -5   5    1.16    0.15
   4   5  -5   10.46    0.35
  -4  -5   5   10.55    0.33
  -4  -5   5   10.35    0.26
   3   5  -5   11.32    0.35
   3   5  -5   11.28    0.34
  -3  -5   5   12.15    0.28
  -3  -5   5   11.95    0.33
  -3  -5   5   11.70    0.29
   2   5  -5    9.99    0.30
   2   5  -5    9.58    0.31
  -2  -5   5   10.31    0.29
  -2  -5   5   10.14    0.26
  -2  -5   5   10.24    0.26
   1   5  -5    0.31    0.06
   1   5  -5    0.34    0.08
   1   5  -5    0.17    0.05
  -1  -5   5    0.28    0.07
  -1  -5   5    0.24    0.05
  -1  -5   5    0.36    0.06
   0   5  -5   16.05    0.37
   0   5  -5   17.07    0.37
   0   5  -5   16.47    0.38
   0  -5   5   16.87    0.37
   0  -5   5   16.72    0.37
   0  -5   5   16.81    0.37
  -1   5  -5    2.12    0.11
  -1   5  -5    2.03    0.13
  -1   5  -5    1.98    0.10
   1  -5   5    2.01    0.11
   1  -5   5    1.90    0.12
   1  -5   5    1.98    0.11
   1  -5   5    2.10    0.12
  -2   5  -5    6.18    0.18
  -2   5  -5    5.78    0.20
  -2   5  -5    5.96    0.18
   2  -5   5    5.90    0.19
   2  -5   5    5.84    0.21
  -3   5  -5    6.02    0.18
  -3   5  -5    5.77    0.17
   3  -5   5    5.64    0.22
   3  -5   5    6.05    0.19
  -4   5  -5    1.01    0.08
   4  -5   5    1.01    0.11
   5  -5   5    0.11    0.08
   5   4  -5    1.31    0.16
  -5  -4   5    1.26    0.14
   4   4  -5    2.26    0.18
  -4  -4   5    2.37    0.17
  -4  -4   5    2.60    0.11
   3   4  -5   72.09    1.38
  -3  -4   5   74.61    1.30
  -3  -4   5   73.01    1.34
   2   4  -5    0.30    0.05
   2   4  -5    0.41    0.10
   2   4  -5    0.19    0.07
  -2  -4   5    0.36    0.07
  -2  -4   5    0.27    0.05
  -2  -4   5    0.31    0.05
   1   4  -5    0.96    0.08
   1   4  -5    0.51    0.08
   1   4  -5    0.49    0.06
  -1  -4   5    0.58    0.06
  -1  -4   5    0.61    0.08
  -1  -4   5    0.53    0.06
   0   4  -5   39.74    0.76
   0   4  -5   40.85    0.76
   0   4  -5   40.35    0.76
   0  -4   5   40.30    0.75
   0  -4   5   41.47    0.76
   0  -4   5   41.58    0.76
  -1   4  -5    4.48    0.15
  -1   4  -5    4.16    0.14
  -1   4  -5    4.60    0.15
   1  -4   5    4.23    0.16
   1  -4   5    4.47    0.16
   1  -4   5    4.40    0.14
   1  -4   5    4.32    0.14
  -2   4  -5   16.87    0.35
  -2   4  -5   16.18    0.35
  -2   4  -5   16.38    0.37
   2  -4   5   15.97    0.35
   2  -4   5   16.69    0.36
   2  -4   5   16.18    0.38
  -3   4  -5    0.41    0.05
  -3   4  -5    0.34    0.05
   3  -4   5    0.43    0.06
   3  -4   5    0.48    0.08
  -4   4  -5    5.72    0.16
   4  -4   5    5.75    0.23
   5  -4   5   -0.03    0.07
   6   3  -5    3.57    0.25
  -6  -3   5    3.99    0.23
   5   3  -5    0.64    0.12
  -5  -3   5    0.74    0.11
   4   3  -5    3.73    0.20
  -4  -3   5    4.32    0.19
   3   3  -5   15.15    0.40
  -3  -3   5   15.63    0.33
  -3  -3   5   16.35    0.38
  -3  -3   5   15.29    0.33
   2   3  -5    7.32    0.19
   2   3  -5    7.05    0.22
   2   3  -5    6.87    0.23
   2   3  -5    7.06    0.19
  -2  -3   5    7.17    0.19
  -2  -3   5    7.28    0.22
   1   3  -5   18.00    0.40
   1   3  -5   18.80    0.39
   1   3  -5   18.81    0.39
   1   3  -5   18.97    0.42
  -1  -3   5   18.91    0.40
  -1  -3   5   19.28    0.39
  -1  -3   5   19.04    0.38
   0   3  -5   25.66    0.49
   0   3  -5   24.94    0.49
   0   3  -5   24.83    0.49
   0  -3   5   25.21    0.49
   0  -3   5   25.51    0.49
   0  -3   5   25.52    0.50
   0  -3   5   25.09    0.48
  -1   3  -5    1.16    0.08
  -1   3  -5    1.42    0.08
  -1   3  -5    1.17    0.07
   1  -3   5    1.12    0.07
   1  -3   5    1.34    0.10
   1  -3   5    1.22    0.07
   1  -3   5    1.26    0.09
  -2   3  -5    1.56    0.09
  -2   3  -5    1.65    0.08
   2  -3   5    1.64    0.11
   2  -3   5    1.63    0.11
   2  -3   5    1.52    0.08
  -3   3  -5    4.60    0.14
  -3   3  -5    4.48    0.13
   3  -3   5    4.34    0.16
   3  -3   5    4.51    0.19
  -4   3  -5    0.12    0.03
   4  -3   5    0.04    0.06
   5  -3   5    0.20    0.08
   6   2  -5    0.06    0.09
  -6  -2   5    0.03    0.08
   5   2  -5    0.24    0.09
  -5  -2   5    0.15    0.07
   4   2  -5    0.20    0.08
  -4  -2   5    0.23    0.07
  -4  -2   5    0.22    0.04
   3   2  -5    0.55    0.09
  -3  -2   5    0.77    0.06
  -3  -2   5    0.76    0.09
  -3  -2   5    0.64    0.06
   2   2  -5   10.31    0.24
   2   2  -5   10.59    0.24
   2   2  -5    9.92    0.28
  -2  -2   5   10.16    0.26
  -2  -2   5   10.45    0.23
  -2  -2   5    9.94    0.23
   1   2  -5    0.11    0.04
   1   2  -5    0.07    0.03
   1   2  -5    0.09    0.04
   1   2  -5    0.05    0.05
  -1  -2   5    0.11    0.03
  -1  -2   5    0.17    0.04
  -1  -2   5    0.03    0.04
   0   2  -5   13.73    0.29
   0   2  -5   13.73    0.28
   0   2  -5   13.36    0.29
   0  -2   5   13.89    0.28
   0  -2   5   13.32    0.30
   0  -2   5   13.62    0.29
  -1   2  -5    7.24    0.18
  -1   2  -5    7.32    0.16
  -1   2  -5    7.40    0.19
   1  -2   5    7.21    0.19
   1  -2   5    7.37    0.19
   1  -2   5    7.40    0.18
  -2   2  -5    1.01    0.07
  -2   2  -5    0.84    0.07
   2  -2   5    1.01    0.07
   2  -2   5    1.14    0.09
   2  -2   5    1.01    0.09
  -3   2  -5   26.05    0.49
  -3   2  -5   26.70    0.50
   3  -2   5   26.04    0.56
   3  -2   5   26.15    0.54
   4  -2   5    0.14    0.07
   5  -2   5    1.97    0.17
   6   1  -5    0.36    0.11
  -6  -1   5    0.50    0.10
   5   1  -5    0.08    0.08
  -5  -1   5    0.28    0.08
   4   1  -5    0.72    0.11
  -4  -1   5    0.87    0.09
  -4  -1   5    0.81    0.06
   3   1  -5    0.25    0.08
  -3  -1   5    0.34    0.04
  -3  -1   5    0.40    0.07
  -3  -1   5    0.34    0.04
   2   1  -5    0.08    0.05
   2   1  -5    0.13    0.03
   2   1  -5    0.10    0.03
  -2  -1   5    0.14    0.03
  -2  -1   5    0.11    0.05
  -2  -1   5    0.17    0.03
   1   1  -5    8.70    0.20
   1   1  -5    8.64    0.20
   1   1  -5    8.76    0.22
  -1  -1   5    8.94    0.21
  -1  -1   5    8.48    0.20
  -1  -1   5    8.76    0.20
  -1  -1   5    8.65    0.17
   0   1  -5    3.32    0.11
   0   1  -5    3.17    0.11
   0  -1   5    3.18    0.11
   0  -1   5    3.28    0.11
   0  -1   5    3.23    0.10
   0  -1   5    3.29    0.12
  -1   1  -5    9.16    0.21
  -1   1  -5    9.01    0.21
   1  -1   5    9.00    0.22
   1  -1   5    9.41    0.21
   1  -1   5    9.06    0.22
   1  -1   5    9.24    0.21
  -2   1  -5    9.68    0.22
  -2   1  -5    9.62    0.22
   2  -1   5    9.92    0.22
   2  -1   5    9.72    0.25
   2  -1   5    9.89    0.26
  -3   1  -5    0.20    0.04
  -3   1  -5    0.15    0.04
   3  -1   5    0.26    0.07
   4  -1   5   23.35    0.55
   5  -1   5    3.75    0.22
   6   0  -5    0.13    0.10
  -6   0   5    0.04    0.06
   5   0  -5    0.54    0.11
  -5   0   5    0.29    0.08
  -5   0   5    0.34    0.08
   4   0  -5   11.96    0.35
  -4   0   5   11.84    0.25
  -4   0   5   12.10    0.30
   3   0  -5    2.18    0.14
  -3   0   5    2.11    0.11
  -3   0   5    2.18    0.09
  -3   0   5    2.22    0.08
   2   0  -5    6.51    0.17
   2   0  -5    6.23    0.19
   2   0  -5    6.40    0.17
  -2   0   5    6.52    0.16
  -2   0   5    6.47    0.16
  -2   0   5    6.74    0.18
   1   0  -5    0.31    0.04
   1   0  -5    0.45    0.05
   1   0  -5    0.39    0.04
  -1   0   5    0.45    0.05
  -1   0   5    0.39    0.04
  -1   0   5    0.33    0.04
   0   0  -5   29.20    0.55
   0   0  -5   29.35    0.55
   0   0  -5   29.08    0.53
   0   0   5   29.07    0.54
   0   0   5   29.36    0.52
   0   0   5   29.18    0.55
   0   0   5   29.75    0.55
  -1   0  -5   64.90    1.13
  -1   0  -5   63.50    1.13
   1   0   5   65.13    1.14
   1   0   5   63.50    1.14
   1   0   5   65.43    1.13
   1   0   5   65.68    1.13
  -2   0  -5    0.05    0.03
  -2   0  -5    0.00    0.03
   2   0   5    0.11    0.05
   2   0   5    0.02    0.03
   2   0   5    0.04    0.05
  -3   0  -5  100.63    1.70
  -3   0  -5   99.11    1.71
   3   0   5   99.44    1.79
   4   0   5    0.94    0.12
   5   0   5    0.36    0.10
   6  -1  -5    1.54    0.17
  -6   1   5    1.07    0.13
   5  -1  -5    1.48    0.15
  -5   1   5    1.84    0.14
  -4   1   5    6.45    0.16
  -4   1   5    6.60    0.23
  -4   1   5    6.50    0.20
   3  -1  -5    3.51    0.16
  -3   1   5    3.50    0.11
  -3   1   5    3.35    0.11
  -3   1   5    3.61    0.13
  -3   1   5    3.48    0.15
   2  -1  -5   51.34    0.89
   2  -1  -5   50.40    0.89
   2  -1  -5   48.74    0.92
  -2   1   5   48.29    0.88
  -2   1   5   49.85    0.88
  -2   1   5   48.77    0.88
  -2   1   5   51.56    0.91
   1  -1  -5   11.44    0.26
   1  -1  -5   11.68    0.25
   1  -1  -5   11.49    0.25
  -1   1   5   11.37    0.25
  -1   1   5   11.84    0.25
  -1   1   5   12.16    0.25
  -1   1   5   11.33    0.25
   0  -1  -5   45.47    0.77
   0  -1  -5   42.96    0.80
   0  -1  -5   44.86    0.80
   0   1   5   44.95    0.80
   0   1   5   45.23    0.80
   0   1   5   44.64    0.78
   0   1   5   44.52    0.77
   0   1   5   43.88    0.80
  -1  -1  -5    2.16    0.09
  -1  -1  -5    2.13    0.09
   1   1   5    2.21    0.10
   1   1   5    2.29    0.09
   1   1   5    2.00    0.10
   1   1   5    2.24    0.09
  -2  -1  -5    0.00    0.03
  -2  -1  -5   -0.04    0.03
   2   1   5   -0.12    0.05
  -3  -1  -5    6.16    0.17
  -3  -1  -5    6.12    0.16
   3   1   5    5.97    0.23
   4   1   5    4.82    0.22
   5   1   5    0.70    0.12
   6  -2  -5   22.03    0.60
  -6   2   5   21.65    0.56
   5  -2  -5    7.47    0.29
  -5   2   5    7.54    0.27
   4  -2  -5    8.52    0.29
  -4   2   5    9.10    0.27
  -4   2   5    8.53    0.20
  -4   2   5    8.75    0.20
   3  -2  -5   20.63    0.47
  -3   2   5   20.61    0.41
  -3   2   5   20.86    0.41
  -3   2   5   20.70    0.45
  -3   2   5   21.18    0.40
   2  -2  -5    0.25    0.04
   2  -2  -5    0.35    0.05
   2  -2  -5    0.28    0.06
  -2   2   5    0.26    0.04
  -2   2   5    0.22    0.04
  -2   2   5    0.26    0.05
  -2   2   5    0.25    0.04
   1  -2  -5    2.98    0.11
   1  -2  -5    2.95    0.11
   1  -2  -5    2.88    0.11
  -1   2   5    2.78    0.10
  -1   2   5    2.93    0.10
  -1   2   5    3.00    0.11
  -1   2   5    3.07    0.10
   0  -2  -5    5.87    0.12
   0  -2  -5    5.72    0.16
   0  -2  -5    5.79    0.16
   0   2   5    5.82    0.14
   0   2   5    5.82    0.15
   0   2   5    5.91    0.16
  -1  -2  -5   27.94    0.54
  -1  -2  -5   28.01    0.54
   1   2   5   28.57    0.54
   1   2   5   28.36    0.55
   1   2   5   27.42    0.55
   1   2   5   28.54    0.54
  -2  -2  -5    1.14    0.08
  -2  -2  -5    1.02    0.07
   2   2   5    1.10    0.10
  -3  -2  -5    0.99    0.07
  -3  -2  -5    0.97    0.08
   3   2   5    0.93    0.11
   4   2   5    1.20    0.13
   5   2   5    0.96    0.15
   6  -3  -5    2.19    0.21
  -6   3   5    2.24    0.18
   5  -3  -5    2.72    0.19
  -5   3   5    2.91    0.17
   4  -3  -5    4.38    0.20
  -4   3   5    4.53    0.19
  -4   3   5    4.33    0.12
  -4   3   5    4.63    0.13
   3  -3  -5    0.77    0.10
  -3   3   5    0.97    0.09
  -3   3   5    1.03    0.07
  -3   3   5    1.10    0.07
   2  -3  -5   20.71    0.44
   2  -3  -5   20.36    0.41
   2  -3  -5   21.30    0.42
  -2   3   5   20.58    0.43
  -2   3   5   19.71    0.41
  -2   3   5   20.07    0.41
  -2   3   5   20.49    0.38
   1  -3  -5   17.94    0.37
   1  -3  -5   17.87    0.38
   1  -3  -5   18.39    0.36
  -1   3   5   18.47    0.35
  -1   3   5   17.50    0.37
  -1   3   5   17.37    0.37
  -1   3   5   18.14    0.37
   0  -3  -5    7.63    0.20
   0  -3  -5    8.35    0.21
   0   3   5    7.81    0.19
   0   3   5    8.09    0.20
   0   3   5    8.21    0.21
   0   3   5    7.92    0.20
  -1  -3  -5    0.28    0.05
  -1  -3  -5    0.33    0.05
   1   3   5    0.36    0.05
   1   3   5    0.34    0.05
  -2  -3  -5    0.05    0.04
  -2  -3  -5    0.02    0.04
   2   3   5    0.20    0.08
  -3  -3  -5    5.59    0.17
  -3  -3  -5    5.62    0.16
   3   3   5    5.81    0.24
  -4  -3  -5    3.76    0.16
   4   3   5    3.82    0.23
  -5  -3  -5    0.28    0.08
   5   3   5    0.08    0.11
   6  -4  -5    0.96    0.15
  -6   4   5    0.99    0.13
   5  -4  -5    6.22    0.27
  -5   4   5    6.88    0.26
   4  -4  -5    1.50    0.14
  -4   4   5    1.64    0.08
  -4   4   5    1.58    0.07
  -4   4   5    1.61    0.13
   3  -4  -5    3.49    0.18
  -3   4   5    3.38    0.12
  -3   4   5    3.34    0.16
  -3   4   5    3.35    0.12
   2  -4  -5    0.30    0.05
   2  -4  -5    0.37    0.06
   2  -4  -5    0.37    0.07
  -2   4   5    0.30    0.06
  -2   4   5    0.37    0.05
  -2   4   5    0.29    0.05
   1  -4  -5   21.22    0.44
   1  -4  -5   21.30    0.42
   1  -4  -5   21.03    0.44
  -1   4   5   21.73    0.44
  -1   4   5   21.07    0.43
  -1   4   5   20.68    0.43
  -1   4   5   22.05    0.40
   0  -4  -5    5.08    0.17
   0  -4  -5    4.70    0.16
   0   4   5    5.01    0.16
   0   4   5    5.12    0.16
   0   4   5    4.97    0.16
  -1  -4  -5    1.95    0.11
  -1  -4  -5    2.12    0.11
   1   4   5    1.88    0.10
   1   4   5    2.06    0.11
  -2  -4  -5    0.86    0.08
  -2  -4  -5    0.87    0.08
  -3  -4  -5    0.05    0.04
  -3  -4  -5    0.06    0.04
  -4  -4  -5    1.93    0.11
   6  -5  -5    0.07    0.10
  -6   5   5    0.02    0.07
   5  -5  -5    0.01    0.08
  -5   5   5   -0.06    0.06
   4  -5  -5    2.73    0.18
  -4   5   5    2.81    0.11
  -4   5   5    2.72    0.16
  -4   5   5    2.75    0.10
   3  -5  -5   11.22    0.32
  -3   5   5   10.66    0.26
  -3   5   5   10.78    0.31
  -3   5   5   10.73    0.26
   2  -5  -5    3.80    0.17
   2  -5  -5    3.84    0.15
   2  -5  -5    4.12    0.15
  -2   5   5    3.67    0.14
  -2   5   5    3.91    0.14
  -2   5   5    4.12    0.17
   1  -5  -5    0.09    0.05
   1  -5  -5    0.08    0.05
  -1   5   5    0.08    0.05
  -1   5   5    0.06    0.04
  -1   5   5    0.11    0.04
   0  -5  -5   14.73    0.34
   0  -5  -5   15.14    0.35
   0   5   5   14.66    0.34
   0   5   5   14.71    0.34
   0   5   5   14.38    0.33
  -1  -5  -5    0.58    0.07
  -1  -5  -5    0.52    0.07
   1   5   5    0.60    0.07
   1   5   5    0.56    0.07
  -2  -5  -5   18.58    0.42
  -2  -5  -5   18.71    0.41
  -3  -5  -5    1.98    0.12
  -3  -5  -5    1.86    0.11
  -4  -5  -5    6.00    0.20
  -4  -5  -5    6.18    0.25
   6  -6  -5   -0.03    0.11
  -6   6   5    0.04    0.09
   5  -6  -5    1.19    0.15
  -5   6   5    1.24    0.13
   4  -6  -5    0.14    0.09
  -4   6   5    0.21    0.05
  -4   6   5    0.27    0.05
  -4   6   5    0.29    0.07
   3  -6  -5    8.38    0.28
  -3   6   5    8.38    0.27
  -3   6   5    8.47    0.23
  -3   6   5    8.87    0.23
   2  -6  -5    0.38    0.07
   2  -6  -5    0.23    0.06
  -2   6   5    0.23    0.05
  -2   6   5    0.27    0.06
  -2   6   5    0.39    0.08
   1  -6  -5    8.19    0.24
   1  -6  -5    7.82    0.23
  -1   6   5    8.20    0.25
  -1   6   5    7.89    0.22
  -1   6   5    7.98    0.23
   0  -6  -5   49.34    0.95
   0  -6  -5   50.41    0.95
   0   6   5   50.21    0.94
   0   6   5   50.52    0.95
   0   6   5   50.82    0.94
  -1  -6  -5   50.44    0.95
  -1  -6  -5   50.57    0.96
   1   6   5   49.48    0.94
  -2  -6  -5    5.77    0.21
  -2  -6  -5    6.14    0.20
  -3  -6  -5    0.01    0.04
  -3  -6  -5   -0.01    0.05
  -4  -6  -5    0.00    0.05
  -4  -6  -5    0.10    0.07
   5  -7  -5    1.47    0.18
  -5   7   5    1.22    0.09
  -5   7   5    1.27    0.15
   4  -7  -5    1.54    0.17
  -4   7   5    1.39    0.14
  -4   7   5    1.66    0.10
  -4   7   5    1.85    0.11
  -3   7   5    4.94    0.17
  -3   7   5    4.49    0.21
  -3   7   5    4.70    0.16
   2  -7  -5    2.49    0.16
   2  -7  -5    2.50    0.14
  -2   7   5    2.78    0.13
  -2   7   5    2.47    0.12
  -2   7   5    2.58    0.16
   1  -7  -5   12.94    0.34
   1  -7  -5   13.03    0.34
  -1   7   5   12.98    0.33
  -1   7   5   13.42    0.35
  -1   7   5   13.05    0.33
   0  -7  -5    7.40    0.23
   0  -7  -5    6.85    0.23
   0   7   5    7.13    0.24
   0   7   5    7.07    0.22
   0   7   5    7.13    0.23
  -1  -7  -5    1.73    0.12
  -1  -7  -5    1.64    0.13
  -1  -7  -5    1.75    0.11
  -2  -7  -5   15.32    0.40
  -2  -7  -5   15.87    0.39
  -3  -7  -5   -0.03    0.05
  -3  -7  -5    0.10    0.06
  -5   8   5    3.11    0.14
  -5   8   5    3.33    0.22
  -4   8   5    0.09    0.05
  -4   8   5   -0.07    0.07
  -3   8   5    0.07    0.05
  -3   8   5   -0.18    0.06
   2  -8  -5    5.30    0.24
  -2   8   5    5.17    0.20
  -2   8   5    5.53    0.19
  -2   8   5    5.42    0.23
   1  -8  -5   10.80    0.31
   1  -8  -5   11.33    0.32
  -1   8   5   10.95    0.30
  -1   8   5   10.05    0.29
  -1   8   5   11.21    0.33
   0  -8  -5    3.95    0.18
   0  -8  -5    4.12    0.19
   0   8   5    3.92    0.17
   0   8   5    4.04    0.17
   0   8   5    4.20    0.20
  -1  -8  -5    2.07    0.14
  -2  -8  -5    0.77    0.10
  -2  -8  -5    0.65    0.09
  -3  -8  -5    0.37    0.08
  -3  -8  -5    0.34    0.09
  -5   9   5    2.53    0.23
  -5   9   5    2.59    0.14
  -4   9   5    1.48    0.16
  -4   9   5    1.63    0.12
  -3   9   5    0.00    0.08
  -3   9   5    0.08    0.06
  -2   9   5    0.06    0.05
  -2   9   5   -0.13    0.07
   1  -9  -5    0.21    0.07
  -1   9   5    0.25    0.07
  -1   9   5    0.07    0.09
   0  -9  -5    0.05    0.06
   0   9   5    0.03    0.05
   0   9   5    0.07    0.09
  -1  -9  -5    1.21    0.13
  -2  -9  -5    0.68    0.11
  -4  10   5    0.75    0.10
  -4  10   5    0.49    0.13
  -3  10   5    0.50    0.13
  -3  10   5    0.56    0.09
  -2  10   5    0.12    0.11
  -2  10   5    0.31    0.08
   1 -10  -5   -0.11    0.06
  -1  10   5    0.12    0.07
  -1  10   5   -0.10    0.09
   0 -10  -5    0.13    0.08
   0  10   5    0.09    0.07
  -1 -10  -5    0.58    0.11
  -2  11   5    2.46    0.17
  -2  11   5    2.11    0.21
   1 -11  -5    2.98    0.20
  -1  11   5    2.85    0.23
  -1  11   5    3.02    0.19
   0  11  -6    1.37    0.15
   0  11  -6    1.61    0.18
   0 -11   6    1.94    0.17
  -1  11  -6    0.37    0.12
  -1  11  -6    0.29    0.09
   1 -11   6    0.11    0.10
   2  10  -6    0.63    0.13
   2  10  -6    0.67    0.16
  -2 -10   6    0.61    0.11
  -2 -10   6    0.45    0.13
   1  10  -6    1.35    0.16
  -1 -10   6    1.24    0.14
  -1 -10   6    1.28    0.14
   0  10  -6    0.70    0.13
   0  10  -6    0.65    0.10
   0 -10   6    0.78    0.11
  -1  10  -6    0.76    0.11
  -1  10  -6    0.94    0.13
   1 -10   6    1.03    0.14
  -2  10  -6    1.10    0.15
  -2  10  -6    0.88    0.11
   2 -10   6    1.08    0.14
  -3  10  -6    0.16    0.07
   3 -10   6    0.22    0.10
  -3  -9   6   -0.07    0.10
   2   9  -6    0.09    0.09
   2   9  -6    0.03    0.12
  -2  -9   6    0.00    0.06
  -2  -9   6    0.07    0.09
   1   9  -6    2.12    0.19
  -1  -9   6    2.30    0.15
  -1  -9   6    2.02    0.17
   0   9  -6    0.00    0.06
   0   9  -6    0.05    0.08
   0  -9   6   -0.10    0.07
   0  -9   6    0.12    0.06
  -1   9  -6    0.89    0.12
  -1   9  -6    0.91    0.10
   1  -9   6    0.91    0.10
   1  -9   6    0.88    0.11
   1  -9   6    1.17    0.13
  -2   9  -6   -0.03    0.05
  -2   9  -6    0.01    0.09
   2  -9   6    0.01    0.07
  -3   9  -6    0.81    0.10
   3  -9   6    0.66    0.12
  -4   9  -6   13.62    0.37
   4  -9   6   13.62    0.44
   3   8  -6    0.90    0.15
   3   8  -6    0.88    0.13
  -3  -8   6    0.69    0.13
  -3  -8   6    0.71    0.09
   2   8  -6    3.98    0.25
   2   8  -6    4.17    0.22
  -2  -8   6    3.91    0.21
  -2  -8   6    3.85    0.18
   1   8  -6    0.43    0.10
   1   8  -6    0.34    0.08
   1   8  -6    0.20    0.07
  -1  -8   6    0.24    0.07
  -1  -8   6    0.39    0.09
   0   8  -6    7.27    0.27
   0   8  -6    7.64    0.25
   0   8  -6    7.22    0.25
   0  -8   6    7.40    0.25
   0  -8   6    7.12    0.25
   0  -8   6    7.64    0.25
  -1   8  -6    6.68    0.25
  -1   8  -6    6.23    0.23
  -1   8  -6    6.58    0.22
   1  -8   6    6.47    0.22
   1  -8   6    6.69    0.23
   1  -8   6    6.23    0.25
   1  -8   6    6.24    0.23
  -2   8  -6    2.74    0.15
  -2   8  -6    2.70    0.23
   2  -8   6    3.05    0.19
  -3   8  -6    0.03    0.05
   3  -8   6    0.13    0.08
  -4   8  -6    0.46    0.07
   4  -8   6    0.43    0.11
   4   7  -6    4.75    0.27
  -4  -7   6    5.18    0.27
  -4  -7   6    4.86    0.19
   3   7  -6    0.25    0.09
   3   7  -6    0.02    0.08
  -3  -7   6   -0.01    0.08
  -3  -7   6    0.05    0.05
   2   7  -6    0.33    0.11
   2   7  -6    0.63    0.10
  -2  -7   6    0.31    0.07
  -2  -7   6    0.46    0.10
   1   7  -6    0.94    0.09
   1   7  -6    1.36    0.13
   1   7  -6    1.04    0.10
  -1  -7   6    1.30    0.11
  -1  -7   6    1.32    0.12
  -1  -7   6    1.24    0.11
   0   7  -6   11.73    0.33
   0   7  -6   11.56    0.31
   0   7  -6   11.56    0.31
   0  -7   6   11.21    0.31
   0  -7   6   11.12    0.30
   0  -7   6   10.86    0.31
  -1   7  -6    0.35    0.07
  -1   7  -6    0.33    0.06
  -1   7  -6    0.33    0.08
   1  -7   6    0.35    0.08
   1  -7   6    0.30    0.07
   1  -7   6    0.30    0.07
   1  -7   6    0.39    0.07
  -2   7  -6   11.80    0.30
  -2   7  -6   10.94    0.30
   2  -7   6   10.59    0.29
   2  -7   6   11.03    0.33
  -3   7  -6    0.68    0.08
   3  -7   6    0.81    0.11
  -4   7  -6    3.30    0.15
   4  -7   6    3.28    0.21
   5  -7   6    2.91    0.22
   4   6  -6   16.47    0.49
  -4  -6   6   15.90    0.39
  -4  -6   6   16.89    0.47
   3   6  -6    0.15    0.08
   3   6  -6    0.15    0.09
  -3  -6   6   -0.03    0.08
  -3  -6   6    0.14    0.05
   2   6  -6    2.21    0.16
   2   6  -6    1.91    0.18
  -2  -6   6    2.21    0.12
  -2  -6   6    2.32    0.16
  -2  -6   6    2.18    0.12
   1   6  -6    6.90    0.24
   1   6  -6    6.64    0.21
   1   6  -6    7.05    0.22
  -1  -6   6    6.55    0.21
  -1  -6   6    7.13    0.22
  -1  -6   6    6.44    0.23
   0   6  -6   -0.06    0.06
   0   6  -6    0.07    0.05
   0   6  -6    0.00    0.04
   0  -6   6    0.01    0.06
   0  -6   6    0.00    0.04
   0  -6   6   -0.03    0.04
  -1   6  -6    0.15    0.05
  -1   6  -6    0.17    0.06
  -1   6  -6    0.19    0.07
   1  -6   6    0.11    0.05
   1  -6   6    0.15    0.06
   1  -6   6    0.12    0.06
   1  -6   6    0.10    0.05
  -2   6  -6    6.30    0.20
  -2   6  -6    6.17    0.20
   2  -6   6    5.83    0.20
   2  -6   6    6.47    0.23
  -3   6  -6    4.67    0.16
  -3   6  -6    4.60    0.17
   3  -6   6    4.63    0.21
   3  -6   6    4.48    0.17
  -4   6  -6    0.88    0.08
   4  -6   6    0.92    0.12
   5  -6   6    0.09    0.08
   5   5  -6    0.51    0.13
  -5  -5   6    0.40    0.12
   4   5  -6    1.43    0.15
  -4  -5   6    1.15    0.10
  -4  -5   6    1.29    0.14
  -4  -5   6    1.23    0.10
   3   5  -6   -0.02    0.06
   3   5  -6   -0.14    0.07
  -3  -5   6    0.02    0.04
  -3  -5   6   -0.05    0.07
   2   5  -6    0.20    0.07
   2   5  -6    0.29    0.09
  -2  -5   6    0.16    0.07
  -2  -5   6    0.27    0.05
  -2  -5   6    0.17    0.05
   1   5  -6    4.77    0.20
   1   5  -6    4.44    0.17
   1   5  -6    4.89    0.17
  -1  -5   6    4.48    0.19
  -1  -5   6    4.42    0.16
  -1  -5   6    4.81    0.17
   0   5  -6    0.01    0.04
   0   5  -6    0.05    0.05
   0   5  -6    0.08    0.07
   0  -5   6    0.16    0.06
   0  -5   6    0.04    0.04
   0  -5   6    0.07    0.07
   0  -5   6    0.04    0.04
  -1   5  -6    0.03    0.04
  -1   5  -6    0.02    0.04
  -1   5  -6    0.00    0.06
   1  -5   6   -0.06    0.06
   1  -5   6    0.03    0.04
   1  -5   6   -0.03    0.04
   1  -5   6   -0.05    0.06
  -2   5  -6    4.01    0.15
  -2   5  -6    3.73    0.15
   2  -5   6    3.90    0.18
   2  -5   6    3.99    0.16
  -3   5  -6    3.29    0.13
  -3   5  -6    3.09    0.13
   3  -5   6    3.13    0.15
   3  -5   6    3.50    0.18
  -4   5  -6    2.30    0.11
   4  -5   6    2.66    0.17
   5  -5   6    0.22    0.09
   5   4  -6    0.14    0.10
  -5  -4   6    0.13    0.09
   4   4  -6    2.95    0.20
  -4  -4   6    2.82    0.13
  -4  -4   6    3.03    0.18
  -4  -4   6    3.05    0.12
   3   4  -6    2.31    0.17
  -3  -4   6    2.33    0.11
  -3  -4   6    2.18    0.11
  -3  -4   6    2.13    0.15
   2   4  -6    0.04    0.08
   2   4  -6   -0.02    0.04
   2   4  -6   -0.03    0.06
  -2  -4   6    0.10    0.07
  -2  -4   6   -0.04    0.04
  -2  -4   6   -0.03    0.04
   1   4  -6    0.02    0.06
   1   4  -6    0.11    0.09
   1   4  -6   -0.01    0.04
   1   4  -6    0.02    0.04
  -1  -4   6    0.06    0.04
  -1  -4   6    0.03    0.06
  -1  -4   6    0.04    0.04
   0   4  -6    0.00    0.04
   0   4  -6   -0.07    0.05
   0   4  -6    0.02    0.04
   0  -4   6    0.09    0.05
   0  -4   6   -0.01    0.04
   0  -4   6    0.01    0.06
   0  -4   6    0.02    0.04
  -1   4  -6    0.09    0.05
  -1   4  -6    0.10    0.04
  -1   4  -6    0.17    0.05
   1  -4   6    0.05    0.05
   1  -4   6    0.14    0.04
   1  -4   6    0.12    0.04
   1  -4   6    0.11    0.06
  -2   4  -6    1.14    0.09
  -2   4  -6    1.02    0.08
   2  -4   6    1.00    0.09
   2  -4   6    1.00    0.10
  -3   4  -6    3.71    0.13
  -3   4  -6    3.41    0.13
   3  -4   6    3.71    0.16
   3  -4   6    3.46    0.17
  -4   4  -6    2.21    0.10
   4  -4   6    2.53    0.17
   4  -4   6    2.02    0.13
   5  -4   6    3.77    0.23
   5   3  -6    0.72    0.13
  -5  -3   6    0.67    0.11
   4   3  -6    0.10    0.08
  -4  -3   6    0.13    0.04
  -4  -3   6    0.13    0.07
  -4  -3   6    0.12    0.04
   3   3  -6    9.27    0.30
  -3  -3   6    9.17    0.23
  -3  -3   6    9.80    0.27
  -3  -3   6    8.99    0.23
   2   3  -6    0.05    0.07
   2   3  -6    0.04    0.04
   2   3  -6   -0.01    0.05
  -2  -3   6    0.08    0.07
  -2  -3   6    0.07    0.04
  -2  -3   6    0.05    0.04
   1   3  -6    1.89    0.10
   1   3  -6    1.96    0.12
   1   3  -6    2.07    0.14
   1   3  -6    1.91    0.10
  -1  -3   6    1.81    0.12
  -1  -3   6    2.03    0.10
   0   3  -6    2.66    0.11
   0   3  -6    2.86    0.12
   0   3  -6    2.63    0.12
   0  -3   6    2.87    0.11
   0  -3   6    2.66    0.11
   0  -3   6    2.67    0.13
   0  -3   6    2.67    0.11
  -1   3  -6   24.22    0.50
  -1   3  -6   25.32    0.50
  -1   3  -6   24.81    0.47
   1  -3   6   24.65    0.50
   1  -3   6   25.35    0.50
   1  -3   6   25.80    0.51
   1  -3   6   25.78    0.51
  -2   3  -6    5.42    0.17
  -2   3  -6    5.49    0.16
   2  -3   6    5.18    0.19
   2  -3   6    5.47    0.19
  -3   3  -6    3.41    0.13
  -3   3  -6    3.43    0.12
   3  -3   6    3.42    0.15
   3  -3   6    3.58    0.17
  -4   3  -6    8.46    0.21
   4  -3   6    8.29    0.29
   5  -3   6    1.13    0.14
   6   2  -6    0.05    0.10
  -6  -2   6   -0.10    0.09
   5   2  -6    3.40    0.22
  -5  -2   6    2.76    0.18
   4   2  -6    1.10    0.13
  -4  -2   6    0.88    0.10
  -4  -2   6    0.94    0.06
  -4  -2   6    0.95    0.07
   3   2  -6    6.56    0.25
  -3  -2   6    6.94    0.19
  -3  -2   6    7.13    0.23
  -3  -2   6    6.65    0.18
   2   2  -6    0.05    0.04
   2   2  -6    0.01    0.03
   2   2  -6    0.01    0.07
  -2  -2   6    0.00    0.03
  -2  -2   6   -0.01    0.06
  -2  -2   6    0.03    0.04
   1   2  -6    2.40    0.11
   1   2  -6    2.65    0.14
   1   2  -6    2.76    0.11
  -1  -2   6    2.63    0.11
  -1  -2   6    2.61    0.13
  -1  -2   6    2.60    0.09
  -1  -2   6    2.55    0.11
   0   2  -6   14.81    0.32
   0   2  -6   15.36    0.33
   0   2  -6   14.76    0.31
   0  -2   6   15.25    0.32
   0  -2   6   14.64    0.33
   0  -2   6   15.24    0.31
   0  -2   6   14.52    0.32
  -1   2  -6    2.02    0.10
  -1   2  -6    2.12    0.10
   1  -2   6    2.09    0.11
   1  -2   6    2.04    0.10
   1  -2   6    2.12    0.10
   1  -2   6    2.07    0.10
  -2   2  -6  102.87    1.76
  -2   2  -6  100.82    1.76
   2  -2   6  101.56    1.79
   2  -2   6  102.13    1.78
  -3   2  -6   18.16    0.38
  -3   2  -6   18.33    0.37
   3  -2   6   17.59    0.41
   3  -2   6   18.14    0.43
  -4   2  -6    6.01    0.16
   4  -2   6    5.91    0.24
   5  -2   6    0.29    0.10
   6   1  -6    2.34    0.22
  -6  -1   6    2.45    0.18
   5   1  -6    0.69    0.12
  -5  -1   6    0.95    0.11
   4   1  -6    0.13    0.08
  -4  -1   6    0.19    0.04
  -4  -1   6    0.13    0.03
  -4  -1   6    0.15    0.07
   3   1  -6    3.27    0.17
  -3  -1   6    3.15    0.11
  -3  -1   6    3.39    0.12
  -3  -1   6    3.23    0.15
   2   1  -6    6.50    0.18
   2   1  -6    6.27    0.21
   2   1  -6    6.44    0.18
  -2  -1   6    6.25    0.17
  -2  -1   6    6.36    0.17
  -2  -1   6    6.52    0.20
   1   1  -6   36.67    0.70
   1   1  -6   37.29    0.69
   1   1  -6   37.32    0.69
  -1  -1   6   36.08    0.69
  -1  -1   6   37.43    0.69
  -1  -1   6   38.29    0.69
  -1  -1   6   37.95    0.65
   0   1  -6   13.32    0.29
   0   1  -6   12.56    0.29
   0   1  -6   13.56    0.29
   0  -1   6   13.34    0.29
   0  -1   6   13.02    0.29
   0  -1   6   13.26    0.30
   0  -1   6   13.44    0.27
  -1   1  -6    3.40    0.12
  -1   1  -6    3.20    0.12
   1  -1   6    3.03    0.13
   1  -1   6    3.21    0.12
   1  -1   6    3.02    0.11
   1  -1   6    3.04    0.12
  -2   1  -6    8.53    0.21
  -2   1  -6    8.30    0.21
   2  -1   6    7.96    0.24
   2  -1   6    8.40    0.24
  -3   1  -6    1.01    0.07
  -3   1  -6    1.02    0.08
   3  -1   6    0.73    0.09
   3  -1   6    1.10    0.10
  -4   1  -6    2.73    0.11
   4  -1   6    2.99    0.19
   5  -1   6    0.79    0.13
   6   0  -6    2.25    0.21
  -6   0   6    2.46    0.19
   5   0  -6    3.43    0.21
  -5   0   6    3.17    0.18
   4   0  -6   11.43    0.34
  -4   0   6   11.01    0.24
  -4   0   6   10.62    0.23
  -4   0   6   10.93    0.29
   3   0  -6    0.09    0.07
  -3   0   6    0.05    0.03
  -3   0   6    0.06    0.04
  -3   0   6    0.10    0.06
   2   0  -6    3.41    0.15
   2   0  -6    3.32    0.12
   2   0  -6    3.17    0.12
  -2   0   6    3.05    0.11
  -2   0   6    3.05    0.13
  -2   0   6    3.12    0.11
   1   0  -6    0.80    0.08
   1   0  -6    0.95    0.07
   1   0  -6    0.99    0.07
  -1   0   6    1.01    0.07
  -1   0   6    0.96    0.08
  -1   0   6    1.00    0.07
   0   0  -6   44.33    0.80
   0   0  -6   43.80    0.77
   0   0  -6   43.46    0.80
   0   0   6   42.56    0.80
   0   0   6   44.32    0.77
   0   0   6   43.06    0.79
   0   0   6   44.08    0.80
  -1   0  -6    0.05    0.03
  -1   0  -6    0.07    0.04
   1   0   6    0.01    0.04
   1   0   6   -0.03    0.04
   1   0   6    0.06    0.04
   1   0   6    0.04    0.03
  -2   0  -6    0.73    0.07
  -2   0  -6    0.66    0.06
   2   0   6    0.62    0.08
   2   0   6    0.63    0.08
  -3   0  -6    3.27    0.11
  -3   0  -6    3.28    0.12
   3   0   6    3.30    0.17
  -4   0  -6    0.14    0.05
   4   0   6    0.03    0.07
   5   0   6    1.80    0.17
   6  -1  -6    0.48    0.13
  -6   1   6    0.71    0.11
   5  -1  -6    2.03    0.17
  -5   1   6    1.78    0.14
   4  -1  -6    3.80    0.19
  -4   1   6    3.77    0.17
  -4   1   6    3.79    0.12
  -4   1   6    3.70    0.11
   3  -1  -6    5.51    0.21
  -3   1   6    5.69    0.15
  -3   1   6    5.50    0.19
  -3   1   6    5.52    0.16
  -3   1   6    5.40    0.17
   2  -1  -6    0.95    0.09
   2  -1  -6    1.00    0.08
   2  -1  -6    1.01    0.08
  -2   1   6    0.86    0.08
  -2   1   6    0.91    0.08
  -2   1   6    0.98    0.07
  -2   1   6    1.00    0.07
   1  -1  -6    0.00    0.03
   1  -1  -6    0.04    0.03
   1  -1  -6    0.06    0.04
  -1   1   6    0.06    0.03
  -1   1   6    0.07    0.03
  -1   1   6    0.08    0.03
  -1   1   6    0.00    0.04
   0  -1  -6    2.83    0.11
   0  -1  -6    2.88    0.11
   0  -1  -6    3.05    0.09
   0   1   6    3.02    0.10
   0   1   6    2.91    0.11
   0   1   6    2.85    0.12
   0   1   6    3.02    0.09
  -1  -1  -6    1.11    0.08
  -1  -1  -6    1.12    0.08
   1   1   6    1.10    0.09
   1   1   6    0.98    0.09
   1   1   6    1.00    0.07
   1   1   6    1.05    0.08
  -2  -1  -6   15.78    0.34
  -2  -1  -6   15.61    0.34
   2   1   6   15.83    0.37
   2   1   6   15.81    0.38
  -3  -1  -6   20.06    0.40
  -3  -1  -6   20.35    0.42
   3   1   6   20.38    0.48
  -4  -1  -6    0.33    0.06
   4   1   6    0.21    0.08
   5   1   6    3.40    0.24
   6  -2  -6    7.41    0.33
  -6   2   6    7.39    0.30
   5  -2  -6    3.73    0.22
  -5   2   6    3.90    0.20
   4  -2  -6    0.26    0.08
  -4   2   6    0.22    0.06
  -4   2   6    0.20    0.03
  -4   2   6    0.23    0.04
   3  -2  -6    6.16    0.22
  -3   2   6    6.18    0.21
  -3   2   6    6.31    0.17
  -3   2   6    6.10    0.17
  -3   2   6    5.95    0.19
   2  -2  -6    1.75    0.11
   2  -2  -6    1.88    0.10
   2  -2  -6    1.85    0.10
  -2   2   6    1.62    0.09
  -2   2   6    1.75    0.10
  -2   2   6    1.66    0.09
  -2   2   6    1.74    0.09
   1  -2  -6    0.07    0.04
   1  -2  -6    0.08    0.04
   1  -2  -6    0.06    0.04
  -1   2   6    0.04    0.03
  -1   2   6    0.12    0.04
  -1   2   6    0.02    0.04
  -1   2   6    0.03    0.03
   0  -2  -6    5.45    0.17
   0  -2  -6    5.25    0.16
   0   2   6    5.08    0.16
   0   2   6    5.42    0.14
   0   2   6    5.41    0.16
   0   2   6    5.45    0.16
  -1  -2  -6    0.04    0.04
  -1  -2  -6    0.02    0.04
   1   2   6    0.03    0.05
   1   2   6    0.01    0.03
   1   2   6    0.07    0.05
   1   2   6    0.05    0.04
  -2  -2  -6    1.91    0.10
  -2  -2  -6    2.03    0.11
   2   2   6    1.76    0.14
  -3  -2  -6   11.46    0.26
  -3  -2  -6   11.21    0.27
   3   2   6   11.40    0.34
  -4  -2  -6    0.06    0.04
   4   2   6   -0.05    0.08
   5   2   6    3.03    0.24
   6  -3  -6    6.49    0.31
  -6   3   6    6.26    0.28
   5  -3  -6    2.51    0.20
  -5   3   6    2.79    0.17
   4  -3  -6    5.92    0.24
  -4   3   6    5.46    0.15
  -4   3   6    5.54    0.16
  -4   3   6    5.60    0.22
   3  -3  -6    6.71    0.23
  -3   3   6    6.53    0.22
  -3   3   6    6.52    0.18
  -3   3   6    6.58    0.18
   2  -3  -6    0.95    0.08
   2  -3  -6    1.01    0.09
   2  -3  -6    0.96    0.08
  -2   3   6    0.91    0.08
  -2   3   6    0.83    0.08
  -2   3   6    0.92    0.07
  -2   3   6    0.96    0.07
   1  -3  -6    8.55    0.23
   1  -3  -6    8.55    0.21
   1  -3  -6    8.86    0.23
  -1   3   6    8.71    0.22
  -1   3   6    8.67    0.21
  -1   3   6    8.20    0.22
  -1   3   6    8.75    0.22
   0  -3  -6   10.39    0.27
   0  -3  -6   10.33    0.26
   0   3   6   10.87    0.24
   0   3   6   10.85    0.26
   0   3   6   10.76    0.26
   0   3   6   10.62    0.25
  -1  -3  -6    0.56    0.07
  -1  -3  -6    0.59    0.07
   1   3   6    0.66    0.07
   1   3   6    0.60    0.07
  -2  -3  -6    1.75    0.10
  -2  -3  -6    1.75    0.11
   2   3   6    1.81    0.14
  -3  -3  -6    4.38    0.15
  -3  -3  -6    4.43    0.16
   3   3   6    4.05    0.21
  -4  -3  -6    1.13    0.09
   4   3   6    1.28    0.15
   6  -4  -6    6.10    0.30
  -6   4   6    6.03    0.28
   5  -4  -6    6.34    0.28
  -5   4   6    6.31    0.26
   4  -4  -6   11.06    0.34
  -4   4   6   10.77    0.25
  -4   4   6   10.35    0.24
  -4   4   6   10.32    0.31
   3  -4  -6    1.10    0.11
  -3   4   6    0.99    0.08
  -3   4   6    0.89    0.10
  -3   4   6    0.97    0.08
   2  -4  -6    4.90    0.18
   2  -4  -6    5.02    0.17
   2  -4  -6    5.17    0.17
  -2   4   6    4.80    0.16
  -2   4   6    4.88    0.18
  -2   4   6    5.15    0.16
   1  -4  -6   30.51    0.61
   1  -4  -6   30.50    0.61
  -1   4   6   30.88    0.60
  -1   4   6   29.97    0.60
  -1   4   6   30.70    0.57
  -1   4   6   31.53    0.60
   0  -4  -6   42.43    0.82
   0  -4  -6   43.49    0.82
   0   4   6   41.51    0.81
   0   4   6   43.57    0.81
   0   4   6   43.62    0.79
  -1  -4  -6   -0.06    0.04
  -1  -4  -6    0.03    0.04
   1   4   6    0.05    0.04
   1   4   6    0.00    0.04
  -2  -4  -6    3.39    0.15
  -2  -4  -6    3.17    0.14
  -3  -4  -6    0.08    0.05
  -3  -4  -6    0.08    0.04
  -4  -4  -6   -0.05    0.04
   6  -5  -6    0.91    0.15
  -6   5   6    0.69    0.12
   5  -5  -6    0.27    0.10
  -5   5   6    0.29    0.09
   4  -5  -6    0.08    0.08
  -4   5   6    0.01    0.03
  -4   5   6    0.02    0.06
  -4   5   6    0.06    0.04
   3  -5  -6    6.87    0.24
  -3   5   6    6.52    0.23
  -3   5   6    6.51    0.19
  -3   5   6    6.36    0.20
   2  -5  -6   17.15    0.40
   2  -5  -6   17.52    0.40
   2  -5  -6   17.62    0.40
  -2   5   6   17.44    0.38
  -2   5   6   16.69    0.38
  -2   5   6   17.07    0.40
   1  -5  -6    0.80    0.09
   1  -5  -6    0.77    0.09
  -1   5   6    0.81    0.08
  -1   5   6    0.78    0.08
  -1   5   6    0.73    0.08
   0  -5  -6    0.01    0.05
   0  -5  -6    0.06    0.05
   0   5   6    0.09    0.05
   0   5   6    0.03    0.06
   0   5   6    0.01    0.04
  -1  -5  -6    9.50    0.26
  -1  -5  -6    9.29    0.26
   1   5   6    9.00    0.26
  -2  -5  -6    7.00    0.23
  -2  -5  -6    7.57    0.22
  -3  -5  -6    1.59    0.12
  -4  -5  -6    1.04    0.09
   6  -6  -6   -0.11    0.11
  -6   6   6    0.09    0.09
   5  -6  -6    0.34    0.12
  -5   6   6    0.42    0.10
  -5   6   6    0.39    0.06
   4  -6  -6    0.35    0.10
  -4   6   6    0.16    0.04
  -4   6   6    0.12    0.07
  -4   6   6    0.11    0.04
   3  -6  -6    0.33    0.09
  -3   6   6    0.27    0.07
  -3   6   6    0.37    0.06
  -3   6   6    0.38    0.06
   2  -6  -6   17.52    0.40
   2  -6  -6   16.86    0.40
  -2   6   6   16.93    0.41
  -2   6   6   17.54    0.39
  -2   6   6   16.62    0.39
   1  -6  -6    2.04    0.12
   1  -6  -6    2.00    0.12
  -1   6   6    1.78    0.13
  -1   6   6    1.85    0.11
  -1   6   6    2.16    0.12
   0  -6  -6   12.45    0.33
   0  -6  -6   12.74    0.33
   0   6   6   12.45    0.32
   0   6   6   12.35    0.32
  -1  -6  -6    1.04    0.10
  -1  -6  -6    1.23    0.11
  -2  -6  -6    6.83    0.23
  -3  -6  -6    2.41    0.14
   5  -7  -6   -0.08    0.11
  -5   7   6   -0.03    0.04
  -5   7   6   -0.11    0.07
   4  -7  -6    1.46    0.16
  -4   7   6    1.44    0.11
  -4   7   6    1.07    0.13
  -3   7   6    0.01    0.06
  -3   7   6    0.17    0.05
  -3   7   6    0.05    0.04
   2  -7  -6    8.84    0.27
  -2   7   6    8.78    0.26
  -2   7   6    9.10    0.26
  -2   7   6    8.76    0.28
   1  -7  -6   -0.01    0.05
   1  -7  -6    0.01    0.05
  -1   7   6    0.00    0.07
  -1   7   6    0.06    0.05
  -1   7   6    0.01    0.04
   0  -7  -6   16.24    0.41
   0  -7  -6   16.57    0.41
   0   7   6   16.16    0.40
   0   7   6   16.56    0.40
  -1  -7  -6    0.10    0.06
  -2  -7  -6    1.02    0.11
  -2  -7  -6    1.13    0.11
  -3  -7  -6    0.36    0.09
  -3  -7  -6    0.35    0.08
  -5   8   6   -0.03    0.09
  -5   8   6    0.18    0.06
  -4   8   6    0.85    0.13
  -4   8   6    0.76    0.09
  -3   8   6    0.75    0.11
  -3   8   6    0.78    0.09
  -2   8   6    0.38    0.07
  -2   8   6    0.23    0.09
   1  -8  -6    2.15    0.14
   1  -8  -6    1.93    0.14
  -1   8   6    1.99    0.17
  -1   8   6    2.03    0.13
  -1   8   6    1.70    0.12
   0  -8  -6    1.44    0.13
   0   8   6    1.32    0.12
   0   8   6    1.42    0.12
  -1  -8  -6    0.86    0.10
  -2  -8  -6    3.67    0.19
  -4   9   6   -0.07    0.08
  -4   9   6    0.22    0.07
  -3   9   6    0.16    0.09
  -3   9   6    0.23    0.07
  -2   9   6    0.02    0.08
  -2   9   6    0.01    0.05
   1  -9  -6    0.06    0.06
  -1   9   6   -0.18    0.08
  -1   9   6   -0.09    0.05
   0  -9  -6    9.05    0.30
   0   9   6    8.96    0.30
  -1  -9  -6    0.42    0.09
  -3  10   6    4.92    0.22
  -3  10   6    4.92    0.28
  -2  10   6   -0.01    0.05
  -2  10   6   -0.26    0.09
   1 -10  -6    0.77    0.11
  -1  10   6    0.76    0.14
  -1  10   6    0.73    0.10
   0 -10  -6    0.69    0.11
   1  10  -7    8.07    0.34
  -1 -10   7    8.11    0.32
  -1 -10   7    8.48    0.30
   0  10  -7    2.69    0.21
   0  10  -7    2.03    0.17
   0 -10   7    2.04    0.19
   0 -10   7    2.63    0.18
  -1  10  -7   -0.03    0.07
  -1  10  -7    0.13    0.10
   1 -10   7   -0.05    0.08
  -2  10  -7    0.16    0.08
   2 -10   7    0.04    0.08
   2   9  -7    0.40    0.14
   2   9  -7    0.49    0.11
  -2  -9   7    0.38    0.08
  -2  -9   7    0.18    0.11
   1   9  -7    4.57    0.25
  -1  -9   7    4.19    0.22
  -1  -9   7    4.17    0.20
   0   9  -7    2.02    0.18
   0   9  -7    1.82    0.15
   0  -9   7    1.99    0.17
   0  -9   7    1.61    0.16
   0  -9   7    1.90    0.15
  -1   9  -7    4.06    0.20
  -1   9  -7    4.37    0.23
   1  -9   7    4.20    0.22
  -2   9  -7    1.87    0.15
   2  -9   7    1.90    0.18
  -3   9  -7    0.09    0.07
   3  -9   7    0.18    0.09
   3   8  -7    2.01    0.20
   3   8  -7    2.43    0.20
  -3  -8   7    2.18    0.15
  -3  -8   7    1.79    0.17
   2   8  -7    1.39    0.15
   2   8  -7    1.60    0.18
  -2  -8   7    1.53    0.15
  -2  -8   7    1.37    0.13
   1   8  -7    1.36    0.12
   1   8  -7    1.59    0.15
   1   8  -7    1.80    0.16
  -1  -8   7    1.38    0.13
  -1  -8   7    1.24    0.12
   0   8  -7    0.21    0.08
   0   8  -7    0.15    0.06
   0  -8   7    0.19    0.09
   0  -8   7    0.16    0.06
   0  -8   7   -0.01    0.07
  -1   8  -7    5.30    0.21
  -1   8  -7    5.15    0.23
   1  -8   7    5.80    0.24
   1  -8   7    5.51    0.21
   1  -8   7    5.42    0.21
   1  -8   7    5.42    0.21
  -2   8  -7    0.59    0.09
   2  -8   7    0.63    0.10
  -3   8  -7    0.38    0.08
   3  -8   7    0.36    0.09
  -4   8  -7    4.15    0.18
   4  -8   7    4.24    0.25
   4   7  -7    3.18    0.24
  -4  -7   7    3.02    0.24
  -4  -7   7    3.25    0.17
   3   7  -7    2.24    0.20
   3   7  -7    2.24    0.19
  -3  -7   7    2.00    0.14
  -3  -7   7    2.08    0.18
   2   7  -7    2.74    0.19
   2   7  -7    2.90    0.22
  -2  -7   7    2.74    0.19
  -2  -7   7    2.54    0.15
   1   7  -7    0.11    0.06
   1   7  -7    0.14    0.08
   1   7  -7    0.01    0.05
  -1  -7   7    0.06    0.05
  -1  -7   7   -0.02    0.07
  -1  -7   7   -0.08    0.04
   0   7  -7    1.64    0.14
   0   7  -7    1.64    0.13
   0   7  -7    1.69    0.12
   0  -7   7    1.62    0.14
   0  -7   7    1.60    0.12
   0  -7   7    1.50    0.12
   0  -7   7    1.59    0.14
  -1   7  -7    0.54    0.08
  -1   7  -7    0.45    0.08
  -1   7  -7    0.53    0.09
   1  -7   7    0.64    0.08
   1  -7   7    0.59    0.08
   1  -7   7    0.48    0.09
   1  -7   7    0.50    0.09
  -2   7  -7    3.72    0.17
   2  -7   7    3.42    0.19
   2  -7   7    3.53    0.17
  -3   7  -7    4.79    0.19
   3  -7   7    4.83    0.23
  -4   7  -7    0.06    0.05
   4  -7   7   -0.03    0.08
   4   6  -7    2.64    0.22
  -4  -6   7    2.46    0.21
  -4  -6   7    2.64    0.14
   3   6  -7    1.51    0.15
   3   6  -7    2.17    0.19
  -3  -6   7    1.97    0.17
  -3  -6   7    1.84    0.12
   2   6  -7    2.49    0.20
   2   6  -7    2.52    0.17
  -2  -6   7    2.33    0.13
  -2  -6   7    2.80    0.14
  -2  -6   7    2.35    0.17
   1   6  -7    0.37    0.07
   1   6  -7    0.36    0.07
   1   6  -7    0.52    0.09
  -1  -6   7    0.42    0.07
  -1  -6   7    0.29    0.08
  -1  -6   7    0.35    0.07
   0   6  -7    0.07    0.05
   0   6  -7    0.08    0.06
   0   6  -7   -0.07    0.04
   0  -6   7   -0.01    0.04
   0  -6   7    0.05    0.06
   0  -6   7    0.05    0.05
   0  -6   7   -0.06    0.05
  -1   6  -7    7.20    0.23
  -1   6  -7    7.14    0.23
  -1   6  -7    7.07    0.23
   1  -6   7    7.12    0.23
   1  -6   7    7.34    0.24
   1  -6   7    7.40    0.23
   1  -6   7    7.20    0.23
  -2   6  -7    0.03    0.05
  -2   6  -7    0.03    0.04
   2  -6   7    0.03    0.06
   2  -6   7   -0.01    0.05
  -3   6  -7    0.07    0.05
   3  -6   7    0.05    0.07
   3  -6   7    0.02    0.05
  -4   6  -7    2.01    0.12
   4  -6   7    1.68    0.16
   5   5  -7    1.21    0.17
  -5  -5   7    1.05    0.15
   4   5  -7   12.38    0.41
  -4  -5   7   12.36    0.32
  -4  -5   7   12.57    0.38
   3   5  -7   -0.01    0.08
  -3  -5   7   -0.04    0.07
  -3  -5   7   -0.02    0.04
  -3  -5   7    0.03    0.04
   2   5  -7    0.24    0.09
   2   5  -7    0.29    0.08
  -2  -5   7    0.15    0.05
  -2  -5   7    0.26    0.08
  -2  -5   7    0.22    0.06
   1   5  -7   19.50    0.44
   1   5  -7   19.77    0.44
   1   5  -7   19.79    0.49
   1   5  -7   20.41    0.46
  -1  -5   7   19.67    0.44
  -1  -5   7   19.91    0.44
  -1  -5   7   20.07    0.46
   0   5  -7    1.93    0.12
   0   5  -7    1.89    0.13
   0   5  -7    1.79    0.11
   0  -5   7    1.81    0.14
   0  -5   7    2.02    0.12
   0  -5   7    1.86    0.11
   0  -5   7    1.85    0.11
  -1   5  -7   11.04    0.29
  -1   5  -7   10.40    0.29
   1  -5   7   10.68    0.29
   1  -5   7   11.15    0.29
   1  -5   7   10.81    0.28
   1  -5   7   11.24    0.30
  -2   5  -7    2.43    0.13
  -2   5  -7    2.27    0.12
   2  -5   7    2.27    0.14
   2  -5   7    2.24    0.14
  -3   5  -7    0.24    0.05
  -3   5  -7    0.21    0.06
   3  -5   7    0.24    0.07
   3  -5   7    0.14    0.06
  -4   5  -7    0.05    0.04
   4  -5   7    0.06    0.06
   4  -5   7    0.04    0.07
   5  -5   7    8.15    0.34
   5   4  -7    1.52    0.18
  -5  -4   7    1.23    0.15
   4   4  -7    6.74    0.29
  -4  -4   7    7.36    0.27
  -4  -4   7    7.24    0.20
   3   4  -7    0.87    0.12
  -3  -4   7    0.54    0.10
  -3  -4   7    0.56    0.07
  -3  -4   7    0.62    0.07
   2   4  -7    2.29    0.17
   2   4  -7    2.33    0.15
  -2  -4   7    2.09    0.15
  -2  -4   7    2.04    0.11
  -2  -4   7    2.09    0.11
   1   4  -7    1.82    0.14
   1   4  -7    2.37    0.17
   1   4  -7    1.92    0.11
   1   4  -7    1.95    0.12
  -1  -4   7    2.11    0.14
  -1  -4   7    1.92    0.11
   0   4  -7    7.83    0.23
   0   4  -7    7.82    0.23
   0   4  -7    8.41    0.24
   0  -4   7    8.22    0.23
   0  -4   7    8.37    0.23
   0  -4   7    7.84    0.25
   0  -4   7    8.12    0.23
  -1   4  -7   10.50    0.28
  -1   4  -7   10.62    0.27
   1  -4   7   10.60    0.28
   1  -4   7   10.72    0.28
   1  -4   7   10.62    0.29
   1  -4   7   10.76    0.27
  -2   4  -7   22.32    0.46
  -2   4  -7   21.26    0.47
   2  -4   7   22.43    0.50
   2  -4   7   22.23    0.48
  -3   4  -7    9.89    0.26
  -3   4  -7   10.06    0.25
   3  -4   7    9.18    0.30
   3  -4   7    9.24    0.28
  -4   4  -7    0.63    0.07
   4  -4   7    0.66    0.09
   4  -4   7    0.69    0.11
   5  -4   7    5.60    0.27
   5   3  -7    0.16    0.10
  -5  -3   7    0.22    0.09
   4   3  -7    0.00    0.08
  -4  -3   7   -0.10    0.07
  -4  -3   7   -0.02    0.04
  -4  -3   7   -0.05    0.03
   3   3  -7    0.48    0.10
  -3  -3   7    0.47    0.06
  -3  -3   7    0.48    0.06
  -3  -3   7    0.32    0.08
   2   3  -7    5.03    0.21
   2   3  -7    4.82    0.17
  -2  -3   7    4.90    0.17
  -2  -3   7    5.06    0.20
  -2  -3   7    4.89    0.16
   1   3  -7    0.02    0.04
   1   3  -7    0.01    0.04
   1   3  -7    0.04    0.08
   1   3  -7    0.01    0.05
  -1  -3   7    0.07    0.07
  -1  -3   7    0.03    0.04
  -1  -3   7    0.07    0.04
   0   3  -7   12.41    0.29
   0   3  -7   12.30    0.30
   0   3  -7   12.19    0.30
   0  -3   7   12.29    0.30
   0  -3   7   12.61    0.30
   0  -3   7   12.78    0.31
   0  -3   7   12.28    0.28
  -1   3  -7    7.15    0.21
  -1   3  -7    7.51    0.22
   1  -3   7    7.61    0.21
   1  -3   7    7.66    0.22
   1  -3   7    7.38    0.23
   1  -3   7    7.74    0.21
  -2   3  -7   16.93    0.37
  -2   3  -7   16.38    0.37
   2  -3   7   17.01    0.40
   2  -3   7   16.14    0.39
  -3   3  -7    5.96    0.18
  -3   3  -7    5.92    0.18
   3  -3   7    5.86    0.21
   3  -3   7    6.23    0.23
  -4   3  -7    1.04    0.08
   4  -3   7    0.92    0.12
   5  -3   7   -0.03    0.08
   5   2  -7    2.65    0.21
  -5  -2   7    2.44    0.17
   4   2  -7    0.07    0.09
  -4  -2   7    0.12    0.08
  -4  -2   7    0.09    0.04
  -4  -2   7    0.13    0.04
   3   2  -7    2.65    0.16
  -3  -2   7    2.67    0.15
  -3  -2   7    2.52    0.11
  -3  -2   7    2.65    0.11
   2   2  -7    3.14    0.13
   2   2  -7    3.21    0.17
   2   2  -7    3.45    0.14
  -2  -2   7    3.14    0.16
  -2  -2   7    3.21    0.13
   1   2  -7    2.97    0.15
   1   2  -7    2.77    0.12
   1   2  -7    2.93    0.13
  -1  -2   7    2.74    0.14
  -1  -2   7    2.72    0.12
   0   2  -7    4.37    0.15
   0   2  -7    4.52    0.17
   0   2  -7    4.54    0.16
   0  -2   7    4.59    0.14
   0  -2   7    4.55    0.15
   0  -2   7    4.40    0.15
   0  -2   7    4.50    0.17
  -1   2  -7    2.80    0.12
  -1   2  -7    2.68    0.12
   1  -2   7    2.74    0.14
   1  -2   7    2.72    0.12
   1  -2   7    2.90    0.12
   1  -2   7    2.83    0.13
  -2   2  -7    0.40    0.06
  -2   2  -7    0.44    0.06
   2  -2   7    0.59    0.08
   2  -2   7    0.59    0.08
  -3   2  -7   16.05    0.35
  -3   2  -7   15.83    0.34
   3  -2   7   15.25    0.38
   3  -2   7   15.84    0.41
  -4   2  -7    0.68    0.07
   4  -2   7    0.56    0.10
   5  -2   7    0.38    0.11
   6   1  -7    0.21    0.11
  -6  -1   7    0.19    0.08
   5   1  -7    7.26    0.31
  -5  -1   7    6.81    0.25
   4   1  -7    0.05    0.07
  -4  -1   7   -0.06    0.06
  -4  -1   7    0.04    0.04
  -4  -1   7   -0.01    0.03
   3   1  -7    4.47    0.20
  -3  -1   7    4.02    0.14
  -3  -1   7    4.10    0.14
  -3  -1   7    4.41    0.18
   2   1  -7    2.71    0.12
   2   1  -7    2.51    0.15
   2   1  -7    2.69    0.12
  -2  -1   7    2.64    0.12
  -2  -1   7    2.59    0.14
  -2  -1   7    2.66    0.11
   1   1  -7    6.11    0.20
   1   1  -7    6.20    0.18
   1   1  -7    5.86    0.18
  -1  -1   7    5.93    0.18
  -1  -1   7    5.90    0.18
  -1  -1   7    5.88    0.19
   0   1  -7   14.73    0.33
   0   1  -7   14.50    0.32
   0   1  -7   15.08    0.34
   0  -1   7   14.98    0.31
   0  -1   7   14.84    0.33
   0  -1   7   15.11    0.33
   0  -1   7   14.67    0.34
  -1   1  -7    1.63    0.10
  -1   1  -7    1.49    0.10
   1  -1   7    1.82    0.10
   1  -1   7    1.48    0.12
   1  -1   7    1.56    0.10
   1  -1   7    1.60    0.10
  -2   1  -7   57.20    1.02
  -2   1  -7   55.43    1.02
   2  -1   7   56.61    1.05
   2  -1   7   55.19    1.04
  -3   1  -7    1.29    0.08
  -3   1  -7    1.30    0.09
   3  -1   7    1.16    0.12
   3  -1   7    1.08    0.10
  -4   1  -7    0.04    0.04
   4  -1   7    0.05    0.07
   5  -1   7    7.82    0.32
   6   0  -7   -0.03    0.09
  -6   0   7   -0.02    0.07
   5   0  -7    1.11    0.14
  -5   0   7    1.15    0.12
   4   0  -7    4.77    0.22
  -4   0   7    4.66    0.15
  -4   0   7    4.81    0.19
  -4   0   7    4.73    0.14
   3   0  -7    6.44    0.24
  -3   0   7    6.55    0.18
  -3   0   7    6.61    0.19
  -3   0   7    6.42    0.21
   2   0  -7   -0.06    0.05
   2   0  -7    0.02    0.04
   2   0  -7   -0.03    0.04
  -2   0   7   -0.03    0.03
  -2   0   7    0.00    0.03
  -2   0   7   -0.01    0.06
   1   0  -7   33.36    0.66
   1   0  -7   34.65    0.66
   1   0  -7   34.63    0.66
  -1   0   7   35.23    0.66
  -1   0   7   35.59    0.66
  -1   0   7   34.16    0.66
   0   0  -7    0.04    0.04
   0   0  -7    0.00    0.04
   0   0  -7   -0.02    0.03
   0   0   7    0.04    0.05
   0   0   7    0.06    0.04
   0   0   7    0.00    0.03
   0   0   7    0.00    0.03
  -1   0  -7    2.27    0.11
  -1   0  -7    2.40    0.11
   1   0   7    2.49    0.11
   1   0   7    2.50    0.13
   1   0   7    2.39    0.11
   1   0   7    2.52    0.12
  -2   0  -7    1.65    0.10
  -2   0  -7    1.54    0.09
   2   0   7    1.46    0.12
   2   0   7    1.51    0.12
  -3   0  -7    0.26    0.05
  -3   0  -7    0.31    0.06
   3   0   7    0.25    0.07
  -4   0  -7    4.30    0.15
   4   0   7    4.63    0.23
   5   0   7    3.32    0.24
   6  -1  -7    0.05    0.11
  -6   1   7    0.17    0.08
   5  -1  -7    0.38    0.11
  -5   1   7    0.41    0.09
   4  -1  -7    3.44    0.19
  -4   1   7    3.30    0.17
  -4   1   7    3.39    0.13
  -4   1   7    3.45    0.12
   3  -1  -7    1.42    0.13
  -3   1   7    1.29    0.09
  -3   1   7    1.17    0.10
  -3   1   7    1.16    0.08
  -3   1   7    1.12    0.11
   2  -1  -7    2.32    0.11
   2  -1  -7    2.27    0.13
   2  -1  -7    2.47    0.12
  -2   1   7    2.44    0.12
  -2   1   7    2.57    0.12
  -2   1   7    2.42    0.11
  -2   1   7    2.49    0.11
   1  -1  -7   13.40    0.30
   1  -1  -7   12.78    0.30
   1  -1  -7   12.98    0.31
  -1   1   7   13.36    0.30
  -1   1   7   13.00    0.30
  -1   1   7   13.20    0.30
  -1   1   7   13.44    0.29
   0  -1  -7    9.42    0.25
   0  -1  -7   10.26    0.26
   0   1   7    9.78    0.25
   0   1   7   10.41    0.29
   0   1   7    9.95    0.25
   0   1   7    9.86    0.25
  -1  -1  -7    2.51    0.11
  -1  -1  -7    2.29    0.12
   1   1   7    2.59    0.13
   1   1   7    2.17    0.11
   1   1   7    2.36    0.12
   1   1   7    2.66    0.12
  -2  -1  -7    2.95    0.12
  -2  -1  -7    2.82    0.13
   2   1   7    2.84    0.15
   2   1   7    2.99    0.15
  -3  -1  -7    0.69    0.07
  -3  -1  -7    0.79    0.07
   3   1   7    0.92    0.11
  -4  -1  -7    0.21    0.05
   4   1   7    0.13    0.09
   5   1   7    7.10    0.32
   6  -2  -7    4.25    0.27
  -6   2   7    4.00    0.23
   5  -2  -7    0.10    0.09
  -5   2   7    0.20    0.07
   4  -2  -7    1.15    0.13
  -4   2   7    1.19    0.08
  -4   2   7    1.03    0.07
  -4   2   7    1.27    0.12
   3  -2  -7    2.47    0.15
  -3   2   7    2.24    0.10
  -3   2   7    2.25    0.11
  -3   2   7    2.21    0.13
   2  -2  -7   11.70    0.29
   2  -2  -7   11.92    0.30
   2  -2  -7   12.13    0.29
  -2   2   7   11.91    0.28
  -2   2   7   11.50    0.27
  -2   2   7   12.36    0.30
  -2   2   7   12.30    0.28
   1  -2  -7    0.24    0.05
   1  -2  -7    0.15    0.05
   1  -2  -7    0.22    0.05
  -1   2   7    0.31    0.06
  -1   2   7    0.22    0.05
  -1   2   7    0.23    0.05
  -1   2   7    0.23    0.05
   0  -2  -7    1.91    0.11
   0  -2  -7    1.90    0.11
   0   2   7    1.61    0.10
   0   2   7    1.80    0.10
   0   2   7    1.85    0.10
  -1  -2  -7    2.27    0.12
  -1  -2  -7    2.18    0.12
   1   2   7    2.12    0.13
   1   2   7    2.24    0.13
   1   2   7    2.27    0.11
   1   2   7    2.15    0.11
  -2  -2  -7    1.80    0.11
  -2  -2  -7    1.83    0.10
   2   2   7    1.52    0.13
  -3  -2  -7    0.50    0.07
  -3  -2  -7    0.53    0.06
   3   2   7    0.28    0.09
  -4  -2  -7    0.36    0.06
   4   2   7    0.25    0.10
   6  -3  -7    2.30    0.22
  -6   3   7    2.35    0.20
   5  -3  -7   -0.05    0.08
  -5   3   7    0.01    0.06
   4  -3  -7    0.03    0.07
  -4   3   7    0.06    0.05
  -4   3   7   -0.03    0.03
  -4   3   7    0.03    0.03
   3  -3  -7    0.25    0.07
  -3   3   7    0.14    0.04
  -3   3   7    0.19    0.05
  -3   3   7    0.23    0.06
   2  -3  -7    1.16    0.10
   2  -3  -7    1.19    0.11
   2  -3  -7    1.25    0.10
  -2   3   7    1.12    0.09
  -2   3   7    1.12    0.10
  -2   3   7    1.23    0.09
   1  -3  -7   -0.04    0.04
   1  -3  -7    0.00    0.04
  -1   3   7    0.01    0.04
  -1   3   7   -0.03    0.04
  -1   3   7    0.02    0.04
  -1   3   7    0.03    0.04
   0  -3  -7    3.38    0.15
   0  -3  -7    3.19    0.14
   0   3   7    3.50    0.14
   0   3   7    3.38    0.14
   0   3   7    3.21    0.14
  -1  -3  -7   15.34    0.37
  -1  -3  -7   15.61    0.36
   1   3   7   15.75    0.37
   1   3   7   16.14    0.37
   1   3   7   15.88    0.36
  -2  -3  -7    0.06    0.04
  -2  -3  -7   -0.04    0.04
   2   3   7   -0.08    0.06
  -3  -3  -7    0.60    0.07
  -3  -3  -7    0.68    0.08
   3   3   7    0.62    0.11
  -4  -3  -7    0.22    0.06
   4   3   7    0.12    0.10
   6  -4  -7    0.01    0.11
  -6   4   7   -0.11    0.07
   5  -4  -7    0.83    0.13
  -5   4   7    0.99    0.12
   4  -4  -7    0.67    0.11
  -4   4   7    0.72    0.10
  -4   4   7    0.88    0.07
  -4   4   7    0.93    0.08
   3  -4  -7    0.25    0.08
  -3   4   7    0.23    0.05
  -3   4   7    0.24    0.05
  -3   4   7    0.18    0.06
   2  -4  -7    5.94    0.20
   2  -4  -7    5.88    0.20
   2  -4  -7    5.60    0.20
  -2   4   7    5.60    0.19
  -2   4   7    5.73    0.18
  -2   4   7    5.99    0.20
   1  -4  -7    1.07    0.10
   1  -4  -7    1.24    0.10
  -1   4   7    1.14    0.09
  -1   4   7    1.01    0.09
  -1   4   7    1.06    0.09
  -1   4   7    1.20    0.10
   0  -4  -7    0.04    0.05
   0  -4  -7    0.06    0.05
   0   4   7   -0.02    0.04
   0   4   7    0.00    0.05
   0   4   7    0.05    0.05
  -1  -4  -7   39.66    0.75
  -1  -4  -7   37.63    0.75
   1   4   7   36.53    0.74
  -2  -4  -7    4.08    0.17
  -2  -4  -7    4.29    0.17
  -3  -4  -7    8.74    0.26
  -4  -4  -7    0.80    0.09
   6  -5  -7    0.06    0.11
  -6   5   7    0.04    0.08
   5  -5  -7    0.25    0.11
  -5   5   7    0.28    0.05
  -5   5   7    0.25    0.08
   4  -5  -7    0.38    0.10
  -4   5   7    0.49    0.09
  -4   5   7    0.43    0.06
  -4   5   7    0.41    0.06
   3  -5  -7    3.67    0.19
  -3   5   7    3.54    0.17
  -3   5   7    3.85    0.15
  -3   5   7    3.76    0.15
   2  -5  -7    5.14    0.19
   2  -5  -7    5.11    0.19
  -2   5   7    5.24    0.18
  -2   5   7    5.40    0.20
  -2   5   7    5.45    0.18
   1  -5  -7   74.78    1.37
   1  -5  -7   77.57    1.37
  -1   5   7   74.44    1.36
  -1   5   7   75.14    1.35
  -1   5   7   73.18    1.36
   0  -5  -7   20.78    0.46
   0  -5  -7   19.95    0.46
   0   5   7   20.62    0.46
   0   5   7   20.07    0.45
  -1  -5  -7    9.28    0.27
  -1  -5  -7    9.12    0.27
  -2  -5  -7   -0.01    0.05
  -3  -5  -7    0.04    0.05
   5  -6  -7    2.41    0.22
  -5   6   7    2.63    0.12
  -5   6   7    2.68    0.19
   4  -6  -7    4.93    0.24
  -4   6   7    4.83    0.18
  -4   6   7    4.58    0.22
   3  -6  -7    0.05    0.08
  -3   6   7   -0.02    0.06
  -3   6   7    0.02    0.04
  -3   6   7    0.06    0.05
   2  -6  -7    1.14    0.10
  -2   6   7    0.91    0.09
  -2   6   7    1.30    0.10
  -2   6   7    1.08    0.11
   1  -6  -7    3.76    0.17
   1  -6  -7    3.43    0.17
  -1   6   7    3.43    0.15
  -1   6   7    3.29    0.15
  -1   6   7    3.72    0.17
   0  -6  -7    7.82    0.26
   0  -6  -7    8.26    0.26
   0   6   7    8.49    0.26
   0   6   7    8.04    0.25
  -1  -6  -7    2.52    0.15
  -2  -6  -7    0.72    0.09
  -3  -6  -7    0.22    0.07
   5  -7  -7   -0.04    0.11
  -5   7   7   -0.06    0.07
  -5   7   7    0.01    0.04
   4  -7  -7    0.73    0.13
  -4   7   7    0.71    0.12
  -4   7   7    0.87    0.09
  -3   7   7    3.09    0.15
  -3   7   7    2.74    0.18
   2  -7  -7    0.51    0.10
  -2   7   7    0.58    0.10
  -2   7   7    0.56    0.10
  -2   7   7    0.69    0.09
   1  -7  -7    0.66    0.09
   1  -7  -7    0.67    0.09
  -1   7   7    0.45    0.09
  -1   7   7    0.55    0.08
  -1   7   7    0.63    0.08
   0  -7  -7    0.28    0.08
   0   7   7    0.18    0.06
   0   7   7    0.13    0.06
  -1  -7  -7    0.22    0.07
  -2  -7  -7    1.29    0.13
  -4   8   7    1.59    0.12
  -4   8   7    1.47    0.15
  -3   8   7    1.01    0.13
  -3   8   7    1.23    0.11
  -2   8   7    1.23    0.13
  -2   8   7    1.24    0.12
   1  -8  -7    1.76    0.14
  -1   8   7    1.72    0.13
   0  -8  -7    1.48    0.14
   0   8   7    1.18    0.12
  -1  -8  -7    0.08    0.07
  -2  -8  -7    0.13    0.07
  -4   9   7    0.12    0.11
  -4   9   7    0.22    0.07
  -3   9   7    1.64    0.17
  -3   9   7    1.71    0.14
  -2   9   7    1.06    0.11
  -2   9   7    0.75    0.13
   1  -9  -7    0.43    0.09
  -1   9   7    0.53    0.09
   0  -9  -7    0.47    0.10
  -1  -9  -7    0.05    0.07
  -3  10   7    0.29    0.12
  -3  10   7    0.51    0.09
  -2  10   7    2.39    0.23
  -2  10   7    3.02    0.18
   1 -10  -7    0.45    0.10
  -1  10   7    0.40    0.09
   0  10  -8    0.73    0.11
   0  10  -8    1.07    0.14
   0 -10   8    0.72    0.11
   0 -10   8    0.92    0.14
   0 -10   8    0.84    0.16
  -1  10  -8    0.09    0.07
   1 -10   8   -0.05    0.08
   2   9  -8    0.16    0.10
   2   9  -8    0.20    0.14
  -2  -9   8    0.03    0.06
  -2  -9   8   -0.16    0.10
   1   9  -8    0.42    0.11
   1   9  -8    0.03    0.14
  -1  -9   8    0.20    0.08
  -1  -9   8    0.30    0.11
   0   9  -8    2.41    0.19
   0   9  -8    2.39    0.17
   0  -9   8    2.39    0.18
   0  -9   8    2.19    0.16
   0  -9   8    2.52    0.19
  -1   9  -8    0.45    0.09
   1  -9   8    0.46    0.10
   1  -9   8    0.60    0.15
  -2   9  -8    1.03    0.12
   2  -9   8    1.27    0.14
   3   8  -8    0.38    0.13
   3   8  -8    0.70    0.13
  -3  -8   8    0.44    0.09
  -3  -8   8    0.39    0.13
   2   8  -8    0.46    0.11
   2   8  -8    0.55    0.14
  -2  -8   8    0.27    0.11
  -2  -8   8    0.30    0.08
   1   8  -8    0.89    0.12
   1   8  -8    0.58    0.15
  -1  -8   8    0.77    0.12
  -1  -8   8    0.78    0.10
   0   8  -8    1.32    0.13
   0   8  -8    1.63    0.14
   0  -8   8    1.28    0.13
   0  -8   8    1.53    0.14
   0  -8   8    1.33    0.12
  -1   8  -8    7.17    0.26
   1  -8   8    7.54    0.28
   1  -8   8    7.72    0.26
  -2   8  -8    1.55    0.14
   2  -8   8    1.45    0.14
  -3   8  -8    0.52    0.09
   3  -8   8    0.59    0.11
   3   7  -8    0.20    0.09
   3   7  -8    0.08    0.10
  -3  -7   8   -0.07    0.05
  -3  -7   8   -0.12    0.09
   2   7  -8    6.93    0.28
   2   7  -8    7.27    0.31
  -2  -7   8    7.41    0.28
  -2  -7   8    6.78    0.24
   1   7  -8    0.21    0.07
   1   7  -8   -0.03    0.11
   1   7  -8    0.07    0.06
   1   7  -8    0.17    0.08
  -1  -7   8    0.13    0.06
  -1  -7   8    0.30    0.09
   0   7  -8    1.32    0.13
   0   7  -8    1.64    0.13
   0   7  -8    1.74    0.13
   0  -7   8    1.46    0.12
   0  -7   8    1.43    0.12
   0  -7   8    1.44    0.14
   0  -7   8    1.54    0.14
  -1   7  -8    0.05    0.06
   1  -7   8    0.06    0.07
   1  -7   8    0.06    0.07
   1  -7   8    0.10    0.05
   1  -7   8   -0.04    0.06
  -2   7  -8    2.62    0.15
   2  -7   8    2.44    0.17
   2  -7   8    2.61    0.16
  -3   7  -8    0.04    0.05
   3  -7   8    0.07    0.08
  -4   7  -8    0.75    0.09
   4  -7   8    0.46    0.11
   4   6  -8    0.13    0.11
  -4  -6   8    0.10    0.06
  -4  -6   8   -0.04    0.10
   3   6  -8    0.91    0.14
  -3  -6   8    0.76    0.09
  -3  -6   8    0.64    0.12
   2   6  -8    2.69    0.21
   2   6  -8    2.60    0.18
  -2  -6   8    2.68    0.15
  -2  -6   8    2.32    0.17
   1   6  -8    1.24    0.15
   1   6  -8    1.34    0.12
   1   6  -8    1.07    0.11
   1   6  -8    1.01    0.10
  -1  -6   8    0.95    0.09
  -1  -6   8    1.04    0.10
  -1  -6   8    1.00    0.12
   0   6  -8    0.07    0.07
   0   6  -8    0.09    0.06
   0   6  -8    0.03    0.05
   0  -6   8    0.11    0.06
   0  -6   8    0.05    0.05
   0  -6   8    0.16    0.08
   0  -6   8    0.04    0.05
  -1   6  -8    1.73    0.13
  -1   6  -8    1.93    0.13
   1  -6   8    1.84    0.12
   1  -6   8    1.80    0.12
   1  -6   8    2.07    0.14
   1  -6   8    1.94    0.14
  -2   6  -8    0.01    0.05
   2  -6   8   -0.02    0.05
   2  -6   8    0.05    0.06
  -3   6  -8    0.05    0.05
   3  -6   8    0.08    0.07
   3  -6   8    0.18    0.07
  -4   6  -8    2.72    0.14
   4  -6   8    2.76    0.20
   4   5  -8    0.99    0.15
  -4  -5   8    1.10    0.14
  -4  -5   8    1.14    0.10
   3   5  -8    0.18    0.09
  -3  -5   8    0.13    0.09
  -3  -5   8    0.15    0.06
   2   5  -8    0.15    0.07
   2   5  -8    0.35    0.10
  -2  -5   8    0.22    0.06
  -2  -5   8    0.21    0.06
  -2  -5   8    0.10    0.08
   1   5  -8    2.68    0.15
   1   5  -8    2.42    0.14
   1   5  -8    2.42    0.19
   1   5  -8    2.58    0.15
  -1  -5   8    2.50    0.14
  -1  -5   8    2.64    0.17
   0   5  -8    0.82    0.09
   0   5  -8    0.80    0.09
   0   5  -8    0.82    0.09
   0  -5   8    0.63    0.08
   0  -5   8    0.90    0.09
   0  -5   8    0.89    0.09
   0  -5   8    0.93    0.10
  -1   5  -8   16.05    0.38
  -1   5  -8   15.19    0.38
   1  -5   8   15.67    0.39
   1  -5   8   15.83    0.38
   1  -5   8   15.93    0.38
   1  -5   8   15.70    0.38
  -2   5  -8    0.08    0.05
  -2   5  -8    0.10    0.05
   2  -5   8   -0.01    0.06
   2  -5   8    0.04    0.06
  -3   5  -8    5.92    0.20
   3  -5   8    5.97    0.24
   3  -5   8    5.82    0.22
  -4   5  -8    1.13    0.10
   4  -5   8    1.11    0.14
   4  -5   8    1.35    0.13
   5   4  -8    0.37    0.12
  -5  -4   8    0.19    0.11
   4   4  -8    0.18    0.09
  -4  -4   8    0.12    0.09
  -4  -4   8    0.13    0.05
   3   4  -8    0.62    0.11
  -3  -4   8    0.73    0.08
  -3  -4   8    0.57    0.07
  -3  -4   8    0.72    0.11
   2   4  -8    0.53    0.10
  -2  -4   8    0.46    0.07
  -2  -4   8    0.55    0.09
  -2  -4   8    0.52    0.07
   1   4  -8    2.04    0.12
   1   4  -8    1.92    0.12
   1   4  -8    2.04    0.16
   1   4  -8    2.07    0.13
  -1  -4   8    1.88    0.11
  -1  -4   8    1.61    0.14
  -1  -4   8    1.99    0.12
   0   4  -8   10.45    0.28
   0   4  -8   10.67    0.28
   0   4  -8   10.16    0.28
   0  -4   8   10.41    0.28
   0  -4   8   10.40    0.28
   0  -4   8   10.98    0.30
  -1   4  -8    0.06    0.05
  -1   4  -8    0.17    0.06
   1  -4   8    0.15    0.05
   1  -4   8    0.12    0.05
   1  -4   8    0.00    0.04
   1  -4   8    0.11    0.06
  -2   4  -8   12.76    0.33
  -2   4  -8   13.23    0.32
   2  -4   8   12.80    0.34
   2  -4   8   12.50    0.34
  -3   4  -8    4.02    0.16
  -3   4  -8    4.02    0.16
   3  -4   8    4.00    0.18
   3  -4   8    4.39    0.20
  -4   4  -8    2.25    0.12
   4  -4   8    2.20    0.18
   4  -4   8    2.19    0.16
   5   3  -8    0.10    0.10
  -5  -3   8    0.01    0.09
   4   3  -8    3.30    0.21
  -4  -3   8    3.28    0.13
  -4  -3   8    3.49    0.19
  -4  -3   8    3.24    0.14
   3   3  -8    0.66    0.11
  -3  -3   8    0.42    0.06
  -3  -3   8    0.36    0.06
  -3  -3   8    0.32    0.09
   2   3  -8    1.43    0.13
  -2  -3   8    1.19    0.11
  -2  -3   8    1.23    0.09
  -2  -3   8    1.26    0.10
   1   3  -8   12.25    0.34
   1   3  -8   12.18    0.31
   1   3  -8   12.49    0.31
  -1  -3   8   12.15    0.30
  -1  -3   8   12.41    0.31
  -1  -3   8   11.94    0.32
   0   3  -8    0.51    0.07
   0   3  -8    0.48    0.07
   0   3  -8    0.64    0.10
   0  -3   8    0.56    0.07
   0  -3   8    0.38    0.06
   0  -3   8    0.40    0.08
  -1   3  -8   72.53    1.30
  -1   3  -8   71.78    1.30
   1  -3   8   70.88    1.29
   1  -3   8   71.13    1.31
   1  -3   8   72.37    1.30
   1  -3   8   72.33    1.30
  -2   3  -8    8.42    0.24
  -2   3  -8    8.50    0.24
   2  -3   8    8.36    0.26
   2  -3   8    8.85    0.26
  -3   3  -8    0.31    0.06
  -3   3  -8    0.24    0.06
   3  -3   8    0.37    0.08
   3  -3   8    0.29    0.08
  -4   3  -8    4.38    0.16
   4  -3   8    4.29    0.20
   4  -3   8    3.88    0.22
   5   2  -8    0.40    0.12
  -5  -2   8    0.34    0.10
   4   2  -8    3.12    0.21
  -4  -2   8    2.85    0.18
  -4  -2   8    2.86    0.12
  -4  -2   8    3.04    0.13
   3   2  -8    0.45    0.10
  -3  -2   8    0.62    0.07
  -3  -2   8    0.65    0.09
  -3  -2   8    0.63    0.07
   2   2  -8   18.16    0.41
   2   2  -8   18.52    0.45
  -2  -2   8   18.01    0.41
  -2  -2   8   18.79    0.43
  -2  -2   8   18.10    0.40
   1   2  -8    1.62    0.14
   1   2  -8    1.83    0.12
   1   2  -8    1.68    0.11
  -1  -2   8    1.78    0.11
  -1  -2   8    1.59    0.10
  -1  -2   8    1.86    0.14
   0   2  -8    0.29    0.08
   0   2  -8    0.42    0.07
   0   2  -8    0.46    0.07
   0  -2   8    0.44    0.07
   0  -2   8    0.36    0.06
   0  -2   8    0.36    0.08
  -1   2  -8    0.66    0.07
  -1   2  -8    0.69    0.08
   1  -2   8    0.83    0.09
   1  -2   8    0.77    0.08
   1  -2   8    0.85    0.08
   1  -2   8    0.80    0.08
  -2   2  -8    0.82    0.08
  -2   2  -8    0.78    0.08
   2  -2   8    0.78    0.09
   2  -2   8    0.77    0.09
  -3   2  -8    0.70    0.07
  -3   2  -8    0.74    0.08
   3  -2   8    0.82    0.10
   3  -2   8    0.73    0.10
  -4   2  -8    5.03    0.17
   4  -2   8    5.02    0.24
   5   1  -8    2.33    0.20
   4   1  -8    0.10    0.08
  -4  -1   8    0.03    0.04
  -4  -1   8    0.10    0.08
  -4  -1   8    0.11    0.05
   3   1  -8    1.22    0.13
  -3  -1   8    1.18    0.09
  -3  -1   8    1.46    0.09
  -3  -1   8    1.30    0.11
   2   1  -8    0.81    0.09
   2   1  -8    0.90    0.10
   2   1  -8    0.78    0.08
  -2  -1   8    0.68    0.07
  -2  -1   8    1.02    0.10
  -2  -1   8    0.86    0.08
   1   1  -8    8.24    0.23
   1   1  -8    8.10    0.24
   1   1  -8    7.84    0.23
  -1  -1   8    8.27    0.24
  -1  -1   8    8.26    0.23
  -1  -1   8    8.11    0.23
   0   1  -8    0.04    0.05
   0   1  -8    0.01    0.04
   0  -1   8    0.04    0.04
   0  -1   8    0.06    0.06
   0  -1   8    0.04    0.04
  -1   1  -8    7.27    0.22
  -1   1  -8    7.53    0.22
   1  -1   8    7.44    0.22
   1  -1   8    7.71    0.24
   1  -1   8    7.85    0.22
   1  -1   8    8.13    0.22
  -2   1  -8   10.41    0.27
  -2   1  -8   10.33    0.27
   2  -1   8   10.36    0.29
  -3   1  -8    0.66    0.07
  -3   1  -8    0.51    0.07
   3  -1   8    0.50    0.09
   3  -1   8    0.65    0.10
  -4   1  -8    5.91    0.19
   4  -1   8    5.77    0.25
   5   0  -8    0.32    0.10
  -5   0   8    0.50    0.10
   4   0  -8    1.73    0.17
  -4   0   8    1.86    0.10
  -4   0   8    1.78    0.09
  -4   0   8    1.78    0.14
   3   0  -8    1.67    0.14
  -3   0   8    1.84    0.11
  -3   0   8    1.88    0.10
  -3   0   8    1.93    0.13
   2   0  -8    1.28    0.12
   2   0  -8    1.35    0.10
   2   0  -8    1.34    0.10
  -2   0   8    1.23    0.09
  -2   0   8    1.32    0.09
  -2   0   8    1.18    0.10
   1   0  -8    0.01    0.05
   1   0  -8    0.01    0.05
   1   0  -8   -0.07    0.04
  -1   0   8    0.00    0.04
  -1   0   8   -0.05    0.04
  -1   0   8    0.05    0.06
   0   0  -8    0.08    0.05
   0   0  -8    0.10    0.05
   0   0   8    0.12    0.05
   0   0   8    0.07    0.06
   0   0   8    0.06    0.04
  -1   0  -8   10.21    0.27
  -1   0  -8   10.62    0.27
   1   0   8   10.67    0.29
   1   0   8   10.19    0.27
   1   0   8   10.36    0.27
   1   0   8   10.09    0.27
  -2   0  -8   10.38    0.28
  -2   0  -8   10.36    0.27
   2   0   8   11.05    0.30
   2   0   8   10.58    0.30
  -3   0  -8    2.22    0.12
  -3   0  -8    2.43    0.12
   3   0   8    2.40    0.17
  -4   0  -8    2.74    0.13
   4   0   8    2.76    0.20
   6  -1  -8    1.23    0.18
  -6   1   8    1.46    0.16
   5  -1  -8    2.22    0.19
  -5   1   8    2.29    0.17
   4  -1  -8   -0.04    0.07
  -4   1   8   -0.04    0.03
  -4   1   8   -0.01    0.05
  -4   1   8    0.00    0.03
   3  -1  -8    1.35    0.13
  -3   1   8    1.47    0.09
  -3   1   8    1.51    0.10
  -3   1   8    1.29    0.10
  -3   1   8    1.53    0.11
   2  -1  -8    0.11    0.05
   2  -1  -8    0.09    0.05
   2  -1  -8   -0.01    0.06
  -2   1   8    0.08    0.05
  -2   1   8    0.08    0.04
  -2   1   8    0.02    0.04
  -2   1   8    0.09    0.06
   1  -1  -8    0.78    0.08
   1  -1  -8    0.64    0.07
  -1   1   8    0.83    0.08
  -1   1   8    0.79    0.07
  -1   1   8    0.82    0.08
  -1   1   8    0.72    0.08
   0  -1  -8    2.99    0.14
   0  -1  -8    2.93    0.14
   0   1   8    3.07    0.14
   0   1   8    2.92    0.15
   0   1   8    2.87    0.13
  -1  -1  -8    0.53    0.07
  -1  -1  -8    0.61    0.07
   1   1   8    0.58    0.07
   1   1   8    0.48    0.07
   1   1   8    0.46    0.08
   1   1   8    0.64    0.07
  -2  -1  -8    1.57    0.11
  -2  -1  -8    1.39    0.10
   2   1   8    1.54    0.13
   2   1   8    1.40    0.12
  -3  -1  -8    0.00    0.04
  -3  -1  -8    0.07    0.05
   3   1   8   -0.06    0.07
  -4  -1  -8    6.56    0.20
   4   1   8    6.70    0.29
   6  -2  -8    1.17    0.17
  -6   2   8    1.16    0.15
   5  -2  -8    2.72    0.21
  -5   2   8    2.99    0.19
   4  -2  -8    4.79    0.23
  -4   2   8    4.98    0.21
  -4   2   8    5.04    0.17
  -4   2   8    5.42    0.16
   3  -2  -8    7.05    0.24
  -3   2   8    7.02    0.21
  -3   2   8    6.93    0.23
  -3   2   8    6.83    0.20
   2  -2  -8    2.14    0.13
   2  -2  -8    2.10    0.13
   2  -2  -8    2.10    0.12
  -2   2   8    2.21    0.12
  -2   2   8    2.09    0.11
  -2   2   8    2.21    0.12
  -2   2   8    2.18    0.12
   1  -2  -8    0.18    0.05
   1  -2  -8    0.16    0.06
  -1   2   8    0.25    0.06
  -1   2   8    0.16    0.05
  -1   2   8    0.19    0.05
  -1   2   8    0.15    0.06
   0  -2  -8   17.66    0.41
   0  -2  -8   19.09    0.42
   0   2   8   17.17    0.40
   0   2   8   18.00    0.40
   0   2   8   18.13    0.40
  -1  -2  -8    0.08    0.05
  -1  -2  -8    0.03    0.05
   1   2   8    0.00    0.06
   1   2   8    0.09    0.05
   1   2   8    0.06    0.04
   1   2   8    0.05    0.04
  -2  -2  -8   17.45    0.40
  -2  -2  -8   17.93    0.42
   2   2   8   18.02    0.43
  -3  -2  -8    1.37    0.11
  -3  -2  -8    1.48    0.11
   3   2   8    1.12    0.13
  -4  -2  -8    0.02    0.04
   4   2   8   -0.15    0.09
   5  -3  -8    1.92    0.19
  -5   3   8    1.76    0.10
  -5   3   8    1.76    0.16
   4  -3  -8    0.13    0.08
  -4   3   8    0.17    0.06
  -4   3   8    0.36    0.06
  -4   3   8    0.26    0.05
   3  -3  -8   14.27    0.37
  -3   3   8   13.52    0.33
  -3   3   8   14.10    0.33
  -3   3   8   13.14    0.36
   2  -3  -8   61.58    1.13
   2  -3  -8   60.43    1.13
  -2   3   8   58.95    1.12
  -2   3   8   61.93    1.12
  -2   3   8   61.37    1.13
   1  -3  -8   57.00    1.09
   1  -3  -8   60.71    1.10
  -1   3   8   59.59    1.10
  -1   3   8   59.32    1.09
  -1   3   8   58.82    1.07
   0  -3  -8    7.94    0.25
   0  -3  -8    8.25    0.24
   0   3   8    8.26    0.24
   0   3   8    8.25    0.23
   0   3   8    8.55    0.24
  -1  -3  -8    3.01    0.15
  -1  -3  -8    3.21    0.15
   1   3   8    3.23    0.14
   1   3   8    3.27    0.15
  -2  -3  -8    0.32    0.07
  -2  -3  -8    0.35    0.07
   2   3   8    0.37    0.09
  -3  -3  -8    0.08    0.05
   3   3   8   -0.14    0.08
  -4  -3  -8    0.99    0.09
   4   3   8    0.76    0.14
   5  -4  -8    3.37    0.23
  -5   4   8    3.27    0.13
  -5   4   8    3.39    0.20
   4  -4  -8    1.60    0.16
  -4   4   8    1.23    0.12
  -4   4   8    1.23    0.10
  -4   4   8    1.49    0.09
   3  -4  -8   16.91    0.43
  -3   4   8   18.07    0.40
  -3   4   8   17.10    0.40
  -3   4   8   16.16    0.42
   2  -4  -8    3.04    0.16
   2  -4  -8    2.72    0.14
  -2   4   8    3.17    0.14
  -2   4   8    2.83    0.14
  -2   4   8    2.99    0.14
   1  -4  -8    1.81    0.12
   1  -4  -8    1.68    0.13
  -1   4   8    1.65    0.11
  -1   4   8    1.53    0.11
   0  -4  -8   18.02    0.42
   0  -4  -8   17.61    0.42
   0   4   8   18.37    0.40
   0   4   8   16.70    0.41
   0   4   8   17.35    0.41
  -1  -4  -8    0.59    0.08
  -1  -4  -8    0.78    0.09
  -2  -4  -8    1.05    0.10
  -3  -4  -8    0.42    0.07
   5  -5  -8   -0.03    0.10
  -5   5   8   -0.09    0.06
  -5   5   8    0.06    0.04
   4  -5  -8    2.44    0.18
  -4   5   8    2.30    0.16
  -4   5   8    2.47    0.13
  -3   5   8    6.20    0.20
  -3   5   8    5.91    0.20
  -3   5   8    6.01    0.23
   2  -5  -8    2.61    0.15
  -2   5   8    2.63    0.15
  -2   5   8    2.65    0.14
  -2   5   8    2.70    0.14
   1  -5  -8    4.71    0.19
   1  -5  -8    4.86    0.20
  -1   5   8    4.79    0.18
  -1   5   8    5.04    0.19
   0  -5  -8    0.12    0.06
   0  -5  -8    0.08    0.06
   0   5   8    0.14    0.06
   0   5   8    0.13    0.05
  -1  -5  -8    0.15    0.06
  -2  -5  -8   -0.07    0.05
  -3  -5  -8   -0.03    0.05
   5  -6  -8   -0.10    0.10
  -5   6   8    0.02    0.04
  -5   6   8   -0.05    0.07
   4  -6  -8    0.18    0.10
  -4   6   8    0.12    0.05
  -4   6   8    0.24    0.08
  -3   6   8    0.06    0.06
  -3   6   8    0.18    0.06
   2  -6  -8    0.13    0.07
  -2   6   8    0.17    0.06
  -2   6   8    0.12    0.05
  -2   6   8    0.08    0.06
   1  -6  -8    1.59    0.13
   1  -6  -8    1.49    0.13
  -1   6   8    1.63    0.12
  -1   6   8    1.39    0.12
   0  -6  -8    0.21    0.08
   0  -6  -8    0.18    0.07
   0   6   8    0.20    0.06
   0   6   8    0.16    0.06
  -1  -6  -8    0.17    0.07
  -2  -6  -8    4.58    0.21
  -3  -6  -8    0.15    0.07
   5  -7  -8    0.35    0.14
  -5   7   8    0.13    0.09
  -5   7   8    0.34    0.07
  -4   7   8    0.47    0.11
  -4   7   8    0.80    0.09
  -3   7   8    0.50    0.10
  -3   7   8    0.47    0.08
  -2   7   8    0.57    0.09
  -2   7   8    0.53    0.10
   1  -7  -8    0.04    0.06
  -1   7   8   -0.02    0.05
   0  -7  -8    0.10    0.06
   0   7   8    0.14    0.06
  -1  -7  -8    7.93    0.28
  -2  -7  -8    0.36    0.09
  -4   8   8    0.82    0.10
  -4   8   8    0.85    0.13
  -3   8   8    0.94    0.13
  -3   8   8    0.97    0.11
  -2   8   8    0.13    0.06
  -2   8   8    0.17    0.09
   1  -8  -8   11.15    0.35
  -1   8   8   10.80    0.33
   0  -8  -8    0.56    0.10
   0   8   8    0.52    0.09
  -1  -8  -8    0.31    0.09
  -3   9   8    0.40    0.12
  -3   9   8    0.63    0.10
  -2   9   8    1.79    0.15
   1  -9  -8    0.10    0.08
  -1   9   8   -0.01    0.06
   0  -9  -8    1.42    0.15
   1   9  -9    0.18    0.09
   1   9  -9   -0.09    0.13
  -1  -9   9    0.02    0.07
  -1  -9   9   -0.17    0.09
   0   9  -9    2.54    0.18
   0  -9   9    2.70    0.18
   0  -9   9    3.00    0.20
  -1   9  -9    1.37    0.14
   1  -9   9    1.45    0.15
   1  -9   9    1.48    0.14
   2   8  -9    0.08    0.11
   2   8  -9    0.18    0.10
  -2  -8   9   -0.02    0.10
  -2  -8   9    0.01    0.06
   1   8  -9    0.13    0.08
   1   8  -9   -0.03    0.12
  -1  -8   9   -0.04    0.09
  -1  -8   9    0.11    0.07
   0   8  -9    0.04    0.07
   0  -8   9    0.00    0.05
   0  -8   9    0.28    0.09
  -1   8  -9    2.57    0.18
   1  -8   9    2.69    0.18
   1  -8   9    2.61    0.18
  -2   8  -9    0.58    0.10
   2  -8   9    0.60    0.10
   2  -8   9    0.58    0.11
   3   7  -9    0.52    0.14
  -3  -7   9    0.35    0.13
  -3  -7   9    0.47    0.09
   2   7  -9    0.12    0.11
   2   7  -9    0.09    0.08
  -2  -7   9   -0.21    0.09
  -2  -7   9    0.11    0.06
   1   7  -9    0.08    0.06
   1   7  -9    0.08    0.11
   1   7  -9    0.18    0.08
  -1  -7   9    0.11    0.06
  -1  -7   9    0.08    0.09
   0   7  -9    0.06    0.06
   0  -7   9    0.08    0.08
   0  -7   9   -0.01    0.05
  -1   7  -9    0.50    0.09
   1  -7   9    0.48    0.09
   1  -7   9    0.51    0.10
  -2   7  -9    4.02    0.19
   2  -7   9    4.24    0.20
   2  -7   9    4.63    0.22
  -3   7  -9    2.18    0.15
   3  -7   9    2.58    0.19
   3   6  -9    0.21    0.11
  -3  -6   9    0.16    0.07
  -3  -6   9    0.11    0.10
   2   6  -9    1.75    0.16
   2   6  -9    1.58    0.17
  -2  -6   9    1.88    0.13
  -2  -6   9    1.84    0.16
   1   6  -9    6.04    0.24
   1   6  -9    6.54    0.23
   1   6  -9    6.17    0.28
   1   6  -9    5.88    0.23
  -1  -6   9    5.97    0.23
  -1  -6   9    6.38    0.25
   0   6  -9    0.89    0.10
   0   6  -9    0.61    0.11
   0  -6   9    0.75    0.09
   0  -6   9    0.65    0.10
  -1   6  -9    0.39    0.08
   1  -6   9    0.38    0.09
   1  -6   9    0.37    0.08
  -2   6  -9    4.87    0.20
   2  -6   9    5.02    0.22
   2  -6   9    4.76    0.21
  -3   6  -9    0.87    0.10
   3  -6   9    0.67    0.11
   3  -6   9    0.90    0.11
   4   5  -9    0.16    0.11
  -4  -5   9   -0.03    0.05
  -4  -5   9   -0.11    0.09
   3   5  -9    0.36    0.11
  -3  -5   9    0.18    0.06
  -3  -5   9    0.02    0.09
   2   5  -9    1.29    0.15
  -2  -5   9    0.95    0.10
  -2  -5   9    1.10    0.13
   1   5  -9    1.29    0.11
   1   5  -9    1.60    0.13
   1   5  -9    1.20    0.14
   1   5  -9    1.23    0.11
  -1  -5   9    1.24    0.11
  -1  -5   9    1.11    0.12
  -1  -5   9    1.09    0.10
   0   5  -9   24.44    0.55
   0   5  -9   25.47    0.55
   0  -5   9   24.53    0.54
   0  -5   9   23.98    0.55
   0  -5   9   24.92    0.55
  -1   5  -9   12.78    0.34
  -1   5  -9   12.47    0.34
   1  -5   9   12.40    0.35
   1  -5   9   12.59    0.34
  -2   5  -9    7.31    0.25
   2  -5   9    7.26    0.26
   2  -5   9    7.42    0.26
  -3   5  -9    0.29    0.07
   3  -5   9    0.35    0.08
   3  -5   9    0.37    0.09
  -4   5  -9    1.11    0.10
   4  -5   9    1.06    0.12
   4  -5   9    0.98    0.14
   4   4  -9    0.03    0.10
  -4  -4   9    0.06    0.10
  -4  -4   9    0.05    0.05
   3   4  -9    4.30    0.24
  -3  -4   9    3.94    0.21
   2   4  -9    1.09    0.13
  -2  -4   9    0.90    0.09
  -2  -4   9    0.90    0.10
  -2  -4   9    0.91    0.11
   1   4  -9    1.62    0.16
   1   4  -9    1.81    0.13
   1   4  -9    1.73    0.12
  -1  -4   9    1.61    0.11
  -1  -4   9    1.56    0.12
  -1  -4   9    1.47    0.13
   0   4  -9    0.21    0.06
   0   4  -9    0.02    0.09
   0   4  -9    0.11    0.05
   0  -4   9    0.16    0.05
   0  -4   9    0.17    0.07
   0  -4   9    0.23    0.06
  -1   4  -9    2.43    0.14
  -1   4  -9    2.33    0.13
   1  -4   9    2.22    0.13
   1  -4   9    2.12    0.14
   1  -4   9    2.36    0.15
  -2   4  -9    0.96    0.10
   2  -4   9    0.94    0.11
   2  -4   9    1.00    0.11
  -3   4  -9    1.08    0.10
   3  -4   9    1.14    0.12
   3  -4   9    1.50    0.13
  -4   4  -9    0.94    0.09
   4  -4   9    0.72    0.12
   4  -4   9    0.87    0.11
   5   3  -9    0.02    0.10
  -5  -3   9   -0.13    0.09
   4   3  -9    0.45    0.11
  -4  -3   9    0.31    0.07
  -4  -3   9    0.30    0.10
   3   3  -9    0.12    0.08
  -3  -3   9    0.14    0.05
  -3  -3   9    0.16    0.08
   2   3  -9    1.06    0.12
  -2  -3   9    0.99    0.11
  -2  -3   9    0.91    0.09
  -2  -3   9    0.78    0.08
   1   3  -9    0.14    0.08
   1   3  -9    0.04    0.05
   1   3  -9    0.17    0.06
  -1  -3   9    0.21    0.05
  -1  -3   9    0.18    0.07
   0   3  -9    9.93    0.28
   0   3  -9    9.59    0.27
   0   3  -9    9.41    0.29
   0  -3   9    9.83    0.27
   0  -3   9    9.98    0.29
  -1   3  -9    2.72    0.14
  -1   3  -9    2.91    0.14
   1  -3   9    3.07    0.14
   1  -3   9    2.71    0.15
   1  -3   9    2.84    0.14
  -2   3  -9    1.04    0.10
  -2   3  -9    1.13    0.10
   2  -3   9    1.13    0.11
   2  -3   9    1.06    0.11
  -3   3  -9    0.80    0.09
   3  -3   9    0.75    0.10
   3  -3   9    0.81    0.11
  -4   3  -9    0.13    0.06
   4  -3   9    0.17    0.07
   4  -3   9    0.20    0.09
   5   2  -9    0.21    0.11
  -5  -2   9    0.01    0.09
   4   2  -9    0.08    0.09
  -4  -2   9    0.05    0.08
  -4  -2   9    0.03    0.05
   3   2  -9    1.34    0.14
  -3  -2   9    1.44    0.10
  -3  -2   9    1.44    0.11
  -3  -2   9    1.33    0.13
   2   2  -9    0.07    0.07
  -2  -2   9    0.13    0.05
  -2  -2   9    0.10    0.05
  -2  -2   9    0.07    0.07
   1   2  -9    3.22    0.16
   1   2  -9    2.85    0.14
   1   2  -9    2.89    0.14
  -1  -2   9    3.14    0.17
  -1  -2   9    3.16    0.14
  -1  -2   9    2.77    0.14
   0   2  -9    5.74    0.20
   0   2  -9    5.86    0.20
   0  -2   9    6.08    0.21
   0  -2   9    5.62    0.19
   0  -2   9    5.90    0.20
  -1   2  -9   30.53    0.62
  -1   2  -9   30.25    0.63
   1  -2   9   29.96    0.62
   1  -2   9   31.13    0.63
   1  -2   9   30.29    0.64
  -2   2  -9    0.08    0.05
  -2   2  -9    0.07    0.05
   2  -2   9    0.11    0.06
   2  -2   9    0.03    0.06
  -3   2  -9    0.89    0.09
   3  -2   9    0.92    0.11
   3  -2   9    0.85    0.11
  -4   2  -9    8.92    0.26
   4  -2   9    8.89    0.33
   5   1  -9    0.77    0.14
   4   1  -9    0.21    0.09
  -4  -1   9    0.06    0.05
  -4  -1   9    0.04    0.07
   3   1  -9    0.04    0.07
  -3  -1   9   -0.01    0.04
  -3  -1   9   -0.01    0.04
  -3  -1   9   -0.02    0.07
   2   1  -9    9.75    0.28
   2   1  -9   11.03    0.31
  -2  -1   9   10.24    0.28
  -2  -1   9   10.66    0.28
  -2  -1   9   10.22    0.29
   1   1  -9   -0.01    0.04
   1   1  -9    0.10    0.06
   1   1  -9    0.00    0.04
  -1  -1   9    0.02    0.04
  -1  -1   9    0.05    0.06
  -1  -1   9   -0.03    0.04
   0   1  -9    0.06    0.04
   0   1  -9    0.02    0.04
   0  -1   9   -0.04    0.05
   0  -1   9    0.02    0.04
   0  -1   9    0.03    0.04
  -1   1  -9    1.13    0.10
  -1   1  -9    1.27    0.10
   1  -1   9    1.10    0.11
   1  -1   9    1.28    0.10
   1  -1   9    1.26    0.10
  -2   1  -9    0.16    0.06
  -2   1  -9    0.21    0.05
   2  -1   9    0.15    0.06
   2  -1   9    0.08    0.06
  -3   1  -9    8.05    0.24
   3  -1   9    8.03    0.28
   3  -1   9    6.91    0.26
  -4   1  -9    0.30    0.06
   4  -1   9    0.18    0.09
   5   0  -9    3.63    0.24
  -5   0   9    3.07    0.15
  -5   0   9    3.45    0.21
   4   0  -9    0.12    0.08
  -4   0   9    0.05    0.04
  -4   0   9    0.16    0.06
  -4   0   9    0.07    0.04
   3   0  -9    0.03    0.07
  -3   0   9    0.01    0.04
  -3   0   9    0.02    0.06
  -3   0   9    0.01    0.04
   2   0  -9    0.75    0.09
   2   0  -9    0.73    0.08
  -2   0   9    0.82    0.08
  -2   0   9    0.82    0.09
  -2   0   9    0.81    0.08
   1   0  -9    1.54    0.11
   1   0  -9    1.45    0.11
  -1   0   9    1.38    0.10
  -1   0   9    1.28    0.11
  -1   0   9    1.39    0.10
   0   0  -9    0.44    0.07
   0   0  -9    0.41    0.07
   0   0   9    0.46    0.07
   0   0   9    0.46    0.08
   0   0   9    0.38    0.06
  -1   0  -9    7.17    0.23
  -1   0  -9    7.75    0.24
   1   0   9    7.52    0.24
   1   0   9    7.22    0.22
  -2   0  -9    1.14    0.10
  -2   0  -9    1.38    0.10
   2   0   9    1.37    0.12
   2   0   9    1.77    0.13
  -3   0  -9    0.01    0.05
   3   0   9    0.05    0.06
   3   0   9   -0.08    0.06
  -4   0  -9    2.81    0.14
   4   0   9    2.54    0.21
   5  -1  -9    0.05    0.09
  -5   1   9    0.13    0.07
  -5   1   9    0.04    0.04
   4  -1  -9    5.72    0.25
  -4   1   9    5.25    0.18
  -4   1   9    5.54    0.18
  -4   1   9    5.16    0.22
   3  -1  -9   10.76    0.32
  -3   1   9   10.34    0.28
  -3   1   9   10.21    0.30
  -3   1   9   10.52    0.29
  -3   1   9   10.75    0.28
   2  -1  -9   13.09    0.33
   2  -1  -9   13.63    0.35
  -2   1   9   13.64    0.33
  -2   1   9   13.33    0.33
  -2   1   9   13.50    0.33
  -2   1   9   13.24    0.33
   1  -1  -9   -0.07    0.04
   1  -1  -9    0.04    0.05
  -1   1   9   -0.02    0.04
  -1   1   9    0.09    0.06
  -1   1   9    0.07    0.05
   0  -1  -9   14.33    0.35
   0  -1  -9   14.05    0.36
   0   1   9   14.44    0.35
   0   1   9   14.71    0.36
   0   1   9   14.33    0.35
  -1  -1  -9    1.66    0.12
  -1  -1  -9    1.83    0.12
   1   1   9    1.85    0.13
   1   1   9    1.53    0.11
  -2  -1  -9    0.23    0.06
  -2  -1  -9    0.30    0.06
   2   1   9    0.24    0.08
   2   1   9    0.24    0.07
  -3  -1  -9   -0.01    0.05
   3   1   9   -0.04    0.07
  -4  -1  -9    0.13    0.06
   4   1   9    0.00    0.10
   5  -2  -9    0.69    0.13
  -5   2   9    0.61    0.11
  -5   2   9    0.61    0.07
   4  -2  -9    5.18    0.24
  -4   2   9    4.97    0.22
  -4   2   9    5.16    0.18
  -4   2   9    5.10    0.19
   3  -2  -9    0.16    0.08
  -3   2   9    0.09    0.04
  -3   2   9    0.08    0.05
  -3   2   9    0.08    0.05
   2  -2  -9    1.46    0.11
  -2   2   9    1.64    0.11
  -2   2   9    1.38    0.10
  -2   2   9    1.77    0.11
  -2   2   9    1.51    0.11
   1  -2  -9    0.34    0.06
   1  -2  -9    0.56    0.08
  -1   2   9    0.45    0.07
  -1   2   9    0.61    0.08
  -1   2   9    0.49    0.07
   0  -2  -9   18.05    0.43
   0  -2  -9   18.44    0.43
   0   2   9   19.18    0.42
   0   2   9   18.37    0.42
   0   2   9   18.72    0.43
  -1  -2  -9    1.56    0.11
  -1  -2  -9    1.39    0.12
   1   2   9    1.71    0.13
  -2  -2  -9    1.78    0.13
  -3  -2  -9    0.40    0.07
   3   2   9    0.17    0.09
  -4  -2  -9    0.20    0.06
   4   2   9   -0.04    0.10
   5  -3  -9    0.32    0.11
  -5   3   9    0.24    0.09
  -5   3   9    0.29    0.06
   4  -3  -9    3.11    0.20
  -4   3   9    3.64    0.15
  -4   3   9    3.48    0.19
   3  -3  -9    0.80    0.11
  -3   3   9    0.65    0.09
  -3   3   9    0.73    0.08
  -3   3   9    0.70    0.08
   2  -3  -9    5.41    0.20
  -2   3   9    5.67    0.20
  -2   3   9    5.40    0.19
  -2   3   9    5.72    0.20
   1  -3  -9    1.08    0.10
   1  -3  -9    0.88    0.10
  -1   3   9    0.87    0.08
  -1   3   9    1.08    0.10
  -1   3   9    1.12    0.10
   0  -3  -9   12.06    0.34
   0  -3  -9   12.75    0.33
   0   3   9   12.43    0.33
   0   3   9   12.96    0.32
   0   3   9   12.31    0.33
  -1  -3  -9    4.66    0.19
  -1  -3  -9    4.43    0.19
   1   3   9    4.56    0.19
  -2  -3  -9    0.95    0.10
  -3  -3  -9    1.21    0.11
   3   3   9    1.02    0.14
   5  -4  -9    0.13    0.10
  -5   4   9    0.00    0.04
  -5   4   9    0.07    0.08
   4  -4  -9    1.92    0.18
  -4   4   9    1.91    0.12
  -4   4   9    2.09    0.16
  -3   4   9    0.15    0.05
  -3   4   9    0.03    0.06
   2  -4  -9   22.33    0.52
  -2   4   9   23.50    0.51
  -2   4   9   22.38    0.51
  -2   4   9   23.47    0.51
   1  -4  -9    2.12    0.14
   1  -4  -9    1.90    0.14
  -1   4   9    2.19    0.13
  -1   4   9    2.16    0.13
   0  -4  -9    0.13    0.06
   0  -4  -9    0.07    0.05
   0   4   9    0.19    0.06
   0   4   9    0.14    0.05
   0   4   9    0.09    0.05
  -1  -4  -9    1.20    0.12
  -2  -4  -9    1.08    0.11
  -3  -4  -9    3.35    0.17
   5  -5  -9    1.27    0.17
  -5   5   9    1.07    0.10
  -5   5   9    0.92    0.13
  -4   5   9    0.31    0.09
  -4   5   9    0.21    0.06
  -3   5   9    0.31    0.07
  -3   5   9    0.26    0.07
   2  -5  -9    0.70    0.13
  -2   5   9    0.77    0.15
  -2   5   9    0.98    0.10
   1  -5  -9    3.03    0.16
   1  -5  -9    2.99    0.17
  -1   5   9    2.81    0.15
  -1   5   9    2.96    0.16
   0  -5  -9    3.48    0.18
   0   5   9    3.54    0.17
   0   5   9    3.33    0.17
  -1  -5  -9   -0.01    0.06
  -2  -5  -9    0.50    0.09
  -4   6   9    0.13    0.06
  -4   6   9   -0.10    0.06
  -3   6   9   -0.02    0.06
  -3   6   9    0.00    0.05
  -2   6   9    9.19    0.29
   1  -6  -9    0.55    0.09
  -1   6   9    0.38    0.08
   0  -6  -9   -0.05    0.05
   0   6   9    0.00    0.05
  -1  -6  -9    5.87    0.24
  -2  -6  -9    0.17    0.08
  -4   7   9    0.58    0.09
  -4   7   9    0.51    0.11
  -3   7   9    1.68    0.16
  -3   7   9    1.96    0.14
  -2   7   9    0.77    0.10
   1  -7  -9    3.19    0.18
  -1   7   9    3.01    0.17
   0  -7  -9    0.66    0.11
   0   7   9    0.71    0.10
  -1  -7  -9    0.41    0.09
  -3   8   9    2.42    0.20
  -3   8   9    2.86    0.17
  -2   8   9    0.20    0.07
   1  -8  -9    0.07    0.08
  -1   8   9   -0.03    0.06
   0  -8  -9    2.16    0.17
  -2   9   9    0.17    0.08
   1   8 -10    0.21    0.14
   1   8 -10    0.63    0.15
  -1  -8  10    0.33    0.11
  -1  -8  10    0.57    0.10
   0   8 -10    1.66    0.15
   0  -8  10    2.00    0.16
   0  -8  10    2.00    0.17
  -1   8 -10    0.22    0.08
   1  -8  10    0.21    0.09
   2   7 -10    2.37    0.23
  -2  -7  10    2.19    0.16
  -2  -7  10    1.97    0.19
   1   7 -10    1.34    0.17
  -1  -7  10    1.15    0.14
  -1  -7  10    1.03    0.12
   0   7 -10    5.93    0.24
   0  -7  10    5.79    0.25
   0  -7  10    5.71    0.24
  -1   7 -10    3.95    0.20
   1  -7  10    3.76    0.20
  -2   7 -10    0.21    0.07
   2  -7  10    0.03    0.08
   3   6 -10   -0.16    0.09
  -3  -6  10    0.05    0.06
  -3  -6  10    0.04    0.11
   2   6 -10    1.31    0.16
  -2  -6  10    1.26    0.12
  -2  -6  10    1.18    0.15
   1   6 -10    0.52    0.09
   1   6 -10    0.60    0.12
  -1  -6  10    0.61    0.09
  -1  -6  10    0.76    0.12
   0   6 -10    8.09    0.32
   0   6 -10    8.35    0.28
   0  -6  10    8.25    0.27
   0  -6  10    8.03    0.29
  -1   6 -10    1.06    0.12
   1  -6  10    1.18    0.13
  -2   6 -10    1.81    0.15
   2  -6  10    1.42    0.14
  -3   6 -10    2.03    0.15
   3  -6  10    2.00    0.18
   3  -6  10    2.27    0.17
   3   5 -10    0.20    0.10
  -3  -5  10    0.09    0.10
   2   5 -10    0.83    0.13
  -2  -5  10    0.62    0.12
  -2  -5  10    0.90    0.10
   1   5 -10    7.83    0.30
   1   5 -10    8.04    0.27
   1   5 -10    7.84    0.27
  -1  -5  10    7.30    0.25
  -1  -5  10    7.64    0.28
   0   5 -10    0.03    0.10
   0   5 -10   -0.06    0.05
   0  -5  10    0.05    0.08
   0  -5  10    0.01    0.05
  -1   5 -10    4.25    0.20
   1  -5  10    4.50    0.20
  -2   5 -10    0.04    0.06
   2  -5  10    0.07    0.07
  -3   5 -10    0.08    0.06
   3  -5  10   -0.01    0.07
   3  -5  10    0.03    0.07
   4   4 -10    1.57    0.18
  -4  -4  10    1.52    0.13
  -4  -4  10    1.54    0.17
   3   4 -10    0.22    0.10
  -3  -4  10   -0.04    0.05
  -3  -4  10    0.00    0.09
   2   4 -10    2.82    0.20
  -2  -4  10    3.21    0.20
   1   4 -10    0.05    0.08
   1   4 -10   -0.02    0.05
   1   4 -10   -0.01    0.05
  -1  -4  10   -0.04    0.07
   0   4 -10   30.06    0.65
   0   4 -10   30.92    0.65
   0  -4  10   29.85    0.66
   0  -4  10   30.85    0.65
  -1   4 -10    5.07    0.20
   1  -4  10    5.22    0.22
  -2   4 -10    0.07    0.06
   2  -4  10    0.12    0.07
  -3   4 -10   13.56    0.36
   3  -4  10   13.33    0.40
   3  -4  10   12.93    0.38
   4   3 -10    0.07    0.10
  -4  -3  10    0.05    0.05
  -4  -3  10   -0.10    0.09
   3   3 -10   12.04    0.39
  -3  -3  10   11.83    0.36
  -3  -3  10   11.90    0.33
   2   3 -10    0.40    0.10
  -2  -3  10    0.30    0.07
  -2  -3  10    0.37    0.09
   1   3 -10    0.43    0.07
   1   3 -10    0.36    0.07
   1   3 -10    0.44    0.10
  -1  -3  10    0.25    0.08
  -1  -3  10    0.22    0.06
  -1  -3  10    0.18    0.06
   0   3 -10    2.10    0.14
   0   3 -10    2.39    0.14
   0  -3  10    2.08    0.16
   0  -3  10    2.24    0.13
   0  -3  10    2.17    0.13
  -1   3 -10   -0.01    0.05
   1  -3  10    0.03    0.07
  -2   3 -10    2.08    0.14
   2  -3  10    2.39    0.15
  -3   3 -10    5.39    0.21
   3  -3  10    5.11    0.24
   3  -3  10    5.56    0.24
   4   2 -10    0.89    0.14
  -4  -2  10    0.77    0.09
  -4  -2  10    0.48    0.11
   3   2 -10    0.78    0.12
  -3  -2  10    0.70    0.09
  -3  -2  10    0.57    0.11
   2   2 -10    4.86    0.22
  -2  -2  10    4.73    0.21
  -2  -2  10    4.83    0.19
  -2  -2  10    4.60    0.19
   1   2 -10    0.23    0.06
   1   2 -10    0.28    0.07
  -1  -2  10    0.38    0.08
  -1  -2  10    0.24    0.06
  -1  -2  10    0.24    0.06
   0   2 -10    4.06    0.18
   0  -2  10    4.57    0.18
   0  -2  10    4.55    0.20
   0  -2  10    4.38    0.18
  -1   2 -10    2.87    0.15
  -1   2 -10    2.86    0.15
   1  -2  10    3.01    0.17
  -2   2 -10   -0.03    0.05
   2  -2  10   -0.09    0.06
  -3   2 -10    3.05    0.16
   3  -2  10    3.32    0.19
   3  -2  10    2.95    0.19
   5   1 -10    0.85    0.15
  -5  -1  10    0.70    0.08
  -5  -1  10    0.65    0.11
   4   1 -10    0.67    0.12
  -4  -1  10    0.66    0.09
  -4  -1  10    0.56    0.11
   3   1 -10    0.12    0.08
  -3  -1  10    0.10    0.05
  -3  -1  10    0.09    0.07
   2   1 -10    1.17    0.12
  -2  -1  10    1.16    0.11
  -2  -1  10    0.80    0.09
  -2  -1  10    1.07    0.10
   1   1 -10    5.41    0.20
   1   1 -10    5.33    0.20
  -1  -1  10    4.96    0.21
  -1  -1  10    4.90    0.19
  -1  -1  10    4.93    0.19
   0   1 -10    2.55    0.14
   0   1 -10    2.52    0.15
   0  -1  10    2.48    0.15
   0  -1  10    2.36    0.14
   0  -1  10    2.66    0.14
  -1   1 -10    0.06    0.05
  -1   1 -10    0.06    0.05
   1  -1  10   -0.02    0.06
  -2   1 -10    2.32    0.14
   2  -1  10    2.63    0.16
  -3   1 -10    0.08    0.06
   3  -1  10    0.11    0.07
   3  -1  10   -0.03    0.08
   5   0 -10   -0.08    0.09
  -5   0  10    0.02    0.05
  -5   0  10    0.03    0.07
   4   0 -10    0.15    0.09
  -4   0  10    0.17    0.07
  -4   0  10    0.13    0.05
   3   0 -10    1.34    0.14
  -3   0  10    1.07    0.11
  -3   0  10    1.18    0.10
  -3   0  10    1.17    0.12
  -2   0  10    2.98    0.15
  -2   0  10    3.29    0.15
  -2   0  10    3.02    0.16
  -2   0  10    2.98    0.15
   1   0 -10   18.94    0.44
   1   0 -10   19.16    0.45
  -1   0  10   18.16    0.44
  -1   0  10   19.09    0.44
  -1   0  10   18.45    0.43
   0   0 -10    0.25    0.07
   0   0 -10    0.14    0.06
   0   0  10    0.23    0.07
   0   0  10    0.13    0.05
   0   0  10    0.25    0.06
  -1   0 -10    0.79    0.09
  -1   0 -10    0.86    0.09
   1   0  10    1.02    0.11
  -2   0 -10    0.68    0.09
   2   0  10    0.71    0.10
  -3   0 -10    5.84    0.22
   3   0  10    5.59    0.25
   5  -1 -10    0.39    0.12
  -5   1  10    0.14    0.08
  -5   1  10    0.35    0.07
   4  -1 -10    9.62    0.34
  -4   1  10    8.87    0.31
  -4   1  10    9.54    0.27
   3  -1 -10    1.36    0.14
  -3   1  10    1.23    0.12
  -3   1  10    1.07    0.10
  -2   1  10    0.06    0.05
  -2   1  10    0.08    0.05
  -2   1  10    0.02    0.06
   1  -1 -10   25.64    0.56
   1  -1 -10   25.46    0.56
  -1   1  10   25.19    0.54
  -1   1  10   24.38    0.55
  -1   1  10   25.09    0.54
   0  -1 -10    4.01    0.18
   0  -1 -10    3.88    0.17
   0   1  10    3.86    0.17
   0   1  10    3.90    0.18
   0   1  10    3.75    0.17
  -1  -1 -10   11.23    0.32
  -1  -1 -10   11.02    0.37
   1   1  10   11.41    0.32
  -2  -1 -10    0.05    0.05
   2   1  10   -0.01    0.06
  -3  -1 -10    1.14    0.11
   5  -2 -10    0.22    0.11
  -5   2  10    0.24    0.06
  -5   2  10    0.12    0.08
   4  -2 -10    4.08    0.23
  -4   2  10    3.86    0.17
  -4   2  10    3.97    0.20
  -3   2  10   44.40    0.91
  -3   2  10   46.12    0.89
  -2   2  10   15.82    0.39
  -2   2  10   15.25    0.39
  -2   2  10   16.73    0.49
   1  -2 -10    4.03    0.18
   1  -2 -10    4.25    0.18
  -1   2  10    4.06    0.17
  -1   2  10    3.88    0.17
  -1   2  10    4.23    0.17
   0  -2 -10    0.09    0.05
   0  -2 -10    0.14    0.06
   0   2  10    0.24    0.07
   0   2  10    0.18    0.06
   0   2  10    0.19    0.06
  -1  -2 -10    1.46    0.13
   1   2  10    1.60    0.13
  -2  -2 -10    0.03    0.06
  -3  -2 -10    7.36    0.26
   5  -3 -10    0.16    0.11
  -5   3  10    0.16    0.06
  -5   3  10    0.19    0.09
   4  -3 -10    2.31    0.19
  -4   3  10    2.13    0.16
  -4   3  10    2.42    0.14
  -3   3  10    0.02    0.06
  -3   3  10    0.00    0.05
  -2   3  10    7.55    0.25
   1  -3 -10    1.42    0.12
   1  -3 -10    1.26    0.12
  -1   3  10    1.23    0.11
  -1   3  10    1.03    0.10
  -1   3  10    1.21    0.10
   0  -3 -10    0.15    0.07
   0  -3 -10    0.06    0.06
   0   3  10    0.14    0.06
   0   3  10    0.15    0.06
   0   3  10    0.17    0.06
  -1  -3 -10    0.38    0.08
   1   3  10    0.45    0.08
  -2  -3 -10    0.48    0.09
  -3  -3 -10    0.09    0.06
   5  -4 -10    0.30    0.12
  -5   4  10    0.41    0.10
  -5   4  10    0.49    0.08
  -4   4  10    0.08    0.07
  -4   4  10    0.13    0.06
  -3   4  10    0.15    0.07
  -3   4  10    0.26    0.07
  -2   4  10    1.23    0.11
   1  -4 -10    1.06    0.12
   1  -4 -10    0.80    0.10
  -1   4  10    1.09    0.11
   0  -4 -10    0.22    0.07
   0   4  10    0.37    0.07
   0   4  10    0.39    0.08
   0   4  10    0.37    0.07
  -1  -4 -10    1.23    0.12
  -2  -4 -10    0.48    0.09
  -4   5  10    0.32    0.09
  -4   5  10    0.41    0.08
  -3   5  10    1.00    0.11
  -3   5  10    0.73    0.10
  -2   5  10    0.50    0.09
   1  -5 -10    0.21    0.07
  -1   5  10    0.43    0.08
   0  -5 -10    0.17    0.07
   0   5  10    0.16    0.06
  -1  -5 -10    2.32    0.16
  -2  -5 -10    2.25    0.17
  -4   6  10    0.44    0.10
  -4   6  10    0.61    0.09
  -3   6  10    0.35    0.08
  -3   6  10    0.45    0.13
  -2   6  10    0.02    0.06
   1  -6 -10    0.06    0.07
  -1   6  10   -0.01    0.05
   0  -6 -10    4.93    0.23
   0   6  10    4.83    0.25
  -1  -6 -10    0.12    0.07
  -3   7  10    0.09    0.06
  -2   7  10    6.56    0.26
   1  -7 -10    2.60    0.18
  -1   7  10    2.48    0.17
   0  -7 -10    0.62    0.11
  -2   8  10    0.00    0.06
   1  -8 -10    0.01    0.07
  -1   8  10    0.02    0.06
   1   7 -11    0.02    0.12
  -1  -7  11    0.05    0.09
  -1  -7  11   -0.06    0.06
   0   7 -11   -0.09    0.12
   0   7 -11    0.21    0.08
   0  -7  11    0.07    0.07
   0  -7  11    0.14    0.09
  -1   7 -11    1.08    0.13
   1  -7  11    1.36    0.14
   2   6 -11    0.05    0.10
  -2  -6  11    0.04    0.06
  -2  -6  11   -0.05    0.09
   1   6 -11   12.31    0.41
   1   6 -11   12.55    0.43
  -1  -6  11   12.34    0.39
  -1  -6  11   13.14    0.38
   0   6 -11    6.73    0.26
   0  -6  11    6.19    0.25
   0  -6  11    6.61    0.27
  -1   6 -11    0.55    0.10
   1  -6  11    0.64    0.11
  -2   6 -11    3.09    0.19
   2  -6  11    3.17    0.20
   3   5 -11    0.29    0.12
  -3  -5  11    0.17    0.08
  -3  -5  11    0.23    0.12
   2   5 -11    0.34    0.11
  -2  -5  11    0.34    0.11
   1   5 -11    2.32    0.19
   1   5 -11    1.99    0.15
  -1  -5  11    2.36    0.19
   0   5 -11    0.70    0.10
   0  -5  11    0.93    0.12
  -1   5 -11    0.14    0.07
   1  -5  11    0.06    0.07
  -2   5 -11    3.40    0.19
   2  -5  11    3.40    0.20
   3   4 -11    0.55    0.12
  -3  -4  11    0.58    0.13
  -3  -4  11    0.39    0.08
   2   4 -11    0.04    0.08
  -2  -4  11   -0.03    0.08
  -2  -4  11    0.04    0.06
   1   4 -11    6.59    0.25
  -1  -4  11    6.37    0.26
  -1  -4  11    6.49    0.24
   0   4 -11    4.66    0.21
   0  -4  11    4.42    0.20
   0  -4  11    4.69    0.22
  -1   4 -11    0.21    0.07
   1  -4  11    0.33    0.09
  -2   4 -11    0.97    0.11
   2  -4  11    0.88    0.12
  -3   4 -11    0.07    0.07
   3  -4  11    0.17    0.08
   4   3 -11    0.15    0.10
  -4  -3  11    0.21    0.11
  -4  -3  11    0.18    0.07
   3   3 -11    0.05    0.09
  -3  -3  11   -0.09    0.08
  -3  -3  11   -0.09    0.05
   2   3 -11    0.18    0.09
  -2  -3  11    0.00    0.05
  -2  -3  11   -0.03    0.08
   1   3 -11    0.71    0.12
   1   3 -11    1.02    0.11
  -1  -3  11    1.09    0.12
  -1  -3  11    0.98    0.10
   0   3 -11    7.32    0.25
   0  -3  11    7.09    0.26
   0  -3  11    6.61    0.24
  -1   3 -11    2.06    0.15
   1  -3  11    1.88    0.16
  -2   3 -11    0.09    0.06
   2  -3  11    0.09    0.07
  -3   3 -11    2.39    0.16
   3  -3  11    2.45    0.18
   4   2 -11    0.12    0.10
  -4  -2  11   -0.02    0.05
  -4  -2  11    0.03    0.10
   3   2 -11    0.02    0.08
  -3  -2  11   -0.04    0.05
  -3  -2  11   -0.02    0.08
  -2  -2  11    2.21    0.14
  -2  -2  11    2.02    0.16
   1   2 -11    1.94    0.14
  -1  -2  11    1.84    0.13
  -1  -2  11    1.79    0.16
   0   2 -11    0.39    0.08
   0  -2  11    0.17    0.06
   0  -2  11    0.25    0.07
   0  -2  11    0.40    0.09
  -1   2 -11    0.15    0.07
   1  -2  11    0.21    0.08
  -2   2 -11   11.74    0.34
   2  -2  11   11.29    0.35
  -3   2 -11    0.36    0.08
   3  -2  11    0.19    0.09
   4   1 -11    0.24    0.10
  -4  -1  11    0.21    0.07
  -4  -1  11    0.11    0.06
   3   1 -11    0.97    0.13
  -3  -1  11    0.81    0.10
  -3  -1  11    0.83    0.11
  -2  -1  11    2.21    0.14
  -2  -1  11    2.20    0.16
   1   1 -11    0.32    0.08
   1   1 -11    0.16    0.06
  -1  -1  11    0.10    0.07
  -1  -1  11    0.06    0.05
   0   1 -11   13.49    0.37
   0  -1  11   13.46    0.36
   0  -1  11   13.18    0.36
   0  -1  11   13.23    0.36
  -1   1 -11    1.39    0.13
   1  -1  11    1.33    0.13
  -2   1 -11    0.27    0.08
   2  -1  11    0.20    0.08
  -3   1 -11    1.39    0.13
   3  -1  11    1.20    0.14
   4   0 -11   15.02    0.46
  -4   0  11   14.36    0.43
  -4   0  11   15.00    0.38
  -3   0  11   12.16    0.35
  -3   0  11   12.29    0.36
  -3   0  11   13.24    0.35
  -2   0  11    1.65    0.14
  -2   0  11    1.72    0.13
   1   0 -11    5.14    0.21
   1   0 -11    5.46    0.21
  -1   0  11    5.31    0.21
  -1   0  11    5.15    0.21
   0   0 -11    0.16    0.07
   0   0  11    0.24    0.08
   0   0  11    0.27    0.06
   0   0  11    0.18    0.06
  -1   0 -11    0.01    0.05
   1   0  11    0.07    0.07
  -2   0 -11    0.39    0.08
   2   0  11    0.66    0.11
  -3   0 -11    0.45    0.09
   4  -1 -11    0.06    0.09
  -4   1  11    0.14    0.07
  -4   1  11    0.07    0.06
  -3   1  11    0.30    0.07
  -3   1  11    0.32    0.07
  -2   1  11    1.91    0.13
  -2   1  11    1.79    0.14
   1  -1 -11    1.94    0.14
   1  -1 -11    1.82    0.14
  -1   1  11    2.06    0.14
  -1   1  11    1.86    0.13
   0  -1 -11    0.03    0.06
   0   1  11    0.16    0.07
   0   1  11    0.03    0.05
   0   1  11    0.01    0.05
  -1  -1 -11    0.39    0.08
   1   1  11    0.43    0.09
  -2  -1 -11    0.11    0.07
   2   1  11    0.17    0.08
  -3  -1 -11   -0.03    0.06
  -4   2  11    0.00    0.06
  -4   2  11    0.04    0.05
  -3   2  11    1.18    0.11
  -2   2  11   -0.05    0.05
   1  -2 -11    0.24    0.07
   1  -2 -11    0.25    0.07
  -1   2  11    0.13    0.06
  -1   2  11    0.24    0.07
   0  -2 -11    0.00    0.06
   0   2  11    0.12    0.07
   0   2  11   -0.01    0.05
   0   2  11    0.02    0.05
  -1  -2 -11    0.03    0.06
   1   2  11    0.03    0.06
  -2  -2 -11    0.26    0.08
  -4   3  11    0.04    0.06
  -4   3  11    0.00    0.06
  -3   3  11    2.13    0.14
  -2   3  11    0.40    0.08
   1  -3 -11    0.47    0.09
  -1   3  11    0.29    0.07
   0  -3 -11    6.28    0.25
   0   3  11    6.46    0.24
   0   3  11    6.49    0.24
  -1  -3 -11    0.26    0.08
   1   3  11    0.44    0.09
  -2  -3 -11    4.64    0.22
  -4   4  11    0.37    0.09
  -4   4  11    0.48    0.09
  -3   4  11    2.05    0.15
  -2   4  11   -0.03    0.05
   1  -4 -11    3.71    0.20
  -1   4  11    3.96    0.19
   0  -4 -11    0.17    0.08
   0   4  11    0.19    0.07
  -1  -4 -11    6.94    0.27
  -2  -4 -11    4.60    0.22
  -4   5  11   -0.01    0.06
  -4   5  11   -0.02    0.07
  -3   5  11    6.82    0.25
  -2   5  11   -0.03    0.06
   1  -5 -11    2.55    0.18
  -1   5  11    2.46    0.17
   0  -5 -11    3.12    0.19
  -1  -5 -11    3.17    0.20
  -3   6  11   -0.01    0.06
  -2   6  11    0.86    0.11
   1  -6 -11    1.45    0.15
  -1   6  11    1.44    0.14
   0  -6 -11    3.47    0.21
  -2   7  11    1.06    0.13
  -1  -6  12    0.15    0.11
   0   6 -12    0.71    0.12
   0  -6  12    0.59    0.12
   2   5 -12   -0.02    0.09
  -2  -5  12    0.15    0.07
  -2  -5  12    0.15    0.10
   1   5 -12   10.89    0.36
  -1  -5  12   10.60    0.34
  -1  -5  12   11.11    0.37
   0   5 -12    0.36    0.09
   0  -5  12    0.51    0.11
   0  -5  12    0.40    0.09
  -1   5 -12   -0.08    0.06
   1  -5  12    0.14    0.09
  -2  -4  12    0.63    0.10
  -2  -4  12    0.71    0.12
   1   4 -12    1.82    0.16
  -1  -4  12    2.22    0.19
  -1  -4  12    1.95    0.15
   0   4 -12    0.36    0.09
   0  -4  12    0.31    0.10
   0  -4  12    0.38    0.08
  -1   4 -12    3.82    0.20
   1  -4  12    3.33    0.21
  -2   4 -12    0.65    0.11
   2  -4  12    0.72    0.12
   3   3 -12    0.86    0.14
  -3  -3  12    0.75    0.13
  -3  -3  12    1.02    0.12
  -2  -3  12    2.32    0.16
  -2  -3  12    2.31    0.19
   1   3 -12    5.16    0.23
  -1  -3  12    5.43    0.24
  -1  -3  12    4.60    0.21
   0   3 -12    0.04    0.06
   0  -3  12   -0.01    0.07
   0  -3  12   -0.07    0.05
  -1   3 -12    0.00    0.06
   1  -3  12    0.14    0.08
  -2   3 -12    0.75    0.11
   2  -3  12    1.04    0.13
  -3  -2  12    0.20    0.07
  -3  -2  12    0.14    0.09
  -2  -2  12    8.15    0.28
  -2  -2  12    8.61    0.30
   1   2 -12    1.52    0.14
  -1  -2  12    1.49    0.13
  -1  -2  12    1.51    0.14
   0   2 -12    0.35    0.09
   0  -2  12    0.24    0.08
   0  -2  12    0.22    0.07
  -1   2 -12    0.32    0.09
   1  -2  12    0.39    0.10
  -2   2 -12    0.01    0.07
   2  -2  12    0.04    0.07
  -3  -1  12    0.09    0.08
  -3  -1  12    0.24    0.08
  -2  -1  12    9.97    0.33
  -2  -1  12   11.02    0.33
   1   1 -12    0.23    0.08
  -1  -1  12    0.27    0.07
  -1  -1  12    0.27    0.08
   0   1 -12    0.19    0.07
   0  -1  12    0.32    0.09
   0  -1  12    0.25    0.07
  -1   1 -12    0.61    0.10
   1  -1  12    0.72    0.11
  -2   1 -12    0.28    0.08
   2  -1  12    0.39    0.10
  -4   0  12    1.01    0.11
  -4   0  12    1.15    0.13
  -3   0  12    0.18    0.07
  -2   0  12    4.20    0.20
  -2   0  12    4.70    0.20
   1   0 -12    3.14    0.18
  -1   0  12    3.27    0.18
  -1   0  12    2.94    0.17
   0   0 -12    0.51    0.09
   0   0  12    0.64    0.09
   0   0  12    0.67    0.10
  -1   0 -12    0.07    0.07
   1   0  12   -0.02    0.07
  -2   0 -12    2.02    0.16
   2   0  12    2.43    0.18
  -4   1  12   10.70    0.36
  -4   1  12   10.49    0.32
  -3   1  12    2.16    0.15
  -2   1  12    0.05    0.07
  -2   1  12    0.00    0.05
   1  -1 -12    1.16    0.12
  -1   1  12    1.12    0.11
  -1   1  12    1.22    0.12
   0  -1 -12    2.60    0.17
   0   1  12    2.64    0.16
   0   1  12    2.86    0.17
  -1  -1 -12    3.33    0.19
   1   1  12    3.32    0.19
  -2  -1 -12    7.83    0.29
   2   1  12    7.78    0.30
  -4   2  12    1.96    0.17
  -4   2  12    2.36    0.16
  -3   2  12    2.17    0.16
  -2   2  12    0.50    0.09
   1  -2 -12   -0.02    0.06
  -1   2  12    0.08    0.06
  -1   2  12    0.21    0.07
   0  -2 -12   -0.02    0.06
   0   2  12    0.06    0.06
   0   2  12    0.07    0.07
  -1  -2 -12    0.20    0.08
   1   2  12    0.22    0.08
  -3   3  12    1.25    0.13
  -2   3  12    0.04    0.06
   1  -3 -12    1.23    0.13
  -1   3  12    1.35    0.13
   0  -3 -12    0.13    0.08
   0   3  12   -0.09    0.09
   0   3  12    0.12    0.07
  -1  -3 -12    0.23    0.08
   1   3  12    0.18    0.08
  -3   4  12    0.38    0.08
  -2   4  12    2.24    0.16
   1  -4 -12    0.95    0.13
  -1   4  12    1.14    0.13
   0  -4 -12    0.12    0.08
  -2   5  12    1.00    0.13
   1  -5 -12    4.99    0.25
  -1   5  12    5.04    0.24
   0  -5 -12    0.33    0.10
   1   4 -13    0.07    0.08
  -1  -4  13    0.14    0.07
  -1  -4  13    0.06    0.10
   0   4 -13    1.33    0.14
   0  -4  13    1.24    0.13
   0  -4  13    1.19    0.14
  -2  -3  13    0.60    0.10
  -2  -3  13    0.39    0.11
   1   3 -13    0.83    0.12
  -1  -3  13    1.00    0.12
  -1  -3  13    0.82    0.13
   0   3 -13    0.28    0.09
   0  -3  13    0.51    0.11
   0  -3  13    0.28    0.08
  -2  -2  13    0.83    0.11
  -2  -2  13    0.82    0.13
   1   2 -13    4.21    0.22
  -1  -2  13    5.00    0.24
  -1  -2  13    4.22    0.21
   0   2 -13    0.12    0.08
   0  -2  13    0.16    0.07
   0  -2  13    0.27    0.09
  -1   2 -13    3.63    0.21
   1  -2  13    2.91    0.20
  -2  -1  13    0.69    0.11
  -2  -1  13    0.88    0.13
   1   1 -13    1.67    0.16
  -1  -1  13    1.70    0.15
  -1  -1  13    1.88    0.16
   0   1 -13    0.04    0.07
   0  -1  13    0.07    0.07
   0  -1  13    0.12    0.08
  -1   1 -13    3.43    0.20
   1  -1  13    3.28    0.21
  -3   0  13    0.00    0.06
  -2   0  13    0.02    0.08
  -2   0  13    0.10    0.07
   1   0 -13    0.50    0.10
  -1   0  13    0.61    0.10
  -1   0  13    0.57    0.10
   0   0 -13    1.14    0.13
   0   0  13    0.83    0.19
   0   0  13    1.20    0.13
  -1   0 -13    0.02    0.07
   1   0  13    0.06    0.07
  -3   1  13    0.19    0.08
  -2   1  13    0.04    0.06
   1  -1 -13    0.87    0.12
  -1   1  13    0.69    0.10
  -1   1  13    0.89    0.12
   0  -1 -13    0.87    0.12
   0   1  13    0.87    0.12
  -2   2  13    0.16    0.07
   1  -2 -13    1.70    0.16
  -1   2  13    1.86    0.16
   0  -2 -13    4.56    0.23
   0   2  13    4.74    0.22
  -2   3  13    2.18    0.16
   1  -3 -13    0.09    0.08
  -1   3  13    0.23    0.08
   0   0   0    0.00    0.00
;
_shelx_hkl_checksum              85577
_shelx_res_file
;
TITL AX0643_multiscan_t in P-1
CELL 0.71073 5.0425 9.0386 10.1045 91.6608 97.6593 101.0806
ZERR 2.00 0.0002 0.0003 0.0004 0.001 0.001 0.001
LATT 1
SFAC C  H  N  O
UNIT 22 18 2 4
L.S. 14
ACTA
BOND $H
FMAP 2
PLAN -2
EQIV $1 -x+3, -y, -z+2
HTAB N1 O1_$1
SIZE 0.081 0.204 0.432
CONF
TEMP -123.160
WGHT    0.062600    0.100500
FVAR       0.32435
C1    1    1.190314    0.090799    0.907876    11.00000    0.01597    0.01844 =
         0.01771    0.00276    0.00147    0.00319
C2    1    0.969641    0.137326    0.816306    11.00000    0.01577    0.01977 =
         0.01582    0.00196    0.00009    0.00345
C3    1    0.918320    0.035321    0.691483    11.00000    0.01808    0.02072 =
         0.01808   -0.00025   -0.00123    0.00612
AFIX  23
H3A   2    0.935790    0.094538    0.611101    11.00000   -1.20000
H3B   2    0.734214   -0.029829    0.681320    11.00000   -1.20000
AFIX   0
C4    1    1.138978   -0.057915    0.713563    11.00000    0.01969    0.01984 =
         0.01875    0.00109   -0.00042    0.00473
C5    1    0.868633    0.256678    0.852141    11.00000    0.01749    0.02058 =
         0.01642    0.00054   -0.00060    0.00402
AFIX  43
H5    2    0.940342    0.300048    0.939410    11.00000   -1.20000
AFIX   0
C6    1    0.666262    0.331059    0.778988    11.00000    0.01679    0.01808 =
         0.02019    0.00220    0.00207    0.00406
C7    1    0.525337    0.282155    0.651642    11.00000    0.02137    0.02005 =
         0.02047    0.00021    0.00054    0.00606
AFIX  43
H7    2    0.558528    0.194543    0.607712    11.00000   -1.20000
AFIX   0
C8    1    0.337225    0.360789    0.588973    11.00000    0.02378    0.02529 =
         0.02074    0.00301   -0.00260    0.00604
AFIX  43
H8    2    0.241812    0.326205    0.502776    11.00000   -1.20000
AFIX   0
C9    1    0.287948    0.489329    0.651424    11.00000    0.02499    0.02464 =
         0.03193    0.00701   -0.00058    0.01032
AFIX  43
H9    2    0.159040    0.542601    0.608125    11.00000   -1.20000
AFIX   0
C10   1    0.426673    0.539955    0.776861    11.00000    0.03128    0.02218 =
         0.03367   -0.00223    0.00066    0.01182
AFIX  43
H10   2    0.394346    0.628508    0.819591    11.00000   -1.20000
AFIX   0
C11   1    0.613053    0.461178    0.840124    11.00000    0.02465    0.02291 =
         0.02388   -0.00358   -0.00217    0.00734
AFIX  43
H11   2    0.706442    0.496162    0.926611    11.00000   -1.20000
AFIX   0
N1    3    1.276619   -0.022341    0.841480    11.00000    0.01805    0.02084 =
         0.01810    0.00129   -0.00075    0.00733
O1    4    1.285887    0.141203    1.021495    11.00000    0.02323    0.02528 =
         0.01660   -0.00081   -0.00267    0.00791
O2    4    1.192822   -0.147285    0.634745    11.00000    0.03393    0.03021 =
         0.02363   -0.00697   -0.00357    0.01540
H1    2    1.418795   -0.065505    0.878751    11.00000    0.03350
HKLF 4 1 1 0 0 0 1 0 0 0 1
REM  AX0643_multiscan_t in P-1
REM R1 =  0.0391 for    2008 Fo > 4sig(Fo)  and  0.0459 for all    2338 data
REM    131 parameters refined using      0 restraints
END
WGHT      0.0626      0.1005
REM Highest difference peak  0.333,  deepest hole -0.262,  1-sigma level  0.056
Q1    1   1.0770  0.1168  0.8657  11.00000  0.05    0.33
Q2    1   1.0119 -0.0190  0.7018  11.00000  0.05    0.33
;
_shelx_res_checksum              88037
_shelxl_version_number           2.014
loop_
_space_group_symop_operation_xyz
'x, y, z'
'-x, -y, -z'
loop_
_atom_site_type_symbol
_atom_site_label
_atom_site_fract_x
_atom_site_fract_y
_atom_site_fract_z
_atom_site_U_iso_or_equiv
_atom_site_adp_type
_atom_site_calc_flag
_atom_site_occupancy
C C1 1.1903(2) 0.09080(11) 0.90788(10) 0.0175(2) Uani d 1
C C2 0.9696(2) 0.13733(11) 0.81631(9) 0.0173(2) Uani d 1
C C3 0.9183(2) 0.03532(11) 0.69148(10) 0.0190(2) Uani d 1
H H3A 0.9358 0.0945 0.6111 0.023 Uiso calc 1
H H3B 0.7342 -0.0298 0.6813 0.023 Uiso calc 1
C C4 1.1390(2) -0.05791(11) 0.71356(10) 0.0196(2) Uani d 1
C C5 0.8686(2) 0.25668(11) 0.85214(10) 0.0184(2) Uani d 1
H H5 0.9403 0.3000 0.9394 0.022 Uiso calc 1
C C6 0.6663(2) 0.33106(11) 0.77899(10) 0.0183(2) Uani d 1
C C7 0.5253(2) 0.28215(12) 0.65164(10) 0.0206(2) Uani d 1
H H7 0.5585 0.1945 0.6077 0.025 Uiso calc 1
C C8 0.3372(2) 0.36079(12) 0.58897(11) 0.0236(2) Uani d 1
H H8 0.2418 0.3262 0.5028 0.028 Uiso calc 1
C C9 0.2879(2) 0.48933(13) 0.65142(12) 0.0268(2) Uani d 1
H H9 0.1590 0.5426 0.6081 0.032 Uiso calc 1
C C10 0.4267(3) 0.53995(13) 0.77686(12) 0.0286(3) Uani d 1
H H10 0.3943 0.6285 0.8196 0.034 Uiso calc 1
C C11 0.6131(2) 0.46118(12) 0.84012(11) 0.0241(2) Uani d 1
H H11 0.7064 0.4962 0.9266 0.029 Uiso calc 1
N N1 1.27662(18) -0.02234(10) 0.84148(8) 0.0188(2) Uani d 1
O O1 1.28589(15) 0.14120(8) 1.02149(7) 0.02183(19) Uani d 1
O O2 1.19282(17) -0.14728(9) 0.63475(8) 0.0289(2) Uani d 1
H H1 1.419(3) -0.0655(17) 0.8788(15) 0.034(4) Uiso d 1
loop_
_atom_site_aniso_label
_atom_site_aniso_U_11
_atom_site_aniso_U_22
_atom_site_aniso_U_33
_atom_site_aniso_U_12
_atom_site_aniso_U_13
_atom_site_aniso_U_23
C1 0.0160(5) 0.0184(5) 0.0177(5) 0.0032(3) 0.0015(3) 0.0028(3)
C2 0.0158(5) 0.0198(5) 0.0158(4) 0.0035(3) 0.0001(3) 0.0020(3)
C3 0.0181(5) 0.0207(5) 0.0181(5) 0.0061(4) -0.0012(4) -0.0003(4)
C4 0.0197(5) 0.0198(5) 0.0188(5) 0.0047(4) -0.0004(4) 0.0011(4)
C5 0.0175(5) 0.0206(5) 0.0164(4) 0.0040(4) -0.0006(3) 0.0005(3)
C6 0.0168(5) 0.0181(5) 0.0202(5) 0.0041(3) 0.0021(4) 0.0022(4)
C7 0.0214(5) 0.0201(5) 0.0205(5) 0.0061(4) 0.0005(4) 0.0002(4)
C8 0.0238(5) 0.0253(5) 0.0207(5) 0.0060(4) -0.0026(4) 0.0030(4)
C9 0.0250(6) 0.0246(5) 0.0319(6) 0.0103(4) -0.0006(4) 0.0070(4)
C10 0.0313(6) 0.0222(5) 0.0337(6) 0.0118(4) 0.0007(5) -0.0022(4)
C11 0.0247(5) 0.0229(5) 0.0239(5) 0.0073(4) -0.0022(4) -0.0036(4)
N1 0.0180(4) 0.0208(4) 0.0181(4) 0.0073(3) -0.0007(3) 0.0013(3)
O1 0.0232(4) 0.0253(4) 0.0166(4) 0.0079(3) -0.0027(3) -0.0008(3)
O2 0.0339(5) 0.0302(4) 0.0236(4) 0.0154(4) -0.0036(3) -0.0070(3)
loop_
_atom_type_symbol
_atom_type_description
_atom_type_scat_dispersion_real
_atom_type_scat_dispersion_imag
_atom_type_scat_source
C C 0.0033 0.0016 'International Tables Vol C Tables 4.2.6.8 and 6.1.1.4'
H H 0.0000 0.0000 'International Tables Vol C Tables 4.2.6.8 and 6.1.1.4'
N N 0.0061 0.0033 'International Tables Vol C Tables 4.2.6.8 and 6.1.1.4'
O O 0.0106 0.0060 'International Tables Vol C Tables 4.2.6.8 and 6.1.1.4'
loop_
_geom_angle_atom_site_label_1
_geom_angle_atom_site_label_2
_geom_angle_atom_site_label_3
_geom_angle
O1 C1 N1 124.38(9)
O1 C1 C2 128.16(9)
N1 C1 C2 107.46(8)
C5 C2 C1 119.34(9)
C5 C2 C3 133.28(9)
C1 C2 C3 107.29(8)
C2 C3 C4 103.50(8)
C2 C3 H3A 111.1
C4 C3 H3A 111.1
C2 C3 H3B 111.1
C4 C3 H3B 111.1
H3A C3 H3B 109.0
O2 C4 N1 124.43(10)
O2 C4 C3 127.48(9)
N1 C4 C3 108.08(8)
C2 C5 C6 130.53(10)
C2 C5 H5 114.7
C6 C5 H5 114.7
C7 C6 C11 118.07(9)
C7 C6 C5 124.42(9)
C11 C6 C5 117.51(9)
C8 C7 C6 120.50(10)
C8 C7 H7 119.8
C6 C7 H7 119.8
C9 C8 C7 120.41(10)
C9 C8 H8 119.8
C7 C8 H8 119.8
C10 C9 C8 119.91(10)
C10 C9 H9 120.0
C8 C9 H9 120.0
C9 C10 C11 119.85(10)
C9 C10 H10 120.1
C11 C10 H10 120.1
C10 C11 C6 121.26(10)
C10 C11 H11 119.4
C6 C11 H11 119.4
C1 N1 C4 113.33(9)
C1 N1 H1 122.2(9)
C4 N1 H1 124.4(9)
loop_
_geom_bond_atom_site_label_1
_geom_bond_atom_site_label_2
_geom_bond_distance
C1 O1 1.2230(12)
C1 N1 1.3764(13)
C1 C2 1.4830(14)
C2 C5 1.3387(14)
C2 C3 1.5039(14)
C3 C4 1.5176(14)
C3 H3A 0.9900
C3 H3B 0.9900
C4 O2 1.2104(13)
C4 N1 1.3809(13)
C5 C6 1.4598(14)
C5 H5 0.9500
C6 C7 1.3995(14)
C6 C11 1.4001(14)
C7 C8 1.3896(14)
C7 H7 0.9500
C8 C9 1.3857(16)
C8 H8 0.9500
C9 C10 1.3828(17)
C9 H9 0.9500
C10 C11 1.3865(15)
C10 H10 0.9500
C11 H11 0.9500
N1 H1 0.923(17)
loop_
_geom_hbond_atom_site_label_D
_geom_hbond_atom_site_label_H
_geom_hbond_atom_site_label_A
_geom_hbond_site_symmetry_A
_geom_hbond_distance_DH
_geom_hbond_distance_HA
_geom_hbond_distance_DA
_geom_hbond_angle_DHA
N1 H1 O1 2_857 0.923(17) 1.932(17) 2.8497(11) 172.4(13)
loop_
_geom_torsion_atom_site_label_1
_geom_torsion_atom_site_label_2
_geom_torsion_atom_site_label_3
_geom_torsion_atom_site_label_4
_geom_torsion
O1 C1 C2 C5 6.01(16)
N1 C1 C2 C5 -173.41(9)
O1 C1 C2 C3 -177.13(10)
N1 C1 C2 C3 3.45(11)
C5 C2 C3 C4 170.83(11)
C1 C2 C3 C4 -5.41(10)
C2 C3 C4 O2 -173.51(11)
C2 C3 C4 N1 5.64(11)
C1 C2 C5 C6 175.86(10)
C3 C2 C5 C6 0.0(2)
C2 C5 C6 C7 3.03(18)
C2 C5 C6 C11 -176.09(11)
C11 C6 C7 C8 -0.40(15)
C5 C6 C7 C8 -179.52(10)
C6 C7 C8 C9 0.42(17)
C7 C8 C9 C10 0.04(17)
C8 C9 C10 C11 -0.51(18)
C9 C10 C11 C6 0.53(18)
C7 C6 C11 C10 -0.08(16)
C5 C6 C11 C10 179.10(10)
O1 C1 N1 C4 -179.18(9)
C2 C1 N1 C4 0.27(11)
O2 C4 N1 C1 175.32(10)
C3 C4 N1 C1 -3.86(12)
