#------------------------------------------------------------------------------
#$Date: 2019-12-26 21:22:11 +0200 (Thu, 26 Dec 2019) $
#$Revision: 246100 $
#$URL: file:///home/coder/svn-repositories/cod/cif/2/31/17/2311755.cif $
#------------------------------------------------------------------------------
#
# This file is available in the Crystallography Open Database (COD),
# http://www.crystallography.net/. The original data for this entry
# were provided by IUCr Journals, http://journals.iucr.org/.
#
# The file may be used within the scientific community so long as
# proper attribution is given to the journal article from which the
# data were obtained.
#
data_2311755
loop_
_publ_author_name
'Ende, Martin'
'Effenberger, Herta'
'Miletich, Ronald'
_publ_section_title
;
 Evolution of the \a-BaMg(CO<sub>3</sub>)<sub>2</sub> low-temperature
 superstructure and the tricritical nature of its \a-\b phase transition.
;
_journal_issue                   'Pt 5'
_journal_name_full
'Acta crystallographica Section B, Structural science, crystal engineering and materials'
_journal_page_first              827
_journal_page_last               835
_journal_paper_doi               10.1107/S2052520617009295
_journal_volume                  73
_journal_year                    2017
_chemical_formula_sum            'C6 Ba3 Mg3 O18'
_chemical_formula_weight         845.01
_space_group_crystal_system      trigonal
_space_group_IT_number           166
_space_group_name_Hall           '-R 3 2"'
_space_group_name_H-M_alt        'R -3 m :H'
_audit_creation_method           SHELXL-2014/7
_cell_angle_alpha                90
_cell_angle_beta                 90
_cell_angle_gamma                120
_cell_formula_units_Z            1
_cell_length_a                   5.0206(2)
_cell_length_b                   5.0206(2)
_cell_length_c                   16.7875(6)
_cell_measurement_reflns_used    5088
_cell_measurement_temperature    390(2)
_cell_measurement_theta_max      45
_cell_measurement_theta_min      1.5
_cell_volume                     366.46(2)
_computing_structure_refinement  'SHELXL-2014/7 (Sheldrick, 2014)'
_diffrn_ambient_temperature      390(2)
_diffrn_measured_fraction_theta_full 0.990
_diffrn_measured_fraction_theta_max 0.995
_diffrn_measurement_device_type  StoeStadiVari
_diffrn_radiation_type           MoK\a
_diffrn_radiation_wavelength     0.71073
_diffrn_reflns_av_R_equivalents  0.0281
_diffrn_reflns_av_unetI/netI     0.0138
_diffrn_reflns_Laue_measured_fraction_full 0.990
_diffrn_reflns_Laue_measured_fraction_max 0.995
_diffrn_reflns_limit_h_max       10
_diffrn_reflns_limit_h_min       -9
_diffrn_reflns_limit_k_max       9
_diffrn_reflns_limit_k_min       -10
_diffrn_reflns_limit_l_max       17
_diffrn_reflns_limit_l_min       -33
_diffrn_reflns_number            5088
_diffrn_reflns_point_group_measured_fraction_full 0.990
_diffrn_reflns_point_group_measured_fraction_max 0.995
_diffrn_reflns_theta_full        25.242
_diffrn_reflns_theta_max         45.550
_diffrn_reflns_theta_min         3.641
_exptl_absorpt_coefficient_mu    8.213
_exptl_absorpt_correction_T_max  0.8
_exptl_absorpt_correction_T_min  0.7
_exptl_absorpt_correction_type   numerical
_exptl_absorpt_process_details   '(Stoe & Cie GmbH 2016)'
_exptl_crystal_density_diffrn    3.829
_exptl_crystal_description       prismatic
_exptl_crystal_F_000             384
_exptl_crystal_size_max          0.060
_exptl_crystal_size_mid          0.030
_exptl_crystal_size_min          0.030
_refine_diff_density_max         1.115
_refine_diff_density_min         -0.607
_refine_diff_density_rms         0.147
_refine_ls_extinction_method     none
_refine_ls_goodness_of_fit_ref   1.138
_refine_ls_hydrogen_treatment    undef
_refine_ls_matrix_type           full
_refine_ls_number_parameters     14
_refine_ls_number_reflns         428
_refine_ls_number_restraints     0
_refine_ls_restrained_S_all      1.138
_refine_ls_R_factor_all          0.0138
_refine_ls_R_factor_gt           0.0138
_refine_ls_shift/su_max          0.000
_refine_ls_shift/su_mean         0.000
_refine_ls_structure_factor_coef Fsqd
_refine_ls_weighting_details
'w=1/[\s^2^(Fo^2^)+(0.0092P)^2^+0.9072P] where P=(Fo^2^+2Fc^2^)/3'
_refine_ls_weighting_scheme      calc
_refine_ls_wR_factor_gt          0.0302
_refine_ls_wR_factor_ref         0.0302
_reflns_Friedel_coverage         0.000
_reflns_number_gt                428
_reflns_number_total             428
_reflns_threshold_expression     'I > 2\s(I)'
_cod_data_source_file            xk5041sup1.cif
_cod_data_source_block           norse_390
_cod_original_cell_volume        366.46(3)
_cod_original_sg_symbol_H-M      'R -3 m'
_cod_database_code               2311755
_shelx_shelxl_version_number     2014/7
_shelx_space_group_comment
;
The symmetry employed for this shelxl refinement is uniquely defined
by the following loop, which should always be used as a source of
symmetry information in preference to the above space-group names.
They are only intended as comments.
;
_shelx_estimated_absorpt_t_min   0.639
_shelx_estimated_absorpt_t_max   0.791
_shelx_res_file
;

    norse_390_a.res created by SHELXL-2014/7


TITL norse_440_a.res in R-3m
REM Old TITL norse_440 in R3m

REM SHELXT solution in R-3m
REM R1 0.034,  Rweak 0.143,  Alpha 0.055,  Orientation as input
REM Formula found by SHELXT:  C2 O6 Mg Ba

CELL  0.71073   5.0206   5.0206  16.7875   90.000   90.000  120.000
ZERR    1.000   0.0002   0.0002   0.0006    0.000    0.000    0.000
LATT  3
SYMM -Y, X-Y, Z
SYMM -X+Y, -X, Z
SYMM Y, X, -Z
SYMM X-Y, -Y, -Z
SYMM -X, -X+Y, -Z
SFAC C O MG BA
UNIT 6 18 3 3
L.S. 20
TEMP 116.85
SIZE 0.06 0.03 0.03
BOND $H
LIST 4
ACTA
FMAP 2
PLAN 20
REM EXTI    0.000058
WGHT    0.009200    0.907200
FVAR       0.43983
BA1   4    0.000000    0.000000    0.500000    10.08333    0.01199    0.01199 =
         0.01689    0.00000    0.00000    0.00600
MG2   3    0.000000    0.000000    0.000000    10.08333    0.00932    0.00932 =
         0.01378    0.00000    0.00000    0.00466
O3    2    0.853693    0.707385    0.257759    10.50000    0.03611    0.01025 =
         0.02670    0.00413    0.00206    0.00512
C4    1    0.000000    0.000000    0.260599    10.16667    0.01083    0.01083 =
         0.01187    0.00000    0.00000    0.00541
HKLF 4

REM  norse_440_a.res in R-3m
REM R1 =  0.0138 for     428 Fo > 4sig(Fo)  and  0.0138 for all     428 data
REM     14 parameters refined using      0 restraints

END

WGHT      0.0092      0.9073

REM Highest difference peak  1.115,  deepest hole -0.607,  1-sigma level  0.147
Q1    1   0.0000  0.0000  0.4651  10.16667  0.05    0.96
Q2    1   0.9232  0.8464  0.2669  10.50000  0.05    0.40
Q3    1   0.6668  0.6489  0.2074  11.00000  0.05    0.32
Q4    1   0.6599  0.6695  0.2934  11.00000  0.05    0.32
Q5    1   0.5289  0.4711  0.2252  10.50000  0.05    0.29
Q6    1   0.1194  0.2389  0.2077  10.50000  0.05    0.29
Q7    1   0.6692  0.6483  0.2418  11.00000  0.05    0.27
Q8    1   0.0837 -0.2033  0.4677  11.00000  0.05    0.27
Q9    1   0.1566  0.3133  0.0440  10.50000  0.05    0.26
Q10   1   0.8050  0.6099  0.2981  10.50000  0.05    0.25
Q11   1   0.5342  0.6662  0.2852  11.00000  0.05    0.24
Q12   1  -0.1536 -0.3071  0.4708  10.50000  0.05    0.24
Q13   1   0.8705  0.4352  0.2584  10.50000  0.05    0.24
Q14   1   0.8974  0.7948  0.2075  10.50000  0.05    0.22
Q15   1   0.8601  0.7201  0.3333  10.50000  0.05    0.21
Q16   1  -0.0643 -0.1285  0.4674  10.50000  0.05    0.20
Q17   1   0.6209  0.7040  0.2562  11.00000  0.05    0.19
Q18   1   0.5711  0.6179  0.3167  11.00000  0.05    0.17
Q19   1   0.7391  0.8052  0.2810  11.00000  0.05    0.16
Q20   1   0.6391  0.5057  0.2901  11.00000  0.05    0.15
;
_shelx_res_checksum              66780
_shelx_hkl_file
;
   4  -4   8 1088.51   18.32   0
   5  -5   1  300.41    9.28   0
   1  -1  -7 1690.83   24.45   0
  -1   2   0 2736.61   30.01   0
   3  -3   9  293.45   12.40   0
   3  -1 -17  525.01   12.29   0
   3  -2 -13  491.85   10.94   0
   2   0 -16  579.67   13.93   0
   4  -4  -1 1336.97   16.05   0
   4  -4   2 1442.87   17.09   0
   0   0   3 1452.66   47.01   0
   4  -3 -11  331.71    8.82   0
   6  -5   2  651.75   11.44   0
   2  -1 -12 1721.76   20.74   0
   1   0 -11  447.84   13.73   0
   4  -2 -15  183.18    7.92   0
   2  -2  -5  170.78    7.71   0
   3  -3  -3 1964.54   19.80   0
   3  -3   6 2390.10   25.80   0
   5  -4  -6 1054.53   13.62   0
   1  -1  -4 9447.61   58.68   0
   3  -3   0 2449.49   22.68   0
   3  -2 -10 1364.01   16.37   0
   4  -3  -8 1937.68   17.98   0
   5  -4  -3  305.91    8.20   0
  -4   2  -6  723.88   13.60   0
  -1  -1 -15  524.78   10.16   0
  -1   0 -10 1489.53   18.33   0
   0  -1 -11  447.63   11.01   0
   0   0   3 1742.08   36.02   0
   1  -1   5 3713.60   34.49   0
  -3   0 -15  492.90    9.79   0
  -5   2  -7  337.09    9.24   0
  -3   1 -10 1317.22   15.69   0
  -2   1  -6 4010.44   32.38   0
   1  -3 -14 1163.52   16.63   0
  -5   1 -12  548.69   10.58   0
  -2  -1 -16 1054.93   13.54   0
   1  -4 -16  726.19   13.31   0
   0   0   6  288.47   11.72   0
   2  -4 -12 1660.38   22.69   0
   4  -3   4 2665.48   25.61   0
   2  -2  -2 4718.35   38.07   0
   5  -4   6  864.89   14.48   0
   3  -2   2 2969.87   29.66   0
   4  -5  -3  329.16    9.07   0
   0   1   8 5266.61   48.80   0
   2  -5  -8 1608.16   18.71   0
   4  -4  -1 1302.45   16.28   0
   5  -5   1  299.74    8.87   0
   3  -4  -5 1050.85   15.40   0
   4  -6  -5  286.70    8.25   0
   0  -2  -7  316.35   12.82   0
   3  -3  -3 1978.78   21.11   0
   3  -1  10 1414.53   33.02   0
   6  -5   8  525.27   11.50   0
  -1   1   4 9999.99   62.23   0
   4  -2   9 1031.50   20.08   0
   5  -4   3  782.56   12.99   0
   1  -3  -8 1932.81   23.13   0
   0  -3  -9 1183.34   20.50   0
   6  -5   5  384.86   10.00   0
   3  -6  -9  345.28    9.65   0
   5  -5  -2 1051.96   14.24   0
   4  -5  -6 1019.14   14.14   0
  -1  -2  -8 1955.48   36.60   0
   1  -4 -10  796.44   14.78   0
   2  -4  -9  940.85   14.94   0
   2  -3  -7 1495.54   18.86   0
   4  -4  -4 1409.04   16.40   0
   5  -3   8 1672.57   21.44   0
   4  -2   6  744.30   15.93   0
   3  -2  -1  653.59   13.58   0
   6  -5   2  636.46   11.69   0
   3  -4  -8 1902.84   19.39   0
   2  -5 -11  237.63    8.66   0
   3  -1   7 1624.79   30.49   0
  -2   0  -2 4734.52   50.15   0
   2  -1   0 4042.27   40.52   0
   4  -3  -2 1252.41   16.62   0
   5  -3   5  704.43   13.75   0
   0  -1  -5 3759.91   49.64   0
   2  -2  -5  179.74    8.37   0
   3  -5 -10  491.91   10.69   0
  -1  -3 -10  791.33   20.61   0
   3  -3  -6 1923.76   20.18   0
   5  -5  -5  613.75   11.27   0
   6  -4   7  230.84    8.69   0
   4  -2   3  808.25   15.26   0
   5  -4  -3  330.00    8.90   0
   4  -4  -7  277.77    8.27   0
   6  -4   4  773.99   13.25   0
   5  -3   2  644.57   12.29   0
   1  -1  -4 9494.13   62.65   0
   3  -2  -4 3204.04   26.81   0
   3  -1   4 3333.96   36.92   0
   4  -3  -5 1024.79   14.24   0
   5  -5  -8  579.90   10.26   0
   6  -4   1  539.21   11.00   0
   1  -3 -11  420.00   11.57   0
   2  -4 -12 1627.82   18.62   0
  -1   0  -1 1909.08   43.43   0
   5  -4  -6 1028.92   13.66   0
   5  -3  -1  724.60   12.66   0
   1  -4 -13  552.97   12.44   0
   3  -5 -13  520.88   10.81   0
   4  -4 -10 1112.49   13.92   0
   6  -4  -2  745.91   11.79   0
   2  -2  -8 2911.98   26.05   0
   0  -3 -12  954.06   18.28   0
   2  -1  -3 1912.76   24.63   0
   0  -2 -10 3252.88   34.90   0
   4  -3  -8 1945.11   18.69   0
   5  -3  -4 2053.92   19.23   0
  -2   0   1 4938.03   39.44   0
   4  -2  -3  784.95   13.66   0
   5  -4  -9  649.29   10.69   0
   3  -2  -7 1547.23   17.83   0
   5  -2   7  343.58   11.81   0
   6  -3   3  399.88   10.25   0
   3  -4 -14  585.61   11.19   0
   5  -2   4 2114.03   23.52   0
   2  -4 -15  167.11    7.68   0
   2  -3 -13  456.28   10.37   0
   3  -3 -12 1415.89   16.42   0
   6  -3   0  976.50   13.93   0
   5  -3  -7  337.56    8.91   0
   1   0  10 1545.27   27.96   0
   5  -2   1  758.80   13.65   0
   1  -1  -7 1637.43   23.36   0
   3  -1  -2 2958.91   27.55   0
  -2  -1  -4 3130.96   42.94   0
   4  -2  -6  720.15   12.49   0
   1  -3 -14 1176.64   17.42   0
   4  -3 -11  315.14    8.31   0
   2  -2 -11 1749.18   19.33   0
   2  -1  -6 3976.19   31.73   0
   6  -3  -3  391.27    9.14   0
   3  -2 -10 1384.50   16.26   0
   5  -2  -2  662.67   11.95   0
  -1   0   2 2517.00   34.19   0
   1  -2 -12 1672.51   20.47   0
   5  -3 -10  523.30   10.23   0
  -2  -1 -10 1397.74   17.15   0
  -2  -1   8 1849.97   50.23   0
  -1   2 -15  511.09   14.78   0
  -3   1 -19  271.26    8.74   0
  -1   1 -14 1218.97   19.30   0
  -1  -1  -6 3812.31   31.69   0
   0   0  -3 1632.65   42.75   0
   0   1   5 3717.76   34.27   0
  -2   1 -18  796.07   14.28   0
  -3  -2  -1  742.70   13.59   0
  -4  -2  -2  801.57   13.41   0
  -3  -2  -4 2061.42   20.10   0
  -3  -1 -14  621.03   11.16   0
  -3   0 -18  424.55   10.35   0
  -1   0 -13 1036.57   16.26   0
  -4  -2  -5  294.96    8.63   0
  -4  -2   1  543.37   11.86   0
  -1  -1  -9 1174.60   17.31   0
  -3  -2  -7  356.56    9.66   0
  -3  -2   2  643.59   13.64   0
  -2   0 -17  249.43    8.85   0
  -2  -2  -6  731.27   13.21   0
  -2  -2   0 4018.37   32.01   0
   0   0  -6  250.52   13.72   0
  -3  -2 -10  539.31   10.56   0
  -1   0   8 4891.09   53.23   0
  -2  -2  -9 1011.38   14.20   0
  -1  -1 -12 1718.27   19.28   0
   0   1   2 2398.92   33.41   0
  -2  -2   3  758.77   16.55   0
  -1   1 -17  828.80   15.83   0
  -1   0 -16 1547.53   19.29   0
   0   1 -10 1404.77   31.00   0
   0   2  -8 2767.48   72.42   0
  -2   0 -20  665.08   12.58   0
  -1  -2  -5 1990.56   21.51   0
  -1  -2  -2 2972.48   28.58   0
  -1  -2  -8 2029.93   20.84   0
  -2  -2 -15  187.73    7.72   0
  -2  -1 -19  260.54    8.70   0
  -3  -3  -6  644.38   11.49   0
  -3  -3  -3  409.52   10.21   0
  -1  -2 -11  446.85   10.76   0
   0  -1  -5 3706.14   36.90   0
   0   2  -5  162.27   12.00   0
  -2  -3  -8 1667.18   17.62   0
   0  -1  -8 4952.19   37.97   0
  -3  -3   0  958.57   15.20   0
  -1   0 -19  226.31    8.74   0
   0   0 -12 4320.37   37.37   0
  -2  -3  -2  661.49   12.80   0
  -2  -3 -11  257.08    8.31   0
  -1  -2 -14 1202.46   15.15   0
  -1  -1 -18  793.96   13.32   0
   0  -1 -11  446.50   11.78   0
   0  -1  -2 2348.69   35.04   0
  -2   0  10 3074.90   40.16   0
   0   1 -13 1074.08   23.87   0
  -1  -3  -7  635.36   11.98   0
   0   1  -1 1861.36   39.06   0
  -2  -3   1  752.53   14.57   0
  -1  -3 -10  852.44   12.91   0
   0  -2  -7  316.18    9.72   0
   0  -1 -14 1235.57   17.13   0
   0   0 -15  152.46    8.44   0
  -1  -3 -13  583.15   11.02   0
   0  -2 -10 3267.55   26.29   0
  -1  -1 -21  260.91    8.74   0
   0  -2  -4 2100.75   24.33   0
  -1  -3  -1  814.82   14.75   0
   0  -2 -13 1201.47   16.14   0
  -2  -4  -7  238.28    8.40   0
  -3  -4  -2  492.97   11.14   0
  -2  -4  -4  768.00   13.01   0
   0  -1 -17  852.87   14.72   0
  -1  -2   4 3175.64   40.62   0
   0  -2 -16  608.75   11.87   0
   0  -3  -9 1263.81   16.25   0
  -2  -3   4 1978.83   25.57   0
  -1  -4  -9  338.55    9.35   0
   0   0 -18  532.63   13.13   0
   0  -3 -12 1015.44   14.03   0
   0  -3  -6 2517.48   22.92   0
   0   1 -16 1512.12   26.31   0
  -2  -4  -1  543.74   11.76   0
   0  -2  -1 5058.40   41.57   0
   0  -3 -15  273.13    8.23   0
  -1  -4  -3  801.36   13.61   0
  -1  -3   2 1248.51   19.69   0
   0  -2 -19  202.82    8.22   0
   0  -3  -3  503.77   12.12   0
   0  -1 -20  622.15   12.58   0
   0  -4 -11  652.64   11.36   0
   0  -4  -8 1421.94   16.66   0
  -2  -4   2  757.10   14.83   0
   0  -4 -14  554.61   10.49   0
   0  -1   1 1786.03   40.47   0
  -1  -4   0 1350.30   18.29   0
   0  -4  -5  371.92    9.89   0
  -1   1   4 9728.97   63.49   0
   1  -3 -11  439.47   10.25   0
   1  -3  -5 2010.33   21.21   0
  -1   1   4 9813.90   63.84   0
   1  -4  -7  641.55   11.65   0
   1  -2  -9 1134.77   17.44   0
   1  -4 -10  841.81   12.56   0
   1  -2  -6 3826.57   31.94   0
   1  -4  -4 2571.49   21.83   0
   0  -4   4 1426.18   18.77   0
   1  -3 -14 1204.47   15.51   0
   1  -2 -12 1703.17   20.52   0
   0  -5   2 1055.65   15.03   0
   1  -5  -9  331.84    9.03   0
   1  -3  -2 2966.19   26.46   0
   1  -5  -6  835.49   12.29   0
   2  -4  -9  948.92   13.06   0
   3  -5 -19   81.29    6.55   0
   3  -5 -16  605.14   11.82   0
   5  -6 -19   97.03    8.17   0
   5  -6 -13  169.42    7.73   0
   8  -6  -7   82.00    7.52   0
   9  -6  -9  136.51    8.10   0
   5  -6 -16  292.13   10.13   0
   6  -6  -9  223.47    8.57   0
   7  -6  -8  520.98   11.29   0
   2  -4 -21  303.54    9.58   0
   9  -6 -12  109.84    7.45   0
   4  -5 -24  106.49    8.35   0
   6  -6 -21   86.99    7.89   0
   6  -6 -12  490.10   11.03   0
   8  -6 -10  146.46    8.44   0
   5  -5  -5  638.43   11.42   0
   6  -4   1  517.21   10.88   0
   2  -4 -18  314.62    9.45   0
   3  -4  -5 1026.32   13.34   0
   4  -5  -9  650.84   11.05   0
   5  -4   0 1302.53   15.75   0
   6  -6 -18  113.25    8.60   0
   6  -6 -15  115.57    8.24   0
   7  -6 -11  111.31    7.70   0
   7  -5  -3  357.70    9.76   0
   2  -4 -15  168.07    7.07   0
   7  -6 -20  156.39    8.73   0
   1  -3 -11  405.94    9.29   0
   5  -5 -26  117.52    8.71   0
   6  -5  -4  691.19   11.51   0
   3  -4 -26  135.26    8.39   0
   4  -5 -21  179.82    9.03   0
   7  -6 -17  119.82    8.60   0
   7  -6 -14  107.28    7.20   0
   8  -6 -16  131.39    7.80   0
   2  -3  -4 3189.22   24.04   0
   4  -5 -12  570.98   11.34   0
   8  -5  -5  151.23    7.95   0
   1  -3 -17  520.04   11.09   0
   1  -3 -14 1231.10   15.73   0
   4  -5 -15  149.82    7.98   0
   5  -5  -8  612.11   11.50   0
   4  -4 -28   57.86    8.64   0
   5  -5 -23   54.02    7.74   0
   9  -5 -10   72.88    7.86   0
   3  -4  -8 1986.92   18.33   0
   7  -5  -6  332.29    9.46   0
   3  -4 -23   55.02    7.19   0
   4  -4  -4 1373.19   15.47   0
   4  -3   1  799.08   13.12   0
   7  -4  -1  174.02    7.70   0
   5  -3   2  621.61   12.25   0
   8  -5  -8  310.53    9.69   0
   5  -5 -20  175.27    8.96   0
   5  -5 -11  212.86    7.73   0
   9  -5 -13   84.65    7.69   0
   2  -3 -25  124.69    7.86   0
   5  -5 -17  248.76    9.06   0
   5  -5 -14  547.05   11.32   0
   6  -5 -22  125.59    8.29   0
   3  -4 -20  385.30   10.45   0
   3  -4 -11  325.57    8.49   0
   5  -4  -3  316.10    8.81   0
   6  -4  -2  774.32   12.53   0
   4  -4 -25  132.60    8.89   0
   6  -5 -10  402.75    9.55   0
   8  -5 -11   92.24    7.36   0
   2  -3  -7 1550.14   16.85   0
   3  -4 -14  645.41   11.60   0
   7  -5 -21   52.11    7.28   0
   5  -4 -27   33.49    7.26   0
   8  -5 -17   88.57    7.36   0
   6  -5 -16  311.36   10.30   0
   7  -5 -18  121.79    8.28   0
   7  -5 -12  341.43   10.23   0
   4  -4  -7  277.92    7.93   0
   7  -5 -15  143.61    8.26   0
   2  -3 -22  258.15    8.90   0
   3  -3  -3 1878.54   18.41   0
   3  -3 -27   73.10    7.61   0
   4  -4 -22  316.40   10.16   0
   8  -4  -6  190.10    8.14   0
   9  -4 -11   53.33    6.97   0
   4  -3 -29   86.65    8.37   0
   9  -4 -14   45.87    7.15   0
   2  -3 -10 1352.79   15.77   0
   2  -3 -19  266.74    8.74   0
   4  -4 -10 1196.39   14.30   0
   5  -4  -6  991.28   13.20   0
   6  -4  -5  299.50    8.81   0
   8  -4  -9  154.95    8.19   0
   2  -3 -16 1007.26   13.75   0
   4  -4 -16  421.30    9.85   0
   6  -4 -23   84.36    7.80   0
   3  -3 -24  256.35    9.60   0
   5  -4 -21  161.81    8.69   0
   7  -4 -22  106.04    8.02   0
   7  -4  -7  297.88    9.21   0
   1  -2 -21  267.12    8.89   0
   5  -3 -28   66.45    7.94   0
   8  -4 -18   73.82    7.81   0
   8  -4 -12  260.83    9.34   0
   5  -4  -9  636.62   10.98   0
   5  -3  -1  730.17   12.20   0
   8  -4 -15   67.89    7.27   0
   4  -3 -26  149.61    8.65   0
   7  -3  -2  524.42   11.02   0
   2  -2 -26  147.93    8.33   0
   3  -3  -6 1915.60   18.11   0
   5  -4 -18  396.63    9.81   0
   6  -4 -20  198.98    8.49   0
   7  -4 -19   91.90    8.00   0
   7  -4 -10  356.47    9.82   0
   9  -3 -12  131.21    8.19   0
   5  -4 -15  151.45    7.76   0
   5  -4 -12  574.07   10.69   0
   7  -4 -16  224.63    8.96   0
   1  -2 -18  785.28   13.07   0
   3  -3 -21  186.31    7.83   0
   4  -2 -30   69.91    8.10   0
   6  -4 -17  142.34    7.50   0
   6  -4 -11  302.69    8.66   0
   3  -2 -28  131.68    8.48   0
   6  -4 -14  358.80    9.42   0
   1  -2 -15  552.09   11.09   0
   1  -2 -12 1680.22   18.27   0
   8  -3  -7  109.86    7.28   0
   3  -3  -9  500.48    9.86   0
   4  -3 -23   69.33    6.74   0
   4  -3  -5 1038.18   13.86   0
   6  -3 -24  115.38    8.06   0
   6  -3  -3  397.60    9.55   0
   7  -3 -23   39.91    6.65   0
   5  -2 -29   60.43    7.67   0
   7  -3  -5  320.56    9.15   0
   2  -2 -23  211.92    8.72   0
   3  -3 -15  489.79   10.08   0
   3  -3 -12 1498.99   16.01   0
   8  -3 -16  137.21    8.15   0
   8  -3 -10  164.81    8.35   0
   5  -3  -4 1985.31   18.39   0
   8  -3 -13  127.93    7.79   0
   5  -3 -22  183.51    8.80   0
   4  -2 -27   28.27    7.46   0
   7  -3 -20  106.42    7.58   0
  -6  -3  -9  139.83   10.03   0
  -1  -2  -8 1977.79   20.11   0
  -6  -1 -17  114.69    9.39   0
  -5  -3 -11  106.89    8.50   0
  -5  -2 -15  156.31    8.90   0
  -4  -4  -6  204.78    9.01   0
  -2  -2 -12 1736.97   18.71   0
  -2   0 -14  961.01   15.34   0
  -7   0 -19   25.07    7.43   0
  -3  -3 -12  529.13   12.20   0
  -5  -4  -7   62.16    8.80   0
  -4  -3 -13  133.08    9.22   0
  -1  -4   3  327.27    9.79   0
  -3  -4  -8  347.33   10.30   0
  -1  -4   0 1315.06   16.94   0
  -1  -3  -7  647.73   12.15   0
  -4  -4  -9  161.40   10.08   0
  -4  -1 -18  374.80   11.17   0
  -4   0 -19   83.91    7.50   0
  -5   0 -20  140.04    8.61   0
  -2  -4  -7  238.66    9.19   0
  -5  -3 -14  122.30    9.95   0
  -5  -1 -19   96.17    8.67   0
  -3  -1 -17  416.47   10.45   0
  -3  -5   2  213.22    9.40   0
  -4  -5   1  118.65    8.45   0
  -3  -5  -1  198.11    9.40   0
  -5  -4 -10   90.53    9.24   0
  -3   0 -18  428.42   11.08   0
  -6   0 -21  110.58    8.82   0
  -5  -2 -18  123.52    9.50   0
  -4  -5  -2  104.23    8.73   0
  -1  -2 -11  432.54   10.13   0
   0  -3   0 2315.98   23.52   0
  -3  -4 -11  143.43    8.42   0
  -2  -5   3  377.87   10.59   0
  -5  -5   0  156.19    9.81   0
  -3  -5  -4  386.04   10.51   0
  -3  -3 -15  159.53    9.35   0
  -4  -5  -5  105.69    8.85   0
  -4  -3 -16  236.17   10.61   0
  -2  -4 -10  573.61   11.58   0
  -2  -1 -16 1013.25   15.12   0
  -1  -4  -6  833.91   13.17   0
  -1  -3 -10  830.06   13.12   0
  -5  -5  -3   46.82    8.22   0
  -2  -5  -3  116.58    8.25   0
  -2   1 -15  478.92   12.48   0
   0  -3  -3  510.81   11.05   0
  -2  -3 -14  351.36    9.91   0
  -5  -4 -13  112.26    9.55   0
  -5  -3 -17   91.42    9.15   0
  -4  -1 -21  159.37    9.29   0
  -3  -4 -14  302.97   10.12   0
  -1  -5   1  289.75    9.71   0
  -1  -4  -9  342.58    9.38   0
  -4  -4 -15   53.67    9.39   0
  -4  -2 -20  199.50   10.15   0
  -2   0 -17  232.21    8.93   0
  -1  -5  -2  668.37   12.88   0
   0  -3  -6 2433.50   22.14   0
   0  -2  -7  330.16    9.38   0
  -5  -1 -22  115.22    8.58   0
  -3  -5 -10  175.97    9.91   0
  -3  -2 -19   73.08    7.18   0
  -1  -5   4  690.84   13.77   0
  -3  -1 -20  364.72   10.75   0
   0  -4   1 1291.16   17.38   0
  -5  -2 -21   62.80    8.40   0
  -2  -5  -9  330.83    9.99   0
  -1  -3 -13  581.23   11.43   0
  -1   0 -13 1055.21   17.06   0
   0  -4  -2 1441.46   17.23   0
   0  -4  -5  355.67    9.88   0
  -3  -6   0  225.58    9.73   0
  -1  -4 -12  805.25   13.05   0
  -3  -6  -3  144.96    8.96   0
  -3  -5 -13  144.62    9.98   0
  -1  -5  -8  570.30   11.62   0
  -1  -1 -15  515.19   11.59   0
   0  -3  -9 1243.39   15.93   0
  -3  -4 -17  140.66    8.59   0
  -3   0 -21  181.08    8.49   0
  -2  -6  -2  191.99    9.54   0
  -2  -5 -12  264.91   10.36   0
  -4  -4 -18   85.56    9.39   0
  -3  -6  -6  112.61    9.31   0
  -2  -4 -16  288.99   10.58   0
  -2  -1 -19  255.36    9.28   0
   0  -2 -10 3382.45   26.32   0
  -2  -6  -5  161.91    9.51   0
   0  -4  -8 1320.60   15.89   0
  -1  -5 -11  180.67    9.25   0
  -1  -3 -16  774.67   13.46   0
   0  -5  -1  301.97    9.38   0
  -4  -2 -23   62.73    8.19   0
  -3  -6  -9   79.80    8.09   0
  -3  -2 -22  178.75    9.60   0
  -2  -6  -8  298.36   10.67   0
   0  -5  -4  875.57   14.03   0
  -3  -3 -21  124.88    9.11   0
  -1  -4 -15  254.28    9.67   0
  -1  -2 -17  498.79   11.45   0
   0  -5   2 1041.35   15.80   0
  -4  -3 -22   93.69    9.17   0
  -2  -5 -15   55.52    8.62   0
  -1  -6  -4  562.30   11.97   0
  -1  -6   2  209.77    8.92   0
   0  -5  -7  577.68   11.97   0
   0  -4 -11  658.62   12.38   0
  -3  -1 -23   48.58    7.80   0
  -2  -3 -20  349.47   11.06   0
  -1  -6  -7  115.97    8.53   0
  -3  -6 -12  158.18    9.62   0
  -2  -2 -21  300.73   10.28   0
  -2  -4 -19   68.52    8.52   0
  -2   0 -20  625.55   13.07   0
   0  -5 -10  589.32   12.08   0
  -1  -6 -10  202.99    8.82   0
  -1  -1 -18  791.17   13.98   0
  -1   0 -16 1485.68   19.67   0
  -3  -5 -19   37.91    8.47   0
  -2  -6 -14  113.84    9.58   0
  -1  -4 -18  266.03   10.32   0
  -1  -3 -19  133.22    8.21   0
  -2  -1 -22  254.92   10.07   0
   0  -6  -3  223.33    8.50   0
   0  -4 -14  558.16   11.33   0
  -2  -7  -4  157.13    9.13   0
   0  -6  -6  358.45   10.61   0
   0  -6   0  767.16   13.79   0
   0  -3 -15  272.67    8.62   0
  -1  -6 -13  200.54    9.83   0
  -3  -3 -24  115.07    8.60   0
  -2  -7  -7  112.66    8.92   0
  -1  -5 -17  156.20    8.83   0
   0  -5 -13  166.13    8.28   0
   1  -4  -4 2455.67   21.98   0
  -1  -2 -20  386.58   10.11   0
   1  -4  -1  826.72   13.75   0
   1  -3  -5 1974.54   20.43   0
  -3  -4 -23   38.33    8.54   0
  -3  -2 -25  122.73    8.90   0
  -2  -3 -23   39.94    7.98   0
  -1  -7  -3  154.46    8.93   0
   1  -4  -7  647.43   11.74   0
  -2  -7 -10  105.83    8.51   0
  -1  -7  -6  142.72    9.09   0
  -2  -6 -17   68.37    8.92   0
   0  -2 -16  578.34   11.84   0
   1  -5  -3  801.20   13.55   0
   1  -3  -8 1989.77   19.93   0
  -1  -7  -9   93.09    8.91   0
   0  -1 -14 1198.31   16.79   0
   1  -5  -6  828.86   13.17   0
  -2  -5 -21  106.47    9.21   0
  -2  -2 -24  212.76    9.71   0
  -1  -6 -16  207.13   10.02   0
   0  -6 -12  399.79   10.63   0
   1  -4 -10  847.07   13.50   0
   0  -5 -16  393.05   11.08   0
   1  -5   0 1308.38   17.36   0
   1  -4   2 1185.97   17.76   0
   0  -3 -18  680.97   13.01   0
   1  -5  -9  336.76    9.48   0
  -1  -5 -20  165.13    9.50   0
  -1  -3 -22  212.56    9.16   0
   0  -7  -5  187.15    9.50   0
   0  -7  -2  130.67    8.41   0
  -1  -1 -21  272.06    9.41   0
   0  -6 -15   94.95    7.58   0
   1  -6  -5  400.52   10.13   0
   1  -5 -12  798.39   13.61   0
   1  -4 -13  587.61   12.05   0
   1  -6  -2  687.15   12.97   0
  -1  -6 -19   37.83    8.17   0
   1  -2  -9 1157.84   16.30   0
  -2  -4 -25   61.58    8.63   0
  -1  -7 -15   51.83    8.23   0
  -1  -2 -23   97.07    7.85   0
   0  -5 -19  143.77    8.33   0
   1  -6 -11  164.02    8.76   0
  -2  -3 -26  101.24    8.22   0
   0  -2 -19  202.29    8.48   0
   1  -6   1  279.74   10.01   0
   1  -3 -14 1217.96   15.90   0
  -1  -4 -24  143.84    9.38   0
   0  -1 -17  818.64   14.25   0
   1  -5 -15  233.26    8.76   0
   0  -3 -21  249.72    9.37   0
   1  -4 -16  766.19   12.84   0
   1  -7  -7  112.21    8.33   0
   1  -6 -14  328.38   10.86   0
   1  -7  -4  557.85   11.88   0
  -1  -6 -22   83.11    9.15   0
  -1  -3 -25  139.05    8.45   0
   0  -8  -7   80.25    8.38   0
   0  -8  -4  179.00    8.95   0
   0  -7 -17  103.37    8.84   0
   0  -8 -10  112.72    8.43   0
   1  -5 -18  270.15   10.09   0
   0  -6 -21   91.90    8.67   0
   0  -4 -23  106.51    8.60   0
   1  -7 -13  204.00    8.90   0
   2  -5  -8 1605.35   17.45   0
   0  -8 -13   69.25    7.94   0
   1  -2 -15  520.32   11.35   0
   0  -2 -22  549.41   12.27   0
   2  -4  -9 1001.76   14.63   0
   2  -4  -6  719.74   12.37   0
   2  -6 -10  578.10   11.64   0
   2  -6  -4  769.07   13.48   0
   2  -5  -2  641.07   12.43   0
   0  -7 -20  117.83    8.97   0
   1  -7 -16  176.86    9.18   0
  -1  -4 -27   39.35    7.42   0
   0  -3 -24  159.31    8.81   0
   1  -8  -9  101.71    8.60   0
   1  -8  -6  130.08    8.75   0
   2  -4 -12 1766.58   18.60   0
   0  -1 -20  622.77   12.78   0
   2  -6 -13  313.04   10.47   0
   2  -5 -14  349.55   10.44   0
   1  -8 -12  196.65    9.48   0
   1  -6 -20  163.93    8.96   0
   2  -7  -6  436.78   11.37   0
   2  -6  -1  515.99   11.63   0
   0  -5 -25   61.75    8.35   0
   1  -3 -20  379.19   10.67   0
   1  -7 -19   24.71    8.21   0
   1  -4 -22  209.30    9.55   0
   2  -7 -12  254.73    9.31   0
   2  -7  -3  125.87    7.96   0
   2  -4 -15  184.03    8.50   0
   2  -3  -7 1597.93   18.42   0
   0  -4 -26  114.00    9.03   0
   1  -2 -18  779.23   13.63   0
   2  -6 -16  265.98    9.49   0
   2  -5   1  718.56   13.48   0
   2  -3 -10 1407.75   16.74   0
   2  -5 -17  371.68   10.22   0
   2  -4   0 3934.70   29.94   0
   2  -7 -15   74.57    8.29   0
   2  -3  -4 3283.68   26.48   0
   1  -1 -13 1061.56   16.20   0
   2  -8  -8  271.71   10.45   0
   2  -3 -13  488.63   10.65   0
   1  -5 -24  150.99    9.40   0
   2  -8 -11   78.36    8.25   0
   2  -7   0  517.04   11.91   0
   2  -6   2  755.02   14.20   0
   1  -7 -22   75.88    8.97   0
   2  -8  -5  155.53    8.79   0
   2  -6 -19   64.72    8.82   0
   2  -7 -18  182.78   10.14   0
   0  -3 -27   59.89    7.55   0
   1  -3 -23  106.82    7.85   0
   2  -5 -20  349.41   10.74   0
   1  -4 -25  123.72    8.91   0
   2  -8  -2  187.22    8.72   0
   3  -6  -9  333.11   10.34   0
   1  -2 -21  280.26    9.48   0
   1  -1 -16 1549.05   19.17   0
   2  -8 -17   73.52    8.61   0
   3  -5 -10  526.26   11.61   0
   2  -6 -22  169.81    9.59   0
   3  -7 -11  135.26    7.95   0
   3  -7  -8  352.86    9.93   0
   3  -5  -7  330.99    9.10   0
   2  -7 -21   89.42    8.58   0
   2  -4 -21  289.33    9.95   0
   3  -5 -13  549.32   11.76   0
   2  -9 -10   90.25    7.96   0
   3  -7 -14  288.26   10.54   0
   3  -7  -5  344.22    9.61   0
   3  -6 -15  148.85    8.14   0
   2  -9  -7   92.45    7.71   0
   2  -5 -23   39.89    8.19   0
   3  -6  -3  385.94    9.84   0
   1  -5 -27   38.47    7.97   0
   2  -3 -19  254.04    8.66   0
   2  -2 -11 1775.84   19.46   0
   2  -2  -8 2929.45   25.28   0
   3  -8 -10  175.73    9.68   0
   3  -8  -7  105.11    8.67   0
   3  -5 -16  587.65   12.56   0
   3  -7 -17  130.86    9.47   0
   3  -6 -18  253.16   10.03   0
   3  -4 -11  340.78    9.71   0
   3  -7  -2  536.37   11.96   0
   3  -4  -8 1864.20   18.86   0
   1  -3 -26  185.22    9.19   0
   1  -1 -19  216.36    9.00   0
   2  -6 -25   63.41    8.58   0
   3  -8  -4  351.59   10.78   0
   3  -4 -14  608.72   11.60   0
   1  -4 -28   80.72    7.68   0
   1  -2 -24  257.16    9.86   0
   3  -5 -19   73.26    8.11   0
   3  -4  -5 1052.02   15.04   0
   2  -4 -24  226.18    9.65   0
   3  -7 -20  110.41    8.91   0
   3  -6   0  962.76   15.13   0
   3  -5  -1  726.74   13.15   0
   3  -6 -21  120.32    9.29   0
   2  -5 -26   99.24    8.71   0
   2  -3 -22  256.17    8.97   0
   2  -2 -17  242.58    8.86   0
   3  -9 -12  152.21    8.75   0
   3  -9  -9   68.40    8.20   0
   3  -8 -19   39.60    7.91   0
   3  -4 -17  424.86   10.33   0
   3  -9  -6   95.92    8.01   0
   3  -5 -22  167.43    9.45   0
   4  -7 -13  117.94    9.09   0
   4  -7 -10  339.84   10.74   0
   3  -7 -23   36.85    7.98   0
   4  -6 -11  300.49    9.47   0
   3  -4 -20  363.13   10.67   0
   3  -3 -12 1540.15   17.70   0
   4  -7  -7  305.71    9.42   0
   4  -6 -14  372.70   11.03   0
   4  -6  -8  640.39   12.15   0
   3  -6 -24  105.99    8.56   0
   3  -3  -9  496.84   10.72   0
   4  -8  -9  157.94    8.13   0
   4  -7 -16  228.92   10.33   0
   2  -2 -20  658.61   12.97   0
   4  -8 -15   50.75    8.26   0
   2  -4 -27   26.88    6.94   0
   4  -8  -6  206.18    9.34   0
   4  -6 -17  135.88    9.09   0
   2  -3 -25  127.39    8.30   0
   4  -7  -4  458.42   11.41   0
   4  -5 -12  580.36   11.69   0
   4  -5  -9  661.76   12.61   0
   3  -3  -6 1936.07   19.70   0
   4  -8 -18   90.09    8.34   0
   2  -5 -29   64.23    7.75   0
   3  -5   2  621.87   12.88   0
   4  -9 -14   66.03    8.41   0
   4  -9 -11   51.90    8.16   0
   4  -5 -15  141.88    7.88   0
   3  -5 -25  117.77    8.53   0
   3  -3 -18  456.65   11.15   0
   4  -9  -8  263.65    9.92   0
   3  -4 -23   63.16    7.09   0
   4  -6 -20  204.51    9.92   0
   4  -5  -6 1008.20   14.32   0
   4  -8  -3  146.50    8.42   0
   4  -5 -18  385.28   10.88   0
   4  -9  -5   93.75    7.70   0
   4  -7 -22   96.91    8.07   0
   4  -6  -2  767.89   13.03   0
   2  -2 -23  198.74    8.88   0
   4  -7  -1  186.59    8.68   0
   3  -4   1  806.12   14.30   0
   3  -3  -3 2001.30   20.84   0
   3  -3 -21  195.33    8.05   0
   4  -4 -10 1181.70   15.28   0
   4  -4 -16  390.00   10.70   0
   2  -1 -15  510.92   11.30   0
   5  -8 -14  114.92    9.14   0
   3  -5 -28   59.97    8.03   0
   3  -4 -26  142.60    8.64   0
   4  -4  -7  292.61    8.81   0
   5  -7 -15  135.70    9.54   0
   5  -8  -8  330.25   10.43   0
   1   0 -17  788.23   15.45   0
   4  -4 -19  106.98    7.96   0
   5  -9 -13  104.67    8.76   0
   5  -8 -17   88.87    8.09   0
   5  -6 -13  184.54    9.02   0
   5  -9 -10   82.68    8.00   0
   5  -7 -18  117.60    8.66   0
   5  -6 -10  413.52   10.41   0
   2  -1 -18  778.23   14.11   0
   3  -2 -10 1354.77   16.67   0
   5  -7  -6  319.83    9.59   0
   5  -6 -16  300.66    9.82   0
   3  -3 -24  255.36    9.61   0
   3  -2 -16 1046.65   15.27   0
   4  -6 -26   79.49    7.78   0
   4  -6   1  520.37   11.78   0
   4  -5 -24   89.26    8.16   0
   5  -8 -20   97.87    8.44   0
   5  -8  -5  166.38    9.01   0
   5  -9  -7   59.91    7.70   0
   5  -6  -7  342.28    9.69   0
   4  -4  -4 1408.67   16.65   0
   5  -7 -21   44.65    7.76   0
   5  -6 -19   89.21    8.53   0
   4  -5   0 1289.39   16.82   0
   4  -4 -22  296.55   10.19   0
   3  -2  -7 1595.19   18.25   0
   5  -5 -14  518.40   12.08   0
   3  -2 -19  260.68    9.25   0
   5  -7  -3  369.82   10.57   0
   5  -5 -11  192.44    8.23   0
   5  -6  -4  686.84   12.89   0
   5  -5 -17  214.14    9.34   0
   4  -3 -11  325.90    9.16   0
   5  -5  -8  591.72   11.93   0
   4  -5 -27   39.62    8.23   0
   4  -3 -17  422.72   10.83   0
   5  -8  -2  205.88    8.98   0
   4  -3  -8 1960.16   19.23   0
   4  -4 -25  102.03    8.32   0
   6  -8 -16  127.90    9.35   0
   6  -8 -13  120.01    8.53   0
   3  -2 -22  250.51    9.24   0
   5  -5  -5  626.25   12.23   0
   6  -9 -12  117.05    8.38   0
   6  -7 -14  123.62    9.23   0
   4  -3 -20  358.86   10.53   0
   6  -7 -11  117.53    7.83   0
   3  -4   4 2487.91   25.74   0
   3  -2  -4 3314.21   26.42   0
   5  -6 -25   36.91    7.42   0
   6  -9  -9  138.14    8.54   0
   6  -8 -19   16.42    7.62   0
   6  -7 -17  125.52    9.21   0
  -1  -7  -9   88.02    9.72   0
   0  -8  -4  192.59   10.50   0
   2  -7   0  536.10   12.91   0
   2  -5  -2  630.67   12.21   0
   2  -8   7   82.01    9.21   0
   2  -8  10  171.07    9.85   0
   0  -7  -8  434.87   12.00   0
   0  -4 -11  630.26   13.10   0
   2  -8   4  365.91   11.66   0
   1  -9   4  115.39    9.25   0
   1  -8  -3  158.73    9.14   0
   2  -8  13  150.82    9.16   0
   2  -3   2 3033.51   26.98   0
   1  -6  -8  554.15   12.60   0
   2  -8   1  167.79    9.13   0
   2  -6  -4  780.22   13.94   0
   1  -9   1   81.99    8.97   0
   1  -7  -7  112.93    8.10   0
   2  -7  -3  132.85    8.27   0
   0  -8  -7   78.34    9.61   0
   1  -5  -9  335.80    9.60   0
   2  -4  -3  785.70   13.66   0
   3  -6   9  367.85   10.81   0
   2  -8  16  123.26    8.80   0
   2  -5  -5  674.98   12.89   0
   3  -7  10  382.29   11.29   0
   2  -9   5  123.82    9.15   0
   2  -8  -2  178.11    9.13   0
   3  -7   4  458.46   11.17   0
   3  -6   3  400.43   10.34   0
   3  -6  12  524.87   12.26   0
   3  -5   8 1665.43   19.36   0
   1  -9  -2  124.30    9.06   0
   1  -8  -6  124.11    8.94   0
   2  -9  11   20.39    8.07   0
   0  -6 -12  398.31   11.58   0
   2  -9   2  153.22    9.57   0
   3  -5  11  244.76    9.35   0
   0  -7 -11   70.59    8.66   0
   3  -8   5  139.83    9.39   0
   3  -8   8  334.51   11.36   0
   3  -7  13  127.69    8.61   0
   0  -5 -13  178.88    9.20   0
   2  -7  -6  415.77   11.40   0
   2  -3  -1  670.61   12.88   0
   3  -6   0 1001.41   15.04   0
   3  -8  11   94.81    8.31   0
   3  -5   2  625.73   11.94   0
   2  -9  -1   63.43    8.99   0
   1  -7 -10  208.86   10.04   0
   1  -4 -10  788.42   13.51   0
   2  -8  -5  159.95    9.78   0
   0  -3 -12  929.51   16.09   0
   1  -9  -5   70.29    8.31   0
   1  -6 -11  176.03    9.05   0
   0  -8 -10  107.52    9.19   0
   3  -8  14  127.42    8.97   0
   3  -7  -2  574.26   11.95   0
   3  -5  14  332.13   10.39   0
   1  -8  -9   93.93    9.42   0
   2  -4  -6  724.10   13.04   0
   3  -9   9  134.08    9.03   0
   3  -9   3   52.88    8.54   0
   3  -6  -3  403.42   10.80   0
   3  -5  -1  724.38   12.59   0
   3  -4   7  640.65   12.49   0
   2  -9  -4  156.21    9.29   0
   3  -9  12  123.70    8.85   0
   3  -4  10  851.20   15.15   0
   3  -9   0  248.11   10.76   0
   2  -7  -9  304.24    9.90   0
   2  -8  -8  281.12    9.80   0
   3  -8  -4  364.00   11.50   0
   3  -7  -5  334.33   10.80   0
   2  -3  -4 3239.89   26.36   0
   3  -4   1  821.28   13.25   0
   2  -6 -10  533.80   11.41   0
   4  -7   8  353.62   10.53   0
   3  -9  -3  119.42    9.63   0
   3  -5  -4 2037.03   19.52   0
   4  -8   6  200.98    8.72   0
   4  -8   9  161.36    9.28   0
   2  -9  -7   92.43    8.81   0
   3  -6  -6  628.82   11.89   0
   4  -8   3  155.42    9.28   0
   4  -7   2  555.40   12.18   0
   1  -7 -13  206.87    9.66   0
   4  -7  11  125.67    8.45   0
   4  -6   7  230.28    9.01   0
   4  -8  12  262.57   10.72   0
   1  -8 -12  202.88    9.98   0
   4  -9   4  295.95   10.52   0
   4  -9   7   51.60    7.88   0
   4  -6  10  552.86   12.31   0
   4  -9  10   92.29    8.25   0
   4  -7  -1  190.22    9.26   0
   3  -4  -2 1225.86   15.73   0
   4  -9   1  124.63    9.14   0
   4  -6   1  531.61   11.15   0
   2  -5 -11  245.10    8.95   0
   1  -4 -13  554.63   12.07   0
   2  -8 -11   72.69    8.79   0
   2  -7 -12  237.08   10.04   0
   1  -3 -11  417.59   10.90   0
   4  -9  13   78.05    7.57   0
   4  -8  -3  161.71    9.42   0
   4  -6  13  309.46   10.44   0
   4  -9  -2   94.92    9.09   0
   2  -9 -10  100.99    8.81   0
   3  -5  -7  321.95    9.06   0
   4  -7  -4  480.14   11.75   0
   4  -6  -2  774.09   12.75   0
   4  -5   6  877.33   14.17   0
   4 -10   2   83.96    7.88   0
   2  -6 -13  302.94   10.16   0
   4  -5   9  318.99   10.02   0
   2  -3  -7 1430.06   17.55   0
   3  -8 -10  178.21    8.52   0
   3  -3   6 2481.67   24.73   0
   4 -10  -1   49.89    8.68   0
   3  -9  -9   69.91    8.65   0
   3  -4  -5 1021.20   14.32   0
   4  -9  -5  100.55    8.66   0
   4  -8  -6  210.57    9.72   0
   4  -5   0 1313.24   16.26   0
   3  -7 -11  136.24    8.60   0
   3  -3   9 1168.40   18.64   0
   4  -6  -5  281.63    9.63   0
   4  -5  12  772.50   14.62   0
   5  -8   7   97.96    8.72   0
   4  -7  -7  321.51   10.11   0
   5  -9   5   83.59    8.00   0
   5  -9   8  256.79   10.30   0
   5  -9   2   88.59    8.95   0
   5  -8   1  185.84    8.61   0
   5  -8  10  183.26    9.24   0
   5  -7   6  405.74   11.19   0
   2  -8 -14  107.62    8.40   0
   3  -3   0 2436.80   22.55   0
   4  -5  -3  322.38    9.68   0
   5  -9  11   51.14    8.08   0
   5  -7   9  326.48   10.33   0
   2  -7 -15   58.37    7.62   0
   5  -9  -1  141.57    8.43   0
   5  -7   0  538.76   12.05   0
   2  -4 -12 1625.94   18.68   0
   3  -6 -12  507.58   11.70   0
   2  -5 -14  316.64    9.98   0
   5 -10   0  141.67    8.77   0
   3  -9 -12  145.19    9.29   0
   3  -8 -13  122.45    8.82   0
   5  -9  -4  279.94   10.88   0
   5  -7  12  231.18    9.66   0
   5  -6   5  416.47   10.83   0
   3  -4  -8 1870.31   18.77   0
   4  -4   5  379.98   10.33   0
   5  -7  -3  375.40   10.84   0
   5  -8  -5  163.83    9.23   0
   5  -6   8  547.76   12.07   0
   3  -7 -14  291.66   10.16   0
   3  -3  -3 2047.65   20.48   0
   4  -5  -6 1027.17   14.43   0
   4  -4   2 1444.53   16.96   0
   4  -4   8 1349.32   17.88   0
   5  -6  -1  286.80    8.96   0
   4  -9 -11   48.28    7.99   0
   4  -4  -1 1285.49   15.76   0
   5  -9  -7   64.35    8.31   0
   5  -7  -6  311.61   10.18   0
   5  -6  11  178.61    8.47   0
   1  -3 -14 1153.01   17.24   0
   4  -8 -12  240.56    9.68   0
   6  -9   3  116.52    8.22   0
   6  -9   6  100.72    8.42   0
   3  -5 -13  514.74   11.42   0
   4  -4  11  572.24   13.12   0
   5  -6  -4  695.80   12.11   0
   6  -9   0  235.11   10.18   0
   6  -8   5  147.77    8.88   0
   6  -9   9   63.79    8.05   0
   3  -6 -15  139.91    8.23   0
   6  -8   8  266.22    9.86   0
   3  -8 -16  126.56    9.24   0
   4  -7 -13  103.89    8.28   0
   4  -5  -9  652.29   12.05   0
   4  -4  -4 1430.21   16.56   0
   5  -5   4  886.30   14.05   0
   6  -8  -1  169.93    9.48   0
   3  -3  -6 1903.21   19.27   0
   6 -10  -2   93.42    8.21   0
   6  -9  -3   64.12    8.38   0
   5  -7  -9  121.22    8.38   0
   5  -5   7  555.67   11.95   0
   6  -7   4  527.32   12.15   0
   2  -5 -17  329.96   10.51   0
   2  -4 -15  165.53    7.88   0
   4  -9 -14   67.45    7.61   0
   5  -6  -7  347.20    9.63   0
   6  -7   7  108.08    8.24   0
   5  -5  -2 1023.96   14.63   0
   3  -7 -17  128.50    8.14   0
   6  -9  -6  131.63    8.62   0
   6  -7  -2  208.56    9.24   0
   4  -8 -15   48.80    7.92   0
   5  -5  10  566.54   12.59   0
   6  -7  10  191.17    8.76   0
   4  -4  -7  277.72    8.45   0
   4  -6 -14  349.22   10.42   0
   6  -8  -7   76.69    7.45   0
   2  -3 -13  466.52   10.99   0
   5  -9 -13   95.35    8.65   0
   5  -5  -5  614.35   11.45   0
   6  -7  -5  175.67    8.33   0
   4  -5 -12  541.60   11.60   0
   6  -6   3  209.43    8.87   0
   3  -3  -9  485.13   10.78   0
   4  -7 -16  206.68    9.40   0
   5  -6 -10  409.73   10.11   0
   6  -9  -9  125.07    8.39   0
   6  -6   0  758.09   13.43   0
   6  -6   6  341.72   10.39   0
   3  -5 -16  544.99   11.90   0
   7  -9   4  158.35    9.25   0
   4  -3   4 2585.46   23.76   0
   5  -8 -14  116.50    8.88   0
   7  -9   7   89.39    8.14   0
   3  -6 -18  228.75    9.64   0
   4  -3   1  801.16   13.12   0
   7  -9  -2  146.35    8.91   0
   3  -4 -14  596.72   11.99   0
   6  -8 -10  151.23    8.92   0
   6  -7  -8  510.94   11.80   0
   6  -6  -3  316.12    9.39   0
   6  -6   9  296.76   10.31   0
   7  -8   3  163.34    8.87   0
   5  -5  -8  602.08   11.74   0
   7  -8   6  131.81    8.76   0
   4  -4 -10 1167.06   15.28   0
   4  -3   7  635.39   13.14   0
   3  -2  -1  646.64   12.43   0
   4  -3  -2 1224.42   15.48   0
   5  -4   3  794.52   12.98   0
   7  -9  -5  109.17    8.85   0
   5  -4   0 1282.31   15.68   0
   7  -8  -3   76.73    7.41   0
   5  -4   6  849.44   14.33   0
   6  -6  -6  298.24    9.26   0
   7  -8   9   93.84    8.11   0
   5  -7 -15  128.08    8.35   0
   5  -6 -13  174.90    8.74   0
   5  -4  -3  334.85    9.71   0
   7  -7   2  132.87    8.98   0
   4  -6 -17  131.88    8.15   0
   4  -5 -15  152.14    8.10   0
   6  -7 -11  117.33    8.49   0
   7  -9  -8  124.06    8.82   0
   7  -8  -6  133.10    9.31   0
   7  -7   5  177.79    9.14   0
   3  -2  -4 3319.11   26.32   0
   4  -3  -5 1029.82   14.25   0
   6  -8 -13  149.80    8.92   0
   7  -7  -1  164.00    8.20   0
   5  -5 -11  194.63    8.60   0
   6  -5   2  643.34   11.92   0
   3  -3 -12 1371.53   16.58   0
   5  -8 -17   77.53    7.90   0
   5  -4   9  341.62   10.40   0
   6  -6  -9  231.80    9.23   0
   6  -5  -1  294.32    8.99   0
   6  -5   5  411.12   10.75   0
   7  -7  -4  461.06   12.05   0
   4  -3  10  773.12   15.63   0
   7  -7   8  400.08   11.18   0
   5  -4  -6 1020.13   14.10   0
   6  -5  -4  721.45   12.82   0
   7  -8  -9  151.26    8.40   0
   4  -4 -13  616.60   11.62   0
   6  -5   8  555.49   12.76   0
   7  -9 -11   40.88    7.43   0
   8  -9   2  112.48    8.25   0
   2  -3 -16  995.90   15.74   0
   7  -7  -7   91.96    8.52   0
   8  -9   5   53.39    8.25   0
   4  -3  -8 1932.35   18.86   0
   3  -4 -17  413.64   10.77   0
   5  -6 -16  282.34   10.26   0
   6  -7 -14  102.88    7.57   0
   7  -6   1  272.25   10.04   0
   8  -9  -4  101.80    8.31   0
   3  -2  -7 1606.30   18.10   0
   5  -7 -18  114.90    9.21   0
   6  -5  -7  323.73   10.04   0
   7  -6   4  533.30   12.32   0
   5  -4  -9  641.06   11.98   0
   6  -8 -16  124.71    8.85   0
   6  -6 -12  471.51   10.84   0
   7  -6  -2  220.66    8.59   0
   8  -8   1   70.85    8.15   0
   5  -5 -14  501.92   11.28   0
   7  -8 -12  147.52    8.80   0
   8  -8   4  193.10    9.15   0
   1  -2 -15  482.84   12.54   0
   7  -7 -10  104.49    9.06   0
   7  -6  -5  171.06    9.16   0
   7  -6   7  105.59    8.20   0
   4  -5 -18  367.71   10.54   0
   8  -8  -5  103.41    8.53   0
   8  -8   7   81.31    8.38   0
   6  -5 -10  398.51   10.55   0
   4  -4 -16  407.58   10.51   0
   5  -3  -1  755.16   12.88   0
   5  -3   2  659.42   12.55   0
   7  -6  -8  496.22   11.12   0
   5  -4 -12  582.69   11.86   0
   6  -7 -17  104.81    8.42   0
   8  -8  -8  112.14    8.50   0
   8  -7   0  294.57   10.05   0
   8  -7   3  143.30    8.93   0
   6  -4  -2  781.66   12.77   0
   7  -8 -15   27.68    7.84   0
   7  -7 -13  150.58    8.91   0
   8  -7  -3   70.56    8.49   0
   5  -3  -4 2068.15   19.76   0
   5  -3   5  686.25   13.03   0
   6  -4   4  776.07   13.17   0
   2  -2 -14  987.23   15.57   0
   5  -6 -19   93.38    7.99   0
   8  -7   6  118.78    8.72   0
   4  -2   0 4120.99   28.77   0
   6  -4  -5  299.52    8.90   0
   8  -7  -6  150.22    9.04   0
   4  -2   3  794.67   13.96   0
   5  -5 -17  206.95    8.22   0
   7  -6 -11  113.35    8.66   0
   7  -5  -3  370.96   10.81   0
   7  -5   3  136.00    8.22   0
   4  -2  -3  766.88   12.77   0
   6  -5 -13  174.31    8.09   0
   8  -8 -11   50.09    8.14   0
   5  -3  -7  347.22    9.85   0
   6  -4   7  232.19    8.95   0
   6  -4  -8  636.42   11.74   0
   7  -5  -6  353.95    9.79   0
   7  -5   6  419.42   10.89   0
   8  -7  -9  154.05    9.34   0
   4  -3 -14  597.14   11.86   0
   4  -2  -6  737.71   12.63   0
   5  -3   8 1686.06   20.89   0
   5  -4 -15  148.21    7.85   0
   7  -7 -16  199.22    9.33   0
   8  -6  -1  173.62    9.12   0
   9  -8  -1   63.86    7.80   0
   4  -2   6  741.81   14.43   0
   6  -6 -18  100.23    8.25   0
   8  -6   2  196.65    9.41   0
   9  -8   2  116.46    8.19   0
   6  -7 -20  131.83    7.98   0
   7  -5  -9  131.67    8.62   0
   8  -6  -4  344.45   10.04   0
   3  -2 -13  456.99   10.66   0
   5  -3 -10  524.91   11.26   0
   4  -4 -19   82.13    7.25   0
   6  -4 -11  299.80    9.88   0
   8  -7 -12  145.21    8.76   0
   8  -6   5  139.76    8.70   0
   9  -8   5   39.90    6.79   0
   3  -3 -18  424.21   10.73   0
   6  -5 -16  294.60   10.47   0
   8  -6  -7   75.03    7.67   0
   4  -2  -9 1003.64   14.42   0
   3  -1  -2 3061.13   25.82   0
   5  -5 -20  145.30    8.25   0
   7  -5 -12  336.48   10.61   0
   9  -7  -2  136.95    8.67   0
   8  -6 -10  128.44    8.77   0
   9  -7   1   43.67    8.07   0
   3  -1  -5 1988.24   20.27   0
   7  -7 -19   20.60    6.79   0
   9  -7  -5  101.67    8.71   0
   4  -3 -17  426.17   10.59   0
   6  -3  -3  388.12    9.76   0
   7  -6 -17  119.75    8.29   0
   7  -4  -4  470.93   11.25   0
   7  -4   2  546.21   12.10   0
   9  -7   4  161.61    8.93   0
   2  -2 -17  228.84    8.79   0
   5  -4 -18  337.93   10.32   0
   6  -3  -6  648.33   12.32   0
   6  -3   3  399.31   10.61   0
   9  -7  -8  102.92    8.48   0
   6  -6 -21   79.75    7.49   0
   7  -4  -7  303.05   10.10   0
   8  -5   1  181.69    9.06   0
   5  -2  -2  633.44   12.08   0
   8  -6 -13  145.04    8.71   0
   8  -5  -5  160.09    9.26   0
   6  -5 -19   93.50    8.20   0
   7  -4   5  332.78   10.27   0
   3  -2 -16  987.77   14.95   0
   3  -1  -8 1898.91   19.40   0
   5  -2  -5  665.61   11.78   0
   8  -5   4  355.68   10.75   0
   6  -3  -9  348.65    9.57   0
   8  -5  -8  332.24   10.61   0
   9  -7 -11   32.43    7.47   0
   6  -3   6  657.19   13.10   0
   7  -4 -10  328.90    9.75   0
   9  -6  -3   50.66    8.34   0
   9  -6   0  222.22    9.48   0
   5  -3 -16  552.82   11.64   0
   5  -2  -8 1643.37   17.38   0
   5  -2   4 2152.95   21.79   0
   9  -6  -6  122.11    8.58   0
   6  -4 -17  140.12    7.43   0
   7  -6 -20  131.80    9.30   0
   9  -6   3  113.10    9.33   0
   8  -5 -11   89.76    8.74   0
   6  -3 -12  492.70   10.75   0
   4  -2 -15  164.16    7.66   0
   7  -4 -13  116.12    8.56   0
   9  -6  -9  132.74    8.40   0
   5  -4 -21  154.06    8.55   0
   7  -5 -18  100.54    8.48   0
   4  -3 -20  345.97   10.04   0
   4  -1  -4 2617.51   22.46   0
   4  -1  -1  841.29   13.76   0
   5  -2 -11  253.78    8.37   0
   6  -5 -22   99.53    8.60   0
   8  -5 -14  110.45    8.34   0
   4  -1  -7  655.59   12.05   0
   9  -6 -12  100.15    7.84   0
   4  -1   2 1217.98   16.69   0
   7  -3  -5  331.88    9.65   0
   8  -4  -6  198.95    9.08   0
   8  -4   0  446.42   11.70   0
   7  -3   1  198.61    8.22   0
   2  -1 -15  492.41   11.46   0
   5  -3 -19   73.53    7.21   0
   6  -4 -20  181.75    9.24   0
   3  -2 -19  247.75    9.16   0
   6  -2  -4  781.81   13.34   0
   8  -4  -9  170.39    8.98   0
   8  -4   3  170.72    8.76   0
   9  -5  -1  128.46    8.87   0
   9  -5  -7   63.99    7.88   0
   4  -1 -10  786.77   12.65   0
   6  -2  -7  234.36    8.42   0
   4  -5   0 1333.52   16.34   0
   5  -9   5   89.80    9.66   0
   4  -6  -2  770.84   13.12   0
   5  -7   3  137.63    8.67   0
   5  -6   5  407.46   10.93   0
   3  -6  -6  623.45   12.14   0
   3  -3   0 2497.76   23.14   0
   5  -5  13  189.04    8.94   0
   5  -5  10  593.76   12.12   0
   4  -4   2 1508.26   17.86   0
   5  -8   1  188.03   10.42   0
   5  -9   2   89.15    9.45   0
   4  -3  13  524.24   13.08   0
   5  -5   7  559.10   11.56   0
   4  -3  10  857.70   15.28   0
   5  -6   2  659.20   12.26   0
   3  -8  -7  102.77    8.98   0
   5 -10   3   57.39    8.83   0
   5  -7   0  502.91   11.45   0
   6  -8  11   78.14    8.92   0
   6  -8  14  112.25    8.91   0
   6  -9  12  150.18    8.87   0
   3  -9  -6  110.14    8.92   0
   3  -7  -8  341.84   10.86   0
   2  -6 -10  520.54   12.27   0
   3  -4  -5 1048.82   15.27   0
   4  -5  -3  321.98    9.41   0
   4  -3   7  655.16   12.99   0
   5  -5   4  869.81   14.01   0
   6  -8  17   55.43    7.61   0
   6  -7  10  208.54    9.19   0
   6  -7  13  193.74    9.10   0
   4  -6  -5  300.84    9.88   0
   5  -9  -1  131.08    9.30   0
   6  -9   6  108.97    8.94   0
   5  -8  -2  195.87    9.29   0
   6  -7  16  184.58    9.45   0
   4  -9  -5  109.74    8.83   0
   4  -8  -6  207.34    9.73   0
   5  -6  -1  278.51    9.67   0
   4  -4  -1 1330.41   16.26   0
   3  -6  -9  367.17   10.50   0
   5  -7  -3  389.79   10.46   0
   6  -7   4  536.41   12.61   0
   6  -6  12  407.93   11.56   0
   2  -4  -9  934.66   14.94   0
   4  -7  -7  314.31   10.61   0
   5  -4  12  802.18   15.04   0
   6  -8   2  188.93    9.04   0
   6  -6   9  278.90   10.10   0
   3  -3  -3 1965.96   20.24   0
   5  -5   1  293.56    8.99   0
   5  -4   9  346.56   10.25   0
   6  -6   6  328.38   10.56   0
   5 -10  -3   55.95    7.99   0
   5  -4   6  858.87   13.74   0
   6 -10   1   39.58    8.74   0
   6  -7   1  269.12   10.36   0
   2  -5 -11  224.86    8.98   0
   3  -8 -10  159.26    8.97   0
   4  -5  -6 1008.44   14.35   0
   6  -8  -1  171.93    8.78   0
   7  -9  10   83.97    8.69   0
   5  -6  -4  701.31   12.58   0
   6  -6   3  209.37    8.59   0
   4  -9  -8  263.13   10.66   0
   7  -8   9   88.86    8.50   0
   7  -8  12  182.62    9.33   0
   3  -7 -11  118.57    8.25   0
   4  -8  -9  140.22    8.21   0
   5  -7  -6  326.64   10.00   0
   5  -5  -2 1030.30   14.85   0
   4  -4  -4 1408.10   16.60   0
   4  -3   1  802.32   13.30   0
   3  -5 -10  498.23   11.50   0
   6  -9  -3   58.33    8.20   0
   6  -7  -2  226.85    9.93   0
   6  -5  11  179.50    8.78   0
   7  -9   4  162.77    9.28   0
   6  -5   8  556.72   12.32   0
   5  -9  -7   73.69    8.83   0
   6  -6   0  766.44   13.47   0
   7  -7  11   74.46    8.38   0
   4  -7 -10  347.54   10.12   0
   7  -7   8  414.90   11.95   0
   6  -5   5  403.95   10.85   0
   7  -9   1   43.32    8.00   0
   7  -7   5  193.28    9.88   0
   3  -6 -12  488.23   11.92   0
   3  -3  -6 1922.84   20.13   0
   5  -6  -7  330.30   10.25   0
   5  -4   0 1282.46   15.87   0
   3  -2  -1  639.83   12.61   0
   5  -5  -5  642.23   12.21   0
   5  -7  -9  116.99    8.76   0
   6  -7  -5  181.27    8.59   0
   6  -6  -3  314.52   10.45   0
   7  -7   2  138.26    8.20   0
   1  -3 -11  401.60   11.30   0
   4  -3  -2 1224.44   15.81   0
   7  -9  -2  127.64    9.37   0
   4  -6 -11  288.83    9.93   0
   7  -6  10  200.33    9.56   0
   4  -8 -12  241.52   10.08   0
   7  -6   7  102.49    8.52   0
   2  -4 -12 1626.28   19.67   0
   4  -4  -7  265.60    8.66   0
   5  -9 -10   77.10    8.70   0
   4  -2   9  961.05   17.32   0
   5  -3   8 1686.84   20.17   0
   6  -5  -1  288.36    9.65   0
   7  -7  -1  193.56    8.77   0
   7  -6   4  539.78   11.75   0
   5  -4  -3  332.84    9.21   0
   8  -8  10   89.50    8.68   0
   4  -2   6  744.80   14.32   0
   5  -8 -11   81.22    8.69   0
   5  -3   5  700.69   13.20   0
   8  -8   7   76.85    8.95   0
   7  -9  -5  109.77    8.78   0
   4  -7 -13  113.54    8.39   0
   6  -9  -9  146.64    8.95   0
   6  -7  -8  485.56   12.02   0
   6  -4   7  245.57    9.23   0
   6  -4  10  569.79   12.92   0
   7  -6   1  275.37   10.21   0
   8  -8   4  179.88    9.75   0
   3  -5 -13  529.07   11.90   0
   5  -5  -8  607.10   11.67   0
   7  -7  -4  509.81   12.55   0
   3  -2  -4 3313.25   26.61   0
   4  -3  -5 1047.91   14.51   0
   4  -2   3  781.90   14.01   0
   6  -8 -10  137.56    9.58   0
   7  -8  -6  135.59    8.92   0
   8  -8   1   73.37    8.93   0
   5  -7 -12  348.27   10.16   0
   6  -5  -4  705.56   12.47   0
   8  -7   6  126.69    9.09   0
   8  -7   9   91.16    8.76   0
   7  -6  -2  228.45    9.66   0
   4  -5 -12  544.65   11.86   0
   7  -5   9  310.75   10.34   0
   5  -4  -6 1032.10   14.30   0
   7  -5   6  418.48   10.91   0
   8  -7   3  160.85    9.43   0
   8  -8  -2  155.79    9.47   0
   4  -6 -14  338.78   10.39   0
   7  -5   3  121.63    8.47   0
   8  -9  -4   91.64    8.91   0
   5  -3  -1  723.65   12.93   0
   6  -6  -9  213.95    9.20   0
   6  -7 -11  112.07    8.68   0
   7  -7  -7   96.36    7.93   0
   8  -7   0  283.70   10.55   0
   4  -2   0 4043.21   28.72   0
   5  -8 -14  116.80    8.26   0
   6  -9 -12  108.57    8.35   0
   7  -8  -9  160.33    9.46   0
   7  -6  -5  167.79    9.06   0
   6  -5  -7  346.54    9.65   0
   6  -4  -2  759.51   12.78   0
   5  -6 -13  169.33    8.19   0
   8  -8  -5  101.77    8.78   0
   8  -6   8  260.53   10.24   0
   8  -6   5  146.39    9.10   0
   4  -3  -8 1947.15   19.56   0
   6  -8 -13  125.54    9.25   0
   8  -9  -7   66.98    7.92   0
   8  -7  -3   74.44    7.52   0
   7  -9 -11   26.84    7.43   0
   8  -6   2  177.76    9.73   0
   9  -8   5   67.33    8.30   0
   5  -4  -9  650.37   12.31   0
   3  -2  -7 1602.90   18.48   0
   5  -7 -15  123.37    8.71   0
   5  -3  -4 2003.00   19.29   0
   7  -5  -3  389.04   10.75   0
   9  -8   2  125.14    8.65   0
   3  -4 -14  579.79   12.12   0
   7  -7 -10  101.41    9.04   0
   2  -3 -13  463.22   11.30   0
   4  -2  -3  786.25   12.93   0
   6  -4  -5  293.12    9.51   0
   7  -6  -8  515.87   12.02   0
   3  -5 -16  537.26   12.22   0
   8  -8  -8  141.18    9.17   0
   4  -5 -15  136.40    8.04   0
   7  -8 -12  149.33    9.35   0
   8  -7  -6  157.08    8.74   0
   3  -3 -12 1375.32   17.13   0
   4  -4 -13  626.15   12.25   0
   6  -7 -14  114.41    8.77   0
   6  -5 -10  390.15   10.32   0
   6  -3   6  670.20   13.28   0
   7  -4   5  327.35   10.27   0
   9  -7   7   90.39    7.81   0
   6  -3   3  405.55   10.09   0
   7  -4   8  360.65   10.72   0
   7  -5  -6  334.36    9.96   0
   8  -6  -4  348.58   11.11   0
   5  -5 -14  491.92   11.59   0
   9  -8  -4   97.29    8.44   0
   9  -7   1   48.02    7.83   0
   5  -3  -7  336.24    9.23   0
   5  -2   4 2148.82   22.03   0
   5  -2   7  347.97   10.58   0
   5  -6 -16  285.46   10.38   0
   6  -3   0  999.65   14.40   0
   8  -5   7  117.27    8.51   0
   4  -3 -11  331.99    9.82   0
   6  -8 -16  121.09    8.89   0
   6  -4  -8  644.81   11.91   0
   7  -6 -11  111.05    8.87   0
   8  -7  -9  143.75    9.22   0
   3  -1  -2 2959.16   25.72   0
   4  -2  -6  739.04   12.37   0
   5  -4 -12  540.07   11.13   0
   8  -8 -11   38.81    7.94   0
   5  -2   1  748.00   12.86   0
   8  -6  -7   84.62    8.97   0
   6  -6 -15  117.61    8.28   0
   6  -3  -3  406.59   10.53   0
   3  -2 -10 1339.01   16.74   0
   7  -8 -15   37.01    7.72   0
   7  -5  -9  133.59    7.78   0
   7  -4  -4  489.96   11.28   0
   5  -2  -2  627.06   12.18   0
   9  -6   3  115.66    8.91   0
   9  -6   6   93.17    8.39   0
   6  -7 -17  114.57    8.33   0
   5  -3 -10  494.95   11.04   0
   9  -6   0  233.50    9.83   0
   6  -4 -11  315.97    9.84   0
   3  -4 -17  414.65   10.91   0
   4  -4 -16  389.14   10.50   0
   8  -5  -5  150.93    9.20   0
   4  -5 -18  345.89   10.34   0
   6  -3  -6  672.37   11.98   0
   8  -6 -10  154.35    8.62   0
   3  -3 -15  481.91   11.10   0
   3  -1  -5 1976.30   20.32   0
   4  -2  -9 1007.55   14.31   0
   4  -1   5 1074.85   17.32   0
   5  -5 -17  215.35    9.17   0
   7  -7 -16  169.19    9.01   0
   7  -4  -7  295.41    9.91   0
   9  -7  -8  119.65    8.74   0
   4  -1   2 1226.58   16.86   0
   5  -4 -15  133.88    7.90   0
   5  -2  -5  672.60   11.89   0
   7  -5 -12  336.33   10.00   0
   4  -3 -14  579.74   11.41   0
   2  -3 -16  992.98   16.05   0
   5  -6 -19   93.09    8.05   0
   6  -5 -16  287.35   10.46   0
   7  -3   4  469.53   11.64   0
   8  -5  -8  329.26    9.86   0
   8  -4   3  160.05    8.65   0
   9  -6  -6  125.28    8.76   0
   6  -6 -18  104.15    8.14   0
   7  -3   1  192.09    8.04   0
   8  -4   0  437.48   11.57   0
   6  -3  -9  374.13   10.19   0
   7  -4 -10  351.29   10.76   0
   8  -7 -15   23.94    7.94   0
   8  -6 -13  137.93    8.75   0
   9  -7 -11   25.57    7.51   0
   3  -2 -13  450.98   10.66   0
   5  -3 -13  555.63   11.17   0
   6  -4 -14  365.08   10.69   0
   7  -3  -2  588.37   11.66   0
   9  -5   2   99.20    7.99   0
   5  -2  -8 1654.54   17.92   0
   6  -2   2  776.69   13.83   0
   6  -2   5  291.00    9.82   0
   8  -4  -3  162.18    9.19   0
   2  -2 -14  966.48   15.31   0
   4  -1  -4 2611.36   22.58   0
   7  -6 -17  110.51    8.77   0
   9  -5  -1  141.73    8.93   0
   3  -1  -8 1992.12   19.89   0
   6  -2  -1  551.90   11.85   0
   9  -6  -9  125.92    8.41   0
   4  -2 -12 1710.01   18.16   0
   7  -5 -15  132.82    7.96   0
   7  -3  -5  327.36   10.38   0
   8  -5 -11  103.72    7.71   0
   9  -5  -4  277.03   10.14   0
   7  -7 -19   30.10    7.38   0
   8  -4  -6  208.64    8.71   0
   4  -4 -19   97.19    7.47   0
   5  -4 -18  358.39   10.65   0
   6  -3 -12  497.58   10.94   0
   5  -5 -20  148.55    8.68   0
   7  -4 -13  109.84    7.86   0
   4  -3 -17  432.32   10.81   0
   9  -5  -7   60.20    8.04   0
   4  -1  -7  647.12   11.70   0
   5  -2 -11  240.69    9.05   0
   6  -5 -19   87.26    8.34   0
   7  -3  -8  339.31    9.86   0
   9  -6 -12  124.87    8.10   0
   3  -3 -18  434.52   10.99   0
   5  -1   3  344.55   10.16   0
   8  -4  -9  172.32    9.14   0
   5  -1   0 1325.29   16.69   0
   6  -2  -7  234.03    9.19   0
   8  -5 -14  131.16    9.16   0
   6  -6 -21   79.68    7.97   0
   3  -1 -11  417.64    9.91   0
   7  -6 -20  132.55    8.94   0
   7  -5 -18  128.92    8.94   0
   9  -5 -10   82.44    8.55   0
   5  -1   6  981.22   16.62   0
   8  -3   2  229.24    9.61   0
   3  -2 -16 1004.24   14.57   0
   7  -3 -11  130.16    8.66   0
   8  -3  -1  190.46    9.30   0
   9  -4   1  133.84    8.73   0
   6  -3 -15  145.17    7.96   0
   7  -4 -16  219.09    9.54   0
   8  -4 -12  252.60   10.35   0
   9  -4  -2   90.53    8.40   0
   4  -1 -10  821.70   12.91   0
   6  -2 -10  542.78   11.60   0
   8  -3  -4  374.69   11.09   0
   5  -1  -6  825.23   12.92   0
   7  -2   0  550.39   12.22   0
   5  -2 -14  334.74    9.41   0
   7  -2   3  402.47   10.98   0
   8  -6 -19   29.67    7.05   0
   9  -4  -5  100.93    9.10   0
  10  -5   0  133.38    8.06   0
   3   0  -3  514.48   11.19   0
   7  -2  -3  123.97    7.52   0
   8  -5 -17   73.10    8.20   0
  10  -5  -3   51.46    7.83   0
   2  -2 -17  239.85    8.79   0
   9  -5 -13  111.00    8.63   0
   5  -4 -21  156.96    8.60   0
   6  -4 -20  191.02    9.15   0
   2   0  -7  323.76    9.26   0
   4  -3 -20  353.95   10.40   0
   5  -3 -19   63.64    7.72   0
   5  -1  -9  336.80    9.90   0
   6  -5 -22  105.66    8.42   0
   7  -3 -14  290.86    9.34   0
   8  -4 -15   60.37    8.12   0
   3   0  -6 2503.67   22.10   0
   6  -2 -13  325.09    9.53   0
   7  -5 -21   63.33    8.00   0
   4  -1 -13  590.69   11.73   0
   6  -1  -2  682.31   13.00   0
   6  -1   1  310.63    9.94   0
   8  -3 -10  166.08    9.68   0
   7  -4 -19   94.04    8.75   0
   4  -2 -18  302.18    9.82   0
   4   0   1 1400.88   18.22   0
   9  -4 -11   59.04    7.91   0
   6  -1   4  724.14   14.08   0
   2  -1 -15  511.47   11.36   0
   3  -2 -19  256.33    9.17   0
   4   0  -5  368.88    9.59   0
   5  -1 -12  790.83   12.75   0
   8  -5 -20   89.04    7.70   0
   3   0  -9 1257.42   16.02   0
   7  -3 -17  129.98    8.77   0
   4   0   4 1468.76   19.86   0
   6  -1  -8  567.32   11.38   0
   8  -3 -13  147.05    8.86   0
   9  -3  -3  133.96    9.18   0
   9  -3   0  239.01    9.93   0
   2   0 -10 3227.32   25.36   0
   6  -2 -16  287.10    9.99   0
   7  -2 -12  248.37    9.07   0
   8  -4 -18   80.25    8.08   0
   8  -2  -2  190.43    9.37   0
   9  -4 -14   60.41    7.87   0
   4   0  -8 1359.67   16.13   0
   8  -2   1  180.13    9.21   0
   9  -3  -6  112.57    8.92   0
   6  -4 -23   70.42    7.43   0
   8  -2  -5  148.77    8.11   0
   6  -1 -11  177.19    8.67   0
   3  -1 -17  513.63   11.31   0
   6  -3 -21  115.49    8.63   0
   5  -1 -15  252.70    8.84   0
   5   0  -1  293.42    9.57   0
   7  -4 -22   94.59    8.40   0
   3   0 -12  968.95   13.85   0
   4  -3 -23   53.76    7.08   0
   7  -2 -15   64.84    8.02   0
   8  -3 -16  137.14    8.53   0
   4   0 -11  631.73   12.19   0
   5  -2 -20  312.36   10.40   0
   7  -1  -4  544.19   12.24   0
   7  -1  -1  298.64    9.54   0
   4  -2 -21  286.15    9.73   0
   5   0  -7  577.37   11.30   0
   5   0   2 1076.64   16.26   0
   7  -1   2  222.93    9.28   0
   6  -1 -14  331.41   10.28   0
   8  -2 -11   72.96    7.64   0
   9  -3 -12  148.01    8.34   0
  -2   4  -6  694.86   13.76   0
   0   4 -13  615.79   11.98   0
   1   3 -14  586.03   11.87   0
   3   4 -16  223.68    9.28   0
  -1   8  -9  148.77    8.78   0
   0   3 -12 1472.96   17.36   0
   1   4 -15  133.88    8.80   0
  -1   7 -11  125.00    8.48   0
   4   1 -15  251.43    9.76   0
   0   5 -14  491.72   11.96   0
   1   2 -13  510.86   11.21   0
   5   3 -16  126.59    8.87   0
  -1   5 -12  535.94   11.87   0
   0   7 -13  163.94    9.01   0
   0   8 -11   39.93    7.83   0
   2   2 -15  194.63    9.11   0
   2   3 -16  575.20   12.20   0
   2   4 -17  141.44    8.21   0
   2   6 -16  131.03    8.79   0
   3   5 -17   89.95    8.72   0
   0   2 -11 1854.86   20.02   0
   4   0 -14  582.18   12.61   0
  -1   6 -13  168.17    8.85   0
  -1   3 -10 1287.66   16.55   0
   1   7 -15   22.30    7.86   0
   3   3 -18  237.92    9.31   0
   6   1 -16  171.27    9.38   0
   2   5 -18  113.08    9.27   0
  -2   5 -10  498.13   11.40   0
  -1   8 -12  150.34    9.34   0
   1   6 -17  107.52    8.73   0
   5   1 -17  152.61    9.10   0
  -2   6 -11  286.54    9.56   0
   5   2 -18  181.37    9.47   0
   6   2 -17   71.48    7.66   0
   3   4 -19   82.30    8.92   0
  -1   7 -14  109.91    8.17   0
   0   4 -16  390.00   10.73   0
   1   3 -17  413.69   10.41   0
   1   4 -18  376.23   11.23   0
   5   0 -16  382.15   11.43   0
  -2   4  -9  923.68   14.45   0
   0   7 -16  168.62    9.52   0
   4   2 -19   66.84    8.20   0
   5   3 -19   40.08    7.90   0
  -2   7 -12  325.26   10.30   0
   1   2 -16 1115.51   15.69   0
   2   3 -19   80.57    7.49   0
   4   1 -18  241.41    9.38   0
   1   5 -19   90.78    7.43   0
   2   2 -18  318.84    9.84   0
   3  -1 -11  446.77   11.73   0
   2   4 -20  206.77    8.80   0
   3   5 -20   92.09    8.65   0
  -1   6 -16  281.14   10.27   0
  -1   2  -9 1144.97   16.49   0
  -1   3 -13  457.61   10.84   0
  -1   8 -15   16.05    6.71   0
   0   1 -10 1523.69   18.46   0
   0   2 -14 1034.49   14.56   0
   3   3 -21  113.89    8.88   0
   4   0 -17  214.68    9.81   0
  -2   5 -13  502.29   11.40   0
   1   6 -20  136.40    8.66   0
   2   1 -17  528.27   12.11   0
   2   5 -21   53.56    8.24   0
   5  -1 -15  249.81   10.20   0
   6   1 -19   33.68    6.82   0
  -1   7 -17  106.66    8.44   0
   3   1 -19  145.69    9.04   0
   1   1 -15  583.05   12.04   0
   3   4 -22   92.58    7.84   0
   5   1 -20  161.63    8.83   0
   5   2 -21  103.01    8.11   0
   0   4 -19   89.18    8.21   0
   0   7 -19   17.74    7.04   0
  -2   4 -12 1632.23   18.41   0
   0   5 -20  162.21    8.98   0
   1   3 -20  335.14   10.03   0
   1   4 -21  159.12    8.42   0
   0   3 -18  446.20   11.14   0
   1   0 -11  470.80   11.36   0
   4   2 -22  152.90    8.92   0
   5   0 -19  153.10    8.91   0
  -1   4 -17  422.85   10.31   0
   1   5 -22  106.86    8.54   0
   2   3 -22  160.14    8.60   0
  -1   6 -19   92.34    8.27   0
   1   2 -19  275.26    9.91   0
   2   2 -21  307.51   10.78   0
   2   4 -23   58.64    8.53   0
   4   1 -21  126.76    9.12   0
   4   3 -23   36.90    7.25   0
   4  -1 -16  790.08   14.71   0
  -2   5 -16  546.84   11.77   0
  -1   2 -12 1700.16   18.34   0
   3  -1 -14 1258.72   17.70   0
  -2   6 -17  125.90    8.23   0
  -1   3 -16 1014.78   14.28   0
   0   2 -17  260.98    8.72   0
  -1   7 -20  151.08    8.63   0
   0   1 -13 1116.43   15.11   0
   4   0 -20  361.06   11.14   0
  -3   5 -11  229.11    8.50   0
  -2   3 -11  395.14    9.67   0
  -2   7 -18  117.51    8.31   0
   0   4 -22  294.32   10.57   0
   3   1 -22  239.94   10.28   0
   5  -1 -18  252.20    9.71   0
   0   5 -23   63.22    7.72   0
   1   3 -23   57.70    8.20   0
   1   4 -24   88.10    8.56   0
   5   1 -23   47.23    7.32   0
   0   3 -21  192.26    9.03   0
  -1   4 -20  338.70   10.15   0
   1   0 -14 1285.37   16.24   0
   1   5 -25   48.58    7.76   0
   2  -1 -12 1699.35   19.98   0
   2   3 -25  116.93    8.91   0
   4  -2 -12 1623.05   21.63   0
   4   2 -25   73.38    8.45   0
  -1   6 -22  109.06    7.98   0
   1   2 -22  272.24    9.84   0
  -3   6 -15  141.29    7.79   0
   2   2 -24  233.58   10.14   0
   2   4 -26   71.29    8.07   0
   4   1 -24  142.99    9.24   0
   5   0 -22  138.88    8.81   0
  -1   2 -15  540.92   11.30   0
  -2   5 -19   77.71    7.42   0
  -2   6 -20  175.03    8.70   0
  -1   3 -19  265.05    9.28   0
   3   0 -21  261.24   10.38   0
   0   1 -16 1659.33   18.13   0
   0   2 -20  680.68   13.00   0
   2   0 -19  220.72    9.32   0
  -3   5 -14  329.68    9.66   0
   3  -1 -17  541.72   12.26   0
   4  -1 -19  139.65    8.33   0
  -3   4 -10  788.51   13.67   0
   3   2 -26   89.14    8.41   0
  -2   7 -21   70.39    7.14   0
   0   4 -25  108.98    8.72   0
   4   0 -23  115.40    8.88   0
   1   1 -21  295.76    9.57   0
   0   3 -24  246.96   10.28   0
   1   4 -27   31.21    7.56   0
   3   1 -25  125.36    8.68   0
  -1   4 -23   59.46    6.92   0
   1   0 -17  871.23   14.00   0
  -3   6 -18  215.33    8.88   0
   2  -1 -15  520.09   11.23   0
  -1   6 -25   34.93    7.75   0
   4  -2 -15  171.77    8.61   0
  -3   4 -13  548.44   11.58   0
  -3   7 -19   82.53    7.49   0
  -1   1 -11  452.94   10.31   0
  -1   2 -18  776.27   12.62   0
   1   2 -25  136.45    8.17   0
   2   3 -28   73.13    7.74   0
  -3   5 -17  337.07    9.96   0
  -2   5 -22  162.86    8.03   0
  -2   6 -23   64.98    7.47   0
  -1   3 -22  251.62    9.45   0
   0   1 -19  216.33    8.21   0
   0   2 -23  230.14    9.67   0
   4   1 -27   34.01    8.58   0
   3  -1 -20  413.71   11.45   0
   4  -1 -22  226.94    9.73   0
   1   1 -24  280.42   10.38   0
   3   2 -29   67.67    8.33   0
  -1   1 -14 1261.99   15.54   0
   0   4 -28   50.39    7.41   0
   1   0 -20  684.02   13.03   0
   3  -2 -13  475.11   11.64   0
   4   0 -26  113.49    8.78   0
  -3   4 -16  729.68   12.50   0
  -3   6 -21  118.43    8.13   0
  -2   2 -13 1139.69   15.26   0
  -1   4 -26  144.67    8.90   0
   0   3 -27   66.30    8.36   0
   2  -1 -18  799.41   13.90   0
  -1   2 -21  287.71   10.00   0
   1   3 -29   76.68    7.81   0
   3   1 -28  100.21    8.85   0
  -3   5 -20  316.55   10.16   0
  -3   7 -22   75.99    7.02   0
  -2   3 -20  408.98   10.76   0
  -2   5 -25  107.32    8.49   0
   4  -2 -18  327.64   10.55   0
  -2   6 -26   76.26    8.02   0
  -1   3 -25  120.86    7.93   0
   0   1 -22  380.81   10.07   0
   1   2 -28  125.41    8.83   0
  -1   1 -17  869.04   13.57   0
  -2   2 -16  590.46   11.59   0
   2   0 -25  159.48    8.64   0
   3  -1 -23  112.23    8.46   0
  -3   3 -12  971.60   14.55   0
  -3   4 -19  134.33    8.21   0
   3  -2 -16 1065.14   16.25   0
   3   0 -27   63.05    8.69   0
  -3   6 -24   93.14    8.69   0
   1   1 -27   84.95    8.76   0
   2  -1 -21  290.89   10.12   0
   4  -1 -25  134.91    9.18   0
  -1   2 -24  292.94   10.06   0
   2   1 -29   69.11    8.36   0
  -3   5 -23   30.30    6.58   0
  -2   3 -23   84.93    8.20   0
  -1   4 -29   66.32    7.86   0
  -3   3 -15  262.47    8.82   0
   0   3 -30   80.07    8.60   0
  -4   6 -19   63.13    7.05   0
  -2   2 -19  194.96    8.67   0
  -1   1 -20  672.55   12.61   0
   0   1 -25  220.99    9.65   0
   4   0 -29   48.42    7.29   0
  -2   5 -28   65.02    7.73   0
  -1   3 -28  128.65    8.98   0
  -3   4 -22  215.09    8.49   0
   0   2 -29   57.85    8.45   0
   1   2 -31   35.60    7.27   0
   3  -2 -19  280.12    9.90   0
  -4   5 -18  241.17    9.66   0
  -3   3 -18  672.59   12.09   0
   0   0 -21  640.75   12.09   0
   2  -2 -11 1705.52   20.74   0
   2   0 -28   92.31    9.15   0
   2  -2 -14 1031.50   15.59   0
   2  -1 -24  271.63    9.47   0
   3   0 -30  113.45    9.59   0
  -4   6 -22  151.07    8.45   0
  -3   5 -26   96.79    8.05   0
  -2   2 -22  585.84   12.19   0
  -2   3 -26  212.87    8.83   0
  -1   2 -27   64.28    7.76   0
  -1   1 -23   98.02    7.33   0
  -4   4 -14  535.66   12.05   0
   2   1 -32   44.29    7.94   0
   0   1 -28  162.41    8.89   0
  -4   5 -21  133.89    8.22   0
  -3   4 -25  128.43    7.87   0
  -2   1 -12 1672.26   18.06   0
  -1   0 -13 1122.19   14.95   0
  -1   0 -10 1489.37   17.69   0
   2  -2 -17  256.27    9.09   0
   3  -2 -22  271.59   10.06   0
  -2   1 -15  557.62   11.44   0
  -1   3 -31   25.44    8.08   0
   0   0 -24  392.35   11.32   0
  -4   4 -17  201.53    8.62   0
  -2   1  -9 1134.13   15.74   0
  -1   0 -16 1663.24   18.04   0
   0   2 -32   77.93    8.58   0
  -2   2 -25  170.63    9.20   0
  -4   6 -25   71.71    7.58   0
  -2   1 -18  817.67   13.52   0
   0  -1 -14 1302.82   16.46   0
   2  -1 -27   86.72    8.54   0
   2   0 -31   40.58    8.44   0
   3  -1 -29   76.44    9.68   0
  -3   2 -11  412.15   10.34   0
  -3   5 -29   62.93    7.96   0
  -2   3 -29   80.85    8.61   0
  -1   2 -30  115.65    9.10   0
   0  -1 -11  434.67   10.18   0
   2  -2 -20  708.00   13.46   0
  -4   4 -20  338.79   10.38   0
  -4   5 -24  148.87    8.94   0
  -1   0 -19  218.14    8.28   0
   0  -1 -17  885.81   13.42   0
  -3   4 -28   83.78    8.17   0
   1  -1 -25  235.31    9.87   0
  -2   1 -21  296.86    9.62   0
   0   0 -27   29.36    8.47   0
   0   1 -31   26.57    7.95   0
   3  -2 -25  147.75    9.00   0
  -1   0 -22  373.91   10.85   0
   0  -1 -20  665.43   12.60   0
  -4   4 -23  102.30    8.43   0
  -2   2 -28   78.99    8.96   0
   2  -2 -23  201.75    9.43   0
  -4   3 -16  736.46   13.25   0
  -4   3 -13  565.33   11.84   0
  -4   5 -27   36.54    7.01   0
  -2   1 -24  278.12    9.94   0
  -2   3 -32   32.51    7.72   0
   1  -2 -15  522.94   11.42   0
   1   0 -32   56.18    9.38   0
   2  -1 -30  128.17    9.80   0
  -1   2 -33   33.17    8.00   0
  -3   2 -23  109.73    7.47   0
   0  -1 -23   99.21    7.44   0
   1  -2 -18  780.73   13.64   0
   1  -1 -28  155.11    9.74   0
   3  -1 -32   43.75    7.55   0
  -4   3 -19  130.01    7.35   0
  -1   0 -25  220.05    9.32   0
   0   0 -30  120.38    9.40   0
   3  -3 -15  473.84   12.05   0
  -4   3 -10  808.10   14.01   0
  -4   4 -26  110.53    8.90   0
   3  -2 -28  132.98    8.79   0
  -2   2 -31   40.30    8.12   0
   1  -2 -21  292.42    9.85   0
   3  -3 -12 1378.70   20.20   0
  -4   3 -22  223.64    9.64   0
  -2   1 -27   72.83    8.31   0
  -3   2 -26  216.09   10.08   0
  -1   1 -32   50.49    8.80   0
  -5   5 -22  133.07    8.03   0
   3  -3 -21  199.66    9.04   0
  -2   0 -17  256.20    8.62   0
  -2   0 -14 1015.26   14.49   0
  -1   0 -28  167.14   10.12   0
  -3   1 -16 1047.85   14.91   0
   1  -2 -24  273.75   10.32   0
  -4   3 -25  121.58    8.79   0
  -3   1 -19  276.53    9.68   0
  -1  -1 -15  573.99   11.72   0
   1  -1 -31   29.48    8.11   0
  -4   4 -29   38.00    7.93   0
  -3   1 -13  451.97   10.67   0
  -5   4 -15  241.36    9.58   0
  -2   0 -11 1782.74   18.93   0
   2  -2 -29   59.02    8.45   0
  -3   1 -22  283.14   10.12   0
  -3   2 -29   87.40    8.63   0
  -2   0 -23  224.60    9.47   0
  -2   1 -30   99.46    9.30   0
  -1  -1 -21  297.16    9.42   0
  -1  -1 -12 1723.84   18.29   0
  -5   4 -21  139.97    8.54   0
   2  -3 -16 1067.25   16.14   0
  -4   2 -18  316.97    9.37   0
  -4   2 -15  177.56    8.19   0
  -1   0 -31   31.88    8.36   0
   1  -2 -27   76.65    8.67   0
   2  -3 -19  282.16    9.75   0
  -4   2 -21  319.51   10.36   0
  -4   3 -28   90.81    8.65   0
  -1  -1 -24  270.56    9.77   0
  -3   1 -25  144.34    8.21   0
  -2   0 -26  161.17    9.68   0
  -5   4 -24  157.35    8.98   0
   2  -3 -22  283.25   10.19   0
   2  -3 -13  458.15   11.35   0
  -4   2 -12 1703.69   19.02   0
  -4   2 -24  252.03   10.52   0
  -3   2 -32   51.29    8.52   0
  -2   0  -8 2845.97   24.66   0
  -1  -1 -27   81.27    8.87   0
  -1  -1  -9 1144.46   15.75   0
   0  -1 -32   72.87    9.60   0
   2  -2 -32   58.15    8.19   0
  -3   1 -28  139.55    9.82   0
  -5   4 -27   39.38    8.29   0
  -2   0 -29   71.61    9.20   0
   0  -2 -25  160.89    9.50   0
   1  -2 -30  113.37    9.95   0
   2  -3 -25  135.54    8.95   0
  -5   3 -20  353.53   10.69   0
  -5   3 -17  356.80   10.56   0
  -5   3 -23   41.32    7.52   0
  -5   3 -14  336.08   10.14   0
  -4   2  -9  994.23   15.37   0
  -1  -1 -30  121.62    8.90   0
   0  -2 -28   71.94    9.50   0
   0  -2 -10 3106.02   25.40   0
   1  -3 -20  393.95   11.21   0
   1  -3 -17  514.02   11.73   0
  -3   1 -31   32.70    8.46   0
  -3   1  -7 1428.87   18.31   0
  -2  -1 -19  285.05    9.36   0
   2  -3 -28  145.95    9.13   0
  -3   0 -15  500.33   11.29   0
  -2  -1 -22  262.98    9.51   0
  -2  -1 -16 1113.24   14.94   0
   1  -3 -23  117.64    8.13   0
  -5   3 -26  100.31    8.29   0
  -3   0 -24  250.77   10.37   0
  -2   0 -32   87.43    9.26   0
  -2  -3 -14  337.13   10.62   0
  -1  -5  10  425.36   11.44   0
  -1  -4  -9  329.72   10.41   0
  -3  -6   0  256.67   10.96   0
  -3  -6   6  127.18    8.99   0
  -1  -5  -5  394.18   11.20   0
  -2  -6   1  187.15   10.22   0
  -2  -6   4  370.24   11.81   0
   0  -3  -6 2481.50   22.81   0
  -4  -6  -1   68.81    8.73   0
  -3  -6  -3  145.95   10.13   0
  -3  -4 -14  305.66   11.36   0
  -2  -5  -9  332.97   10.91   0
  -3  -6   9  137.06    9.11   0
  -2  -6  -2  191.64   10.08   0
  -2  -6   7   91.08    8.77   0
   0  -4  10 1098.91   16.89   0
  -4  -5 -11   62.43    9.10   0
   0  -4  -5  376.42    9.81   0
  -4  -4 -15   65.41    9.27   0
   0  -5   5  644.57   12.72   0
  -2  -6  -5  151.32    9.91   0
  -2  -6  10  147.59    9.16   0
  -1  -6  -1  288.05   10.73   0
  -1  -6   5  185.99    9.57   0
  -1  -5  -8  563.76   11.97   0
  -1  -3 -13  553.66   12.20   0
   0  -5   8  600.24   12.68   0
  -1  -6   8  524.54   12.39   0
   0  -5  -4  891.35   14.19   0
  -3  -5 -13  147.19   10.22   0
  -2  -5 -12  258.75   10.59   0
  -1  -6  -4  554.64   12.17   0
  -1  -4 -12  783.59   13.53   0
   0  -4  -8 1377.42   17.19   0
  -2  -6  -8  295.50   10.26   0
  -4  -5 -14   56.18    8.67   0
  -1  -2 -14 1168.49   17.52   0
  -1  -6  -7  109.23    8.10   0
  -1  -6  11  106.46    8.25   0
   0  -6   0  776.88   13.97   0
   0  -6   3  317.72    9.67   0
   0  -5  -7  583.37   12.09   0
  -2  -7  -1   72.31    8.99   0
  -2  -7   2  146.06    8.95   0
  -2  -3 -17  328.20   10.77   0
   0  -5  11  188.72    8.84   0
  -2  -7   5  121.79    9.47   0
  -2  -4 -16  289.43   10.62   0
   0  -6   6  298.76   10.21   0
   0  -6  -3  221.44    8.87   0
   1  -4   2 1187.10   16.41   0
  -1  -7   3   65.41    8.78   0
   1  -4  -1  835.09   13.91   0
   1  -3   1  626.48   13.15   0
  -2  -7   8   79.23    8.20   0
  -1  -7   0  294.74   10.19   0
   1  -4   5 1023.13   15.73   0
  -2  -5 -15   58.68    8.46   0
  -1  -7   6  158.89    9.40   0
  -1  -7  -3  152.19    8.72   0
  -1  -6 -10  214.33    9.40   0
   0  -6  -6  347.18   10.35   0
   0  -6   9  221.31    9.36   0
   1  -5   0 1318.17   16.71   0
   1  -3  -2 3056.76   26.44   0
  -2  -7  -7   98.49    9.66   0
  -1  -4 -15  254.06    9.73   0
   0  -5 -10  589.61   12.47   0
   1  -4  -4 2599.18   22.62   0
  -1  -7  -6  133.13    9.72   0
  -1  -5 -14  344.35   11.32   0
  -1  -3 -16  766.80   14.27   0
   0  -3 -12  972.23   15.22   0
   1  -5  -3  765.41   12.96   0
  -1  -7   9  160.45    8.86   0
   1  -5   6 1012.39   15.08   0
   0  -7   4  511.62   12.69   0
   1  -4   8 1863.91   21.71   0
  -2  -6 -14  128.50    9.35   0
   0  -7  -2  152.77    8.67   0
   0  -6  -9  308.70   10.41   0
  -2  -7 -10   96.08    9.43   0
   1  -3  -5 1965.86   20.82   0
  -1  -6 -13  209.91   10.21   0
   1  -6  -2  670.67   13.13   0
   1  -6   4  720.12   13.53   0
   1  -5  -6  834.28   13.42   0
  -1  -7  -9   99.15    8.95   0
   0  -7  -5  184.11    9.03   0
   0  -7   7  102.99    8.65   0
   1  -4  -7  643.46   12.03   0
   0  -5 -13  184.25    8.89   0
   1  -6  -5  398.06   10.91   0
   1  -5   9  623.37   13.02   0
  -2  -5 -18  196.32   10.48   0
  -1  -8   1   75.47    8.20   0
   0  -4 -14  555.15   12.21   0
   1  -6   7  343.52   10.30   0
  -1  -8  -2  136.07    8.82   0
  -1  -8   4  112.47    8.52   0
   0  -7  -8  422.69   11.92   0
  -1  -8  -5   64.06    8.63   0
   1  -7  -1  287.36   10.50   0
   1  -7   2  218.19    9.67   0
   1  -5  -9  338.21    9.67   0
  -1  -5 -17  171.56    9.55   0
  -1  -4 -18  262.61    9.96   0
   1  -3  -8 1974.35   20.84   0
   0  -8   2  153.55    9.24   0
   0  -2 -13 1125.24   17.29   0
   1  -6  -8  565.58   11.83   0
   1  -7  -4  526.68   11.99   0
   1  -7   5  168.76    9.10   0
  -1  -6 -16  203.55   10.36   0
   0  -8   5  109.66    8.73   0
   1  -4  11  282.23   10.19   0
   0  -7 -11   68.68    8.00   0
   0  -3 -15  280.44    9.49   0
   1  -6  10  405.40   11.16   0
   1  -7  -7  111.12    8.97   0
   0  -8  -7   95.64    9.20   0
   0  -5 -16  377.01   10.91   0
   0  -8   8  116.65    8.19   0
   0  -6 -15   80.93    8.97   0
   1  -6 -11  181.11    8.46   0
  -1  -7 -15   60.35    8.69   0
   2  -6  -1  528.26   11.98   0
   2  -5  -2  630.21   11.80   0
   1  -8  -3  156.80    9.79   0
   1  -8   3   75.62    8.41   0
   0  -4 -17  202.70    8.86   0
   1  -7 -10  214.63    9.99   0
   2  -6  -4  780.25   13.45   0
   2  -5   4 2054.68   21.08   0
   0  -8 -10   97.00    8.38   0
   0  -7 -14   81.84    9.30   0
   1  -3 -11  421.59   10.58   0
   2  -5  -5  680.97   12.72   0
   1  -8  -6  147.62    9.02   0
   1  -8   6  153.54    9.23   0
   1  -4 -13  561.38   11.98   0
   2  -6   5  297.03    9.53   0
   2  -4   0 4025.29   28.55   0
   2  -7  -3  125.55    8.73   0
   2  -4  -3  792.89   13.52   0
  -1  -6 -19   32.80    8.81   0
   2  -7   3  378.46   11.05   0
   2  -6  -7  231.49    9.30   0
   1  -8  -9   98.64    8.92   0
   1  -6 -14  327.21   10.11   0
   2  -7  -6  411.86   11.43   0
   2  -5  -8 1682.23   18.50   0
   2  -5   7  346.97   10.16   0
   1  -5 -15  242.57    8.83   0
   2  -7   6  323.02   10.41   0
   2  -4  -6  725.26   12.58   0
   0  -6 -18  152.29    9.60   0
   2  -8  -2  184.04    9.94   0
   2  -6   8  637.84   12.91   0
   0  -5 -19  138.02    8.57   0
   2  -8   1  179.26    8.43   0
   2  -6 -10  558.55   12.09   0
   0  -7 -17  101.97    8.74   0
   0  -3 -18  664.32   13.86   0
   1  -9  -5   71.68    8.32   0
   2  -8  -5  141.57    9.41   0
   2  -7  -9  324.88   10.06   0
   2  -4   6  725.04   13.91   0
   0  -2 -16  552.68   12.99   0
   1  -8 -12  182.38    9.76   0
   2  -8   4  365.05   11.18   0
   2  -5 -11  235.09    8.54   0
   2  -4  -9 1005.45   14.85   0
   1  -4 -16  758.24   13.69   0
   1  -3 -14 1189.90   16.67   0
   2  -8  -8  271.77    9.81   0
   2  -7   9  114.72    7.91   0
   1  -6 -17  172.30    9.53   0
   2  -3  -1  671.94   13.27   0
   1  -7 -16  187.91    9.58   0
   2  -8   7   83.71    7.76   0
   2  -7 -12  245.52    9.94   0
   2  -9  -1   61.94    8.01   0
   2  -5  10  486.64   12.20   0
   2  -3  -4 3274.53   26.34   0
   2  -9   2  142.14    8.93   0
   1  -8 -15   44.17    7.94   0
   1  -5 -18  248.26    9.82   0
   2  -8 -11   82.95    9.08   0
   3  -7  -2  535.41   11.42   0
   3  -6  -3  388.82   10.33   0
   3  -6   0  936.09   14.44   0
   2  -9  -7  100.50    8.57   0
   3  -7  -5  316.05   10.47   0
   0  -7 -20  110.78    8.67   0
   2  -9   5  115.29    8.75   0
   2  -5 -14  337.20    9.94   0
   2  -3  -7 1591.03   18.61   0
   3  -6  -6  654.91   12.09   0
   3  -6   3  417.35   10.15   0
   3  -8  -4  363.19   10.53   0
   1  -2 -12 1675.41   20.52   0
   2  -9 -10   88.97    8.88   0
   2  -7 -15   57.64    8.69   0
   2  -4   9  917.71   16.49   0
   3  -8   2  226.33    8.74   0
   3  -7  -8  370.47   10.18   0
   3  -5  -4 2075.75   20.21   0
   3  -5  -1  719.29   12.43   0
   3  -8  -7  116.29    8.91   0
   3  -6  -9  358.40   10.48   0
   1  -7 -19   39.54    8.15   0
   2  -6 -16  277.00    9.37   0
   1  -6 -20  142.84    8.98   0
   3  -9  -3  131.88    8.82   0
   3  -9   0  233.18   10.52   0
   3  -8   5  162.15    8.87   0
   3  -5  -7  350.84    9.41   0
   3  -7 -11  143.85    9.05   0
   3  -7   7  305.72    9.96   0
   1  -4 -19  127.08    7.85   0
   3  -9  -6  114.52    9.32   0
   1  -3 -17  506.54   11.87   0
   3  -9   3   56.48    7.57   0
   3  -6 -12  505.10   11.92   0
   3  -5   5  695.10   13.09   0
   3  -9  -9   73.76    8.61   0
   3  -5 -10  509.56   11.19   0
   2  -7 -18  190.28    9.86   0
   2  -5 -17  333.38    9.81   0
   2  -4 -15  175.69    8.17   0
   2  -8 -17   84.92    8.86   0
   3  -8 -13  133.99    9.37   0
   3  -8   8  298.24   10.33   0
   3  -4  -2 1244.88   16.19   0
   3  -9   6  108.80    8.02   0
   3  -4  -5 1052.20   14.89   0
   3  -4   1  841.43   13.99   0
   2  -6 -19   63.13    7.87   0
   3  -9 -12  144.50    9.06   0
   3  -6   9  349.76   10.28   0
   4  -8  -3  174.43    9.12   0
   4  -7  -4  479.65   11.66   0
   4  -8   0  421.98   11.60   0
   4  -7  -1  183.59    8.14   0
   3  -4  -8 1958.45   19.52   0
   4  -8  -6  199.47    8.84   0
   2  -3 -13  470.18   10.95   0
   3  -6 -15  134.61    7.75   0
   4  -7  -7  297.68    9.71   0
   4  -7   2  547.52   12.13   0
   1  -2 -15  513.27   12.09   0
   3  -5   8 1616.85   19.72   0
   4  -9  -5  108.98    8.62   0
   4  -8   3  157.42    8.76   0
   4  -6  -2  793.82   13.36   0
   3  -8 -16  144.38    8.99   0
   4  -9   1  123.02    8.56   0
   4  -8  -9  145.15    8.19   0
   4  -6  -5  296.52    9.11   0
   3  -4   4 2537.80   23.48   0
   4  -9  -8  268.77   10.33   0
   4  -7 -10  349.39   10.94   0
   3  -7 -17  131.37    9.02   0
   4  -7   5  311.82    9.91   0
   4  -6  -8  640.81   12.05   0
   2  -7 -21  101.14    8.35   0
   2  -5 -20  324.50   10.35   0
   2  -4 -18  321.29    9.87   0
   4  -9   4  297.15   10.30   0
   4  -8 -12  236.21   10.48   0
   4 -10  -1   57.89    7.46   0
   4  -9 -11   63.55    8.41   0
   4  -8   6  194.34    8.97   0
   4  -6   4  766.61   13.49   0
   3  -5 -16  588.14   12.23   0
   4  -7 -13  109.57    8.30   0
   4  -6 -11  298.29    9.80   0
   3  -6 -18  240.15    9.74   0
   4  -5  -6 1041.44   14.76   0
   3  -8 -19   24.18    7.32   0
   4  -5   0 1272.98   15.99   0
   4  -9 -14   56.41    7.89   0
   2  -3 -16 1012.48   15.48   0
   4  -7   8  338.61   10.29   0
   3  -7 -20  105.60    8.36   0
   3  -4 -14  582.58   11.39   0
   3  -4   7  629.26   13.19   0
   3  -3  -3 2056.48   20.60   0
   4  -5  -9  649.08   11.80   0
   5  -8  -5  156.11    8.97   0
   5  -9  -1  120.68    8.64   0
   4  -7 -16  223.47    9.91   0
   4  -6   7  233.48    8.95   0
   4  -5   3  777.19   13.01   0
   5  -9  -7   60.58    7.88   0
   5  -8  -8  335.25   11.07   0
   5  -8   1  190.76    9.15   0
   3  -3   0 2521.57   23.08   0
   5  -7  -3  375.35    9.99   0
   5 -10  -3   61.21    7.56   0
   5  -9   2   85.10    7.87   0
   2  -2 -11 1719.52   19.96   0
   5  -9 -10   80.30    8.05   0
   3  -5 -19   72.51    7.23   0
   3  -3  -9  478.04   10.42   0
   5 -10   0  155.72    8.94   0
   5  -8 -11   95.23    7.61   0
   5  -7  -9  131.14    7.93   0
   3  -6 -21  114.67    8.18   0
   4  -8 -18   87.22    8.47   0
   5  -8   4  347.57   10.67   0
   5  -7   3  128.35    8.13   0
   5 -10   3   56.34    8.10   0
   5  -9 -13   97.88    8.79   0
   5  -9   5   93.60    8.85   0
   5  -6  -4  700.70   12.95   0
   4  -6 -17  137.67    7.68   0
   4  -5   6  839.33   14.17   0
   4  -4  -4 1387.89   16.61   0
   5  -7 -12  335.46   10.52   0
   5  -6  -7  331.61   10.27   0
   3  -4 -17  420.66   10.32   0
   4  -7 -19   89.92    8.24   0
   5  -8 -14  111.57    8.58   0
   5  -6  -1  288.55    9.11   0
   4  -4  -7  272.04    8.42   0
   4  -4  -1 1275.49   15.85   0
   3  -3 -12 1380.56   16.61   0
   4  -5 -15  136.50    7.28   0
   5  -6 -10  411.57   10.43   0
   5  -6   2  656.72   12.49   0
   2  -3 -19  254.96    9.24   0
   5  -8   7  108.04    7.89   0
   4  -4 -10 1151.85   14.88   0
   5  -7   6  419.54   10.94   0
   2  -2 -14  974.45   15.50   0
   6  -9  -6  128.37    8.54   0
   5  -8 -17   74.96    8.19   0
   6  -8  -4  337.14   10.60   0
   6  -9  -9  121.48    8.63   0
   6  -9   0  242.43    9.79   0
   6  -8  -7   71.87    8.72   0
   3  -4  10  738.19   15.28   0
   4  -6 -20  181.36    8.98   0
   5  -6   5  391.61   10.51   0
   5  -5  -5  626.56   11.52   0
   6  -8 -10  139.23    9.43   0
   4  -5 -18  357.35   10.37   0
   4  -4 -13  613.37   11.47   0
   5  -5  -8  624.20   12.11   0
   5  -5  -2 1027.62   14.18   0
   3  -3 -15  469.77   10.48   0
   4  -7 -22   79.11    7.96   0
   6  -9 -12  117.17    8.18   0
   6  -9   3  127.15    8.33   0
   6  -8   2  173.71    8.94   0
   6  -7  -5  185.08    8.94   0
   3  -4 -20  336.81   10.13   0
   4  -5   9  319.65   10.24   0
   6  -7  -8  479.38   11.82   0
   6  -7  -2  208.40    9.38   0
   3  -3   6 2444.59   25.13   0
   5  -7 -18  111.63    8.13   0
   4  -4   5  375.74   10.14   0
   5  -6 -16  279.56    9.13   0
   5  -5 -11  192.52    8.63   0
   6  -8 -13  135.88    8.45   0
   6  -7 -11  118.18    8.67   0
   6  -7   1  281.63    9.80   0
   5  -8 -20   91.99    8.19   0
   6  -8   5  145.15    8.49   0
   4  -4 -16  377.07   10.28   0
   3  -2  -4 3320.65   26.38   0
   5  -6   8  530.63   11.80   0
   5  -5 -14  502.74   10.77   0
   5  -5   4  878.36   14.05   0
   6  -8 -16  137.34    8.72   0
   6  -6  -6  294.57    9.20   0
   6  -6  -3  318.13    9.88   0
   2  -2 -17  232.83    8.70   0
   3  -2  -7 1524.21   17.70   0
   4  -3  -5 1045.15   14.29   0
   6  -7   4  537.60   11.85   0
   6  -6  -9  215.25    9.27   0
   4  -3  -8 1968.89   19.27   0
   7  -9  -5  115.03    8.64   0
   3  -3 -18  451.15   10.89   0
   4  -5 -21  159.62    8.36   0
   4  -3  -2 1257.14   15.61   0
   5  -7 -21   59.45    7.17   0
   5  -6 -19   76.72    7.96   0
   7  -9  -8  112.36    8.05   0
   7  -9  -2  151.43    8.94   0
   3  -2  -1  663.24   12.90   0
   5  -4  -6 1018.82   14.36   0
   6  -6 -12  454.21   11.31   0
   7  -9 -11   28.43    7.38   0
   7  -8  -6  169.74    9.31   0
   7  -8  -3   72.11    8.27   0
  -5   4 -15  252.14    9.31   0
  -4   7 -23   31.73    8.10   0
   0   2 -17  234.67    9.29   0
  -6   4 -10  544.47   11.92   0
  -6   6 -18  137.78    9.52   0
  -4   5 -21  139.43    9.80   0
  -7   5  -9  319.34   10.35   0
  -5   5 -19  147.47    9.78   0
  -2   1  -9 1138.72   16.24   0
  -3   5 -23   25.18    7.21   0
  -8   6  -8  239.25   10.36   0
  -4   3 -16  755.23   13.49   0
  -3   2 -14 1222.65   16.15   0
  -7   6 -16  160.90    9.46   0
  -6   5 -17  158.28    8.55   0
  -4   4 -20  366.81   10.86   0
  -1   2 -18  813.62   14.46   0
  -1   4 -23   60.21    7.84   0
  -1   5 -24   81.66    7.95   0
  -7   5 -12  234.24    9.73   0
  -6   4 -13  313.93   10.45   0
   0   3 -21  194.15    8.97   0
  -6   7 -22   72.81    8.18   0
  -5   4 -18  256.20    9.81   0
  -5   6 -23   45.46    8.37   0
  -8   7 -15   56.31    7.49   0
  -6   6 -21   87.96    9.13   0
  -1   1 -14 1275.70   17.24   0
  -8   6 -11   68.69    8.19   0
  -7   7 -20  104.58    8.88   0
  -4   6 -25   72.29    8.35   0
  -1   3 -22  266.29   10.39   0
  -5   3 -14  339.52   10.59   0
  -4   2 -12 1684.28   18.71   0
  -2   6 -26   66.91    8.68   0
  -5   5 -22  125.45    8.79   0
  -4   5 -24  147.29    9.51   0
  -3   1  -7 1495.32   18.53   0
  -2   4 -24  204.61    9.99   0
   1   1 -15  501.99   12.25   0
  -7   5 -15   63.81    8.25   0
  -6   3  -6  626.77   12.86   0
  -6   5 -20  156.46    9.46   0
  -4   3 -19  138.77    8.48   0
  -3   2 -17  534.46   11.85   0
  -2   2 -19  210.94    8.82   0
   0   1 -16 1517.05   18.83   0
   0   2 -20  656.85   13.39   0
  -7   4  -8  334.12   10.87   0
  -8   6 -14  112.62    8.87   0
  -3   5 -26   84.48    8.99   0
  -3   6 -27   20.02    7.01   0
  -6   3  -9  346.72   10.49   0
  -3   1 -10 1361.04   17.17   0
  -2   3 -23  103.14    8.20   0
  -5   4 -21  127.92    8.90   0
  -5   3 -17  365.81   11.15   0
  -4   2 -15  172.45    8.08   0
  -3   4 -25  115.48    9.49   0
  -1   2 -21  284.33   10.33   0
  -7   4 -11  127.18    8.54   0
  -6   6 -24   90.64    8.60   0
  -5   2  -7  330.98    9.37   0
  -2   1 -15  577.28   11.93   0
  -8   5 -10  158.12    9.60   0
  -7   5 -18  173.72    9.15   0
  -6   3 -12  518.34   12.05   0
  -6   4 -19   61.83    8.68   0
  -5   5 -25   64.51    8.62   0
  -8   6 -17   75.14    8.50   0
  -7   6 -22   77.89    8.27   0
  -5   2 -10  529.09   11.19   0
  -3   1 -13  502.61   11.43   0
  -6   5 -23   49.06    8.46   0
  -4   3 -22  222.32   10.88   0
  -3   2 -20  428.64   11.28   0
  -2   5 -28   70.12    8.59   0
  -7   4 -14  293.72   10.59   0
  -2   4 -27   17.27    8.33   0
  -1   3 -25  127.71    8.85   0
  -8   5 -13  127.42    8.76   0
  -5   3 -20  352.70   11.74   0
  -4   2 -18  333.95   10.28   0
  -6   3 -15  149.81    9.01   0
  -5   4 -24  161.25   10.14   0
  -4   4 -26  113.39    9.42   0
  -1   0 -10 1431.98   18.13   0
   0   1 -19  220.75    8.92   0
  -3   5 -29   58.54    8.49   0
  -2   3 -26  200.07   10.28   0
  -4   1  -8 1857.44   19.93   0
  -4   1  -5  984.88   15.49   0
  -3   1 -16 1141.74   15.92   0
  -6   4 -22  167.42   10.33   0
  -3   4 -28   91.32    9.20   0
  -1   1 -20  647.28   13.16   0
  -1   2 -24  272.67   10.43   0
  -8   5 -16  151.23    8.83   0
  -5   2 -16  598.59   12.87   0
  -1   0 -13 1124.44   15.96   0
  -4   3 -25  144.79   10.67   0
  -4   2 -21  320.35   11.13   0
  -2   0  -8 2779.58   24.65   0
  -5   3 -23   35.14    8.86   0
  -3   3 -27   54.49    8.57   0
  -2   0 -11 1813.89   19.72   0
  -2   2 -25  160.44    9.87   0
   0   0 -15  149.46    7.06   0
  -4   1 -14  622.01   12.00   0
  -2   1 -21  293.14   10.35   0
  -8   5 -19   29.76    7.45   0
  -7   4 -20  107.96    9.19   0
  -5   4 -27   40.02    8.15   0
  -3   1 -19  279.51    9.82   0
   1   0 -14 1149.27   17.53   0
  -2   4 -30   59.95    8.89   0
  -1   3 -28  113.85    8.85   0
   0   1 -22  341.00   10.65   0
  -6   2  -8  633.08   12.84   0
  -6   4 -25   72.18    8.94   0
  -5   2 -19   65.17    7.65   0
  -1   0 -16 1554.08   17.91   0
  -7   3 -13  114.43    8.55   0
  -6   2 -11  297.75   10.01   0
  -6   3 -21  129.32    9.33   0
  -2   0 -14 1037.71   14.90   0
  -1   1 -23   91.17    8.34   0
  -4   1 -17  454.62   10.97   0
  -2   3 -29   67.40    9.15   0
  -8   4 -15   63.33    7.64   0
  -7   3 -16  229.35   10.03   0
  -6   2 -14  350.92   10.17   0
  -4   3 -28   78.11    9.46   0
  -1   2 -27   71.08    8.60   0
   0   0 -18  525.82   11.75   0
  -5   2 -22  187.83   10.55   0
  -3   0  -9  468.23   10.56   0
  -5   1  -9  654.75   12.83   0
  -3   0 -12 1511.29   17.58   0
   1   0 -17  777.78   14.33   0
  -6   2 -17  135.69    9.38   0
  -5   1 -12  588.98   12.35   0
  -4   1 -20  414.57   12.06   0
  -3   3 -30   96.35    9.28   0
  -2   2 -28   73.52    9.00   0
  -8   4 -18   83.48    8.67   0
  -6   3 -24  112.94    9.24   0
  -7   3 -19  103.58    8.73   0
  -5   1  -6  981.15   15.40   0
  -3   0 -15  515.58   11.99   0
  -4   2 -27   17.56    9.18   0
  -2   0 -20  694.53   13.58   0
  -1   1 -26  239.68   10.31   0
   0   0 -21  617.28   12.82   0
  -5   2 -25  134.96   10.09   0
  -5   3 -29   68.58    9.93   0
  -3   2 -29   75.82    9.58   0
  -5   1 -18  404.80   10.89   0
  -4   1 -23   61.55    9.33   0
  -1   0 -22  354.23   10.23   0
  -7   3 -22   96.25    9.09   0
  -2   3 -32   29.79    7.12   0
   1   0 -20  598.75   12.96   0
  -6   3 -27   29.13    8.58   0
  -2   1 -27   75.27    8.02   0
  -1   2 -30   98.97    9.01   0
  -4   0 -10 1121.87   15.36   0
  -7   2 -12  340.59   11.43   0
  -6   2 -23   71.65    8.92   0
  -5   1 -21  180.54   10.45   0
  -3   0 -21  196.65   10.34   0
  -2   0 -23  224.31   10.43   0
  -2   2 -31   39.05    9.49   0
  -4   0 -16  411.10   11.16   0
  -1  -1 -12 1717.28   18.77   0
   0  -1 -11  412.45   10.44   0
  -7   2 -15  143.04    8.87   0
  -4   0  -7  276.97    9.31   0
  -1  -1  -9 1143.54   16.29   0
  -5   2 -28   73.77   10.04   0
  -4   1 -26  159.86   11.05   0
  -4   2 -30   85.44    9.80   0
  -1  -1 -15  537.15   11.33   0
   0   0 -24  378.12   11.20   0
  -8   3 -17   85.16    8.00   0
  -1   0 -25  217.92    9.86   0
  -1   1 -29  111.91    9.48   0
  -7   2 -18  119.96    9.02   0
  -6   1 -13  186.85    9.35   0
  -6   1 -10  412.45   11.11   0
  -4   0 -19  107.02    8.75   0
   0  -1 -17  796.72   13.87   0
  -3   2 -32   45.47    9.08   0
  -2  -1 -13  479.09   10.93   0
  -1  -1 -18  808.10   14.07   0
  -5   1 -24  107.28    9.77   0
  -2  -1 -16 1140.57   16.18   0
  -2  -1 -10 1362.56   16.88   0
   1   0 -23   95.93    7.82   0
  -6   2 -26   83.42    9.49   0
  -2   1 -30  113.14    9.42   0
  -6   1  -7  333.79   10.69   0
  -7   2 -21   69.49    8.37   0
  -6   1 -19  106.84    9.09   0
   1  -1 -16 1516.37   19.18   0
  -4   0 -22  319.59   10.71   0
  -4   0  -4 1363.93   18.45   0
   0  -1 -20  635.61   12.95   0
  -2  -1  -7 1451.15   17.93   0
  -5   0 -14  530.43   12.36   0
  -5   0 -11  198.06    9.03   0
  -3  -1 -14  620.91   12.12   0
  -3   1 -31   25.32    9.54   0
  -1   0 -28  154.54    9.95   0
   0   0 -27   26.69    7.30   0
  -5   1 -27   31.35    9.13   0
  -3  -1 -11  314.57    9.34   0
   1  -1 -19  213.65    8.86   0
  -3   0 -27   65.08    9.28   0
  -2  -1 -22  262.26   10.77   0
  -5   0  -8  601.51   12.61   0
  -4   0 -25  130.89   10.13   0
  -5   0 -20  158.59    8.99   0
  -2   0 -29   71.62    9.23   0
  -3  -1 -20  379.30   11.13   0
  -1  -1 -24  277.73    9.80   0
  -5   0 -23   60.15    9.52   0
   1  -1 -22  360.01   10.88   0
  -2  -1 -25  141.66    8.88   0
  -7   1 -17  119.10    8.90   0
  -7   1 -14  104.59    8.61   0
  -4  -1 -12  568.92   11.85   0
  -4   0 -28   52.02    8.92   0
  -5   0  -5  626.31   13.18   0
  -1   0 -31   43.25    8.51   0
   0  -1 -26  241.51   10.13   0
  -7   1 -20  139.67    9.33   0
  -1  -1 -27   74.67    8.07   0
  -6   0 -15  112.72    8.64   0
  -5   0 -26  134.39   10.12   0
  -3  -1  -5 1028.44   15.85   0
  -1  -2 -17  532.05   11.55   0
  -1  -2 -14 1207.32   15.89   0
   2  -1 -15  481.51   12.59   0
  -6   0 -18  116.90    9.10   0
  -4  -1  -9  657.87   12.91   0
  -3  -1 -26  161.48   11.12   0
  -2   0 -32   63.94    9.00   0
   0  -2 -13 1194.85   16.40   0
  -1  -2 -20  406.71   11.56   0
  -2  -2 -15  178.19    8.41   0
  -1  -2 -11  414.59   10.27   0
  -6   0 -21   91.82    9.43   0
  -2  -2 -18  315.67   10.10   0
  -4  -1 -24  113.10    9.25   0
  -2  -2 -12 1693.94   18.44   0
  -6   0  -9  211.03    9.27   0
   0  -2 -22  560.24   12.98   0
   0  -2 -10 3235.98   26.13   0
   1  -2 -15  497.86   11.65   0
  -6   0 -24   96.16    9.11   0
  -1  -1 -30  126.70   10.06   0
   0  -1 -29  105.80    9.03   0
  -5  -1 -19  107.07    8.30   0
  -5  -1 -13  194.01    9.62   0
  -4  -1  -6 1028.71   15.86   0
  -3  -2 -16  600.71   13.33   0
  -3  -1 -29   76.12    9.97   0
  -4  -1 -27   33.39    9.60   0
  -3  -2 -13  562.51   12.54   0
  -2  -2  -9  965.08   14.46   0
  -1  -2  -8 1880.04   19.92   0
   1  -2 -12 1667.87   19.85   0
  -2  -1 -31   26.20    8.65   0
   1  -2 -21  270.05   10.17   0
  -5  -1 -10  422.67   11.19   0
  -3  -2 -22  191.38    9.57   0
  -5  -1 -25   60.73    9.36   0
  -2  -2 -27   26.53    8.85   0
   1  -2 -24  263.21   10.22   0
  -7   0 -16  166.13   10.32   0
   0  -2  -7  301.77    9.49   0
  -7   0 -19   19.08    7.44   0
  -4  -2 -20  177.66    9.46   0
  -4  -2 -14  357.55   11.42   0
  -3  -1  -2 1178.48   18.10   0
   0  -2 -28   79.78    8.95   0
  -1  -2 -29   76.94    9.79   0
  -5  -1  -7  339.56   10.53   0
  -4  -2 -23   70.64    9.80   0
   2  -2 -17  244.40    9.81   0
  -6  -1 -17  121.08    9.34   0
  -1  -3 -19  145.46    8.59   0
  -1  -3 -16  766.48   13.53   0
   0  -3 -18  699.79   13.74   0
  -6  -1 -20  144.78   10.03   0
  -6  -1 -14  105.67    8.96   0
  -3  -2 -28   83.20    9.19   0
  -3  -2  -7  346.00   10.33   0
  -1  -2  -5 1904.19   20.89   0
   0  -3 -15  272.57    9.24   0
   1  -2 -27   61.98    8.26   0
  -4  -1  -3  317.77   10.47   0
  -2  -3 -17  381.72   11.66   0
  -1  -3 -22  224.98    9.86   0
  -1  -3 -13  583.40   11.92   0
   2  -2 -14  973.47   16.48   0
  -2  -3 -20  375.53   11.33   0
  -4  -2 -26   68.58    8.95   0
  -2  -3 -14  349.92   10.25   0
  -2  -3 -23   40.30    9.21   0
   0  -3 -24  160.95   10.16   0
   0  -3 -12  971.69   14.63   0
   1  -3 -17  526.79   12.17   0
  -6  -1 -11  110.86    8.81   0
   0  -2 -31   26.85    7.94   0
   1  -3 -20  380.39   10.66   0
  -5  -2 -18  130.25    9.35   0
  -5  -2 -21   61.39    9.17   0
  -5  -2 -15  143.61    9.34   0
  -4  -2  -8  652.39   13.34   0
  -3  -3 -18  258.75   10.20   0
  -2  -3 -11  247.33    9.73   0
  -1  -3 -10  827.36   13.61   0
  -3  -3 -21  125.45    9.12   0
  -3  -3 -15  163.17    9.85   0
  -2  -3 -26   98.32    9.84   0
   1  -3 -23   99.27    8.02   0
   0  -3 -27   71.94    8.70   0
  -1  -3 -28  106.64    9.67   0
   0  -3  -9 1225.85   16.51   0
   1  -3 -26  200.96   10.26   0
  -3  -2  -4 2042.59   21.96   0
   1  -3 -11  410.05   10.46   0
  -2  -3 -29   59.90    9.25   0
  -3  -3 -27   27.15    8.36   0
  -2  -3  -8 1631.60   18.52   0
   2  -3 -19  264.19   10.02   0
  -4  -3 -22   95.14    9.64   0
  -4  -3 -16  211.87   10.62   0
  -1  -3  -7  648.97   12.79   0
   0  -3 -30  101.18    9.82   0
  -5  -2  -9  132.97    8.60   0
   2  -3 -22  257.50   10.10   0
   2  -3 -16 1020.27   16.19   0
  -3  -3  -9  374.71   11.09   0
  -1  -4 -21  132.38   10.53   0
  -1  -4 -18  265.75   10.30   0
   0  -4 -20  367.62   10.94   0
  -4  -2  -5  285.46    9.96   0
  -1  -4 -15  246.67   10.08   0
   1  -3 -29   73.80    9.42   0
  -2  -4 -19   56.54    9.76   0
  -6  -2 -16  126.45    8.87   0
  -2  -4 -16  286.55   11.31   0
   0  -4 -14  562.17   12.00   0
   1  -4 -19  120.40    8.02   0
   2  -3 -13  483.94   12.13   0
  -1  -4 -12  819.32   14.62   0
   0  -4 -26  115.32    9.62   0
   1  -4 -22  214.02    9.93   0
  -2  -4 -25   87.36    9.75   0
   0  -3  -6 2436.90   22.86   0
   1  -3  -8 1907.41   20.72   0
  -4  -3 -10  347.14   11.32   0
  -2  -4 -13  322.27   10.53   0
  -7   3  -7  302.58   10.00   0
  -7   6 -22   72.13    8.48   0
  -6   3 -15  152.85    8.74   0
  -5   2 -13  539.31   11.78   0
  -4   1  -8 1926.66   18.97   0
  -9   5  -5   94.50    7.89   0
  -8   4  -9  143.81    8.91   0
  -6   2  -2  743.75   13.23   0
  -8   5 -16  149.94    9.55   0
  -6   2  -5  299.39    8.68   0
  -9   5  -8  245.59    9.70   0
  -7   3 -10  344.21   10.11   0
  -7   4 -17  136.37    9.19   0
  -7   5 -21   94.16    8.87   0
  -6   2  -8  621.22   12.29   0
  -5   5 -25   51.28    7.74   0
  -5   3 -20  341.74   10.49   0
  -4   1 -11  334.55    9.12   0
  -4   2 -18  307.39    9.78   0
  -8   4 -12  244.67   10.12   0
  -3   2 -20  419.50   11.56   0
  -9   5 -11   43.23    7.83   0
  -6   3 -18  251.84   10.39   0
  -1   1 -17  837.51   14.15   0
  -7   3 -13  104.98    7.62   0
  -6   4 -22  146.94    9.05   0
  -5   4 -24  128.48    8.62   0
  -2   0  -8 2940.93   24.69   0
  -8   5 -19   38.62    7.74   0
  -3   1 -16 1094.50   15.11   0
  -1   2 -21  256.10    9.73   0
  -3   3 -24  142.64    8.92   0
  -5   1  -6 1006.43   14.50   0
  -5   1  -3  336.39    9.52   0
  -9   5 -14   53.80    7.39   0
  -8   4 -15   53.63    7.27   0
  -2   1 -18  785.33   13.64   0
  -2   2 -22  562.49   12.55   0
  -7   3 -16  222.26   10.15   0
  -6   2 -14  375.79   10.25   0
  -5   1   0 1236.04   16.86   0
  -3   0  -6 1871.04   19.49   0
  -2   0 -11 1775.80   18.63   0
  -5   2 -19   92.85    7.69   0
  -8   3  -5  144.18    8.22   0
  -6   3 -21  134.89    8.92   0
  -8   3  -8  315.21   10.11   0
  -5   1 -12  578.75   11.53   0
  -4   3 -25  145.50    9.59   0
  -3   0  -9  481.06   10.50   0
  -9   4  -7   56.53    7.53   0
  -8   4 -18   80.56    8.42   0
  -6   4 -25   80.18    9.04   0
  -3   2 -23  104.67    7.61   0
  -7   2  -6  332.47    9.85   0
  -9   4 -10   71.25    8.05   0
  -7   2  -9  124.58    8.19   0
  -7   2  -3  371.90   10.23   0
  -7   4 -23   51.39    8.53   0
  -6   2 -17  147.85    8.19   0
  -7   3 -19  101.18    8.85   0
  -5   4 -27   27.21    8.14   0
  -2   0 -14 1061.47   14.93   0
  -3   0 -12 1530.83   17.01   0
  -1   1 -20  620.99   12.58   0
  -5   1 -15  154.19    8.04   0
  -9   4 -13   96.52    8.38   0
  -8   3 -14  106.36    8.52   0
  -7   2 -12  348.77    9.86   0
  -2   1 -21  284.31    9.60   0
  -6   1  -7  334.75   10.02   0
  -6   3 -24  101.37    9.08   0
  -4   0  -7  267.08    8.33   0
  -4   2 -24  255.90   10.73   0
  -6   1  -4  704.37   12.79   0
  -5   3 -26  105.57    9.97   0
  -4   0 -10 1186.05   15.56   0
  -4   0  -4 1378.58   16.88   0
  -4   1 -20  408.39   11.52   0
  -7   2 -15  130.80    9.14   0
  -3   0 -15  507.97   10.84   0
  -2   2 -25  159.88    8.80   0
  -3   1 -22  277.86   10.13   0
  -7   3 -22   78.46    9.42   0
  -5   1 -18  411.91   10.83   0
  -4   0 -13  660.21   12.59   0
  -4   3 -28   90.24    8.67   0
  -3   2 -26  204.98    9.71   0
   0   0 -15  151.46    7.44   0
  -4   0  -1 1250.54   16.85   0
  -7   2 -18  120.80    9.13   0
  -6   1 -16  317.88    9.95   0
  -9   3  -9  121.83    8.77   0
  -8   3 -20   97.82    8.88   0
  -6   2 -23   77.79    8.07   0
  -5   1 -21  170.58   10.28   0
  -2   1 -24  259.74    9.92   0
  -1   1 -23   87.40    7.57   0
  -8   2 -10  136.97    8.85   0
  -8   2  -7   74.74    7.67   0
  -5   0  -8  585.51   11.34   0
  -1   0 -19  219.10    8.50   0
  -9   3 -12  118.73    8.02   0
  -5   0 -11  198.51    8.11   0
  -5   0  -5  629.29   12.03   0
  -4   2 -27   27.64    7.62   0
  -2   0 -20  687.07   13.04   0
  -5   3 -29   64.80    7.99   0
  -8   2 -13  141.40    9.28   0
  -7   2 -21   57.92    8.75   0
  -3   1 -25  133.81    9.11   0
  -6   1 -19  102.59    8.17   0
  -5   0 -14  552.17   11.43   0
  -7   1 -11  119.46    8.51   0
  -7   1  -8  519.15   11.99   0
  -4   0 -19   98.14    7.87   0
  -2  -1 -10 1366.38   16.21   0
  -2  -1  -7 1516.67   17.38   0
  -1  -1  -9 1110.76   15.43   0
   0   0 -18  513.88   11.80   0
  -8   2 -16  121.90    8.37   0
  -5   0  -2 1011.26   15.03   0
  -2  -1 -13  491.37   10.99   0
  -1  -1 -12 1716.75   18.73   0
  -7   1 -14  122.03    7.69   0
  -5   0 -17  240.68   10.25   0
  -3  -1 -11  343.72    9.79   0
  -3  -1  -8 1929.46   19.27   0
  -5   2 -28   84.28    8.87   0
  -4   1 -26  152.67    9.85   0
  -2  -1  -4 3057.77   25.35   0
  -6   1 -22  118.89    9.30   0
  -3  -1 -14  641.31   12.38   0
  -7   1 -17  118.06    8.61   0
  -2  -1 -16 1058.86   14.52   0
  -1   0 -22  345.59   10.28   0
  -6   0  -9  218.12    8.50   0
  -4   0 -22  339.66   10.54   0
  -5   0 -20  165.95    9.84   0
  -2   1 -27   66.72    7.85   0
  -6   0  -6  289.18    9.06   0
  -4  -1 -12  575.44   12.20   0
  -4  -1  -9  656.87   12.34   0
  -4   2 -30   62.68    8.42   0
  -3   0 -24  253.51   10.62   0
  -6   0 -15   96.49    7.87   0
  -3  -1 -17  447.88   10.73   0
  -3   1 -28  136.99    9.51   0
  -7   1 -20  162.56    9.68   0
  -4  -1  -6 1008.07   14.67   0
  -1  -1 -18  807.55   13.55   0
  -9   2 -11   25.66    7.62   0
  -6   1 -25   65.95    8.64   0
  -5   1 -27   31.49    8.02   0
  -3  -1  -2 1214.64   16.46   0
   0  -1 -14 1186.57   16.53   0
  -6   0 -18  125.47    8.44   0
  -6   0  -3  308.99    9.68   0
  -8   1 -12  154.20    9.74   0
  -5   0 -23   58.62    9.36   0
  -3  -1 -20  388.71   11.35   0
  -8   1  -9  146.18    8.82   0
  -4  -1 -18  397.40   11.79   0
  -4   1 -29   81.26    8.58   0
  -8   1 -15   19.48    7.86   0
  -2   0 -26  145.75    9.04   0
  -5  -1 -13  179.81    9.40   0
  -4  -1  -3  319.97    8.99   0
  -6   0 -21  107.67    9.28   0
   0  -1 -17  814.99   13.95   0
  -5  -1  -7  340.47   10.20   0
  -3   0 -27   70.18    8.28   0
  -2  -1 -22  285.30    9.41   0
  -1  -1 -21  265.92    9.53   0
  -7   0 -10  118.67    8.73   0
  -4  -1 -21  174.49    9.14   0
  -7   0 -16  207.17    9.74   0
  -7   0  -7   95.20    7.85   0
  -5   0 -26  110.75    9.69   0
  -5  -1 -19   93.80    8.32   0
  -5  -1  -4  678.77   12.86   0
  -2  -2 -12 1715.77   17.90   0
  -6   0 -24  117.20    9.12   0
  -4   0 -28   67.33    9.30   0
  -2  -2 -15  187.68    8.58   0
  -2  -2  -9  986.24   13.97   0
  -7   0 -19   22.37    7.27   0
  -3  -2 -13  548.00   11.27   0
  -3  -2 -10  519.29   11.42   0
  -1  -2 -11  438.73   10.38   0
   0  -1 -20  612.14   12.60   0
  -1  -2 -14 1220.86   15.49   0
  -6  -1 -11  124.72    8.80   0
  -4  -1 -24  112.34    8.95   0
  -4  -1   0 1268.77   17.62   0
  -3  -2 -16  610.33   12.14   0
  -3  -1   1  779.24   14.66   0
  -2  -1 -25  139.04    9.11   0
  -3  -2  -7  343.06    9.55   0
  -2  -2 -18  294.21    9.32   0
  -2  -2  -6  711.88   12.58   0
  -1  -2  -8 1949.60   19.80   0
  -1  -1 -24  265.14    9.71   0
  -6  -1 -17  130.49    9.33   0
  -6  -1  -8  513.53   12.18   0
  -3  -1 -26  146.50    9.84   0
  -4  -2 -11  321.09    9.62   0
  -3  -2 -19   83.77    8.16   0
  -3   0 -30   69.75    8.66   0
  -4  -2 -17  146.53    9.64   0
  -5  -1  -1  295.25    9.47   0
  -8   0 -11   50.16    8.23   0
  -6  -1  -5  184.81    8.71   0
  -1  -2 -20  372.14    9.97   0
  -5  -1 -25   61.30    9.28   0
  -4  -1 -27   34.53    8.56   0
  -3  -2  -4 2011.29   20.10   0
   0  -1 -23   86.68    7.11   0
  -4  -2 -20  202.09    9.21   0
  -1  -2  -5 1944.28   20.14   0
   0  -2 -16  558.55   11.82   0
   0  -2 -10 3168.30   25.48   0
  -2  -1 -28  131.66    9.45   0
   1  -1 -16 1472.77   20.18   0
  -5  -2 -15  155.94    8.53   0
  -4  -2  -5  286.63    9.04   0
  -5  -2  -9  130.81    8.77   0
  -1  -1 -27   62.44    7.86   0
  -7  -1 -15   38.79    8.14   0
  -3  -1 -29   59.17    8.95   0
  -2  -2 -24  244.56    9.29   0
   0  -2 -19  210.26    8.68   0
  -1  -2 -23   88.39    7.40   0
  -7  -1  -9  149.11    9.16   0
  -3  -2 -25  116.52    9.53   0
   0  -2  -7  329.22    9.82   0
  -5  -2 -21   69.18    8.51   0
  -5  -2  -6  355.61   10.32   0
  -2  -3 -17  368.91   10.99   0
  -2  -3 -11  257.22    8.64   0
  -3  -3 -15  170.15    8.58   0
  -1  -3 -13  571.46   11.77   0
  -6  -2 -13  136.32    9.38   0
  -4  -2  -2  761.20   13.70   0
  -3  -3 -18  258.52   10.96   0
  -3  -2  -1  739.26   13.49   0
  -1  -3 -16  766.51   13.00   0
   0  -2 -22  542.46   12.29   0
  -6  -2 -16  126.55    9.27   0
  -3  -3  -9  374.39   10.59   0
  -2  -3 -20  366.44   11.35   0
  -2  -2 -27   32.78    7.79   0
  -1  -3 -10  865.68   13.77   0
  -6  -2 -10  145.62    8.82   0
  -2  -3  -8 1647.38   17.62   0
  -1  -2 -26  197.57    9.71   0
  -4  -3 -16  234.60   10.71   0
  -4  -3 -13  126.96    9.15   0
  -1  -2  -2 2852.30   25.66   0
  -3  -3 -21  129.86    9.52   0
  -3  -2 -28   78.93    9.27   0
  -5  -2  -3  360.04   10.69   0
  -6  -2  -7   81.74    9.06   0
  -4  -3 -19  108.37    9.19   0
   1  -2 -15  515.27   11.87   0
  -2  -2   0 3933.81   29.93   0
  -1  -3  -7  635.62   11.75   0
   0  -3 -18  707.71   13.13   0
   0  -2 -25  148.09    9.11   0
  -4  -3 -22   95.74    9.21   0
  -3  -3 -24  115.63    9.28   0
  -2  -3  -5  652.74   11.98   0
  -5  -3 -14  130.44    9.62   0
  -4  -3  -7  292.04    9.53   0
  -5  -3 -17   89.82    9.00   0
  -2  -2 -30   67.83    9.04   0
  -5  -3 -11   98.45    8.68   0
   0  -3 -21  246.59    9.71   0
   0  -3  -9 1231.70   15.82   0
  -5  -3 -20  107.41    9.67   0
  -2  -3 -26  108.41    8.99   0
  -1  -3 -25  137.51    9.34   0
   1  -2 -21  259.02    9.59   0
  -7  -2 -11   25.07    7.52   0
  -5  -3  -8  330.45   11.09   0
  -4  -2   1  523.06   12.32   0
  -3  -3 -27   29.04    8.14   0
  -3  -3  -3  400.13   10.62   0
  -2  -4 -16  299.87   10.04   0
  -2  -4 -13  319.91   10.54   0
  -4  -3  -4  479.71   11.78   0
  -2  -4 -19   62.66    9.24   0
  -1  -3  -4 2511.50   22.20   0
  -3  -4 -17  136.53    9.82   0
  -1  -4 -18  275.44   10.30   0
  -1  -4 -12  824.62   14.03   0
  -2  -4 -10  576.03   11.91   0
  -3  -4 -20  103.91    9.58   0
  -3  -4 -11  133.90    8.29   0
  -3  -2   2  606.98   13.13   0
  -2  -3  -2  630.19   12.38   0
   0  -3  -6 2510.62   22.46   0
  -2  -4 -22  165.23   10.12   0
   1  -3 -17  510.29   11.82   0
   1  -3 -14 1157.64   15.93   0
  -6  -3 -12  122.47    9.25   0
  -4  -4 -15   55.89    8.94   0
  -2  -3 -29   67.34    8.77   0
  -1  -4  -9  346.30   10.12   0
  -1  -3 -28   93.96    8.45   0
   0  -4 -14  577.94   12.40   0
  -3  -4 -23   36.05    8.57   0
  -2  -4  -7  224.41    9.38   0
   1  -3 -20  408.04   11.12   0
  -6  -3  -9  133.22    9.09   0
   0  -4 -20  342.62   11.18   0
  -2  -4 -25   74.00    8.89   0
  -1  -4 -24  155.28    9.67   0
   0  -4 -11  629.74   12.05   0
  -4  -4  -9  157.30    9.36   0
  -4  -3  -1  186.39    8.81   0
  -1  -4  -6  819.47   13.22   0
  -3  -3   0  954.75   15.31   0
   0  -4 -23  113.72    9.05   0
   1  -3 -23   86.31    7.73   0
  -5  -4 -13  104.38    8.70   0
  -3  -4  -5  331.89    9.83   0
   0  -4  -8 1388.12   16.71   0
   1  -3  -8 1935.61   20.73   0
  -4  -4  -6  213.85    9.60   0
  -2  -5 -15   59.33    9.37   0
  -1  -4 -27   44.11    8.08   0
   0  -3  -3  505.48   11.67   0
   1  -4 -16  775.31   13.96   0
  -5  -4 -10   81.69    8.39   0
  -1  -5 -17  184.13   10.10   0
  -1  -5 -14  330.26   10.92   0
   1  -4 -19  127.79    8.56   0
  -3  -5 -16  145.13   10.33   0
  -2  -5 -21   92.82    9.25   0
  -1  -5 -20  168.39    9.65   0
   0  -4 -26  115.58    9.35   0
  -3  -5 -19   37.75    8.98   0
  -3  -5 -13  142.73   10.01   0
  -2  -3   1  740.89   13.85   0
  -1  -5 -11  185.13    8.62   0
   0  -5 -16  396.14   11.65   0
  -5  -4  -7   60.34    8.29   0
  -2  -5  -9  318.61   10.10   0
  -1  -5 -23   51.09    8.43   0
  -1  -4  -3  772.71   13.37   0
   0  -5 -13  184.17    9.39   0
   1  -4 -22  219.15    9.85   0
   1  -4 -10  842.13   13.55   0
   0  -4  -5  369.58    9.80   0
  -3  -4  -2  555.27   12.38   0
  -1  -5  -8  582.14   12.61   0
   2  -2 -14  951.96   17.54   0
  -4  -5 -14   65.71    8.43   0
  -4  -4  -3  159.46    8.96   0
   0  -5 -22  141.07    9.63   0
   0  -5 -10  597.03   12.14   0
  -4  -5 -11   62.68    9.01   0
  -2  -4  -1  541.28   12.16   0
   1  -3  -5 1951.21   20.95   0
   2  -3 -16 1016.36   16.40   0
  -3  -5  -7  109.37    8.94   0
   2  -3 -19  247.74    9.98   0
   1  -5 -18  268.27   10.53   0
   2  -3 -13  467.75   11.83   0
   1  -4  -7  625.95   12.08   0
   7  -3  -8  369.88   11.17   0
   9  -3  -3  134.95    9.65   0
   4   0  -5  372.54    9.70   0
   4   2   5  301.35   10.05   0
   5   0  -4  879.49   13.71   0
   7   0   1  202.04    9.82   0
   8   0   8  120.09    8.47   0
   9  -5  -7   66.96    9.04   0
   5  -3 -10  505.17   11.77   0
   7  -1  -4  549.08   12.39   0
   9  -2  -1   43.59    8.48   0
   7  -4 -10  334.72   10.97   0
   8  -2  -5  149.59    9.84   0
   6   1   2  231.61    9.60   0
   8   0   5  120.70    8.63   0
   9  -1   4  108.82    9.06   0
   3   0  -6 2555.54   23.00   0
   6  -4 -11  280.61   10.15   0
   3  -1  -8 1950.98   20.42   0
   8  -6 -10  131.66    9.83   0
   5   1  -2  663.32   12.83   0
   3   2   1  765.11   14.05   0
   7   0  -2  141.26    8.98   0
   8  -1  -3  150.94    8.81   0
   9  -6  -9  138.07    9.47   0
   9  -3  -6  107.58    8.60   0
   6  -2 -10  585.61   12.56   0
   6  -1  -8  543.97   12.07   0
   8   0   2  150.31    9.64   0
   3   1  -4 2577.97   22.80   0
   5  -1  -9  337.48   10.32   0
   7  -2  -9  324.77   10.80   0
   9  -1   1   73.87    8.19   0
   4  -3 -11  310.48    9.97   0
   8  -5 -11   98.50    9.09   0
   9  -2  -4  151.09    9.99   0
   5   0  -7  576.10   12.06   0
   6   1  -1  304.77   10.32   0
   7  -1  -7  117.71    8.56   0
   7  -5 -12  341.01   11.23   0
   7   1   3   84.57    7.87   0
   5  -4 -12  541.29   12.68   0
   6   0  -6  346.04   10.12   0
   8  -2  -8  255.20   10.59   0
   9  -5 -10   83.71    8.99   0
   4   0  -8 1425.38   17.13   0
   6  -3 -12  485.31   11.26   0
   2   2   0 4037.36   31.61   0
   4  -1 -10  844.93   13.47   0
   8   0  -1   87.14    8.24   0
   8  -1  -6  141.95    9.21   0
   9  -1  -2  132.42    9.30   0
   4   2  -1  554.68   12.09   0
   8  -4 -12  235.86   10.01   0
   9  -3  -9   64.65    8.74   0
   7  -4 -13  106.45    8.84   0
   7   1   0  315.57   10.88   0
   2   0  -7  329.52    9.94   0
   4   1  -6  851.62   13.47   0
   9  -2  -7   96.51    8.40   0
   3   2  -2  662.97   12.81   0
   5  -3 -13  508.48   11.38   0
   5   2   0  538.26   12.17   0
   9  -4 -11   58.72    8.30   0
   2   1  -5 1934.44   20.53   0
   6  -1 -11  180.99    8.45   0
   3   0  -9 1267.39   16.06   0
   6  -4 -14  333.70   10.86   0
   7  -2 -12  249.70    9.43   0
   7  -1 -10  200.03    8.95   0
   6  -2 -13  304.75   10.51   0
   6   0  -9  319.34   10.27   0
   8   0  -4  175.84    9.32   0
   3   1  -7  643.88   12.17   0
   5  -1 -12  782.91   13.07   0
   5   0 -10  564.21   11.56   0
   8  -2 -11   72.09    8.91   0
   6   2   1  177.71    9.60   0
   3  -1 -11  426.42   10.72   0
   7  -3 -14  274.36    9.71   0
   7   0  -8  407.83   11.65   0
   7   1  -3  158.57    8.86   0
   8  -5 -14  117.30    8.67   0
   8  -1  -9   94.35    8.72   0
   9  -5 -13  105.87    8.17   0
   4   2  -4  776.45   13.67   0
   5   2  -3  126.69    8.33   0
   8   1   1   67.89    8.55   0
   4   0 -11  653.39   12.37   0
   5   1  -8  576.01   11.77   0
   9  -3 -12  141.24    8.94   0
   9  -2 -10  110.42    8.60   0
   2   2  -3  762.99   13.72   0
   4  -1 -13  566.86   11.40   0
   4   1  -9  357.44    9.62   0
   8  -4 -15   62.35    7.96   0
   3  -3 -12 1377.28   19.42   0
   3   2  -5  676.67   12.19   0
   4  -3 -14  574.84   12.39   0
   6   2  -2  193.02    9.26   0
   9  -4 -14   54.57    7.65   0
   5  -4 -15  141.97    8.28   0
   7  -4 -16  212.83    9.53   0
   7  -1 -13  215.18   10.08   0
   7   1  -6  126.78    8.64   0
   8   1  -2  116.82    8.15   0
   6  -1 -14  329.58    9.91   0
   6   0 -12  369.90   10.93   0
   7  -2 -15   53.63    8.10   0
   4   3   1  184.02    8.61   0
   8  -2 -14  117.82    8.79   0
   3  -2 -13  470.33   11.24   0
   3   3   0  972.78   15.96   0
   5   2  -6  417.24   11.36   0
   7   0 -11   81.12    7.93   0
   8  -1 -12  191.08    9.27   0
   2   1  -8 1967.27   19.76   0
   2   3   2  594.14   13.47   0
   4   2  -7  237.09    9.12   0
   5  -3 -16  542.36   12.44   0
   5   0 -13  178.23    8.25   0
   3   1 -10  827.15   13.49   0
   4  -2 -15  181.14    8.35   0
   5  -1 -15  242.81    9.47   0
   8  -3 -16  140.23    9.46   0
   2   0 -10 3308.22   25.75   0
   5   1 -11  192.78    9.32   0
   6   1 -10  203.73    9.54   0
   6   2  -5  144.43    8.74   0
   7  -3 -17  118.21    8.69   0
   8   0 -10   78.19    8.58   0
   8   1  -5   56.14    7.96   0
   6  -4 -17  122.79    8.73   0
   4   3  -2  573.64   12.47   0
   4   0 -14  570.14   11.72   0
   4   1 -12  788.82   12.89   0
   3   3  -3  388.68   10.45   0
   5  -2 -17  330.89    9.76   0
   2   3  -1  741.42   13.88   0
   6  -3 -18  216.95    9.63   0
   7  -1 -16  217.59    9.95   0
   7   2  -4  157.53    9.11   0
   5   2  -9  325.67    9.83   0
   6   0 -15   86.10    8.53   0
   7   0 -14   76.79    8.87   0
   8  -4 -18   69.75    8.51   0
   6  -1 -17  159.84    9.33   0
   6   2  -8  275.86   10.24   0
   8  -1 -15   47.31    8.39   0
   7  -2 -18  171.14    9.51   0
   4   3  -5  333.85   10.35   0
   6   1 -13  205.48    9.94   0
   5   0 -16  398.21   10.47   0
   5   3  -4  367.55   10.86   0
   7  -4 -19   85.89    8.54   0
   8   0 -13   72.14    8.50   0
   5   1 -14  327.19    9.73   0
   7   2  -7   94.62    8.47   0
   2   1 -11  429.78   10.01   0
   4  -3 -17  405.93   11.50   0
   6  -2 -19   57.18    7.12   0
   8  -3 -19   37.96    7.88   0
   2   3  -4 2123.14   21.39   0
   3   0 -15  281.57    9.35   0
   2   2  -9  969.92   13.96   0
   3   2 -11  250.52    9.18   0
   4   1 -15  249.78    9.35   0
   5  -3 -19   70.42    7.67   0
   7  -3 -20   97.59    8.75   0
   2   0 -13 1166.13   15.33   0
   6   2 -11   87.08    7.91   0
   3  -2 -16  985.50   15.35   0
   4   0 -17  202.88    8.40   0
   4   3  -8  358.67   10.45   0
   5   3  -7  113.75    8.45   0
   7  -1 -19   32.39    7.67   0
   7   0 -17  101.56    8.28   0
   4   2 -13  329.81    9.58   0
   6   0 -18  134.48    8.41   0
   5  -2 -20  327.14   10.70   0
   6   1 -16  207.21    9.56   0
   6   3  -6   99.29    8.39   0
   7   2 -10   91.91    8.42   0
   1   1  -9 1144.35   15.71   0
   7   1 -15   52.49    7.85   0
   1   2  -7 1492.23   17.64   0
   3   3  -9  372.77   10.38   0
   5   1 -17  175.83    9.73   0
   6  -3 -21  124.02    8.68   0
   4  -1 -19  135.94    7.59   0
   5   0 -19  133.17    9.16   0
   7  -2 -21   81.91    7.89   0
   1   3  -2 1216.36   17.72   0
   3   1 -16  752.61   13.01   0
   5   3 -10  172.06    9.16   0
   2   1 -14 1234.85   15.62   0
   2   2 -12 1709.61   18.02   0
   3   2 -14  346.78   10.19   0
   4   3 -11  136.60    8.37   0
   5   2 -15   76.19    8.07   0
   2  -2 -14  980.94   16.16   0
   2  -1 -15  499.19   11.25   0
   6   3  -9   62.51    8.66   0
   1   0 -11  435.93   10.40   0
   4   1 -18  267.64   10.08   0
   5  -1 -21  131.32    9.19   0
   6  -2 -22  144.10    8.89   0
   3   0 -18  672.82   12.52   0
   3   4  -4  467.75   11.50   0
   4   2 -16  287.59   10.18   0
   7   0 -20  121.32    8.48   0
   1   3  -5 1036.66   15.33   0
   4   0 -20  335.51   10.67   0
   6   0 -21  101.28    8.57   0
   6   1 -19   36.03    7.78   0
   7  -3 -23   27.28    6.95   0
   2   4  -2  760.37   14.04   0
   4   4  -6  192.57    9.09   0
   1   2 -10 1351.97   16.18   0
   4  -2 -21  286.84   10.08   0
   5   3 -13  134.68    8.86   0
   1   1 -12 1743.47   18.30   0
   3   4  -7  298.20    9.87   0
   5  -3 -22  172.41    9.11   0
   5   1 -20  166.43    9.30   0
   6   3 -12  139.54    8.77   0
   6  -1 -23   28.95    7.65   0
   6   2 -17   68.92    8.03   0
   2   4  -5  291.34    9.49   0
   3  -2 -19  254.74    9.16   0
   5   0 -22  128.53    8.86   0
   2   2 -15  187.82    8.23   0
   3   2 -17  367.00    9.98   0
   5  -2 -23   47.65    7.74   0
   3  -1 -20  386.46    9.91   0
   3   1 -19  148.96    7.60   0
   4  -1 -22  211.75    9.38   0
   4   4  -9  155.70    8.48   0
   2   1 -17  508.61   11.36   0
   2   3 -13  546.47   11.56   0
   3   3 -15  167.22    8.59   0
   3   4 -10  354.67   10.13   0
   4   1 -21  135.52    7.96   0
   4   2 -19   69.21    7.28   0
   2   4  -8  641.92   12.57   0
   5  -1 -24  141.07    9.08   0
   5   3 -16  132.70    8.86   0
   1  -1 -13 1053.23   16.16   0
   1   2 -13  469.17   10.22   0
   6  -2 -25   58.68    7.99   0
   4   3 -17  122.29    7.92   0
   4   4 -12  264.81    9.77   0
   5   4 -11   66.96    8.23   0
   1   3 -11  337.27    9.47   0
   1   1 -15  556.60   10.95   0
   1   4  -3  322.71    9.77   0
   2  -2 -17  238.03    8.80   0
   5   1 -23   42.66    8.05   0
   2   2 -18  311.23    9.23   0
   2   4 -11  312.99    9.11   0
   3   2 -20  354.66   10.03   0
   3   4 -13  120.27    7.58   0
   1   4  -6 1026.78   15.21   0
   2   3 -16  589.85   12.07   0
   3   1 -22  230.52    8.78   0
   3   3 -18  242.34    8.94   0
   4  -2 -24  219.33    9.48   0
   0   2  -8 2858.04   24.06   0
   2   1 -20  382.44   10.30   0
   4   2 -22  169.32    9.28   0
   4   4 -15   63.04    7.57   0
   5   4 -14   54.15    7.83   0
   1   2 -16 1078.84   14.63   0
   1   4  -9  669.30   12.33   0
   3  -2 -22  251.62    9.34   0
   3  -1 -23   87.01    7.76   0
   4  -1 -25  131.65    8.39   0
   4   1 -24  147.27    8.30   0
   5  -2 -26   86.53    7.70   0
   1   3 -14  616.64   11.39   0
   4   3 -20  119.26    8.69   0
   0   1 -10 1477.89   17.75   0
   2   4 -14  371.94   10.50   0
   1   0 -17  790.94   12.91   0
   3   4 -16  232.31    8.82   0
   3   0 -24  158.21    8.02   0
   5  -1 -27   42.04    7.35   0
   0   2 -11 1810.65   18.73   0
   1   1 -18  811.03   13.19   0
   1  -1 -16 1548.91   18.83   0
   1   4 -12  574.63   11.67   0
   2  -1 -21  267.33    9.28   0
   2   2 -21  308.32    9.96   0
   2   3 -19   71.30    7.92   0
   3   2 -23   36.57    8.07   0
   0   3  -9  470.76   10.20   0
   2   0 -22  525.01   11.25   0
   3   3 -21  125.76    9.01   0
   4   4 -18   88.32    8.40   0
   2   5  -9  138.99    7.94   0
   3   5 -11   95.28    7.58   0
   1   3 -17  438.47   10.16   0
   4   2 -25   84.46    8.36   0
   0   1 -13 1126.77   14.92   0
   1   2 -19  266.68    8.58   0
   0   3 -12 1473.83   16.81   0
   4   3 -23   39.44    7.03   0
   0   2 -14 1031.31   14.41   0
   2   5 -12  351.41   10.71   0
   3   5 -14  116.95    8.54   0
   0   4  -7  286.91    9.08   0
   1   5  -7  339.35    9.91   0
   0   4  -4 1400.88   18.10   0
   1   0 -20  643.79   12.40   0
   2   3 -22  164.04    9.11   0
   3  -1 -26  188.47    9.31   0
   4  -1 -28   91.93    7.94   0
   1   5 -10  422.14   10.74   0
   0   4 -10 1123.35   14.74   0
   2   2 -24  243.81    8.90   0
   2   5 -15  147.02    8.58   0
   3   0 -27   69.96    7.68   0
   3   2 -26   92.45    8.56   0
   3   3 -24  106.10    8.16   0
   0   3 -15  498.99   10.88   0
   1   3 -20  378.78    9.91   0
   2   4 -20  170.04    8.51   0
   0   1 -16 1579.41   17.48   0
   1  -1 -19  210.08    8.54   0
   3   5 -17   97.40    8.19   0
   4   0 -29   35.08    7.75   0
   0   2 -17  246.14    8.76   0
   1  -2 -15  501.31   12.60   0
   1   2 -22  277.83    9.56   0
   1   4 -18  371.28    9.82   0
   1   5 -13  176.41    8.56   0
   2  -1 -24  255.88    9.45   0
   2   0 -25  150.38    7.82   0
   3   4 -22   85.59    7.78   0
   3   1 -28   78.30    8.24   0
   0   0 -15  155.90    7.34   0
   2   1 -26  201.38    8.44   0
   2   5 -18  110.21    8.19   0
   0   3 -18  439.79   10.07   0
   1   5 -16  304.97   10.09   0
   2   3 -25  128.71    8.35   0
   0   4 -16  409.65    9.79   0
   1   0 -23   97.49    7.42   0
   1   3 -23   62.46    7.97   0
   2   4 -23   51.73    7.63   0
   3   5 -20   93.49    7.45   0
   0   5  -8  611.24   12.08   0
   1   1 -24  260.25    8.82   0
   1   4 -21  164.16    7.98   0
   3   3 -27   30.89    7.14   0
   0   2 -20  653.42   12.17   0
   0   5 -11  211.32    8.64   0
   2   2 -27   21.59    6.61   0
   3   2 -14  324.39    9.78   0
   4   3 -14  290.33   10.19   0
   4   5 -10   71.10    8.80   0
   5   2 -15   57.16    7.87   0
   1   1  -9 1176.88   16.48   0
   0   6  -3  302.96    9.91   0
   2   6  -7   80.14    7.65   0
   7   1 -15   46.61    8.24   0
   3   4 -13  131.75    8.80   0
   3   5 -11   79.50    8.56   0
   5  -1 -15  234.76    9.93   0
   6   1 -16  187.20    9.95   0
  -1   4  -2 1211.19   18.22   0
   2   3 -13  517.80   11.28   0
   1   3 -11  320.68    9.27   0
   4  -2 -12 1691.59   22.40   0
   3   3 -15  154.37    8.86   0
   7  -1 -16  169.36    9.02   0
   1   5 -10  402.17   11.04   0
   3   6  -9  136.63    8.70   0
   5  -2 -14  344.15   11.54   0
   5   1 -17  158.98    9.45   0
   5   4 -14   65.30    7.64   0
   1   6  -8  503.97   12.02   0
   2   7  -5  111.15    8.51   0
   5   3 -16  153.43    9.49   0
   4   4 -15   52.55    8.60   0
   7   0 -17   93.86    8.29   0
  -1   5  -3  321.05    9.86   0
   0   3  -9  487.06   11.07   0
   0   5  -8  597.39   12.20   0
   1   4 -12  545.48   11.42   0
   2   4 -14  363.46   10.65   0
   2   6 -10  133.28    9.16   0
   4   5 -13   88.12    8.97   0
   6   2 -17   79.96    8.25   0
   0   2  -8 2902.50   25.22   0
   0   6  -6  287.54    9.90   0
   2   1 -14 1240.53   16.58   0
   6  -1 -17  153.35    9.25   0
   2   2 -15  182.44    8.84   0
   3   0 -15  265.91    8.98   0
   4   3 -17  132.37    9.36   0
   6   0 -18  133.90    9.43   0
   3   2 -17  335.87   10.90   0
   4   0 -17  194.82    8.52   0
   1   7  -6  136.69    8.74   0
   3   4 -16  221.74    9.36   0
   4   1 -18  255.89   10.19   0
  -1   4  -5 1039.41   15.80   0
   1   2 -13  470.51   10.59   0
   3   6 -12  115.77    8.35   0
   2   3 -16  560.69   11.67   0
   2   7  -8  113.23    7.92   0
   4  -1 -16  759.47   14.48   0
   6   1 -19   38.93    8.19   0
   1   3 -14  612.19   12.34   0
   1   6 -11  121.35    8.47   0
   3   3 -18  218.40    9.93   0
   5   0 -19  147.21    8.91   0
  -1   5  -6 1025.96   15.31   0
  -1   6  -4  676.20   13.17   0
   0   6  -9  220.07    9.17   0
   2   5 -15  145.13    8.05   0
   2   6 -13  135.43    9.19   0
   5  -1 -18  257.45   10.37   0
   0   5 -11  190.80    8.44   0
   4   4 -18   94.09    8.52   0
   5   3 -19   30.38    7.65   0
   5   1 -20  151.90    9.48   0
   1   4 -15  141.95    7.77   0
   2   4 -17  139.29    9.26   0
   0   3 -12 1459.48   16.78   0
   0   7  -7   89.87    7.79   0
   3   5 -17   85.81    8.78   0
   2   7 -11   28.76    7.36   0
   4   3 -20  112.11    8.17   0
   0   2 -11 1809.65   19.21   0
   0   4 -13  621.76   12.30   0
   2   2 -18  306.16   10.29   0
   3   1 -19  126.51    8.49   0
   3   4 -19  109.83    8.87   0
   5   2 -21   84.36    8.34   0
  -1   4  -8 1830.81   19.20   0
   4  -2 -15  183.88    9.12   0
   1   6 -14  113.60    8.39   0
   3   0 -18  703.39   13.70   0
   3   2 -20  327.12   10.06   0
   6   0 -21   85.83    7.86   0
   1   5 -16  297.29   10.29   0
   2  -1 -12 1744.04   21.51   0
   2   3 -19   68.49    8.14   0
  -1   5  -9  629.02   12.30   0
   0   6 -12  471.35   11.39   0
   1   2 -16 1053.28   14.56   0
   4   0 -20  334.31   10.93   0
   4   1 -21  116.76    8.07   0
   1   3 -17  429.15   10.45   0
   1   7 -12  161.57    9.01   0
   2   5 -18  124.03    8.77   0
   2   6 -16  121.76    8.77   0
   3   3 -21  117.20    9.20   0
   6   1 -22   72.82    7.50   0
   0   7 -10  105.75    8.03   0
   2   0 -16  596.83   12.45   0
   4   2 -22  152.02    9.28   0
   1   1 -15  552.61   11.55   0
   1   4 -18  371.09   10.23   0
   2   4 -20  196.23    9.57   0
   4  -1 -19  143.72    8.50   0
   3   5 -20   94.45    8.78   0
   5   0 -22  130.70    8.96   0
  -1   6 -10  405.49   10.56   0
   0   1 -10 1514.96   18.54   0
   0   3 -15  492.57   11.07   0
   3  -2 -13  500.97   12.91   0
   3  -1 -17  535.31   12.62   0
   5   1 -23   37.01    7.69   0
   0   4 -16  401.59   10.09   0
   1   6 -17  105.85    8.66   0
   4   3 -23   39.84    7.75   0
   5  -1 -21  121.60    8.83   0
  -1   5 -12  572.21   11.81   0
   0   2 -14 1055.83   14.87   0
   0   6 -15  110.84    8.58   0
   3   4 -22  105.81    8.81   0
  -1   3 -10 1319.17   16.27   0
   1   5 -19   89.75    8.71   0
   1   7 -15   25.07    7.52   0
   2   2 -21  315.98   10.39   0
   0   7 -13  156.53    8.63   0
   3   1 -22  205.53    9.33   0
   0   5 -17  230.15    9.50   0
   1   2 -19  253.13    9.49   0
   1   3 -20  398.65   10.79   0
   2   3 -22  157.09    8.45   0
   2   5 -21   57.08    7.64   0
  -1   6 -13  186.03    8.65   0
   3   0 -21  236.47    8.95   0
   4   1 -24  152.15    9.09   0
  -1   7 -11  135.30    8.35   0
   1   4 -21  158.71    9.39   0
   3   3 -24   87.25    8.79   0
   4   0 -23  112.64    8.52   0
   2  -1 -15  550.24   12.36   0
   4   2 -25   60.69    8.49   0
  -1   4 -14  598.46   11.32   0
   1   1 -18  783.80   13.52   0
   2   4 -23   56.46    7.96   0
   0   3 -18  453.12   10.57   0
   2   0 -19  211.13    8.31   0
  -1   2  -9 1170.81   16.15   0
  -1   3 -13  485.36   10.72   0
   0   1 -13 1139.42   15.32   0
   0   4 -19   99.25    7.27   0
   0   6 -18  111.66    8.33   0
   0   7 -16  212.51    9.32   0
  -2   6  -8  613.31   12.45   0
   0   2 -17  245.53    8.79   0
   4  -1 -22  232.49   10.06   0
   5   0 -25   53.24    7.91   0
   1   5 -22  108.94    8.24   0
  -2   4  -6  706.85   13.16   0
   0   5 -20  153.95    8.50   0
   3  -1 -20  416.70   11.56   0
  -1   6 -16  295.82   10.12   0
  -1   7 -14  103.14    8.30   0
  -2   5 -10  495.81   11.14   0
   1   3 -23   55.07    8.06   0
   2   3 -25  122.38    9.10   0
   1   2 -22  266.54   10.04   0
   2   1 -23   97.13    8.13   0
   3  -2 -16 1037.09   17.18   0
   3   2 -26   97.66    8.79   0
  -2   6 -11  302.48    9.46   0
  -1   4 -17  413.85   10.11   0
  -2   4  -9  960.75   14.48   0
   1   4 -24   95.07    8.58   0
  -1   2 -12 1711.54   18.16   0
  -1   3 -16 1052.63   14.71   0
   0   7 -19   28.21    7.36   0
   1   0 -17  826.02   13.51   0
   0   3 -21  210.85    8.52   0
   0   4 -22  304.65   10.47   0
   2   4 -26   79.05    7.98   0
   3   0 -24  166.84    9.10   0
   4   1 -27   24.36    7.61   0
   0   1 -16 1615.89   17.79   0
  -2   5 -13  520.27   11.20   0
  -1   7 -17  114.25    8.64   0
   2  -1 -18  810.87   14.47   0
  -1   6 -19   97.46    8.28   0
   0   2 -20  699.30   12.69   0
   2   0 -22  552.47   11.94   0
  -2   6 -14  348.70   10.08   0
  -2   7 -12  336.33   10.11   0
   0   5 -23   58.62    7.76   0
   1   5 -25   38.73    7.77   0
  -1   2 -15  572.50   11.53   0
  -1   4 -20  373.65   10.46   0
   1   3 -26  126.03    9.21   0
   2   2 -27   16.86    7.60   0
  -1   3 -19  279.37    9.52   0
  -1   5 -21  157.80    7.95   0
   3  -1 -23  114.25    8.95   0
  -2   5 -16  548.49   11.16   0
   0   0 -12 4408.81   30.49   0
   1  -1 -13 1035.79   15.78   0
   2   1 -26  198.96    9.61   0
  -2   7 -15  127.79    8.19   0
   1   0 -20  683.06   13.00   0
   1   4 -27   34.46    7.81   0
   3   1 -28   92.59    8.19   0
   3   2 -29   66.84    7.58   0
  -2   4 -15  162.10    7.37   0
  -2   6 -17  130.99    8.20   0
  -1   7 -20  139.65    8.72   0
   0   4 -25  113.67    8.65   0
  -2   3 -11  418.60    9.78   0
   1   1 -24  263.11   10.04   0
   0   2 -23  205.67    8.51   0
   3   0 -27   57.86    8.95   0
  -1   2 -18  804.02   13.35   0
   0   5 -26  120.37    8.59   0
   2  -1 -21  296.75   10.00   0
  -1   1 -11  462.29   10.74   0
  -1   4 -23   59.17    8.27   0
   2   0 -25  160.81    8.82   0
  -2   7 -18  109.73    7.82   0
   2  -2 -14 1009.06   16.95   0
  -2   3 -14 1171.78   14.97   0
  -2   4 -18  313.93    9.50   0
  -1   3 -22  259.81    9.98   0
  -1   5 -24   77.21    8.19   0
  -3   6  -9  355.29    9.95   0
  -2   6 -20  172.54    9.14   0
   1  -1 -16 1622.32   19.15   0
   1   3 -29   74.68    8.33   0
  -3   6 -12  515.87   11.47   0
   2   2 -30   78.54    8.00   0
  -3   5  -8 1602.41   18.83   0
  -1   1 -14 1320.18   15.99   0
   0   3 -27   70.05    8.59   0
  -3   5 -11  239.88    8.82   0
   0   4 -28   54.30    7.84   0
   1   0 -23   95.54    6.99   0
  -3   7 -13  107.18    7.66   0
  -2   3 -17  521.10   10.71   0
   2   1 -29   78.15    8.80   0
  -2   5 -22  175.09    9.20   0
  -2   7 -21   63.20    7.52   0
  -1   2 -21  286.36    9.14   0
   0   2 -26  148.49    9.31   0
  -3   6 -15  143.53    7.53   0
  -2   4 -21  301.89    9.83   0
   1   1 -27   75.23    8.62   0
  -3   5 -14  338.47    9.30   0
  -1   4 -26  138.75    9.34   0
  -2   6 -23   68.34    7.79   0
  -1   1 -17  880.36   13.73   0
   2  -2 -17  252.29    9.37   0
  -3   7 -16  202.37    9.21   0
  -2   2 -10 3321.92   25.22   0
  -1   3 -25  132.64    7.97   0
  -1   5 -27   29.94    7.30   0
   1  -1 -19  231.04    8.94   0
   2  -1 -24  274.70   10.19   0
  -2   2  -7  324.84    9.60   0
   2   0 -28   78.82    8.18   0
  -3   4 -10  837.97   13.53   0
  -3   5 -17  361.22   10.28   0
  -3   6 -18  236.01    9.29   0
  -2   2 -13 1198.74   15.13   0
  -2   3 -20  427.25   10.80   0
   0   1 -25  223.29    9.63   0
  -2   5 -25  124.15    8.98   0
  -3   7 -19   90.50    8.18   0
  -2   2 -16  598.59   11.19   0
  -2   4 -24  224.43   10.27   0
   0   0 -21  622.83   12.54   0
   0   3 -30   67.63    7.72   0
   1   0 -26  245.57   10.10   0
   1   2 -31   30.47    7.16   0
  -1   1 -20  642.70   12.03   0
  -3   6 -21  121.08    7.91   0
  -1   4 -29   72.23    8.39   0
   2   1 -32   44.52    7.84   0
  -2   3 -23   84.32    7.31   0
  -1   3 -28  129.80    8.93   0
   1  -1 -22  379.37   10.82   0
   1   1 -30  109.91    8.91   0
   2  -2 -20  657.03   13.59   0
  -2   2 -19  195.34    8.72   0
  -3   4 -19  134.24    8.12   0
  -3   7 -22  110.10    8.12   0
   2  -1 -27   67.54    8.18   0
   0   1 -28  153.68    9.55   0
  -3   3 -12  977.52   14.25   0
  -3   5 -23   42.12    7.56   0
  -2   4 -27   15.64    7.83   0
  -2   5 -28   87.11    8.15   0
   0   0 -24  402.13   11.25   0
  -3   3 -15  282.26    9.20   0
  -3   6 -24   99.38    8.15   0
   2   0 -31   33.90    8.05   0
  -1   0 -13 1113.07   15.49   0
   0  -1 -14 1232.46   16.78   0
   0  -1 -11  433.77   11.07   0
  -4   6 -13  308.21    9.85   0
  -4   6 -10  534.04   12.16   0
  -3   4 -22  222.49    9.55   0
  -2   2 -22  559.74   11.57   0
  -2   3 -26  214.71    9.67   0
  -1   0 -10 1478.57   18.20   0
  -4   6 -16  292.73    9.74   0
  -4   7 -17  128.09    9.05   0
  -3   3 -18  693.92   12.24   0
   0   2 -32   69.92    8.49   0
  -1   3 -31   27.67    7.74   0
   0  -1 -17  833.09   13.98   0
   1  -1 -25  228.32    9.57   0
  -4   5 -12  773.87   13.44   0
  -4   5 -15  250.29    8.44   0
  -4   6 -19   70.91    7.70   0
  -3   5 -26   99.49    8.28   0
  -2   1 -15  571.72   11.31   0
  -2   1 -12 1765.75   18.31   0
  -3   6 -27   19.85    7.71   0
  -4   5 -18  263.97    9.49   0
  -4   5  -9  327.37    9.85   0
  -4   7 -20  104.58    8.34   0
  -3   3 -21  257.53    9.00   0
  -3   4 -25  131.49    8.80   0
  -2   4 -30   68.19    8.41   0
   0   0 -27   29.14    7.92   0
   1  -2 -15  541.30   12.34   0
  -2   1 -18  821.86   13.08   0
  -2   1  -9 1180.69   15.97   0
   0  -1 -20  672.43   13.01   0
   0   1 -31   36.73    7.81   0
  -2   3 -29   65.65    8.65   0
  -4   6 -22  164.02    8.80   0
   1  -2 -18  811.90   14.60   0
  -4   4 -14  528.05   11.46   0
  -4   7 -23   32.00    7.56   0
  -3   3 -24  156.54    9.56   0
  -2   1 -21  298.02    9.83   0
  -1   0 -22  370.05   10.02   0
  -3   2 -14 1231.57   15.55   0
   1   0 -32   61.93    8.66   0
  -4   4 -11  613.66   12.06   0
  -3   2 -17  509.60   11.22   0
  -3   5 -29   64.10    7.32   0
   1  -1 -28  161.37    9.29   0
  -3   2 -11  435.67   10.31   0
  -3   4 -28   91.66    8.83   0
  -2   2 -28   77.00    8.90   0
  -1   1 -29  109.63    9.32   0
   0  -1 -23   94.31    7.44   0
  -4   4 -20  351.96   10.54   0
  -4   6 -25   73.42    7.81   0
  -3   2 -20  389.79   10.80   0
   1  -2 -21  284.66    9.74   0
  -2   1 -24  271.02    9.95   0
  -1   0 -25  210.13    9.72   0
  -1   2 -33   36.77    7.47   0
   0   0 -30  122.67    8.81   0
  -3   3 -27   60.25    8.70   0
  -2   3 -32   52.80    8.40   0
  -4   4  -8 1377.14   17.26   0
  -4   4 -23  110.50    7.84   0
  -3   2 -23  123.96    7.69   0
  -3   2  -8 1934.82   19.62   0
  -3   6  -9  367.88   10.19   0
  -1   4 -14  624.02   11.87   0
   0   3 -15  487.27   10.97   0
   3   1 -16  782.41   14.84   0
  -3   7 -10  334.99   10.21   0
  -2   9 -11   33.55    7.05   0
  -1   6 -16  275.91    9.46   0
  -3   4  -4 2503.00   24.10   0
  -1   8 -15   21.90    7.52   0
   0   6 -18  129.92    8.99   0
  -3   5  -8 1582.49   17.73   0
  -2   5 -13  535.04   11.00   0
  -2   6 -14  351.83   10.54   0
  -1   2  -9 1187.85   16.48   0
   2   3 -19   75.50    8.04   0
  -3   9  -9  132.29    8.19   0
   1   2 -16 1031.61   14.99   0
  -4   7  -5  316.11    9.74   0
  -2   3  -8 1974.18   20.34   0
  -1   3 -13  493.36   10.64   0
   2   4 -20  179.52    9.32   0
  -3   8 -11   90.59    8.51   0
  -1   7 -17  113.68    8.50   0
   2   2 -18  322.48   10.26   0
  -4   8  -6  196.04    8.83   0
  -2   4 -12 1654.60   18.02   0
  -2   7 -15  121.14    7.82   0
   0   2 -14 1052.14   15.05   0
   0   1 -10 1486.19   18.66   0
   0   7 -19   32.61    6.82   0
  -3   7 -13  118.23    7.39   0
  -1   5 -18  359.52   10.20   0
   0   4 -19   97.23    7.40   0
  -4   7  -8  340.49   10.10   0
  -3   4  -7  639.58   12.24   0
  -3   9 -12  114.59    8.29   0
  -1   4 -17  438.79   11.23   0
   3   0 -15  286.66   10.61   0
   3   2 -20  326.79   11.30   0
  -1   6 -19   90.78    8.71   0
  -4   8  -9  137.35    8.01   0
   0   3 -18  447.76   11.44   0
   1   4 -21  151.25    8.01   0
  -4   6  -7  222.44    8.66   0
  -3   8 -14  120.93    8.19   0
  -2   5 -16  573.66   11.60   0
   0   6 -21   93.43    8.58   0
   1   1 -15  551.08   12.27   0
   1   3 -20  347.12   10.01   0
   3   4 -22   80.74    7.98   0
   1   5 -22   99.73    8.40   0
  -2   3 -11  427.82   10.50   0
  -2   7 -18  119.13    8.20   0
  -1   2 -12 1788.54   18.83   0
  -1   7 -20  140.89    8.41   0
  -4   9 -10   67.96    7.89   0
  -2   4 -15  175.81    8.12   0
  -1   3 -16 1080.57   14.82   0
   3   1 -19  139.64    8.40   0
   1   2 -19  285.73    9.80   0
   2   3 -22  160.57    9.26   0
  -4   7 -11  133.82    8.01   0
  -4   8 -12  245.99    9.59   0
   0   2 -17  244.24    8.82   0
   2   2 -21  304.67   10.38   0
  -4   6 -10  511.69   10.88   0
  -3   5 -14  321.74    9.23   0
  -1   5 -21  165.52    9.53   0
  -4   5  -6  799.70   13.76   0
  -3   8 -17   85.57    8.32   0
   0   1 -13 1105.77   15.47   0
  -1   4 -20  377.36   10.61   0
  -1   6 -22  111.44    8.42   0
  -2   5 -19   80.89    7.63   0
  -2   6 -20  186.22    9.58   0
  -4   9 -13   87.57    7.27   0
  -2   3 -14 1213.72   15.67   0
   1   4 -24   98.31    8.36   0
  -4   7 -14  283.56    9.72   0
  -2   2  -7  319.88    9.18   0
  -2   7 -21   67.43    8.09   0
  -1   2 -15  563.99   11.56   0
   1   3 -23   47.96    7.03   0
   1   5 -25   46.85    8.12   0
  -4   5  -9  321.50    9.52   0
  -4   6 -13  307.21    9.69   0
  -4   8 -15   50.40    7.54   0
  -3   4 -13  564.93   11.33   0
  -3   6 -18  218.04    8.57   0
  -3   7 -19  101.22    8.34   0
   1   1 -18  825.83   14.41   0
  -3   5 -17  340.78    9.54   0
   1   2 -22  272.20   10.16   0
   2   3 -25  121.23    8.58   0
   2   4 -26   67.83    7.27   0
  -2   2 -10 3295.82   25.28   0
  -1   5 -24   95.83    8.75   0
  -4   5 -12  765.72   13.04   0
  -4   7 -17  142.11    8.68   0
  -2   5 -22  168.18    9.47   0
  -2   6 -23   61.24    8.03   0
   1   0 -14 1279.73   17.54   0
  -1   4 -23   46.44    7.14   0
  -1   6 -25   51.72    7.06   0
   0   4 -25  118.40    8.65   0
   2   2 -24  222.59    9.99   0
  -4   6 -16  262.89    9.37   0
  -4   8 -18   84.86    8.11   0
  -2   3 -17  537.86   11.09   0
  -3   4 -16  749.76   13.11   0
  -5   8 -13  119.27    8.78   0
  -3   6 -21  113.82    7.51   0
  -2   4 -21  289.46   10.28   0
  -1   1 -11  459.41   10.44   0
   0   3 -24  260.99   10.38   0
  -3   7 -22   86.00    7.47   0
  -3   5 -20  324.39   10.12   0
  -1   3 -22  282.49    9.94   0
   1   4 -27   34.58    7.37   0
  -3   3 -12  968.77   13.93   0
  -2   2 -13 1184.88   15.01   0
  -4   4  -8 1310.61   16.65   0
   1   1 -21  276.14    9.35   0
  -4   7 -20  102.21    7.82   0
   2   0 -19  220.87    9.24   0
   2   1 -23  113.11    8.25   0
  -5   6 -11  182.22    8.17   0
  -5   8 -16  138.37    8.01   0
  -1   5 -27   21.96    7.80   0
   0   2 -23  213.35    9.44   0
  -5   7 -15   66.12    7.57   0
  -3   4 -19  136.42    7.68   0
  -2   3 -20  406.85   10.28   0
  -2   5 -25  121.93    8.17   0
  -2   6 -26   72.52    8.13   0
  -1   1 -14 1311.64   16.23   0
   0   1 -19  227.79    8.41   0
   1   2 -25  127.47    8.94   0
  -4   4 -11  588.17   11.21   0
  -1   4 -26  143.58    9.20   0
   1   0 -17  879.54   14.81   0
  -3   6 -24   96.02    8.28   0
  -3   3 -15  269.51    8.37   0
  -2   4 -24  212.79    9.82   0
  -1   2 -21  300.54    9.96   0
  -3   5 -23   44.72    7.71   0
  -2   2 -16  612.79   11.34   0
  -5   6 -14  321.91    9.43   0
   2   2 -27   25.29    7.25   0
   0   3 -27   60.62    7.74   0
  -5   7 -18  178.47    8.72   0
  -5   8 -19   33.91    7.20   0
  -4   6 -22  158.81    8.87   0
  -3   4 -22  221.08    8.74   0
  -2   3 -23  109.09    8.47   0
  -1   1 -17  887.20   13.39   0
   1   1 -24  278.72   10.39   0
   1   3 -29   75.17    7.75   0
  -5   6 -17  146.34    8.74   0
  -3   3 -18  708.48   12.23   0
  -4   5 -21  121.61    8.87   0
  -2   5 -28   70.77    8.01   0
   0   1 -22  386.92   10.95   0
  -4   4 -17  200.30    8.51   0
  -2   2 -19  207.33    8.11   0
   0   2 -26  138.28    8.79   0
   2   0 -22  559.44   12.78   0
  -5   5 -13  175.17    8.38   0
  -3   6 -27   20.59    6.70   0
   1   0 -20  672.44   13.24   0
   2  -1 -15  507.31   12.10   0
  -3   5 -26   81.11    8.35   0
  -2   4 -27   29.20    7.72   0
   1   2 -28  134.79    9.20   0
  -5   7 -21   78.51    7.85   0
  -3   2  -8 1898.41   19.41   0
  -4   6 -25   59.03    7.72   0
  -3   2 -11  420.01    9.61   0
  -5   5 -16  381.49   10.56   0
  -5   6 -20  160.17    8.95   0
  -3   3 -21  270.30    9.54   0
  -2   1  -9 1136.18   15.34   0
  -1   1 -20  661.79   12.11   0
  -1   3 -28  132.61    8.76   0
  -3   4 -25  131.05    9.19   0
   0   3 -30   72.61    8.18   0
  -4   3 -10  806.16   12.71   0
  -4   3  -7  612.74   12.01   0
  -4   4 -20  353.11    9.97   0
  -2   1 -12 1734.32   18.02   0
  -2   3 -26  208.83   10.24   0
  -4   5 -24  138.38    8.55   0
  -3   2 -14 1172.75   14.84   0
  -6   7 -16  189.65    8.40   0
   0   1 -25  228.81   10.08   0
   1   1 -27   83.15    8.30   0
  -5   5 -19  148.06    8.51   0
  -2   1 -15  552.96   11.26   0
   2  -1 -18  791.38   14.63   0
   0   2 -29   73.55    8.40   0
   1  -1 -13 1087.26   16.59   0
   1   0 -23   94.58    7.67   0
  -6   6 -12  367.19   10.38   0
  -5   6 -23   42.55    7.57   0
  -4   3 -16  741.65   12.76   0
  -3   2 -17  521.21   10.68   0
  -3   5 -29   60.04    7.33   0
  -2   4 -30   77.96    8.36   0
  -1   2 -27   81.84    7.65   0
  -3   3 -24  145.62    8.90   0
  -6   6 -15   85.08    8.09   0
  -6   7 -19   32.87    7.21   0
  -5   4 -12  788.95   13.33   0
  -4   4 -23  106.08    7.59   0
  -1   0 -10 1470.03   17.66   0
  -3   4 -28   98.30    8.71   0
  -1   0 -13 1121.49   15.32   0
  -4   5 -27   37.63    8.17   0
  -2   1 -18  809.20   12.84   0
  -2   2 -25  174.50    9.40   0
  -5   4 -15  247.06    8.40   0
  -1   3 -31   26.39    8.26   0
   1  -1 -16 1598.88   19.28   0
  -4   3 -19  137.79    7.52   0
  -3   2 -20  363.87   10.48   0
  -6   6 -18  140.84    8.28   0
  -1   0 -16 1643.98   18.02   0
  -6   7 -22   63.38    7.62   0
   0   1 -28  162.81    9.73   0
  -4   4 -26   99.16    8.61   0
  -3   3 -27   48.87    7.64   0
  -2   1 -21  274.58    8.96   0
   1   0 -26  256.45   10.06   0
  -4   3 -22  225.55    9.69   0
  -1   1 -26  238.80    9.36   0
  -1   2 -30  115.90    9.39   0
  -6   5 -14  321.92    9.88   0
  -6   5 -11  169.59    7.93   0
  -6   6 -21   94.22    8.27   0
  -5   5 -25   44.13    7.69   0
  -3   2 -23  104.30    8.20   0
   0   0 -24  389.90   11.31   0
   0   2 -32   83.00    8.70   0
   1  -1 -19  234.78    8.83   0
  -6   5 -17  181.43    8.61   0
  -4   2 -12 1637.40   17.63   0
  -2   1 -24  277.97    9.99   0
  -2   3 -32   45.30    7.67   0
  -4   2 -15  176.31    7.62   0
  -4   3 -25  127.67    9.02   0
  -3   1 -13  486.48   10.18   0
  -1   0 -22  363.14   10.62   0
  -6   5 -20  158.58    8.66   0
  -6   6 -24   87.62    7.91   0
  -4   4 -29   48.43    8.09   0
  -3   1 -16 1130.10   15.09   0
   0  -1 -14 1177.74   15.74   0
  -5   3 -14  340.53    9.78   0
  -5   4 -24  142.24    8.38   0
  -4   2 -18  321.20   10.08   0
  -3   1 -10 1334.16   15.88   0
  -3   2 -26  202.33    9.90   0
  -3   3 -30  101.07    9.01   0
   1  -1 -22  380.62   10.64   0
  -5   3 -11  237.67    8.72   0
  -1   1 -29  108.96    9.16   0
   0  -1 -17  847.95   13.83   0
   0   1 -31   30.38    7.76   0
   0   0 -27   31.48    7.85   0
  -3   1 -19  261.84    8.75   0
  -2   0 -14 1046.99   14.58   0
  -2   2 -31   29.29    8.27   0
  -6   5 -23   43.65    7.75   0
  -5   3  -8 1595.59   18.11   0
  -4   2 -21  327.09    9.72   0
  -5   3 -20  347.62    9.81   0
  -4   3 -28   93.11    8.93   0
  -3   1  -7 1478.50   17.26   0
  -2   0 -17  241.70    8.21   0
  -2   0 -11 1791.15   18.26   0
  -1   0 -25  238.41    9.65   0
   0  -1 -20  677.53   12.85   0
  -6   4 -13  309.73    9.69   0
  -5   4 -27   43.07    7.70   0
  -4   2  -6  703.88   12.63   0
  -6   4 -16  280.02    9.73   0
  -7   6 -19   28.11    7.11   0
  -3   2 -29   75.39    8.93   0
  -2   0 -20  693.80   12.72   0
   1  -1 -25  224.33   10.07   0
  -6   4 -19   73.06    7.70   0
  -6   4 -10  514.11   11.34   0
  -5   3 -23   33.03    8.10   0
  -4   2 -24  234.66    9.85   0
  -2   0  -8 2804.31   23.40   0
  -7   6 -16  193.52    9.25   0
  -6   5 -17  182.90    8.50   0
  -4   4 -20  354.68   10.16   0
  -3   4 -22  222.05    9.07   0
  -6   4 -13  311.83    9.41   0
  -6   7 -22   73.00    7.56   0
  -5   4 -18  264.74    9.50   0
  -3   1  -4 3031.85   25.65   0
  -6   6 -21   97.38    8.69   0
  -1   1 -14 1219.09   16.56   0
  -4   6 -25   69.68    8.04   0
  -1   3 -22  256.31   10.17   0
  -7   7 -20  115.36    7.58   0
  -5   3 -14  347.86   10.13   0
  -4   2 -12 1725.63   18.18   0
  -2   1 -12 1785.36   19.03   0
  -7   4  -2  515.46   11.84   0
  -6   3  -3  384.86    9.99   0
  -5   5 -22  125.43    8.35   0
  -4   5 -24  143.77    8.86   0
  -3   1  -7 1621.02   18.27   0
  -2   4 -24  208.18    9.44   0
  -7   4  -5  325.69    9.68   0
  -7   5 -15   59.18    7.84   0
  -6   3  -6  629.21   12.07   0
  -3   3 -21  253.09    9.87   0
  -7   6 -19   34.53    7.74   0
  -6   4 -16  279.13    9.86   0
  -6   5 -20  164.52    9.49   0
  -2   2 -19  209.18    9.15   0
  -8   6 -14  109.01    8.37   0
  -7   4  -8  339.21    9.86   0
   0   1 -16 1542.19   19.20   0
   0   2 -20  632.40   13.23   0
  -9   7 -10   85.95    7.14   0
  -3   5 -26   93.68    8.22   0
  -6   3  -9  342.69    9.19   0
  -5   2  -4 2008.31   20.12   0
  -3   1 -10 1390.59   16.59   0
  -2   3 -23   93.45    8.09   0
  -8   5  -7  101.24    7.70   0
  -5   4 -21  121.23    9.65   0
  -5   2  -7  335.26    8.94   0
  -5   2  -1  701.93   13.00   0
  -5   3 -17  380.22   10.81   0
  -4   2 -15  176.62    7.88   0
  -7   4 -11  124.41    7.18   0
  -6   6 -24   85.54    8.37   0
  -3   4 -25  122.79    8.91   0
  -2   1 -15  567.58   11.69   0
  -1   2 -21  277.50    9.60   0
  -8   5 -10  171.77    8.70   0
  -7   5 -18  188.61    9.30   0
  -1   1 -17  865.20   14.16   0
  -6   4 -19   74.63    8.31   0
  -5   2 -10  524.00   10.55   0
  -7   6 -22   73.30    7.80   0
  -6   5 -23   46.21    7.87   0
  -3   1 -13  505.47   10.51   0
  -8   5 -13  124.91    8.29   0
  -4   5 -27   27.65    7.29   0
  -9   6  -9   55.32    6.65   0
  -6   3 -15  166.50    8.39   0
  -5   2 -13  557.94   11.49   0
  -2   2 -22  581.60   12.84   0
  -5   3 -20  373.86   10.46   0
  -7   5 -21  110.98    8.75   0
  -5   4 -24  144.04    8.73   0
  -4   4 -26  124.87    8.97   0
  -9   6 -12  131.92    8.37   0
  -4   1  -8 1911.19   18.70   0
  -8   5 -16  142.71    8.34   0
  -7   4 -17  128.97    8.48   0
   0   1 -19  216.39    8.51   0
  -6   4 -22  161.30    9.89   0
  -4   1  -2 1157.15   15.94   0
  -3   1 -16 1095.89   14.85   0
  -2   3 -26  199.04   10.13   0
  -4   1 -11  323.44    8.83   0
  -6   3 -18  245.55   10.03   0
  -5   2 -16  602.81   11.61   0
  -7   3  -7  291.81    9.22   0
  -3   4 -28   79.08    8.26   0
  -2   0  -8 2921.18   24.35   0
  -1   1 -20  612.90   11.85   0
  -8   4  -6  187.44    8.54   0
  -3   2 -23  108.15    8.82   0
  -1   2 -24  257.00    9.53   0
  -8   4  -9  157.87    8.37   0
  -7   3 -10  347.35    9.42   0
  -4   3 -25  137.34    8.44   0
  -5   3 -23   42.35    7.20   0
  -4   1 -14  649.83   12.12   0
  -8   4 -12  257.67    9.72   0
  -7   4 -20   99.64    7.98   0
  -6   2  -8  635.92   11.61   0
  -6   2  -5  286.68    9.02   0
  -2   0 -11 1748.90   18.27   0
  -7   3 -13  116.94    8.17   0
  -3   3 -27   59.29    7.94   0
  -6   2 -11  305.32    9.13   0
  -5   2 -19   87.34    8.05   0
  -5   4 -27   35.70    8.04   0
  -3   1 -19  277.87    9.23   0
  -2   1 -21  297.56    9.79   0
  -2   2 -25  152.79    8.82   0
  -6   4 -25   84.12    8.34   0
   0   0 -15  151.91    7.23   0
  -9   5 -11   43.62    6.67   0
  -8   4 -15   60.63    7.76   0
  -4   4 -29   46.82    7.70   0
  -2   0 -14 1067.66   14.48   0
  -1   0 -16 1516.73   17.58   0
  -9   5 -14   53.37    7.46   0
  -7   4 -23   35.68    7.70   0
  -5   1  -6 1025.44   14.45   0
  -3   0  -9  483.29   10.70   0
  -3   0  -6 1851.95   18.95   0
  -1   1 -23   96.82    7.31   0
  -8   4 -18   89.18    7.98   0
  -6   2 -17  145.36    8.94   0
  -5   1 -12  565.89   11.16   0
  -5   2 -22  178.21   10.12   0
  -4   3 -28   97.60    9.43   0
  -3   0 -12 1517.99   16.94   0
  -3   2 -26  211.64   10.27   0
  -7   3 -19   96.47    8.84   0
  -6   3 -24  118.96    9.18   0
  -2   0 -17  255.45    8.31   0
  -5   1 -15  155.19    8.45   0
  -5   1  -3  312.50    9.14   0
  -4   1 -20  392.52   10.48   0
  -2   1 -24  259.04    9.64   0
   0   0 -18  507.63   11.31   0
  -1   0 -19  216.74    7.92   0
  -3   3 -30  106.00    8.59   0
  -6   2 -20  186.21    8.75   0
  -2   2 -28   83.57    7.71   0
  -8   3 -11   88.08    7.73   0
  -8   3  -8  310.45    9.97   0
  -7   2  -9  126.40    7.92   0
  -7   3 -22  105.67    8.23   0
  -4   2 -27   35.74    8.22   0
  -8   3 -14  113.33    8.27   0
  -7   2 -12  347.45   10.54   0
  -4   0 -10 1151.96   15.03   0
  -7   2  -6  318.84    9.70   0
  -4   1 -23   75.38    8.44   0
  -3   1 -25  149.15    9.14   0
  -7   2 -15  148.51    8.84   0
  -6   3 -27   27.03    7.73   0
  -4   0 -13  649.84   11.68   0
  -3   2 -29   66.21    8.15   0
  -1   1 -26  237.88    9.38   0
  -8   3 -17   78.30    7.86   0
  -6   1 -10  422.15   10.62   0
  -6   2 -23   86.03    8.61   0
  -4   0 -16  420.72   10.79   0
  -1   0 -22  359.90   10.38   0
   0   0 -21  600.60   12.33   0
  -6   1  -7  342.36    9.81   0
  -2   1 -27   76.36    8.23   0
  -4   0  -4 1384.22   16.89   0
  -6   1 -16  294.13   10.22   0
  -2   0 -23  211.59    9.28   0
  -1  -1 -12 1708.07   18.10   0
  -1  -1  -9 1138.01   15.60   0
  -8   3 -20   94.08    7.94   0
  -4   0 -19  107.64    7.53   0
  -6   1  -4  681.97   12.67   0
  -4   2 -30   71.33    8.46   0
  -2  -1 -13  501.40   10.90   0
  -2  -1 -10 1395.51   16.14   0
  -7   2 -21   54.98    7.87   0
  -6   1 -19   95.48    8.63   0
  -6   2 -26   92.25    9.03   0
  -5   1 -24  114.29    8.91   0
  -3   1 -28  150.33    9.73   0
   0  -1 -14 1188.39   16.11   0
  -5   0 -14  541.00   11.85   0
  -2  -1 -16 1064.38   14.38   0
  -2  -1  -7 1523.88   17.21   0
  -5   0  -8  598.05   11.80   0
  -1  -1 -18  766.46   13.07   0
  -4   0 -22  339.00   11.19   0
  -1   0 -25  203.28    9.07   0
  -5   0 -17  236.19    8.81   0
  -3  -1 -11  310.40    8.83   0
   0  -1 -17  808.73   13.71   0
  -6   1 -22  127.60    9.44   0
  -2   0 -26  149.58    9.01   0
  -8   2 -13  144.79    8.70   0
  -8   2 -10  141.09    7.90   0
  -4   0  -1 1237.89   17.03   0
  -3  -1  -8 1915.88   18.97   0
  -2  -1 -19  255.61    8.64   0
  -8   2 -16  119.94    8.12   0
  -5   0  -5  631.10   12.13   0
  -7   1 -14  121.00    8.38   0
  -7   1 -11  128.59    8.06   0
  -5   0 -20  177.43    9.86   0
  -5   1 -27   36.40    8.89   0
  -4   1 -29   66.05    8.52   0
  -1  -1 -21  289.08    9.38   0
  -7   1 -17  116.34    8.52   0
  -4   0 -25  133.43    9.77   0
  -2  -1  -4 3127.87   25.50   0
  -7   1  -8  493.96   11.60   0
  -3  -1 -20  396.81   11.16   0
  -3   0 -27   81.61    8.44   0
   0  -1 -20  614.83   12.33   0
  -6   1 -25   36.70    7.78   0
  -3   1 -31   22.82    7.37   0
  -2  -1 -22  260.71    8.96   0
  -4  -1 -15  152.12    8.60   0
  -4  -1 -12  584.88   11.35   0
  -6   0 -12  482.73   11.65   0
  -5   0 -23   55.19    8.08   0
   1  -1 -16 1475.57   19.36   0
  -6   0 -18  123.77    9.04   0
  -6   0  -9  222.24    8.90   0
  -5   0  -2 1009.77   15.58   0
  -3  -1 -23   61.96    8.23   0
  -2   0 -29   58.70    8.40   0
  -1  -1 -24  272.01    9.78   0
  -4  -1 -21  176.68   10.22   0
  -4   0 -28   58.77    8.52   0
  -2  -1 -25  145.04    9.34   0
   0  -1 -23   97.53    7.69   0
  -6   0 -21  101.61    8.68   0
  -5   0 -26  134.65    9.77   0
  -4  -1  -6 1034.86   14.70   0
  -6   0  -6  295.99    9.51   0
   1  -1 -19  209.88    8.59   0
  -3   0 -30   71.14    8.95   0
  -1  -2 -14 1228.68   15.80   0
  -5  -1 -16  309.68   10.40   0
  -2  -2 -15  178.39    8.36   0
  -3  -1 -26  151.71    9.85   0
  -2  -2 -12 1725.06   17.77   0
  -1  -2 -11  444.69    9.96   0
  -5  -1 -19   96.97    9.29   0
  -5  -1 -10  415.10   10.29   0
  -4  -1 -24   95.33    9.34   0
  -8   1 -15   30.70    7.53   0
  -6   0 -24  108.91    8.35   0
  -3  -1  -2 1159.73   15.96   0
  -2  -2  -9  979.48   14.12   0
  -1  -2 -20  401.73   10.86   0
  -1  -1 -27   77.68    7.85   0
   0  -2 -16  574.29   11.78   0
  -3  -2 -16  590.54   11.86   0
  -3  -2 -13  562.16   11.29   0
  -2  -1 -28  126.93    9.42   0
  -7   0 -16  185.01    9.32   0
  -7   0 -13  154.51    9.01   0
  -5  -1 -22  116.90    9.30   0
  -1  -2  -8 1965.17   19.55   0
  -5  -1  -7  341.57    9.47   0
  -4  -1  -3  342.71    9.70   0
  -3  -2 -19   85.96    7.52   0
  -3  -2 -10  527.83   11.47   0
   0  -2 -19  202.82    8.69   0
  -7   0 -19   16.15    8.07   0
   0  -2 -10 3112.45   25.03   0
  -3  -1 -29   77.36    8.68   0
  -1  -2 -23  109.70    8.39   0
  -2  -2 -24  242.11   10.67   0
  -2  -2  -6  697.69   12.53   0
  -6  -1 -14  116.69    8.97   0
  -5  -1 -25   71.79    9.13   0
  -4  -2 -17  137.88    8.39   0
   0  -2 -22  560.78   12.35   0
  -3  -2  -7  336.35    9.21   0
  -6  -1 -20  165.47    9.55   0
  -6  -1 -11  110.36    8.61   0
  -5  -1  -4  700.05   13.07   0
  -2  -1 -31   22.60    7.97   0
   1  -2 -15  525.37   11.97   0
  -1  -2 -26  212.25    9.57   0
  -1  -2  -5 1965.67   20.21   0
   0  -2  -7  308.67    9.17   0
   1  -2 -18  784.10   14.20   0
  -6  -1  -8  500.57   12.07   0
  -4  -2 -23   70.97    9.42   0
  -4  -2  -8  650.82   12.82   0
  -2  -2 -27   30.13    8.62   0
   0  -2 -25  167.83    8.68   0
  -5  -2 -18  128.31    9.21   0
  -2  -3 -17  372.56   10.52   0
  -2  -3 -14  356.95    9.97   0
   8  -4  -9  162.02    9.66   0
   5   3  -1  195.98    9.26   0
   8   1  -2  121.70    9.84   0
   9  -4  -8  251.50   10.69   0
   9  -1  -5   53.26    9.15   0
   4   4   3  165.00    9.50   0
   5  -3 -10  489.76   12.84   0
   7   2  -1   47.06    7.99   0
   9  -2  -7   90.51    9.06   0
   5   1  -8  557.84   12.70   0
   6   0  -9  307.01   10.10   0
   6   1  -7  111.63    8.43   0
   2   0  -7  326.24   10.34   0
   7   0  -8  424.42   11.46   0
   6   3   0  260.22   10.69   0
   7   1  -6  129.39    9.98   0
   8  -3 -10  162.90    9.51   0
   5  -2 -11  242.47    9.84   0
   5   0 -10  565.20   12.20   0
   2   4   1  545.71   12.63   0
   3   0  -9 1214.14   16.42   0
   6   2  -5  137.36    8.59   0
   7  -3 -11  120.78    8.94   0
   9  -3  -9   59.81    8.72   0
   4   1  -9  356.79   10.07   0
   4   2  -7  235.74    8.92   0
   8   0  -7   89.49    8.46   0
   2   2  -6  732.60   12.92   0
   4   4   0  433.75   12.07   0
   5   3  -4  390.34   11.76   0
   8   1  -5   62.24    8.37   0
   2   3  -4 2068.99   21.05   0
   3   4  -1  200.24    9.18   0
   4   3  -5  342.74   10.82   0
   1   2  -4 3110.44   27.01   0
   1   3  -2 1209.31   17.09   0
   6  -3 -12  506.78   12.60   0
   7  -2 -12  252.08   10.57   0
   8  -2 -11   74.22    8.43   0
   4   0 -11  627.56   12.13   0
   5   4   1  119.10    9.08   0
   6   3  -3  133.38    9.76   0
   3   2  -8 1643.27   18.03   0
   2   1  -8 1998.22   20.62   0
   6   1 -10  193.23   10.14   0
   9  -2 -10   96.89    9.03   0
   7   0 -11   69.29    8.98   0
   7   1  -9  100.85    9.41   0
   5   1 -11  183.53    9.02   0
   5   2  -9  320.02   10.90   0
   6  -2 -13  302.41   10.59   0
   6   0 -12  379.78   11.29   0
   6   2  -8  269.65   10.51   0
   3   1 -10  818.62   13.27   0
   2   4  -2  798.90   14.14   0
   8   0 -10   94.48    8.84   0
   1   4   0 1296.06   18.22   0
   7  -1 -13  190.49   10.28   0
   7   2  -7   98.87    9.09   0
   4   2 -10  568.26   12.30   0
   5   4  -2   98.36    8.35   0
   8  -3 -13  129.23    9.25   0
   3  -2 -10 1326.99   19.29   0
   3  -1 -11  406.38   10.73   0
   5   0 -13  171.65    8.44   0
   9  -3 -12  129.44    8.52   0
   3   4  -4  471.27   11.80   0
   6   3  -6  100.00    8.87   0
   4  -3 -11  339.88   11.20   0
   4   1 -12  750.72   12.99   0
   6  -1 -14  308.72    9.93   0
   4  -1 -13  539.24   11.47   0
   7  -3 -14  271.71   10.61   0
   5  -3 -13  547.02   13.04   0
   5  -2 -14  323.70   10.62   0
   8  -2 -14  117.34    8.81   0
   2   2  -9  975.02   14.07   0
   3   0 -12  950.54   14.26   0
   1   3  -5  985.09   14.99   0
   6   1 -13  207.05   10.19   0
   6   2 -11   82.05    8.78   0
   7  -2 -15   49.33    8.33   0
   7   1 -12  195.59    9.71   0
   2   0 -10 3306.34   26.39   0
   3   2 -11  255.29    8.72   0
   3   3  -9  363.35    9.76   0
   4   4  -6  210.77    9.81   0
   5   4  -5  107.87    8.59   0
   7   0 -14   86.85    8.89   0
   2   4  -5  286.00    9.40   0
   4   0 -14  541.28   11.83   0
   5   2 -12  251.31    9.58   0
   7   2 -10   93.55    8.89   0
   5   1 -14  328.73   10.83   0
   6   0 -15   98.37    8.84   0
   8   0 -13   70.81    7.98   0
   1   2  -7 1594.11   18.29   0
   5   3 -10  157.96    9.27   0
   1   4  -3  338.79    9.94   0
   3   4  -7  313.49   10.17   0
   6  -3 -15  146.15    9.24   0
   3   1 -13  578.42   12.01   0
   3   5  -2  205.08    9.41   0
   8  -1 -15   49.62    8.30   0
   2   1 -11  440.64   10.23   0
   4   2 -13  325.67    9.76   0
   4   3 -11  131.30    8.81   0
   7  -1 -16  164.03    9.63   0
   4   1 -15  239.30    8.98   0
   5   4  -8  256.37    9.92   0
   2   3 -10  534.45   11.34   0
   2   5  -3  386.68   11.16   0
   4   4  -9  168.13    9.14   0
   6  -1 -17  158.67    8.38   0
   4   5  -4  277.11    9.94   0
   6   2 -14  108.68    8.74   0
   7   1 -15   38.57    7.99   0
   2   4  -8  658.48   12.58   0
   3   3 -12  507.30   11.56   0
   6   1 -16  177.57    9.78   0
   2   2 -12 1688.71   18.27   0
   3   5  -5  157.33    8.44   0
   5   2 -15   68.74    8.33   0
   8  -2 -17   68.65    8.21   0
   1   1  -9 1147.74   15.89   0
   3  -1 -14 1201.19   16.68   0
   3   2 -14  338.33   10.16   0
   4  -2 -15  179.81    8.50   0
   4  -1 -16  721.72   13.51   0
   5   3 -13  129.45    9.03   0
   6   3 -12  148.73    8.85   0
   1   4  -6 1041.14   15.30   0
   3   4 -10  348.94   10.62   0
   5   1 -17  169.56    9.18   0
   7  -2 -18  186.66    9.43   0
   0   4  -1 1236.69   18.66   0
   5  -2 -17  345.71   10.80   0
   4   3 -14  297.58   10.64   0
   1   2 -10 1345.32   16.31   0
   3  -2 -13  480.33   11.91   0
   4   2 -16  281.95   10.40   0
   4   5  -7   63.07    8.69   0
   5  -1 -18  245.37    9.19   0
   5   4 -11   50.18    8.22   0
   2   0 -13 1162.50   15.59   0
   2   5  -6  330.36   10.31   0
   3   1 -16  724.60   13.20   0
   4   4 -12  270.61   10.17   0
   7  -1 -19   29.90    7.61   0
   3   5  -8  339.60   10.68   0
   4  -3 -14  621.46   13.94   0
   1   5  -4  709.92   13.52   0
   2  -1 -12 1672.34   20.00   0
   2   1 -14 1196.77   15.51   0
   2   3 -13  540.18   11.09   0
   2   4 -11  300.75    9.77   0
   4   1 -18  251.53   10.01   0
   6  -2 -19   69.13    8.06   0
   6   2 -17   72.12    8.53   0
   3   3 -15  149.99    8.96   0
   5   3 -16  158.23    9.11   0
   1   4  -9  661.87   12.51   0
   5   2 -18  189.41    9.37   0
   6  -1 -20  144.79    8.99   0
   0   4  -4 1412.95   18.29   0
   1   3 -11  322.82    9.21   0
   2   2 -15  169.65    7.84   0
   2   5  -9  126.42    8.30   0
   3   2 -17  362.42    9.98   0
   4   5 -10   76.90    8.34   0
   7   0 -20  103.92    8.62   0
   5   4 -14   61.19    7.75   0
   4   3 -17  135.75    8.28   0
   5   1 -20  149.98    9.64   0
   1   1 -12 1735.53   18.53   0
   1   5  -7  353.39   10.24   0
   3   5 -11   95.91    8.11   0
   6   0 -21   95.18    8.82   0
   4  -1 -19  122.42    7.46   0
   4   2 -19   68.43    8.66   0
   1   2 -13  482.64   10.79   0
   3  -1 -17  528.25   12.04   0
   4   0 -20  335.11   10.52   0
   7  -2 -21   81.12    8.38   0
   1   0 -11  425.41   10.45   0
   4  -2 -18  318.87   10.38   0
   0   2  -8 2897.37   24.83   0
   5  -2 -20  332.50   10.91   0
   5  -1 -21  129.98    8.87   0
   2   3 -16  592.25   12.31   0
   3   1 -19  118.29    7.66   0
   7  -1 -22   75.10    8.94   0
   0   4  -7  280.46    8.56   0
   2   1 -17  509.13   11.50   0
   3   3 -18  241.13    9.91   0
   3   4 -16  203.14    9.47   0
   4   5 -13  101.07    8.47   0
   4   1 -21  127.37    9.15   0
   5   3 -19   41.93    8.20   0
   0   3  -9  472.90   10.36   0
   1   3 -14  624.43   12.18   0
   5   0 -22  128.31    8.76   0
   5   2 -21   95.10    8.40   0
   1   5 -10  419.59   10.94   0
   3  -2 -16 1077.68   16.76   0
   3   5 -14  130.01    8.54   0
   6  -2 -22  147.93    9.28   0
   0   5  -5  629.55   12.68   0
   2  -1 -15  548.47   11.95   0
   2   2 -18  314.11    9.59   0
   3   2 -20  348.91   10.12   0
   4   3 -20  101.07    8.68   0
   6  -1 -23   36.75    8.93   0
   4   4 -18   85.95    8.38   0
   0   4 -10 1149.35   15.51   0
   1   1 -15  547.50   11.07   0
   2   4 -17  127.27    8.49   0
   4   2 -22  161.86    8.69   0
   1   2 -16 1095.93   14.66   0
   2   6 -10  150.83    8.60   0
   6   0 -24   84.05    7.94   0
   0   2 -11 1785.71   18.60   0
   1   4 -15  148.77    8.08   0
   2   5 -15  142.88    8.78   0
   0   5  -8  580.67   12.13   0
   1   5 -13  201.38    8.91   0
   1   6  -8  479.11   11.74   0
   2   3 -19   76.19    7.26   0
   3   0 -21  248.41    8.93   0
   3   4 -19   97.33    8.07   0
   4  -1 -22  215.92    9.47   0
   0   3 -12 1467.54   16.67   0
   3   3 -21  119.14    8.70   0
   3  -1 -20  400.53   10.99   0
   3   5 -17   79.75    8.26   0
   1   3 -17  428.84   10.24   0
   5  -1 -24  145.23    9.14   0
   0   1 -10 1486.20   17.91   0
   2   0 -19  201.30    8.81   0
   4  -2 -21  325.39   11.17   0
   5   0 -25   66.35    8.54   0
   2   2 -21  297.55   10.03   0
   2   6 -13  134.52    8.19   0
   3   2 -23   38.07    8.16   0
   4   3 -23   46.84    7.82   0
   0   5 -11  207.99    8.42   0
   1   6 -11  113.04    7.66   0
   2   4 -20  185.46    8.47   0
   2   5 -18  106.15    8.68   0
   0   2 -14 1033.02   14.43   0
   1   4 -18  387.65   10.82   0
   1   5 -16  325.09   10.50   0
   2  -2 -14 1003.91   16.71   0
   2  -1 -18  794.45   13.96   0
   3  -2 -19  285.85   10.30   0
   0   3 -15  499.43   11.08   0
   1   1 -18  786.27   12.86   0
   1   2 -19  264.03    8.72   0
   3   4 -22  110.40    8.82   0
   4   2 -25   70.98    7.48   0
   2   3 -22  172.09    9.34   0
  -1   4  -5 1020.84   15.76   0
   3   5 -20  102.87    7.92   0
   0   6  -9  221.58    8.52   0
   1   3 -20  390.35   10.68   0
   3   3 -24  115.84    8.79   0
   0   1 -13 1155.30   15.20   0
   0   5 -14  526.79   11.63   0
   1   6 -14  119.37    8.38   0
   2   6 -16  131.92    8.54   0
   3   0 -24  156.68    8.98   0
   0   4 -16  400.27   10.31   0
   1  -1 -13 1060.70   16.37   0
   3   1 -25  132.99    8.74   0
   4   0 -26  116.47    8.38   0
  -1   4  -8 1854.27   19.21   0
   4  -1 -25  137.82    8.75   0
   3  -1 -23   98.44    7.93   0
  -1   5  -6  998.12   15.38   0
   2   0 -22  543.46   11.53   0
   2   2 -24  233.07    9.74   0
   4   1 -27   35.27    7.54   0
   0   6 -12  461.84   11.27   0
   2   4 -23   79.93    8.05   0
   3   2 -26   93.12    8.13   0
   5  -1 -27   32.13    8.28   0
   0   2 -17  248.66    8.33   0
   1   4 -21  153.73    8.05   0
  -1   3 -10 1292.69   15.87   0
  -1   5  -9  624.93   12.03   0
   0   3 -18  443.21   10.21   0
   1   2 -22  246.92    8.82   0
   1   6 -17  125.95    7.93   0
   0   5 -17  227.06    9.13   0
   2   3 -25  117.09    8.73   0
   0   1 -16 1637.88   17.89   0
   0   4 -19   92.44    7.04   0
   1   3 -23   67.01    7.04   0
   2  -1 -21  282.35    9.73   0
  -1   5 -12  594.66   11.77   0
   0   6 -15  100.02    7.91   0
   2  -2 -17  246.19    8.97   0
   3   3 -27   21.18    7.26   0
  -1   2  -9 1140.70   15.49   0
  -1   3 -13  461.79    9.97   0
   3  -2 -22  270.01    9.86   0
  -1   4 -14  599.08   11.11   0
   1  -1 -16 1596.87   19.01   0
   1   0 -20  657.48   12.02   0
  -1   6  -7  318.59    9.61   0
   3   1 -28   78.43    8.36   0
   7  -4  -4  484.04   12.01   0
   9  -8  -1   60.47    8.53   0
   9  -4   4  311.24   11.26   0
   7  -3  -2  589.49   13.06   0
   7  -1   8  533.21   12.48   0
   8  -6  -4  316.09   11.42   0
   8  -3   2  218.97   10.42   0
   8  -2   7  100.18    9.21   0
   9  -3   9  137.89    9.24   0
   5  -5  -8  579.49   12.95   0
   6   0   9  233.43    9.69   0
   9  -7  -2  135.52    9.97   0
   7  -5  -6  314.65   10.78   0
   4  -2  -6  714.49   12.95   0
   4   1   6 1075.17   17.22   0
   5  -2  -5  673.92   12.77   0
   7  -2   0  523.98   12.39   0
   5  -3  -7  342.38   10.26   0
   7  -1   5  190.35    9.65   0
   9  -3   6  142.86    9.55   0
   4  -1  -4 2671.65   23.52   0
   5   0   2 1105.93   16.14   0
   8  -4  -3  156.93    9.80   0
   9  -4   1  115.48    9.35   0
   6  -3  -6  645.53   12.95   0
   8  -2   4  374.07   11.53   0
  10  -6   1   45.36    8.25   0
   6   0   6  313.66   10.47   0
   8  -7  -6  149.47    9.78   0
  10  -5   3   46.57    8.43   0
   3  -1  -5 1994.73   21.32   0
   5  -1  -3  824.95   13.43   0
   6  -2  -4  785.73   13.35   0
   9  -8  -4   98.55    9.58   0
   7  -6  -8  477.53   12.59   0
   7  -3  -5  345.76   10.84   0
   7  -4  -7  320.79   10.50   0
   7  -1   2  227.18    9.76   0
   8  -6  -7   76.51    8.19   0
   9  -2  11   30.52    7.17   0
   4   0  -2 1510.82   17.75   0
   6  -1  -2  709.71   13.36   0
   9  -5  -4  284.07   10.85   0
   3   0  -3  507.62   11.43   0
   6   0   3  341.77   10.61   0
   7  -2  -3  117.33    8.06   0
   8  -1   9  151.55    9.46   0
   9  -4  -2  101.79    8.73   0
  10  -6  -2   93.96    8.55   0
  10  -5   0  141.45    9.42   0
   4   1   3  343.89   10.33   0
   5   1   7  344.04   10.94   0
   9  -2   8  125.12    8.66   0
   8  -4  -6  215.72   10.40   0
   7  -5  -9  132.98    8.95   0
   9  -6  -6  116.00    8.94   0
  10  -4   2   92.71    8.49   0
   8  -3  -4  384.32   10.85   0
   8  -1   6  157.89    9.53   0
   9  -3   0  227.88   10.37   0
   4  -4 -10 1093.92   16.94   0
   9  -2   5  126.35    8.89   0
   5  -2  -8 1629.73   18.01   0
   7   0   7  108.62    8.54   0
   6  -3  -9  353.52   10.00   0
   6  -2  -7  224.00    8.79   0
   5   1   4  740.73   13.98   0
   8  -2  -2  182.27    8.85   0
  10  -5  -3   49.68    8.24   0
   4  -1  -7  654.17   12.13   0
   7  -3  -8  363.10   10.83   0
   9  -4  -5   97.12    8.92   0
   4  -2  -9  954.04   14.42   0
   5  -5 -11  182.06    8.87   0
   8  -1   3   78.11    8.74   0
   9  -7  -8  102.38    9.37   0
  10  -4  -1   60.59    8.14   0
   6  -1  -5  404.30   10.36   0
   7  -2  -6  422.33   11.54   0
   9  -2   2  134.72    9.28   0
   6  -4 -11  292.49   10.16   0
   7   0   4  511.06   12.57   0
   9  -3  -3  140.14    9.21   0
   3   1  -1  808.13   13.83   0
   4   1   0 1366.79   17.22   0
   7  -6 -11  115.72    8.72   0
   8  -6 -10  138.78    8.65   0
   8  -3  -7  104.97    9.30   0
   4   0  -5  382.19    9.73   0
   5   0  -4  888.31   14.20   0
   8  -4  -9  146.94    9.58   0
   9  -6  -9  119.96    9.30   0
   3  -1  -8 1977.22   20.29   0
   4  -3 -11  315.93    9.85   0
   7  -1  -4  530.63   12.54   0
   8  -1   0  308.23   10.65   0
   5  -4 -12  548.54   12.45   0
   5   1   1  306.70    9.91   0
   8  -2  -5  150.82    9.66   0
   6   1   5  168.59    9.23   0
   7  -5 -12  335.59   10.86   0
   7   0   1  188.72    9.24   0
   3   0  -6 2509.86   22.44   0
   8  -5 -11   82.91    8.82   0
   9  -4  -8  243.39    9.90   0
   6  -2 -10  568.99   11.68   0
   9  -3  -6  102.97    8.90   0
   9  -5 -10   79.93    8.60   0
   3   2   4 1959.44   23.22   0
   5  -2 -11  232.76    8.48   0
   5  -1  -9  333.78    9.42   0
   6  -5 -13  165.27    8.73   0
   6  -1  -8  564.00   12.08   0
   7  -3 -11  143.42    8.86   0
   7  -2  -9  326.50   10.82   0
   9  -1   4  102.90    8.89   0
   4   1  -3  800.89   13.60   0
   6   1   2  226.44    9.29   0
   7   0  -2  146.41    8.98   0
   8  -3 -10  168.82    9.57   0
   9  -2  -4  158.14    9.28   0
   4  -1 -10  840.90   13.25   0
   5   1  -2  688.60   13.05   0
   7  -4 -13  115.83    8.62   0
   7  -1  -7  102.62    8.39   0
   3   1  -4 2609.68   23.10   0
   5  -3 -13  508.68   11.88   0
   8  -2  -8  298.63   10.69   0
   9  -6 -12  108.22    9.33   0
   9  -1   1   83.94    7.90   0
   4   0  -8 1366.10   16.26   0
   6  -4 -14  345.90   10.83   0
   8   0   2  162.78    9.86   0
   4  -4 -13  594.26   13.33   0
   9  -4 -11   52.53    8.20   0
   9  -3  -9   68.27    8.54   0
   6   1  -1  274.99    9.99   0
   2   0  -7  318.23    9.31   0
   3   2   1  777.43   14.25   0
   3  -3 -12 1411.16   18.93   0
   8  -5 -14  119.98    9.19   0
   7   0  -5  188.67    8.44   0
   1   2  -7 1480.21   17.07   0
   2   2 -12 1692.61   17.61   0
   2   3  -4 2044.84   20.60   0
   3   2 -14  336.14    9.80   0
   4   3  -8  349.51   10.07   0
   4  -1 -22  218.07    9.17   0
   6   0 -21   84.55    7.81   0
   7   0 -20  104.10    8.53   0
   7   2 -10   87.34    7.37   0
   5   3  -7  106.59    8.08   0
   1   1 -12 1707.99   17.82   0
   3   3  -9  358.02    9.92   0
   6   2 -14  108.42    8.20   0
   4   2 -16  293.45    9.98   0
   5   0 -22  132.42    8.65   0
   6   1 -19   45.43    7.48   0
   2   3  -7  344.86    8.99   0
   6  -2 -25   75.37    8.12   0
   4   3 -11  140.13    8.35   0
   5  -1 -24  133.01    8.94   0
   5   1 -20  160.45    8.43   0
   3   1 -19  139.03    7.44   0
   5   3 -10  171.29    8.57   0
   1   2 -10 1340.07   15.75   0
   4  -2 -24  219.71    9.24   0
   2   2 -15  165.70    7.38   0
   3   2 -17  364.93    9.73   0
   4   1 -21  135.87    8.73   0
   5   2 -18  191.29    9.32   0
   6   3  -9   64.62    8.09   0
   4   3 -14  303.43   10.33   0
   5   3 -13  131.54    8.83   0
   6   0 -24   87.01    7.90   0
   1   1 -15  563.28   11.28   0
   4   2 -19   65.46    8.34   0
   5  -2 -26   85.83    8.06   0
   1   3  -5 1044.19   15.26   0
   1   3  -2 1218.59   17.38   0
   3  -1 -23   90.03    7.72   0
   6   1 -22   89.50    7.94   0
   1  -1 -16 1502.79   18.57   0
   1   2 -13  496.39   10.27   0
   4  -1 -25  132.33    8.41   0
   2  -2 -20  658.58   13.21   0
   2   3 -13  569.61   11.64   0
   3   3 -15  161.47    8.29   0
   5   1 -23   51.36    7.96   0
   6   3 -12  143.16    8.19   0
   1   0 -17  821.37   13.49   0
   2  -1 -21  261.46    9.20   0
   2   1 -20  363.52   10.19   0
   3   1 -22  226.22    9.59   0
   1  -2 -15  501.15   12.75   0
   2   2 -18  324.02    9.30   0
   3   2 -20  366.18   10.52   0
   3   4  -4  458.46   11.56   0
   5   3 -16  164.03    9.50   0
   3   4  -7  316.31    9.70   0
   5   2 -21   88.38    8.24   0
   3   0 -24  160.76    8.76   0
   4   1 -24  158.84    9.37   0
   5  -1 -27   43.37    7.83   0
   1   3 -11  314.94    9.23   0
   4   4  -9  165.02    8.66   0
   0   1 -10 1457.15   17.72   0
   2   0 -22  542.14   11.90   0
   3   4 -10  360.13   10.47   0
   4   2 -22  170.26    9.45   0
   1   2 -16 1099.46   14.37   0
   2   3 -16  579.42   11.45   0
   2   4  -5  303.33    9.62   0
   3   3 -18  242.03    9.90   0
   4   0 -26  116.53    8.64   0
   1   1 -18  757.67   12.49   0
   0   2  -8 2921.04   24.22   0
   2   4  -2  745.59   14.11   0
   4   4 -12  258.01   10.01   0
   1   3 -14  609.36   11.81   0
   2   4 -11  317.50    9.80   0
   3   4 -13  120.16    8.40   0
   0   0 -12 4250.38   31.07   0
   2   2 -21  333.19    9.93   0
   3  -1 -26  188.02    9.72   0
   4   3 -20   96.46    8.46   0
   0   1 -13 1102.79   15.12   0
   0   2 -11 1853.59   18.82   0
   1  -1 -19  221.27    8.60   0
   3   2 -23   45.41    7.02   0
   1   0 -20  628.27   12.20   0
   4  -1 -28   85.87    7.75   0
   2   3 -19   77.33    7.51   0
   4   4 -15   63.62    7.61   0
   1   2 -19  253.08    8.88   0
   2  -1 -24  252.13    9.85   0
   3   3 -21  119.57    8.63   0
   5   4 -14   48.69    7.95   0
   1   4  -6 1053.28   15.03   0
   3   4 -16  226.98    9.70   0
   4   2 -25   78.68    7.75   0
   1   4  -9  640.41   11.55   0
  -3  -3 -15  166.00    9.88   0
  -2  -1 -22  251.68   10.22   0
  -5  -2 -21   62.41    9.34   0
  -5  -3 -14  127.03    9.94   0
  -5  -1 -25   61.51    8.70   0
  -4  -3 -16  239.08   10.75   0
  -4  -3   2  545.57   12.63   0
  -2  -3 -14  343.77   10.64   0
  -6  -3  -9  136.90    9.08   0
  -1  -3  -7  610.42   11.84   0
  -6  -3  -3   52.57    8.05   0
  -3  -2 -22  165.80   10.35   0
  -2  -3   1  722.01   12.95   0
  -1  -3 -10  840.58   13.41   0
  -1  -3  -4 2582.21   22.87   0
  -4  -2 -23   69.24    9.22   0
  -3  -3   3  383.03   10.63   0
  -3  -3 -18  256.96    9.70   0
   0  -2  -7  311.36    9.28   0
;
_shelx_hkl_checksum              58689
loop_
_space_group_symop_operation_xyz
'x, y, z'
'-y, x-y, z'
'-x+y, -x, z'
'y, x, -z'
'x-y, -y, -z'
'-x, -x+y, -z'
'x+2/3, y+1/3, z+1/3'
'-y+2/3, x-y+1/3, z+1/3'
'-x+y+2/3, -x+1/3, z+1/3'
'y+2/3, x+1/3, -z+1/3'
'x-y+2/3, -y+1/3, -z+1/3'
'-x+2/3, -x+y+1/3, -z+1/3'
'x+1/3, y+2/3, z+2/3'
'-y+1/3, x-y+2/3, z+2/3'
'-x+y+1/3, -x+2/3, z+2/3'
'y+1/3, x+2/3, -z+2/3'
'x-y+1/3, -y+2/3, -z+2/3'
'-x+1/3, -x+y+2/3, -z+2/3'
'-x, -y, -z'
'y, -x+y, -z'
'x-y, x, -z'
'-y, -x, z'
'-x+y, y, z'
'x, x-y, z'
'-x+2/3, -y+1/3, -z+1/3'
'y+2/3, -x+y+1/3, -z+1/3'
'x-y+2/3, x+1/3, -z+1/3'
'-y+2/3, -x+1/3, z+1/3'
'-x+y+2/3, y+1/3, z+1/3'
'x+2/3, x-y+1/3, z+1/3'
'-x+1/3, -y+2/3, -z+2/3'
'y+1/3, -x+y+2/3, -z+2/3'
'x-y+1/3, x+2/3, -z+2/3'
'-y+1/3, -x+2/3, z+2/3'
'-x+y+1/3, y+2/3, z+2/3'
'x+1/3, x-y+2/3, z+2/3'
loop_
_atom_site_label
_atom_site_type_symbol
_atom_site_fract_x
_atom_site_fract_y
_atom_site_fract_z
_atom_site_U_iso_or_equiv
_atom_site_adp_type
_atom_site_occupancy
_atom_site_site_symmetry_order
_atom_site_calc_flag
_atom_site_refinement_flags_posn
_atom_site_refinement_flags_adp
_atom_site_refinement_flags_occupancy
Ba1 Ba 0.0000 0.0000 0.5000 0.01363(4) Uani 1 12 d S T P
Mg2 Mg 0.0000 0.0000 0.0000 0.01081(14) Uani 1 12 d S T P
O3 O 0.85369(12) 0.7074(2) 0.25776(7) 0.0272(2) Uani 1 2 d S T P
C4 C 0.0000 0.0000 0.26060(10) 0.0112(2) Uani 1 6 d S T P
loop_
_atom_site_aniso_label
_atom_site_aniso_U_11
_atom_site_aniso_U_22
_atom_site_aniso_U_33
_atom_site_aniso_U_23
_atom_site_aniso_U_13
_atom_site_aniso_U_12
Ba1 0.01199(5) 0.01199(5) 0.01689(7) 0.000 0.000 0.00600(2)
Mg2 0.0093(2) 0.0093(2) 0.0138(3) 0.000 0.000 0.00466(10)
O3 0.0361(5) 0.0102(3) 0.0267(4) 0.0041(3) 0.00206(16) 0.00512(16)
C4 0.0108(3) 0.0108(3) 0.0119(5) 0.000 0.000 0.00541(17)
loop_
_atom_type_symbol
_atom_type_description
_atom_type_scat_dispersion_real
_atom_type_scat_dispersion_imag
_atom_type_scat_source
C C 0.0033 0.0016 'International Tables Vol C Tables 4.2.6.8 and 6.1.1.4'
O O 0.0106 0.0060 'International Tables Vol C Tables 4.2.6.8 and 6.1.1.4'
Mg Mg 0.0486 0.0363 'International Tables Vol C Tables 4.2.6.8 and 6.1.1.4'
Ba Ba -0.3244 2.2819 'International Tables Vol C Tables 4.2.6.8 and 6.1.1.4'
loop_
_geom_angle_atom_site_label_1
_geom_angle_atom_site_label_2
_geom_angle_atom_site_label_3
_geom_angle
_geom_angle_site_symmetry_1
_geom_angle_site_symmetry_3
O3 Ba1 O3 180.00(4) 31 7_445
O3 Ba1 O3 57.15(4) 31 32_455
O3 Ba1 O3 122.85(4) 7_445 32_455
O3 Ba1 O3 122.85(4) 31 8_545
O3 Ba1 O3 57.15(4) 7_445 8_545
O3 Ba1 O3 180.0 32_455 8_545
O3 Ba1 O3 43.95(4) 31 33_435
O3 Ba1 O3 136.05(4) 7_445 33_435
O3 Ba1 O3 95.48(3) 32_455 33_435
O3 Ba1 O3 84.52(3) 8_545 33_435
O3 Ba1 O3 136.05(4) 31 9_565
O3 Ba1 O3 43.95(4) 7_445 9_565
O3 Ba1 O3 84.52(3) 32_455 9_565
O3 Ba1 O3 95.48(3) 8_545 9_565
O3 Ba1 O3 180.0 33_435 9_565
O3 Ba1 O3 95.48(3) 31 33_545
O3 Ba1 O3 84.52(3) 7_445 33_545
O3 Ba1 O3 43.95(4) 32_455 33_545
O3 Ba1 O3 136.05(4) 8_545 33_545
O3 Ba1 O3 116.96(4) 33_435 33_545
O3 Ba1 O3 63.04(4) 9_565 33_545
O3 Ba1 O3 84.52(3) 31 9_455
O3 Ba1 O3 95.48(3) 7_445 9_455
O3 Ba1 O3 136.05(4) 32_455 9_455
O3 Ba1 O3 43.95(4) 8_545 9_455
O3 Ba1 O3 63.04(4) 33_435 9_455
O3 Ba1 O3 116.96(4) 9_565 9_455
O3 Ba1 O3 180.0 33_545 9_455
O3 Ba1 O3 95.48(3) 31 32_445
O3 Ba1 O3 84.52(3) 7_445 32_445
O3 Ba1 O3 116.96(4) 32_455 32_445
O3 Ba1 O3 63.04(4) 8_545 32_445
O3 Ba1 O3 57.15(4) 33_435 32_445
O3 Ba1 O3 122.85(4) 9_565 32_445
O3 Ba1 O3 95.48(3) 33_545 32_445
O3 Ba1 O3 84.52(3) 9_455 32_445
O3 Ba1 O3 84.52(3) 31 8
O3 Ba1 O3 95.48(3) 7_445 8
O3 Ba1 O3 63.04(4) 32_455 8
O3 Ba1 O3 116.96(4) 8_545 8
O3 Ba1 O3 122.85(4) 33_435 8
O3 Ba1 O3 57.15(4) 9_565 8
O3 Ba1 O3 84.52(3) 33_545 8
O3 Ba1 O3 95.48(3) 9_455 8
O3 Ba1 O3 180.00(4) 32_445 8
O3 Ba1 O3 63.04(4) 31 7_345
O3 Ba1 O3 116.96(4) 7_445 7_345
O3 Ba1 O3 84.52(3) 32_455 7_345
O3 Ba1 O3 95.48(3) 8_545 7_345
O3 Ba1 O3 84.52(3) 33_435 7_345
O3 Ba1 O3 95.48(3) 9_565 7_345
O3 Ba1 O3 122.85(4) 33_545 7_345
O3 Ba1 O3 57.15(4) 9_455 7_345
O3 Ba1 O3 136.05(4) 32_445 7_345
O3 Ba1 O3 43.95(4) 8 7_345
O3 Ba1 O3 116.96(4) 31 31_655
O3 Ba1 O3 63.04(4) 7_445 31_655
O3 Ba1 O3 95.48(3) 32_455 31_655
O3 Ba1 O3 84.52(3) 8_545 31_655
O3 Ba1 O3 95.48(3) 33_435 31_655
O3 Ba1 O3 84.52(3) 9_565 31_655
O3 Ba1 O3 57.15(4) 33_545 31_655
O3 Ba1 O3 122.85(4) 9_455 31_655
O3 Ba1 O3 43.95(4) 32_445 31_655
O3 Ba1 O3 136.05(4) 8 31_655
O3 Ba1 O3 180.0 7_345 31_655
O3 Mg2 O3 180.00(5) 26_455 14_544
O3 Mg2 O3 86.13(5) 26_455 25
O3 Mg2 O3 93.87(5) 14_544 25
O3 Mg2 O3 93.87(5) 26_455 13_444
O3 Mg2 O3 86.13(5) 14_544 13_444
O3 Mg2 O3 180.00(7) 25 13_444
O3 Mg2 O3 86.13(5) 26_455 27_445
O3 Mg2 O3 93.87(5) 14_544 27_445
O3 Mg2 O3 86.13(5) 25 27_445
O3 Mg2 O3 93.87(5) 13_444 27_445
O3 Mg2 O3 93.87(5) 26_455 15_554
O3 Mg2 O3 86.13(5) 14_544 15_554
O3 Mg2 O3 93.87(5) 25 15_554
O3 Mg2 O3 86.13(5) 13_444 15_554
O3 Mg2 O3 180.00(5) 27_445 15_554
O3 Mg2 Ba1 44.697(16) 26_455 13_554
O3 Mg2 Ba1 135.303(16) 14_544 13_554
O3 Mg2 Ba1 98.05(3) 25 13_554
O3 Mg2 Ba1 81.95(3) 13_444 13_554
O3 Mg2 Ba1 44.699(15) 27_445 13_554
O3 Mg2 Ba1 135.301(15) 15_554 13_554
O3 Mg2 Ba1 135.303(16) 26_455 7_444
O3 Mg2 Ba1 44.697(16) 14_544 7_444
O3 Mg2 Ba1 81.95(3) 25 7_444
O3 Mg2 Ba1 98.05(3) 13_444 7_444
O3 Mg2 Ba1 135.301(15) 27_445 7_444
O3 Mg2 Ba1 44.699(15) 15_554 7_444
Ba1 Mg2 Ba1 180.0 13_554 7_444
O3 Mg2 Ba1 98.05(3) 26_455 13_444
O3 Mg2 Ba1 81.95(3) 14_544 13_444
O3 Mg2 Ba1 44.697(16) 25 13_444
O3 Mg2 Ba1 135.303(16) 13_444 13_444
O3 Mg2 Ba1 44.699(16) 27_445 13_444
O3 Mg2 Ba1 135.301(16) 15_554 13_444
Ba1 Mg2 Ba1 77.087(2) 13_554 13_444
Ba1 Mg2 Ba1 102.913(2) 7_444 13_444
O3 Mg2 Ba1 81.95(3) 26_455 7_554
O3 Mg2 Ba1 98.05(3) 14_544 7_554
O3 Mg2 Ba1 135.303(16) 25 7_554
O3 Mg2 Ba1 44.697(16) 13_444 7_554
O3 Mg2 Ba1 135.301(16) 27_445 7_554
O3 Mg2 Ba1 44.699(16) 15_554 7_554
Ba1 Mg2 Ba1 102.913(2) 13_554 7_554
Ba1 Mg2 Ba1 77.087(2) 7_444 7_554
Ba1 Mg2 Ba1 180.0 13_444 7_554
O3 Mg2 Ba1 44.699(15) 26_455 13_544
O3 Mg2 Ba1 135.301(15) 14_544 13_544
O3 Mg2 Ba1 44.699(15) 25 13_544
O3 Mg2 Ba1 135.301(15) 13_444 13_544
O3 Mg2 Ba1 98.06(3) 27_445 13_544
O3 Mg2 Ba1 81.94(3) 15_554 13_544
Ba1 Mg2 Ba1 77.087(2) 13_554 13_544
Ba1 Mg2 Ba1 102.913(2) 7_444 13_544
Ba1 Mg2 Ba1 77.087(2) 13_444 13_544
Ba1 Mg2 Ba1 102.913(2) 7_554 13_544
O3 Mg2 Ba1 135.301(15) 26_455 7_454
O3 Mg2 Ba1 44.699(15) 14_544 7_454
O3 Mg2 Ba1 135.301(15) 25 7_454
O3 Mg2 Ba1 44.699(15) 13_444 7_454
O3 Mg2 Ba1 81.94(3) 27_445 7_454
O3 Mg2 Ba1 98.06(3) 15_554 7_454
Ba1 Mg2 Ba1 102.913(2) 13_554 7_454
Ba1 Mg2 Ba1 77.087(2) 7_444 7_454
Ba1 Mg2 Ba1 102.913(2) 13_444 7_454
Ba1 Mg2 Ba1 77.087(2) 7_554 7_454
Ba1 Mg2 Ba1 180.0 13_544 7_454
C4 O3 Mg2 139.90(11) 1_665 7
C4 O3 Ba1 94.56(5) 1_665 13_554
Mg2 O3 Ba1 105.78(3) 7 13_554
C4 O3 Ba1 94.56(5) 1_665 13_654
Mg2 O3 Ba1 105.78(3) 7 13_654
Ba1 O3 Ba1 116.96(4) 13_554 13_654
O3 C4 O3 119.861(13) 1_445 2_655
O3 C4 O3 119.861(13) 1_445 3_565
O3 C4 O3 119.861(13) 2_655 3_565
O3 C4 Ba1 62.82(4) 1_445 13_444
O3 C4 Ba1 149.31(12) 2_655 13_444
O3 C4 Ba1 62.82(4) 3_565 13_444
O3 C4 Ba1 149.31(12) 1_445 13_554
O3 C4 Ba1 62.82(4) 2_655 13_554
O3 C4 Ba1 62.82(4) 3_565 13_554
Ba1 C4 Ba1 99.06(3) 13_444 13_554
O3 C4 Ba1 62.82(4) 1_445 13_544
O3 C4 Ba1 62.82(4) 2_655 13_544
O3 C4 Ba1 149.31(12) 3_565 13_544
Ba1 C4 Ba1 99.06(3) 13_444 13_544
Ba1 C4 Ba1 99.06(3) 13_554 13_544
loop_
_geom_bond_atom_site_label_1
_geom_bond_atom_site_label_2
_geom_bond_distance
_geom_bond_site_symmetry_2
Ba1 O3 2.9447(6) 31
Ba1 O3 2.9447(6) 7_445
Ba1 O3 2.9447(6) 32_455
Ba1 O3 2.9447(6) 8_545
Ba1 O3 2.9448(6) 33_435
Ba1 O3 2.9448(6) 9_565
Ba1 O3 2.9447(6) 33_545
Ba1 O3 2.9447(6) 9_455
Ba1 O3 2.9448(6) 32_445
Ba1 O3 2.9448(6) 8
Ba1 O3 2.9448(6) 7_345
Ba1 O3 2.9448(6) 31_655
Mg2 O3 2.0627(11) 26_455
Mg2 O3 2.0627(11) 14_544
Mg2 O3 2.0627(11) 25
Mg2 O3 2.0627(11) 13_444
Mg2 O3 2.0627(11) 27_445
Mg2 O3 2.0627(11) 15_554
Mg2 Ba1 4.02867(10) 13_554
Mg2 Ba1 4.02867(10) 7_444
Mg2 Ba1 4.02867(10) 13_444
Mg2 Ba1 4.02867(10) 7_554
Mg2 Ba1 4.02869(10) 13_544
Mg2 Ba1 4.02869(10) 7_454
O3 C4 1.2732(11) 1_665
O3 Mg2 2.0627(11) 7
O3 Ba1 2.9447(6) 13_554
O3 Ba1 2.9448(6) 13_654
C4 O3 1.2732(11) 1_445
C4 O3 1.2732(11) 2_655
C4 O3 1.2732(11) 3_565
C4 Ba1 3.2998(8) 13_444
C4 Ba1 3.2998(8) 13_554
C4 Ba1 3.2998(8) 13_544
