#------------------------------------------------------------------------------
#$Date: 2019-12-25 22:05:48 +0200 (Wed, 25 Dec 2019) $
#$Revision: 245834 $
#$URL: file:///home/coder/svn-repositories/cod/cif/2/31/13/2311372.cif $
#------------------------------------------------------------------------------
#
# This file is available in the Crystallography Open Database (COD),
# http://www.crystallography.net/. The original data for this entry
# were provided by IUCr Journals, http://journals.iucr.org/.
#
# The file may be used within the scientific community so long as
# proper attribution is given to the journal article from which the
# data were obtained.
#
data_2311372
loop_
_publ_author_name
'Schwendtner, Karolina'
'Kolitsch, Uwe'
_publ_section_title
;
 New <i>M</i><sup>+</sup>, <i>M</i><sup>3+</sup>-arsenates - the framework
 structures of Ag<i>M</i><sup>3+</sup>(HAsO<sub>4</sub>)<sub>2</sub>
 (<i>M</i><sup>3+</sup> = Al, Ga) and
 <i>M</i><sup>+</sup>GaAs<sub>2</sub>O<sub>7</sub> (<i>M</i><sup>+</sup> =
 Na, Ag).
;
_journal_coeditor_code           PK2600
_journal_issue                   'Pt 5'
_journal_name_full
'Acta crystallographica. Section E, Crystallographic communications'
_journal_page_first              785
_journal_page_last               790
_journal_paper_doi               10.1107/S2056989017005631
_journal_volume                  73
_journal_year                    2017
_chemical_formula_iupac          'Ag Al (H As O4)2'
_chemical_formula_structural     'Ag1 Al1 (H1 As1 O4)2'
_chemical_formula_sum            'Ag Al As2 H2 O8'
_chemical_formula_weight         414.71
_chemical_name_common            'silver aluminium hydrogen arsenate'
_chemical_name_systematic
'Silver(I) aluminium bis[hydrogen arsenate(V)]'
_space_group_crystal_system      monoclinic
_space_group_IT_number           15
_space_group_name_Hall           '-C 2yc'
_space_group_name_H-M_alt        'C 1 2/c 1'
_atom_sites_solution_hydrogens   difmap
_atom_sites_solution_primary     direct
_atom_sites_solution_secondary   difmap
_audit_creation_method           SHELXL-2016/6
_cell_angle_alpha                90
_cell_angle_beta                 108.45(3)
_cell_angle_gamma                90
_cell_formula_units_Z            4
_cell_length_a                   7.842(2)
_cell_length_b                   9.937(2)
_cell_length_c                   8.686(2)
_cell_measurement_reflns_used    1477
_cell_measurement_temperature    293(2)
_cell_measurement_theta_max      34.972
_cell_measurement_theta_min      2.037
_cell_volume                     642.1(3)
_computing_cell_refinement
;
HKL SCALEPACK (Otwinowski <i>et al.</i>,  2003)
;
_computing_data_collection
;
COLLECT (Nonius, 2003)
;
_computing_data_reduction
;
HKL DENZO and SCALEPACK (Otwinowski <i>et al.</i>,  2003)
;
_computing_molecular_graphics
;
DIAMOND (Brandenburg, 2005)
;
_computing_publication_material
;
publCIF (Westrip, 2010)
;
_computing_structure_refinement
;
SHELXL2016 (Sheldrick, 2015)
;
_computing_structure_solution
;
SHELXS97 (Sheldrick, 2008)
;
_diffrn_ambient_temperature      293(2)
_diffrn_measured_fraction_theta_full 0.998
_diffrn_measured_fraction_theta_max 0.999
_diffrn_measurement_device_type  'Nonius KappaCCD single-crystal four-circle'
_diffrn_measurement_method       '\f and \w scans'
_diffrn_radiation_type           MoK\a
_diffrn_radiation_wavelength     0.71073
_diffrn_reflns_av_R_equivalents  0.0108
_diffrn_reflns_limit_h_max       12
_diffrn_reflns_limit_h_min       -12
_diffrn_reflns_limit_k_max       16
_diffrn_reflns_limit_k_min       -16
_diffrn_reflns_limit_l_max       13
_diffrn_reflns_limit_l_min       -13
_diffrn_reflns_number            2751
_diffrn_reflns_theta_full        25.242
_diffrn_reflns_theta_max         34.937
_diffrn_reflns_theta_min         3.421
_exptl_absorpt_coefficient_mu    13.513
_exptl_absorpt_correction_T_max  0.4514
_exptl_absorpt_correction_T_min  0.2364
_exptl_absorpt_correction_type   multi-scan
_exptl_absorpt_process_details
;
(HKL SCALEPACK; Otwinowski <i>et al.</i>,  2003)
;
_exptl_crystal_colour            colourless
_exptl_crystal_density_diffrn    4.290
_exptl_crystal_density_method    'not measured'
_exptl_crystal_description       'pseudo-dipyramidal glassy'
_exptl_crystal_F_000             768
_exptl_crystal_size_max          0.150
_exptl_crystal_size_mid          0.080
_exptl_crystal_size_min          0.070
_refine_diff_density_max         0.549
_refine_diff_density_min         -0.598
_refine_ls_extinction_coef       0.0114(3)
_refine_ls_extinction_expression Fc^*^=kFc[1+0.001xFc^2^\l^3^/sin(2\q)]^-1/4^
_refine_ls_extinction_method
;
SHELXL2016 (Sheldrick, 2015)
;
_refine_ls_goodness_of_fit_ref   1.095
_refine_ls_hydrogen_treatment    mixed
_refine_ls_matrix_type           full
_refine_ls_number_parameters     62
_refine_ls_number_reflns         1408
_refine_ls_number_restraints     1
_refine_ls_restrained_S_all      1.096
_refine_ls_R_factor_all          0.0149
_refine_ls_R_factor_gt           0.0139
_refine_ls_shift/su_max          0.001
_refine_ls_shift/su_mean         0.000
_refine_ls_structure_factor_coef Fsqd
_refine_ls_weighting_details
'w=1/[\s^2^(Fo^2^)+(0.0180P)^2^+0.8900P] where P=(Fo^2^+2Fc^2^)/3'
_refine_ls_weighting_scheme      calc
_refine_ls_wR_factor_gt          0.0370
_refine_ls_wR_factor_ref         0.0374
_reflns_number_gt                1354
_reflns_number_total             1408
_reflns_threshold_expression     'I > 2\s(I)'
_cod_data_source_file            pk2600sup1.cif
_cod_data_source_block           AgAlHAsO42
_cod_original_sg_symbol_H-M      'C 2/c'
_cod_database_code               2311372
_shelx_space_group_comment
;
The symmetry employed for this shelxl refinement is uniquely defined
by the following loop, which should always be used as a source of
symmetry information in preference to the above space-group names.
They are only intended as comments.
;
_shelx_estimated_absorpt_t_min   0.236
_shelx_estimated_absorpt_t_max   0.451
_shelx_hkl_file
;
   0   0   1    1.60    0.10   1
   0   0   2  399.80    3.80   1
   0   0   3    1.90    0.30   1
   0   0   4  732.00    7.20   1
   0   0   5    1.00    0.40   1
   0   0   6 1199.70   15.30   1
   0   0   7    1.80    0.50   1
   0   0   8 4270.00   61.40   1
   0   0   9    3.30    1.30   1
   0   0  10  892.60   17.70   1
   0   0  11   -2.00    1.70   1
   0   0  12   27.40    3.00   1
   0   0  13    4.50    2.60   1
   0   2   0  369.30    5.10   1
   0  -2   0  370.00    5.50   1
   0   2   1 2258.20   20.50   1
   0  -2  -1 2240.50   21.30   1
   0   2   2 2253.30   21.50   1
   0  -2  -2 2210.70   22.10   1
   0   2   3 1559.10   14.50   1
   0  -2  -3 1542.70   16.70   1
   0   2   4 4592.10   40.10   1
   0  -2  -4 4439.20   46.80   1
   0   2   5 4885.50   46.60   1
   0  -2  -5 4752.90   56.80   1
   0   2   6  565.60    6.30   1
   0  -2  -6  550.30    8.90   1
   0   2   7   19.00    0.70   1
   0  -2  -7   19.00    1.70   1
   0   2   8  298.40    4.60   1
   0  -2  -8  295.60    6.20   1
   0   2   9  783.80   12.20   1
   0  -2  -9  793.70   15.30   1
   0   2  10  278.80    6.90   1
   0  -2 -10  292.50    7.30   1
   0   2  11  103.40    4.20   1
   0  -2 -11  102.60    4.00   1
   0   2  12  146.80    5.90   1
   0  -2 -12  141.80    5.20   1
   0   2  13  904.90   26.00   1
   0  -2 -13  909.70   25.80   1
   0   4   0  127.20    2.20   1
   0  -4   0  132.10    2.10   1
   0   4   1 1250.50   11.80   1
   0  -4  -1 1228.10   12.70   1
   0   4   2 1336.60   14.70   1
   0  -4  -2 1348.50   14.90   1
   0   4   3  850.30    9.10   1
   0  -4  -3  834.70    8.00   1
   0   4   4 5838.30   58.10   1
   0  -4  -4 5621.70   51.00   1
   0   4   5  730.60    8.90   1
   0  -4  -5  715.70    9.20   1
   0   4   6  207.80    3.20   1
   0  -4  -6  208.10    3.20   1
   0   4   7    2.10    0.70   1
   0  -4  -7    3.70    0.60   1
   0   4   8  239.90    4.50   1
   0  -4  -8  246.80    4.50   1
   0   4   9  686.20   12.10   1
   0  -4  -9  685.60   11.30   1
   0   4  10 1147.50   20.30   1
   0  -4 -10 1133.30   18.60   1
   0   4  11   11.70    2.10   1
   0  -4 -11   12.30    3.00   1
   0   4  12  228.20    7.50   1
   0  -4 -12  238.90    8.40   1
   0   6   0 4109.60   52.80   1
   0  -6   0 4235.10   66.80   1
   0   6   1  141.60    1.70   1
   0  -6  -1  139.50    2.10   1
   0   6   2  459.70    5.70   1
   0  -6  -2  463.30    6.40   1
   0   6   3  673.70    9.70   1
   0  -6  -3  685.20    9.80   1
   0   6   4  505.20    8.40   1
   0  -6  -4  509.40    7.60   1
   0   6   5 1825.80   26.80   1
   0  -6  -5 1823.40   26.80   1
   0   6   6 2135.00   28.90   1
   0  -6  -6 2154.50   28.70   1
   0   6   7   36.00    1.60   1
   0  -6  -7   39.70    1.50   1
   0   6   8 1316.30   24.30   1
   0  -6  -8 1309.80   21.80   1
   0   6   9  236.00    5.10   1
   0  -6  -9  237.40    5.60   1
   0   6  10  221.50    5.90   1
   0  -6 -10  218.50    5.80   1
   0   6  11   -0.30    1.90   1
   0  -6 -11   -1.40    2.20   1
   0   6  12   25.50    2.70   1
   0  -6 -12   22.10    3.20   1
   0   8   0 5452.40   78.70   1
   0  -8   0 5200.30   94.60   1
   0   8   1 2538.70   26.90   1
   0  -8  -1 2497.90   33.40   1
   0   8   2  136.60    2.30   1
   0  -8  -2  134.50    2.60   1
   0   8   3   70.50    1.80   1
   0  -8  -3   72.60    2.00   1
   0   8   4  696.40   11.30   1
   0  -8  -4  656.40   10.70   1
   0   8   5 1165.00   20.70   1
   0  -8  -5 1196.80   18.70   1
   0   8   6  125.00    5.30   1
   0  -8  -6  117.60    2.80   1
   0   8   7  137.20    3.70   1
   0  -8  -7  127.10    3.60   1
   0   8   8  793.30   14.70   1
   0  -8  -8  788.20   14.50   1
   0   8   9 1679.00   29.50   1
   0  -8  -9 1648.50   29.20   1
   0   8  10   33.00    2.80   1
   0  -8 -10   33.30    2.60   1
   0   8  11   91.70    4.40   1
   0  -8 -11   85.40    4.80   1
   0  10   0  369.20    9.40   1
   0 -10   0  357.00   10.50   1
   0  10   1    1.00    0.80   1
   0 -10  -1    1.60    1.00   1
   0  10   2  817.30   13.60   1
   0 -10  -2  820.60   13.40   1
   0  10   3    3.30    1.10   1
   0 -10  -3    1.10    1.20   1
   0  10   4 3915.60   59.20   1
   0 -10  -4 3984.40   60.10   1
   0  10   5    5.50    1.20   1
   0 -10  -5    5.40    1.20   1
   0  10   6   40.30    2.20   1
   0 -10  -6   42.10    2.10   1
   0  10   7   12.10    2.20   1
   0 -10  -7   12.40    1.90   1
   0  10   8   40.40    2.20   1
   0 -10  -8   39.70    3.00   1
   0  10   9   25.50    2.20   1
   0 -10  -9   25.20    2.80   1
   0  10  10  636.00   17.40   1
   0 -10 -10  644.40   18.60   1
   0  12   0  954.90   27.70   1
   0 -12   0  970.00   26.40   1
   0  12   1  946.80   19.10   1
   0 -12  -1  930.40   18.90   1
   0  12   2  120.10    5.00   1
   0 -12  -2  106.60    3.70   1
   0  12   3  449.20   10.00   1
   0 -12  -3  459.90   10.60   1
   0  12   4   18.80    1.80   1
   0 -12  -4   17.00    1.60   1
   0  12   5  554.20   12.00   1
   0 -12  -5  568.30   11.90   1
   0  12   6  143.60    4.80   1
   0 -12  -6  149.40    5.40   1
   0  12   7    2.60    1.80   1
   0 -12  -7    3.70    2.00   1
   0  12   8  161.50    6.20   1
   0 -12  -8  162.20    7.60   1
   0  14   0  619.50   21.80   1
   0 -14   0  586.20   21.00   1
   0  14   1  363.20   10.00   1
   0 -14  -1  364.40    9.50   1
   0  14   2   89.60    4.30   1
   0 -14  -2   82.50    3.90   1
   0  14   3   12.70    2.50   1
   0 -14  -3   18.90    2.30   1
   0  14   4  468.90   19.40   1
   0 -14  -4  491.00   19.00   1
   0  14   5  126.90    7.00   1
   0 -14  -5  162.30    9.40   1
   0  14   6  478.40   18.30   1
   0 -14  -6  462.40   21.10   1
   0  16   0   96.20   11.00   1
   0 -16   0  104.10   11.20   1
   1   1 -13  109.70    5.30   1
  -1  -1  13  111.50    5.30   1
   1   1 -12  507.40   12.50   1
  -1  -1  12  515.10   12.80   1
   1   1 -11 1067.00   21.40   1
  -1  -1  11 1088.60   21.80   1
   1   1 -10   11.80    1.60   1
  -1  -1  10   11.40    1.80   1
   1   1  -9  161.30    4.10   1
  -1  -1   9  168.90    3.70   1
   1   1  -8 2021.00   30.20   1
  -1  -1   8 2066.60   30.40   1
   1   1  -7    4.00    0.90   1
  -1  -1   7    7.10    0.70   1
   1   1  -6 1598.30   18.80   1
  -1  -1   6 1584.50   21.30   1
   1   1  -5  615.10    6.30   1
  -1  -1   5  604.20    6.70   1
   1   1  -4   96.00    1.20   1
  -1  -1   4   96.90    1.30   1
   1   1  -3 7304.30   75.40   1
  -1  -1   3 7226.50   74.20   1
   1   1  -2 2433.90   24.20   1
  -1  -1   2 2383.10   22.60   1
   1   1  -1   21.60    0.40   1
  -1  -1   1   22.80    0.40   1
   1   1   0  662.90    6.50   1
  -1  -1   0  642.70   12.30   1
   1   1   1 1290.20   11.50   1
  -1  -1  -1 1282.60   13.00   1
   1   1   2 5558.90   52.10   1
  -1  -1  -2 5471.10   51.20   1
   1   1   3 3613.10   34.30   1
  -1  -1  -3 3565.40   35.70   1
   1   1   4  466.90    4.50   1
  -1  -1  -4  454.20    5.10   1
   1   1   5 3428.10   38.90   1
  -1  -1  -5 3391.50   41.20   1
   1   1   6 2149.60   24.90   1
  -1  -1  -6 2094.20   28.00   1
   1   1   7  309.40    4.40   1
  -1  -1  -7  312.50    5.50   1
   1   1   8  172.20    3.40   1
  -1  -1  -8  174.20    3.70   1
   1   1   9  381.30    7.50   1
  -1  -1  -9  376.60    7.40   1
   1   1  10  260.00    6.80   1
  -1  -1 -10  266.40    6.90   1
   1   1  11  504.90   12.50   1
  -1  -1 -11  500.90   11.00   1
   1   1  12  386.00   12.00   1
  -1  -1 -12  391.00   12.10   1
   1   3 -13  603.90   17.40   1
  -1  -3  13  632.40   20.80   1
   1   3 -12   25.90    2.70   1
  -1  -3  12   27.20    2.70   1
   1   3 -11  367.10    8.40   1
  -1  -3  11  367.20    9.20   1
   1   3 -10   78.40    2.90   1
  -1  -3  10   79.90    2.40   1
   1   3  -9   96.20    2.80   1
  -1  -3   9   96.80    2.70   1
   1   3  -8  214.30    3.90   1
  -1  -3   8  212.40    3.80   1
   1   3  -7 5057.20   71.90   1
  -1  -3   7 5189.20   62.40   1
   1   3  -6  191.10    3.10   1
  -1  -3   6  197.20    3.00   1
   1   3  -5 1094.80   11.20   1
  -1  -3   5 1087.50   12.30   1
   1   3  -4  201.90    2.60   1
  -1  -3   4  200.70    2.10   1
   1   3  -3  114.20    1.60   1
  -1  -3   3  116.40    1.30   1
   1   3  -2 1338.50   13.70   1
  -1  -3   2 1342.30   13.70   1
   1   3  -1 7480.00   73.00   1
  -1  -3   1 7421.70   76.30   1
   1   3   0 1097.90    9.60   1
  -1  -3   0 1080.90   11.70   1
   1   3   1 8158.80   72.70   1
  -1  -3  -1 8040.20   83.00   1
   1   3   2    6.10    0.30   1
  -1  -3  -2    6.30    0.40   1
   1   3   3  253.00    3.00   1
  -1  -3  -3  252.20    3.10   1
   1   3   4  688.30    6.90   1
  -1  -3  -4  656.70    8.90   1
   1   3   5   10.90    0.50   1
  -1  -3  -5   10.50    0.40   1
   1   3   6   58.80    1.20   1
  -1  -3  -6   57.50    1.60   1
   1   3   7 3666.60   39.90   1
  -1  -3  -7 3539.80   47.10   1
   1   3   8    5.20    1.00   1
  -1  -3  -8    5.00    1.20   1
   1   3   9  106.20    2.90   1
  -1  -3  -9  106.60    3.60   1
   1   3  10  248.00    6.60   1
  -1  -3 -10  237.60    6.60   1
   1   3  11  583.80   13.90   1
  -1  -3 -11  591.00   14.40   1
   1   3  12  223.20    8.50   1
  -1  -3 -12  232.40    8.60   1
   1   5 -12  822.20   19.70   1
  -1  -5  12  800.70   22.00   1
   1   5 -11  136.30    4.40   1
  -1  -5  11  132.60    5.00   1
   1   5 -10  324.60    7.10   1
  -1  -5  10  322.60    6.40   1
   1   5  -9  652.50   11.00   1
  -1  -5   9  677.90   11.20   1
   1   5  -8  939.90   17.40   1
  -1  -5   8  957.90   13.00   1
   1   5  -7  624.30    8.60   1
  -1  -5   7  623.00    8.10   1
   1   5  -6 1813.60   21.40   1
  -1  -5   6 1790.80   20.80   1
   1   5  -5 1791.90   24.10   1
  -1  -5   5 1784.70   20.30   1
   1   5  -4 1733.20   22.10   1
  -1  -5   4 1714.20   16.90   1
   1   5  -3 1295.60   14.70   1
  -1  -5   3 1301.00   13.10   1
   1   5  -2 4023.00   40.30   1
  -1  -5   2 3980.80   39.80   1
   1   5  -1 2433.80   23.50   1
  -1  -5   1 2397.70   24.40   1
   1   5   0  544.30    5.00   1
  -1  -5   0  545.30    6.70   1
   1   5   1 1257.50   10.40   1
  -1  -5  -1 1227.90   14.50   1
   1   5   2 3038.70   26.00   1
  -1  -5  -2 2976.30   32.30   1
   1   5   3 1671.80   19.40   1
  -1  -5  -3 1633.00   18.90   1
   1   5   4  746.40    9.30   1
  -1  -5  -4  708.80   10.00   1
   1   5   5  333.50    4.90   1
  -1  -5  -5  335.30    5.80   1
   1   5   6 1537.60   19.80   1
  -1  -5  -6 1516.90   21.50   1
   1   5   7  323.10    6.90   1
  -1  -5  -7  324.70    6.90   1
   1   5   8  368.30    6.60   1
  -1  -5  -8  373.70    8.20   1
   1   5   9    3.50    1.20   1
  -1  -5  -9    1.70    1.60   1
   1   5  10  886.40   19.00   1
  -1  -5 -10  857.10   18.80   1
   1   5  11   13.20    2.00   1
  -1  -5 -11   11.20    2.50   1
   1   5  12  892.40   25.40   1
  -1  -5 -12  909.70   25.90   1
   1   7 -12  111.90    4.90   1
  -1  -7  12  115.00    5.60   1
   1   7 -11 1273.00   28.60   1
  -1  -7  11 1249.50   32.00   1
   1   7 -10  312.90    7.80   1
  -1  -7  10  323.30    7.80   1
   1   7  -9  320.00    7.10   1
  -1  -7   9  314.20    7.10   1
   1   7  -8    8.10    1.40   1
  -1  -7   8    4.50    1.20   1
   1   7  -7  471.70   10.80   1
  -1  -7   7  471.00    8.30   1
   1   7  -6    4.10    1.20   1
  -1  -7   6    3.10    0.70   1
   1   7  -5  837.20   15.00   1
  -1  -7   5  876.70   13.80   1
   1   7  -4 1098.80   16.90   1
  -1  -7   4 1106.90   16.60   1
   1   7  -3 6812.70   96.10   1
  -1  -7   3 6990.20   83.20   1
   1   7  -2  772.40    9.20   1
  -1  -7   2  780.00    9.70   1
   1   7  -1   32.20    0.80   1
  -1  -7   1   34.80    0.80   1
   1   7   0  396.00    4.80   1
  -1  -7   0  381.40    6.10   1
   1   7   1   30.80    0.70   1
  -1  -7  -1   28.00    0.90   1
   1   7   2   80.00    1.60   1
  -1  -7  -2   80.90    1.60   1
   1   7   3 3483.50   42.40   1
  -1  -7  -3 3530.90   46.30   1
   1   7   4  205.20    3.30   1
  -1  -7  -4  209.70    3.50   1
   1   7   5 1490.30   23.00   1
  -1  -7  -5 1494.80   19.20   1
   1   7   6  102.20    2.80   1
  -1  -7  -6  103.70    2.50   1
   1   7   7  825.40   15.60   1
  -1  -7  -7  825.10   16.00   1
   1   7   8  417.60    7.90   1
  -1  -7  -8  421.10   10.10   1
   1   7   9   67.30    2.60   1
  -1  -7  -9   67.60    3.40   1
   1   7  10   76.80    3.60   1
  -1  -7 -10   73.80    3.50   1
   1   7  11  945.10   23.50   1
  -1  -7 -11  951.90   26.10   1
   1   9 -11   17.50    2.80   1
  -1  -9  11   19.50    3.70   1
   1   9 -10   61.60    3.40   1
  -1  -9  10   65.20    3.70   1
   1   9  -9    4.70    1.70   1
  -1  -9   9    6.40    1.80   1
   1   9  -8  793.70   15.00   1
  -1  -9   8  806.50   16.70   1
   1   9  -7 1767.60   32.40   1
  -1  -9   7 1820.70   33.40   1
   1   9  -6  553.00   13.40   1
  -1  -9   6  581.80   10.50   1
   1   9  -5    5.80    1.30   1
  -1  -9   5    5.50    1.00   1
   1   9  -4  176.30    4.40   1
  -1  -9   4  176.20    3.70   1
   1   9  -3    3.90    1.10   1
  -1  -9   3    4.90    1.00   1
   1   9  -2 1183.20   16.90   1
  -1  -9   2 1192.30   18.60   1
   1   9  -1  550.00    7.90   1
  -1  -9   1  525.70    9.80   1
   1   9   0    2.00    0.60   1
  -1  -9   0    2.40    0.70   1
   1   9   1 2719.40   35.00   1
  -1  -9  -1 2674.90   36.30   1
   1   9   2 2097.70   27.40   1
  -1  -9  -2 2048.30   34.20   1
   1   9   3   91.00    2.30   1
  -1  -9  -3   94.30    2.90   1
   1   9   4    0.20    1.20   1
  -1  -9  -4    3.30    1.10   1
   1   9   5  269.50    5.80   1
  -1  -9  -5  268.00    6.20   1
   1   9   6  832.70   15.00   1
  -1  -9  -6  824.50   17.10   1
   1   9   7  758.00   13.20   1
  -1  -9  -7  758.30   14.10   1
   1   9   8  452.40    9.00   1
  -1  -9  -8  433.30    9.80   1
   1   9   9  206.60    6.70   1
  -1  -9  -9  221.90    6.90   1
   1   9  10  154.40    5.90   1
  -1  -9 -10  143.30    5.70   1
   1  11  -9    1.30    1.90   1
  -1 -11   9    4.20    2.40   1
   1  11  -8  274.10    7.40   1
  -1 -11   8  278.00    9.10   1
   1  11  -7  773.50   16.10   1
  -1 -11   7  784.70   18.00   1
   1  11  -6  536.30   11.00   1
  -1 -11   6  538.20   12.10   1
   1  11  -5   65.80    3.20   1
  -1 -11   5   70.30    2.70   1
   1  11  -4  360.10    7.50   1
  -1 -11   4  363.90    7.50   1
   1  11  -3    6.60    1.40   1
  -1 -11   3    7.90    1.20   1
   1  11  -2  894.80   15.80   1
  -1 -11   2  833.60   18.90   1
   1  11  -1  853.90   16.70   1
  -1 -11   1  861.20   18.90   1
   1  11   0    1.10    1.40   1
  -1 -11   0    4.40    1.30   1
   1  11   1 1331.80   25.20   1
  -1 -11  -1 1338.30   28.50   1
   1  11   2 1012.60   20.30   1
  -1 -11  -2 1034.50   19.90   1
   1  11   3   49.80    2.20   1
  -1 -11  -3   49.70    2.40   1
   1  11   4    4.90    1.50   1
  -1 -11  -4    6.00    1.50   1
   1  11   5    5.20    1.40   1
  -1 -11  -5    5.40    1.60   1
   1  11   6  880.50   17.70   1
  -1 -11  -6  860.50   19.60   1
   1  11   7  572.30   11.50   1
  -1 -11  -7  598.40   14.70   1
   1  11   8  263.10    9.10   1
  -1 -11  -8  288.90   10.90   1
   1  11   9   65.80    4.50   1
  -1 -11  -9   68.30    5.10   1
   1  13  -8    0.90    2.00   1
  -1 -13   8   -0.30    4.40   1
   1  13  -7  281.30    8.90   1
  -1 -13   7  303.50   11.40   1
   1  13  -6   40.80    2.70   1
  -1 -13   6   41.00    3.50   1
   1  13  -5  387.70   11.10   1
  -1 -13   5  379.60   10.70   1
   1  13  -4  160.10    5.60   1
  -1 -13   4  151.90    5.30   1
   1  13  -3 1379.80   29.30   1
  -1 -13   3 1423.70   28.30   1
   1  13  -2   94.50    4.10   1
  -1 -13   2   87.10    3.60   1
   1  13  -1    4.90    1.80   1
  -1 -13   1    4.20    1.70   1
   1  13   0    3.40    1.80   1
  -1 -13   0    3.20    1.60   1
   1  13   1  271.30    7.90   1
  -1 -13  -1  273.50    7.60   1
   1  13   2   75.70    3.70   1
  -1 -13  -2   74.60    3.40   1
   1  13   3 1607.60   38.80   1
  -1 -13  -3 1620.90   37.90   1
   1  13   4    6.10    2.60   1
  -1 -13  -4    7.40    1.90   1
   1  13   5  303.20   11.90   1
  -1 -13  -5  302.60   11.00   1
   1  13   6   41.50    4.00   1
  -1 -13  -6   45.00    4.20   1
   1  13   7  194.50    9.80   1
  -1 -13  -7  202.60    9.40   1
   1  15  -4  433.10   19.80   1
  -1 -15   4  448.00   25.70   1
   1  15  -3   95.00    6.00   1
  -1 -15   3   83.20    5.20   1
   1  15  -2  997.20   32.90   1
  -1 -15   2  990.00   31.10   1
   1  15  -1  185.90    8.50   1
  -1 -15   1  178.80    7.80   1
   1  15   0   21.90    4.60   1
  -1 -15   0   13.30    2.90   1
   1  15   1   48.30    4.40   1
  -1 -15  -1   45.50    4.40   1
   1  15   2  586.20   20.40   1
  -1 -15  -2  583.20   18.70   1
   1  15   3   66.70    4.90   1
  -1 -15  -3   65.40    4.60   1
   1  15   4    3.00    3.00   1
  -1 -15  -4   12.70    3.70   1
   2   0 -13    4.00    2.20   1
   2   0 -12    5.80    2.20   1
   2   0 -11    0.80    1.70   1
   2   0 -10  320.30    7.20   1
   2   0  -9    0.90    1.70   1
   2   0  -8 1435.50   23.90   1
   2   0  -7    2.00    0.40   1
   2   0  -6 6952.80   82.40   1
   2   0  -5    1.40    0.30   1
   2   0  -4   12.20    0.40   1
   2   0  -3    3.40    0.20   1
   2   0  -2  286.40    2.90   1
   2   0  -1    2.30    0.20   1
   2   0   0 9096.80   84.30   1
   2   0   1    3.50    0.20   1
   2   0   2  179.60    1.90   1
   2   0   3   13.60    0.60   1
   2   0   4 2515.30   24.50   1
   2   0   5    2.30    0.50   1
   2   0   6  443.20    6.30   1
   2   0   7    0.50    0.70   1
   2   0   8 2275.40   34.80   1
   2   0   9    2.00    1.30   1
   2   0  10  280.90    7.60   1
   2   0  11    2.90    2.40   1
   2   0  12  245.30    9.00   1
   2   2 -13  155.10    6.50   1
  -2  -2  13  146.90    6.30   1
   2   2 -12  369.60   10.20   1
  -2  -2  12  383.90   10.00   1
   2   2 -11  482.50   11.00   1
  -2  -2  11  483.30   10.90   1
   2   2 -10  802.00   14.10   1
  -2  -2  10  810.30   15.50   1
   2   2  -9 2593.30   39.10   1
  -2  -2   9 2600.50   39.00   1
   2   2  -8  734.80   11.70   1
  -2  -2   8  741.70   11.80   1
   2   2  -7   81.90    1.90   1
  -2  -2   7   79.10    1.80   1
   2   2  -6  168.80    2.20   1
  -2  -2   6  161.20    2.50   1
   2   2  -5 1500.90   13.70   1
  -2  -2   5 1465.60   15.30   1
   2   2  -4 2796.80   25.60   1
  -2  -2   4 2786.60   24.50   1
   2   2  -3  120.40    1.50   1
  -2  -2   3  122.40    1.40   1
   2   2  -2 2008.50   18.50   1
  -2  -2   2 2014.60   20.30   1
   2   2  -1 6871.60   64.20   1
  -2  -2   1 6656.10   77.90   1
   2   2   0  533.40    5.80   1
  -2  -2   0  517.60    6.00   1
   2   2   1 2082.50   18.40   1
  -2  -2  -1 2017.90   20.60   1
   2   2   2 2457.00   23.70   1
  -2  -2  -2 2409.20   25.80   1
   2   2   3  850.80    8.30   1
  -2  -2  -3  841.80    9.00   1
   2   2   4 2266.10   21.30   1
  -2  -2  -4 2206.30   23.90   1
   2   2   5 1420.20   15.00   1
  -2  -2  -5 1400.40   16.70   1
   2   2   6  287.90    4.10   1
  -2  -2  -6  289.90    4.40   1
   2   2   7  714.20    9.60   1
  -2  -2  -7  711.70   10.60   1
   2   2   8   95.80    2.50   1
  -2  -2  -8  100.20    2.90   1
   2   2   9 1821.80   27.30   1
  -2  -2  -9 1873.60   30.60   1
   2   2  10  106.90    4.10   1
  -2  -2 -10  106.50    4.20   1
   2   2  11    1.20    2.60   1
  -2  -2 -11    1.80    2.40   1
   2   2  12   14.00    2.90   1
  -2  -2 -12   20.80    3.20   1
   2   4 -13  229.50    8.40   1
  -2  -4  13  238.20   10.10   1
   2   4 -12  132.00    4.90   1
  -2  -4  12  136.10    5.30   1
   2   4 -11   79.10    3.20   1
  -2  -4  11   78.10    3.40   1
   2   4 -10 1245.70   21.30   1
  -2  -4  10 1274.70   19.90   1
   2   4  -9  354.60    7.60   1
  -2  -4   9  371.90    6.50   1
   2   4  -8  110.60    2.80   1
  -2  -4   8  116.50    2.30   1
   2   4  -7  134.00    2.40   1
  -2  -4   7  133.10    2.30   1
   2   4  -6  146.00    2.40   1
  -2  -4   6  145.50    2.20   1
   2   4  -5 1861.30   23.30   1
  -2  -4   5 1852.10   20.10   1
   2   4  -4 9276.50  109.10   1
  -2  -4   4 9543.30   93.80   1
   2   4  -3   77.30    1.10   1
  -2  -4   3   78.60    1.20   1
   2   4  -2 3997.30   35.00   1
  -2  -4   2 4011.50   39.90   1
   2   4  -1  375.70    3.90   1
  -2  -4   1  364.50    4.40   1
   2   4   0  748.60    7.10   1
  -2  -4   0  738.60    8.80   1
   2   4   1  619.80    6.30   1
  -2  -4  -1  606.80    7.10   1
   2   4   2    9.40    0.40   1
  -2  -4  -2   10.30    0.50   1
   2   4   3 1391.40   15.50   1
  -2  -4  -3 1362.50   15.00   1
   2   4   4 7615.60   84.60   1
  -2  -4  -4 7492.30   83.60   1
   2   4   5  938.20   11.60   1
  -2  -4  -5  905.00   13.20   1
   2   4   6   78.90    1.70   1
  -2  -4  -6   74.30    2.50   1
   2   4   7   52.80    1.60   1
  -2  -4  -7   56.30    2.40   1
   2   4   8   14.60    1.30   1
  -2  -4  -8   10.00    1.70   1
   2   4   9  309.40    6.30   1
  -2  -4  -9  326.40    8.00   1
   2   4  10  322.00    7.80   1
  -2  -4 -10  309.00   10.20   1
   2   4  11    8.70    3.00   1
  -2  -4 -11    9.10    3.10   1
   2   6 -12  183.40    6.30   1
  -2  -6  12  166.30    6.80   1
   2   6 -11   76.90    3.40   1
  -2  -6  11   68.30    3.50   1
   2   6 -10  354.90    7.90   1
  -2  -6  10  371.10    8.10   1
   2   6  -9  816.30   14.40   1
  -2  -6   9  809.40   13.20   1
   2   6  -8 2104.10   32.60   1
  -2  -6   8 2132.70   27.70   1
   2   6  -7   23.30    1.40   1
  -2  -6   7   23.30    1.00   1
   2   6  -6 2219.20   32.80   1
  -2  -6   6 2239.00   24.50   1
   2   6  -5  477.10    8.90   1
  -2  -6   5  495.70    6.20   1
   2   6  -4   14.00    1.00   1
  -2  -6   4   14.20    0.50   1
   2   6  -3   57.70    1.50   1
  -2  -6   3   60.90    1.00   1
   2   6  -2   10.50    0.60   1
  -2  -6   2   13.40    0.50   1
   2   6  -1 2330.10   24.40   1
  -2  -6   1 2338.40   27.20   1
   2   6   0 7500.10   74.10   1
  -2  -6   0 7225.40   85.10   1
   2   6   1  442.30    5.40   1
  -2  -6  -1  445.50    6.00   1
   2   6   2 1628.60   21.70   1
  -2  -6  -2 1644.60   20.50   1
   2   6   3  370.70    5.70   1
  -2  -6  -3  361.60    5.10   1
   2   6   4  132.20    2.40   1
  -2  -6  -4  124.00    2.30   1
   2   6   5  178.30    3.50   1
  -2  -6  -5  184.40    3.90   1
   2   6   6  725.10   13.90   1
  -2  -6  -6  734.20   14.00   1
   2   6   7   87.20    2.80   1
  -2  -6  -7   87.60    2.90   1
   2   6   8 1350.40   21.50   1
  -2  -6  -8 1359.60   26.40   1
   2   6   9  731.90   13.20   1
  -2  -6  -9  690.90   15.90   1
   2   6  10  131.40    4.80   1
  -2  -6 -10  127.00    5.30   1
   2   6  11    3.60    2.70   1
  -2  -6 -11   -2.40    2.40   1
   2   8 -12    8.00    2.40   1
  -2  -8  12    6.90    3.30   1
   2   8 -11  343.50   10.10   1
  -2  -8  11  344.60   12.80   1
   2   8 -10   30.10    2.30   1
  -2  -8  10   26.60    2.30   1
   2   8  -9  511.50   10.60   1
  -2  -8   9  533.60   12.00   1
   2   8  -8  218.90    5.10   1
  -2  -8   8  221.90    5.70   1
   2   8  -7    2.40    1.30   1
  -2  -8   7    0.50    1.20   1
   2   8  -6 1281.30   20.30   1
  -2  -8   6 1346.30   21.60   1
   2   8  -5 2761.90   46.20   1
  -2  -8   5 2816.50   37.80   1
   2   8  -4  175.70    4.20   1
  -2  -8   4  182.60    3.30   1
   2   8  -3   58.40    1.80   1
  -2  -8   3   67.00    1.60   1
   2   8  -2  473.50    6.70   1
  -2  -8   2  484.70    7.60   1
   2   8  -1 2119.60   26.80   1
  -2  -8   1 2130.60   28.60   1
   2   8   0 1538.70   18.80   1
  -2  -8   0 1516.30   20.80   1
   2   8   1  461.00    6.70   1
  -2  -8  -1  457.30    6.60   1
   2   8   2  242.20    3.30   1
  -2  -8  -2  243.00    4.20   1
   2   8   3 1134.00   14.10   1
  -2  -8  -3 1109.70   16.00   1
   2   8   4    5.20    0.50   1
  -2  -8  -4    6.30    0.70   1
   2   8   5 1340.40   28.10   1
  -2  -8  -5 1332.10   19.80   1
   2   8   6   79.30    2.40   1
  -2  -8  -6   77.80    3.10   1
   2   8   7  154.70    3.80   1
  -2  -8  -7  147.50    4.80   1
   2   8   8  315.40    7.50   1
  -2  -8  -8  305.30    8.40   1
   2   8   9  612.00   14.00   1
  -2  -8  -9  623.80   17.20   1
   2   8  10    0.70    2.70   1
  -2  -8 -10    3.30    2.20   1
   2  10 -10 1469.60   33.80   1
  -2 -10  10 1500.50   38.20   1
   2  10  -9   20.70    2.30   1
  -2 -10   9   21.80    2.40   1
   2  10  -8    8.20    1.90   1
  -2 -10   8    6.50    1.70   1
   2  10  -7   13.10    1.90   1
  -2 -10   7    9.90    1.70   1
   2  10  -6  150.70    4.50   1
  -2 -10   6  151.30    3.80   1
   2  10  -5   63.80    2.70   1
  -2 -10   5   64.30    2.40   1
   2  10  -4 1791.50   28.90   1
  -2 -10   4 1856.90   29.40   1
   2  10  -3   47.00    1.90   1
  -2 -10   3   49.10    1.80   1
   2  10  -2 1708.10   26.80   1
  -2 -10   2 1665.80   29.40   1
   2  10  -1   47.70    1.80   1
  -2 -10   1   48.10    1.80   1
   2  10   0 1152.70   18.70   1
  -2 -10   0 1114.40   20.00   1
   2  10   1   36.40    2.10   1
  -2 -10  -1   37.00    1.60   1
   2  10   2  255.40    6.20   1
  -2 -10  -2  274.20    5.40   1
   2  10   3   78.70    2.90   1
  -2 -10  -3   81.80    3.00   1
   2  10   4 1693.40   32.60   1
  -2 -10  -4 1723.70   33.00   1
   2  10   5    1.30    1.60   1
  -2 -10  -5    2.90    1.40   1
   2  10   6    7.40    1.30   1
  -2 -10  -6    6.20    2.00   1
   2  10   7   69.50    3.60   1
  -2 -10  -7   61.20    4.90   1
   2  10   8  894.70   28.60   1
  -2 -10  -8  865.70   27.60   1
   2  10   9    1.60    2.70   1
  -2 -10  -9    4.20    2.40   1
   2  12  -9  298.50    8.60   1
  -2 -12   9  293.80   12.00   1
   2  12  -8  198.30    6.70   1
  -2 -12   8  181.00    8.10   1
   2  12  -7  159.50    5.50   1
  -2 -12   7  160.90    7.10   1
   2  12  -6  302.70    7.50   1
  -2 -12   6  299.10    9.60   1
   2  12  -5 1633.80   30.00   1
  -2 -12   5 1658.80   36.90   1
   2  12  -4  111.00    3.70   1
  -2 -12   4  108.20    4.00   1
   2  12  -3  103.90    3.50   1
  -2 -12   3  100.80    3.70   1
   2  12  -2   30.20    2.20   1
  -2 -12   2   31.00    2.60   1
   2  12  -1  320.40    8.10   1
  -2 -12   1  307.40    7.50   1
   2  12   0 1000.20   20.10   1
  -2 -12   0  985.60   19.60   1
   2  12   1  310.40    8.10   1
  -2 -12  -1  300.30    7.70   1
   2  12   2   21.60    3.70   1
  -2 -12  -2   24.60    2.90   1
   2  12   3 1192.00   29.00   1
  -2 -12  -3 1180.50   25.30   1
   2  12   4   33.40    3.00   1
  -2 -12  -4   35.70    2.50   1
   2  12   5  873.90   23.40   1
  -2 -12  -5  863.00   19.50   1
   2  12   6   13.00    3.20   1
  -2 -12  -6   13.10    3.20   1
   2  12   7   25.20    3.80   1
  -2 -12  -7   26.10    3.40   1
   2  14  -6  455.40   16.90   1
  -2 -14   6  433.00   19.10   1
   2  14  -5  209.80    9.30   1
  -2 -14   5  208.40   11.00   1
   2  14  -4    9.60    3.00   1
  -2 -14   4   16.20    3.30   1
   2  14  -3    7.80    3.10   1
  -2 -14   3    6.10    2.60   1
   2  14  -2   11.50    3.20   1
  -2 -14   2   18.90    2.90   1
   2  14  -1  278.30   10.90   1
  -2 -14   1  281.90   10.30   1
   2  14   0 1561.20   44.80   1
  -2 -14   0 1477.80   41.70   1
   2  14   1   89.20    5.40   1
  -2 -14  -1   78.00    4.80   1
   2  14   2  142.60    7.10   1
  -2 -14  -2  143.00    6.70   1
   2  14   3   70.70    4.90   1
  -2 -14  -3   79.00    5.00   1
   2  14   4  103.60    6.40   1
  -2 -14  -4   90.20    5.50   1
   2  14   5  233.30   13.30   1
  -2 -14  -5  244.30   12.90   1
   3   1 -13    3.30    3.10   1
  -3  -1  13    3.10    3.00   1
   3   1 -12  770.30   16.60   1
  -3  -1  12  780.10   16.20   1
   3   1 -11 1247.50   23.90   1
  -3  -1  11 1227.90   23.60   1
   3   1 -10  183.00    4.90   1
  -3  -1  10  177.70    4.80   1
   3   1  -9 1735.40   30.00   1
  -3  -1   9 1763.90   27.10   1
   3   1  -8 1778.50   26.50   1
  -3  -1   8 1805.60   24.40   1
   3   1  -7   90.70    2.10   1
  -3  -1   7   90.90    1.80   1
   3   1  -6  382.90    5.70   1
  -3  -1   6  381.40    5.20   1
   3   1  -5 1744.80   15.70   1
  -3  -1   5 1726.30   16.80   1
   3   1  -4 2156.80   18.50   1
  -3  -1   4 2128.90   19.70   1
   3   1  -3 8674.90   80.80   1
  -3  -1   3 8452.30   78.80   1
   3   1  -2  464.00    4.30   1
  -3  -1   2  457.70    5.00   1
   3   1  -1 1907.10   15.90   1
  -3  -1   1 1871.00   19.10   1
   3   1   0  249.80    2.50   1
  -3  -1   0  241.30    2.70   1
   3   1   1  251.90    2.50   1
  -3  -1  -1  240.10    2.90   1
   3   1   2 3468.00   29.50   1
  -3  -1  -2 3463.80   35.30   1
   3   1   3 2651.00   26.00   1
  -3  -1  -3 2587.70   29.60   1
   3   1   4    2.60    0.30   1
  -3  -1  -4    2.30    0.40   1
   3   1   5 1627.30   19.00   1
  -3  -1  -5 1619.70   20.30   1
   3   1   6 1774.80   22.60   1
  -3  -1  -6 1753.10   24.10   1
   3   1   7  137.80    3.00   1
  -3  -1  -7  149.90    4.00   1
   3   1   8  258.20    5.70   1
  -3  -1  -8  267.70    5.70   1
   3   1   9   10.20    1.50   1
  -3  -1  -9   11.40    1.70   1
   3   1  10  649.90   17.40   1
  -3  -1 -10  640.80   14.70   1
   3   1  11  350.90   11.60   1
  -3  -1 -11  328.60   10.90   1
   3   3 -13  669.30   22.50   1
  -3  -3  13  678.90   22.70   1
   3   3 -12  113.80    4.60   1
  -3  -3  12  114.70    4.50   1
   3   3 -11   30.40    2.10   1
  -3  -3  11   30.00    1.90   1
   3   3 -10   95.40    2.90   1
  -3  -3  10   99.90    3.00   1
   3   3  -9   86.40    2.80   1
  -3  -3   9   79.00    2.10   1
   3   3  -8    3.70    1.00   1
  -3  -3   8    4.30    0.70   1
   3   3  -7 6566.20   78.20   1
  -3  -3   7 6469.40   72.00   1
   3   3  -6   51.70    1.00   1
  -3  -3   6   56.60    1.20   1
   3   3  -5 1083.80   12.90   1
  -3  -3   5 1109.10   11.60   1
   3   3  -4 1212.40   12.20   1
  -3  -3   4 1215.80   12.20   1
   3   3  -3   68.40    1.00   1
  -3  -3   3   68.10    1.10   1
   3   3  -2 2775.80   25.50   1
  -3  -3   2 2713.10   28.90   1
   3   3  -1 1032.70   11.00   1
  -3  -3   1  998.00   11.10   1
   3   3   0  364.90    4.20   1
  -3  -3   0  349.30    4.30   1
   3   3   1 8087.50   75.90   1
  -3  -3  -1 8013.60   89.20   1
   3   3   2   57.40    0.90   1
  -3  -3  -2   55.00    1.20   1
   3   3   3  746.00    8.50   1
  -3  -3  -3  720.00    9.30   1
   3   3   4 1171.20   13.30   1
  -3  -3  -4 1151.10   15.00   1
   3   3   5   82.70    1.80   1
  -3  -3  -5   85.40    2.30   1
   3   3   6  243.70    4.20   1
  -3  -3  -6  234.00    4.60   1
   3   3   7 1356.90   22.10   1
  -3  -3  -7 1352.50   22.00   1
   3   3   8  319.70    6.80   1
  -3  -3  -8  317.10    6.80   1
   3   3   9  595.30   13.40   1
  -3  -3  -9  604.10   12.30   1
   3   3  10   28.00    2.80   1
  -3  -3 -10   20.10    2.60   1
   3   3  11  786.10   21.80   1
  -3  -3 -11  764.60   21.50   1
   3   5 -13    3.10    2.60   1
  -3  -5  13    7.60    3.40   1
   3   5 -12  954.30   22.10   1
  -3  -5  12  987.70   35.60   1
   3   5 -11  431.00    9.60   1
  -3  -5  11  426.50   12.90   1
   3   5 -10    8.70    1.60   1
  -3  -5  10    6.90    1.10   1
   3   5  -9   25.70    1.80   1
  -3  -5   9   26.00    1.40   1
   3   5  -8 1115.00   17.80   1
  -3  -5   8 1134.90   15.40   1
   3   5  -7 1051.70   14.00   1
  -3  -5   7 1050.30   12.90   1
   3   5  -6  578.80    8.80   1
  -3  -5   6  601.80    7.40   1
   3   5  -5   40.10    1.10   1
  -3  -5   5   45.00    1.10   1
   3   5  -4 2169.90   23.80   1
  -3  -5   4 2131.20   26.10   1
   3   5  -3 1954.90   22.70   1
  -3  -5   3 1930.80   20.90   1
   3   5  -2 4379.60   46.90   1
  -3  -5   2 4409.40   52.90   1
   3   5  -1   69.60    1.20   1
  -3  -5   1   68.90    1.10   1
   3   5   0  754.00    9.10   1
  -3  -5   0  755.70    9.00   1
   3   5   1 1874.10   25.10   1
  -3  -5  -1 1863.30   23.20   1
   3   5   2 2263.50   29.80   1
  -3  -5  -2 2240.00   25.70   1
   3   5   3   12.60    0.70   1
  -3  -5  -3   12.30    0.90   1
   3   5   4  152.00    2.80   1
  -3  -5  -4  148.40    2.90   1
   3   5   5  579.90    8.20   1
  -3  -5  -5  558.80    8.20   1
   3   5   6 1933.40   27.40   1
  -3  -5  -6 1902.40   29.70   1
   3   5   7   23.60    1.60   1
  -3  -5  -7   19.60    1.60   1
   3   5   8  151.40    4.30   1
  -3  -5  -8  150.40    4.50   1
   3   5   9  137.00    4.70   1
  -3  -5  -9  146.00    5.20   1
   3   5  10  556.20   18.40   1
  -3  -5 -10  537.70   15.80   1
   3   5  11    7.40    3.20   1
  -3  -5 -11   11.60    3.30   1
   3   7 -12   45.90    3.20   1
  -3  -7  12   52.50    4.30   1
   3   7 -11 1080.20   24.20   1
  -3  -7  11 1114.50   32.40   1
   3   7 -10    8.10    1.60   1
  -3  -7  10    3.80    1.50   1
   3   7  -9 1122.60   19.60   1
  -3  -7   9 1153.10   22.10   1
   3   7  -8   83.10    2.80   1
  -3  -7   8   85.20    2.60   1
   3   7  -7  166.20    5.00   1
  -3  -7   7  170.10    3.00   1
   3   7  -6   84.20    2.60   1
  -3  -7   6   85.20    1.70   1
   3   7  -5  343.50    6.90   1
  -3  -7   5  356.20    4.90   1
   3   7  -4  126.70    2.60   1
  -3  -7   4  125.80    2.00   1
   3   7  -3 6227.80   80.20   1
  -3  -7   3 6352.80   70.70   1
   3   7  -2  529.30    7.80   1
  -3  -7   2  543.60    8.70   1
   3   7  -1   87.80    1.80   1
  -3  -7   1   91.00    2.00   1
   3   7   0   88.10    1.70   1
  -3  -7   0   88.10    1.70   1
   3   7   1  626.20    7.20   1
  -3  -7  -1  611.30    8.90   1
   3   7   2  162.40    2.70   1
  -3  -7  -2  160.60    3.10   1
   3   7   3 1420.70   22.40   1
  -3  -7  -3 1439.20   18.50   1
   3   7   4    7.60    0.90   1
  -3  -7  -4    8.40    0.80   1
   3   7   5 1695.60   30.70   1
  -3  -7  -5 1734.80   31.40   1
   3   7   6  128.00    3.70   1
  -3  -7  -6  133.40    3.80   1
   3   7   7  524.60   10.50   1
  -3  -7  -7  493.10   11.70   1
   3   7   8    2.80    1.50   1
  -3  -7  -8    0.10    1.90   1
   3   7   9   12.60    2.20   1
  -3  -7  -9   12.70    3.00   1
   3   7  10   22.50    4.40   1
  -3  -7 -10   25.70    3.80   1
   3   9 -11    0.60    2.00   1
  -3  -9  11    4.10    2.60   1
   3   9 -10   41.20    2.90   1
  -3  -9  10   46.30    3.20   1
   3   9  -9   84.00    3.30   1
  -3  -9   9   92.10    3.70   1
   3   9  -8  842.40   17.50   1
  -3  -9   8  892.30   18.50   1
   3   9  -7 1414.70   26.50   1
  -3  -9   7 1489.20   27.50   1
   3   9  -6  201.80    6.10   1
  -3  -9   6  205.00    4.30   1
   3   9  -5  842.70   14.50   1
  -3  -9   5  877.90   13.80   1
   3   9  -4  800.00   15.00   1
  -3  -9   4  804.40   12.30   1
   3   9  -3   30.60    0.80   1
  -3  -9   3   26.60    1.60   1
   3   9  -2  564.00    8.20   1
  -3  -9   2  568.20    8.90   1
   3   9  -1 1437.00   19.00   1
  -3  -9   1 1461.00   20.80   1
   3   9   0  195.70    3.70   1
  -3  -9   0  188.50    3.90   1
   3   9   1 1990.90   34.60   1
  -3  -9  -1 1993.50   30.40   1
   3   9   2 1346.50   24.90   1
  -3  -9  -2 1335.20   21.20   1
   3   9   3   54.90    1.90   1
  -3  -9  -3   56.10    1.90   1
   3   9   4    4.20    1.30   1
  -3  -9  -4    3.50    1.30   1
   3   9   5   59.30    2.30   1
  -3  -9  -5   57.30    2.80   1
   3   9   6  868.80   22.30   1
  -3  -9  -6  851.20   20.70   1
   3   9   7  549.80   15.30   1
  -3  -9  -7  541.00   15.10   1
   3   9   8   78.00    4.90   1
  -3  -9  -8   79.20    5.20   1
   3   9   9   15.70    3.40   1
  -3  -9  -9   22.90    4.20   1
   3  11 -10   38.90    3.20   1
  -3 -11  10   43.70    4.20   1
   3  11  -9   11.80    2.30   1
  -3 -11   9    8.50    2.80   1
   3  11  -8  993.70   25.60   1
  -3 -11   8 1042.50   30.90   1
   3  11  -7 1183.60   24.70   1
  -3 -11   7 1207.20   29.00   1
   3  11  -6  645.10   14.40   1
  -3 -11   6  667.20   17.10   1
   3  11  -5  585.70   11.60   1
  -3 -11   5  591.60   13.00   1
   3  11  -4   73.50    2.80   1
  -3 -11   4   82.20    2.70   1
   3  11  -3   10.70    1.20   1
  -3 -11   3   11.20    1.40   1
   3  11  -2  141.00    3.60   1
  -3 -11   2  155.30    4.20   1
   3  11  -1  439.60    8.70   1
  -3 -11   1  432.80    8.10   1
   3  11   0 1046.20   20.50   1
  -3 -11   0 1045.60   19.20   1
   3  11   1 1127.30   25.20   1
  -3 -11  -1 1127.90   24.70   1
   3  11   2 1397.60   30.90   1
  -3 -11  -2 1396.30   30.60   1
   3  11   3    6.20    2.00   1
  -3 -11  -3    8.10    2.30   1
   3  11   4  312.10    9.80   1
  -3 -11  -4  293.60    8.90   1
   3  11   5   24.40    3.00   1
  -3 -11  -5   17.10    2.50   1
   3  11   6  416.10   15.00   1
  -3 -11  -6  412.10   18.40   1
   3  11   7  402.10   14.90   1
  -3 -11  -7  395.30   18.10   1
   3  11   8   25.00    4.30   1
  -3 -11  -8   16.30    3.90   1
   3  13  -8   41.00    3.70   1
  -3 -13   8   54.30    6.30   1
   3  13  -7  139.40    6.40   1
  -3 -13   7  145.70    8.90   1
   3  13  -6   56.40    3.80   1
  -3 -13   6   49.30    5.20   1
   3  13  -5   13.40    2.90   1
  -3 -13   5    6.30    3.10   1
   3  13  -4   20.30    3.40   1
  -3 -13   4   18.80    2.50   1
   3  13  -3 2060.30   47.70   1
  -3 -13   3 2049.40   44.90   1
   3  13  -2   80.60    4.60   1
  -3 -13   2   83.60    4.30   1
   3  13  -1    6.50    2.60   1
  -3 -13   1    6.20    2.20   1
   3  13   0  132.30    5.90   1
  -3 -13   0  124.80    5.30   1
   3  13   1  143.80    6.30   1
  -3 -13  -1  137.50    5.90   1
   3  13   2   47.50    3.70   1
  -3 -13  -2   43.60    3.40   1
   3  13   3  361.30   13.60   1
  -3 -13  -3  362.60   11.60   1
   3  13   4   28.10    5.00   1
  -3 -13  -4   24.50    3.50   1
   3  13   5  708.90   24.70   1
  -3 -13  -5  691.00   23.30   1
   3  13   6   70.90    6.00   1
  -3 -13  -6   67.90    5.50   1
   3  15  -4  446.20   18.00   1
  -3 -15   4  461.40   21.00   1
   3  15  -3   55.30    5.20   1
  -3 -15   3   57.70    4.50   1
   3  15  -2  542.40   20.90   1
  -3 -15   2  522.90   19.10   1
   3  15  -1   12.10    3.60   1
  -3 -15   1   11.40    3.10   1
   3  15   0   67.10    5.10   1
  -3 -15   0   62.60    4.80   1
   3  15   1   27.40    3.60   1
  -3 -15  -1   16.10    3.00   1
   3  15   2  540.30   19.40   1
  -3 -15  -2  523.20   19.20   1
   4   0 -13    2.10    2.50   1
   4   0 -12  308.80    9.30   1
   4   0 -11   -0.80    1.30   1
   4   0 -10  513.20   10.00   1
   4   0  -9    2.70    1.10   1
   4   0  -8 1542.70   23.40   1
   4   0  -7    1.90    0.90   1
   4   0  -6 7145.50   99.80   1
   4   0  -5    2.20    0.30   1
   4   0  -4   52.10    1.00   1
   4   0  -3    2.70    0.40   1
   4   0  -2  431.60    4.20   1
   4   0  -1    2.50    0.30   1
   4   0   0 6030.80   52.40   1
   4   0   1    2.70    0.30   1
   4   0   2 1704.20   18.00   1
   4   0   3    2.50    0.60   1
   4   0   4  430.70    6.60   1
   4   0   5   -0.10    0.70   1
   4   0   6   88.50    2.50   1
   4   0   7   -0.30    1.10   1
   4   0   8 3156.30   50.80   1
   4   0   9    4.00    1.60   1
   4   0  10  118.20    5.20   1
   4   0  11   -3.00    2.20   1
   4   2 -13  301.80   11.70   1
  -4  -2  13  309.80   11.90   1
   4   2 -12  339.50   10.50   1
  -4  -2  12  344.70    9.40   1
   4   2 -11  534.90   12.00   1
  -4  -2  11  540.70   12.00   1
   4   2 -10  760.40   13.30   1
  -4  -2  10  765.40   13.40   1
   4   2  -9  434.60    7.70   1
  -4  -2   9  444.90    6.60   1
   4   2  -8  692.90   10.40   1
  -4  -2   8  705.40    9.40   1
   4   2  -7  715.00    9.50   1
  -4  -2   7  724.10    9.40   1
   4   2  -6   21.90    0.70   1
  -4  -2   6   22.50    0.70   1
   4   2  -5 5058.30   49.90   1
  -4  -2   5 5040.40   52.90   1
   4   2  -4 3090.60   29.50   1
  -4  -2   4 3054.20   29.60   1
   4   2  -3   74.50    0.90   1
  -4  -2   3   74.10    1.20   1
   4   2  -2 2996.10   25.60   1
  -4  -2   2 2917.50   29.40   1
   4   2  -1 1638.50   13.80   1
  -4  -2   1 1582.00   15.50   1
   4   2   0 1047.20    9.50   1
  -4  -2   0 1034.50   10.80   1
   4   2   1  147.40    1.70   1
  -4  -2  -1  145.60    2.10   1
   4   2   2  440.90    5.10   1
  -4  -2  -2  440.50    5.80   1
   4   2   3 3564.20   46.50   1
  -4  -2  -3 3506.50   46.20   1
   4   2   4  792.30   10.60   1
  -4  -2  -4  813.30   11.10   1
   4   2   5 1178.70   17.00   1
  -4  -2  -5 1189.80   17.00   1
   4   2   6   56.50    1.60   1
  -4  -2  -6   54.50    2.40   1
   4   2   7  284.20    6.00   1
  -4  -2  -7  277.90    6.00   1
   4   2   8  120.80    3.60   1
  -4  -2  -8  129.30    3.80   1
   4   2   9  533.70   11.70   1
  -4  -2  -9  539.80   11.60   1
   4   2  10  103.20    5.00   1
  -4  -2 -10   96.50    4.80   1
   4   2  11  144.70    6.80   1
  -4  -2 -11  146.80    6.70   1
   4   4 -13   13.50    3.20   1
  -4  -4  13   23.00    4.20   1
   4   4 -12    3.80    2.30   1
  -4  -4  12    1.40    2.20   1
   4   4 -11  202.50    5.10   1
  -4  -4  11  204.50    6.70   1
   4   4 -10 3969.90   61.00   1
  -4  -4  10 4090.30   57.30   1
   4   4  -9  638.30   11.10   1
  -4  -4   9  641.50   10.00   1
   4   4  -8  196.80    3.60   1
  -4  -4   8  199.70    3.40   1
   4   4  -7  165.30    2.90   1
  -4  -4   7  166.30    2.80   1
   4   4  -6  293.00    4.30   1
  -4  -4   6  292.40    4.00   1
   4   4  -5  737.90    9.10   1
  -4  -4   5  736.50    9.00   1
   4   4  -4 2067.80   23.70   1
  -4  -4   4 1997.30   26.20   1
   4   4  -3   84.30    1.40   1
  -4  -4   3   82.90    1.60   1
   4   4  -2 5855.80   64.90   1
  -4  -4   2 5855.00   60.80   1
   4   4  -1 1827.00   25.30   1
  -4  -4   1 1767.20   20.90   1
   4   4   0 1489.50   25.60   1
  -4  -4   0 1439.00   16.20   1
   4   4   1  109.00    2.00   1
  -4  -4  -1  109.60    2.30   1
   4   4   2   36.30    0.80   1
  -4  -4  -2   36.40    1.00   1
   4   4   3  434.40    6.70   1
  -4  -4  -3  431.20    6.20   1
   4   4   4 1822.00   23.30   1
  -4  -4  -4 1809.90   23.10   1
   4   4   5  218.40    4.10   1
  -4  -4  -5  227.40    4.30   1
   4   4   6  194.00    4.10   1
  -4  -4  -6  211.10    4.30   1
   4   4   7  301.20    6.50   1
  -4  -4  -7  303.50    6.00   1
   4   4   8  743.00   14.70   1
  -4  -4  -8  781.50   13.70   1
   4   4   9  376.50    8.90   1
  -4  -4  -9  367.70    9.10   1
   4   4  10   67.00    4.40   1
  -4  -4 -10   66.50    4.30   1
   4   6 -12  505.70   15.00   1
  -4  -6  12  523.90   17.80   1
   4   6 -11  149.40    4.70   1
  -4  -6  11  180.40    8.20   1
   4   6 -10   83.10    3.00   1
  -4  -6  10   89.70    3.40   1
   4   6  -9   81.30    2.70   1
  -4  -6   9   85.20    2.40   1
   4   6  -8  789.00   13.50   1
  -4  -6   8  827.00   12.50   1
   4   6  -7  277.20    6.90   1
  -4  -6   7  288.90    4.60   1
   4   6  -6 3330.80   44.10   1
  -4  -6   6 3403.60   42.00   1
   4   6  -5 1399.00   18.50   1
  -4  -6   5 1378.30   18.00   1
   4   6  -4   40.40    1.10   1
  -4  -6   4   41.30    1.00   1
   4   6  -3    3.90    0.50   1
  -4  -6   3    3.50    0.70   1
   4   6  -2    8.60    0.60   1
  -4  -6   2    7.30    0.60   1
   4   6  -1  333.80    7.40   1
  -4  -6   1  333.90    5.50   1
   4   6   0 3535.40   56.60   1
  -4  -6   0 3505.30   56.50   1
   4   6   1  140.90    3.30   1
  -4  -6  -1  136.70    3.10   1
   4   6   2 1523.40   17.80   1
  -4  -6  -2 1513.00   19.20   1
   4   6   3 1569.80   20.30   1
  -4  -6  -3 1582.50   22.30   1
   4   6   4 1152.90   17.00   1
  -4  -6  -4 1126.80   18.80   1
   4   6   5  202.70    4.70   1
  -4  -6  -5  206.10    4.60   1
   4   6   6   36.60    1.70   1
  -4  -6  -6   36.90    2.00   1
   4   6   7   67.00    2.60   1
  -4  -6  -7   70.30    2.90   1
   4   6   8  384.80    9.30   1
  -4  -6  -8  382.50   11.90   1
   4   6   9  136.90    6.60   1
  -4  -6  -9  150.40    7.40   1
   4   6  10    8.30    4.00   1
  -4  -6 -10   12.40    3.70   1
   4   8 -12   82.80    4.80   1
  -4  -8  12   79.80    6.50   1
   4   8 -11  641.90   16.40   1
  -4  -8  11  662.80   21.20   1
   4   8 -10   17.20    2.30   1
  -4  -8  10   19.50    2.20   1
   4   8  -9  732.30   14.30   1
  -4  -8   9  750.30   16.30   1
   4   8  -8  416.40    9.60   1
  -4  -8   8  422.40    7.90   1
   4   8  -7  322.90    7.30   1
  -4  -8   7  347.50    6.20   1
   4   8  -6 1282.40   26.80   1
  -4  -8   6 1311.80   18.00   1
   4   8  -5  769.20   14.50   1
  -4  -8   5  812.70   10.60   1
   4   8  -4  297.00    5.10   1
  -4  -8   4  299.00    4.70   1
   4   8  -3    2.90    0.60   1
  -4  -8   3    2.30    0.50   1
   4   8  -2   41.70    1.20   1
  -4  -8   2   44.60    1.20   1
   4   8  -1 3273.00   47.70   1
  -4  -8   1 3362.30   48.30   1
   4   8   0  918.30   16.80   1
  -4  -8   0  936.50   17.30   1
   4   8   1  102.70    3.00   1
  -4  -8  -1  105.70    3.10   1
   4   8   2  221.70    4.10   1
  -4  -8  -2  216.50    4.50   1
   4   8   3  849.70   14.30   1
  -4  -8  -3  831.10   13.10   1
   4   8   4   40.10    1.80   1
  -4  -8  -4   34.50    2.20   1
   4   8   5  511.00   11.40   1
  -4  -8  -5  495.50   11.20   1
   4   8   6   14.30    2.40   1
  -4  -8  -6   12.20    2.50   1
   4   8   7  690.40   16.10   1
  -4  -8  -7  649.20   18.40   1
   4   8   8  450.30   13.90   1
  -4  -8  -8  457.50   16.40   1
   4   8   9  441.30   30.50   1
  -4  -8  -9  429.40   16.50   1
   4  10 -10  980.30   23.40   1
  -4 -10  10 1006.00   31.40   1
   4  10  -9    8.80    2.00   1
  -4 -10   9   12.30    2.40   1
   4  10  -8  145.00    5.10   1
  -4 -10   8  153.30    6.00   1
   4  10  -7    9.50    2.10   1
  -4 -10   7   12.20    2.00   1
   4  10  -6  822.80   17.20   1
  -4 -10   6  833.30   15.50   1
   4  10  -5   56.50    3.00   1
  -4 -10   5   52.20    2.10   1
   4  10  -4 1936.20   35.50   1
  -4 -10   4 1990.20   32.70   1
   4  10  -3    4.30    1.20   1
  -4 -10   3    9.40    1.30   1
   4  10  -2 1564.00   23.30   1
  -4 -10   2 1555.40   28.30   1
   4  10  -1   17.70    1.50   1
  -4 -10   1   19.50    2.00   1
   4  10   0   79.00    2.90   1
  -4 -10   0   75.80    3.30   1
   4  10   1  103.30    3.30   1
  -4 -10  -1  103.20    3.50   1
   4  10   2   44.60    2.80   1
  -4 -10  -2   47.70    2.30   1
   4  10   3    4.00    1.60   1
  -4 -10  -3    1.90    2.00   1
   4  10   4 2060.30   46.90   1
  -4 -10  -4 2146.20   46.70   1
   4  10   5   57.70    3.80   1
  -4 -10  -5   53.00    4.60   1
   4  10   6   25.50    3.60   1
  -4 -10  -6   20.00    4.00   1
   4  10   7   10.90    3.10   1
  -4 -10  -7   10.30    3.30   1
   4  10   8  385.90   18.40   1
  -4 -10  -8  351.00   18.70   1
   4  12  -9  697.20   24.30   1
  -4 -12   9  707.00   30.10   1
   4  12  -8   56.60    4.30   1
  -4 -12   8   64.00    6.10   1
   4  12  -7  137.10    6.70   1
  -4 -12   7  136.90    8.00   1
   4  12  -6  783.40   18.00   1
  -4 -12   6  789.10   25.40   1
   4  12  -5  537.90   13.50   1
  -4 -12   5  541.40   13.20   1
   4  12  -4    1.70    2.30   1
  -4 -12   4    7.70    1.70   1
   4  12  -3   95.20    4.00   1
  -4 -12   3   95.20    3.70   1
   4  12  -2   85.60    4.60   1
  -4 -12   2   83.70    3.40   1
   4  12  -1 1503.10   34.40   1
  -4 -12   1 1461.90   32.60   1
   4  12   0  202.30    7.60   1
  -4 -12   0  205.60    8.70   1
   4  12   1  133.60    5.90   1
  -4 -12  -1  131.60    7.00   1
   4  12   2  168.70    7.00   1
  -4 -12  -2  163.60    6.50   1
   4  12   3  364.00   14.80   1
  -4 -12  -3  355.00   11.80   1
   4  12   4   18.10    3.20   1
  -4 -12  -4   16.50    3.30   1
   4  12   5  169.30    8.30   1
  -4 -12  -5  156.00    9.80   1
   4  12   6   19.90    3.70   1
  -4 -12  -6   21.60    4.60   1
   4  14  -6  931.80   30.80   1
  -4 -14   6  879.80   36.10   1
   4  14  -5  243.40   10.70   1
  -4 -14   5  231.30   12.60   1
   4  14  -4   11.60    3.60   1
  -4 -14   4   15.40    3.60   1
   4  14  -3    9.00    2.90   1
  -4 -14   3    7.90    2.90   1
   4  14  -2   31.20    3.60   1
  -4 -14   2   35.10    3.50   1
   4  14  -1  321.10   12.90   1
  -4 -14   1  306.50   12.10   1
   4  14   0  537.60   18.70   1
  -4 -14   0  562.10   18.90   1
   4  14   1    3.10    2.60   1
  -4 -14  -1    8.70    3.50   1
   4  14   2  276.40   15.00   1
  -4 -14  -2  266.80   11.20   1
   4  14   3   92.50    8.00   1
  -4 -14  -3   93.70    5.80   1
   5   1 -13   49.70    4.00   1
  -5  -1  13   46.10    3.20   1
   5   1 -12  549.50   14.30   1
  -5  -1  12  555.70   13.00   1
   5   1 -11 1400.60   31.20   1
  -5  -1  11 1420.60   26.50   1
   5   1 -10   36.80    1.90   1
  -5  -1  10   38.60    1.90   1
   5   1  -9 1100.10   17.70   1
  -5  -1   9 1104.90   16.20   1
   5   1  -8 1236.70   19.00   1
  -5  -1   8 1209.40   17.00   1
   5   1  -7  290.60    4.20   1
  -5  -1   7  275.90    4.90   1
   5   1  -6  593.40    7.20   1
  -5  -1   6  587.80    7.70   1
   5   1  -5    3.50    0.50   1
  -5  -1   5    0.80    0.50   1
   5   1  -4 2295.50   24.90   1
  -5  -1   4 2253.20   24.40   1
   5   1  -3 5768.80   50.50   1
  -5  -1   3 5789.00   55.30   1
   5   1  -2  258.20    2.80   1
  -5  -1   2  257.90    3.10   1
   5   1  -1   67.70    1.10   1
  -5  -1   1   70.50    1.10   1
   5   1   0 2674.50   26.30   1
  -5  -1   0 2688.80   27.50   1
   5   1   1   42.50    1.00   1
  -5  -1  -1   43.30    1.00   1
   5   1   2 1758.80   20.40   1
  -5  -1  -2 1784.50   18.90   1
   5   1   3   24.70    0.90   1
  -5  -1  -3   22.50    1.00   1
   5   1   4    3.00    0.40   1
  -5  -1  -4    2.60    0.80   1
   5   1   5 1299.10   22.90   1
  -5  -1  -5 1294.60   23.20   1
   5   1   6  518.10   11.20   1
  -5  -1  -6  527.10   11.30   1
   5   1   7  407.00    8.60   1
  -5  -1  -7  419.50    8.70   1
   5   1   8   25.70    2.10   1
  -5  -1  -8   30.80    2.30   1
   5   1   9   19.70    2.30   1
  -5  -1  -9   21.20    2.40   1
   5   1  10  690.80   20.50   1
  -5  -1 -10  718.20   21.20   1
   5   3 -13 1518.00   44.90   1
  -5  -3  13 1560.20   46.10   1
   5   3 -12   73.60    4.10   1
  -5  -3  12   79.80    3.70   1
   5   3 -11   20.60    2.40   1
  -5  -3  11   26.00    2.10   1
   5   3 -10  222.50    5.30   1
  -5  -3  10  231.30    5.90   1
   5   3  -9   16.10    1.20   1
  -5  -3   9   15.20    1.00   1
   5   3  -8  318.90    5.90   1
  -5  -3   8  323.70    5.30   1
   5   3  -7 4360.10   49.80   1
  -5  -3   7 4267.50   55.80   1
   5   3  -6   83.70    1.50   1
  -5  -3   6   85.60    1.70   1
   5   3  -5 3074.10   31.30   1
  -5  -3   5 3091.70   33.50   1
   5   3  -4  121.40    1.60   1
  -5  -3   4  116.80    2.00   1
   5   3  -3  430.90    5.20   1
  -5  -3   3  435.50    5.30   1
   5   3  -2   13.90    0.60   1
  -5  -3   2   13.80    0.60   1
   5   3  -1  475.80    6.60   1
  -5  -3   1  481.10    6.20   1
   5   3   0   26.10    0.80   1
  -5  -3   0   26.90    1.00   1
   5   3   1 4987.90   59.60   1
  -5  -3  -1 5177.90   58.00   1
   5   3   2  418.80    5.50   1
  -5  -3  -2  416.30    6.40   1
   5   3   3    3.80    0.60   1
  -5  -3  -3    3.20    0.70   1
   5   3   4   36.80    1.20   1
  -5  -3  -4   37.60    1.50   1
   5   3   5  667.50   11.80   1
  -5  -3  -5  646.00   10.50   1
   5   3   6  281.90    5.90   1
  -5  -3  -6  276.00    5.30   1
   5   3   7  772.40   15.10   1
  -5  -3  -7  772.50   13.60   1
   5   3   8   29.50    2.20   1
  -5  -3  -8   37.40    2.20   1
   5   3   9  393.10   11.00   1
  -5  -3  -9  401.80   10.70   1
   5   3  10   10.50    3.60   1
  -5  -3 -10   24.50    4.10   1
   5   5 -13  205.70    9.20   1
  -5  -5  13  186.20   11.10   1
   5   5 -12  681.40   18.60   1
  -5  -5  12  714.10   27.70   1
   5   5 -11  249.30    7.10   1
  -5  -5  11  255.70    8.50   1
   5   5 -10  238.00    5.70   1
  -5  -5  10  260.80    5.80   1
   5   5  -9  572.00   10.40   1
  -5  -5   9  592.60   10.00   1
   5   5  -8 2283.00   30.00   1
  -5  -5   8 2288.80   31.60   1
   5   5  -7  640.80   10.70   1
  -5  -5   7  641.50    9.80   1
   5   5  -6  120.40    2.50   1
  -5  -5   6  117.90    2.50   1
   5   5  -5 1420.50   17.50   1
  -5  -5   5 1419.20   18.30   1
   5   5  -4 1355.90   16.30   1
  -5  -5   4 1355.30   17.30   1
   5   5  -3 1144.40   13.90   1
  -5  -5   3 1143.70   14.30   1
   5   5  -2  961.30   16.60   1
  -5  -5   2  962.60   13.80   1
   5   5  -1 1168.80   19.90   1
  -5  -5   1 1187.90   15.60   1
   5   5   0 1245.20   18.90   1
  -5  -5   0 1264.00   15.20   1
   5   5   1  437.30    6.70   1
  -5  -5  -1  434.00    7.60   1
   5   5   2 1816.10   25.10   1
  -5  -5  -2 1790.90   27.30   1
   5   5   3  338.60    5.30   1
  -5  -5  -3  338.50    5.20   1
   5   5   4  265.60    5.40   1
  -5  -5  -4  273.50    5.70   1
   5   5   5   38.60    1.60   1
  -5  -5  -5   43.90    1.90   1
   5   5   6 1725.20   26.80   1
  -5  -5  -6 1685.30   25.80   1
   5   5   7   64.70    3.30   1
  -5  -5  -7   64.60    3.20   1
   5   5   8    5.30    2.00   1
  -5  -5  -8    5.90    2.20   1
   5   5   9   10.40    2.30   1
  -5  -5  -9    2.50    3.10   1
   5   7 -12   71.40    4.20   1
  -5  -7  12   66.00    4.70   1
   5   7 -11 1079.90   27.70   1
  -5  -7  11 1031.80   30.70   1
   5   7 -10   32.40    2.30   1
  -5  -7  10   34.80    2.20   1
   5   7  -9 1875.70   31.10   1
  -5  -7   9 1909.00   32.00   1
   5   7  -8   76.30    3.00   1
  -5  -7   8   87.60    2.50   1
   5   7  -7   21.20    1.60   1
  -5  -7   7   16.70    1.00   1
   5   7  -6  127.90    3.50   1
  -5  -7   6  134.30    2.90   1
   5   7  -5    5.40    0.80   1
  -5  -7   5    5.80    0.80   1
   5   7  -4  416.40    6.70   1
  -5  -7   4  424.50    6.80   1
   5   7  -3 4264.60   56.50   1
  -5  -7   3 4307.80   56.10   1
   5   7  -2  458.20    9.20   1
  -5  -7   2  463.70    9.10   1
   5   7  -1  244.00    5.40   1
  -5  -7   1  246.00    6.40   1
   5   7   0  119.70    3.30   1
  -5  -7   0  123.20    3.40   1
   5   7   1  606.50    9.60   1
  -5  -7  -1  612.70   11.90   1
   5   7   2   25.40    1.20   1
  -5  -7  -2   34.40    2.60   1
   5   7   3  416.70    9.40   1
  -5  -7  -3  403.60    9.10   1
   5   7   4  479.20   10.70   1
  -5  -7  -4  475.30   10.50   1
   5   7   5 1770.30   33.30   1
  -5  -7  -5 1728.30   33.60   1
   5   7   6  332.90   10.50   1
  -5  -7  -6  349.80    9.30   1
   5   7   7  301.30    9.80   1
  -5  -7  -7  302.20   10.60   1
   5   7   8  111.40    7.70   1
  -5  -7  -8  100.40    6.20   1
   5   9 -11   56.90    4.30   1
  -5  -9  11   59.90    5.70   1
   5   9 -10   13.30    2.20   1
  -5  -9  10   11.90    2.60   1
   5   9  -9   77.80    3.20   1
  -5  -9   9   75.10    3.50   1
   5   9  -8  561.10   13.20   1
  -5  -9   8  576.20   13.20   1
   5   9  -7 1479.40   27.80   1
  -5  -9   7 1508.30   28.30   1
   5   9  -6   23.20    1.70   1
  -5  -9   6   27.00    1.50   1
   5   9  -5  265.50    7.50   1
  -5  -9   5  261.00    6.40   1
   5   9  -4 1277.00   23.80   1
  -5  -9   4 1278.80   21.00   1
   5   9  -3   11.20    1.40   1
  -5  -9   3   13.30    2.70   1
   5   9  -2  291.80    6.20   1
  -5  -9   2  298.80    7.80   1
   5   9  -1    2.00    1.40   1
  -5  -9   1    3.90    1.50   1
   5   9   0  512.60   11.10   1
  -5  -9   0  508.40   12.70   1
   5   9   1 1602.00   26.80   1
  -5  -9  -1 1593.00   29.80   1
   5   9   2  747.20   13.90   1
  -5  -9  -2  762.60   15.00   1
   5   9   3  178.40    6.40   1
  -5  -9  -3  190.60    6.60   1
   5   9   4   99.10    4.80   1
  -5  -9  -4  104.10    5.00   1
   5   9   5   82.70    4.70   1
  -5  -9  -5   85.70    5.00   1
   5   9   6  406.20   12.10   1
  -5  -9  -6  395.00   14.30   1
   5   9   7   20.10    3.30   1
  -5  -9  -7   21.00    3.60   1
   5  11  -9    8.60    2.90   1
  -5 -11   9   -1.10    3.70   1
   5  11  -8  500.30   17.00   1
  -5 -11   8  506.80   21.00   1
   5  11  -7  801.20   21.00   1
  -5 -11   7  815.30   21.50   1
   5  11  -6    2.00    2.10   1
  -5 -11   6    2.30    2.10   1
   5  11  -5  346.00   10.40   1
  -5 -11   5  358.10   10.60   1
   5  11  -4  617.40   16.10   1
  -5 -11   4  612.70   14.00   1
   5  11  -3   86.50    3.50   1
  -5 -11   3   75.30    3.90   1
   5  11  -2  417.50   10.50   1
  -5 -11   2  408.80   11.60   1
   5  11  -1    3.30    1.20   1
  -5 -11   1    6.40    2.00   1
   5  11   0  543.90   14.90   1
  -5 -11   0  501.90   16.20   1
   5  11   1  810.70   20.60   1
  -5 -11  -1  790.30   19.90   1
   5  11   2  405.20   15.50   1
  -5 -11  -2  398.80   11.80   1
   5  11   3    5.80    2.30   1
  -5 -11  -3    6.10    2.30   1
   5  11   4   34.70    3.80   1
  -5 -11  -4   39.70    4.70   1
   5  11   5   78.80    5.20   1
  -5 -11  -5   84.80    6.80   1
   5  11   6  337.40   13.80   1
  -5 -11  -6  341.00   17.50   1
   5  13  -7  136.60    7.50   1
  -5 -13   7  121.30    8.70   1
   5  13  -6   -1.60    2.70   1
  -5 -13   6    2.90    3.20   1
   5  13  -5   10.50    3.10   1
  -5 -13   5    5.90    2.50   1
   5  13  -4   27.00    5.10   1
  -5 -13   4   14.10    2.40   1
   5  13  -3 1450.60   43.50   1
  -5 -13   3 1423.90   35.30   1
   5  13  -2   80.50    4.90   1
  -5 -13   2   80.80    4.90   1
   5  13  -1  256.60   10.40   1
  -5 -13   1  285.10   13.20   1
   5  13   0   64.00    4.60   1
  -5 -13   0   56.20    5.50   1
   5  13   1  439.80   19.40   1
  -5 -13  -1  441.50   19.10   1
   5  13   2   19.10    4.50   1
  -5 -13  -2    7.40    3.50   1
   5  13   3  224.50   10.00   1
  -5 -13  -3  213.30   12.00   1
   6   0 -13   -1.90    2.70   1
   6   0 -12 1038.20   22.80   1
   6   0 -11    3.80    1.90   1
   6   0 -10   86.20    2.80   1
   6   0  -9    1.70    1.20   1
   6   0  -8  190.30    4.40   1
   6   0  -7    0.70    0.60   1
   6   0  -6 9067.60  116.10   1
   6   0  -5    0.80    0.70   1
   6   0  -4  136.60    2.30   1
   6   0  -3    1.60    0.50   1
   6   0  -2   28.10    0.90   1
   6   0  -1    1.30    0.40   1
   6   0   0  959.40   10.20   1
   6   0   1    2.00    0.30   1
   6   0   2 4497.10   55.20   1
   6   0   3    1.20    1.00   1
   6   0   4 1744.40   31.20   1
   6   0   5    2.20    1.20   1
   6   0   6    7.60    1.50   1
   6   0   7    2.80    1.70   1
   6   0   8  387.30   10.40   1
   6   0   9    2.80    1.80   1
   6   2 -13    8.00    3.40   1
  -6  -2  13    6.00    2.40   1
   6   2 -12   79.00    4.70   1
  -6  -2  12   74.30    3.80   1
   6   2 -11 1241.50   28.50   1
  -6  -2  11 1264.10   22.90   1
   6   2 -10 1126.00   21.80   1
  -6  -2  10 1124.70   19.50   1
   6   2  -9  674.60   13.10   1
  -6  -2   9  652.50   11.60   1
   6   2  -8  615.30    9.20   1
  -6  -2   8  605.50   13.00   1
   6   2  -7  745.30    9.30   1
  -6  -2   7  745.90   11.20   1
   6   2  -6  389.40    5.20   1
  -6  -2   6  389.00    5.70   1
   6   2  -5  811.30    9.50   1
  -6  -2   5  807.20   10.30   1
   6   2  -4 1515.50   17.90   1
  -6  -2   4 1521.40   18.30   1
   6   2  -3  494.30    6.40   1
  -6  -2   3  509.10    6.60   1
   6   2  -2 2088.60   24.60   1
  -6  -2   2 2094.00   23.00   1
   6   2  -1 4234.70   48.00   1
  -6  -2   1 4252.70   48.40   1
   6   2   0   42.20    1.20   1
  -6  -2   0   38.30    1.00   1
   6   2   1   12.00    0.70   1
  -6  -2  -1   11.90    0.80   1
   6   2   2    8.20    0.70   1
  -6  -2  -2    7.60    0.80   1
   6   2   3  961.30   13.30   1
  -6  -2  -3  944.60   13.50   1
   6   2   4  147.80    4.00   1
  -6  -2  -4  151.30    4.00   1
   6   2   5  146.10    3.90   1
  -6  -2  -5  152.90    3.80   1
   6   2   6   77.50    2.60   1
  -6  -2  -6   73.40    2.60   1
   6   2   7 1255.70   25.60   1
  -6  -2  -7 1212.90   20.00   1
   6   2   8   68.60    3.80   1
  -6  -2  -8   75.50    3.60   1
   6   2   9  305.80   12.40   1
  -6  -2  -9  321.80   11.20   1
   6   4 -13   -4.70    2.90   1
  -6  -4  13    2.80    3.60   1
   6   4 -12   25.40    3.40   1
  -6  -4  12   18.90    2.40   1
   6   4 -11  295.50    7.90   1
  -6  -4  11  308.90    7.40   1
   6   4 -10 2214.40   37.00   1
  -6  -4  10 2223.00   36.00   1
   6   4  -9  107.20    2.80   1
  -6  -4   9  111.20    2.90   1
   6   4  -8  680.20   10.10   1
  -6  -4   8  677.20   11.70   1
   6   4  -7  233.10    3.90   1
  -6  -4   7  232.60    4.30   1
   6   4  -6  279.70    5.30   1
  -6  -4   6  291.20    4.70   1
   6   4  -5  752.20    9.80   1
  -6  -4   5  754.60   10.40   1
   6   4  -4  437.90    5.30   1
  -6  -4   4  440.70    5.60   1
   6   4  -3  229.20    3.40   1
  -6  -4   3  232.20    3.50   1
   6   4  -2 2857.30   33.10   1
  -6  -4   2 2867.20   38.40   1
   6   4  -1  706.60   10.50   1
  -6  -4   1  690.10    9.60   1
   6   4   0  198.30    3.70   1
  -6  -4   0  199.30    3.40   1
   6   4   1    6.30    0.80   1
  -6  -4  -1    6.00    1.10   1
   6   4   2   84.70    1.60   1
  -6  -4  -2   88.00    2.00   1
   6   4   3  899.40   14.10   1
  -6  -4  -3  911.10   16.90   1
   6   4   4 1422.00   21.40   1
  -6  -4  -4 1365.00   26.10   1
   6   4   5   16.80    1.70   1
  -6  -4  -5   17.80    1.30   1
   6   4   6  215.00    7.20   1
  -6  -4  -6  212.50    5.70   1
   6   4   7  145.30    4.60   1
  -6  -4  -7  138.10    4.70   1
   6   4   8  437.40   13.50   1
  -6  -4  -8  407.00   12.90   1
   6   4   9  128.90    8.60   1
  -6  -4  -9  114.10    6.80   1
   6   6 -12  475.90   14.80   1
  -6  -6  12  466.10   20.40   1
   6   6 -11  441.50   12.90   1
  -6  -6  11  454.30   13.10   1
   6   6 -10  189.20    5.70   1
  -6  -6  10  186.70    5.10   1
   6   6  -9  322.70    7.20   1
  -6  -6   9  342.30    6.50   1
   6   6  -8  233.30    4.80   1
  -6  -6   8  230.80    5.10   1
   6   6  -7  144.90    3.60   1
  -6  -6   7  153.50    3.60   1
   6   6  -6 2550.00   42.80   1
  -6  -6   6 2509.50   34.30   1
   6   6  -5  133.10    3.10   1
  -6  -6   5  133.90    2.80   1
   6   6  -4  314.10    5.50   1
  -6  -6   4  326.30    5.00   1
   6   6  -3  487.30    9.50   1
  -6  -6   3  497.40    9.70   1
   6   6  -2  444.70    9.10   1
  -6  -6   2  433.90    8.60   1
   6   6  -1 1185.70   17.50   1
  -6  -6   1 1154.50   17.10   1
   6   6   0 1538.00   24.10   1
  -6  -6   0 1510.10   23.90   1
   6   6   1   63.40    1.90   1
  -6  -6  -1   65.40    2.50   1
   6   6   2  557.70    9.00   1
  -6  -6  -2  533.80   10.80   1
   6   6   3  172.80    4.40   1
  -6  -6  -3  170.40    4.50   1
   6   6   4  415.30    9.00   1
  -6  -6  -4  420.20    9.10   1
   6   6   5   11.20    1.80   1
  -6  -6  -5    9.60    1.80   1
   6   6   6   51.20    3.60   1
  -6  -6  -6   44.80    3.10   1
   6   6   7  573.80   19.60   1
  -6  -6  -7  545.30   18.90   1
   6   6   8  737.60   24.60   1
  -6  -6  -8  719.90   24.20   1
   6   8 -11  355.60   11.60   1
  -6  -8  11  358.30   16.50   1
   6   8 -10  330.90   10.30   1
  -6  -8  10  325.40   11.40   1
   6   8  -9  133.40    4.20   1
  -6  -8   9  138.00    4.30   1
   6   8  -8  101.80    3.80   1
  -6  -8   8  106.90    3.50   1
   6   8  -7 1146.00   22.20   1
  -6  -8   7 1188.20   20.70   1
   6   8  -6 1648.80   30.30   1
  -6  -8   6 1704.60   25.50   1
   6   8  -5 1341.70   25.10   1
  -6  -8   5 1353.20   22.20   1
   6   8  -4    0.60    1.20   1
  -6  -8   4    1.20    1.10   1
   6   8  -3   95.30    3.10   1
  -6  -8   3   91.30    3.20   1
   6   8  -2  198.70    5.00   1
  -6  -8   2  195.00    5.80   1
   6   8  -1  727.00   14.50   1
  -6  -8   1  713.50   16.10   1
   6   8   0   40.10    1.90   1
  -6  -8   0   39.10    2.30   1
   6   8   1   32.30    1.90   1
  -6  -8  -1   26.70    2.00   1
   6   8   2  821.60   19.50   1
  -6  -8  -2  817.40   17.30   1
   6   8   3 1689.60   37.70   1
  -6  -8  -3 1701.80   33.60   1
   6   8   4  115.90    4.40   1
  -6  -8  -4  126.10    4.90   1
   6   8   5  240.10    7.30   1
  -6  -8  -5  259.70    9.30   1
   6   8   6   29.90    3.40   1
  -6  -8  -6   24.30    3.80   1
   6   8   7  277.40   11.80   1
  -6  -8  -7  279.70   12.00   1
   6  10 -10 1656.40   49.10   1
  -6 -10  10 1779.90   60.00   1
   6  10  -9   -4.50    2.80   1
  -6 -10   9   -0.70    2.40   1
   6  10  -8  265.50    9.90   1
  -6 -10   8  274.20    8.80   1
   6  10  -7    5.90    2.50   1
  -6 -10   7    1.30    1.70   1
   6  10  -6  172.50    6.20   1
  -6 -10   6  155.70    5.90   1
   6  10  -5   13.90    2.30   1
  -6 -10   5   12.30    2.20   1
   6  10  -4  605.60   15.20   1
  -6 -10   4  609.50   15.30   1
   6  10  -3   15.00    2.40   1
  -6 -10   3   16.70    2.80   1
   6  10  -2 2459.30   40.90   1
  -6 -10   2 2372.20   50.80   1
   6  10  -1   47.30    2.20   1
  -6 -10   1   46.20    2.90   1
   6  10   0  165.10    5.10   1
  -6 -10   0  178.20    6.10   1
   6  10   1   34.10    3.00   1
  -6 -10  -1   37.10    2.60   1
   6  10   2  195.90    7.30   1
  -6 -10  -2  208.40    7.40   1
   6  10   3    3.80    2.30   1
  -6 -10  -3    8.30    3.30   1
   6  10   4  640.90   21.30   1
  -6 -10  -4  633.60   26.10   1
   6  10   5    1.20    2.50   1
  -6 -10  -5    3.40    4.30   1
   6  10   6  136.50    7.60   1
  -6 -10  -6  123.40    9.50   1
   6  12  -8   94.40    5.90   1
  -6 -12   8   90.20    5.70   1
   6  12  -7  215.50    9.60   1
  -6 -12   7  225.00    9.50   1
   6  12  -6  435.10   13.60   1
  -6 -12   6  431.30   15.10   1
   6  12  -5  722.10   19.90   1
  -6 -12   5  751.60   23.80   1
   6  12  -4   16.20    3.00   1
  -6 -12   4   12.90    2.80   1
   6  12  -3  230.60    9.50   1
  -6 -12   3  242.50    9.20   1
   6  12  -2    3.60    2.80   1
  -6 -12   2    0.40    2.30   1
   6  12  -1  557.00   18.70   1
  -6 -12   1  560.60   18.40   1
   6  12   0  115.70    7.90   1
  -6 -12   0  127.20    8.00   1
   6  12   1    5.30    2.50   1
  -6 -12  -1    1.40    3.30   1
   6  12   2  160.20    7.50   1
  -6 -12  -2  148.90    8.60   1
   6  12   3  960.20   31.00   1
  -6 -12  -3  965.40   39.50   1
   6  12   4   14.00    3.80   1
  -6 -12  -4   10.70    5.70   1
   6  14  -3   14.00    3.70   1
  -6 -14   3    6.00    2.90   1
   6  14  -2  348.20   18.70   1
  -6 -14   2  372.10   14.50   1
   6  14  -1  208.00   19.30   1
  -6 -14   1  224.80   11.50   1
   7   1 -13   11.10    2.50   1
  -7  -1  13    9.40    2.50   1
   7   1 -12  532.30   13.20   1
  -7  -1  12  538.10   13.20   1
   7   1 -11  360.10    8.40   1
  -7  -1  11  365.10    8.30   1
   7   1 -10   44.20    2.20   1
  -7  -1  10   44.00    2.30   1
   7   1  -9 2195.30   38.50   1
  -7  -1   9 2196.40   34.50   1
   7   1  -8  476.00    7.70   1
  -7  -1   8  472.10   11.50   1
   7   1  -7   34.00    1.40   1
  -7  -1   7   32.70    1.60   1
   7   1  -6  218.30    3.90   1
  -7  -1   6  217.30    3.90   1
   7   1  -5  116.70    2.50   1
  -7  -1   5  116.70    2.60   1
   7   1  -4 1695.10   21.80   1
  -7  -1   4 1724.20   21.90   1
   7   1  -3 1632.60   19.40   1
  -7  -1   3 1634.00   22.70   1
   7   1  -2  915.00   11.00   1
  -7  -1   2  897.00   12.30   1
   7   1  -1 1179.10   13.90   1
  -7  -1   1 1180.70   14.50   1
   7   1   0 1102.50   13.00   1
  -7  -1   0 1111.30   13.00   1
   7   1   1  386.30    5.00   1
  -7  -1  -1  381.30    5.70   1
   7   1   2  373.30    6.10   1
  -7  -1  -2  365.20    6.00   1
   7   1   3  208.80    4.90   1
  -7  -1  -3  209.70    5.40   1
   7   1   4  678.30   13.00   1
  -7  -1  -4  675.50   11.50   1
   7   1   5  547.60   10.30   1
  -7  -1  -5  566.00   10.20   1
   7   1   6  466.30   10.30   1
  -7  -1  -6  467.10    9.40   1
   7   1   7    2.10    2.00   1
  -7  -1  -7    3.50    2.00   1
   7   1   8   25.20    3.50   1
  -7  -1  -8   28.80    3.00   1
   7   3 -13 1613.60   61.00   1
  -7  -3  13 1588.10   40.70   1
   7   3 -12   26.00    3.10   1
  -7  -3  12   21.10    2.20   1
   7   3 -11  298.10    9.30   1
  -7  -3  11  291.80    7.20   1
   7   3 -10    9.50    2.30   1
  -7  -3  10    3.70    1.80   1
   7   3  -9  186.60    5.10   1
  -7  -3   9  187.10    4.60   1
   7   3  -8  317.90    6.30   1
  -7  -3   8  319.20    6.50   1
   7   3  -7 2232.10   32.10   1
  -7  -3   7 2256.30   38.70   1
   7   3  -6   68.50    1.60   1
  -7  -3   6   70.10    2.10   1
   7   3  -5 2081.30   24.70   1
  -7  -3   5 2067.10   26.70   1
   7   3  -4  312.50    4.60   1
  -7  -3   4  312.90    4.90   1
   7   3  -3  310.80    4.30   1
  -7  -3   3  307.20    4.80   1
   7   3  -2   30.10    0.90   1
  -7  -3   2   32.60    0.90   1
   7   3  -1   68.70    2.10   1
  -7  -3   1   72.20    1.90   1
   7   3   0   47.70    1.70   1
  -7  -3   0   49.40    1.50   1
   7   3   1 2843.30   34.10   1
  -7  -3  -1 2742.70   38.50   1
   7   3   2    3.30    0.60   1
  -7  -3  -2    0.80    2.00   1
   7   3   3    3.10    1.20   1
  -7  -3  -3    1.80    0.80   1
   7   3   4   95.90    3.60   1
  -7  -3  -4   88.90    3.30   1
   7   3   5  847.20   19.80   1
  -7  -3  -5  839.90   16.30   1
   7   3   6  273.80    7.80   1
  -7  -3  -6  280.50    7.40   1
   7   3   7   55.30    3.50   1
  -7  -3  -7   57.90    3.30   1
   7   3   8   13.80    3.10   1
  -7  -3  -8   13.00    2.40   1
   7   5 -12  366.80   13.30   1
  -7  -5  12  372.70   11.50   1
   7   5 -11  502.20   14.30   1
  -7  -5  11  528.80   14.80   1
   7   5 -10  173.40    5.50   1
  -7  -5  10  186.90    5.00   1
   7   5  -9  234.90    6.40   1
  -7  -5   9  240.00    5.20   1
   7   5  -8 1789.50   29.90   1
  -7  -5   8 1801.60   29.70   1
   7   5  -7  792.50   12.50   1
  -7  -5   7  810.30   12.90   1
   7   5  -6   32.40    1.40   1
  -7  -5   6   33.40    1.50   1
   7   5  -5  164.10    3.80   1
  -7  -5   5  159.80    3.80   1
   7   5  -4 1789.40   25.10   1
  -7  -5   4 1728.20   30.30   1
   7   5  -3  479.80    7.40   1
  -7  -5   3  464.30    9.60   1
   7   5  -2  133.50    2.70   1
  -7  -5   2  125.60    3.70   1
   7   5  -1    3.60    0.90   1
  -7  -5   1    3.40    1.50   1
   7   5   0 1262.90   19.70   1
  -7  -5   0 1283.10   19.30   1
   7   5   1   82.60    2.60   1
  -7  -5  -1   83.00    2.80   1
   7   5   2  436.40    8.70   1
  -7  -5  -2  413.90    9.60   1
   7   5   3   40.70    2.10   1
  -7  -5  -3   38.80    2.40   1
   7   5   4  500.80   13.40   1
  -7  -5  -4  501.20   11.00   1
   7   5   5   22.60    2.60   1
  -7  -5  -5   20.50    2.30   1
   7   5   6 1112.30   33.10   1
  -7  -5  -6 1074.60   25.50   1
   7   5   7   31.70    3.70   1
  -7  -5  -7   27.90    3.00   1
   7   7 -11  429.10   15.40   1
  -7  -7  11  419.00   19.30   1
   7   7 -10  167.60    7.40   1
  -7  -7  10  176.50    6.60   1
   7   7  -9 1956.10   44.00   1
  -7  -7   9 2056.50   35.40   1
   7   7  -8  263.10    8.30   1
  -7  -7   8  267.90    8.60   1
   7   7  -7   20.70    1.80   1
  -7  -7   7   19.50    1.70   1
   7   7  -6  207.50    5.50   1
  -7  -7   6  200.40    4.90   1
   7   7  -5  121.70    3.90   1
  -7  -7   5  125.40    3.60   1
   7   7  -4  121.90    3.40   1
  -7  -7   4  114.90    3.40   1
   7   7  -3 1870.30   34.90   1
  -7  -7   3 1867.70   33.80   1
   7   7  -2  213.30    5.00   1
  -7  -7   2  201.90    5.40   1
   7   7  -1  758.70   12.50   1
  -7  -7   1  760.10   21.80   1
   7   7   0  116.00    3.40   1
  -7  -7   0  116.30    4.80   1
   7   7   1  751.40   18.70   1
  -7  -7  -1  755.20   16.10   1
   7   7   2  262.80    6.90   1
  -7  -7  -2  256.30    7.20   1
   7   7   3   28.80    2.20   1
  -7  -7  -3   27.10    2.60   1
   7   7   4    0.80    2.10   1
  -7  -7  -4    3.00    2.30   1
   7   7   5  852.90   26.20   1
  -7  -7  -5  831.30   23.30   1
   7   7   6   39.50    3.80   1
  -7  -7  -6   40.50    4.50   1
   7   9 -10   91.90    5.70   1
  -7  -9  10   82.80    5.40   1
   7   9  -9    9.40    2.70   1
  -7  -9   9    8.10    2.30   1
   7   9  -8  222.60    8.80   1
  -7  -9   8  227.60    7.80   1
   7   9  -7  510.20   14.70   1
  -7  -9   7  501.00   14.20   1
   7   9  -6    0.90    2.10   1
  -7  -9   6    0.10    2.00   1
   7   9  -5 1165.10   28.00   1
  -7  -9   5 1177.20   23.40   1
   7   9  -4 1122.30   26.60   1
  -7  -9   4 1149.30   20.70   1
   7   9  -3   81.90    3.00   1
  -7  -9   3   80.40    4.10   1
   7   9  -2   57.10    2.30   1
  -7  -9   2   71.10    4.70   1
   7   9  -1   41.20    2.30   1
  -7  -9   1   40.50    3.10   1
   7   9   0  499.60   12.10   1
  -7  -9   0  524.70   17.40   1
   7   9   1  461.50   14.00   1
  -7  -9  -1  486.30   13.80   1
   7   9   2  372.90   11.80   1
  -7  -9  -2  375.50   11.80   1
   7   9   3   71.60    3.80   1
  -7  -9  -3   71.50    4.40   1
   7   9   4  288.50   10.80   1
  -7  -9  -4  261.20   11.10   1
   7   9   5  159.00    7.80   1
  -7  -9  -5  151.90    8.00   1
   7  11  -8  343.10   14.00   1
  -7 -11   8  344.00   13.30   1
   7  11  -7  285.20   10.70   1
  -7 -11   7  264.30   10.70   1
   7  11  -6    1.30    2.80   1
  -7 -11   6    2.00    2.70   1
   7  11  -5  449.60   13.50   1
  -7 -11   5  464.60   15.60   1
   7  11  -4  450.00   13.50   1
  -7 -11   4  445.70   15.20   1
   7  11  -3   34.70    2.60   1
  -7 -11   3   36.40    3.20   1
   7  11  -2   48.00    3.80   1
  -7 -11   2   41.60    3.40   1
   7  11  -1    4.40    2.50   1
  -7 -11   1    7.80    2.40   1
   7  11   0  636.30   18.80   1
  -7 -11   0  687.80   22.00   1
   7  11   1  574.00   16.80   1
  -7 -11  -1  600.60   35.70   1
   7  11   2  322.90   12.80   1
  -7 -11  -2  328.00   15.70   1
   7  11   3   35.50    4.00   1
  -7 -11  -3   42.50    5.40   1
   7  13  -4   17.60    3.40   1
  -7 -13   4   15.60    3.50   1
   7  13  -3  948.40   39.10   1
  -7 -13   3  948.40   38.50   1
   7  13  -2    6.40    4.00   1
  -7 -13   2    9.60    3.90   1
   7  13  -1   40.70    5.60   1
  -7 -13   1   42.80    5.20   1
   7  13   0   69.60    8.40   1
  -7 -13   0   63.50    9.30   1
   8   0 -13    1.20    2.20   1
   8   0 -12 1769.70   38.80   1
   8   0 -11    2.80    1.70   1
   8   0 -10  198.30    5.30   1
   8   0  -9    2.90    1.40   1
   8   0  -8    2.30    1.50   1
   8   0  -7   -1.00    1.00   1
   8   0  -6 2315.80   35.90   1
   8   0  -5    0.50    1.00   1
   8   0  -4  170.90    3.90   1
   8   0  -3    2.00    1.00   1
   8   0  -2 1070.90   16.10   1
   8   0  -1    1.60    0.80   1
   8   0   0  459.00    6.80   1
   8   0   1    1.80    0.90   1
   8   0   2 1485.30   23.00   1
   8   0   3    1.90    1.00   1
   8   0   4  715.30   12.90   1
   8   0   5    0.10    2.40   1
   8   0   6  349.00   11.40   1
   8   0   7    0.60    3.40   1
   8   2 -12   16.70    2.80   1
  -8  -2  12   20.80    2.90   1
   8   2 -11  476.20   12.00   1
  -8  -2  11  484.70   12.30   1
   8   2 -10 1047.70   19.00   1
  -8  -2  10 1058.90   19.10   1
   8   2  -9   21.40    1.90   1
  -8  -2   9   27.30    2.30   1
   8   2  -8  529.20   11.60   1
  -8  -2   8  543.60   10.40   1
   8   2  -7 1828.30   29.00   1
  -8  -2   7 1836.90   27.00   1
   8   2  -6  142.60    3.30   1
  -8  -2   6  145.70    3.30   1
   8   2  -5  874.30   13.60   1
  -8  -2   5  853.90   13.20   1
   8   2  -4  146.50    3.20   1
  -8  -2   4  146.00    4.00   1
   8   2  -3  385.60    6.10   1
  -8  -2   3  388.50    7.40   1
   8   2  -2  417.40    7.70   1
  -8  -2   2  412.70    7.20   1
   8   2  -1  671.10   13.50   1
  -8  -2   1  681.50   12.20   1
   8   2   0    7.40    1.10   1
  -8  -2   0    6.30    0.90   1
   8   2   1  280.10    5.40   1
  -8  -2  -1  281.40    5.60   1
   8   2   2   89.60    3.10   1
  -8  -2  -2   87.30    3.60   1
   8   2   3 1920.20   32.90   1
  -8  -2  -3 1904.30   33.20   1
   8   2   4  153.50    4.60   1
  -8  -2  -4  149.50    4.70   1
   8   2   5    9.20    1.90   1
  -8  -2  -5    8.50    2.10   1
   8   2   6   50.70    3.40   1
  -8  -2  -6   56.00    3.40   1
   8   2   7  289.20   12.40   1
  -8  -2  -7  286.50   10.90   1
   8   4 -12    1.50    3.30   1
  -8  -4  12    1.20    2.70   1
   8   4 -11  524.10   17.20   1
  -8  -4  11  528.00   13.10   1
   8   4 -10 2091.70   45.70   1
  -8  -4  10 2079.30   41.00   1
   8   4  -9   38.50    2.90   1
  -8  -4   9   36.40    2.20   1
   8   4  -8  541.20   11.70   1
  -8  -4   8  527.00   10.60   1
   8   4  -7  205.50    4.90   1
  -8  -4   7  195.30    4.70   1
   8   4  -6   16.00    1.20   1
  -8  -4   6   15.70    1.40   1
   8   4  -5  109.70    3.10   1
  -8  -4   5  110.00    2.80   1
   8   4  -4   21.30    1.60   1
  -8  -4   4   19.60    2.00   1
   8   4  -3  427.60    8.30   1
  -8  -4   3  427.80   10.50   1
   8   4  -2 4065.30   67.90   1
  -8  -4   2 3917.40   76.90   1
   8   4  -1  631.50   12.60   1
  -8  -4   1  610.20   11.50   1
   8   4   0   89.80    2.60   1
  -8  -4   0   86.50    2.80   1
   8   4   1    8.70    1.20   1
  -8  -4  -1    5.70    2.00   1
   8   4   2   28.60    1.60   1
  -8  -4  -2   27.70    2.10   1
   8   4   3  293.90    7.80   1
  -8  -4  -3  299.00    7.40   1
   8   4   4   67.90    3.60   1
  -8  -4  -4   74.80    3.40   1
   8   4   5   -3.00    2.40   1
  -8  -4  -5    2.60    2.00   1
   8   4   6  521.20   17.70   1
  -8  -4  -6  482.90   13.90   1
   8   6 -11  110.80   10.60   1
  -8  -6  11  125.80    6.80   1
   8   6 -10   35.90    3.70   1
  -8  -6  10   32.90    3.40   1
   8   6  -9    5.90    3.20   1
  -8  -6   9    4.80    1.80   1
   8   6  -8   13.20    2.30   1
  -8  -6   8   11.50    2.00   1
   8   6  -7  376.00    8.10   1
  -8  -6   7  380.10    8.30   1
   8   6  -6 2955.80   53.80   1
  -8  -6   6 2921.40   53.20   1
   8   6  -5  402.00    9.60   1
  -8  -6   5  403.00    9.70   1
   8   6  -4  133.30    3.40   1
  -8  -6   4  124.90    4.80   1
   8   6  -3  263.80    5.60   1
  -8  -6   3  267.20    8.00   1
   8   6  -2  278.40    5.70   1
  -8  -6   2  263.10    6.70   1
   8   6  -1  144.40    3.50   1
  -8  -6   1  148.60    4.80   1
   8   6   0  169.00    4.30   1
  -8  -6   0  162.20    5.20   1
   8   6   1   89.30    3.60   1
  -8  -6  -1   87.60    3.30   1
   8   6   2  882.80   19.60   1
  -8  -6  -2  896.10   17.80   1
   8   6   3  529.50   13.00   1
  -8  -6  -3  532.50   12.00   1
   8   6   4  176.60    7.70   1
  -8  -6  -4  186.30    6.20   1
   8   6   5   -1.80    2.40   1
  -8  -6  -5    8.30    2.50   1
   8   6   6   43.30    4.20   1
  -8  -6  -6   49.20    3.90   1
   8   8 -10   10.00    3.40   1
  -8  -8  10   14.40    3.70   1
   8   8  -9   58.50    4.30   1
  -8  -8   9   54.20    3.60   1
   8   8  -8   58.50    4.10   1
  -8  -8   8   53.80    3.30   1
   8   8  -7  737.10   16.30   1
  -8  -8   7  747.90   18.90   1
   8   8  -6  273.90    7.20   1
  -8  -8   6  279.10    7.80   1
   8   8  -5  370.70    9.20   1
  -8  -8   5  355.00    8.20   1
   8   8  -4   85.30    3.50   1
  -8  -8   4   83.70    3.20   1
   8   8  -3  431.30   10.60   1
  -8  -8   3  432.60   10.70   1
   8   8  -2    6.20    1.20   1
  -8  -8   2   17.70    3.60   1
   8   8  -1 1004.90   17.30   1
  -8  -8   1 1028.10   30.10   1
   8   8   0   49.70    2.40   1
  -8  -8   0   60.00    5.30   1
   8   8   1  206.40    5.80   1
  -8  -8  -1  216.30    8.20   1
   8   8   2  186.10    5.00   1
  -8  -8  -2  186.10    7.40   1
   8   8   3  483.10   16.70   1
  -8  -8  -3  492.90   14.90   1
   8   8   4   45.10    4.20   1
  -8  -8  -4   43.90    4.50   1
   8   8   5   12.70    3.20   1
  -8  -8  -5   20.70    3.80   1
   8  10  -8  438.60   15.90   1
  -8 -10   8  439.50   14.20   1
   8  10  -7   58.80    4.30   1
  -8 -10   7   48.70    3.50   1
   8  10  -6  394.60   14.10   1
  -8 -10   6  408.00   12.80   1
   8  10  -5   -1.90    2.20   1
  -8 -10   5    4.20    2.70   1
   8  10  -4   49.80    3.10   1
  -8 -10   4   49.70    3.90   1
   8  10  -3   54.00    3.50   1
  -8 -10   3   62.30    4.40   1
   8  10  -2  804.40   25.50   1
  -8 -10   2  800.70   25.40   1
   8  10  -1   16.30    2.20   1
  -8 -10   1   15.70    3.90   1
   8  10   0   33.50    3.10   1
  -8 -10   0   40.70    4.30   1
   8  10   1   16.70    2.20   1
  -8 -10  -1   14.20    3.30   1
   8  10   2  757.70   20.80   1
  -8 -10  -2  752.40   31.40   1
   8  10   3   30.70    3.30   1
  -8 -10  -3   27.50    5.30   1
   8  12  -5   63.00    6.00   1
  -8 -12   5   50.30    5.00   1
   8  12  -4    2.50    4.00   1
  -8 -12   4   -2.00    2.70   1
   8  12  -3  534.40   23.60   1
  -8 -12   3  528.30   18.90   1
   8  12  -2    3.40    3.90   1
  -8 -12   2    5.90    3.10   1
   8  12  -1  685.30   29.90   1
   9   1 -12  186.40    7.40   1
  -9  -1  12  178.50    6.30   1
   9   1 -11  348.00    9.60   1
  -9  -1  11  341.40    9.40   1
   9   1 -10  485.80   10.60   1
  -9  -1  10  489.20   10.60   1
   9   1  -9 1391.90   24.80   1
  -9  -1   9 1412.90   24.80   1
   9   1  -8  551.30   11.30   1
  -9  -1   8  566.10   12.80   1
   9   1  -7  161.80    4.00   1
  -9  -1   7  170.50    4.00   1
   9   1  -6  152.70    3.70   1
  -9  -1   6  154.30    3.70   1
   9   1  -5   59.30    2.20   1
  -9  -1   5   60.10    2.20   1
   9   1  -4  936.50   16.80   1
  -9  -1   4  946.20   16.90   1
   9   1  -3  649.70   11.90   1
  -9  -1   3  667.00   12.00   1
   9   1  -2   15.40    1.20   1
  -9  -1   2   15.50    1.20   1
   9   1  -1  348.80    6.70   1
  -9  -1   1  354.30    6.90   1
   9   1   0  558.30   11.50   1
  -9  -1   0  538.50   12.10   1
   9   1   1  217.10    5.10   1
  -9  -1  -1  213.30    5.40   1
   9   1   2  272.60    7.70   1
  -9  -1  -2  286.50    7.00   1
   9   1   3   40.50    2.50   1
  -9  -1  -3   39.20    2.70   1
   9   1   4  470.50   14.00   1
  -9  -1  -4  496.60   14.50   1
   9   1   5  269.40    9.50   1
  -9  -1  -5  272.00    9.30   1
   9   1   6  174.80    8.60   1
  -9  -1  -6  170.60    7.70   1
   9   3 -12    3.00    2.90   1
  -9  -3  12    5.50    2.10   1
   9   3 -11  157.70    6.30   1
  -9  -3  11  158.90    5.50   1
   9   3 -10  183.80    5.70   1
  -9  -3  10  193.10    6.00   1
   9   3  -9  122.40    4.00   1
  -9  -3   9  133.00    4.30   1
   9   3  -8  126.70    4.10   1
  -9  -3   8  127.90    3.90   1
   9   3  -7  325.80    6.80   1
  -9  -3   7  319.80    7.50   1
   9   3  -6  176.50    4.80   1
  -9  -3   6  182.60    4.70   1
   9   3  -5 2348.20   43.20   1
  -9  -3   5 2368.10   43.00   1
   9   3  -4   74.50    3.10   1
  -9  -3   4   77.60    3.20   1
   9   3  -3  346.60    7.40   1
  -9  -3   3  352.00    8.40   1
   9   3  -2  248.10    6.60   1
  -9  -3   2  241.40    6.50   1
   9   3  -1   95.20    2.90   1
  -9  -3   1   93.80    3.30   1
   9   3   0  386.50    8.60   1
  -9  -3   0  383.50    7.80   1
   9   3   1  806.00   17.30   1
  -9  -3  -1  790.60   15.80   1
   9   3   2  157.00    5.40   1
  -9  -3  -2  159.60    5.00   1
   9   3   3  237.80    7.50   1
  -9  -3  -3  243.10    6.90   1
   9   3   4    8.50    2.50   1
  -9  -3  -4   10.60    2.10   1
   9   3   5  806.70   22.70   1
  -9  -3  -5  820.70   20.40   1
   9   5 -11   51.70    5.40   1
  -9  -5  11   50.90    4.90   1
   9   5 -10  334.90   15.30   1
  -9  -5  10  335.20   10.90   1
   9   5  -9  406.10   13.90   1
  -9  -5   9  398.40   12.10   1
   9   5  -8  800.40   17.90   1
  -9  -5   8  818.40   18.50   1
   9   5  -7    9.30    1.80   1
  -9  -5   7   10.40    2.30   1
   9   5  -6   61.40    2.70   1
  -9  -5   6   53.60    3.10   1
   9   5  -5  273.40    6.40   1
  -9  -5   5  274.50    7.50   1
   9   5  -4 1040.40   19.60   1
  -9  -5   4 1076.00   22.30   1
   9   5  -3    7.90    1.50   1
  -9  -5   3    6.70    1.90   1
   9   5  -2   10.70    1.60   1
  -9  -5   2   14.20    2.40   1
   9   5  -1  143.00    3.70   1
  -9  -5   1  144.80    5.00   1
   9   5   0 1677.90   26.70   1
  -9  -5   0 1594.50   32.20   1
   9   5   1    7.20    2.20   1
  -9  -5  -1    6.60    1.90   1
   9   5   2  134.60    5.30   1
  -9  -5  -2  139.80    4.70   1
   9   5   3  132.80    5.70   1
  -9  -5  -3  130.20    5.00   1
   9   5   4  424.80   13.30   1
  -9  -5  -4  431.20   12.10   1
   9   5   5    1.80    3.00   1
  -9  -5  -5    6.10    2.80   1
   9   7 -10    7.50    3.70   1
  -9  -7  10    7.20    3.30   1
   9   7  -9 1338.70   40.40   1
  -9  -7   9 1319.10   40.00   1
   9   7  -8   54.30    3.90   1
  -9  -7   8   48.20    4.00   1
   9   7  -7    6.90    2.10   1
  -9  -7   7    3.70    2.00   1
   9   7  -6    4.40    1.60   1
  -9  -7   6    3.10    2.00   1
   9   7  -5  248.50    6.10   1
  -9  -7   5  260.30    7.60   1
   9   7  -4   95.10    3.20   1
  -9  -7   4   94.20    5.20   1
   9   7  -3  741.70   15.60   1
  -9  -7   3  750.50   19.80   1
   9   7  -2    3.00    1.60   1
  -9  -7   2    9.20    2.90   1
   9   7  -1  702.70   15.00   1
  -9  -7   1  720.30   24.10   1
   9   7   0  191.20    5.20   1
  -9  -7   0  209.00    7.90   1
   9   7   1  553.90   14.50   1
  -9  -7  -1  560.50   16.20   1
   9   7   2    3.90    2.00   1
  -9  -7  -2   -1.70    2.20   1
   9   7   3   42.00    3.40   1
  -9  -7  -3   44.20    3.80   1
   9   7   4   13.40    2.80   1
  -9  -7  -4   10.50    2.90   1
   9   9  -8  241.60   10.00   1
  -9  -9   8  223.50    8.70   1
   9   9  -7  365.40   13.50   1
  -9  -9   7  355.90   11.90   1
   9   9  -6  100.70    5.30   1
  -9  -9   6   99.10    5.60   1
   9   9  -5  378.10   10.50   1
  -9  -9   5  364.80   13.60   1
   9   9  -4  524.40   14.50   1
  -9  -9   4  523.10   18.50   1
   9   9  -3   22.50    2.40   1
  -9  -9   3   18.90    4.90   1
   9   9  -2    5.30    2.10   1
  -9  -9   2    0.60    3.20   1
   9   9  -1  115.30    4.60   1
  -9  -9   1  116.30    7.70   1
   9   9   0  407.50   11.60   1
  -9  -9   0  440.80   19.10   1
   9   9   1  348.30   13.60   1
  -9  -9  -1  378.30   17.90   1
   9   9   2   58.10    5.00   1
  -9  -9  -2   52.40    4.50   1
   9  11  -5  419.50   18.70   1
  -9 -11   5  407.60   19.00   1
   9  11  -4  514.30   19.70   1
  -9 -11   4  557.80   23.80   1
   9  11  -3    3.20    3.00   1
  -9 -11   3    2.30    3.80   1
   9  11  -2  174.00    8.60   1
  -9 -11   2  183.00   10.50   1
  10   0 -11    6.90    2.30   1
  10   0 -10    6.90    1.90   1
  10   0  -9    1.30    1.60   1
  10   0  -8  105.70    3.80   1
  10   0  -7    0.90    1.50   1
  10   0  -6 2258.00   35.20   1
  10   0  -5   -0.80    1.30   1
  10   0  -4  496.40    9.80   1
  10   0  -3    4.30    1.40   1
  10   0  -2  312.90    9.80   1
  10   0  -1    4.30    2.50   1
  10   0   0    1.00    1.90   1
  10   0   1   -0.60    1.50   1
  10   0   2 1486.90   37.10   1
  10   0   3    3.10    2.50   1
  10   0   4  223.80    8.60   1
  10   2 -11  855.60   27.80   1
 -10  -2  11  854.30   28.10   1
  10   2 -10  690.20   19.40   1
 -10  -2  10  704.80   19.90   1
  10   2  -9    4.70    2.00   1
 -10  -2   9    2.50    2.40   1
  10   2  -8  222.50    7.00   1
 -10  -2   8  200.40    6.60   1
  10   2  -7  555.70   13.30   1
 -10  -2   7  544.60   13.20   1
  10   2  -6   23.70    2.00   1
 -10  -2   6   24.20    2.50   1
  10   2  -5   47.70    2.50   1
 -10  -2   5   43.20    2.60   1
  10   2  -4   16.90    1.90   1
 -10  -2   4   10.50    1.80   1
  10   2  -3 1250.80   21.90   1
 -10  -2   3 1270.80   25.70   1
  10   2  -2  300.00    8.10   1
 -10  -2   2  300.10    8.40   1
  10   2  -1  632.50   15.00   1
 -10  -2   1  613.10   15.00   1
  10   2   0    3.60    2.00   1
 -10  -2   0    4.90    1.90   1
  10   2   1  176.90    6.00   1
 -10  -2  -1  172.50    5.90   1
  10   2   2    8.60    2.80   1
 -10  -2  -2    6.40    2.30   1
  10   2   3  351.30   13.10   1
 -10  -2  -3  331.60   11.10   1
  10   2   4   41.20    6.30   1
 -10  -2  -4   46.50    3.90   1
  10   4 -10  247.80   10.40   1
 -10  -4  10  249.60    9.00   1
  10   4  -9    0.10    3.30   1
 -10  -4   9    3.20    2.30   1
  10   4  -8  947.70   25.30   1
 -10  -4   8  951.50   25.20   1
  10   4  -7  414.40    9.50   1
 -10  -4   7  401.50   10.60   1
  10   4  -6  344.80    8.40   1
 -10  -4   6  340.90    8.40   1
  10   4  -5   55.50    2.80   1
 -10  -4   5   58.00    2.90   1
  10   4  -4   16.00    1.90   1
 -10  -4   4   16.10    2.20   1
  10   4  -3  264.90    6.70   1
 -10  -4   3  246.70    7.30   1
  10   4  -2  644.80   13.30   1
 -10  -4   2  598.70   14.40   1
  10   4  -1   98.20    4.10   1
 -10  -4   1   92.50    4.10   1
  10   4   0    5.60    1.80   1
 -10  -4   0    3.70    1.90   1
  10   4   1  122.20    6.40   1
 -10  -4  -1  105.80    4.40   1
  10   4   2  884.30   23.40   1
 -10  -4  -2  847.40   20.70   1
  10   4   3  252.90   13.20   1
 -10  -4  -3  234.10    7.70   1
  10   6  -9    4.60    3.10   1
 -10  -6   9    7.40    4.20   1
  10   6  -8   30.30    3.70   1
 -10  -6   8   35.00    3.10   1
  10   6  -7   59.00    4.20   1
 -10  -6   7   64.80    4.50   1
  10   6  -6  748.70   18.00   1
 -10  -6   6  748.60   20.60   1
  10   6  -5   19.60    2.20   1
 -10  -6   5   16.20    3.10   1
  10   6  -4   75.40    3.40   1
 -10  -6   4   75.40    4.60   1
  10   6  -3  404.80    9.80   1
 -10  -6   3  403.00   11.00   1
  10   6  -2  594.60   12.30   1
 -10  -6   2  583.10   14.90   1
  10   6  -1  228.20    7.80   1
 -10  -6   1  229.40    9.20   1
  10   6   0    7.80    2.50   1
 -10  -6   0    6.60    2.80   1
  10   6   1   66.10    9.40   1
 -10  -6  -1   55.40    3.80   1
  10   6   2  429.20   15.30   1
 -10  -6  -2  399.30   11.70   1
  10   8  -8    1.70    2.80   1
 -10  -8   8    5.20    3.80   1
  10   8  -7  856.40   29.00   1
 -10  -8   7  893.60   36.80   1
  10   8  -6  285.80   10.00   1
 -10  -8   6  280.10   12.10   1
  10   8  -5   74.20    4.00   1
 -10  -8   5   64.10    5.00   1
  10   8  -4  104.60    4.80   1
 -10  -8   4   96.40    5.10   1
  10   8  -3  225.70    7.20   1
 -10  -8   3  225.40    9.80   1
  10   8  -2    3.70    2.00   1
 -10  -8   2    7.90    4.20   1
  10   8  -1  298.20   10.10   1
 -10  -8   1  293.50   14.20   1
  10   8   0    2.70    2.30   1
 -10  -8   0    3.70    3.60   1
  10   8   1  373.90   12.40   1
 -10  -8  -1  362.00   17.80   1
  11   1 -10  200.70    9.30   1
 -11  -1  10  221.50    9.70   1
  11   1  -9  829.10   26.90   1
 -11  -1   9  790.70   26.10   1
  11   1  -8  222.40    9.30   1
 -11  -1   8  194.40   10.60   1
  11   1  -7    2.60    2.80   1
 -11  -1   7    1.30    2.70   1
  11   1  -6  390.70   10.60   1
 -11  -1   6  385.50   10.10   1
  11   1  -5   49.00    3.20   1
 -11  -1   5   48.60    3.20   1
  11   1  -4  724.90   16.80   1
 -11  -1   4  727.50   17.30   1
  11   1  -3    6.20    2.50   1
 -11  -1   3   -0.30    2.30   1
  11   1  -2   15.60    2.80   1
 -11  -1   2   17.40    2.80   1
  11   1  -1  497.70   17.00   1
 -11  -1   1  505.00   17.20   1
  11   1   0  335.80   12.50   1
 -11  -1   0  330.30   12.70   1
  11   1   1  276.60   14.10   1
 -11  -1  -1  294.50   14.30   1
  11   1   2   36.10    4.70   1
 -11  -1  -2   35.50    5.00   1
  11   3  -9  130.80    6.20   1
 -11  -3   9  136.70    6.40   1
  11   3  -8    0.30    2.40   1
 -11  -3   8   -0.40    2.30   1
  11   3  -7   84.40    5.00   1
 -11  -3   7   70.60    4.10   1
  11   3  -6   64.90    3.30   1
 -11  -3   6   67.70    3.70   1
  11   3  -5 1260.90   28.60   1
 -11  -3   5 1292.50   29.80   1
  11   3  -4   32.50    2.60   1
 -11  -3   4   33.70    2.50   1
  11   3  -3   42.50    3.30   1
 -11  -3   3   45.00    3.30   1
  11   3  -2    6.70    1.90   1
 -11  -3   2    6.30    2.90   1
  11   3  -1  401.80   14.00   1
 -11  -3   1  416.80   15.10   1
  11   3   0  117.00    8.20   1
 -11  -3   0  129.80    8.30   1
  11   3   1  322.90   15.70   1
 -11  -3  -1  316.00   15.10   1
  11   3   2    2.80    3.60   1
 -11  -3  -2    3.10    3.00   1
  11   5  -8  134.10    7.10   1
 -11  -5   8  124.70    5.90   1
  11   5  -7   68.10    4.20   1
 -11  -5   7   63.30    4.50   1
  11   5  -6  415.60   11.40   1
 -11  -5   6  404.30   12.80   1
  11   5  -5   35.20    2.70   1
 -11  -5   5   32.30    3.00   1
  11   5  -4  533.00   14.10   1
 -11  -5   4  543.10   14.50   1
  11   5  -3   48.30    3.00   1
 -11  -5   3   52.10    3.70   1
  11   5  -2   15.70    2.30   1
 -11  -5   2   15.60    2.60   1
  11   5  -1   14.00    2.60   1
 -11  -5   1    8.80    2.80   1
  11   5   0  787.00   22.50   1
 -11  -5   0  811.40   26.20   1
  11   5   1   12.70    4.00   1
 -11  -5  -1   13.40    4.00   1
  11   7  -6   25.90    2.90   1
 -11  -7   6   22.00    3.80   1
  11   7  -5  238.10    8.90   1
 -11  -7   5  228.40    8.80   1
  11   7  -4    8.10    2.10   1
 -11  -7   4    7.60    3.00   1
  11   7  -3   91.00    4.80   1
 -11  -7   3   98.90    6.50   1
  11   7  -2   89.60    5.10   1
 -11  -7   2   97.60    7.20   1
  11   7  -1  542.60   16.80   1
 -11  -7   1  573.80   24.20   1
  12   0  -8   32.20    4.10   1
  12   0  -7   -2.10    3.20   1
  12   0  -6  240.10    8.90   1
  12   0  -5    2.00    2.40   1
  12   0  -4  719.40   20.30   1
  12   0  -3    3.10    2.40   1
  12   0  -2 1169.90   36.70   1
  12   0  -1    2.40    3.20   1
  12   2  -8   97.50    6.10   1
 -12  -2   8   85.60    5.90   1
  12   2  -7  916.50   28.90   1
 -12  -2   7  895.10   30.30   1
  12   2  -6    8.60    2.40   1
 -12  -2   6    5.30    2.70   1
  12   2  -5    3.70    2.30   1
 -12  -2   5    7.30    3.60   1
  12   2  -4    3.90    2.30   1
 -12  -2   4    9.40    2.70   1
  12   2  -3  326.60   11.40   1
 -12  -2   3  343.00   13.30   1
  12   2  -2  118.70    5.70   1
 -12  -2   2  117.10    6.30   1
  12   2  -1   83.10    7.10   1
 -12  -2   1   78.50    5.90   1
  12   4  -6   37.60    3.30   1
 -12  -4   6   38.50    3.70   1
  12   4  -5   12.50    2.70   1
 -12  -4   5   11.90    2.90   1
  12   4  -4   67.80    4.10   1
 -12  -4   4   77.80    4.80   1
  12   4  -3  283.10   10.20   1
 -12  -4   3  303.30   11.80   1
  12   4  -2  341.40   13.70   1
 -12  -4   2  343.70   13.80   1
   0   0   0
;
_shelx_hkl_checksum              32275
_shelx_res_file
;
TITL agalhas in C2/c = AgAl(HAsO4)2
    shelx.res
    created by SHELXL-2016/6 at 14:56:20 on 22-Mar-2017
REM s.a. (isotypic) aggahas; aggadias
REM KSc(HAsO4)2-type (r7.doc); model taken from there!
REM v. large disphenoidic glassy xls; identical to those of aggahas!!!
REM     aggahas was associated with
REM     small platy, ps.orthorhombic NaAlAs2O7-type AgGaAs2O7
CELL 0.71073   7.842   9.937   8.686  90.00 108.45  90.00
ZERR    4.00   0.002   0.002   0.002   0.00   0.03   0.00
LATT  7
SYMM -X, Y, .5-Z
SFAC O Al AS AG H
UNIT 32 4 8 4 8
dfix O4 H 0.9 0.01
acta
temp 20
htab
bond $H
conn 10 $Ag 3
rem wie bei r7/kscas und aggahas
eqiv $1 x, -y+1, z+1/2
htab O4 O2_$1
size 0.07 0.08 0.15
omit 0 4 0
L.S. 8
BOND
FMAP 2
PLAN 20
WGHT    0.018000    0.890000
EXTI    0.011366
FVAR       0.37778
MOLE   1
rem ideal?: Ag 0.5 Ag2 0.25 (different site symm.ies!!!)
rem in kscas/r7 war K auf 0.25 0.25 0.00
rem in aggalhas waren occ.ies Ag1 = 0.731, Ag2 0.132
AG1   4    0.250000    0.250000    0.000000    10.50000    0.06317    0.02460 =
         0.03540   -0.00702    0.04068   -0.01037
rem AG2   4    0.283066    0.235431    0.018069    31.00000    0.04967    0.0253
rem         0.03433   -0.00664    0.03399   -0.01509
AL    2    0.000000    0.139159    0.250000    10.50000    0.00588    0.00527 =
         0.00524    0.00000    0.00145    0.00000
AS    3    0.274429    0.400006    0.359453    11.00000    0.00555    0.00526 =
         0.00416    0.00007    0.00115   -0.00071
O1    1    0.179643    0.266070    0.249401    11.00000    0.01121    0.00858 =
         0.01019   -0.00456    0.00454   -0.00572
O2    1    0.326676    0.501415    0.227997    11.00000    0.01131    0.00995 =
         0.00686    0.00274    0.00136   -0.00433
O3    1    0.448557    0.354792    0.519189    11.00000    0.00871    0.01172 =
         0.00446    0.00092    0.00038    0.00240
rem O4 = OH
O4    1    0.120104    0.485436    0.424959    11.00000    0.01127    0.02336 =
         0.01042   -0.00257    0.00382    0.00702
H     5    0.153425    0.487121    0.532353    11.00000    0.04735
rem H  in Aggahas   5    0.147659    0.487173    0.518943    11.00000    0.03335
rem H in kscas/r7 auf gleicher Position
HKLF 4
REM  agalhas in C2/c = AgAl(HAsO4)2
REM R1 =  0.0139 for    1354 Fo > 4sig(Fo)  and  0.0149 for all    1408 data
REM     62 parameters refined using      1 restraints
END
WGHT      0.0143      1.0862
REM Instructions for potential hydrogen bonds
HTAB O4 O2_$1
REM Highest difference peak  0.549,  deepest hole -0.598,  1-sigma level  0.113
Q1    1   0.1788  0.2548 -0.0949  11.00000  0.05    0.55
Q2    1   0.1818  0.4517  0.3998  11.00000  0.05    0.53
Q3    1   0.3712  0.3816  0.4636  11.00000  0.05    0.50
Q4    1   0.1770  0.6024  0.4178  11.00000  0.05    0.48
Q5    1   0.4385  0.4307  0.5258  11.00000  0.05    0.45
Q6    1   0.0441  0.6424  0.4777  11.00000  0.05    0.43
Q7    1   0.2164  0.3345  0.2767  11.00000  0.05    0.39
Q8    1   0.2308  0.2538  0.3004  11.00000  0.05    0.37
Q9    1   0.2720  0.4053  0.2806  11.00000  0.05    0.36
Q10   1   0.3125  0.4895  0.2928  11.00000  0.05    0.36
Q11   1   0.2442  0.4501  0.5049  11.00000  0.05    0.36
Q12   1   0.0605  0.2874 -0.1763  11.00000  0.05    0.34
Q13   1   0.1399  0.4401  0.4822  11.00000  0.05    0.33
Q14   1   0.3680  0.4393  0.3227  11.00000  0.05    0.33
Q15   1   0.0000  0.6594  0.2500  10.50000  0.05    0.33
Q16   1   0.2213  0.3041  0.1478  11.00000  0.05    0.32
Q17   1   0.3968  0.5420  0.2248  11.00000  0.05    0.31
Q18   1   0.3293  0.5592  0.2756  11.00000  0.05    0.31
Q19   1   0.1947  0.5486  0.2756  11.00000  0.05    0.31
Q20   1   0.3375  0.3792  0.5558  11.00000  0.05    0.31
;
_shelx_res_checksum              53091
loop_
_space_group_symop_operation_xyz
'x, y, z'
'-x, y, -z+1/2'
'x+1/2, y+1/2, z'
'-x+1/2, y+1/2, -z+1/2'
'-x, -y, -z'
'x, -y, z-1/2'
'-x+1/2, -y+1/2, -z'
'x+1/2, -y+1/2, z-1/2'
loop_
_atom_site_type_symbol
_atom_site_label
_atom_site_fract_x
_atom_site_fract_y
_atom_site_fract_z
_atom_site_U_iso_or_equiv
_atom_site_adp_type
_atom_site_calc_flag
_atom_site_occupancy
Ag Ag1 0.250000 0.250000 0.000000 0.03518(7) Uani d 1
Al Al 0.000000 0.13916(5) 0.250000 0.00554(9) Uani d 1
As As 0.27443(2) 0.40001(2) 0.35945(2) 0.00508(5) Uani d 1
O O1 0.17964(13) 0.26607(10) 0.24940(12) 0.00972(16) Uani d 1
O O2 0.32668(13) 0.50141(10) 0.22800(11) 0.00973(16) Uani d 1
O O3 0.44856(12) 0.35479(10) 0.51919(11) 0.00870(15) Uani d 1
O O4 0.12010(13) 0.48544(12) 0.42496(12) 0.01492(19) Uani d 1
H H 0.153(4) 0.487(3) 0.5324(12) 0.047(9) Uiso d 1
loop_
_atom_site_aniso_label
_atom_site_aniso_U_11
_atom_site_aniso_U_22
_atom_site_aniso_U_33
_atom_site_aniso_U_12
_atom_site_aniso_U_13
_atom_site_aniso_U_23
Ag1 0.06317(16) 0.02460(10) 0.03540(12) -0.01037(9) 0.04068(11) -0.00702(8)
Al 0.0059(2) 0.0053(2) 0.0052(2) 0.000 0.00145(16) 0.000
As 0.00555(6) 0.00526(7) 0.00416(6) -0.00071(3) 0.00115(4) 0.00007(3)
O1 0.0112(4) 0.0086(4) 0.0102(4) -0.0057(3) 0.0045(3) -0.0046(3)
O2 0.0113(4) 0.0100(4) 0.0069(3) -0.0043(3) 0.0014(3) 0.0027(3)
O3 0.0087(3) 0.0117(4) 0.0045(3) 0.0024(3) 0.0004(3) 0.0009(3)
O4 0.0113(4) 0.0234(5) 0.0104(4) 0.0070(4) 0.0038(3) -0.0026(4)
loop_
_atom_type_symbol
_atom_type_description
_atom_type_scat_dispersion_real
_atom_type_scat_dispersion_imag
_atom_type_scat_source
O O 0.0106 0.0060 'International Tables Vol C Tables 4.2.6.8 and 6.1.1.4'
Al Al 0.0645 0.0514 'International Tables Vol C Tables 4.2.6.8 and 6.1.1.4'
As As 0.0499 2.0058 'International Tables Vol C Tables 4.2.6.8 and 6.1.1.4'
Ag Ag -0.8971 1.1015 'International Tables Vol C Tables 4.2.6.8 and 6.1.1.4'
H H 0.0000 0.0000 'International Tables Vol C Tables 4.2.6.8 and 6.1.1.4'
loop_
_geom_angle_atom_site_label_1
_geom_angle_atom_site_label_2
_geom_angle_atom_site_label_3
_geom_angle_site_symmetry_1
_geom_angle_site_symmetry_3
_geom_angle
O1 Al O1 . 2 96.40(7)
O1 Al O2 . 3_445 172.66(4)
O1 Al O2 2 3_445 88.33(5)
O1 Al O2 . 4_545 88.33(5)
O1 Al O2 2 4_545 172.66(4)
O2 Al O2 3_445 4_545 87.54(7)
O1 Al O3 . 7_556 94.10(5)
O1 Al O3 2 7_556 83.49(5)
O2 Al O3 3_445 7_556 92.00(5)
O2 Al O3 4_545 7_556 90.59(5)
O1 Al O3 . 8_455 83.49(5)
O1 Al O3 2 8_455 94.10(5)
O2 Al O3 3_445 8_455 90.59(5)
O2 Al O3 4_545 8_455 92.00(5)
O3 Al O3 7_556 8_455 176.41(7)
O2 As O1 . . 104.53(5)
O2 As O3 . . 114.68(5)
O1 As O3 . . 111.09(5)
O2 As O4 . . 106.25(6)
O1 As O4 . . 110.56(5)
O3 As O4 . . 109.54(5)
loop_
_geom_bond_atom_site_label_1
_geom_bond_atom_site_label_2
_geom_bond_site_symmetry_2
_geom_bond_distance
_geom_bond_publ_flag
Ag1 O1 7 2.4040(11) n
Ag1 O1 . 2.4040(11) y
Ag1 O3 2_655 2.6362(11) y
Ag1 O3 8_455 2.6362(11) n
Ag1 O4 6_565 2.8202(13) y
Ag1 O4 4_545 2.8202(13) n
Ag1 O2 . 3.1259(11) y
Ag1 O2 7 3.1259(11) n
Al O1 . 1.8920(10) y
Al O1 2 1.8920(10) n
Al O2 3_445 1.8955(11) y
Al O2 4_545 1.8955(11) n
Al O3 7_556 1.9167(10) y
Al O3 8_455 1.9167(10) n
As O2 . 1.6683(9) y
As O1 . 1.6697(10) y
As O3 . 1.6710(11) y
As O4 . 1.7161(10) y
O4 H . 0.886(10) ?
loop_
_geom_hbond_atom_site_label_D
_geom_hbond_atom_site_label_H
_geom_hbond_atom_site_label_A
_geom_hbond_site_symmetry_A
_geom_hbond_distance_DH
_geom_hbond_distance_HA
_geom_hbond_distance_DA
_geom_hbond_angle_DHA
O4 H O2 6_566 0.886(10) 1.813(18) 2.6212(17) 151(3)
