#------------------------------------------------------------------------------
#$Date: 2019-12-26 21:22:11 +0200 (Thu, 26 Dec 2019) $
#$Revision: 246100 $
#$URL: file:///home/coder/svn-repositories/cod/cif/2/31/17/2311743.cif $
#------------------------------------------------------------------------------
#
# This file is available in the Crystallography Open Database (COD),
# http://www.crystallography.net/. The original data for this entry
# were provided by IUCr Journals, http://journals.iucr.org/.
#
# The file may be used within the scientific community so long as
# proper attribution is given to the journal article from which the
# data were obtained.
#
data_2311743
loop_
_publ_author_name
'Ende, Martin'
'Effenberger, Herta'
'Miletich, Ronald'
_publ_section_title
;
 Evolution of the \a-BaMg(CO<sub>3</sub>)<sub>2</sub> low-temperature
 superstructure and the tricritical nature of its \a-\b phase transition.
;
_journal_issue                   'Pt 5'
_journal_name_full
'Acta crystallographica Section B, Structural science, crystal engineering and materials'
_journal_page_first              827
_journal_page_last               835
_journal_paper_doi               10.1107/S2052520617009295
_journal_volume                  73
_journal_year                    2017
_chemical_formula_sum            'C6 Ba3 Mg3 O18'
_chemical_formula_weight         845.01
_space_group_crystal_system      trigonal
_space_group_IT_number           167
_space_group_name_Hall           '-R 3 2"c'
_space_group_name_H-M_alt        'R -3 c :H'
_audit_creation_method           SHELXL-2014/7
_cell_angle_alpha                90
_cell_angle_beta                 90
_cell_angle_gamma                120
_cell_formula_units_Z            2
_cell_length_a                   5.0084(2)
_cell_length_b                   5.0084(2)
_cell_length_c                   33.3941(15)
_cell_measurement_reflns_used    8758
_cell_measurement_temperature    150(2)
_cell_measurement_theta_max      45
_cell_measurement_theta_min      1.5
_cell_volume                     725.43(5)
_computing_structure_refinement  'SHELXL-2014/7 (Sheldrick, 2014)'
_diffrn_ambient_temperature      150(2)
_diffrn_measured_fraction_theta_full 0.993
_diffrn_measured_fraction_theta_max 0.994
_diffrn_measurement_device_type  StoeStadiVari
_diffrn_radiation_type           MoK\a
_diffrn_radiation_wavelength     0.71073
_diffrn_reflns_av_R_equivalents  0.0300
_diffrn_reflns_av_unetI/netI     0.0141
_diffrn_reflns_Laue_measured_fraction_full 0.993
_diffrn_reflns_Laue_measured_fraction_max 0.994
_diffrn_reflns_limit_h_max       9
_diffrn_reflns_limit_h_min       -10
_diffrn_reflns_limit_k_max       9
_diffrn_reflns_limit_k_min       -10
_diffrn_reflns_limit_l_max       34
_diffrn_reflns_limit_l_min       -65
_diffrn_reflns_number            8758
_diffrn_reflns_point_group_measured_fraction_full 0.993
_diffrn_reflns_point_group_measured_fraction_max 0.994
_diffrn_reflns_theta_full        25.242
_diffrn_reflns_theta_max         45.588
_diffrn_reflns_theta_min         3.661
_exptl_absorpt_coefficient_mu    8.298
_exptl_absorpt_correction_T_max  0.8
_exptl_absorpt_correction_T_min  0.7
_exptl_absorpt_correction_type   numerical
_exptl_absorpt_process_details   '(Stoe & Cie GmbH 2016)'
_exptl_crystal_density_diffrn    3.869
_exptl_crystal_description       prismatic
_exptl_crystal_F_000             768
_exptl_crystal_size_max          0.060
_exptl_crystal_size_mid          0.030
_exptl_crystal_size_min          0.030
_refine_diff_density_max         0.418
_refine_diff_density_min         -0.580
_refine_diff_density_rms         0.125
_refine_ls_extinction_method     none
_refine_ls_goodness_of_fit_ref   1.019
_refine_ls_hydrogen_treatment    undef
_refine_ls_matrix_type           full
_refine_ls_number_parameters     17
_refine_ls_number_reflns         692
_refine_ls_number_restraints     0
_refine_ls_restrained_S_all      1.019
_refine_ls_R_factor_all          0.0205
_refine_ls_R_factor_gt           0.0095
_refine_ls_shift/su_max          0.000
_refine_ls_shift/su_mean         0.000
_refine_ls_structure_factor_coef Fsqd
_refine_ls_weighting_details
'w=1/[\s^2^(Fo^2^)+(0.0096P)^2^] where P=(Fo^2^+2Fc^2^)/3'
_refine_ls_weighting_scheme      calc
_refine_ls_wR_factor_gt          0.0185
_refine_ls_wR_factor_ref         0.0196
_reflns_Friedel_coverage         0.000
_reflns_number_gt                506
_reflns_number_total             692
_reflns_threshold_expression     'I > 2\s(I)'
_cod_data_source_file            xk5041sup1.cif
_cod_data_source_block           norse_150
_cod_original_cell_volume        725.43(7)
_cod_original_sg_symbol_H-M      'R -3 c'
_cod_database_code               2311743
_shelx_shelxl_version_number     2014/7
_shelx_space_group_comment
;
The symmetry employed for this shelxl refinement is uniquely defined
by the following loop, which should always be used as a source of
symmetry information in preference to the above space-group names.
They are only intended as comments.
;
_shelx_estimated_absorpt_t_min   0.636
_shelx_estimated_absorpt_t_max   0.789
_shelx_res_file
;

    norse_150.res created by SHELXL-2014/7


TITL norse_100K_woo_a.res in R-3c
REM Old TITL norse_100k_woo in R-3c

REM SHELXT solution in R-3c
REM R1 0.027,  Rweak 0.000,  Alpha 0.038,  Orientation as input
REM Formula found by SHELXT:  C2 O6 Mg Ba

CELL  0.71073   5.0084   5.0084  33.3941   90.000   90.000  120.000
ZERR   2.000   0.0002   0.0002   0.0015    0.000    0.000    0.000
LATT  3
SYMM -Y, X-Y, Z
SYMM -X+Y, -X, Z
SYMM Y, X, 1/2-Z
SYMM X-Y, -Y, 1/2-Z
SYMM -X, -X+Y, 1/2-Z
SFAC C O MG BA
UNIT 12 36 6 6
L.S. 20
TEMP -123.15
SIZE 0.06 0.03 0.03
BOND $H
ACTA
LIST 4
FMAP 2
PLAN 20
REM EXTI    0.000000
WGHT    0.009600
FVAR       0.22040
BA1   4    0.000000    0.000000    0.250000    10.16667    0.00533    0.00533 =
         0.00767    0.00000    0.00000    0.00267
MG2   3    0.000000    0.000000    0.000000    10.16667    0.00471    0.00471 =
         0.00650    0.00000    0.00000    0.00235
O3    2    0.111537    0.819069    0.129250    11.00000    0.01487    0.01192 =
         0.01229   -0.00267   -0.00434    0.01091
C4    1    0.000000    0.000000    0.130377    10.33333    0.00584    0.00584 =
         0.00628    0.00000    0.00000    0.00292
HKLF 4

REM  norse_100K_woo_a.res in R-3c
REM R1 =  0.0095 for     506 Fo > 4sig(Fo)  and  0.0205 for all     692 data
REM     17 parameters refined using      0 restraints

END

WGHT      0.0096      0.0000

REM Highest difference peak  0.418,  deepest hole -0.580,  1-sigma level  0.125
Q1    1   0.0875  0.9259  0.1331  11.00000  0.05    0.41
Q2    1   0.0061  0.6511  0.1314  11.00000  0.05    0.39
Q3    1   0.0518  0.5558  0.1166  11.00000  0.05    0.38
Q4    1  -0.0300  0.6268  0.1148  11.00000  0.05    0.37
Q5    1  -0.0684  0.4639  0.1271  11.00000  0.05    0.36
Q6    1   0.1570  0.1446  0.1720  11.00000  0.05    0.36
Q7    1  -0.2615  0.5178  0.1313  11.00000  0.05    0.34
Q8    1   0.1652  0.1908  0.0033  11.00000  0.05    0.33
Q9    1   0.3667  0.9672  0.1134  11.00000  0.05    0.31
Q10   1   0.3921  1.1009  0.1275  11.00000  0.05    0.31
Q11   1   0.3885  0.9269  0.1316  11.00000  0.05    0.31
Q12   1   0.1349  0.6470  0.1357  11.00000  0.05    0.31
Q13   1  -0.0275  0.4913  0.1388  11.00000  0.05    0.31
Q14   1   0.3109  1.0271  0.1573  11.00000  0.05    0.30
Q15   1   0.2366  0.9501  0.1313  11.00000  0.05    0.29
Q16   1  -0.1293  0.5501  0.1439  11.00000  0.05    0.28
Q17   1   0.0590  0.7318  0.1669  11.00000  0.05    0.28
Q18   1   0.4427  1.1100  0.1442  11.00000  0.05    0.27
Q19   1   0.0268 -0.1661  0.2809  11.00000  0.05    0.27
Q20   1  -0.3320 -0.1496  0.2599  11.00000  0.05    0.26
;
_shelx_res_checksum              21797
_shelx_hkl_file
;
   0  -5  -1   -2.08    7.72   0
   0  -2 -19    3.75    6.71   0
   0  -4 -14  420.72   12.53   0
   2  -4 -36  537.66   14.20   0
   1  -4 -28  937.54   16.38   0
   1  -1  26 1295.01   27.66   0
   0  -4  13   -1.20    8.21   0
   1  -3 -29    6.93    7.21   0
   1  -1 -25   -1.76    9.01   0
   0  -4 -11   -3.09    7.79   0
   0  -1 -14 1848.68   29.96   0
   1   1   0 3811.37   41.54   0
   0  -3 -15    5.30    7.37   0
   0  -2 -16 3358.53   32.52   0
   1   1  -3   55.59    8.64   0
   0  -4  -8 1894.41   22.09   0
   0  -4  10  527.87   15.00   0
   1  -6  13   19.75    8.60   0
   1  -5 -21   21.94    7.91   0
   1  -2 -27   -3.74    7.69   0
   2  -3 -34  781.82   17.19   0
   0  -4  -5    3.00    7.24   0
   0  -4   7    3.49    7.83   0
   0  -4  -2 1616.83   20.97   0
   0  -3 -12 2302.85   24.99   0
   0  -3  15    0.91    7.93   0
   0  -2  17    2.92    9.69   0
   2  -4 -33   -6.62    7.69   0
   1  -3 -26  632.79   14.44   0
   0  -2 -13   -2.68    6.55   0
   1  -6   7   -2.13    6.99   0
   1  -5 -18  962.03   15.59   0
   0  -1 -11   -3.09    7.50   0
   1  -6   1   20.21    7.61   0
   1  -6   4  947.95   15.94   0
   0  -3  -9   -3.01    7.01   0
   1  -4 -22  454.52   12.46   0
   2  -2 -32  751.82   18.50   0
   1  -5 -15    3.54    7.63   0
   2   1 -17   18.00    7.41   0
   0  -3  -6 2155.18   24.58   0
   0  -2 -10  205.45   10.41   0
   0   0   6 1527.96   57.84   0
   1  -5  18  472.03   14.62   0
   1  -2 -24 2079.29   26.40   0
   1   1  -9   78.21    9.92   0
   2  -4 -30  249.43   10.58   0
   1  -5 -12 1382.45   18.19   0
   0  -3  -3    1.22    6.44   0
   0  -3   9   -0.06    6.81   0
   1  -4 -19   38.95    7.53   0
   1  -1 -22  516.76   17.33   0
   2  -3 -31   11.44    7.50   0
   0  -3   0 2919.20   29.86   0
   0  -1  -8 9947.67   71.30   0
   1  -5  -9   43.64    7.50   0
   3  -4 -35   18.08    7.52   0
   0  -2  -7    2.57    6.87   0
   1  -5  15   33.50    8.24   0
   1  -5  -6  464.09   12.35   0
   1  -4 -16 2453.90   24.31   0
  -4   6 -16  986.63   17.05   0
  -3   4 -25    6.94    7.43   0
  -1  -1 -21   43.17    8.12   0
  -3   3 -30  795.36   14.42   0
  -3   5 -14  473.94   13.34   0
  -2  -1 -28 1695.53   23.94   0
  -2   0 -29   -4.03    7.75   0
  -2   3 -20 1724.03   21.57   0
  -2   4  -9   -1.81    6.91   0
   0   0   9   -1.85    7.41   0
  -2   2 -25    6.87    7.17   0
  -1   2 -12 4400.89   39.51   0
  -4   5 -24  881.23   15.53   0
  -4   6 -13    0.57    7.39   0
  -3   2 -32 1581.05   19.56   0
  -3   0 -33   -0.53    8.02   0
  -2  -2 -24 2305.07   32.15   0
  -2   1 -27    4.88    7.14   0
  -1  -2 -17   17.66    9.50   0
  -3   4 -22  453.17   12.14   0
  -1   1 -17    1.28    6.77   0
   0  -2  -1    0.80    8.74   0
   0   0  12  273.58   13.06   0
  -3   5 -11   16.41    7.75   0
  -1   0 -19   -4.25    7.54   0
  -3   3 -27    3.52    7.10   0
  -4   6 -10  468.94   13.53   0
  -2   3 -17   20.41    7.82   0
  -4   5 -21   19.63    7.24   0
  -2   2 -22 2250.64   24.04   0
  -1   2  -9   97.03    9.27   0
  -1  -1  -9   88.36   12.01   0
   0  -3  -3    3.43    9.16   0
   0  -2  -4 4916.73   50.76   0
  -2  -4  -7    8.69    9.70   0
   1  -5  12 1152.31   22.31   0
  -3  -3 -12  963.88   19.95   0
  -2  -3 -11   12.43   10.07   0
   1  -3   4 3195.82   39.99   0
   2  -3  20 1697.36   46.18   0
  -1  -4  -6  487.97   15.29   0
   0  -4  -2 1629.88   24.27   0
  -4   1 -17   -0.61   10.73   0
   0  -5   2  465.23   14.91   0
   1  -5   9    5.64   10.22   0
  -4  -1 -18  517.90   17.76   0
  -3  -2 -16 2251.21   29.50   0
  -3  -1 -17    2.33   10.71   0
   1  -6  19   -0.05   10.17   0
  -1  -3 -10 1335.19   23.19   0
  -1  -2 -11   43.99   10.11   0
   1   0  16 5448.94   62.44   0
  -4  -2 -17    3.68   10.22   0
  -2  -4 -10  468.94   15.01   0
   1  -6  16  825.32   18.96   0
   0  -3  -6 2245.42   29.92   0
   1  -2   3   61.32   13.20   0
  -3  -3 -15   -1.41   10.46   0
   1  -5   6 1094.78   21.09   0
  -4   0 -19    1.75   10.66   0
  -1  -4  -9   37.37   10.22   0
   0  -5  -1   -0.71    8.90   0
   0  -4  -5   -2.15    9.12   0
   2  -3  17   23.01   13.62   0
   0   1   8 9999.99   79.21   0
   1  -6  13   25.33    9.87   0
   1  -3   1   73.59   10.18   0
  -2   0 -14  371.47   18.72   0
   1   0  19    2.71    9.33   0
   2  -5  19   11.11   11.05   0
   2  -4  15    1.37   10.61   0
  -2  -4 -13   12.83    9.17   0
  -2  -1 -16 2313.26   33.40   0
   0  -2  -7    1.25    9.21   0
   1  -6  10  638.15   16.79   0
   1  -5   3   58.67   10.91   0
  -3  -2 -19   18.63   10.93   0
  -3   0 -18 1485.33   30.44   0
  -1  -3 -13   21.53   10.18   0
   0  -5  -4 1456.81   22.02   0
  -4  -2 -20  852.65   19.76   0
   0  -1  -5   -2.22   11.68   0
   2  -5  16 2209.35   31.89   0
  -4  -1 -21   15.48   10.84   0
  -3  -3 -18  601.89   17.18   0
  -1  -4 -12 1423.02   22.22   0
   1  -6   7   -0.58    9.69   0
  -1  -2 -14 1831.65   28.24   0
   0  -4  -8 1851.48   25.14   0
   0  -3  -9   -7.55    9.47   0
   1  -4  -1   60.10   10.14   0
   2  -4  12  971.80   24.25   0
  -3  -1 -20 1046.64   22.98   0
   2  -3  14 1845.86   42.49   0
  -2  -2 -18 1317.28   23.24   0
   0   1  11    4.13    8.82   0
   2  -5  13    1.77   10.25   0
   0  -5  -7    0.88    9.87   0
   1  -6   4  970.20   19.59   0
   1  -3  -2  746.42   19.77   0
  -2   2  -4 4781.51   65.86   0
  -3   1 -16 2240.78   51.17   0
   2  -5  10  899.74   20.65   0
  -1  -4 -15    2.63    9.34   0
  -1  -3 -16 2445.97   29.20   0
   1  -2   0 4032.23   52.48   0
   2  -4   9    0.40    8.91   0
   0  -4 -11   -2.57    9.46   0
   1  -6   1   26.91   10.46   0
   1  -5  -3    2.75    9.58   0
   1  -4  -4 1509.39   24.08   0
   2  -6  14  414.15   15.50   0
  -4  -2 -23    2.81   10.77   0
  -3  -2 -22  407.19   14.92   0
   0  -2 -10  204.82   13.04   0
  -2  -3 -20  776.20   17.96   0
  -2  -1 -19    4.77    9.26   0
   0  -3 -12 2266.05   28.82   0
   2  -6  11   -5.89    9.70   0
   2  -5   7   22.00   10.86   0
   2  -3  11   37.37   11.92   0
  -1   0 -10 3893.92   64.77   0
   2  -4   6  958.58   22.16   0
  -2  -2 -21    2.50    8.97   0
   1  -3  -5   19.09    8.64   0
   1  -5  -6  471.47   14.53   0
  -3  -1 -23   30.91   10.53   0
   0  -4 -14  428.29   14.24   0
   1  -4  -7   31.46    9.79   0
   2  -5   4  916.64   20.02   0
   0  -5 -13    5.96    9.06   0
  -3   0 -21   -2.06    9.42   0
  -4   3  -7   33.58   10.50   0
  -2   0 -17    2.91    8.88   0
   2  -6   5    1.95    9.01   0
  -3  -2 -25    2.06   10.09   0
  -2  -3 -23   14.15    9.69   0
   0  -1  -8 9796.72   82.37   0
   2  -4   3    0.15    8.96   0
   0  -3 -15   -3.03    9.41   0
   1  -5  -9   47.50   10.22   0
   2  -3   8 3660.14   50.58   0
   1  -2  -3   62.25   11.32   0
   2  -5   1    6.98    8.79   0
   0  -2 -13    3.62    8.25   0
   2  -6   2  706.11   16.81   0
   0  -5 -16  911.81   17.97   0
   1  -4 -10 1347.53   21.95   0
   1  -3  -8 3523.55   36.86   0
  -1   1  -2 1931.80   57.48   0
   0  -4 -17    0.39    8.61   0
  -2  -2 -24 2285.24   29.27   0
  -2  -1 -22  547.88   17.26   0
   2  -6  -1   -0.61    9.99   0
   2  -5  -2 1042.59   20.28   0
   1  -5 -12 1442.34   21.47   0
   2  -3   5    7.26   10.14   0
  -2  -3 -26  841.99   18.49   0
  -3  -1 -26  837.13   20.32   0
   0  -3 -18  634.43   16.59   0
  -3  -2 -28  533.67   16.36   0
   1  -4 -13   15.14    9.29   0
   0  -4 -20 1597.02   22.48   0
   1  -3 -11   38.09    9.40   0
   0  -2 -16 3336.14   36.13   0
   1  -5 -15    4.18    9.03   0
   1  -2  -6 2060.72   33.37   0
  -1  -3 -25    8.42    9.51   0
  -2  -2 -27    9.56    9.58   0
  -1  -2 -23    6.02    9.59   0
  -3   0 -24 1292.20   27.78   0
  -2   2   2 5058.26   51.65   0
   0  -1 -11    1.78    9.33   0
   2  -5  -8 2581.57   28.29   0
  -2  -3 -29   -7.48    9.24   0
   1  -4 -16 2499.98   27.52   0
   3  -6   9   12.80    9.85   0
   0  -4 -23   -3.47    9.32   0
   0  -3 -21    0.18    8.62   0
   1  -1   5   -1.75   18.12   0
   2  -4  -6  929.09   19.43   0
   3  -5  14  469.42   18.55   0
  -2  -1 -25   14.08    9.73   0
  -2   0 -20 3968.47   49.21   0
   1  -5 -18 1000.48   18.08   0
   3  -6   6  613.89   16.85   0
   1  -3 -14 1819.18   25.46   0
   3  -5  11    7.77   10.26   0
   2  -5 -11   14.74    8.60   0
   3  -6   3    9.83    9.49   0
   3  -5   8 2668.87   34.39   0
  -3  -1 -29    3.84    9.04   0
  -3   1 -19    3.26   12.45   0
   3  -7   4  839.46   18.05   0
  -1  -3 -28  942.67   18.72   0
   0  -2 -19    3.31    7.82   0
   1  -4 -19   48.59    8.85   0
   1  -2  -9   82.93   10.58   0
   1  -1  23    1.13    8.85   0
   2  -4  -9   -0.22    9.15   0
  -1  -1 -21   38.25    9.03   0
   3  -5   5   25.22   10.04   0
  -3   2  -8 3446.40   59.94   0
   1  -5 -21   22.37    8.91   0
   3  -6   0 1303.87   21.12   0
  -2  -2 -30  279.79   13.19   0
  -1  -2 -26  656.68   16.55   0
   0  -3 -24 1951.22   24.79   0
  -1   1   1   -0.23    9.89   0
   2  -5 -14  492.94   14.06   0
   3  -5   2 1043.43   21.15   0
   1  -3 -17   17.51    8.75   0
   2  -3  -4 3254.95   37.31   0
   3  -6  -3    9.17    9.36   0
   0  -1 -14 1735.82   30.43   0
   1  -1  20 1685.13   35.88   0
   2  -4 -12  920.27   18.38   0
   1  -4 -22  466.63   13.87   0
   3  -5  -1    2.91    9.66   0
  -2  -1 -28 1664.33   26.89   0
   3  -6  -6  590.35   15.28   0
  -1  -3 -31   22.18    8.79   0
   0  -2 -22 2302.48   28.53   0
   1  -2 -12 4242.61   41.58   0
   2  -5 -17    6.51    8.52   0
  -3   0 -27    0.29    8.91   0
   2  -3  -7    5.98    7.39   0
   3  -5  -4  904.54   18.74   0
   1  -3 -20 1748.99   23.84   0
  -2  -2 -33   -0.50    8.87   0
  -2   0 -23    0.42    9.23   0
  -1  -2 -29   11.78    8.50   0
  -1   1   4 2605.62   44.16   0
   1  -1  17   -0.53    9.45   0
   2  -4 -15    7.00    7.86   0
   3  -6  -9   20.06    8.29   0
  -1  -1 -24 2071.47   28.89   0
   1  -4 -25    6.90    7.91   0
   2  -5 -20  806.59   15.86   0
   3  -5  -7   24.39    9.32   0
  -1   1   7    2.61    8.00   0
  -3   2 -17   27.16   11.68   0
  -3   2  16 2182.78   73.38   0
  -1   1  19    1.30   13.98   0
   3   0 -15   -0.16   13.51   0
  -5   4 -21   21.81   11.42   0
  -1   2 -33   21.11   13.88   0
  -2   1  -9   90.15   13.63   0
  -1   3 -40  679.65   22.03   0
  -4   3 -22  470.21   16.62   0
  -3   2 -20 1715.67   27.96   0
   1   1 -30  796.11   29.84   0
  -2   3 -38  522.73   19.41   0
   0   1 -28 1713.94   35.61   0
  -3   3 -33    4.42   11.60   0
  -2   1 -12 4288.04   49.48   0
  -4   3 -25   -2.25   11.72   0
   1   0  10 3871.50   51.47   0
   0   0  -6 1714.81   65.84   0
  -3   2 -23   10.37   11.08   0
  -2   2 -31   -4.35   11.68   0
  -2   1 -15    9.01   10.86   0
  -5   3  -8 2492.15   33.02   0
  -5   3  -5   17.43   11.47   0
  -5   3  -2  974.10   23.12   0
  -1   2 -36 1309.13   28.16   0
  -6   4  -7    2.30   12.05   0
  -6   4  -4 1113.71   23.14   0
  -6   4  -1   -4.45   11.57   0
  -5   3   1   12.17   11.15   0
  -4   3 -28  938.93   21.02   0
  -6   4 -10  489.11   17.53   0
  -6   4   2  755.84   21.48   0
  -1   1 -26 1383.08   29.08   0
  -5   3   4  873.47   24.02   0
  -3   2 -26  679.82   20.05   0
  -2   1 -18 1347.16   27.86   0
  -2   1   9   81.98   22.37   0
  -2   3 -41    8.59   13.71   0
   0   0  -9   -0.08   16.81   0
  -6   4 -13    1.70   11.43   0
  -6   4   5   -8.36   13.01   0
  -5   3 -14  476.16   17.04   0
   1   0 -17   -0.00   14.55   0
   1   0   7    2.73   11.42   0
  -4   2  -9   -1.30   10.97   0
  -2   2 -34  359.52   17.49   0
   0   1 -31    1.84   13.05   0
  -5   3 -17    3.27   11.15   0
  -5   3   7   17.29   13.56   0
  -4   2   0 4387.88   48.27   0
  -4   3 -31   27.21   11.60   0
  -4   2 -12  926.61   22.20   0
  -4   2   3   -1.85   12.06   0
  -2   1 -21   43.09   11.77   0
   0   0 -12  267.60   23.23   0
  -5   3 -20  803.54   19.99   0
  -4   2 -15   -6.30   11.29   0
  -3   2 -29   21.04   11.48   0
  -2   2  23   -1.28   14.37   0
  -1   2 -39   -7.40   13.79   0
  -1   1 -29   -1.32   11.81   0
   1   1 -33   14.45   13.87   0
  -4   2 -18 1274.68   23.99   0
  -5   3  10  835.80   26.90   0
  -2   2 -37   12.37   13.21   0
  -1   1  16 5419.09   83.06   0
  -4   2   6  926.80   27.79   0
  -2   1 -24 2166.81   32.75   0
   1   0   4 2581.83   50.93   0
  -4   2 -21   -7.11   10.86   0
   0   0 -15    1.25   13.40   0
   0   1 -34 1251.92   30.59   0
  -1   1 -32 2317.02   36.04   0
   2   0  -1   -1.46    9.98   0
  -4   2 -24 2419.83   30.67   0
  -3   1  -7    0.11   11.76   0
  -3   1 -13   52.40   11.86   0
   1   0 -20 1595.44   50.60   0
  -3   1  -4 3294.81   43.32   0
  -3   2 -35   -8.29   11.55   0
  -4   2 -27    1.00   10.89   0
  -4   2   9    4.19   13.42   0
  -3   1 -16 2233.71   32.42   0
   2   0 -13    0.25   16.33   0
  -3   1 -19    1.97   11.25   0
   1   0   1   -3.41   14.98   0
   2   0  -7   -1.60   11.06   0
  -6   3  -9   22.85   11.41   0
  -6   3  -6  589.39   19.15   0
  -4   2 -30  269.77   14.78   0
  -3   2 -38  495.94   18.16   0
  -1   1 -35    4.08   12.74   0
   2   0 -10  188.17   20.64   0
  -6   3 -15    8.50   11.45   0
  -3   1 -22  570.04   18.65   0
   0   0 -21    0.07   11.10   0
   0   1 -37    0.10   12.14   0
  -6   3  -3    1.12   12.18   0
  -2   2 -43   -1.79   13.45   0
  -1   0 -13   -1.11   11.93   0
  -1   0 -10 3972.67   56.08   0
  -6   3   0 1287.94   26.11   0
  -4   2 -33    5.79   10.65   0
  -3   1 -25   19.79   11.25   0
  -2   1 -33    9.48   11.51   0
  -5   2 -16 2199.93   29.51   0
  -5   2  -7   26.28   11.35   0
  -1   0 -16 5675.90   59.67   0
  -1   0  -7  -10.13   13.85   0
  -5   2 -19   25.47   11.47   0
  -5   2  -4  895.32   22.58   0
   1   0 -23   -1.41   13.88   0
  -1   0 -19   -3.84   11.93   0
  -1   1 -38  377.43   18.36   0
   0   0 -24 5468.17   61.66   0
  -6   3   3   10.60   11.55   0
  -5   2 -22  437.92   16.26   0
  -3   1 -28 1768.42   27.47   0
  -5   2  -1  -10.81   12.09   0
  -5   2 -25    2.89   11.02   0
  -4   2  12  890.46   32.73   0
  -2   1 -36 1294.75   25.35   0
  -1   0  -4 2419.44   52.02   0
  -3   1   5    9.64   12.44   0
  -3   1 -31    2.41   11.18   0
   1   0  -2 1844.36   55.94   0
  -5   2   2 1014.81   24.99   0
   0   0 -27   -2.59   11.82   0
  -4   1 -17   -2.17   10.60   0
  -4   1 -14  818.23   20.38   0
  -4   1 -11   55.01   12.11   0
  -4   1 -20 1131.09   22.32   0
  -4   1  -8 3101.26   36.72   0
  -2   2  20 3861.42   65.78   0
  -1   1 -41   -6.95   12.68   0
  -2   1 -39   -0.19   11.66   0
   1   0 -26 1369.79   40.52   0
  -4   1 -23   43.18   11.89   0
  -2   0 -17   -5.99   10.90   0
  -2   0 -14  357.16   16.52   0
  -2   0 -11    4.51   10.68   0
  -5   2   5   16.53   12.75   0
  -2   0 -20 4239.69   43.76   0
  -1   0 -28 1648.39   29.77   0
  -3   1 -37   -1.50   12.25   0
  -2   0  -8 2326.32   37.84   0
  -1   0  -1   -3.63   16.46   0
   0   0 -30  179.06   15.50   0
  -4   1  -2  963.57   23.51   0
  -2   0 -23    8.01   11.27   0
  -4   1 -29   -1.67   10.95   0
  -2   1 -42  488.86   17.94   0
  -1   0 -31   -4.02   12.26   0
  -6   2 -14  422.71   15.94   0
  -6   2 -11   -1.18   11.56   0
  -2   0 -26 1530.45   26.86   0
  -2   0  -5    0.28   11.09   0
   1   0 -29   -1.19   13.65   0
  -4   1   1   53.37   12.10   0
  -3   1   8 3512.17   59.37   0
   0   0 -33    3.25   12.05   0
  -6   2  -5   11.59   11.02   0
  -5   2   8 2446.58   40.33   0
  -2   1 -45    4.39   12.49   0
  -1   0 -34 1231.30   26.14   0
   0   1  11   -3.67    7.41   0
  -3   0 -18 1547.89   26.12   0
  -3   0 -15    7.32   10.64   0
  -2   0 -32  799.02   20.20   0
  -5   1 -21    9.82   10.78   0
  -5   1 -18  498.38   16.15   0
  -3   0 -21    0.33   11.08   0
  -2   0  -2 5295.07   60.58   0
  -3   0 -24 1328.24   23.89   0
  -3   0 -12 2803.73   34.95   0
   1   0  -5   -1.44   15.33   0
  -5   1  -9    9.16   11.14   0
  -1   0 -37    0.94   11.81   0
   0   0 -36  802.46   24.11   0
  -3   0 -27    1.84   10.86   0
  -3   0  -9    2.66    9.95   0
  -2   0 -35    0.54   10.95   0
   1   0 -32 2214.91   46.83   0
  -6   2   1    8.38   11.92   0
  -5   1  -6 1042.26   22.16   0
  -3   0 -30  404.30   15.77   0
  -4   2  15    1.71   17.45   0
  -3   0  -6  595.05   19.07   0
  -1   0 -40 1061.86   24.10   0
  -5   1  -3   47.27   11.44   0
   0   0 -39   -2.43   11.63   0
  -5   2  11   15.43   12.67   0
  -4   0 -19   -5.89   10.26   0
  -3   0 -36 1176.76   22.52   0
  -2   0   1    2.75   10.57   0
  -6   2   4 1099.66   25.37   0
  -4   0 -25   -2.06   10.11   0
  -4   0 -22  904.82   19.86   0
  -4   0 -16 1947.92   27.46   0
  -3   0  -3   -5.35    9.30   0
  -2   0 -41   -6.55   10.96   0
  -1   0   2 1831.30   56.81   0
  -4   0 -13    6.20   10.61   0
  -5   1   0 1782.02   29.61   0
  -4   0 -28  822.18   18.93   0
  -1   0 -43    1.62   11.99   0
  -4   0 -10  505.95   17.54   0
  -2  -1 -10 2223.00   29.02   0
  -5   0   1   -5.42    8.89   0
  -3  -1 -17    0.17    9.21   0
  -5   1  15    7.34   10.24   0
  -3  -1 -20 1093.13   20.07   0
  -3  -1 -11   73.43   10.36   0
  -2  -1  -7    2.67    8.81   0
  -1  -1 -18 1274.38   24.91   0
  -1  -1 -15    3.07    8.49   0
   0   1   8 9730.74   82.37   0
  -4   0   8 1828.63   28.10   0
  -3  -1 -23   33.20    9.41   0
  -3  -1  -8 3169.68   32.53   0
  -1  -1 -12 4284.59   44.71   0
  -5   0   4 1359.81   22.33   0
  -2  -1 -28 1721.22   25.40   0
  -2   0  10  202.66   16.15   0
  -1  -1  -9   88.14   10.96   0
  -3  -1  -5    6.28    9.09   0
  -2  -1  -4 3238.87   35.88   0
  -1  -1 -24 2093.87   29.83   0
   1   1  -6 1911.68   34.34   0
  -4  -1 -18  537.17   15.49   0
  -4  -1 -15   35.89    9.76   0
  -2  -3 -38  160.07   11.48   0
  -2  -3 -26  895.30   16.60   0
  -2  -2 -48  506.94   15.42   0
  -2  -2 -18 1315.16   19.10   0
  -1  -5 -26  363.43   13.41   0
  -1  -4 -54  122.38   11.85   0
  -1  -3  -7   35.30    7.83   0
  -2  -3 -35   10.84    8.99   0
  -2  -3 -32 1009.07   18.29   0
  -1  -5 -38  269.53   13.00   0
  -1  -5 -35   -0.23   10.79   0
  -1  -5 -32  627.89   16.44   0
  -1  -5 -29   14.93   10.01   0
   0  -6 -18  385.56   13.43   0
   2  -5   7   19.53    7.78   0
   3  -9 -21    2.82   10.34   0
  -1  -2  -5   14.13    7.08   0
   1  -6  -5    3.55    8.70   0
   1  -4   5   14.69    7.15   0
   2  -8 -17   -2.86   10.57   0
  -2  -2 -45   -6.35    9.30   0
  -1  -4 -51    7.98   10.43   0
   0  -6 -45   -7.31   11.04   0
   0  -6 -21   -4.50   10.62   0
   3  -9 -24  325.09   13.69   0
  -2  -2 -21    0.78    7.54   0
  -1  -4 -15    8.04    8.03   0
   2  -6   2  743.31   16.54   0
   3  -8  -7    4.23    9.40   0
   0  -6 -42  278.74   12.98   0
   0  -6 -24  883.83   17.29   0
   2  -8 -20  302.58   13.24   0
   2  -7  -6  599.25   15.45   0
  -2  -2 -42  635.39   16.10   0
  -1  -4 -48  264.08   13.46   0
   0  -6 -39   -6.48   11.35   0
   0  -6 -27   -0.57   10.80   0
   0  -5 -10  865.78   16.38   0
   1  -5   0 1779.60   23.00   0
  -2  -2 -39   -7.16    9.13   0
  -1  -4 -18  949.07   16.91   0
  -1  -3 -10 1344.34   19.20   0
   0  -6 -36  295.71   13.22   0
   0  -6 -33    4.76   11.14   0
   0  -6 -30  277.23   12.96   0
   1  -7 -43    8.22   11.56   0
   1  -7 -22  262.76   13.09   0
   2  -8 -23    6.43    9.87   0
  -2  -2 -27   -3.44    7.80   0
   1  -7 -40  439.28   15.36   0
   1  -7 -25    8.43   10.80   0
   1  -6  -8 1099.41   18.21   0
  -2  -2 -36  562.47   14.61   0
  -2  -2 -33    0.03    9.04   0
  -2  -2 -30  259.19   11.23   0
  -1  -4 -45    5.70    9.82   0
  -1  -4 -21   22.56    9.63   0
   1  -7 -37   24.23   11.74   0
   2  -8 -35    9.97   11.65   0
   2  -8 -32  337.21   14.64   0
   3  -8 -10  378.09   14.11   0
  -2  -1 -43   -0.38    8.47   0
  -2  -1 -22  531.44   13.69   0
   0  -5 -52  334.87   14.14   0
   0  -5 -13   -1.11    9.11   0
   0  -4  -5    4.48    7.30   0
   1  -7 -34  300.05   13.70   0
   1  -7 -31   -2.77   10.88   0
  -1  -4 -42  363.03   13.77   0
  -1  -4 -24  902.88   17.31   0
  -1  -3 -52  376.23   14.25   0
  -1  -2  -8 3562.75   31.90   0
   2  -7  -9   -2.25    8.63   0
   4  -9 -17   17.55   10.47   0
  -2  -1 -40  667.03   16.13   0
  -2   0 -23    1.88    6.82   0
  -1  -3 -13   24.28    7.86   0
   0  -4 -59   -4.61    9.83   0
  -2  -1 -25   13.99    7.07   0
  -1  -4 -30  264.74   12.68   0
  -1  -4 -27   16.18    9.09   0
   0  -5 -49   13.45   11.19   0
   1  -6 -11   24.42    8.75   0
   2  -6  -1    3.08    8.11   0
  -2  -1 -37    2.63    8.10   0
  -2  -1 -28 1740.05   23.10   0
  -1  -4 -33    9.63    8.95   0
   0  -5 -16  934.19   16.99   0
   1  -5  -3   -0.02    8.07   0
   3  -8 -13   -1.08    9.30   0
   4  -9 -20  226.17   12.71   0
  -2  -1 -34  823.61   17.18   0
  -2  -1 -31    8.21    7.94   0
  -2   0 -26 1477.96   23.04   0
  -1  -3 -49    2.50   10.03   0
   2  -7 -12  568.64   15.41   0
   3  -7  -2  384.97   13.27   0
  -1  -3 -16 2529.44   25.72   0
   1  -4   2  955.79   17.92   0
   2  -5   4  894.56   18.32   0
   4  -9 -23    9.33   10.44   0
  -2   0 -35   -2.70    7.57   0
  -2   0 -32  771.40   17.64   0
  -2   0 -29    0.40    7.14   0
   0  -5 -19    0.43    9.04   0
   0  -4 -56  163.97   12.49   0
   0  -4  -8 1835.37   22.28   0
   4  -9 -26  270.74   13.62   0
  -1  -3 -46  144.54   11.71   0
   0  -3  -3   -0.90    6.55   0
  -1  -2 -11   33.33    7.59   0
   0  -5 -22  380.51   12.99   0
   1  -6 -47    0.08   11.61   0
   2  -7 -15    4.98    9.38   0
  -1  -3 -19   31.68    8.29   0
   0  -5 -40  345.44   14.10   0
   0  -5 -25    0.54    9.94   0
   1  -6 -17   11.14    9.31   0
   3  -8 -19   -3.53    9.93   0
  -1  -3 -43   15.10    9.14   0
   0  -5 -37    3.44   10.50   0
   0  -5 -28  945.81   18.10   0
   0  -4 -53    4.16   10.57   0
   1  -5  -6  468.43   13.38   0
   2  -6  -4 1131.84   18.71   0
  -1  -3 -22  471.21   13.57   0
  -1  -2 -50  276.91   13.21   0
   0  -5 -34  440.58   13.93   0
   0  -5 -31   -5.41    9.82   0
   0  -4 -11   -0.02    8.22   0
   1  -6 -44  309.31   13.56   0
   1  -6 -20  706.42   16.34   0
   2  -7 -45  -14.99   10.37   0
   2  -7 -18  289.37   12.51   0
   3  -8 -22  205.92   12.43   0
   3  -7  -5   22.35    9.21   0
   3  -6   3   10.48    8.09   0
  -1  -3 -40  694.84   16.17   0
   1  -6 -41   11.88   11.65   0
   3  -8 -37  -12.58   11.37   0
   3  -8 -25    3.36   11.03   0
   4  -8  -9    2.07    9.99   0
  -1  -3 -37   -7.19    9.33   0
  -1  -3 -25    5.66    8.28   0
   0  -4 -50  283.26   14.01   0
   1  -6 -23    9.95    9.62   0
   2  -7 -42  187.84   12.21   0
   3  -8 -34  273.01   13.80   0
   3  -8 -28  309.47   13.58   0
  -1  -3 -28  938.96   16.94   0
  -1  -2 -14 1793.92   22.70   0
   0  -3 -57   -2.36    9.85   0
   1  -6 -38  254.02   13.18   0
   1  -6 -26  346.23   14.03   0
   2  -7 -39   -8.01   10.47   0
  -1  -2 -47   -2.28    9.38   0
   1  -6 -35   -2.98   10.04   0
   1  -6 -32  630.61   15.98   0
   1  -6 -29   14.45   10.60   0
   1  -5 -54  117.16   11.41   0
   2  -7 -36  323.87   13.56   0
   2  -7 -27   18.25   10.94   0
   5  -9 -19    8.45    9.95   0
   0  -4 -14  420.87   12.54   0
   0  -3  -6 2191.83   25.35   0
   1  -4  -1   52.28    7.53   0
   2  -7 -33   -5.33   10.38   0
   2  -7 -30  291.04   13.72   0
   2  -6  -7   -6.77    8.04   0
   3  -7  -8  736.67   16.83   0
   0  -4 -47   -5.24   10.18   0
   2  -5   1    4.74    7.44   0
   4  -8 -12  419.90   14.61   0
   5  -9 -22  180.55   12.18   0
   1  -5 -51    4.12   11.56   0
   5  -9 -25    6.94   10.67   0
  -1  -2 -44  485.79   14.24   0
  -1  -2 -17   17.81    7.37   0
   0  -4 -44  692.55   16.84   0
   0  -4 -17   -1.93    8.66   0
   0  -3 -54  196.29   12.70   0
   5  -9 -28  190.02   12.40   0
   4  -8 -15   -0.65   10.29   0
  -1  -2 -41   -1.11    9.18   0
   1  -5 -12 1366.82   19.80   0
   1  -4 -58  262.26   13.69   0
   2  -6 -10  495.09   13.70   0
   3  -7 -11    9.41    9.28   0
   3  -6   0 1298.94   21.06   0
  -1  -2 -20 1713.72   22.10   0
   0  -4 -20 1656.07   21.28   0
  -1  -2 -38  493.43   14.65   0
   0  -3 -51    3.98   10.43   0
   2  -6 -49   -3.33   10.62   0
   4  -8 -18  339.56   14.20   0
  -1  -2 -23   -0.76    7.88   0
   0  -4 -35    9.86    9.98   0
   0  -4 -23   -6.26    8.57   0
   0  -3  -9    4.12    7.00   0
   3  -7 -47    3.50   10.34   0
  -1  -2 -35    7.17    8.75   0
  -1  -1 -45    6.24    9.39   0
   0  -4 -32  703.85   15.73   0
   0  -4 -29    8.80    9.63   0
   0  -4 -26  999.09   17.73   0
   1  -5 -15   14.71    8.28   0
   2  -6 -13    4.54    8.56   0
   3  -7 -14  534.58   14.77   0
   4  -8 -39   -0.21   10.17   0
   4  -8 -21   -2.06   10.75   0
  -1  -2 -32 1574.76   21.53   0
  -1  -2 -29    6.60    8.28   0
   1  -4 -55    1.43    9.94   0
   2  -6 -46  212.73   12.66   0
   2  -5  -2 1007.34   18.51   0
   3  -7 -44  305.42   14.58   0
   4  -8 -24  545.85   16.23   0
   0  -3 -48  602.67   16.19   0
   1  -5 -42  415.33   14.76   0
   1  -5 -18  942.65   17.47   0
   4  -8 -30  163.27   13.23   0
   4  -8 -27    1.46   11.15   0
   2  -6 -43    1.11   10.48   0
   2  -5 -56  248.18   13.55   0
   3  -7 -41   18.20   12.07   0
   3  -7 -17   23.54    9.61   0
  -1  -1 -42  472.94   14.32   0
   1  -5 -39   11.14    9.86   0
   1  -5 -21   22.18    9.95   0
   3  -6  -3   15.64    8.24   0
   3  -5   5   16.69    7.87   0
   6  -9 -24  392.50   14.37   0
   0  -3 -12 2254.87   24.85   0
   1  -5 -36  788.88   17.04   0
   1  -4 -52  400.79   15.02   0
   1  -3 -59    5.92   10.70   0
   2  -6 -40  475.00   15.46   0
   3  -7 -38  273.90   13.65   0
   3  -7 -20  662.92   15.79   0
   5  -8 -11   -2.37   10.00   0
   0  -3 -45  -10.54    9.14   0
   1  -5 -33   -1.75    9.90   0
   1  -5 -30  286.93   13.17   0
   1  -5 -27    3.05   10.15   0
   1  -5 -24  918.68   17.21   0
   2  -6 -19    4.49    8.49   0
   3  -7 -35    0.02   10.94   0
  -1  -1 -39    8.91    7.95   0
   0  -2 -52  309.40   13.11   0
   2  -6 -37    0.96   10.03   0
   2  -6 -22  511.59   14.02   0
   2  -5 -53   -0.95   11.11   0
   3  -7 -32  448.20   15.11   0
   3  -7 -29   18.76   10.86   0
   2  -6 -34  316.30   13.52   0
   2  -6 -31   -4.92   10.95   0
   2  -6 -25  -17.90    9.26   0
   4  -7  -7   12.01    8.84   0
   0  -3 -42  389.57   13.60   0
   0  -3 -15    0.92    7.16   0
   1  -4 -49    1.66   11.22   0
   2  -5  -5   15.55    7.36   0
   2  -4 -60  245.21   13.50   0
   5  -8 -14  237.33   13.22   0
  -1  -1 -36 1216.11   20.35   0
   1  -3 -56  413.36   15.15   0
   3  -6 -51   -0.53   11.58   0
   0  -3 -39   -0.93    9.38   0
   3  -6  -6  604.87   15.24   0
   5  -8 -17    4.02   10.26   0
  -1  -1 -33    9.48    8.05   0
   0  -3 -18  636.50   14.54   0
   0  -2 -49   -1.57    9.62   0
   1  -4 -46  156.23   12.52   0
  -1  -1 -30  797.12   16.84   0
  -1  -1 -27   -0.74    7.35   0
  -1  -1 -24 2042.58   25.07   0
   1  -4 -10 1304.60   19.46   0
   4  -7 -46  159.57   12.22   0
   5  -8 -20  332.62   14.16   0
   0  -3 -21   -0.68    7.28   0
   2  -4 -57   -0.10   10.57   0
   3  -6 -48  313.85   13.74   0
   5  -8 -23    5.97   10.96   0
   0  -3 -24 2044.35   23.70   0
   2  -5 -47   -2.85   10.65   0
   2  -5  -8 2518.88   26.21   0
   4  -7 -43   -2.81   11.78   0
   5  -8 -32  399.94   14.15   0
   5  -8 -29   -2.69   10.99   0
   5  -8 -26  335.55   14.22   0
   0  -3 -30  814.48   16.06   0
   0  -3 -27   -1.86    8.06   0
   0  -2 -46  459.05   14.65   0
   1  -3 -53    3.56   10.65   0
   3  -6  -9   19.79    9.01   0
   4  -7 -13   20.75    9.70   0
   1  -4 -13   15.70    7.64   0
   3  -6 -45   -2.82   11.01   0
   4  -7 -40  295.31   14.62   0
   1  -4 -40  696.93   15.82   0
   2  -5 -44  423.22   14.78   0
  -9   5  -5   16.60   15.05   0
  -7   7 -35    5.35   17.08   0
  -6   4 -28  660.76   22.22   0
  -5   3 -26  884.18   22.87   0
  -9   6 -18  372.94   20.02   0
  -7   3 -10  551.00   21.16   0
  -4   4 -35   12.31   15.57   0
  -2   3 -32 1506.99   30.91   0
  -8   5 -22  199.88   20.00   0
  -6   3 -21   25.51   14.31   0
  -5   4 -33    9.04   15.06   0
  -5   5 -37    8.30   17.51   0
  -3   1 -16 2364.55   33.21   0
  -3   2 -26  633.02   20.36   0
  -8   4 -12  428.33   20.41   0
  -7   4 -23    6.46   15.60   0
  -7   6 -34  282.38   21.00   0
  -4   3 -31   39.39   14.86   0
  -8   6 -29   -3.96   17.99   0
  -6   5 -35    4.66   18.11   0
  -4   1 -11   64.09   12.48   0
  -4   2 -24 2354.23   32.73   0
  -9   6 -21  -20.78   16.32   0
  -8   7 -33   18.40   16.64   0
  -7   3 -13   24.78   14.71   0
  -5   2 -19   14.31   13.75   0
  -3   3 -33    7.60   13.73   0
  -8   4 -15  -10.67   17.20   0
  -5   1   3   -4.46   11.96   0
  -5   1   6  481.33   18.75   0
  -5   1   9   42.72   12.00   0
  -2   2 -28 1336.16   27.54   0
  -8   5 -25    8.75   16.06   0
  -7   7 -38   74.93   18.38   0
  -6   2 -11   11.78   13.22   0
  -6   3 -24  895.01   23.67   0
  -6   6 -39   19.30   16.95   0
  -9   5 -14  165.05   16.90   0
  -7   3 -16  615.65   22.15   0
  -7   4 -26  267.19   18.87   0
  -5   1   0 1677.66   28.27   0
  -5   1  12 1261.28   27.76   0
  -9   6 -24  336.43   20.72   0
  -5   1  -3   61.13   13.53   0
  -4   1 -14  840.20   21.18   0
  -3   1 -19    4.61   11.66   0
  -8   4 -18  344.25   19.96   0
  -7   6 -37    0.55   16.77   0
  -6   2 -14  442.01   19.06   0
  -5   2 -22  447.72   18.69   0
  -5   4 -36  780.02   24.63   0
  -9   5 -17    9.02   15.91   0
  -5   5 -40  338.22   21.31   0
  -4   2 -27   -3.72   12.97   0
  -4   4 -38  222.10   18.43   0
  -3   2 -29   10.67   12.06   0
  -8   3   1    4.56   15.52   0
  -8   3   4  413.37   20.04   0
  -8   3   7   -3.74   13.85   0
  -8   5 -28  329.39   21.20   0
  -7   3 -19    3.93   16.20   0
  -6   3 -27   -9.54   16.18   0
  -6   5 -38  257.04   19.94   0
  -9   4  -1   -4.66   16.08   0
  -9   4   2  301.97   19.11   0
  -9   4   5   18.92   15.74   0
  -6   4 -34  317.44   20.59   0
  -4   1 -17   10.07   12.84   0
  -9   5 -20  273.62   19.70   0
  -9   6 -27   10.70   17.63   0
  -8   4 -21   20.01   16.52   0
  -6   2 -17    7.50   14.94   0
  -9   4  -4  250.03   18.01   0
  -8   3  -5    2.75   14.88   0
  -5   1  -9    2.96   12.04   0
  -3   3 -36  772.61   23.17   0
  -9   4  -7   -8.52   16.43   0
  -8   6 -35   14.37   17.17   0
  -7   2   0  929.22   23.70   0
  -7   2   3   11.77   12.52   0
  -7   2   6  610.99   20.91   0
  -7   5 -36  303.75   20.82   0
  -6   6 -42  235.81   19.24   0
  -5   2 -25    5.63   13.29   0
  -3   1 -22  584.96   19.18   0
  -8   5 -31   -1.65   18.32   0
  -7   2  -3    7.03   14.17   0
  -7   2   9   -0.03   13.23   0
  -2   2 -31   -0.06   11.93   0
 -10   5  -3   10.50   15.29   0
  -9   4 -10  222.54   18.83   0
  -8   4 -24  531.83   21.32   0
  -7   6 -40  415.01   21.28   0
  -6   2 -20  924.42   23.56   0
  -6   3 -30  356.16   18.48   0
  -5   1 -12 1069.26   23.21   0
  -5   4 -39   10.93   16.33   0
  -2   1 -24 2089.24   32.27   0
  -7   4 -32  490.15   21.28   0
  -6   4 -37   -4.49   17.58   0
  -6   5 -41   23.56   17.14   0
  -5   3 -35   11.87   16.13   0
  -4   3 -37   -1.60   15.29   0
  -3   0  -6  579.71   18.51   0
  -3   2 -32 1601.16   28.67   0
  -7   2  -9    1.11   13.91   0
  -7   3 -25   29.77   16.47   0
  -5   1 -15   31.39   12.71   0
  -5   2 -28  555.70   20.97   0
  -4   4 -41    5.31   15.08   0
  -2   0 -11    2.96   10.02   0
  -8   4 -27   -6.78   17.47   0
  -9   5 -26  276.20   18.32   0
  -8   5 -34  237.00   18.43   0
  -7   5 -39   -2.49   17.86   0
  -6   2 -23    9.60   14.49   0
  -3   0  -9    3.70   10.31   0
  -3   1 -25   21.65   11.81   0
  -8   3 -17   -0.42   16.38   0
  -6   3 -33   12.60   14.71   0
  -4   1 -23   40.50   13.30   0
  -7   3 -28  632.52   22.73   0
  -6   1  -1   17.35   12.44   0
  -6   1   2  446.69   17.51   0
  -6   1   5   16.77   12.73   0
  -5   1 -18  542.22   19.01   0
  -7   2 -15   13.11   14.67   0
  -7   6 -43   11.31   16.00   0
  -6   1  -4  963.28   22.68   0
  -6   1   8 1050.51   25.33   0
  -4   2 -33    3.71   13.25   0
  -3   3 -39    4.94   14.09   0
  -2   0 -14  394.88   16.39   0
  -9   4 -19    9.54   14.90   0
  -9   5 -29   -8.81   17.33   0
  -8   4 -30  195.78   19.39   0
  -6   1  -7   -0.74   13.42   0
  -6   4 -40  459.44   21.62   0
  -5   2 -31   10.88   15.46   0
  -5   4 -42  395.66   21.63   0
  -4   0  -1    7.69   11.28   0
  -4   0   2 1611.65   28.54   0
  -3   0 -12 2821.16   34.53   0
  -2   1 -27   -3.60   11.12   0
  -8   3 -20  370.78   18.83   0
  -6   5 -44  330.11   20.99   0
  -5   3 -38  186.71   17.31   0
  -4   0   5    0.89   10.50   0
  -3   2 -35   -2.58   13.25   0
  -2   2 -34  373.60   17.53   0
  -7   2 -18  596.98   20.59   0
  -5   1 -21   20.13   12.98   0
  -4   3 -40  696.05   23.09   0
  -9   4 -22  163.82   17.44   0
  -7   3 -31    6.04   17.40   0
  -7   5 -42  197.93   19.14   0
  -4   0   8 1737.10   31.33   0
  -4   1 -26  909.10   22.03   0
  -8   3 -23  -12.95   17.50   0
  -7   4 -38  233.92   18.67   0
  -6   1 -13   27.79   14.24   0
  -3   0 -15   -4.71   10.21   0
  -8   4 -33   16.56   17.43   0
  -7   2 -21   -4.38   14.22   0
  -6   2 -29    8.46   16.21   0
  -2   0 -17    1.39   10.08   0
  -9   3   0  541.07   21.11   0
  -9   4 -25   29.79   16.91   0
  -9   3  -6  284.97   17.72   0
  -6   1 -16  859.35   22.37   0
  -5   1 -24 1247.96   24.75   0
  -4   0  11    3.23   10.74   0
  -9   3  -9    7.99   15.82   0
  -8   2  -4  350.13   18.97   0
  -8   2  -1    4.08   15.07   0
  -8   2   2  319.35   17.97   0
  -6   4 -43   -4.53   15.69   0
  -5   3 -41   -1.01   15.93   0
  -5   4 -45   -0.41   18.33   0
  -4   0 -13   -3.29   11.65   0
  -4   1 -29    1.64   12.72   0
  -3   0 -18 1553.42   26.13   0
  -9   3 -12  254.24   18.21   0
  -8   2  -7   -4.40   15.11   0
  -7   2 -24  534.38   21.14   0
  -2   1 -30  793.72   20.94   0
  -9   4 -28  181.66   18.87   0
  -8   2 -10  331.25   19.20   0
  -8   4 -36  246.27   19.83   0
  -7   4 -41   25.70   17.15   0
  -6   1 -19   -4.23   13.31   0
  -6   3 -39   -8.81   15.95   0
  -3   1 -31   -0.17   11.85   0
  -3   2 -38  476.02   19.75   0
  -9   3 -15   31.58   16.04   0
  -7   5 -45   -2.91   16.69   0
  -5   1 -27    6.22   13.40   0
  -4   0 -16 1893.19   28.39   0
  -4   3 -43    2.72   15.17   0
  -8   2 -13   -2.11   16.08   0
  -8   3 -29   16.12   15.18   0
  -3   0 -21  -11.78   11.92   0
  -2   2 -37   -5.28   12.58   0
  -7   2 -27   -6.60   15.59   0
  -6   1 -22  316.59   18.65   0
  -5   0  -5    9.10   11.26   0
  -5   0  -2  454.06   16.93   0
  -5   0   1   -1.15   11.81   0
  -4   2 -39    3.41   15.03   0
  -7   1  -5   32.09   14.73   0
  -7   1  -2  498.15   19.67   0
  -7   3 -37   29.68   17.10   0
  -5   0   4 1391.96   26.80   0
  -4   0 -19   -7.42   11.64   0
  -7   1  -8  962.94   23.66   0
  -7   1   1    1.68   13.30   0
  -6   4 -46  212.81   19.39   0
  -6   2 -35  -13.41   15.04   0
  -6   3 -42  307.86   21.01   0
  -5   3 -44  437.67   21.25   0
  -2   0 -23    6.98   10.14   0
  -1   1 -29    3.20   10.06   0
  -7   1 -11   19.18   14.09   0
  -7   2 -30  160.54   17.67   0
  -7   4 -44  325.75   20.20   0
  -6   1 -25   28.86   14.12   0
  -5   0 -14  811.64   21.45   0
  -5   0   7    6.36   10.94   0
  -3   1 -34  810.04   21.15   0
  -2   1 -33   13.13   11.97   0
  -7   1 -14  223.82   17.26   0
  -4   0 -22  921.47   21.78   0
  -8   2 -22  204.29   17.99   0
  -3   2 -41   18.38   13.01   0
  -9   3 -24  462.98   19.25   0
  -5   0 -17   -7.21   12.65   0
  -4   3 -46  159.37   18.42   0
  -8   3 -35   25.11   17.01   0
  -7   2 -33  -18.96   16.69   0
  -6   1 -28  683.63   21.51   0
  -5   1 -33   14.56   14.61   0
  -4   2 -42  689.60   22.36   0
  -8   2 -25    5.40   16.41   0
  -4   0 -25   14.74   12.67   0
  -3   0 -27    2.77   12.75   0
  -1   0 -22  489.46   17.74   0
  -9   3 -27   28.20   14.44   0
  -7   1 -20  404.13   19.31   0
  -6   3 -45   -6.17   17.37   0
  -5   0 -20  940.83   21.98   0
  -7   4 -47    5.14   16.19   0
  -6   4 -49   -2.12   16.64   0
  -5   3 -47   -3.69   15.94   0
  -3   1 -37   -2.07   13.36   0
  -6   0  -6  331.54   17.25   0
  -6   0  -3    7.85   13.11   0
  -6   1 -31   -1.29   14.61   0
  -8   2 -28  291.08   18.27   0
  -8   3 -38  119.80   18.13   0
  -7   1 -23   30.19   14.67   0
  -7   2 -36  469.56   20.04   0
  -7   3 -43    6.00   15.85   0
  -6   0  -9    9.71   12.97   0
  -6   0   0 1157.81   24.85   0
  -5   0 -23   15.81   13.33   0
  -5   1 -36  528.79   21.00   0
  -5   2 -43    1.07   16.96   0
  -4   0 -28  827.99   21.90   0
  -4   1 -38  262.72   17.72   0
  -2   1 -36 1249.71   25.56   0
  -1   1 -32 2168.96   34.56   0
  -9   2 -11    1.25   15.12   0
  -9   2  -8  372.58   19.05   0
  -9   2  -5    1.75   14.85   0
  -6   0 -12  659.49   20.35   0
  -6   0   3   10.07   12.31   0
  -3  -1  -8 3126.10   35.71   0
  -3   0 -30  435.63   16.94   0
  -9   2 -14  231.96   16.82   0
  -7   1 -26  467.24   19.44   0
  -4   2 -45    3.09   14.37   0
  -3  -1 -11   67.99   12.10   0
  -3  -1  -2  985.65   21.97   0
  -3   2 -44  522.56   20.16   0
  -2  -1  -7    6.05    9.27   0
  -2  -1  -4 3115.94   37.87   0
  -1   0 -25   -4.38    9.64   0
  -9   2 -17  -12.72   15.59   0
  -8   2 -31   -8.83   14.54   0
  -6   0 -18  560.35   19.15   0
  -6   1 -34  432.21   19.58   0
  -6   3 -48  298.71   19.85   0
  -2  -1 -10 2189.16   30.62   0
  -8   1  -9   12.00   15.05   0
  -8   1  -6  352.32   18.73   0
  -8   1  -3    8.19   14.35   0
  -7   2 -39   24.61   16.62   0
  -4   0 -31  -11.71   13.20   0
  -3  -1 -14  827.42   20.05   0
  -3  -1   1   57.23   10.92   0
  -3   1 -40  656.41   21.16   0
  -2  -1 -13   53.35   10.81   0
  -8   1 -12  311.30   17.46   0
  -7   1 -29    7.86   14.87   0
  -7   3 -46  143.62   17.92   0
  -6   0 -21  -13.83   15.10   0
  -8   1 -15    0.39   14.61   0
  -6   2 -44  452.43   21.43   0
  -5   0 -29    7.11   14.13   0
  -5   2 -46  112.06   17.48   0
  -5   3 -50  331.64   20.22   0
  -4  -1  -6 1096.68   22.56   0
  -4  -1  -3   58.57   12.34   0
  -4   1 -41    4.77   13.84   0
  -3  -1 -17   12.21   11.13   0
  -8   1 -18  242.88   18.03   0
  -8   2 -34  273.39   17.51   0
  -4  -1 -12 1102.91   22.52   0
  -3  -1   4 1375.19   26.90   0
  -2  -1 -16 2305.58   30.25   0
  -6   0 -24  675.58   20.78   0
  -4  -1 -15   43.89   12.18   0
  -4  -1   0 1759.55   28.53   0
  -2   0 -32  773.84   19.83   0
  -2   1 -39    1.70   11.58   0
  -7   1 -32  469.19   19.62   0
  -4   0 -34  398.53   17.95   0
  -3  -1 -20 1100.44   22.10   0
  -2  -1 -19    4.02    9.65   0
  -5   0 -32  745.11   21.81   0
  -4  -1 -18  518.81   17.78   0
  -4   2 -48  526.71   21.26   0
  -1   1 -35    0.64   10.02   0
  -8   2 -37   -3.15   14.36   0
  -7   0 -10  368.98   18.87   0
  -7   0  -7   -4.56   14.37   0
  -6   0 -27   -3.26   14.35   0
  -6   3 -51    5.39   15.86   0
  -5   1 -42  329.13   18.61   0
  -4  -1   3    3.06   10.45   0
  -7   0 -13    0.45   14.97   0
  -7   0  -4  329.87   17.39   0
  -6   1 -40  385.23   20.48   0
  -6   2 -47    4.58   16.33   0
  -4  -1 -21   24.52   12.47   0
  -3  -1 -23   33.68   12.11   0
  -3   0 -36 1241.22   24.00   0
  -3   1 -43    5.11   13.30   0
  -7   0 -16  798.00   22.32   0
  -7   0  -1    0.29   13.52   0
  -7   1 -35   -0.32   14.79   0
  -5  -1 -10  688.45   20.01   0
  -5  -1  -7   -4.68   12.05   0
  -5   2 -49   -0.40   15.71   0
  -2  -1 -22  550.51   16.90   0
  -8   1 -27    9.60   16.03   0
  -6   0 -30  198.70   17.88   0
  -5  -1  -4  980.14   22.59   0
  -5   0 -35   -5.52   13.90   0
  -2   0 -35   -0.37   10.42   0
  -7   0 -19   -8.35   14.59   0
  -4  -1 -24 1319.85   24.21   0
  -3  -1 -26  869.44   20.67   0
  -1  -1 -15    5.96    9.09   0
  -5  -1 -19   21.01   13.92   0
  -5  -1  -1   32.61   11.19   0
  -2  -1 -25   24.74    9.96   0
  -2   1 -42  472.89   19.11   0
  -1   0 -31   -6.34   10.13   0
  -8   1 -30  183.88   17.45   0
  -7   1 -38   85.78   16.13   0
  -5   1 -45    7.22   15.66   0
  -1  -1 -18 1293.93   23.97   0
  -6   0 -33   -8.37   15.43   0
  -5  -1 -22  317.76   17.65   0
  -5  -1   2  460.65   17.72   0
  -4  -1 -27   17.12   13.21   0
  -3   0 -39   -0.07   12.05   0
  -7   0 -25    7.93   14.65   0
  -6   2 -50  229.95   18.97   0
  -5   0 -38  385.15   18.77   0
  -4   1 -47   16.28   15.18   0
  -3  -1 -29   -9.73   11.99   0
  -3   1 -46  230.15   16.47   0
  -2  -1 -28 1693.38   25.85   0
  -2   0 -38  379.83   16.95   0
  -1  -1 -21   30.18   10.37   0
  -8   1 -33   11.39   14.51   0
  -7   1 -41    6.26   16.13   0
  -5  -1 -25   29.23   13.95   0
  -5   2 -52  276.13   18.90   0
  -4  -1 -30  484.84   17.80   0
  -4  -1   9   33.18   11.47   0
  -6   0 -36  452.54   19.30   0
  -5  -1   5   -1.98   11.58   0
  -6  -1 -14  211.49   15.57   0
  -6  -1 -11    6.05   12.87   0
  -6  -1  -8  968.50   23.22   0
  -6   1 -46  150.31   17.52   0
  -5   0 -41    4.99   16.23   0
  -5   1 -48  440.41   20.92   0
  -1   0 -34 1238.49   24.74   0
  -7   0 -31    3.35   15.97   0
  -6  -1 -17    1.87   13.34   0
  -6  -1  -5   23.86   13.24   0
  -3   0 -42  510.47   18.33   0
  -4  -1 -33   10.94   13.57   0
  -4   0 -43   -4.00   13.83   0
  -8   0 -14  290.53   17.50   0
  -8   0 -11   15.00   14.05   0
  -6  -1  -2  515.35   18.68   0
  -6   0 -39   -2.76   15.13   0
  -6   2 -53   -6.44   15.43   0
  -5  -1 -31    3.78   15.36   0
  -8   0 -17   -5.03   13.61   0
  -6  -1 -23   24.26   14.28   0
  -4   1 -50  364.07   18.83   0
  -3  -1 -35   28.63   12.20   0
  -2   0 -41    6.91   11.93   0
  -8   0 -20  280.94   16.55   0
  -7   0 -34  311.69   17.45   0
  -6  -1   1    7.60   12.28   0
  -3   1 -49    9.57   13.13   0
  -8   0 -23   -8.30   15.08   0
  -6  -1 -26  452.94   19.03   0
  -6   1 -49   -1.65   16.11   0
  -5   1 -51    8.19   15.81   0
  -4  -1 -36  494.87   18.84   0
  -3  -2 -13   -7.69   10.63   0
  -6   0 -42  277.03   19.34   0
  -5  -1 -34  382.01   18.32   0
  -3  -2 -16 2202.02   28.54   0
  -3   0 -45    4.03   13.41   0
  -8   0 -26  158.84   16.19   0
  -7   0 -37   12.67   15.69   0
  -6  -1 -29    4.52   15.69   0
  -4  -2 -11   -3.44   12.16   0
  -3  -2 -19    1.74   11.39   0
  -1   0 -37   -1.44   10.02   0
  -4  -2 -17    8.37   11.99   0
  -4  -2  -8 1114.93   22.58   0
  -3  -2 -22  420.18   15.76   0
  -3  -2  -4  867.42   20.17   0
  -2  -2 -15    3.72    9.88   0
  -2  -2 -12  924.61   19.74   0
  -2  -2  -9   -2.99    9.20   0
  -5  -1 -37   15.42   15.81   0
  -4  -2 -20  900.07   21.37   0
  -4  -1 -39   -7.52   13.08   0
  -2  -2 -18 1284.53   22.35   0
  -1  -1 -30  746.40   18.70   0
  -7  -1 -15   17.26   14.64   0
  -7  -1 -12  291.66   17.31   0
  -6  -1 -32  453.76   19.17   0
  -5   0 -47  -14.58   15.83   0
  -4  -2 -23  -12.42   13.69   0
  -4   1 -53    1.11   14.73   0
  -3  -2 -25   -0.91   11.20   0
  -2  -2 -21   -1.94   10.51   0
  -2  -1 -37    0.10   11.84   0
  -2   0 -44 1158.91   24.28   0
  -7  -1  -9   -9.20   12.51   0
  -6   0 -45   -5.50   15.00   0
  -3  -2  -1    5.71   10.20   0
  -7  -1 -21    3.57   13.74   0
  -7  -1  -6  317.49   17.34   0
  -4  -2 -26  507.46   19.03   0
  -4  -2  -2  730.15   19.44   0
  -3  -1 -41    4.98   13.82   0
  -2  -2 -24 2342.23   29.00   0
  -6  -1 -35   13.20   13.89   0
  -5  -2 -15   -0.88   13.24   0
  -5  -2 -12  682.79   20.66   0
  -5  -1 -40  408.21   19.82   0
  -5   1 -54  151.28   15.72   0
  -4   0 -49    9.17   13.71   0
  -3  -2 -28  565.02   17.70   0
  -3   0 -48  362.34   18.04   0
  -1  -1 -33   17.96   10.59   0
  -5  -2 -21    5.71   14.24   0
  -5  -2  -9    5.52   11.84   0
  -2  -2 -27   -7.27   11.72   0
  -1   0 -40 1027.49   23.18   0
  -5  -2  -6  268.74   15.74   0
  -4  -2 -29    2.23   13.15   0
  -3  -2 -31    8.97   13.54   0
  -2  -1 -40  663.27   19.25   0
  -6  -1 -38   84.90   16.19   0
  -5  -2 -24  541.64   19.12   0
  -5   0 -50  151.44   16.64   0
  -4  -2   1   -4.94   10.51   0
  -3  -2   2  994.35   21.77   0
  -7  -1 -30  194.70   16.52   0
  -5  -2 -27    9.61   14.38   0
  -5  -2  -3   -1.38   12.13   0
  -4  -2 -32  550.00   20.07   0
  -2  -2 -30  294.59   14.15   0
  -2  -2   0 4334.77   42.04   0
  -1  -2 -17   13.94    9.62   0
  -1  -2 -14 1847.17   26.50   0
  -1  -2 -11   27.54    9.11   0
  -5  -1 -43   10.58   14.41   0
  -4  -1 -45  -18.07   15.19   0
  -3  -1 -44  465.20   18.31   0
  -2   0 -47    2.58   12.04   0
  -1  -2 -20 1780.38   25.67   0
  -4   0 -52  283.96   17.89   0
  -3  -2 -34  692.35   19.18   0
  -1  -2 -23    3.05    9.47   0
  -1  -2  -8 3582.85   36.94   0
  -1  -1 -36 1232.02   23.02   0
  -7  -1 -33    5.20   12.97   0
  -6  -1 -41    3.98   15.25   0
  -5  -2 -30  166.43   15.29   0
  -4  -2 -35    0.67   14.76   0
  -3   0 -51  -11.66   13.66   0
  -2  -2 -33  -11.46   11.85   0
   0  -1 -23   -4.10    8.87   0
  -6  -2 -19   -4.60   14.97   0
  -6  -2 -16  690.29   20.61   0
  -6  -2 -13    2.21   13.79   0
  -5  -2   0  903.75   21.78   0
  -4  -2   4 1094.88   23.00   0
  -2  -1 -43    4.56   12.51   0
  -6  -2 -10  325.68   17.04   0
  -5  -2 -33   -9.25   13.81   0
  -5   0 -53  -10.28   15.13   0
  -3  -2 -37    6.57   12.26   0
  -3  -2   5   18.20    9.84   0
  -1  -2 -26  675.04   17.27   0
  -1   0 -43   -1.30   10.37   0
  -6  -2  -7    7.77   13.07   0
  -3  -1 -47    1.37   13.79   0
  -1  -2  -5    9.29    8.48   0
   0  -1 -26 1332.97   24.59   0
   0   0 -33   -0.97    9.54   0
  -6  -1 -44  274.88   17.40   0
  -4  -2 -38  205.95   16.30   0
  -4  -1 -48  432.03   18.89   0
  -2  -2   3   -3.24    8.58   0
  -1  -1 -39    0.43   10.95   0
  -5  -2 -36  486.74   18.49   0
  -6  -2  -4  340.16   16.73   0
  -4   0 -55   -1.11   13.78   0
  -6  -2 -31   -1.06   12.87   0
  -5  -1 -49    0.59   15.16   0
  -4  -2 -41   19.84   14.81   0
  -3  -3 -18  578.12   18.03   0
  -2  -1 -46  241.47   15.57   0
   0  -1 -29   -3.60    8.92   0
  -5  -2 -39   11.68   15.53   0
  -3  -3 -21   17.61   12.06   0
  -3  -3 -15   -1.92   10.67   0
  -2  -2 -39   -3.61   12.42   0
  -6  -2 -34  274.26   17.33   0
  -4  -1 -51   -6.38   14.80   0
  -3  -3 -24  865.68   20.33   0
  -3  -1 -50  363.76   17.90   0
  -2  -3 -17   11.72   11.35   0
  -4  -3 -22  298.25   15.83   0
  -4  -3 -13   23.03   11.76   0
  -3  -3 -27   -5.52   11.92   0
  -3  -3  -9   26.25   10.46   0
  -2  -3 -23   26.86   12.15   0
  -2  -3 -20  821.15   18.53   0
  -2  -3 -14  471.63   15.54   0
  -1  -1 -42  494.30   17.18   0
  -4  -3 -10  575.77   18.57   0
  -4  -2 -44  437.04   18.91   0
  -2  -3 -11    6.43    9.86   0
  -1  -2 -35    8.45   10.24   0
  -7  -2 -20  274.04   16.21   0
  -7  -2 -17    1.77   13.23   0
  -7  -2 -14  197.03   15.11   0
  -6  -2 -37    7.91   14.49   0
  -4  -3 -28  607.60   19.81   0
  -3  -3 -30  329.42   15.52   0
  -3  -3  -6  615.15   17.19   0
  -2  -3 -26  912.90   19.74   0
  -2  -2 -42  670.56   19.64   0
   0  -1 -32 2218.89   30.40   0
  -4  -3  -7   12.85   11.90   0
  -2  -3 -29   -3.55   12.16   0
  -2  -1 -49    1.84   12.16   0
  -5  -3 -20  388.02   17.20   0
  -5  -3 -17  -10.99   13.59   0
  -4  -3 -31    3.79   13.09   0
  -3  -3 -33    3.81   13.92   0
  -5  -3 -14  251.02   15.47   0
  -4  -1 -54  132.39   15.72   0
  -3  -3  -3   14.26   10.23   0
  -3  -2 -46  120.37   14.78   0
  -3  -1 -53   10.61   13.73   0
  -1  -2 -38  529.24   17.45   0
   0  -2 -22 2264.51   29.02   0
   0  -2 -19    1.96    8.16   0
   0  -2 -16 3412.24   35.42   0
  -5  -3 -11    6.10   13.28   0
  -5  -2 -45    3.21   13.81   0
  -4  -3 -34  290.48   17.25   0
  -4  -3  -4  900.78   20.08   0
  -2  -3 -32 1009.80   21.03   0
  -2  -3  -5   10.17    9.34   0
  -1  -3 -19   36.05    9.82   0
  -1  -1 -45    5.78   10.89   0
  -5  -3 -29    1.21   14.50   0
  -2  -2 -45    5.37   12.75   0
  -1  -3 -22  496.55   15.69   0
  -1  -3 -16 2425.87   28.45   0
   0  -2 -13    1.10    8.05   0
   0  -1 -35    1.05    9.12   0
  -5  -3  -8  767.37   20.51   0
  -2  -3 -35  -11.25   12.71   0
  -1  -3 -25   10.14   10.25   0
  -1  -3 -13   24.04    9.35   0
  -5  -3 -32  410.32   17.20   0
  -4  -3 -37   19.07   13.37   0
  -4  -3  -1   13.36   11.18   0
  -1  -3 -28  990.28   19.60   0
  -1  -2 -41   21.22   11.79   0
   0  -2 -28 1284.83   22.22   0
  -5  -3  -5    1.60   12.45   0
  -3  -3   0 1278.96   22.59   0
  -3  -2 -49   -6.32   12.96   0
  -2  -3  -2  966.22   19.97   0
  -2  -1 -52  549.06   19.19   0
  -1  -3 -10 1325.98   21.93   0
  -5  -3 -35    7.46   14.38   0
  -2  -3 -38  141.73   14.54   0
  -1  -3 -31   43.56   11.81   0
  -6  -3 -21   -1.08   13.25   0
  -6  -3 -18  218.79   15.51   0
  -4  -3 -40  280.49   15.96   0
  -3  -1 -56  279.30   16.59   0
  -2  -2 -48  545.89   18.70   0
   0  -2 -31    8.85    8.65   0
   0  -1 -38  374.01   15.25   0
  -6  -3 -24  405.27   16.62   0
  -6  -3 -15   16.14   12.92   0
  -3  -3 -42  293.57   17.14   0
  -1  -3  -7   32.19    9.10   0
  -1  -1 -48  549.44   17.85   0
  -6  -3 -27    5.73   12.41   0
  -6  -3 -12  252.49   15.36   0
  -5  -3 -38  136.14   14.72   0
  -4  -3   2  368.34   16.14   0
  -1  -2 -44  533.20   17.39   0
  -4  -3 -43    2.84   14.61   0
  -3  -3   3    6.01   10.44   0
  -3  -2 -52  287.07   16.54   0
   0  -2 -34  357.23   14.63   0
  -2  -3   1   -1.25    9.24   0
  -3  -4 -23   -9.52   12.11   0
  -3  -4 -26  275.93   15.21   0
  -3  -4 -14  520.80   17.40   0
  -2  -4 -25    2.02   12.37   0
  -2  -4 -22  542.59   16.94   0
  -2  -4 -19   -0.06   11.06   0
  -2  -2 -51    1.24   13.06   0
   0  -1 -41   -2.18    9.86   0
  -4  -4 -18  358.74   16.59   0
  -4  -3 -46  144.60   15.87   0
  -3  -4 -29   17.68   12.66   0
  -2  -4 -28  649.26   18.88   0
  -2  -4 -16 1041.46   20.43   0
  -2  -3 -44  472.01   16.83   0
  -1  -2 -47    5.10   11.54   0
   0  -2 -37   -3.68    8.96   0
  -4  -4 -27   -4.04   13.72   0
  -4  -4 -15   -6.61   12.47   0
  -3  -4 -32  478.60   18.32   0
  -3  -4 -11   18.20   10.98   0
  -1  -3 -40  726.23   19.21   0
   0  -3 -24 2084.42   26.25   0
   0  -3 -21    2.57    8.37   0
  -4  -4 -30  204.42   15.82   0
  -3  -3 -48  287.02   17.05   0
  -3  -2 -55    3.44   13.45   0
  -2  -4 -31  -19.34   12.04   0
   0  -3 -27   -3.55    9.26   0
   0  -3 -15    6.09    8.16   0
  -4  -4 -12  446.48   16.43   0
  -3  -4 -35   -4.20   14.05   0
  -3  -4  -8  786.81   18.97   0
  -4  -4 -33  -11.19   13.09   0
  -3  -3   6  601.73   17.39   0
  -2  -4 -34  326.77   15.94   0
  -2  -3 -47    7.71   12.51   0
  -2  -3   4  850.31   19.31   0
  -1  -4 -24  898.79   18.88   0
  -1  -4 -21   25.14   10.65   0
  -1  -3  -1   51.04    8.89   0
   0  -2 -40 1221.54   22.52   0
  -5  -4 -22  177.91   15.05   0
  -4  -4  -9    0.23   11.44   0
  -3  -4 -38  272.43   16.65   0
  -2  -2 -54   86.67   14.13   0
  -1  -4 -27    3.55   10.96   0
  -1  -4 -18  967.27   18.93   0
  -1  -3 -43    6.47   11.74   0
   0  -3 -12 2266.53   27.17   0
  -5  -4 -25    1.85   12.40   0
  -5  -4 -19   11.87   12.08   0
  -5  -4 -16  586.86   18.53   0
  -4  -4 -36  285.98   15.70   0
  -3  -4  -5   25.24   11.63   0
  -2  -4 -37    3.42   12.67   0
  -2  -4  -7    4.74    9.33   0
  -1  -4 -30  294.07   13.92   0
  -1  -4 -15    7.34    9.97   0
  -1  -2 -50  326.31   15.95   0
   0  -3 -33   -1.51    9.38   0
  -5  -4 -28  218.55   14.05   0
  -4  -4  -6  333.21   15.55   0
  -3  -3 -51    2.55   12.31   0
  -1  -4 -12 1356.81   22.03   0
  -5  -4 -13   -1.93   12.35   0
  -4  -4 -39    5.37   13.58   0
  -3  -4 -41   -5.16   14.25   0
  -2  -3 -50  362.75   16.71   0
  -1  -4 -33    4.43   11.20   0
   0  -3 -36  755.60   18.27   0
   0  -3  -9   -7.02    8.02   0
  -2  -4 -40  462.05   16.59   0
  -1  -3 -46  159.31   14.04   0
   0  -2 -43   -3.50   10.05   0
  -5  -4 -10  235.96   14.86   0
  -3  -4  -2  387.43   15.11   0
  -2  -4  -4 1101.02   20.36   0
  -1  -4 -36  784.98   18.77   0
  -1  -4  -9   39.70    9.68   0
  -4  -4  -3   18.04   11.56   0
  -3  -4 -44  266.41   16.38   0
   0  -3 -39    4.79    9.87   0
  -2  -3 -53   -1.76   12.60   0
   0  -3  -6 2145.97   26.79   0
  -2  -4  -1   11.98    9.75   0
  -2  -3   7   21.69    8.88   0
  -1  -3 -49   -7.00   12.51   0
   0  -4 -26 1012.16   19.36   0
   0  -4 -23  -14.83    9.64   0
   0  -4 -20 1658.96   22.99   0
   0  -2 -46  480.38   16.30   0
   0  -4 -29   -2.08   10.23   0
   0  -4 -17    2.74    8.82   0
   0  -3 -42  382.61   15.16   0
   1  -2 -24 2031.14   27.46   0
  -3  -5 -25    2.91   12.92   0
  -3  -4   1   17.75   10.28   0
  -2  -5 -27   -2.73   12.57   0
  -2  -5 -24  693.65   18.13   0
  -2  -5 -21   15.20   12.07   0
  -1  -4 -42  412.35   15.67   0
   0  -4 -32  693.05   17.68   0
   1  -2 -27    0.71    8.11   0
   1  -2 -21   38.52    7.83   0
  -3  -5 -28  333.87   15.23   0
  -3  -5 -19   -3.48   12.09   0
  -2  -5 -30  328.76   16.29   0
   0  -4 -14  406.67   13.83   0
  -3  -5 -31   -4.03   11.82   0
  -3  -5 -16  662.40   18.17   0
  -2  -5 -33   14.74   13.44   0
  -1  -4  -3   -3.63    9.29   0
   1  -2 -30  781.89   17.87   0
  -4  -5 -26  262.89   15.49   0
  -4  -5 -23    0.50   12.74   0
  -3  -5 -13   16.87   11.72   0
  -2  -4 -49  -10.70   13.09   0
  -2  -3 -56  242.90   14.62   0
  -1  -4 -45   -0.46   12.41   0
  -1  -3 -52  417.42   16.31   0
   0  -3 -45   -5.66   10.74   0
   0  -3  -3    1.04    7.29   0
   1  -1 -31   -0.12    7.90   0
  -4  -5 -20  265.07   14.39   0
  -2  -5 -36  307.90   16.22   0
  -2  -5 -12  558.75   16.79   0
  -1  -5 -29   21.38   12.44   0
  -1  -5 -26  359.72   14.46   0
  -1  -5 -23   -5.79   10.41   0
  -1  -5 -20  706.09   17.59   0
   0  -4 -11   -6.41    8.65   0
   1  -2 -33    7.59    8.98   0
  -4  -5 -17   13.28   11.53   0
  -3  -5 -37   12.41   12.40   0
  -2  -4   2  718.16   17.05   0
  -1  -5 -32  593.50   17.85   0
  -1  -5 -17   12.33   10.54   0
  -1  -3   5   12.98    7.99   0
   0  -4 -38  203.95   12.88   0
  -4  -5 -14  167.53   13.94   0
  -3  -5 -10  375.16   15.02   0
  -3  -4   4  847.42   19.65   0
  -2  -5 -39   10.93   13.31   0
   1  -3 -29   14.91    9.20   0
   1  -3 -20 1747.85   23.76   0
  -2  -5  -9    3.29   10.01   0
  -1  -5 -35   10.74   11.84   0
  -1  -5 -14  555.15   15.43   0
  -1  -4 -48  264.24   15.38   0
   0  -4 -41   -2.19   11.71   0
   0  -4  -8 1752.84   23.65   0
   1  -2 -36 1269.19   22.41   0
  -4  -5 -11    2.71   11.73   0
  -2  -4 -52  265.73   14.30   0
  -1  -4   0 1703.25   24.14   0
   0  -3 -48  603.83   17.25   0
   1  -3 -32 1562.82   22.99   0
   1  -3 -17   21.80    8.01   0
  -3  -5  -7    2.04   10.39   0
  -2  -5 -42  198.40   13.82   0
  -1  -5 -38  260.40   14.41   0
  -1  -3 -55    1.74   12.13   0
  -2  -5  -6  602.14   16.84   0
   1  -3 -35   -1.94    8.54   0
  -4  -5  -8  568.73   17.28   0
  -1  -5 -41   -7.07   12.64   0
  -1  -4 -51    2.03   12.56   0
   0  -5 -28  914.01   18.78   0
   0  -5 -25   12.83   10.25   0
   0  -4 -44  709.75   17.80   0
   1  -3 -14 1811.32   24.02   0
   1  -2 -39   -0.17    8.60   0
  -3  -5  -4  390.77   15.39   0
  -2  -5 -45    5.25   11.56   0
  -2  -4   5    1.02    8.44   0
  -1  -5  -8 1060.41   19.33   0
   0  -5 -31  -15.66   10.93   0
   0  -5 -19   -2.84    9.94   0
   0  -4  -5   -4.66    7.87   0
   0  -5 -34  445.07   15.20   0
   0  -5 -16  928.31   17.96   0
   0  -3 -51    6.82   11.98   0
   1  -4 -25   -7.96    8.90   0
   1  -4 -22  498.87   14.23   0
   1  -3 -38  489.17   14.81   0
  -2  -5  -3    5.70   10.45   0
   1  -4 -19   27.74    9.75   0
   0  -5 -13    0.43    9.97   0
   0  -4 -47   -2.58   10.73   0
   1  -3 -11   37.37    7.81   0
  -1  -5  -5    1.80    8.97   0
  -1  -4 -54  139.84   13.05   0
  -1  -4   3   55.76    8.61   0
   1  -4 -34  753.82   16.98   0
   1  -4 -16 2433.68   26.32   0
   1  -3 -41    5.77    9.75   0
  -3  -5  -1   -0.03   11.55   0
  -2  -6 -29   -4.48   12.45   0
  -2  -6 -26  368.93   15.38   0
  -1  -5 -47    3.75   12.69   0
  -3  -6 -24  325.47   15.45   0
  -2  -6 -32  369.08   15.61   0
  -1  -3   8 2975.89   34.04   0
   0  -5 -10  847.28   17.12   0
   1  -4 -37   -1.55    9.42   0
  -3  -6 -21   -2.95   11.13   0
  -2  -6 -35    6.42   12.78   0
  -2  -6 -17    2.90   11.11   0
  -1  -6 -31    3.77   12.71   0
  -1  -6 -28  292.67   14.33   0
  -1  -6 -25    1.65   11.05   0
  -1  -6 -22  273.31   14.11   0
   0  -4 -50  311.37   14.55   0
   1  -4 -13   30.12    8.41   0
  -3  -6 -18  357.26   14.60   0
  -1  -6 -19   21.50   11.24   0
   0  -5 -43    4.74   11.24   0
   1  -3  -8 3718.38   33.67   0
  -9   1 -10  175.01   13.98   0
  -8   0  -8  412.12   16.70   0
  -6  -2  14  196.17   14.61   0
  -5  -2   0  911.55   19.92   0
  -3  -2  -4  891.71   17.80   0
  -7  -1  -3    2.28   12.24   0
  -6  -2  11   -7.79   12.83   0
  -6  -2  20  275.53   14.66   0
  -5  -2  33    6.17   11.22   0
  -4  -1 -15   28.61   10.19   0
  -8   1 -18  228.45   13.93   0
  -6  -2   8  742.48   19.34   0
  -6  -2  23    6.36   11.35   0
  -4  -2  -5    2.97   10.08   0
  -8  -1  11    3.09   12.50   0
  -7   0 -16  763.64   19.19   0
  -7   1 -23   13.80   13.01   0
  -6  -2  26  356.49   15.72   0
  -2  -2  -3    1.51    7.94   0
  -1  -2   4 3226.18   33.45   0
  -8  -1   8  264.15   15.31   0
  -7  -1  -6  364.59   16.27   0
  -6  -2   5    0.43   12.10   0
  -5  -2  -3   -0.48   10.50   0
  -8   0 -11    1.49   11.65   0
  -6  -2  29    1.20   11.64   0
  -3  -2  -7   23.66    9.31   0
  -8  -1   5   -2.96   11.82   0
  -6  -2   2  353.52   15.61   0
  -6   0 -21    0.84   11.30   0
  -5  -1 -16  864.16   18.86   0
  -5  -2  -6  280.18   13.80   0
  -5   0 -23   13.63   10.59   0
  -4  -2  -8 1159.02   20.05   0
  -3  -3  15    5.90    9.24   0
  -3  -3  18  553.06   16.01   0
  -3   0 -21    4.20    8.03   0
  -8   1 -21    3.46   12.09   0
  -6  -2  -1   -9.72   12.96   0
  -6  -2  32  316.84   14.67   0
  -6  -1 -14  215.45   13.61   0
  -3  -3  21    9.39   10.53   0
  -2  -2  -6  913.97   18.22   0
  -1  -2   1   74.71    8.40   0
  -7   0 -19    0.59   11.91   0
  -4  -3  11   -7.77   11.31   0
  -4  -3  17   19.23   10.53   0
  -4  -3  20  663.26   17.48   0
  -4  -1 -18  528.44   15.45   0
  -3  -3   9   12.13    9.29   0
  -3  -3  24  849.06   18.82   0
  -3  -1 -17   -1.32    8.79   0
  -8  -1  -1   10.91   12.76   0
  -8   0 -14  300.09   14.39   0
  -7  -2  13    6.49   12.45   0
  -7  -2  19    3.13   12.03   0
  -4  -3   8  766.28   18.19   0
  -4  -3  23    5.19   11.05   0
  -3  -3   6  623.34   15.62   0
  -2  -3  13   -1.52    8.25   0
  -2  -3  16 2199.49   26.28   0
  -2  -3  19   14.59    9.30   0
  -7  -2  10  298.00   14.42   0
  -7  -2  22  103.36   13.09   0
  -6  -2  -4  365.61   16.26   0
  -5  -2  -9   10.35   11.85   0
  -3  -2 -10  866.68   17.34   0
  -7  -2   7   28.17   12.12   0
  -7  -1 -12  325.11   15.67   0
  -4  -3   5    2.17   10.83   0
  -4  -3  26  271.82   13.93   0
  -4  -2 -11   -1.14    9.43   0
  -3  -3   3   18.01   10.23   0
  -3  -3  27   -2.68    9.82   0
  -2  -3  22  417.17   13.70   0
  -8  -1  -4  324.58   14.54   0
  -7  -2   4  358.90   16.17   0
  -6  -1 -17    3.34   12.09   0
  -5  -3  16  673.50   18.16   0
  -5  -1 -19   -6.51   10.40   0
  -2  -3   7   20.78    8.69   0
  -6   0 -24  673.31   18.84   0
  -5  -3  10  368.72   15.28   0
  -5  -3  19   -1.52   11.14   0
  -4  -3   2  365.47   14.39   0
  -2  -3  25    6.04    8.80   0
  -1  -2  -2  736.21   16.85   0
  -8   0 -17   -2.50   12.14   0
  -7  -2   1   -1.47   12.71   0
  -6  -2  -7   -0.25   11.39   0
  -5  -3   7   -4.47   11.19   0
  -5  -3  22  198.01   13.24   0
  -4  -3  29   17.37   11.20   0
  -3  -3   0 1321.86   20.51   0
  -3  -3  30  301.08   13.66   0
  -2  -3   4  874.47   17.12   0
  -2  -2  -9    2.23    7.85   0
  -7   0 -22  193.77   14.18   0
  -5  -3  25    2.33   11.77   0
  -4   0 -25    2.00    8.90   0
  -7  -1 -15    0.80   12.83   0
  -5  -3   4  388.69   15.40   0
  -5   0 -26  359.94   15.08   0
  -4  -3  -1   -1.07   10.71   0
  -4  -1 -21    8.69    9.72   0
  -3  -2 -13    5.48    8.52   0
  -2  -3  28  524.41   16.24   0
  -7  -2  -2  171.39   13.40   0
  -6  -2 -10  328.10   15.51   0
  -5  -3  28  294.73   14.82   0
  -3  -3  -3    9.99   10.37   0
  -2  -3   1    1.63    8.26   0
  -6  -1 -20  437.52   17.01   0
  -5  -3   1    1.42   11.84   0
  -3  -1 -20 1062.46   20.13   0
  -8  -1 -10  158.58   12.73   0
  -6  -3  12  289.79   15.27   0
  -5  -1 -22  313.98   14.73   0
  -4  -3  -4  934.22   18.80   0
  -1  -3  14  793.70   17.51   0
  -1  -3  17   -1.70    7.94   0
  -8   0 -20  254.47   14.70   0
  -7  -2  -5   -1.55   11.07   0
  -6  -3   9   17.64   11.29   0
  -6  -3  18  322.74   13.97   0
  -6  -3  21    2.53   11.78   0
  -5  -3  -2  367.61   14.54   0
  -3   0 -24 1325.68   24.08   0
  -2  -3  -2  963.96   18.22   0
  -1  -3  11   59.65    8.36   0
  -1  -2  -5   13.24    7.41   0
  -6  -3   6  178.25   14.17   0
  -3  -3  -6  604.59   15.24   0
  -2  -2 -12  932.92   17.91   0
  -1  -3  20 1027.05   20.12   0
  -7  -1 -18  245.69   14.02   0
  -6  -3  24  339.04   14.98   0
  -4  -3  -7    2.45   11.43   0
  -4  -2 -17    7.57   10.62   0
  -7  -2  -8  386.17   15.44   0
  -6  -3   3   19.11   11.32   0
  -5  -3  -5    8.04   11.29   0
  -1  -3   5    5.81    8.24   0
  -1  -3  23   31.76    8.83   0
  -6  -3   0  585.85   16.70   0
  -6  -1 -23   16.36   12.20   0
  -4  -1 -24 1261.84   21.91   0
  -2  -3  -5   27.20    8.59   0
  -5  -3  -8  764.01   19.01   0
  -5  -2 -18  624.83   17.20   0
  -4  -3 -10  553.90   16.50   0
  -3  -3  -9   18.90    9.29   0
  -1  -3   2  981.25   18.18   0
  -7  -1 -21    5.24   12.24   0
  -6  -3  -3   13.79   11.36   0
  -6  -2 -16  660.57   17.66   0
  -5  -1 -25   23.06   10.89   0
  -4   0 -28  792.06   19.38   0
  -3  -4  13   28.82   10.03   0
  -3  -4  16  614.78   16.54   0
  -1  -3  26  724.63   18.37   0
  -1  -2  -8 3569.10   33.47   0
  -4  -4  15   -3.81   11.58   0
  -3  -4   7   21.99   10.77   0
  -3  -4  19   -1.83    9.62   0
  -3  -1 -23   39.50    9.13   0
  -2  -1 -19   -0.10    7.51   0
  -4  -4  18  350.11   14.42   0
  -4  -2 -20  896.77   18.46   0
  -3  -4  22  293.63   13.65   0
  -2  -3  -8 2530.53   26.76   0
  -6  -3  -6  303.09   14.75   0
  -5  -3 -11   17.54   11.99   0
  -4  -4   6  344.49   14.41   0
  -4  -4  21    7.92   10.34   0
  -3  -4   4  871.63   18.00   0
  -3  -3 -12 1017.86   19.08   0
  -3  -2 -19   15.78    8.99   0
  -2  -4  11    8.59    9.44   0
  -2  -4  14  428.97   14.62   0
  -2  -4  17  -11.57    9.69   0
  -1  -3  -1   53.36    8.44   0
  -7  -2 -14  252.25   13.99   0
  -4  -4   3    0.04   10.75   0
  -4  -4  24  482.93   16.08   0
  -4  -3 -13   28.30   10.88   0
  -3  -4  25   15.03   10.57   0
  -6  -2 -19    3.28   11.56   0
  -5  -4  14  154.74   13.52   0
  -5  -4  17   13.19   11.64   0
  -5  -2 -21  -12.56   11.37   0
  -3  -4   1    9.30   10.21   0
  -2  -4   5   -2.63    9.74   0
  -2  -4  20  865.87   17.84   0
  -6  -3  -9    0.75   12.25   0
  -6  -1 -26  464.81   17.10   0
  -5  -4   8  566.01   16.85   0
  -5  -4  20  251.25   14.27   0
  -4  -4   0  745.27   18.21   0
  -7  -1 -24  489.16   16.86   0
  -5  -4   5    3.49   11.68   0
  -4  -4  27    7.55   11.00   0
  -3  -4  -2  358.95   13.47   0
  -2  -4   2  744.90   16.68   0
  -2  -4  23    3.52    9.20   0
  -2  -3 -11    5.77    9.46   0
  -1  -3  -4 1468.42   20.90   0
  -7  -2 -17   -4.40   12.24   0
  -5  -4   2  325.13   15.49   0
  -5  -4  23   -1.03   11.33   0
  -4  -4  -3    4.82   11.86   0
  -4  -1 -27    7.67    9.61   0
  -1  -2 -11   43.65    7.86   0
  -5  -1 -28  697.36   18.47   0
  -4  -2 -23   -8.22   10.60   0
  -3  -3 -15    1.34    9.37   0
  -3   0 -27    0.74    8.05   0
  -2  -4  26  501.53   16.00   0
  -5  -4  -1    4.44   12.33   0
  -5  -4  26  267.44   13.70   0
  -3  -4  -5   12.65   10.00   0
  -2  -4  -1    4.38    9.17   0
  -6  -2 -22  193.98   13.74   0
  -5  -2 -24  536.09   17.74   0
  -4  -4  -6  329.94   15.18   0
  -3  -2 -22  427.46   13.92   0
  -3  -1 -26  857.63   18.70   0
  -1  -4  12 1139.60   19.19   0
  -1  -4  15   35.90    9.33   0
  -1  -3  -7   36.29    7.99   0
  -5  -4  -4  264.16   13.87   0
  -2  -4  -4 1142.14   19.06   0
  -2  -3 -14  501.33   14.15   0
  -2  -1 -22  563.79   15.79   0
  -1  -4  18  473.56   14.70   0
  -7  -2 -20  279.40   14.72   0
  -6  -3 -15   16.16   12.47   0
  -4  -4  -9   -2.86   11.95   0
  -4  -3 -19   -6.73   11.14   0
  -3  -4  -8  768.26   16.82   0
  -5  -4  -7   11.09   12.59   0
  -1  -4   3   39.69    8.60   0
  -1  -4  21   11.37    8.77   0
   0  -3  12 2703.71   30.98   0
  -2  -4  -7  -10.52    8.84   0
   0  -3   9   -1.78    6.47   0
   0  -3  15    0.96    6.89   0
  -6  -2 -25   -0.83   12.27   0
  -5  -3 -20  373.59   16.11   0
  -4  -2 -26  500.48   15.38   0
  -3  -4 -11    9.27   11.17   0
  -5  -4 -10  248.88   14.83   0
  -4  -1 -30  438.89   16.01   0
  -2  -2 -21    2.56    8.26   0
  -1  -4   0 1699.62   22.11   0
  -1  -4  24 1152.32   20.86   0
  -1  -3 -10 1323.76   20.03   0
   0  -3  18 1440.81   24.42   0
  -6  -3 -18  202.42   13.32   0
  -5  -2 -27   -1.02   11.73   0
  -3  -5  11   13.24   10.76   0
  -3  -5  14  237.72   14.03   0
  -3  -2 -25    8.10    9.48   0
  -4  -5  10  230.54   14.22   0
  -4  -5  13    6.67   12.27   0
  -4  -3 -22  305.11   14.41   0
  -3  -5   5    9.61   11.65   0
  -3  -5  17    2.43   10.29   0
   0  -3   3   -3.04    6.80   0
  -4  -5   4  266.90   14.63   0
  -4  -5  16  555.65   16.21   0
  -3  -5   2  350.17   14.84   0
  -3  -5  20  338.03   14.75   0
  -3  -3 -21   19.68    9.70   0
  -2  -5  12  639.33   16.72   0
  -1  -4  -3    0.87    8.15   0
  -5  -4 -13   16.71   12.17   0
  -4  -5  19    6.15   11.50   0
  -4  -4 -15    0.62   11.84   0
  -3  -4 -14  507.81   15.19   0
  -2  -5   9    3.84    9.64   0
  -2  -5  15    9.39    9.49   0
  -5  -3 -23    2.85   12.66   0
  -4  -5   1    8.32   11.43   0
  -4  -5  22  176.40   13.07   0
  -3  -5  -1   -0.50   11.61   0
  -3  -5  23    3.24   10.69   0
  -2  -5   3    7.71   10.51   0
  -2  -5  18  594.50   16.72   0
   0  -3   0 2922.98   29.58   0
  -6  -3 -21    7.02   11.22   0
  -6  -2 -28  289.25   15.44   0
  -3  -1 -29    6.15    8.63   0
  -1  -4  -6  474.04   13.73   0
  -1  -3 -13   17.43    8.29   0
  -4  -5  -2  316.22   14.64   0
  -4  -2 -29   11.45    9.97   0
  -3  -5  -4  384.64   15.40   0
  -2  -5   0  888.48   17.70   0
  -2  -5  21   -0.54   10.18   0
  -2  -4 -13   14.10    8.96   0
  -5  -5   3   10.62   10.60   0
  -3  -4 -17   25.27   11.21   0
  -2  -1 -25   18.03    7.87   0
  -5  -5   0  369.49   15.24   0
  -5  -2 -30  162.61   13.74   0
  -4  -5  -5   24.38   11.81   0
  -4  -3 -25   17.23   10.94   0
  -3  -3 -24  883.90   18.66   0
  -2  -5  -3   16.29   10.77   0
  -2  -5  24  504.50   15.82   0
  -2  -2 -24 2310.64   27.24   0
   0  -3  -3    1.20    6.55   0
  -3  -5  -7   21.23   10.73   0
  -3  -2 -28  562.65   15.80   0
  -1  -5  10  686.80   16.31   0
  -1  -4  -9   50.24    9.33   0
  -6  -3 -24  431.67   16.54   0
  -5  -5  -3    3.45   12.08   0
  -5  -3 -26  322.66   15.88   0
  -2  -4 -16  989.95   18.86   0
  -1  -5  13   24.76    9.09   0
   0  -4  10  527.81   14.08   0
   0  -4  13   -1.01    7.78   0
  -2  -5  -6  620.75   15.95   0
  -1  -5  16  858.94   17.61   0
  -1  -3 -16 2472.30   26.38   0
   0  -4  16 1855.93   25.05   0
  -5  -5  -6  196.65   13.82   0
  -5  -4 -19   16.05   11.45   0
  -3  -5 -10  352.79   13.98   0
  -1  -5  19    1.65    9.43   0
   0  -4   4 1712.48   22.45   0
  -4  -4 -21    8.38   11.60   0
  -1  -4 -12 1432.34   20.96   0
  -4  -5 -11   16.51   10.85   0
  -2  -5  -9   -7.18   10.20   0
  -2  -3 -23   11.36    8.63   0
  -1  -5  -2  441.27   14.39   0
   0  -4   1    1.85    7.56   0
   0  -4  19    6.92    7.91   0
  -4  -3 -28  622.07   17.11   0
  -4  -2 -32  542.25   16.80   0
  -1  -5  22  302.49   13.42   0
  -3  -5 -13    1.58   10.95   0
  -3  -3 -27   -7.47    9.62   0
  -2  -4 -19   -7.70    9.36   0
   0  -4  -2 1634.67   21.45   0
  -5  -4 -22  182.00   13.58   0
  -5  -3 -29    3.66   11.98   0
  -4  -5 -14  150.80   13.67   0
  -2  -5 -12  575.14   16.32   0
  -1  -5  -5    3.28    9.29   0
   0  -4  22  815.75   18.68   0
  -4  -4 -24  516.63   17.10   0
  -3  -6   9    3.65   10.70   0
  -3  -6  12  230.65   13.97   0
  -3  -4 -23   -2.46   10.14   0
  -2  -2 -27   -0.79    8.44   0
  -1  -4 -15   11.43    9.32   0
   0  -3  -9   -2.26    6.84   0
  -3  -6  15   15.45   11.14   0
  -3  -2 -31   -3.95    9.32   0
  -2  -6   7   10.49   11.52   0
  -2  -6  10  327.25   14.57   0
   0  -4  -5  -11.16    8.31   0
  -3  -6   0  548.29   17.00   0
  -3  -6  18  217.47   13.26   0
  -2  -6  13   -5.17   10.16   0
  -2  -1 -28 1698.45   25.70   0
  -1  -5  -8 1121.75   18.88   0
  -4  -5 -17    1.53   10.92   0
  -2  -6   1   -6.04   11.56   0
  -2  -6  16  661.70   17.26   0
  -2  -5 -15    3.14   11.14   0
  -2  -3 -26  892.91   18.44   0
  -5  -4 -25    7.98   11.96   0
  -4  -3 -31    0.82   11.16   0
  -3  -6  -3    3.75   11.22   0
  -3  -6  21    0.22   10.37   0
   0  -5   8 1227.56   19.95   0
   0  -5  11    5.05    8.92   0
  -3  -3 -30  338.28   14.13   0
  -2  -6  -2  343.12   14.02   0
  -2  -6  19   -6.61    9.44   0
  -1  -5 -11   19.52    9.43   0
   0  -5  14  786.69   17.21   0
   0  -4  -8 1838.55   22.54   0
  -4  -4 -27   -3.98   12.06   0
  -3  -6  -6  153.71   12.87   0
  -3  -5 -19    3.71   10.98   0
  -3  -4 -26  295.84   14.85   0
  -1  -4 -18  950.22   17.66   0
   0  -5   2  452.60   13.52   0
   0  -3 -12 2230.02   25.28   0
  -5  -3 -32  397.54   15.92   0
  -2  -6  -5  -10.01   10.66   0
  -1  -6   8  930.10   18.61   0
  -1  -6  11   13.04    9.68   0
  -1  -3 -22  468.22   13.86   0
  -1  -2 -23    4.66    7.68   0
   0  -5  -1   -3.22    9.01   0
   0  -5  17   -0.96    8.49   0
  -3  -6  -9   17.51   12.49   0
  -2  -5 -18  303.89   13.04   0
  -1  -6  14  217.15   12.18   0
  -2  -6  -8  760.93   17.75   0
  -1  -6  -1   -7.80    9.38   0
  -1  -6  17    9.17    9.88   0
  -1  -5 -14  592.28   15.34   0
   0  -4 -11    5.14    8.49   0
  -5  -4 -28  189.50   13.59   0
  -2  -4 -25    0.80    9.40   0
  -2  -2 -30  298.11   13.25   0
   0  -5  -4 1427.87   20.33   0
   0  -5  20  938.35   19.00   0
  -3  -6 -12  287.01   14.66   0
  -3  -2 -34  618.45   17.02   0
  -1  -6  -4  419.02   14.36   0
  -1  -6  20  403.04   14.87   0
  -4  -5 -23    2.99   11.97   0
  -4  -3 -34  296.09   14.89   0
  -3  -4 -29    8.71   11.75   0
  -2  -6 -11  -12.77   11.37   0
  -2  -3 -29    6.37    8.67   0
   0  -5  -7   -8.48    9.32   0
   0  -3 -15   -1.46    7.65   0
  -4  -4 -30  187.64   13.79   0
  -1  -6  -7   22.68   10.08   0
  -1  -5 -17   -2.33   10.55   0
  -3  -6 -15    2.71   12.32   0
  -3  -3 -33    7.13   10.45   0
   0  -4 -14  409.23   12.76   0
  -2  -6 -14  175.39   13.27   0
  -1  -3 -25    2.52    8.67   0
  -3  -5 -25    6.80   11.12   0
  -2  -4 -28  685.81   17.01   0
  -2  -1 -31    8.27    8.02   0
  -1  -6 -10  344.82   13.85   0
   0  -6   6  327.83   13.49   0
   0  -6   9   -2.64   10.01   0
   0  -5 -10  838.70   16.40   0
  -4  -5 -26  300.89   15.22   0
   0  -6  12  623.36   15.88   0
  -3  -6 -18  332.31   13.85   0
  -2  -7   5    8.55   11.11   0
  -2  -7   8  402.38   15.16   0
  -2  -7  11   -3.01   11.11   0
  -2  -6 -17   11.93   11.93   0
  -1  -5 -20  721.89   16.65   0
  -1  -4 -24  917.11   17.53   0
  -1  -2 -26  657.11   15.70   0
   0  -6   0 1148.62   19.28   0
  -3  -4 -32  468.27   16.24   0
  -2  -7  -1   -4.22   11.77   0
  -2  -7  14  207.02   12.96   0
  -1  -6 -13    0.10   10.40   0
   0  -6  -3   -3.51   10.22   0
   0  -6  15    2.25    8.54   0
   0  -5 -13    1.70    8.44   0
   0  -4 -17   -1.21    7.86   0
   0  -3 -18  619.04   14.61   0
   1  -4   8 3070.30   30.84   0
  -4  -4 -33    3.74   11.57   0
  -2  -3 -32  993.25   19.48   0
   1  -4   2  962.81   17.46   0
   1  -4  11   63.52    8.41   0
  -3  -5 -28  280.06   15.09   0
  -2  -7  -4  369.34   14.32   0
  -2  -7  17   -2.72   10.22   0
  -1  -7   6  332.01   14.45   0
   0  -6  -6  583.33   15.69   0
   0  -6  18  595.18   16.11   0
   1  -3   1   71.30    8.42   0
  -2  -6 -20  315.19   14.79   0
  -1  -7   3   12.52   10.86   0
  -1  -7   9    2.54   10.08   0
  -1  -7  12  280.98   14.02   0
  -1  -6 -16  959.27   19.06   0
   1  -4  -1   56.62    8.15   0
   1  -4  14  808.89   17.61   0
  -4  -5 -29   -0.53   11.89   0
  -3  -3 -36  504.52   15.91   0
  -2  -7  -7    7.59   10.48   0
  -2  -5 -27    1.37   10.57   0
  -2  -4 -31   -0.80   10.40   0
  -1  -3 -28  964.61   18.41   0
   0  -5 -16  935.37   17.05   0
  -1  -7  -3    2.81   10.74   0
  -1  -7  15    5.68   10.70   0
  -1  -4 -27    2.65    9.75   0
   0  -6  -9    7.32    9.58   0
   1  -5   6 1068.88   18.17   0
   1  -5   9    4.90    8.41   0
   1  -4  -4 1466.96   20.52   0
   1  -3  -2  752.81   16.38   0
  -2  -7 -10  284.47   13.82   0
  -1  -7  -6  203.74   13.76   0
   0  -4 -20 1600.33   21.47   0
   1  -5   0 1706.86   21.91   0
   1  -5  12 1159.81   19.80   0
  -1  -7  18  225.23   12.87   0
  -1  -6 -19   23.76   10.17   0
   0  -2 -19   -0.74    6.98   0
   1  -4  17   -0.21    7.18   0
  -3  -6 -24  322.93   13.76   0
  -3  -5 -31   -0.56   11.72   0
  -3  -4 -35   -6.62   11.00   0
  -2  -7 -13   11.96   12.04   0
  -1  -7  -9    5.36   11.82   0
   0  -6 -12  539.59   14.73   0
   1  -5  -3    2.81    7.67   0
   1  -4  -7   37.49    7.85   0
   1  -3  -5   11.46    7.05   0
  -1  -5 -26  359.06   14.23   0
  -1  -2 -29   13.00    7.83   0
   0  -5 -19    8.31    9.00   0
   1  -5  15   25.45    8.43   0
  -2  -5 -30  320.10   14.60   0
  -2  -3 -35   12.74    9.60   0
   0  -7   4  339.07   13.86   0
   0  -7   7    4.49   10.00   0
   0  -7  10  374.29   14.81   0
   1  -5  -6  443.68   13.13   0
  -1  -7 -12  360.62   14.61   0
  -1  -6 -22  288.52   14.00   0
   0  -7  -2  354.11   13.87   0
   0  -6 -15    5.36    9.84   0
  -3  -6 -27   -5.86   11.78   0
  -2  -4 -34  314.05   14.15   0
  -1  -4 -30  268.24   12.80   0
   0  -7  -5    1.21   11.17   0
   0  -7  13    1.56   10.54   0
   1  -6   4  973.76   17.84   0
   1  -6   7   -7.79    9.41   0
   1  -5  -9   60.25    9.41   0
   1  -5  18  504.78   14.79   0
   1  -4 -10 1331.41   19.43   0
   1  -4  20  973.52   20.59   0
   1  -3  -8 3708.05   32.88   0
  -2  -6 -26  345.82   14.19   0
  -1  -3 -31   28.06    9.20   0
   1  -6  -2  449.69   14.09   0
   1  -6  10  670.24   16.36   0
  -1  -7 -15   -2.70   10.51   0
   0  -7  -8  865.17   18.48   0
   0  -7  16  743.25   17.82   0
   0  -6 -18  383.31   14.54   0
   0  -5 -22  377.56   13.19   0
   1  -6  13   25.21    9.35   0
  -3  -5 -34  266.77   14.46   0
  -2  -7 -19   -2.54   10.57   0
  -1  -5 -29   15.26   10.34   0
   0  -3 -24 1911.15   23.80   0
   1  -6  -5   10.76    9.14   0
  -2  -5 -33    3.33   11.40   0
   1  -5 -12 1374.52   19.67   0
   1  -4 -13   27.00    7.54   0
  -1  -7 -18  372.46   14.83   0
   0  -7 -11   18.13   10.11   0
   1  -6  -8 1103.82   18.52   0
   1  -6  16  859.60   17.89   0
   1  -3 -11   37.79    7.62   0
  -2  -6 -29   10.44   10.95   0
  -1  -8   1    0.21    9.93   0
  -1  -8   4  322.60   13.36   0
  -1  -8   7    2.41   10.84   0
   0  -4 -26  999.80   18.25   0
  -2  -7 -22  112.55   11.79   0
  -1  -8  10  167.05   12.20   0
   0  -7 -14  234.72   12.89   0
   0  -6 -21   -0.36    9.72   0
   1  -6 -11   16.48    9.98   0
   1  -5 -15    2.20    8.14   0
  -2  -4 -37    0.39   10.75   0
  -1  -8  -5   16.50   10.72   0
  -1  -4 -33   14.27    9.14   0
  -1  -2 -32 1535.20   23.68   0
   1  -4 -16 2452.20   25.53   0
  -1  -8  -8  276.36   14.01   0
  -1  -7 -21    7.24   10.52   0
  -1  -6 -28  281.40   14.48   0
   1  -7   2  514.16   14.80   0
   1  -7   5   23.26   10.05   0
   1  -7   8  908.02   18.86   0
   1  -6  19    5.08    8.45   0
  -3  -5 -37   -0.02   10.93   0
  -1  -5 -32  620.55   16.48   0
  -1  -3 -34  768.38   17.41   0
   0  -7 -17   -7.64   11.83   0
   1  -7  -4  404.58   14.43   0
   1  -6 -14  562.55   15.22   0
   1  -3 -14 1804.95   23.19   0
  -2  -5 -36  298.31   14.59   0
  -1  -8 -11   15.92   11.33   0
   0  -8  -1    5.84   11.58   0
   0  -8   2  158.50   12.37   0
   0  -8   5  -11.13   10.20   0
   0  -8   8  389.94   14.79   0
   0  -6 -24  860.36   17.79   0
   0  -3 -27   -2.70    7.21   0
   1  -7  11   17.75   10.14   0
   1  -5 -18  960.39   17.62   0
   1  -7  -7   23.33   10.23   0
  -1  -7 -24  356.90   14.08   0
   0  -8  -7    3.94   11.69   0
   0  -8  11    2.97   10.78   0
   0  -5 -28  907.31   17.84   0
   0  -4 -29   -5.88    9.20   0
   1  -7  14  204.53   12.60   0
   1  -4 -19   28.30    8.38   0
   0  -8  14  258.92   13.96   0
   0  -7 -20  317.15   13.83   0
   0  -2 -25    2.59    7.23   0
   1  -7 -10  343.70   13.67   0
   1  -6 -17   15.01    9.60   0
  -1  -6 -31    9.61   10.87   0
   0  -8 -10  327.78   14.54   0
  -1  -5 -35   -1.56   11.08   0
  -1  -4 -36  771.17   17.81   0
   1  -7 -13   10.47    9.72   0
   1  -7  17    8.79   10.06   0
   1  -5 -21   21.10    9.13   0
   1  -3 -17   16.87    6.94   0
   0  -8 -13    8.73   11.99   0
   0  -7 -23   -5.16   11.99   0
   1  -6 -20  685.49   16.54   0
  -2  -6 -35   -1.05   11.37   0
   2  -5   4  907.88   17.23   0
  -2  -5 -39    2.92   10.82   0
   0  -5 -31   -8.39    9.48   0
   0  -3 -30  766.14   16.83   0
   1  -8   0  591.17   16.60   0
   1  -8   3   20.73   11.12   0
   1  -7 -16  912.80   18.36   0
   2  -6   2  749.72   15.66   0
   2  -5  -2 1018.69   17.53   0
   2  -5   7   15.10    8.22   0
  -1  -6 -34  304.68   14.78   0
  -1  -3 -37   -1.83    8.89   0
  -1  -2 -35    6.05    8.08   0
   0  -8 -16  329.50   14.39   0
   0  -4 -32  680.96   16.26   0
   1  -8   6  320.48   13.55   0
   2  -6  -4 1153.18   18.37   0
   2  -6   5   -2.82    8.13   0
   2  -5  -5   15.92    8.06   0
   0  -6 -30  258.29   13.99   0
   1  -8  -6  178.28   12.63   0
   1  -8   9    7.05   10.74   0
   1  -5 -24  888.96   17.12   0
   2  -6   8 1109.78   18.89   0
   2  -5  10  894.93   17.65   0
  -1  -7 -30  126.71   11.58   0
   0  -7 -26  331.50   13.96   0
   1  -8  -9   15.28   11.59   0
   1  -8  12  294.10   14.01   0
   1  -7 -19   23.47   10.64   0
   1  -6 -23   14.00    9.41   0
   2  -6  -7   11.56    8.38   0
   2  -5  -8 2537.96   25.72   0
   0  -8 -19    0.43   10.28   0
   2  -6  11    4.59    7.74   0
   2  -4   0 4575.36   35.70   0
  -1  -5 -38  253.67   13.72   0
  -1  -4 -39   13.40   10.31   0
   0  -2 -28 1325.21   21.57   0
   1  -8 -12  337.39   14.29   0
   2  -7   0  902.91   17.73   0
   2  -7   3    0.69    9.10   0
   2  -7   6  236.02   12.74   0
   2  -6 -10  475.74   13.58   0
   2  -5 -11   17.71    8.35   0
   2  -5  13    2.18    7.55   0
   2  -4  -3   -1.51    7.11   0
   2  -4   6  935.43   18.00   0
   1  -7 -22  259.26   13.81   0
   2  -7  -6  605.01   15.15   0
   2  -4  -6  919.85   16.97   0
   0  -8 -22  139.42   11.93   0
   1  -8 -15   17.45   11.85   0
   1  -6 -26  375.28   13.19   0
   2  -7   9    8.19    9.86   0
   2  -6 -13    5.34    9.16   0
  -1  -7 -33    8.25   11.28   0
  -1  -6 -37    5.11   11.34   0
   0  -6 -33   -4.06   10.40   0
   2  -7  -9    4.51    9.34   0
   2  -5 -14  497.25   13.55   0
   2  -4  -9   -1.26    7.90   0
   2  -4   9   -1.47    6.39   0
   0  -4 -35    7.15    9.30   0
   0  -3 -33    2.38    7.32   0
   1  -3 -23    7.23    7.19   0
   2  -7  12  655.50   16.26   0
   1  -8 -18  356.96   14.35   0
   1  -7 -25   19.64   11.15   0
   2  -6 -16 1013.35   17.89   0
   2  -5  16 2149.76   27.31   0
   0  -8 -25   -6.79   10.41   0
   2  -6  17   -6.43    8.27   0
   2  -5 -17    2.55    9.15   0
   2  -4 -12  934.41   16.75   0
   2  -4  12  945.90   18.91   0
   0  -7 -32  450.19   16.08   0
   1  -9  -5   15.06   11.50   0
   1  -9  -2  216.84   13.31   0
   1  -9   1    0.65   10.88   0
   1  -9   4  321.49   14.05   0
   1  -4 -28  909.74   17.20   0
   2  -8  -2  342.37   14.02   0
   2  -8   1    7.79   10.27   0
   2  -8   4  352.03   14.21   0
   2  -7 -15   -4.96   10.18   0
   2  -7  15    6.45    9.41   0
  -1  -5 -41    8.48   11.11   0
   0  -5 -37    2.99   10.19   0
   1  -9   7    3.58   11.16   0
   1  -8 -21   21.31   11.04   0
   1  -5 -30  272.29   12.46   0
   2  -8  -8  740.18   17.56   0
   2  -8   7   -4.95   10.42   0
   2  -6 -19   -2.83    9.37   0
   0  -6 -36  291.58   14.35   0
  -1  -6 -40  417.78   15.56   0
   0  -2 -31   -1.07    7.73   0
   1  -9 -11   -1.32   10.07   0
   1  -7 -28  283.36   13.85   0
   2  -8 -11    2.64   10.90   0
   2  -8  10  326.18   13.80   0
   2  -7 -18  279.79   12.64   0
   2  -5 -20  832.58   16.19   0
   2  -4 -15   -0.31    7.69   0
   1  -8 -24  408.28   15.45   0
   1  -3 -26  623.74   14.70   0
   0  -4 -38  204.86   11.94   0
   1  -6 -32  601.03   16.46   0
   2  -8 -14  179.28   12.82   0
   2  -8  13   -9.07   11.13   0
   2  -6 -22  486.57   14.04   0
   2  -4  15   -0.17    7.36   0
   0  -7 -35    2.32   10.65   0
   0  -3 -36  733.37   16.95   0
   1  -4 -31   20.33    8.90   0
   2  -7 -21   -1.06   10.04   0
   1  -5 -33    7.43    9.39   0
   2  -8 -17   -4.66   10.40   0
   2  -5 -23   20.26    9.27   0
   2  -4 -18 1326.97   19.47   0
   2  -3  -4 3272.92   31.44   0
   2  -3  -1   80.96    8.22   0
   0  -6 -39   15.08   11.00   0
   1  -8 -27    1.96   11.65   0
   0  -5 -40  333.37   14.59   0
   2  -9  -4  336.28   13.75   0
   2  -9  -1   -8.13   10.34   0
   2  -9   2  182.85   13.12   0
   2  -7 -24  725.53   16.46   0
   2  -6 -25    2.82    9.17   0
   2  -3  -7    4.49    6.81   0
   2  -9   5   24.19   10.72   0
   2  -8 -20  295.38   13.48   0
   1  -6 -35   14.79   11.00   0
   1  -3 -29   11.21    7.97   0
   1  -2 -21   34.25    6.97   0
   2  -9 -10  286.15   13.14   0
   2  -4 -21    2.68    7.64   0
   2  -3 -10 2283.16   25.89   0
   3  -7  -5   19.98    9.48   0
   3  -7   1   14.31    9.35   0
   3  -6  -6  621.86   15.14   0
   3  -6  -3   16.77    8.61   0
   0  -7 -38  105.80   11.33   0
   1  -7 -34  278.23   14.39   0
   2  -9 -13   -3.33   11.43   0
   3  -7  -8  759.72   16.46   0
   3  -7   4  932.79   17.75   0
   3  -6  -9   12.82    9.48   0
   3  -6   3    7.82    8.12   0
   1  -5 -36  755.60   17.45   0
   1  -4 -34  739.81   16.57   0
   2  -8 -23    5.09   10.95   0
   2  -7 -27    6.93   10.17   0
   3  -7 -11    5.49    9.56   0
   3  -7   7    3.71    9.67   0
   3  -6   6  608.73   15.39   0
   0  -4 -41   -1.21    9.44   0
   0  -2 -34  342.26   13.19   0
   2  -9 -16  329.14   13.51   0
   2  -3 -13   52.33    8.00   0
   3  -8  -1   -8.61   10.88   0
   3  -6 -12 1000.54   17.60   0
   0  -3 -39    4.81    8.97   0
   3  -8   2  342.56   13.52   0
   3  -7 -14  497.53   14.71   0
   3  -6   9   18.20    8.74   0
   0  -6 -42  262.58   14.20   0
   2  -9 -19   15.84   11.47   0
   2  -8 -26  341.70   14.88   0
   3  -8 -10  351.30   13.70   0
   3  -7  10  520.11   15.02   0
   3  -6 -15    5.00    9.01   0
   3  -5  -7   28.35    7.95   0
   3  -5  -4  898.83   16.78   0
   0  -5 -43   -5.00   10.06   0
   1  -6 -38  246.02   13.57   0
   3  -8 -13    2.26   10.23   0
   3  -7 -17   13.64   10.10   0
   1  -7 -37   11.44   11.11   0
   1  -2 -24 1964.93   25.48   0
   2  -3 -16 2322.86   25.66   0
   3  -8   8  743.19   16.96   0
   3  -5 -10  891.78   16.41   0
   3  -5   5   18.84    7.97   0
   1  -3 -32 1502.79   22.01   0
   2  -9 -22  138.65   12.81   0
   3  -8 -16  671.29   16.81   0
   3  -7  13   21.76    9.50   0
   3  -6 -18  558.10   14.35   0
   3  -6  12  981.69   18.81   0
   3  -5 -13    1.36    8.84   0
   1  -5 -39   20.17   10.01   0
   2  -8 -29   -1.78   11.29   0
   3  -9  -6  163.30   12.76   0
   3  -9  -3   -2.69   11.49   0
   3  -8  11    1.93   10.24   0
   3  -7 -20  671.43   16.19   0
   1  -4 -37   -8.53    8.14   0
   2  -4 -27   -0.63    7.83   0
   3  -9   0  573.88   15.81   0
   3  -9   3   10.88   11.07   0
   3  -8 -19    2.94   11.64   0
   3  -5   8 2567.04   27.92   0
   2  -7 -33   -2.73   11.46   0
   2  -5 -32  989.80   18.83   0
   2  -3 -19    3.75    6.82   0
   3  -9 -12  275.66   14.39   0
   3  -6 -21   10.59    9.00   0
   3  -5 -16 2253.17   24.41   0
   2  -6 -34  318.02   14.17   0
   3  -9   6  283.14   13.65   0
   3  -7 -23    7.58   10.05   0
   1  -7 -40  398.05   15.15   0
   1  -6 -41    2.45   11.01   0
   3  -9 -15   21.00   10.68   0
   3  -8 -22  210.19   13.07   0
   3  -6  15   -0.82    8.26   0
   3  -9   9    0.63   10.11   0
   3  -6 -24  864.55   17.17   0
   3  -5 -19   15.33    8.85   0
   3  -5  11   17.16    7.87   0
   1  -2 -27   -0.48    7.07   0
   3  -9 -18  361.77   13.93   0
   3  -7 -26  273.81   12.61   0
   1  -3 -35    1.86    8.21   0
   2  -7 -36  273.52   14.53   0
   2  -4 -30  266.36   11.55   0
   3  -8 -25    5.06   10.76   0
   1  -5 -42  355.46   14.41   0
   2  -5 -35    3.14    9.80   0
   3  -9 -21   -0.42   10.58   0
   3  -5 -22  423.23   13.23   0
   3  -4  -8 3209.51   29.06   0
   3  -4  -5    9.96    7.12   0
   3  -4  -2  979.62   17.50   0
   1  -4 -40  685.70   16.80   0
   2  -8 -35   -1.87   11.42   0
   2  -6 -37  -15.93   10.18   0
   3  -6 -27   -8.67    9.55   0
   3  -4 -11   65.39    8.61   0
   3  -8 -28  299.38   14.43   0
   3  -7 -29   15.69   10.67   0
   3  -5  14  475.27   14.70   0
   1  -7 -43    1.96   11.43   0
   1  -6 -44  290.73   13.89   0
   3  -9 -24  336.19   13.98   0
   3  -4   4 1425.72   21.29   0
   4  -8  -9    0.01    9.90   0
   4  -8  -3    7.85    9.63   0
   4  -8   0  752.02   17.34   0
   4  -7 -10  535.45   15.50   0
   4  -7  -7   13.20    9.47   0
   4  -7  -1   23.97    9.90   0
   2  -3 -25   23.54    7.33   0
   3  -5 -25   -4.01    8.82   0
   4  -8 -12  423.33   14.68   0
   4  -7 -13   28.21   10.82   0
   4  -7   2  368.25   13.58   0
   2  -7 -39   -0.16   10.39   0
   2  -4 -33   -4.45    8.17   0
   4  -8 -15   -9.05   11.00   0
   4  -8   3   -2.41    9.69   0
   1  -2 -30  770.28   17.00   0
   3  -9 -27    9.02   10.08   0
   3  -8 -31   -3.11   11.65   0
   3  -4 -17   -8.12    7.35   0
   4  -9  -5    3.70   11.11   0
   4  -9  -2  313.26   14.11   0
   4  -7 -16  637.23   15.78   0
   4  -7   5   22.29    9.52   0
   2  -6 -40  457.42   15.49   0
   2  -5 -38  159.88   11.16   0
   3  -4   7   32.75    7.12   0
   4  -9   1   -0.94   11.09   0
   4  -8 -18  343.37   13.72   0
   4  -8   6  321.54   13.05   0
   4  -6  -8 1163.62   18.76   0
   4  -6  -5   10.58    8.48   0
   4  -9 -14  164.80   12.35   0
   4  -7 -19    5.38    9.39   0
   4  -6 -11   -2.48    8.60   0
  -6  -2 -13    3.78   11.78   0
  -1  -4   0 1688.04   22.70   0
   0  -4   7   -5.47    7.67   0
  -4  -5  10  235.01   14.16   0
  -3  -4  -5   27.70   10.76   0
  -2  -5   6  244.08   12.80   0
  -2  -4  -4 1139.69   19.62   0
  -1  -5  10  690.27   16.39   0
   0  -5  23    2.81    9.73   0
   0  -5  26  337.53   14.02   0
  -3  -5   5    1.79   11.35   0
  -3  -3 -12 1018.03   19.93   0
   0  -5  20  906.54   18.47   0
   0  -5  29    1.61    9.60   0
   0  -3   0 2858.44   29.76   0
  -5  -3 -11    2.19   12.50   0
  -4  -5   7   19.33   11.54   0
  -4  -2 -17   -0.53   10.27   0
  -3  -2 -16 2156.82   27.07   0
  -4  -3 -13   23.45   11.90   0
  -1  -5   7   -6.12    9.73   0
  -1  -3  -7   34.33    8.57   0
   0  -5  17   -2.07    8.72   0
   1  -4  26  794.98   19.01   0
  -5  -4  -4  259.25   15.15   0
  -2  -5   3   11.06   10.16   0
   0  -4   4 1728.70   22.78   0
   1  -4  23   32.31    8.43   0
  -6  -3  -9   -1.23   12.17   0
  -4  -5   4  267.57   14.28   0
  -3  -5   2  333.65   14.46   0
  -1  -4  -3    0.39    8.43   0
   0  -5  14  821.78   17.17   0
  -2  -4  -7    0.49    9.68   0
  -1  -5   4  970.22   18.96   0
  -5  -2 -18  585.86   18.26   0
  -2  -6  22  186.42   13.94   0
  -2  -6  25    0.46   10.79   0
  -2  -6  28  287.60   14.67   0
  -2  -2 -15    3.72    7.94   0
   1  -4  17    2.08    7.90   0
  -4  -5   1    3.63   12.76   0
  -4  -1 -21   18.46    9.82   0
  -3  -6  24  420.78   15.97   0
  -3  -6  27   -4.24   11.65   0
  -3  -5  -1   -3.19   12.14   0
  -2  -6  19    8.31   11.56   0
  -2  -6  31   10.10   11.20   0
  -2  -5   0  911.02   18.49   0
  -5  -5   6  161.09   13.00   0
  -5  -4  -7    6.56   12.66   0
  -5  -3 -14  274.50   15.31   0
  -4  -4  -9    6.75   11.76   0
  -3  -3 -15   10.01   10.32   0
  -1  -6  23   13.83   11.38   0
  -1  -6  26  451.04   15.94   0
  -1  -2 -11   36.67    7.78   0
   0  -4   1    0.81    8.09   0
  -3  -6  15   12.49   12.72   0
  -2  -6  13   -2.29   11.91   0
  -2  -6  34  226.25   14.32   0
  -1  -6  20  409.01   15.12   0
  -1  -6  29   10.52   10.93   0
   0  -5   8 1150.26   19.84   0
   0  -3  -3   -1.01    7.08   0
   1  -4  14  804.99   17.15   0
  -6  -3 -12  233.96   14.62   0
  -4  -3 -16  641.50   18.08   0
  -3  -1 -20 1066.07   21.46   0
  -1  -6  17   -1.08   10.93   0
  -1  -6  32  444.06   15.99   0
  -1  -5   1   28.21    9.65   0
  -1  -4  -6  475.38   14.13   0
  -1  -3 -10 1322.03   20.98   0
  -5  -5   3   14.34   11.25   0
  -4  -5  -2  328.06   16.08   0
  -3  -6  12  240.63   14.40   0
  -2  -6  10  314.15   15.00   0
  -2  -5  -3   12.55   10.93   0
  -2  -4 -10  473.69   15.34   0
  -2  -3 -14  461.96   14.70   0
  -4  -2 -20  886.88   19.94   0
  -3  -5  -4  399.47   15.43   0
  -3  -2 -19   11.47    9.52   0
   1  -4  11   57.38    8.87   0
  -3  -6   9   -0.51   11.87   0
  -1  -6  11   18.28   10.06   0
   0  -5   5    3.72    8.93   0
  -5  -4 -10  234.60   14.70   0
  -4  -4 -12  443.15   16.48   0
  -2  -6   7    0.06   11.48   0
  -1  -5  -2  440.10   14.61   0
   0  -4  -2 1589.65   21.76   0
  -3  -6   6  311.98   15.58   0
  -1  -6   8  906.10   19.15   0
   0  -6  21   -2.10   10.47   0
   0  -6  24  690.49   17.35   0
   0  -6  27    0.43   10.44   0
   1  -5  21   11.77    8.92   0
   1  -5  24 1220.72   21.53   0
  -5  -3 -17    3.68   12.12   0
  -2  -5  -6  605.34   16.57   0
   0  -6  18  559.86   15.76   0
   1  -5  18  510.92   15.02   0
  -6  -3 -15   13.12   12.43   0
  -3  -5  -7   -0.86   11.17   0
  -3  -3 -18  594.01   16.58   0
  -2  -6   4  338.74   14.61   0
  -1  -4  -9   34.73    9.05   0
   0  -6  15    5.67   10.36   0
   0  -5   2  449.95   14.01   0
   0  -3  -6 2204.48   26.00   0
  -5  -5  -3   -7.63   12.25   0
  -3  -6   3   11.02   13.15   0
  -2  -2 -18 1316.33   22.17   0
  -1  -6   5   32.44   11.69   0
   1  -5  15   37.71    9.23   0
  -4  -3 -19    5.65   11.25   0
  -1  -5  -5   -0.12   10.10   0
   0  -6  12  622.89   16.01   0
  -5  -4 -13   -0.80   12.16   0
  -4  -5  -8  558.54   18.09   0
  -4  -4 -15   11.42   12.47   0
  -2  -3 -17    4.18    9.57   0
  -1  -3 -13   21.06    8.28   0
   1  -5  12 1161.38   20.07   0
  -3  -6   0  591.44   17.95   0
  -2  -5  -9   18.65   11.53   0
   0  -4  -5   -8.68    8.31   0
  -5  -5  -6  171.04   14.00   0
  -1  -6   2  505.66   15.34   0
   0  -5  -1   -5.91    9.07   0
  -4  -2 -23   -3.08    9.92   0
   1  -5   9   12.00    8.66   0
  -5  -3 -20  364.05   16.52   0
  -3  -2 -22  404.31   14.62   0
  -2  -7  17  -21.43   12.20   0
  -2  -7  20  258.18   13.42   0
  -2  -6  -2  341.29   14.87   0
  -1  -4 -12 1369.90   20.97   0
   0  -6   6  319.31   13.44   0
  -3  -6  -3   14.57   12.81   0
  -3  -4 -17    5.05   10.69   0
  -1  -7  18  235.96   14.09   0
  -1  -7  21    2.11   11.35   0
  -1  -7  24  453.08   16.11   0
  -1  -6  -1    1.85   11.57   0
  -1  -5  -8 1110.02   19.36   0
  -5  -4 -16  606.69   18.54   0
  -4  -6  -1    6.56   11.06   0
  -4  -5 -11   -1.03   11.80   0
  -2  -4 -16 1007.21   19.15   0
  -1  -7  15   14.96   12.32   0
  -1  -7  27    9.64   11.87   0
  -4  -4 -18  355.24   16.45   0
  -3  -5 -13    7.07   12.48   0
  -3  -3 -21   12.74    9.65   0
  -3  -1 -23   34.92    9.26   0
  -2  -7  11   -8.03   11.61   0
  -2  -5 -12  591.87   16.29   0
   0  -6   3   -1.02    9.68   0
   0  -5  -4 1452.06   21.11   0
   0  -3  -9   -1.07    7.56   0
   1  -6  22  323.70   13.76   0
   1  -4   2  964.12   17.87   0
  -4  -3 -22  315.76   14.95   0
  -2  -6  -5    0.38   11.20   0
   0  -4  -8 1799.51   22.95   0
   1  -6  19    3.13    8.82   0
   1  -6  25   12.61    9.54   0
   1  -3   1   73.39    8.30   0
  -3  -6  -6  159.22   14.33   0
  -2  -7   8  401.60   14.85   0
  -1  -7   9    5.13   12.14   0
  -1  -6  -4  394.43   15.66   0
   1  -6  16  856.01   17.88   0
  -2  -3 -20  834.41   18.16   0
  -1  -5 -11    1.89   11.00   0
   0  -7  19    8.85   11.33   0
   0  -7  22  175.76   13.26   0
   1  -6  13   28.02   10.44   0
  -4  -5 -14  153.47   14.69   0
  -2  -7   5    7.84   12.03   0
  -2  -2 -21   -1.29    8.28   0
   0  -7  16  782.64   18.21   0
   0  -7  25   -4.87   11.32   0
   0  -6   0 1173.05   19.84   0
   1  -5   3   63.21    9.14   0
  -3  -4 -20  661.23   18.16   0
  -1  -7   6  329.39   14.56   0
  -1  -4 -15   12.04    8.56   0
   0  -7  13   -7.26   11.57   0
   0  -5  -7   14.52    8.71   0
   1  -6  10  665.61   16.12   0
  -2  -7   2  183.73   14.30   0
   1  -4  -1   57.11    8.53   0
  -5  -4 -19    9.28   12.87   0
  -3  -5 -16  685.12   18.36   0
  -2  -4 -19   -8.98    9.66   0
  -1  -7   3   29.13   12.33   0
  -1  -6  -7   33.59   11.06   0
  -1  -2 -17   19.40    7.19   0
   0  -7  10  340.64   14.84   0
  -4  -4 -21    9.90   12.31   0
   0  -6  -3  -10.99   10.37   0
   0  -4 -11   -5.84    8.37   0
   1  -5   0 1694.33   22.11   0
   0  -3 -12 2191.84   25.91   0
   1  -3  -2  751.05   16.84   0
  -4  -5 -17   15.74   12.39   0
  -3  -3 -24  831.34   19.23   0
  -2  -7  -1    5.93   11.22   0
  -2  -6 -11   13.12   11.81   0
  -1  -5 -14  553.17   15.62   0
  -4  -3 -25   11.78   11.86   0
   0  -7   4  327.88   13.81   0
   0  -5 -10  848.30   17.24   0
  -1  -6 -10  365.01   14.26   0
   0  -6  -6  567.33   15.33   0
   1  -4  -4 1463.88   21.17   0
  -3  -5 -19   -4.77   12.32   0
  -2  -7  -4  364.43   14.90   0
  -2  -5 -18  292.73   14.22   0
  -1  -7  -3    3.41   12.55   0
  -1  -3 -19   27.48    8.39   0
   1  -7  17    6.38   10.72   0
   1  -7  20  413.03   15.56   0
   1  -7  23   19.77   10.90   0
   1  -5  -3   -9.04    8.52   0
  -3  -4 -23    0.93   10.38   0
  -2  -3 -23   20.74    8.87   0
   0  -7   1   -2.79   11.18   0
   1  -7  14  199.49   12.55   0
   1  -6   1   35.75    9.62   0
  -2  -4 -22  507.44   15.98   0
  -2  -1 -22  524.56   16.03   0
   1  -7  11    7.21   10.98   0
   2  -5  16 2207.23   27.57   0
   2  -5  19   18.74    8.80   0
   2  -4  18 1212.74   22.94   0
  -4  -4 -24  539.68   18.30   0
   0  -4 -14  400.12   12.92   0
   2  -4  15    1.63    7.36   0
  -4  -5 -20  263.02   15.17   0
  -3  -6 -15    1.22   12.67   0
  -2  -7  -7    4.41   12.12   0
  -1  -7  -6  197.85   14.56   0
  -1  -6 -13   -7.33   11.08   0
   0  -7  -2  388.96   15.47   0
   0  -6  -9   -0.52   10.45   0
   0  -5 -13    1.11    9.98   0
   1  -7   8  905.97   18.65   0
   1  -3  -5   13.22    7.02   0
   2  -5  13    3.45    7.50   0
  -2  -2 -24 2215.30   28.19   0
   0  -8  17   -7.45   11.56   0
   0  -8  20  263.81   14.02   0
   1  -6  -2  443.41   14.25   0
   1  -5  -6  474.97   13.66   0
   2  -4  12  936.10   19.36   0
   0  -8  14  268.56   14.34   0
   0  -8  23   -6.76   10.87   0
   0  -3 -15   -5.55    7.41   0
   1  -4  -7   32.19    8.03   0
   2  -5  10  884.75   17.52   0
  -3  -5 -22  235.44   14.66   0
  -3  -3 -27   -0.58   10.10   0
  -2  -5 -21   -2.16   11.19   0
   0  -8  11    2.35   10.73   0
   2  -6  17    1.21    9.12   0
   2  -6  20  865.80   18.84   0
  -2  -7 -10  276.56   15.17   0
  -1  -7  -9   18.70   12.57   0
  -1  -4 -21   23.55    9.48   0
   0  -8   8  409.43   15.96   0
   0  -7  -5    4.30   11.60   0
   2  -6  14  427.98   13.80   0
   2  -5   7   26.32    8.88   0
   2  -4   9    0.10    7.22   0
  -3  -4 -26  273.45   14.87   0
  -1  -6 -16  947.41   19.91   0
   0  -6 -12  545.47   15.47   0
   1  -7   2  493.45   15.49   0
   1  -6  -5   -3.19    9.68   0
   2  -6  11   -2.02    9.39   0
  -3  -6 -18  373.09   15.83   0
  -1  -8   1    5.87   11.47   0
  -1  -3 -22  463.49   14.41   0
  -4  -5 -23    2.78   12.93   0
  -2  -4 -25    4.95   10.96   0
  -2  -3 -26  858.34   18.70   0
   0  -5 -16  917.54   18.13   0
   0  -4 -17    2.26    8.19   0
   1  -5  -9   44.33    9.40   0
   2  -6   8 1099.53   19.25   0
   0  -8   2  175.75   14.14   0
   0  -7  -8  822.98   18.73   0
   1  -7  -1    5.45   10.48   0
   2  -5   4  841.59   16.97   0
   2  -4   6  908.72   18.00   0
  -2  -7 -13    5.56   11.59   0
  -1  -8  -2  212.77   13.93   0
  -1  -7 -12  379.92   15.68   0
   1  -8  12  300.17   14.71   0
   1  -8  15   13.83   11.61   0
   1  -8  18  238.82   14.09   0
   1  -8  21   -1.40   11.01   0
   1  -6  -8 1067.42   19.56   0
   1  -4 -10 1341.46   20.25   0
   1  -3  -8 3632.78   33.42   0
   2  -6   5    6.26    9.31   0
  -2  -6 -20  295.24   14.99   0
  -2  -5 -24  730.01   18.72   0
  -3  -5 -25   -9.94   12.27   0
   0  -8  -1   -5.31   11.05   0
   0  -6 -15  -11.76   10.13   0
   1  -8   9    8.83   10.88   0
   1  -7  -4  397.40   14.09   0
   2  -7  12  687.13   17.29   0
   2  -7  18  569.07   16.37   0
   2  -7  21   -2.99   10.26   0
  -3  -6 -21    3.03   12.76   0
  -1  -8  -5   20.19   11.35   0
   0  -7 -11   11.80   10.64   0
   1  -8   6  329.87   15.03   0
  -1  -4 -24  905.40   18.35   0
   1  -5 -12 1392.32   20.64   0
   2  -7   9    8.41    9.58   0
  -2  -2 -27    2.14    8.02   0
  -1  -7 -15   -4.28   11.39   0
  -1  -5 -23   17.88   10.24   0
   0  -8  -4  407.24   15.32   0
   0  -5 -19   -3.70    9.72   0
   1  -6 -11    3.31   10.67   0
  -3  -4 -29   17.90   11.86   0
  -1  -8  -8  281.64   15.18   0
   1  -7  -7   11.75   11.15   0
  -2  -6 -23    9.48   12.28   0
  -2  -4 -28  648.93   17.64   0
  -2  -1 -25   15.56    7.97   0
  -1  -2 -23    6.50    8.05   0
   0  -6 -18  384.03   15.08   0
   1  -4 -13   19.19    8.46   0
   2  -6  -1    8.77    8.95   0
   2  -5  -2  992.80   17.82   0
  -1  -3 -25    0.71    8.10   0
   0  -8  -7   -2.56   12.99   0
   0  -7 -14  217.52   13.95   0
   1  -8   0  596.03   16.54   0
   2  -7   3   -1.39    9.63   0
   2  -4   0 4521.66   36.60   0
  -2  -5 -27    2.28   11.86   0
  -2  -3 -29    4.99    9.33   0
  -1  -6 -22  278.50   14.25   0
   1  -3 -11   34.65    8.04   0
  -3  -6 -24  341.46   15.27   0
  -3  -5 -28  298.43   15.61   0
  -2  -7 -19    3.87   12.62   0
  -1  -8 -11    6.11   12.18   0
   1  -8  -3   -6.85   11.81   0
   1  -7 -10  359.47   14.55   0
   1  -5 -15   15.16    9.25   0
   2  -6  -4 1115.22   19.44   0
   1  -6 -14  602.45   15.67   0
   2  -8  13   -4.43   11.09   0
   2  -8  16  624.64   17.54   0
   2  -5  -5   22.36    8.15   0
  -1  -5 -26  392.54   15.14   0
   0  -8 -10  299.10   14.44   0
   2  -8  10  346.41   15.07   0
  -1  -4 -27    3.91    9.39   0
   0  -7 -17   -1.35   11.55   0
   0  -6 -21   -2.25   11.37   0
   1  -8  -6  213.76   14.29   0
   2  -8   7   -1.95   11.19   0
   2  -7  -3   16.97   10.77   0
   2  -4  -3    1.45    7.40   0
  -2  -6 -26  360.35   16.18   0
   1  -9  10  167.46   13.15   0
   1  -7 -13    5.51   11.87   0
   1  -4 -16 2472.81   26.62   0
   2  -6  -7    3.68   10.03   0
  -1  -6 -25   -7.20   11.59   0
   1  -9   7  -11.96   11.76   0
   2  -8   4  323.92   14.47   0
  -2  -7 -22  126.98   12.88   0
   0  -8 -13   -5.98   11.13   0
   1  -9   4  336.70   14.86   0
   1  -6 -17    3.22   10.26   0
   1  -5 -18  967.68   18.67   0
   2  -5  -8 2531.62   26.53   0
  -2  -5 -30  317.08   15.41   0
  -2  -4 -31    6.13   10.53   0
   1  -8  -9   22.16   11.70   0
   1  -3 -14 1812.67   23.74   0
   2  -8   1  -10.66   11.19   0
   2  -7  -6  601.96   16.08   0
  -1  -3 -28  939.65   19.03   0
   2  -4  -6  906.06   17.38   0
  -2  -2 -30  257.15   12.90   0
   0  -2 -19   -0.96    6.66   0
   1  -7 -16  950.49   19.07   0
   2  -6 -10  497.29   14.54   0
  -1  -5 -29    3.71   11.34   0
  -1  -2 -26  632.15   16.28   0
   0  -8 -16  315.32   15.82   0
   2  -7  -9   -4.41   11.18   0
   3  -6  12 1029.50   19.60   0
   3  -6  15   -0.88    9.55   0
  -2  -3 -32  970.82   20.40   0
  -1  -7 -24  411.34   16.59   0
   1  -8 -12  385.19   14.80   0
   2  -5 -11   13.15    8.33   0
   3  -6   9   13.27    9.05   0
  -2  -6 -29   -3.72   11.38   0
  -1  -6 -28  293.83   15.46   0
  -1  -4 -30  271.56   13.64   0
   1  -6 -20  716.06   17.03   0
   1  -4 -19   34.83    8.83   0
   2  -9  11   10.88   11.31   0
   2  -9  14  216.02   13.35   0
   2  -8  -5    1.47   11.37   0
   3  -7  10  553.90   15.75   0
   3  -7  13   25.21    9.83   0
   3  -7  16  631.52   17.01   0
   3  -6   6  615.96   16.00   0
   0  -4 -26  985.29   18.51   0
   0  -3 -24 1927.34   24.47   0
   1  -5 -21   15.97    9.76   0
   3  -7   7   11.50   10.24   0
   1  -7 -19   26.46   11.21   0
   2  -9   5    1.95   11.53   0
   2  -7 -12  600.73   16.69   0
   2  -6 -13    8.03    9.20   0
   2  -4  -9    0.93    7.54   0
   3  -7   4  908.79   18.68   0
   3  -6   3   15.72    9.29   0
   0  -8 -19    5.96   12.40   0
   1  -8 -15    8.22   11.93   0
   2  -9   2  177.68   13.59   0
   2  -8  -8  708.01   17.51   0
   3  -5  11   11.28    8.48   0
   3  -5  14  460.90   14.86   0
  -2  -5 -33   -4.39   11.72   0
   0  -6 -27    2.35   12.06   0
   1  -9  -8  297.20   13.91   0
   1  -3 -17   13.64    7.74   0
   3  -7   1    7.30   10.13   0
   3  -5   8 2633.46   29.49   0
   3  -5  17    6.82    8.52   0
  -2  -4 -34  290.92   14.39   0
  -1  -7 -27   12.13   12.45   0
   0  -5 -28  898.03   18.42   0
   2  -9  -1    3.97   11.83   0
   2  -5 -14  482.89   14.00   0
   3  -8   8  766.18   18.06   0
   3  -8  11   11.57   10.96   0
   3  -6   0 1331.84   20.45   0
   3  -5   5   19.73    8.75   0
  -1  -5 -32  602.86   17.81   0
   1  -6 -23   -4.45   10.56   0
   2  -8 -11  -10.36   12.35   0
   3  -8   5    9.98   10.93   0
  -2  -6 -32  360.79   16.07   0
   1  -9 -11    0.50   12.06   0
   1  -8 -18  374.37   16.03   0
   1  -4 -22  473.31   14.26   0
   2  -7 -15   23.88   10.83   0
   2  -3  -4 3239.58   32.44   0
  -1  -6 -31   11.25   11.29   0
  -1  -3 -31   19.32    8.32   0
   0  -8 -22  127.10   13.78   0
   1  -5 -24  943.51   18.26   0
   2  -4 -12  954.16   17.53   0
   3  -8   2  360.49   14.53   0
   3  -5   2  992.87   18.36   0
   0  -4 -29   -0.10    9.93   0
  -1  -4 -33    0.21    9.14   0
   2  -9  -7    3.41   12.18   0
   2  -5 -17    3.35    9.68   0
   3  -8  -1   14.69   10.36   0
   0  -6 -30  287.91   15.13   0
   0  -3 -27    2.23    7.56   0
   2  -7 -18  292.88   14.50   0
   3  -6  -6  625.34   15.38   0
  -1  -7 -30  110.12   13.51   0
  -1  -2 -29   10.40    7.94   0
   1  -8 -21    4.67   11.66   0
   1  -6 -26  338.12   13.89   0
   1  -3 -20 1716.70   23.12   0
   2  -6 -19    1.35   10.15   0
   0  -5 -31   -2.42    9.90   0
   1  -7 -25    1.23   11.11   0
   2  -9 -10  307.13   14.75   0
   2  -3  -7    6.78    6.96   0
   3  -9   6  286.81   14.65   0
   3  -9   9   -5.31   10.33   0
   3  -9  12  224.68   13.59   0
   3  -7  -8  752.59   16.71   0
   0  -7 -29   -0.64   11.47   0
   2  -8 -17   -3.65   12.31   0
   2  -4 -15   -2.71    8.00   0
   3  -9   3   20.69   11.56   0
   3  -6  -9   20.66   10.16   0
   3  -5  -4  880.64   17.18   0
  -1  -6 -34  297.79   15.44   0
  -1  -5 -35    4.09   11.21   0
   3  -9   0  567.00   16.81   0
   2  -9 -13    2.80   12.45   0
   2  -7 -21    6.79   11.74   0
   2  -5 -20  781.83   16.41   0
   3  -7 -11    6.58   10.21   0
   1  -8 -24  375.73   15.09   0
   2  -6 -22  518.82   14.93   0
   3  -9  -3    1.63   12.23   0
   3  -8 -10  352.00   15.05   0
   3  -5  -7   30.26    8.03   0
   0  -4 -32  674.04   16.95   0
   3  -6 -12 1013.06   18.85   0
   3  -4   7   35.84    8.15   0
   3  -4  10 1294.66   22.99   0
  -1  -7 -33    0.20   12.02   0
  -1  -3 -34  738.67   17.71   0
   0  -6 -33    0.68   11.24   0
   1  -2 -15    7.40    6.89   0
   2  -8 -20  325.31   14.60   0
   2  -3 -10 2237.43   26.19   0
   3  -4   4 1444.54   22.66   0
   0  -7 -32  459.90   16.62   0
   0  -2 -25   -0.58    7.73   0
   2  -9 -16  320.40   14.48   0
   2  -4 -18 1334.55   20.06   0
   3  -7 -14  508.26   15.24   0
   0  -5 -34  438.34   15.02   0
   0  -3 -30  750.35   17.24   0
   2  -7 -24  709.64   18.14   0
   3  -8 -13   -9.69   11.11   0
   3  -5 -10  878.77   17.07   0
   3  -4   1   65.15    8.76   0
   1  -5 -30  272.98   13.33   0
   2  -5 -23   19.17   10.14   0
   1  -4 -28  919.24   17.74   0
   2  -8 -23   -4.27   12.49   0
   2  -6 -25   -4.14   10.25   0
   3  -6 -15    4.95    9.19   0
  -1  -6 -37    1.88   12.17   0
  -1  -5 -38  244.02   14.34   0
   2  -9 -19   15.79   11.62   0
   3  -8 -16  680.62   18.13   0
   3  -7 -17   33.18   10.65   0
   4  -8   6  318.67   14.13   0
   4  -8   9   10.32    9.87   0
   4  -7   5   31.22   10.18   0
   4  -7   8  786.32   17.96   0
   4  -7  11    7.68    9.58   0
   1  -7 -31   11.90   12.51   0
   1  -6 -32  609.80   17.53   0
   2  -3 -13   53.54    7.98   0
   3  -9 -12  300.05   14.31   0
   4  -8   3   10.68   10.14   0
   4  -7   2  374.51   13.76   0
   0  -6 -36  270.16   14.92   0
   3  -5 -13    0.08    8.28   0
   4  -8   0  731.93   17.66   0
   4  -7  -1   21.06   10.08   0
   0  -7 -35   -6.41   12.33   0
   2  -7 -27   15.62   11.54   0
   2  -4 -21    3.06    7.90   0
   3  -6 -18  580.80   15.44   0
   3  -4  -5    9.79    8.22   0
   4  -8  -3    0.15   10.80   0
   0  -4 -35   -4.35    8.93   0
   2  -9 -22  121.92   13.81   0
   2  -8 -26  375.05   16.33   0
   3  -9 -15    0.40   10.90   0
   3  -8 -19    0.54   11.93   0
   3  -7 -20  688.15   17.62   0
   4  -9   4  247.25   14.13   0
   4  -9   7   14.42   11.01   0
   4  -7  -4  939.00   18.36   0
   0  -5 -37   -0.41   10.81   0
   2  -5 -26  917.68   17.83   0
   4  -9   1   11.14   11.61   0
   4  -8  -6  307.12   14.41   0
   4  -6   4 1147.43   19.81   0
   4  -6   7    5.42    7.98   0
   4  -6  10  505.05   15.24   0
  -1  -3 -37    4.28    9.73   0
   1  -5 -33   15.05    9.92   0
   1  -3 -26  635.66   15.17   0
   3  -5 -16 2212.61   24.95   0
   4  -9  -2  312.46   15.17   0
   4  -6   1   -0.83    8.52   0
   0  -3 -33    5.23    9.01   0
   0  -2 -28 1291.99   21.61   0
   1  -4 -31   19.02    9.96   0
   3  -4  -8 3135.06   29.83   0
   4  -6  -2  764.21   16.98   0
   4  -6  13   -0.04    8.55   0
   1  -7 -34  297.07   14.77   0
   2  -3 -16 2281.31   25.96   0
   3  -9 -18  364.06   14.53   0
   3  -6 -21   18.70   10.12   0
   4  -9  -5    6.08   11.12   0
   1  -6 -35    5.17   11.13   0
   2  -7 -30  316.80   14.74   0
   2  -4 -24 2349.36   25.89   0
   3  -8 -22  205.87   13.72   0
   3  -7 -23    6.00   11.56   0
   4  -7 -10  537.38   15.35   0
   0  -6 -39    4.02   11.82   0
   1  -8 -33   -5.02   12.32   0
   2  -8 -29   -5.69   11.11   0
   4  -9  -8  553.03   16.55   0
   4  -8 -12  446.16   15.65   0
   0  -7 -38  103.74   12.99   0
   3  -9 -21   -4.17   12.46   0
   3  -5 -19   16.35    9.27   0
   3  -4 -11   60.08    8.70   0
   4  -7 -13   11.93   10.29   0
   0  -4 -38  222.54   12.80   0
   3  -8 -25    5.71   11.19   0
   3  -6 -24  906.09   18.18   0
   4  -8 -15   -5.11   11.84   0
   0  -5 -40  370.60   15.31   0
   1  -7 -37   -0.90   12.16   0
   1  -5 -36  788.70   17.96   0
   1  -3 -29   14.16    8.42   0
   2  -3 -19   10.64    7.57   0
   3  -7 -26  269.85   13.91   0
   4  -6 -11   -1.69    9.90   0
   1  -4 -34  785.64   17.44   0
   3  -9 -24  349.68   15.92   0
   3  -4 -14  829.73   16.38   0
   4  -9 -14  153.73   13.10   0
   1  -6 -38  238.40   14.20   0
   2  -4 -27   -6.60    8.62   0
   3  -5 -22  426.02   13.71   0
   4  -5   3    2.48    8.28   0
   4  -5   6  496.58   14.83   0
   4  -8 -18  343.08   14.86   0
   4  -5   0 1810.67   23.75   0
   2  -6 -34  305.95   13.78   0
   3  -8 -28  332.92   14.98   0
   3  -6 -27    0.20   10.39   0
   4  -9 -17   15.04   10.87   0
   4  -6 -14  448.41   14.33   0
   4  -5  -3   48.19    9.57   0
   4  -5   9   45.21    9.17   0
   0  -6 -42  253.58   14.22   0
   0  -2 -31   -5.84    7.74   0
   4  -7 -19    6.52   10.73   0
   3  -9 -27   14.43   11.08   0
   3  -4 -17    0.04    8.06   0
   4  -8 -21   11.94   11.98   0
   4  -5  12 1280.33   23.34   0
   2  -8 -35    2.97   12.45   0
   2  -7 -36  290.55   14.68   0
   2  -3 -22  555.93   14.42   0
   3  -5 -25    0.90    9.05   0
   4  -9 -20  251.28   14.89   0
   4  -6 -17   -0.39    9.21   0
   1  -7 -40  427.80   15.81   0
   1  -5 -39   -4.15   10.04   0
   1  -2 -24 2015.54   25.42   0
   4  -5  -9    5.81    8.93   0
   5  -9  -1   -6.11   11.43   0
   5  -9   2  308.82   14.46   0
   5  -9   5    2.95   11.07   0
   5  -8  -2  371.55   14.75   0
   5  -8   1    2.40    9.94   0
   5  -8   4  407.09   15.19   0
   5  -8   7    3.23   10.65   0
   0  -5 -43    1.52   11.16   0
   0  -4 -41   -4.39   10.16   0
   1  -3 -32 1531.22   22.05   0
   3  -8 -31    4.87   11.52   0
   3  -6 -30  356.56   14.45   0
   4  -7 -22  329.83   14.06   0
   5  -9  -4  263.41   14.56   0
   5  -8  -5   -5.51   11.01   0
   1  -6 -41    1.21   10.87   0
   1  -4 -37   10.91    9.00   0
   2  -6 -37    1.62   11.13   0
   3  -7 -32  448.56   16.63   0
   4  -8 -24  547.88   17.08   0
   2  -5 -35    0.52    9.82   0
   3  -4 -20 1106.37   18.28   0
   4  -9 -23   12.05   11.31   0
   4  -6 -20  874.42   17.71   0
   4  -5 -12 1143.27   18.95   0
   5  -9  -7   27.43   10.98   0
   5  -8  -8  726.09   17.42   0
   5  -7   0  903.80   18.96   0
   5  -7   3   13.99   10.12   0
   3  -3  -3    2.58    6.77   0
   5  -9 -10  221.76   14.51   0
   5  -7  -3    5.46    9.62   0
   5  -7   6  610.64   16.65   0
   2  -7 -39    1.22   12.04   0
   2  -3 -25   14.03    8.02   0
   2  -2 -11   -3.73    6.89   0
   3  -5 -28  571.00   15.27   0
   4  -7 -25   14.44   11.14   0
   5 -10  -3   -4.30   11.08   0
   5  -8 -11   -7.31   11.13   0
   0  -3 -39   -7.72    9.28   0
   3  -8 -34  262.55   14.82   0
   3  -3  -6  604.92   14.84   0
   4  -5 -15   33.93    8.83   0
   5  -9 -13   12.30   11.69   0
   0  -2 -34  340.19   13.62   0
   1  -7 -43    8.10   11.70   0
   3  -6 -33    2.36   11.30   0
   4  -9 -26  293.45   14.12   0
   4  -8 -27   -3.70   11.06   0
   4  -6 -23   -1.71   10.25   0
   5  -7  -9   -2.28    9.91   0
   1  -5 -42  383.08   15.34   0
   1  -2 -27   -2.21    7.73   0
   2  -4 -33    5.75    8.78   0
   3  -4 -23   49.57    8.54   0
   3  -3  -9   -3.91    7.15   0
   1  -3 -35    0.96    8.92   0
   2  -6 -40  434.21   16.11   0
   4  -7 -28  615.78   17.44   0
   1  -6 -44  307.89   14.95   0
   1  -4 -40  651.63   17.13   0
   2  -5 -38  155.16   12.01   0
   2  -2 -14  389.22   12.85   0
   3  -5 -31    8.52   10.26   0
   4  -5 -18  488.94   14.18   0
   5  -8 -17    1.01   10.76   0
   3  -3 -12 2820.44   28.44   0
   4  -9 -29   10.54   12.05   0
   4  -8 -30  181.83   13.33   0
   4  -6 -26  557.03   16.17   0
   5  -7 -15    5.50    9.74   0
   2  -7 -42  203.95   14.10   0
   5  -9 -19    7.14   11.18   0
   5  -6  -4 1023.53   19.13   0
   5  -6  -1   35.11   10.01   0
   5  -6   2  453.74   14.73   0
   3  -4 -26  878.32   17.14   0
   4  -5 -21    6.42   10.01   0
   5  -8 -20  361.11   14.49   0
   5  -6  -7    0.31    9.60   0
   5  -6   5    1.93    9.18   0
   4  -7 -31    1.03   10.92   0
   4  -4  -1   -6.87    7.72   0
   5  -7 -18  575.52   16.12   0
   2  -4 -36  555.03   15.15   0
   2  -2 -17    0.61    7.02   0
   3  -3 -15    1.22    7.59   0
   4  -4   2 1595.09   23.15   0
   5  -9 -22  188.91   13.47   0
   5  -6   8 1102.90   20.76   0
   1  -5 -45    2.86   11.40   0
   2  -6 -43   -9.06   12.07   0
   4  -8 -33   -0.22   11.52   0
   4  -6 -29    5.23   10.33   0
   4  -4  -7   -0.55    7.73   0
   4  -4   5   -0.80    7.66   0
   5  -8 -23   -2.62   11.48   0
   1  -2 -30  778.68   16.74   0
   2  -5 -41   -6.52   10.71   0
   5  -7 -21   -9.94   10.84   0
   5  -6 -13   32.89    9.86   0
   0  -2 -37   -2.39    8.89   0
   1  -3 -38  493.61   15.07   0
   3  -4 -29   11.59    9.60   0
   4  -5 -24 1263.56   19.77   0
   4  -4 -10  505.58   13.75   0
   5  -9 -25   -4.23   12.18   0
   1  -4 -43   21.17    9.79   0
   2  -3 -31    5.17    8.07   0
   3  -6 -39    5.24   11.42   0
   3  -3 -18 1585.05   21.52   0
   4  -7 -34  319.27   14.40   0
   4  -4   8 1803.51   26.70   0
   5  -8 -26  355.96   15.70   0
   5  -6 -16  892.43   17.55   0
   2  -7 -45    1.78   11.04   0
   2  -2 -20 4081.42   34.66   0
   3  -7 -41   13.26   11.99   0
   4  -4 -13   -2.92    8.22   0
   5  -7 -24  540.27   16.40   0
   6  -9  -6  315.43   14.68   0
   6  -9  -3   12.18   11.39   0
   4  -8 -36  272.88   14.62   0
   4  -6 -32  556.10   16.03   0
   6  -9  -9   -1.96   11.79   0
   0  -1 -29   -1.73    7.21   0
   2  -4 -39   -1.27    9.60   0
   4  -5 -27   13.93    9.72   0
   5  -9 -28  200.76   13.26   0
   5  -6 -19    0.66   10.00   0
   6  -9 -12  250.90   14.09   0
   6  -8  -7    2.43   11.24   0
   6  -8  -4  335.67   14.83   0
   6  -8  -1   -0.43   10.69   0
   3  -3 -21   -0.22    7.86   0
   4  -4 -16 1880.55   22.98   0
   5  -8 -29   -5.10   12.41   0
   6  -8 -10  345.36   15.16   0
   6  -8   2  349.20   15.12   0
   2  -6 -46  203.37   13.92   0
   4  -7 -37   13.22   12.37   0
   5  -7 -27   -7.26   11.45   0
   6  -9 -15   27.56   12.27   0
   1  -2 -33   14.11    8.32   0
   2  -5 -44  413.36   15.02   0
   4  -4  11   -0.19    7.36   0
   5  -6 -22  306.47   13.52   0
   6  -8 -13   10.80   10.91   0
   2  -3 -34  804.25   16.83   0
   2  -2 -23   -4.10    7.17   0
   3  -6 -42  288.13   14.35   0
   4  -6 -35  -16.91   11.22   0
   4  -5 -30  485.30   15.24   0
   4  -4 -19   -7.95    8.25   0
   5  -5  -5    5.99    8.79   0
   5  -5  -2  480.37   14.61   0
   6  -9 -18  202.77   14.07   0
   1  -3 -41   10.68    9.41   0
   3  -7 -44  301.46   14.26   0
   5  -8 -32  379.74   16.41   0
   5  -5   1    1.61    8.76   0
   1  -4 -46  148.68   12.48   0
   3  -3 -24 1381.61   20.15   0
   5  -7 -30  154.23   13.15   0
   5  -6 -25   10.82   11.34   0
   6  -7  -8  971.88   19.46   0
   6  -7  -5   -1.83   10.65   0
   6  -7  -2  525.85   15.97   0
   3  -5 -40  694.42   17.28   0
   4  -4 -22  880.34   17.09   0
   6  -7 -11    0.83   10.88   0
   6  -7   1    2.71    9.74   0
   2  -4 -42  628.14   16.26   0
   5  -5 -14  794.89   16.55   0
   1  -1 -22  498.21   14.41   0
   4  -5 -33   17.68   11.13   0
   6  -9 -24  409.81   15.75   0
   6  -8 -22  176.69   14.22   0
   6  -7   4  397.73   14.90   0
   5  -8 -35   -2.66   11.36   0
   5  -6 -28  692.29   16.87   0
   5  -5 -17    3.06    9.44   0
   2  -1 -21   27.05   11.10   0
   3  -3 -24 1323.63   24.81   0
   5  -4 -30  460.14   20.05   0
   6  -4 -32  539.46   20.81   0
   6   1 -22  263.54   17.89   0
   3  -1 -26  666.89   18.74   0
   5  -2 -32  989.77   23.99   0
   5   0 -28  922.38   22.46   0
   6  -3 -33    7.05   14.12   0
   7  -6 -29   13.35   15.84   0
   8  -1 -27   -9.47   15.31   0
   4  -2 -30  282.89   15.78   0
   6  -6 -27   11.54   14.59   0
   7   0 -26  379.31   19.06   0
   8  -4 -33   -4.82   15.52   0
   8   0 -22  141.32   16.22   0
   3   2 -17   12.96   10.23   0
   6  -5 -31   -8.43   16.17   0
   7  -2 -33    0.97   16.61   0
   4   2 -19   -2.90   12.58   0
   6  -1 -32  595.94   20.72   0
   7  -5 -33   -7.62   17.08   0
   7  -1 -31   -0.03   16.31   0
   8  -6 -31    0.42   16.24   0
   4  -4 -28  831.93   22.60   0
   6  -2 -34  294.82   17.95   0
   8  -3 -34  270.32   19.17   0
   8  -2 -32  371.09   19.55   0
   2   0 -22 2275.54   30.45   0
   4  -1 -31   19.78   14.17   0
   4   0 -29   13.51   12.06   0
   5  -5 -29   -0.95   14.50   0
   2   2 -15    1.01   10.12   0
   5  -1 -33   -6.14   15.32   0
   5   1 -26  367.95   17.49   0
   6   1 -25   -0.48   14.77   0
   2  -3 -19   10.30   10.23   0
   2   1 -20 1712.79   26.88   0
   3  -2 -28 1743.00   27.09   0
   3   0 -27   -0.78   11.52   0
   6  -4 -35  -25.93   15.75   0
   8   0 -25   -3.45   14.39   0
   3  -4 -23   45.04   11.83   0
   5  -4 -33   12.97   15.40   0
   5   0 -31    2.88   13.86   0
   6  -3 -36  528.47   21.19   0
   7  -6 -32  484.89   22.12   0
   7   0 -29    3.19   16.32   0
   8  -5 -35  -13.08   17.17   0
   8  -4 -36  243.09   19.43   0
   3  -3 -27    0.76   11.92   0
   3  -1 -29   21.33   11.61   0
   4   1 -27    2.25   13.26   0
   5  -2 -35   19.43   14.22   0
   5   2 -21   -1.36   13.79   0
   2  -1 -24 2167.35   29.92   0
   3   2 -20  794.73   20.59   0
   4  -2 -33   -5.91   12.72   0
   6  -5 -34  402.95   21.00   0
   7  -2 -36  310.42   18.58   0
   7  -1 -34  286.17   19.72   0
   4   2 -22  499.29   19.21   0
   6  -2 -37    8.54   16.70   0
   6  -1 -35    4.39   14.32   0
   7  -5 -36  472.42   22.38   0
   7   1 -24  387.33   19.47   0
   8  -6 -34  269.24   19.31   0
   8  -2 -35  -21.13   14.52   0
   7  -3 -38  272.16   19.07   0
   4   0 -32  688.30   20.30   0
   5   1 -29   17.07   13.79   0
   6   1 -28  290.47   18.90   0
   2   0 -25   -2.56   10.18   0
   2   2 -18 1374.42   25.83   0
   4  -4 -31    1.42   12.36   0
   4  -1 -34  760.11   20.74   0
   5  -5 -32  743.04   22.92   0
   5  -1 -36  743.59   22.12   0
   2   1 -23   19.12   11.24   0
   3   0 -30  818.10   20.57   0
   4  -5 -27   18.70   12.84   0
   5   0 -34  433.89   18.48   0
   6  -4 -38  209.98   18.74   0
   6  -3 -39  -14.38   17.18   0
   7   0 -32  448.88   19.49   0
   3  -2 -31    7.04   11.91   0
   5   2 -24  732.24   21.84   0
   8  -5 -38  121.69   16.98   0
   3  -1 -32 1586.72   27.20   0
   3   2 -23    9.04   12.13   0
   5  -4 -36  521.03   20.30   0
   7  -6 -35    6.23   17.56   0
   7  -2 -39    5.69   16.15   0
   7  -1 -37    9.26   16.73   0
   7   1 -27    7.62   14.69   0
   2  -3 -22  567.96   19.29   0
   3  -4 -26  897.00   23.27   0
   3   3 -15    3.78   12.32   0
   4  -3 -35   13.04   13.39   0
   4   2 -25   -1.07   13.76   0
   6  -1 -38  236.58   18.57   0
   7  -4 -40  283.33   19.62   0
   2  -1 -27    1.57   10.96   0
   6  -5 -37   -1.90   16.80   0
   6  -2 -40  431.89   20.66   0
   7  -5 -39    3.33   17.81   0
   7  -3 -41   33.19   18.07   0
   8  -6 -37  -13.08   16.67   0
   5   1 -32  628.52   20.99   0
   6   1 -31   -2.42   16.17   0
   4   0 -35    7.70   13.45   0
   1  -1 -19   -5.82    9.40   0
   1   1 -18 1316.24   25.28   0
   2   2 -21   11.75   11.40   0
   5  -1 -39   10.55   14.80   0
   5   0 -37  -10.57   16.13   0
   7   0 -35   -5.94   15.07   0
   1   0 -20 1745.29   28.36   0
   2   0 -28 1362.77   24.61   0
   2   1 -26  626.82   18.34   0
   2   3 -13    1.75   11.18   0
   3   0 -33    1.76   12.78   0
   4  -4 -34  391.00   18.23   0
   5  -5 -35    0.90   15.22   0
   5   2 -27    9.41   15.00   0
   6  -4 -41    1.54   17.81   0
   7   1 -30   87.68   16.54   0
   3  -2 -34  846.43   21.68   0
   3   2 -26  859.94   21.94   0
   4  -5 -30  489.75   20.77   0
   5  -2 -41   25.83   16.43   0
   7  -2 -42  184.53   17.29   0
   7  -1 -40  421.87   21.11   0
   3  -1 -35   -0.64   13.94   0
   3   1 -31    9.66   12.61   0
   3   3 -18  577.28   20.27   0
   4   2 -28  651.92   20.52   0
   5  -4 -39   -3.82   14.63   0
   6  -1 -41   15.57   15.73   0
   7  -4 -43    3.35   17.95   0
   4  -3 -38  232.45   17.66   0
   4  -2 -39    4.99   14.18   0
   6  -2 -43   13.72   17.69   0
   6   1 -34  299.74   18.76   0
   2  -1 -30  841.80   20.83   0
   3  -4 -29    1.01   12.32   0
   3  -3 -33   -5.75   13.17   0
   5   1 -35    3.91   15.36   0
   6  -5 -40  357.04   21.50   0
   7  -5 -42  312.29   21.00   0
   7  -3 -44  291.45   19.20   0
   2  -3 -25   29.32   11.44   0
   4   0 -38  218.27   17.06   0
   7   0 -38   98.16   17.49   0
   1   2 -16 2227.45   33.28   0
   2   2 -24 2287.37   32.26   0
   4  -1 -40  739.50   21.77   0
   5  -1 -42  391.93   20.56   0
   5   0 -40  347.79   19.97   0
   5   2 -30  309.31   18.68   0
   1   1 -21   48.48   10.76   0
   2   0 -31    1.68   12.81   0
   2   3 -16 2126.84   33.48   0
   3   0 -36  756.84   21.91   0
   1  -1 -22  539.42   17.97   0
   1   0 -23    3.65   10.26   0
   2   1 -29   14.40   11.34   0
   3   2 -29    1.28   13.94   0
   3   3 -21   15.67   13.39   0
   4  -4 -37    4.23   14.64   0
   4   2 -31   11.18   14.64   0
   6  -4 -44  451.09   22.12   0
   6  -3 -45    5.23   16.77   0
   7  -2 -45   25.51   17.39   0
   7  -1 -43   -5.18   17.52   0
   3  -2 -37   -0.92   13.27   0
   3   1 -34  734.11   21.01   0
   6  -1 -44  311.77   20.53   0
   3  -1 -38  517.14   19.22   0
   4  -5 -33    0.52   13.98   0
   4  -2 -42  683.47   22.44   0
   5  -4 -42  295.37   19.52   0
   5   1 -38  278.28   19.21   0
   6  -2 -46  221.25   19.99   0
   6   1 -37   -5.22   16.62   0
   7  -4 -46  145.96   19.48   0
   4  -3 -41    8.60   15.33   0
   7  -3 -47   -8.65   17.38   0
   2  -1 -33    8.89   12.17   0
   3  -3 -36 1235.63   25.98   0
   4   0 -41    4.57   15.09   0
   5   2 -33  -16.10   16.11   0
   6  -5 -43   11.65   17.67   0
   7  -5 -45    3.36   17.62   0
   1   2 -19   -2.94    9.81   0
   2   2 -27    5.25   11.56   0
   2   3 -19    6.62   11.61   0
   3  -4 -32 1296.09   27.63   0
   4  -1 -43   17.52   14.79   0
   5  -1 -45  -13.50   16.17   0
   5   0 -43    0.80   16.66   0
   1   1 -24 2122.83   30.40   0
   2  -3 -28 1759.37   29.65   0
   3   0 -39    4.55   15.15   0
   3   2 -32 1042.43   24.92   0
   3   3 -24  866.45   23.07   0
   1   0 -26 1437.49   25.49   0
   2  -4 -21   -0.07   10.80   0
   2   0 -34  354.52   16.44   0
   4   2 -34  304.49   18.11   0
   1  -2 -21   43.55   10.12   0
   1  -1 -25   -1.53   10.33   0
   3   1 -37   12.16   13.25   0
   4  -4 -40  759.58   23.67   0
   5  -2 -47  -22.45   18.11   0
   6  -4 -47    1.30   16.56   0
   6  -1 -47    5.03   17.85   0
   3  -1 -41   26.89   13.77   0
   5  -5 -41    3.13   16.97   0
   5   1 -41    0.38   16.83   0
   6   1 -40  395.08   19.57   0
   1   2 -22  536.70   18.72   0
   2   3 -22  406.23   18.09   0
   4  -2 -45    2.01   15.60   0
   5  -4 -45   15.89   16.28   0
   6  -2 -49   -4.10   16.87   0
   2  -1 -36 1306.46   25.34   0
   2   2 -30  300.91   15.92   0
   4  -3 -44  472.28   21.23   0
   5   2 -36  317.82   19.86   0
   1   1 -27   -1.18   10.98   0
   3  -3 -39   -4.09   15.09   0
   3   3 -27   14.02   13.50   0
   4  -1 -46  179.31   18.90   0
   5  -1 -48  265.80   21.12   0
   5   0 -46  165.32   19.78   0
   6  -5 -46  139.72   19.12   0
   2  -3 -31    8.87   12.61   0
   2   0 -37   -5.49   14.36   0
   2   1 -35    3.48   13.06   0
   3  -4 -35   16.72   13.82   0
   3   0 -42  390.59   19.98   0
   3   2 -35   18.44   13.80   0
   4   2 -37    7.94   16.82   0
   1   0 -29   -4.99   11.36   0
   3   1 -40  645.23   20.82   0
   1  -2 -24 2044.43   32.36   0
   1  -1 -28 1656.80   27.67   0
   2  -4 -24 2207.36   36.84   0
   2   3 -25    9.64   12.58   0
   5  -3 -49  -11.71   16.92   0
   5  -2 -50  381.16   22.02   0
   6  -4 -50  222.94   20.89   0
   6   1 -43   -2.23   16.59   0
   3  -1 -44  528.90   20.27   0
   4  -4 -43   -5.64   16.55   0
   5   1 -44  294.44   19.73   0
   2   2 -33    7.60   12.82   0
   3   3 -30  305.79   18.37   0
   4  -2 -48  509.83   22.36   0
   5  -5 -44  348.07   21.47   0
   5  -4 -48  406.69   22.07   0
   5   2 -39    4.54   16.41   0
   6  -2 -52  245.82   21.01   0
   1   1 -30  776.78   20.50   0
   1   3 -17   -5.87   11.21   0
   2  -1 -39    5.30   13.30   0
   4  -3 -47   10.69   16.51   0
   4   0 -47   -5.30   16.84   0
   2   1 -38  491.74   18.73   0
   3  -3 -42  508.60   21.13   0
   3   2 -38  165.11   16.61   0
   4  -1 -49  -10.62   17.73   0
   4   2 -40  475.48   21.38   0
   4   3 -32  455.15   20.99   0
   5  -1 -51  -20.51   19.21   0
   5   0 -49   -2.24   16.12   0
   1   0 -32 2236.44   31.39   0
   2  -2 -38  386.92   18.58   0
   2   0 -40 1228.23   25.41   0
   3   0 -45   -5.12   15.43   0
   3   1 -43   -1.44   16.23   0
   6  -5 -49  -16.88   17.81   0
   1  -1 -31   -5.97   11.44   0
   2  -3 -34  872.70   22.64   0
   2   3 -28  551.50   19.50   0
   3  -4 -38  266.74   18.02   0
   1  -2 -27   -6.35   10.57   0
   1   3 -20 1062.88   25.05   0
   2  -4 -27   -0.32   12.60   0
   5  -3 -52  274.86   21.31   0
   5   1 -47  -14.14   18.02   0
   3  -1 -47  -15.64   15.74   0
   3   3 -33    3.66   15.34   0
   4  -4 -46  290.90   20.99   0
   5  -2 -53    7.01   16.44   0
   5   2 -42  194.81   18.52   0
   6  -4 -53   -3.47   18.03   0
   1   1 -33   -0.06   12.55   0
   4  -2 -51   -6.63   17.53   0
   4   0 -50  290.51   21.09   0
   4   3 -35   10.40   15.94   0
   2  -1 -42  520.50   19.29   0
   2   1 -41   10.95   15.81   0
   3   2 -41   -2.63   15.30   0
   4   2 -43   17.04   17.38   0
   5  -4 -51    6.90   18.03   0
   0   1 -19    3.00   10.32   0
   1   0 -35    9.05   12.74   0
   1   3 -23   27.44   12.79   0
   2   3 -31   -8.67   12.67   0
   3  -3 -45    4.13   16.53   0
   3   0 -48  592.10   23.04   0
   4  -3 -50  354.99   20.97   0
   4  -1 -52  392.99   22.60   0
   5  -1 -54   95.31   20.04   0
   5   0 -52  387.64   21.26   0
   1  -1 -34 1288.68   25.51   0
   2  -3 -37    6.75   14.29   0
   2  -2 -41   10.78   13.54   0
   3   1 -46  181.43   18.40   0
   1  -2 -30  799.06   21.21   0
   3  -4 -41   -1.72   14.79   0
   3   3 -36  507.99   21.03   0
   1   1 -36 1246.59   25.81   0
   2  -4 -30  282.06   17.65   0
   5  -3 -55    1.09   18.46   0
   5   1 -50  185.53   18.13   0
   0   0 -21    3.71   10.54   0
   0   1 -22  552.05   18.52   0
   1   3 -26  870.82   22.66   0
   3  -1 -50  307.42   20.02   0
   4   3 -38  245.05   19.45   0
   5  -2 -56  212.45   19.76   0
   2  -1 -45    6.81   14.82   0
   2   1 -44  496.55   21.25   0
   2   3 -34  635.98   20.95   0
   4  -4 -49    8.28   17.24   0
   4   0 -53    6.59   16.44   0
   4   2 -46  191.51   19.71   0
   1   0 -38  358.52   17.73   0
   2   0 -46  489.20   21.59   0
   1  -3 -23    6.06   10.74   0
   1  -2 -33   16.77   12.82   0
   1  -1 -37    8.79   12.62   0
   3  -3 -48  349.53   21.28   0
   3   0 -51    2.11   17.06   0
   3   1 -49   -4.96   16.81   0
   3   3 -39  -15.78   16.32   0
   4  -3 -53   12.44   17.14   0
   4  -1 -55   -4.54   16.82   0
   5  -4 -54  147.65   18.86   0
   0   0 -24 5761.89   50.39   0
   0   1 -25   -2.74   11.29   0
   1   3 -29   -0.80   13.12   0
   2  -3 -40  666.60   22.71   0
   1   1 -39  -11.19   13.83   0
   3  -4 -44  482.48   21.22   0
   4   3 -41    0.30   16.90   0
   0   2 -23    1.39   10.68   0
   1   2 -37  -12.32   14.71   0
   2  -4 -33   -0.13   13.41   0
   2   3 -37   15.21   13.95   0
   3  -1 -53   -4.97   18.74   0
   3   2 -47    8.37   17.65   0
   0   0 -27    4.84   12.25   0
   1  -3 -26  635.43   22.01   0
   1   0 -41    4.83   13.26   0
   2  -1 -48  580.42   21.21   0
   2   1 -47    1.23   15.68   0
   4   2 -49   -9.41   17.36   0
   5  -3 -58  248.84   19.14   0
   0   1 -28 1673.28   27.83   0
   1  -1 -40 1059.45   25.13   0
   1   3 -32 1254.57   27.02   0
   4  -4 -52  300.46   21.48   0
   4   0 -56  188.94   18.98   0
   0   2 -26 1476.58   26.98   0
   1  -2 -36 1303.69   26.36   0
   2  -2 -47   10.06   16.54   0
   3   0 -54  200.48   20.78   0
   3   3 -42  277.84   19.93   0
   1   1 -42  493.36   19.95   0
   2  -3 -43   16.07   15.26   0
   3  -3 -51   13.22   17.47   0
   4  -3 -56  326.26   21.70   0
   4  -1 -58  264.78   20.04   0
   0   0 -30  193.73   14.44   0
   0   1 -31    6.63   11.58   0
   1   2 -40  631.52   22.28   0
   2   3 -40  723.03   22.94   0
   0   2 -29  -10.47   12.78   0
   1  -3 -29   18.33   12.14   0
   2  -4 -36  565.18   21.90   0
   3  -4 -47   19.89   16.08   0
   3   2 -50  337.09   21.25   0
   0   3 -15   -0.35   11.62   0
   1   0 -44  658.71   21.46   0
   1   3 -35   11.45   13.77   0
   2  -1 -51   -2.65   17.54   0
   2   1 -50  342.37   20.58   0
   3  -2 -55   -8.78   18.53   0
   3  -1 -56  419.74   21.89   0
   4   2 -52  248.09   20.13   0
   0   3 -18 1523.08   29.99   0
   1  -2 -39    9.67   14.43   0
   2   0 -52  313.54   21.25   0
   3   3 -45   17.87   17.41   0
   4   0 -59  -15.19   18.32   0
   0   0 -33    3.33   11.82   0
   0   1 -34 1255.12   24.97   0
   0   3 -21   -1.79   11.87   0
   1   1 -45   -3.05   14.50   0
   3   1 -55   10.86   19.38   0
   4  -4 -55  -17.23   18.74   0
   0   2 -32  782.25   21.50   0
   1   2 -43    4.94   14.34   0
   2  -3 -46  251.39   19.21   0
   2  -2 -50  320.51   20.25   0
   2   3 -43   17.25   15.77   0
   3   0 -57   15.51   16.89   0
   0   3 -24 1367.55   27.02   0
   1  -3 -32 1558.21   30.33   0
   1   3 -38  269.88   17.85   0
   3  -3 -54  202.40   20.44   0
   4  -3 -59   -7.42   18.82   0
   4  -1 -61    1.46   16.97   0
   1   0 -47    4.31   15.56   0
   1   4 -27    8.33   15.08   0
   2  -4 -39   10.98   14.15   0
   2   1 -53  -23.60   18.54   0
   2   4 -35    2.19   17.11   0
   3   2 -53   11.39   18.78   0
   0   0 -36  797.16   21.47   0
   0   1 -37    4.23   13.22   0
   0   3 -27   -8.96   12.89   0
   1  -2 -42  460.37   20.55   0
   2  -1 -54  213.22   20.59   0
   3  -1 -59   33.18   19.27   0
   3   3 -48  284.33   21.03   0
   0   2 -35   -8.22   12.84   0
   1   1 -48  533.60   22.60   0
   2   0 -55   -0.16   19.13   0
   3  -2 -58  248.20   20.31   0
   1  -3 -35    2.18   13.16   0
   1   2 -46  236.23   18.50   0
   1   3 -41   11.61   15.95   0
   1   4 -30  458.61   20.51   0
   2   3 -46   97.51   17.58   0
   3   1 -58  253.74   21.28   0
   0   3 -30  439.79   18.23   0
   2  -3 -49    5.05   17.26   0
   2  -2 -53    6.63   16.88   0
   2   4 -38  196.05   20.10   0
   3   0 -60  240.01   19.89   0
   0   0 -39    4.85   14.63   0
   0   1 -40 1055.50   25.40   0
   0   2 -38  375.15   19.23   0
   1   0 -50  516.02   21.18   0
   4  -4 -58  145.97   19.73   0
   1  -2 -45   -5.26   16.57   0
   1   4 -33    8.33   14.96   0
   3  -3 -57   -1.42   16.68   0
   3   2 -56  185.39   20.55   0
   0   3 -33   -5.78   13.06   0
   1   1 -51   -1.14   17.73   0
   1   3 -44  466.50   21.69   0
   2  -1 -57    4.08   19.35   0
   3   3 -51   11.34   17.28   0
   1  -3 -38  501.33   21.02   0
   1   2 -49  -26.79   16.95   0
   2   0 -58  183.06   21.63   0
   2   3 -49   12.23   16.61   0
   3  -2 -61   12.39   19.55   0
   3  -1 -62  111.65   18.98   0
   0   1 -43   -9.53   15.90   0
   0   2 -41   -7.15   14.93   0
   1   4 -36  497.66   21.16   0
   2   4 -41   11.96   16.44   0
   0  -2 -22 2227.22   36.77   0
   0   0 -42 1207.80   25.76   0
   0   3 -36 1174.68   25.85   0
   1   0 -53  -10.94   17.96   0
   2  -3 -52  554.84   24.06   0
   2  -2 -56  202.38   19.72   0
   3   1 -61   -6.32   16.66   0
   0  -2 -25   -1.16   10.24   0
   0  -2 -28 1349.22   28.21   0
   1  -3 -41   11.05   14.61   0
   1  -2 -48  562.90   21.81   0
   1   3 -47   -2.46   16.19   0
   2   1 -59    1.11   17.13   0
   3  -3 -60  416.35   23.30   0
   0   2 -44 1166.74   26.52   0
   0   3 -39   11.54   14.18   0
   1   1 -54  237.36   19.72   0
   1   2 -52  528.71   22.89   0
   1   4 -39   -0.80   16.22   0
   2   3 -52  276.32   19.83   0
   0  -2 -31    6.19   12.93   0
   0   0 -45    8.78   14.90   0
   0   1 -46  181.33   17.73   0
   0   4 -25   -3.42   12.83   0
   0   4 -22  890.16   25.08   0
   0   4 -19   -2.06   13.52   0
   2   0 -61  -13.29   19.66   0
   0   4 -28  826.77   23.97   0
  -1   1 -26 1426.46   26.92   0
  -1   1 -23    9.56   11.45   0
  -1   2 -24 2126.82   32.49   0
   1   0 -56  442.42   22.36   0
   1   3 -50  333.64   21.82   0
   1   4 -42  296.01   20.25   0
   2  -3 -55   -4.66   18.08   0
   2  -2 -59   -9.46   18.66   0
  -1   1 -29   -4.15   13.20   0
  -1   1 -20 1721.78   30.33   0
  -1   2 -27    0.40   12.09   0
  -1   2 -21   43.19   11.83   0
   0  -2 -34  344.72   18.68   0
   0   2 -47   -5.74   15.32   0
   0   4 -31    0.69   14.26   0
   1  -3 -44  527.61   21.95   0
   1  -2 -51  -14.81   15.91   0
   2   4 -47    8.96   18.87   0
  -1   2 -30  823.77   22.18   0
  -1   2 -18 1370.79   27.80   0
   0  -1 -44  665.92   22.25   0
   0   0 -48  784.00   23.99   0
   0   1 -49   -6.62   16.51   0
   1   1 -57   -3.90   17.81   0
   1   2 -55    2.54   17.81   0
   2   1 -62  136.35   18.55   0
   2   3 -55   -4.28   17.96   0
   0   4 -34  423.06   20.28   0
  -1   2 -33    3.59   13.44   0
   0  -2 -37    8.91   14.26   0
   1   4 -45    2.13   17.46   0
   2   0 -64  325.43   22.28   0
  -1   1 -35  -13.30   13.50   0
   0   4 -37   -3.70   15.61   0
   1   0 -59   15.93   19.12   0
   1   3 -53   22.91   18.95   0
  -1   0 -28 1675.27   29.10   0
  -1   0 -25    7.08   11.43   0
  -1   0 -22  545.91   18.92   0
  -1   2 -36 1278.49   26.21   0
  -1   3 -25   26.14   12.68   0
   0  -1 -47  -12.01   15.35   0
   0   0 -51   -5.95   17.43   0
   0   1 -52  588.21   23.88   0
   1  -3 -47    1.20   16.23   0
   1  -2 -54  242.97   20.84   0
   1  -1 -58  292.18   22.23   0
   2  -2 -62  177.79   21.03   0
   2   4 -50  183.32   19.38   0
  -1   0 -31    2.94   12.40   0
  -1   1 -38  371.92   19.37   0
  -1   3 -22  553.66   19.22   0
   0  -2 -40 1226.37   27.58   0
   1   1 -60  335.21   22.60   0
   1   2 -58  240.28   19.83   0
   2  -3 -58  237.11   19.49   0
  -1   0 -19    3.47   10.77   0
  -1   2 -39   -1.52   15.45   0
   0   4 -40  755.57   24.35   0
   1   4 -48  423.54   22.51   0
  -1   3 -19    6.10   10.68   0
  -1   1 -41    2.11   14.82   0
   0  -1 -50  493.38   22.41   0
   0   2 -53  -11.56   16.81   0
   1   3 -56  278.88   20.90   0
  -1   0 -37  -16.93   13.67   0
  -1   2 -42  460.07   20.44   0
   0  -2 -43   23.58   13.95   0
   0   0 -54   47.55   18.01   0
   0   1 -55    9.29   17.81   0
   0   4 -43    0.22   16.17   0
   1  -3 -50  300.44   20.98   0
   1  -2 -57  -14.19   18.06   0
   1   0 -62   96.79   19.00   0
  -1   3 -16 2178.60   35.70   0
   1  -1 -61    0.78   16.79   0
   1   2 -61    5.43   18.50   0
   2  -2 -65   -4.77   18.60   0
  -1   0 -40 1070.80   25.22   0
  -1   1 -44  653.30   22.30   0
   1   1 -63    3.41   16.78   0
   1   4 -51    3.99   16.11   0
   2  -3 -61    3.72   18.03   0
  -1   2 -45   33.93   15.69   0
   0  -2 -46  487.96   21.87   0
   0  -1 -53   25.46   18.29   0
   0   2 -56  216.03   19.32   0
   0   4 -46  262.33   20.46   0
   0   1 -58  327.23   22.98   0
   1   3 -59    6.86   18.35   0
  -1   0 -43    7.20   14.62   0
  -1   1 -47    0.30   15.17   0
  -1   3 -43    6.53   15.48   0
   0   0 -57    7.46   16.88   0
   1  -3 -53    6.69   17.57   0
   1   0 -65   11.86   18.91   0
  -1  -1 -30  758.92   22.27   0
  -1  -1 -27    3.09   12.46   0
  -1   2 -48  593.87   21.62   0
  -1   4 -32 1280.02   27.92   0
  -1   4 -29   14.39   12.85   0
  -1   4 -26  868.69   24.26   0
   1  -2 -60  320.69   22.49   0
   1   4 -54  129.12   18.81   0
  -1  -1 -33   12.05   12.59   0
  -1   3 -46  246.56   19.67   0
  -1   4 -35   -2.25   15.62   0
  -1   4 -23   38.74   13.35   0
   0  -2 -49   -8.84   16.37   0
   0   4 -49  -20.23   16.41   0
   1  -1 -64  176.08   19.61   0
  -1  -1 -36 1248.86   27.24   0
  -1  -1 -24 1952.37   32.32   0
  -1   0 -46  179.37   17.78   0
  -1   4 -38  246.17   19.68   0
   0  -1 -56  418.40   22.86   0
   0   2 -59   10.64   17.17   0
  -1   1 -50  501.17   21.10   0
   0  -3 -33   -0.52   13.89   0
   0  -3 -30  772.67   24.55   0
   0  -3 -27   -0.75   12.41   0
   0   0 -60  387.73   23.33   0
  -1  -1 -39   -0.39   13.64   0
  -1  -1 -21   39.07   12.42   0
  -1   2 -51    6.67   16.15   0
  -1   4 -41    7.36   16.42   0
  -1   4 -20 1089.66   26.44   0
   0   4 -52  267.19   20.58   0
   1  -3 -56  389.18   21.96   0
  -1   3 -49  -15.81   16.47   0
   0  -2 -52  309.11   21.41   0
   1  -2 -63   14.44   18.75   0
  -1  -1 -42  509.49   21.72   0
  -1   1 -53   28.66   15.80   0
   0   2 -62  184.62   21.12   0
  -1   2 -54  201.16   21.13   0
  -1   4 -44  493.21   21.83   0
   0  -3 -39    3.02   14.16   0
   0  -1 -59   -2.65   17.39   0
  -1   3 -52  565.85   23.14   0
  -1   4 -17    1.14   12.00   0
   0   4 -55   13.23   17.34   0
  -2   2 -31  -12.47   13.79   0
  -1  -1 -45   15.14   14.69   0
  -1   4 -47   -0.90   16.80   0
   0  -3 -42  380.71   19.93   0
   0   5 -44  350.18   21.07   0
  -2   2 -37   -2.77   15.12   0
  -2   2 -34  365.80   17.62   0
  -2   2 -28 1402.41   26.66   0
  -1   1 -56  418.62   22.39   0
   0  -2 -55   -2.98   16.19   0
  -2   2 -25    3.45   12.96   0
  -2   3 -32 1582.84   28.82   0
  -1  -1 -48  559.03   23.12   0
  -1   2 -57    4.76   17.07   0
  -1   3 -55    4.37   18.76   0
   0   2 -65    7.23   18.72   0
  -2   1 -36 1300.59   27.15   0
  -2   1 -33    1.02   13.39   0
  -2   1 -30  818.34   22.05   0
  -2   2 -40 1225.23   26.18   0
  -2   3 -38  502.37   21.07   0
  -2   3 -35   11.99   13.35   0
  -2   3 -29   16.85   12.96   0
  -1   4 -50  353.81   22.01   0
   0  -3 -45   -5.05   14.95   0
   0  -1 -62  122.51   18.60   0
  -2   1 -39   12.40   15.41   0
  -2   1 -27   -4.43   11.85   0
  -2   2 -43    8.22   14.63   0
  -2   3 -26  643.31   20.40   0
   0   4 -58  148.51   17.84   0
  -2   2 -22 2356.95   33.52   0
  -2   3 -41   18.10   14.94   0
  -1   1 -59    8.45   17.64   0
  -1   5 -36  480.30   21.15   0
  -1   5 -33    1.11   14.97   0
  -1   5 -30  450.17   20.50   0
   0  -2 -58  174.89   20.14   0
  -2   1 -42  483.87   20.64   0
  -2   1 -24 2149.81   31.94   0
  -2   2 -46  493.23   20.76   0
  -2   3 -44  556.37   22.28   0
  -1  -1 -51    7.99   16.22   0
  -1   2 -60  323.95   20.50   0
  -1   3 -58  226.98   21.45   0
  -1   4 -53   -8.39   17.92   0
  -1   5 -39    9.09   15.33   0
  -1   5 -27   18.11   14.93   0
  -1   5 -42  332.25   20.22   0
  -2   1 -45  -13.10   15.03   0
  -2   3 -47    0.23   17.24   0
  -2   4 -36  588.23   21.63   0
  -2   4 -33    5.05   14.40   0
  -1  -2 -35    0.66   13.64   0
  -1  -2 -32 1559.50   29.98   0
   0  -1 -65  -19.53   17.65   0
  -2   2 -49   -7.01   15.80   0
  -2   2 -19    3.21   11.12   0
  -2   4 -39    9.19   14.64   0
  -2   4 -30  297.05   16.88   0
  -1  -2 -38  504.57   20.80   0
  -1  -2 -29   13.64   12.40   0
  -1  -1 -54  238.38   20.36   0
  -1   1 -62  103.27   20.32   0
  -1   5 -45   15.44   16.90   0
  -2   1 -48  553.27   21.79   0
  -2   1 -21   34.71   12.19   0
  -2   4 -42  646.95   22.96   0
  -2   4 -27    3.94   13.24   0
  -1  -2 -41   -8.88   14.97   0
  -1   2 -63   -0.01   18.86   0
  -1   3 -61   -2.47   18.56   0
  -1   4 -56  277.63   19.72   0
   0  -2 -61    7.18   17.51   0
  -2   2 -52  341.58   21.41   0
  -2   3 -50  309.57   19.85   0
  -1   0 -61   -6.05   18.72   0
  -2   1 -51  -22.70   17.61   0
  -2   4 -45    0.72   15.97   0
  -1  -2 -44  532.18   21.70   0
  -1  -2 -26  656.75   21.60   0
  -1   5 -48  419.28   21.71   0
  -2   3 -53   12.02   18.14   0
  -2   4 -24 2311.60   33.81   0
  -1  -1 -57  -13.74   16.71   0
  -2   2 -55   -7.57   18.52   0
  -1  -2 -47   -3.28   15.78   0
  -1   1 -65    2.64   17.31   0
  -1   4 -59  -17.20   15.62   0
  -1   5 -51   10.31   16.77   0
  -2   1 -54  240.21   20.85   0
  -2   1 -18 1319.44   26.62   0
  -2   2 -16 3316.07   40.23   0
   0  -2 -64  330.93   20.92   0
  -2   3 -56  407.65   22.47   0
  -2   4 -21   -1.04   12.28   0
  -1  -2 -23   11.19   11.54   0
  -1   0 -64  201.87   19.00   0
  -2   0 -50  324.01   19.62   0
  -2   0 -23   -1.96   10.94   0
  -2   2 -58  175.91   20.44   0
  -1  -2 -50  299.96   20.24   0
  -1  -1 -60  358.79   21.90   0
  -1   5 -54  136.50   18.50   0
  -2   1 -57  -19.74   18.65   0
  -2   5 -37   20.74   15.51   0
  -2   5 -34  632.83   22.49   0
  -2   5 -43   16.27   16.70   0
  -2   5 -40  737.82   22.76   0
  -2   5 -31    7.85   14.17   0
  -2   0 -53   -2.34   16.56   0
  -2   3 -59   -8.32   16.93   0
  -1  -2 -53   -7.43   16.59   0
  -2   0 -20 3924.46   43.22   0
  -2   2 -61   -2.96   16.28   0
  -2   5 -46  110.07   18.45   0
  -2   5 -28  585.41   21.21   0
  -1  -1 -63    6.38   17.49   0
  -3   3 -39    7.63   13.92   0
  -3   3 -36  800.28   21.93   0
  -2  -1 -40  689.58   21.51   0
  -2  -1 -37    2.21   13.05   0
  -2  -1 -34  853.99   22.96   0
  -2   1 -60  317.47   20.24   0
  -2   1 -15    9.26   10.81   0
  -2   4 -18 1331.74   27.06   0
  -3   2 -41   15.28   14.98   0
  -3   2 -38  532.81   19.50   0
  -3   2 -35   18.22   13.97   0
  -3   3 -42  372.40   19.36   0
  -3   3 -33   -0.80   13.58   0
  -2  -1 -43   17.53   13.88   0
  -2  -1 -31    3.42   13.02   0
  -2   0 -56  176.01   18.24   0
  -2   2 -13    2.18   10.42   0
  -2   3 -62  124.63   19.57   0
  -2   5 -49    1.28   15.61   0
  -1  -2 -56  374.76   21.06   0
  -3   2 -32 1651.78   27.96   0
  -3   3 -45    4.87   14.96   0
  -3   3 -30  764.27   21.36   0
  -2  -1 -46  241.77   18.31   0
  -2   5 -25   -3.05   12.69   0
  -3   2 -47    3.70   15.72   0
  -3   2 -29   24.83   13.68   0
  -3   3 -48  596.50   22.06   0
  -2   1 -63   -7.34   17.79   0
  -2   2 -64  291.81   20.18   0
  -2   5 -52  296.01   20.15   0
  -3   3 -27   -9.23   13.40   0
  -2  -1 -49   -1.38   16.69   0
  -2  -1 -28 1685.37   28.85   0
  -2   0 -59  -16.22   16.36   0
  -3   1 -40  677.15   21.45   0
  -3   1 -37   29.53   13.81   0
  -3   2 -50  280.24   19.30   0
  -3   3 -51   16.10   16.74   0
  -9   3   3    7.22   13.72   0
  -9   3  12  274.76   16.88   0
  -8   4 -27   12.82   14.83   0
  -7   2 -15  -13.45   13.30   0
  -6   2 -23   -3.89   13.61   0
  -9   3   0  531.10   19.19   0
  -8   2   8  716.41   20.78   0
  -6   1 -10  667.06   19.38   0
  -5   1 -18  502.88   17.78   0
  -4   0  -7  -12.75   11.15   0
  -9   3  -3    9.78   13.76   0
  -9   3  15    2.38   13.01   0
  -8   2  11   -4.31   13.22   0
  -6   1  23   -2.01   11.91   0
  -5   2 -28  605.17   19.65   0
  -4   0  20 1513.68   26.63   0
  -4   2 -30  281.28   15.62   0
  -3   0 -12 2763.88   32.65   0
  -9   3  18  341.53   17.34   0
  -8   2  -1   19.22   13.87   0
  -8   2  14  206.54   16.21   0
  -9   3  -6  308.82   16.66   0
  -8   2  -4  345.66   18.19   0
  -7   2 -18  626.06   19.34   0
  -4   1 -23   41.69   10.95   0
  -8   2  17    0.01   13.60   0
  -7   3 -28  615.13   19.88   0
  -6   1 -13   41.43   11.97   0
  -5   0   4 1375.71   23.35   0
  -5   0  10  845.16   20.00   0
  -4   0 -10  532.04   16.55   0
  -9   3  -9   13.99   13.87   0
  -9   3  21    6.05   12.92   0
  -9   4 -22  193.01   16.87   0
  -9   5 -29    8.39   14.93   0
  -8   2  -7   11.22   13.53   0
  -6   2 -26  524.68   18.68   0
  -5   0   1    1.68   10.88   0
  -3   1 -25   21.74   10.16   0
  -8   2  20  276.44   16.30   0
  -8   4 -30  203.69   16.77   0
  -7   1   1   11.16   13.73   0
  -7   1  10  356.13   16.78   0
  -6   3 -33   16.39   13.43   0
  -5   0  -2  521.25   16.72   0
  -5   0  13    7.66   10.17   0
  -4   0  23    2.90   10.41   0
  -9   3 -12  242.84   17.74   0
  -8   2 -10  347.51   17.88   0
  -8   3 -23    9.51   13.99   0
  -7   1  -2  511.49   18.70   0
  -7   1  13   -0.25   12.84   0
  -6   1 -16  910.47   21.49   0
  -3   0 -15    3.42    9.17   0
  -5   0  -5   17.07   11.06   0
  -5   0  16  890.16   20.84   0
  -4   0 -13   -6.26   10.34   0
  -7   1  -5    8.01   13.28   0
  -7   1  16  913.47   21.67   0
  -5   2 -31    6.40   12.50   0
  -9   3 -15   35.80   15.32   0
  -9   4 -25    9.51   14.13   0
  -8   2 -13   -1.20   13.52   0
  -7   3 -31    5.99   14.15   0
  -5   0  -8 1239.22   22.21   0
  -7   1  -8  966.37   21.75   0
  -7   1  19   20.87   13.06   0
  -5   0  19   -3.35   10.97   0
  -4   1 -26  904.67   20.84   0
  -8   3 -26  345.14   18.30   0
  -7   2 -24  507.34   19.04   0
  -6   1 -19   10.58   12.41   0
  -6   2 -29   -7.32   13.56   0
  -5   1 -24 1264.04   23.63   0
  -4   2 -33    1.10   11.24   0
  -8   2 -16  649.95   21.02   0
  -8   4 -33   10.84   14.07   0
  -7   1 -11   23.08   13.96   0
  -5   0 -11   -4.39   10.79   0
  -4   0 -16 1923.74   26.96   0
  -2   0 -17    4.69    8.89   0
  -9   3 -18  185.51   15.75   0
  -9   4 -28  199.92   15.92   0
  -7   1  22  253.79   16.00   0
  -5   0  22  366.54   15.91   0
  -9   2   7  -19.60   13.74   0
  -7   1 -14  204.40   16.17   0
  -6   0   0 1155.89   22.26   0
  -6   0   9   15.57   11.32   0
  -3   1 -28 1720.57   28.75   0
  -9   2  -2  170.16   16.40   0
  -9   2   1    5.33   13.10   0
  -9   2  10  292.74   16.84   0
  -8   2 -19  -20.31   13.94   0
  -8   3 -29   -0.74   14.34   0
  -7   2 -27   11.43   14.70   0
  -6   0  -3  -12.90   12.02   0
  -6   0  12  543.06   18.46   0
  -5   0 -14  814.79   19.25   0
  -9   2  13    0.31   13.76   0
  -7   3 -34  294.59   17.77   0
  -5   1 -27    7.39   12.24   0
  -3  -1   4 1395.20   23.77   0
  -9   2  -5   12.70   13.42   0
  -6   0  -6  365.93   15.60   0
  -6   0  15    3.44   12.04   0
  -6   2 -32  587.14   19.96   0
  -4   1 -29    2.94   11.36   0
  -3  -1   1   63.83   10.03   0
  -9   2  -8  442.87   18.62   0
  -9   2  16  295.94   16.31   0
  -8   1   0  591.44   19.35   0
  -8   1   6  200.19   16.02   0
  -7   1 -17    1.34   13.34   0
  -3  -1  -2  939.71   19.69   0
  -3  -1  10 1242.83   23.16   0
  -3   0 -21    2.87   10.00   0
  -2  -1   2  717.63   18.39   0
  -8   1  -3    3.75   14.51   0
  -8   1   9    6.58   12.51   0
  -6   0  -9    6.22   11.86   0
  -6   1 -25    8.65   13.71   0
  -5   0 -17    0.26   11.03   0
  -2  -1  -1   72.77   10.07   0
  -9   2 -11    2.10   14.61   0
  -9   3 -24  436.52   17.21   0
  -8   1  12  343.41   16.13   0
  -6   0  18  393.33   15.47   0
  -4  -1   3    1.23   10.49   0
  -3  -1  -5   19.11    9.56   0
  -3  -1  13   23.71    9.56   0
  -9   2  19    2.04   13.21   0
  -8   1  -6  344.39   16.58   0
  -8   1  15   -9.98   13.12   0
  -7   1 -20  416.62   18.17   0
  -7   2 -30  143.23   15.56   0
  -6   0 -12  668.78   18.43   0
  -4  -1   0 1745.72   25.17   0
  -2  -1  -4 3249.45   35.23   0
  -8   1  -9   10.18   14.71   0
  -8   3 -32  393.97   18.59   0
  -4  -1  -3   47.14   11.11   0
  -4  -1   9   49.02   10.37   0
  -9   2 -14  237.26   15.60   0
  -8   2 -25   -5.94   14.53   0
  -6   0  21   -7.13   11.75   0
  -5   0 -20  970.25   20.92   0
  -5   1 -30  483.86   18.09   0
  -3  -1  -8 3128.14   32.52   0
  -8   1  18  364.54   16.72   0
  -6   0 -15    7.30   12.00   0
  -4  -1  -6 1112.17   20.92   0
  -3  -1  16 2352.60   31.58   0
  -2  -1  -7   -0.11    7.98   0
  -9   3 -27   18.47   12.81   0
  -8   1 -12  312.91   16.46   0
  -7   0  -1    2.15   13.29   0
  -7   0   5   -7.99   13.79   0
  -6   1 -28  682.94   20.04   0
  -6   2 -35    5.42   12.63   0
  -3   1 -31    8.96   10.68   0
  -9   2 -17  -17.20   13.57   0
  -7   0  -4  326.76   16.83   0
  -7   0   8  874.83   20.86   0
  -4  -1  -9   14.27   11.41   0
  -4  -1  15    3.91   10.11   0
  -4   1 -32 1301.87   25.01   0
  -3  -1 -11   54.53   10.56   0
  -3   0 -24 1304.58   22.96   0
  -8   1 -15    3.82   14.59   0
  -7   0  11   -2.04   12.06   0
  -5  -1   2  451.50   16.58   0
  -8   2 -28  282.69   17.45   0
  -8   3 -35    6.62   15.08   0
  -7   0  -7   -7.60   13.28   0
  -7   2 -33   -6.48   13.53   0
  -6   0 -18  597.48   18.40   0
  -5  -1  -1   20.96   11.70   0
  -5  -1   8 1030.62   21.17   0
  -4   0 -25    2.34   10.31   0
  -2  -1 -10 2221.52   28.71   0
  -9   2 -20  274.94   16.54   0
  -7   0  14  230.86   14.54   0
  -5  -1  -4 1031.40   20.92   0
  -4  -1 -12 1154.34   21.04   0
  -3  -1  19   28.53    9.78   0
  -8   1 -18  220.26   16.76   0
  -7   0 -10  345.34   16.51   0
  -7   1 -26  480.05   18.41   0
  -5  -1  -7   -2.01   12.34   0
  -5  -1  11   17.34   10.62   0
  -4  -1  18  920.94   20.68   0
  -3  -1 -14  856.44   18.71   0
  -2   0 -23   -3.95    8.64   0
  -7   0  17    3.92   12.20   0
  -6   1 -31    0.08   13.10   0
  -5   1 -33    3.66   12.72   0
  -7   0 -13    9.42   12.76   0
  -6   0 -21    4.36   11.79   0
  -5  -1  14  572.35   17.80   0
  -9   1   2  208.59   14.17   0
  -9   1   5    0.74   12.28   0
  -9   1   8  276.80   15.96   0
  -5   0 -26  334.60   16.13   0
  -4  -1 -15   39.64   10.99   0
  -2  -1 -13   52.73    9.20   0
  -9   1  -4  367.12   16.20   0
  -8   1 -21  -10.16   13.10   0
  -8   2 -31   -0.88   13.99   0
  -7   0  20  285.83   16.59   0
  -3   0 -27   -1.00    9.93   0
  -9   1  -7   -0.84   13.07   0
  -9   1  11   -8.29   13.34   0
  -7   0 -16  798.67   20.48   0
  -7   1 -29  -12.84   13.79   0
  -7   2 -36  445.05   18.57   0
  -5  -1 -13   30.87   11.84   0
  -5  -1  17   16.88   10.97   0
  -4  -1  21   24.08   10.48   0
  -3  -1 -17  -12.14    9.50   0
  -9   1 -10  173.07   15.80   0
  -6  -1  -2  504.56   17.90   0
  -4   1 -35   11.88   11.48   0
  -6  -1  -5   10.72   11.98   0
  -6  -1   7    8.78   11.99   0
  -4  -1 -18  529.52   15.95   0
  -3  -1  22  393.46   16.28   0
  -8   0  -2  151.11   14.28   0
  -8   0   4  385.64   16.52   0
  -8   0   7    2.74   13.47   0
  -7   0 -19   10.27   13.34   0
  -6  -1  10  339.93   15.54   0
  -6   1 -34  393.97   17.63   0
  -5  -1 -16  882.99   20.10   0
  -2  -1 -16 2203.66   28.26   0
  -8   0  -5    1.07   12.79   0
  -8   0  10  288.75   16.29   0
  -6  -1  -8  935.55   20.44   0
  -5  -1  20  673.43   18.87   0
  -5   0 -29   12.08   13.00   0
  -5   1 -36  527.37   19.00   0
  -8   0  -8  441.33   16.72   0
  -6  -1 -11    6.16   13.39   0
  -6  -1  13    8.95   10.96   0
  -2   0 -26 1446.96   26.09   0
  -8   0  13    0.03   12.78   0
  -7   0 -22  212.44   16.12   0
  -7   1 -32  469.59   18.67   0
  -6   0 -27   -2.50   13.06   0
  -5  -1 -19    4.53   12.69   0
  -4  -1 -21   15.35   10.75   0
  -8   0 -11    5.48   13.05   0
  -8   1 -27   15.48   14.08   0
  -6  -1  16  935.12   21.24   0
  -4   0 -31   -2.35   11.17   0
  -3   0 -30  406.05   15.48   0
  -6  -1 -14  216.58   14.84   0
  -8   0 -14  295.13   15.91   0
  -8   0  16  264.26   15.25   0
  -6  -1 -17   19.27   13.52   0
  -6   1 -37    2.56   13.63   0
  -5  -1 -22  314.58   16.26   0
  -5   0 -32  754.51   20.49   0
  -3  -2  -1    2.42    9.38   0
  -3  -2   2  977.38   19.29   0
  -3  -1 -23   34.78   10.48   0
  -8   0 -17  -10.63   14.19   0
  -7  -1  -3   21.51   12.29   0
  -7  -1   3    3.42   12.54   0
  -7  -1   6  197.73   15.12   0
  -6  -1  19   19.79   11.22   0
  -6   0 -30  187.41   16.14   0
  -4  -2   1    1.48   10.25   0
  -3  -2  -4  868.30   18.45   0
  -8   1 -30  169.80   15.42   0
  -7  -1  -6  320.10   16.29   0
  -7   1 -35   24.04   13.91   0
  -4  -2  -5    6.18   10.66   0
  -4  -2   7    1.74   10.47   0
  -3  -2  -7   25.11    9.99   0
  -3  -2   8 2474.53   29.13   0
  -7  -1  -9   -6.84   14.02   0
  -7  -1   9    2.47   12.02   0
  -4  -2  -8 1149.16   20.83   0
  -8   0 -20  263.47   16.34   0
  -7  -1  12  351.36   16.46   0
  -6  -1 -20  431.65   16.82   0
  -4  -2  10  478.53   16.35   0
  -3  -2 -10  837.47   18.08   0
  -3  -2  11    6.54    9.60   0
  -2  -2   0 4470.49   38.43   0
  -7  -1 -12  336.43   16.20   0
  -7   0 -28  243.29   15.59   0
  -5  -2  -3    9.24   12.61   0
  -4  -2 -11   16.23   10.13   0
  -4   0 -34  407.71   16.14   0
  -2  -2  -3    5.23    8.47   0
  -2  -2   3    8.33    8.04   0
  -5  -2  -6  288.29   15.48   0
  -5  -2   6  619.79   17.92   0
  -4  -1 -27   15.36   11.84   0
  -3  -1 -26  870.34   19.20   0
  -2  -2  -6  947.69   18.77   0
  -2   0 -29   -2.13    8.75   0
  -8   1 -33    6.86   12.91   0
  -7  -1 -15    6.04   12.61   0
  -7  -1  15    5.50   12.14   0
  -6  -1 -23   38.65   13.49   0
  -6   0 -33  -19.70   12.63   0
  -5   0 -35   -3.00   12.38   0
  -4  -2  13   -4.71    9.37   0
  -3  -2 -13    0.59    9.60   0
  -3   0 -33   -2.84   10.08   0
  -8   0 -23   -1.95   12.43   0
  -5  -2  -9    7.70   11.30   0
  -5  -2   9   -0.65   10.67   0
  -4  -2 -14  434.79   15.20   0
  -3  -2  14  454.04   15.27   0
  -2  -2  -9    9.44    8.31   0
  -7   1 -38   85.88   14.52   0
  -5  -2 -12  695.19   19.20   0
  -2  -2   9   -0.74    7.55   0
  -7  -1 -18  231.09   14.86   0
  -7   0 -31    2.38   12.61   0
  -5  -2  12  548.41   17.45   0
  -5  -1 -28  661.19   18.54   0
  -4  -2 -17    4.28   11.68   0
  -4  -2  16  994.65   20.74   0
  -3  -2 -16 2259.26   26.94   0
  -2  -2 -12  949.53   18.67   0
  -8  -1  -1   -7.85   12.85   0
  -8  -1   2  204.50   15.05   0
  -6  -2  -4  336.27   16.64   0
  -6  -2   2  334.37   16.47   0
  -5  -2 -15    5.90   11.53   0
  -4  -1 -30  463.19   15.86   0
  -2  -2  12  897.12   19.58   0
  -8  -1  -7   -7.89   13.51   0
  -8  -1   5   11.38   12.66   0
  -7  -1 -21    6.84   12.24   0
  -6  -2  -7   -1.34   12.70   0
  -6  -2   5   -0.25   11.87   0
  -6   0 -36  424.90   18.19   0
  -4   0 -37   -0.56   11.04   0
  -3  -2  17   11.38    8.86   0
  -3  -1 -29    2.32   10.46   0
  -2  -1 -25   18.54    8.31   0
  -8  -1 -10  172.15   14.87   0
  -6  -2 -10  336.88   17.06   0
  -6  -2   8  742.31   19.79   0
  -5  -2 -18  614.36   18.65   0
  -3  -2 -19   14.31    9.59   0
  -2  -2 -15    2.42    8.19   0
  -7   0 -34  285.08   16.63   0
  -5  -1 -31    2.66   12.41   0
  -5   0 -38  355.14   17.06   0
  -4  -2  19   -1.07   10.30   0
  -8  -1 -13    0.94   11.75   0
  -8  -1  11   -0.08   11.73   0
  -7  -1 -24  452.68   16.77   0
  -6  -2 -13  -12.35   12.94   0
  -6  -2  11    2.36   11.98   0
  -6  -1 -29   -3.64   12.92   0
  -5  -2 -21   15.00   12.90   0
  -5  -2  18  286.91   14.64   0
  -3   0 -36 1182.64   23.53   0
  -6  -2 -16  685.47   18.75   0
  -4  -2 -23   -0.62   10.60   0
  -4  -1 -33   24.31   11.39   0
  -2  -2 -18 1336.39   21.44   0
  -2  -2  15    0.65    7.81   0
  -3  -2  20  709.20   18.45   0
  -1  -2  -2  756.17   17.68   0
  -1  -2   1   77.50    8.96   0
  -6   0 -39   -1.30   12.91   0
  -3  -1 -32 1297.39   22.98   0
  -2  -1 -28 1747.54   25.94   0
  -1  -2  -5   12.65    7.67   0
  -7  -2  -5    7.48   12.00   0
  -7  -2   1   -2.40   11.34   0
  -7   0 -37    5.11   13.13   0
  -6  -2 -19    2.26   12.19   0
  -6  -1 -32  452.59   17.38   0
  -5  -2 -24  557.61   17.88   0
  -5  -1 -34  387.80   16.27   0
  -1  -2  -8 3583.63   34.73   0
  -7  -2  -8  423.55   16.82   0
  -7  -2   4  330.63   15.23   0
  -6  -2  17    5.39   11.66   0
  -1  -1 -21   45.62    8.50   0
  -7  -2 -11   15.53   12.31   0
  -7  -2   7   -0.71   12.68   0
  -6  -2 -22  202.10   15.66   0
  -4  -3  -7    2.85   12.03   0
  -4  -3  -4  914.83   19.21   0
  -4  -3  -1   11.84   10.47   0
  -3  -3  -6  622.15   16.26   0
  -3  -3  -3   17.95    9.44   0
  -3  -3   0 1296.73   21.30   0
  -7  -2 -14  227.03   15.87   0
  -7  -1 -30  148.21   15.12   0
  -4  -3 -10  527.26   17.21   0
  -4  -3   5   11.84   10.74   0
  -3  -3  -9   12.12    9.98   0
  -1  -2 -11   31.61    8.55   0
  -7  -2  10  290.74   15.21   0
  -4  -1 -36  480.49   16.97   0
  -3  -3   6  628.33   16.40   0
  -2  -2  18 1224.80   23.68   0
  -6  -1 -35   16.43   13.77   0
  -5  -3  -5   -4.75   12.15   0
  -5  -3   1   -4.34   12.53   0
  -4  -3 -13   23.33   11.64   0
  -4  -3   8  750.57   18.24   0
  -4  -2 -29    4.67   11.89   0
  -3  -3 -12 1041.75   19.69   0
  -7  -2 -17   11.87   12.00   0
  -7  -2  13    0.06   12.36   0
  -6  -2 -25    4.82   12.53   0
  -5  -3  -8  778.36   19.38   0
  -5  -3   4  387.06   16.83   0
  -5  -1 -37    4.40   12.79   0
  -3  -3   9   22.42   10.37   0
  -3  -2 -28  564.32   16.53   0
  -2  -3  -2 1009.25   18.60   0
  -1  -2 -14 1822.47   24.85   0
  -5  -3 -11    2.04   12.44   0
  -5  -3   7    6.60   12.35   0
  -4  -3 -16  626.65   17.50   0
  -4  -3  11    2.42   10.82   0
  -3  -3 -15    4.59   10.38   0
  -3  -1 -35    9.16   10.32   0
  -2  -3  -8 2537.56   28.07   0
  -2  -3  -5   20.97    8.89   0
  -2  -3   1    9.94    8.50   0
  -2  -2 -24 2234.84   27.00   0
  -2  -1 -31    8.46    8.94   0
  -7  -2 -20  284.32   15.10   0
  -5  -3 -14  258.01   15.92   0
  -5  -2 -30  167.24   14.62   0
  -3  -3  12  967.76   19.55   0
  -2  -3 -11   17.73    9.32   0
  -1  -1 -24 2010.75   28.56   0
  -5  -3 -17    6.93   13.23   0
  -5  -3  10  370.60   15.15   0
  -4  -3 -19    1.20   10.82   0
  -3  -3 -18  562.39   15.77   0
  -2  -3   7   27.52    9.00   0
  -1  -2 -17   23.23    8.10   0
  -7  -2 -23    4.82   11.45   0
  -6  -3  -6  296.36   15.91   0
  -6  -3   0  558.40   17.68   0
  -6  -1 -38  115.98   14.41   0
  -4  -3  14  492.82   15.48   0
  -4  -2 -32  579.59   17.33   0
  -2  -3 -14  461.33   14.66   0
  -6  -3  -9   13.99   11.95   0
  -6  -3   3   -0.27   11.73   0
  -5  -3  13    7.43   11.34   0
  -4  -1 -39    5.18   11.61   0
  -3  -2 -31   14.69    9.97   0
  -2  -2 -27   -5.95    9.66   0
  -6  -3 -12  246.38   14.82   0
  -6  -3   6  156.77   14.08   0
  -5  -3 -20  385.48   16.43   0
  -5  -2 -33   -2.89   13.31   0
  -5  -1 -40  375.50   17.00   0
  -4  -3 -22  322.33   14.45   0
  -3  -3 -21   25.62   10.18   0
  -3  -3  15    1.93    9.38   0
  -2  -3  10  837.59   18.28   0
  -6  -3 -15   29.86   13.77   0
  -6  -2 -31  -11.91   13.06   0
  -2  -3 -17    8.51    9.56   0
  -6  -3   9   22.70   11.99   0
  -4  -3  17   19.09   10.65   0
  -3  -1 -38  264.63   13.91   0
  -6  -3 -18  204.44   15.54   0
  -5  -3 -23    4.27   12.45   0
  -5  -3  16  664.73   18.34   0
  -4  -3 -25   24.13   12.07   0
  -4  -2 -35  -10.80   11.87   0
  -3  -3 -24  882.89   18.59   0
  -2  -1 -34  812.02   18.93   0
  -2  -3 -20  803.81   17.49   0
  -6  -3  12  280.01   14.85   0
  -6  -1 -41   -0.21   12.33   0
  -3  -2 -34  655.82   17.88   0
  -2  -3  13   -3.01    7.68   0
  -2  -2 -30  277.93   13.05   0
  -1  -3  -7   33.36    8.37   0
  -1  -3  -4 1499.94   22.03   0
  -1  -3  -1   54.00    8.50   0
  -1  -1 -27    0.15    7.50   0
  -6  -3 -21  -13.64   12.30   0
  -6  -2 -34  283.00   15.08   0
  -5  -3 -26  343.72   16.57   0
  -5  -2 -36  462.05   16.84   0
  -3  -3  18  565.15   16.46   0
  -1  -3 -10 1308.98   20.49   0
  -1  -3   2  967.29   18.48   0
  -1  -2 -23    6.25    7.66   0
  -4  -4  -6  321.46   14.68   0
  -3  -4  -8  747.79   18.28   0
  -3  -4  -5   23.36   10.66   0
  -3  -4  -2  378.02   14.39   0
  -1  -3 -13   28.73    8.29   0
  -6  -3 -24  446.72   16.36   0
  -4  -4  -9    1.27   11.35   0
  -4  -4   3    2.75   11.82   0
  -3  -4 -11    7.61   10.41   0
  -4  -4 -12  413.28   15.37   0
  -4  -2 -38  231.12   13.65   0
  -3  -4   4  902.14   19.14   0
  -2  -3  16 2122.46   27.78   0
  -6  -2 -37    1.27   12.63   0
  -5  -4  -7   10.08   13.14   0
  -4  -4 -15   10.84   11.59   0
  -4  -4   6  328.89   14.91   0
  -4  -3 -31    4.64   12.53   0
  -3  -4 -14  519.70   15.57   0
  -1  -3 -16 2472.79   26.98   0
  -6  -3 -27    8.57   13.08   0
  -5  -4 -10  239.48   14.84   0
  -5  -4  -1   -0.02   11.02   0
  -5  -4   2  323.28   15.56   0
  -5  -2 -39    0.27   11.33   0
  -3  -4   7   17.55   10.44   0
  -3  -3 -30  349.45   14.34   0
  -3  -2 -37    8.56    9.72   0
  -2  -4  -7   -4.88    9.72   0
  -2  -4  -4 1070.29   19.42   0
  -2  -4  -1    9.69    9.93   0
  -2  -2 -33   -6.05    9.78   0
  -1  -3   8 3078.34   31.95   0
  -5  -4 -13   14.30   11.49   0
  -4  -4 -18  321.42   15.49   0
  -4  -4   9    7.90   11.54   0
  -3  -4 -17   19.27   10.80   0
  -1  -2 -26  667.07   16.11   0
  -5  -4 -16  592.71   18.53   0
  -5  -4   5    9.07   12.44   0
  -5  -3 -32  405.10   16.76   0
  -2  -4 -13   -2.76    9.90   0
  -1  -3 -19   28.71    8.83   0
  -4  -4 -21   14.27   13.06   0
  -3  -4 -20  673.07   17.50   0
  -3  -4  10  541.03   16.29   0
  -2  -4   5   -0.64    9.35   0
  -1  -1 -30  786.74   19.00   0
  -5  -4 -19    4.72   13.24   0
  -5  -4   8  589.05   17.64   0
  -4  -3 -34  315.07   16.14   0
  -4  -2 -41   -8.27   13.38   0
  -2  -4 -16  996.65   19.02   0
  -2  -3 -29   -2.14   10.18   0
  -4  -4  12  419.96   15.03   0
  -3  -3 -33   -0.25   10.76   0
  -2  -3  19   13.60    9.01   0
  -1  -3  11   52.40    9.06   0
  -5  -2 -42  281.59   15.45   0
  -4  -4 -24  539.51   16.76   0
  -3  -4 -23   10.85   10.52   0
  -2  -4 -19    9.42   10.03   0
  -2  -4   8 1093.35   19.64   0
  -5  -4 -22  182.29   13.95   0
  -5  -4  11   -4.98   11.68   0
  -5  -3 -35   -3.48   11.93   0
  -3  -4  13   20.08    9.35   0
  -3  -2 -40  756.88   18.71   0
  -2  -2 -36  572.08   16.61   0
  -1  -2 -29    6.91    8.62   0
  -4  -4  15   -5.84   11.99   0
  -5  -4 -25  -14.82   12.68   0
  -4  -4 -27   -3.93   12.60   0
  -4  -3 -37   11.09   12.21   0
  -3  -4 -26  247.40   14.02   0
  -2  -4 -22  546.25   15.51   0
  -2  -4  11   -1.57    9.48   0
  -2  -3 -32  979.49   19.98   0
  -1  -4  -9   57.50    9.20   0
  -1  -4  -6  483.06   14.20   0
  -1  -4  -3    1.54    8.50   0
  -3  -3 -36  497.30   16.71   0
  -1  -4 -12 1411.03   20.91   0
  -1  -4   0 1652.97   22.41   0
  -1  -3 -25    2.04    8.26   0
  -3  -4  16  650.04   17.13   0
  -1  -3  14  804.25   18.60   0
  -5  -3 -38  124.66   13.70   0
  -2  -4 -25  -10.55   10.21   0
  -1  -4 -15   10.36    9.22   0
  -1  -1 -33   12.87    8.29   0
  -3  -5  -7   15.08   10.96   0
  -2  -4  14  425.30   14.47   0
  -1  -4 -18  985.30   18.35   0
  -1  -2 -32 1547.48   23.69   0
   0  -3  -6 2298.38   26.50   0
  -4  -5 -11   -3.65   11.78   0
  -4  -5  -2  308.05   14.55   0
  -4  -3 -40  273.63   15.24   0
  -3  -5 -13    5.06   11.85   0
  -2  -3 -35   10.62   10.51   0
  -2  -2 -39    3.63    9.49   0
  -1  -4   6 1037.68   18.64   0
  -1  -3 -28  959.76   18.44   0
   0  -3  -9   -2.09    7.10   0
   0  -3  -3    0.75    7.24   0
  -4  -5 -14  161.57   13.78   0
  -4  -5   1    8.22   11.14   0
  -3  -5 -16  656.77   17.34   0
  -3  -5   2  345.59   14.43   0
  -3  -3 -39   12.39   11.05   0
  -2  -5  -9   -8.76   11.16   0
  -2  -5  -6  583.95   16.52   0
   0  -3 -12 2267.96   26.07   0
   0  -3   0 2928.91   30.47   0
   0  -2 -19   -0.98    6.47   0
  -4  -5 -17   20.48   12.87   0
  -4  -4 -33   17.38   12.13   0
  -3  -5   5    9.97   10.98   0
  -3  -4 -32  484.11   16.27   0
  -2  -5 -12  551.02   15.66   0
  -2  -5  -3    6.80   10.27   0
  -1  -4 -21   24.22    9.17   0
  -5  -5  -3  -14.71   11.90   0
  -3  -5 -19    6.59   11.74   0
  -2  -5 -15    5.92   11.54   0
  -1  -4   9    5.35    8.56   0
   0  -3 -15    6.99    7.47   0
  -5  -5   0  375.54   15.07   0
  -4  -5 -20  275.77   13.86   0
  -4  -5   7   15.27   11.55   0
  -2  -5   3  -10.43   10.29   0
   0  -3   3    2.83    6.83   0
  -3  -5 -22  225.87   13.48   0
  -3  -5   8  739.19   18.21   0
  -2  -5 -18  306.72   13.88   0
  -2  -4 -31    2.14   10.66   0
  -2  -4  17   -1.09    8.84   0
  -1  -3 -31   31.72    9.82   0
  -1  -3  17   -0.02    7.46   0
   0  -3 -18  638.57   15.41   0
  -4  -5 -23    4.43   12.56   0
  -3  -4 -35   -2.54   12.25   0
  -2  -5   6  244.99   13.17   0
  -2  -3 -38  178.04   12.46   0
  -4  -5  10  234.93   13.80   0
  -4  -4 -36  281.75   14.38   0
  -4  -3 -43    2.56   12.05   0
  -2  -5 -21   -5.10   10.70   0
  -1  -2 -35   -4.74    9.03   0
  -3  -5 -25   -6.87   10.98   0
  -3  -3 -42  290.14   14.82   0
  -1  -5  -8 1096.95   18.83   0
  -1  -5  -5    7.79   10.19   0
  -1  -4  12 1143.34   20.11   0
  -4  -5 -26  283.11   14.12   0
  -2  -5   9   -1.52   10.10   0
  -1  -5 -11   33.31    9.62   0
  -1  -5  -2  430.53   14.08   0
   0  -4  -8 1858.95   22.94   0
  -2  -5 -24  715.57   17.37   0
  -2  -4 -34  314.27   14.01   0
  -1  -5 -14  600.82   15.51   0
   0  -4 -11    0.43    8.22   0
   0  -4  -5    5.48    7.58   0
  -3  -5 -28  301.45   14.35   0
  -3  -4 -38  261.11   14.30   0
  -1  -5 -17   10.60   10.10   0
  -1  -3 -34  793.09   17.79   0
   0  -4 -14  416.53   13.16   0
   0  -4  -2 1585.30   21.49   0
  -4  -4 -39   -5.11   12.05   0
  -3  -5  14  241.71   13.63   0
   0  -4   1    4.08    8.07   0
   0  -2 -25   -2.20    6.44   0
  -2  -5 -27   13.44   10.59   0
  -2  -3 -41    9.86   11.35   0
  -1  -5 -20  703.06   16.86   0
  -1  -5   4  965.69   18.18   0
  -1  -4 -30  275.44   12.51   0
   0  -4 -17   -4.06    8.37   0
   0  -3 -24 1925.60   24.11   0
  -1  -4  15   31.22    8.67   0
   0  -3   9   -0.87    7.26   0
  -3  -6  -9   18.39   11.88   0
  -2  -4 -37    5.87   10.30   0
  -1  -5 -23    8.80   10.70   0
  -1  -5   7    7.68    9.21   0
  -1  -3  20  957.27   21.21   0
   0  -4 -20 1605.53   21.74   0
  -3  -6  -3    9.61   12.03   0
  -3  -6 -15   -1.63   11.45   0
  -3  -6   0  544.02   16.80   0
  -3  -4 -41    3.54   11.53   0
  -2  -6 -11    8.61   12.13   0
  -2  -6  -8  710.08   17.36   0
  -1  -4 -33   16.96   10.30   0
  -1  -3 -37   -4.98    9.27   0
  -3  -6 -18  341.18   14.51   0
  -3  -5 -34  249.44   14.74   0
  -2  -6 -14  192.05   13.57   0
   0  -3 -27    4.78    7.27   0
   0  -2 -28 1360.82   22.39   0
  -3  -6   3    8.66   11.32   0
  -2  -6 -17  -18.66   10.88   0
  -2  -6   1   -2.85   11.31   0
  -1  -5  10  656.87   16.30   0
   0  -4   7    6.19    7.10   0
  -3  -6 -21   -7.31   11.57   0
  -2  -5 -33    1.58   10.52   0
   0  -5 -13   -0.19    8.48   0
   0  -5  -7    8.86    8.81   0
   0  -5  -4 1440.30   20.90   0
  -3  -6   6  309.34   14.36   0
  -2  -6 -20  327.28   14.12   0
  -2  -6   4  328.38   14.40   0
  -2  -4 -40  437.00   15.12   0
  -1  -4  18  492.94   15.24   0
   0  -5 -16  970.75   18.17   0
  -3  -6 -24  332.69   13.91   0
  -1  -6 -13   22.41   11.16   0
  -1  -6  -7   23.15   10.21   0
   0  -5  -1    0.03    8.37   0
   0  -4 -26  953.21   17.82   0
   0  -3  12 2686.13   31.19   0
  -3  -5 -37    2.91   10.42   0
  -2  -6 -23   -1.26   10.77   0
  -1  -6 -16  926.67   19.05   0
  -1  -4 -36  743.15   17.04   0
   0  -5 -19    3.30    8.70   0
   0  -3 -30  779.22   16.99   0
  -3  -6 -27   -3.52   11.97   0
  -3  -6   9   11.27   10.54   0
  -2  -6   7    0.48   10.44   0
  -2  -5 -36  300.65   14.57   0
  -1  -5  13   20.19    9.24   0
   0  -4  10  514.76   14.35   0
  -2  -6 -26  342.44   14.96   0
  -1  -6 -19   27.96   10.70   0
  -1  -6   2  510.85   15.42   0
  -1  -5 -32  622.76   17.03   0
  -1  -3 -40  718.09   17.49   0
   0  -5 -22  365.72   13.72   0
   0  -2 -31   -3.31    7.78   0
   0  -5   5    3.23    8.90   0
   0  -4 -29   -1.39    8.19   0
  -2  -6  10  302.42   13.89   0
  -2  -4 -43    5.80   10.55   0
  -1  -6 -22  277.95   13.23   0
  -1  -6   5   20.97    9.55   0
  -1  -4 -39    8.34   10.28   0
  -2  -5 -39    1.49   11.08   0
  -1  -6 -25   -2.60   10.89   0
  -1  -5  16  835.42   18.12   0
   0  -3 -33    6.45    8.11   0
  -1  -5 -35   -1.93   10.15   0
   0  -5   8 1183.89   19.47   0
   0  -4 -32  676.58   16.15   0
   0  -4  13   -6.53    7.40   0
  -2  -6 -32  351.71   14.93   0
  -1  -6   8  931.41   18.06   0
   0  -6 -15    1.70   10.46   0
   0  -6 -12  512.45   14.43   0
   0  -6  -9   -1.18    9.09   0
   0  -6  -6  594.06   15.14   0
   0  -5 -28  908.87   18.13   0
   1  -3 -11   42.11    7.09   0
   1  -3  -8 3620.82   32.32   0
   0  -6  -3   -7.51    9.33   0
   1  -4 -13   22.49    7.82   0
   1  -4 -10 1377.63   19.69   0
   1  -4  -7   41.11    7.86   0
   1  -3 -14 1805.12   23.15   0
   1  -3  -5   11.78    6.64   0
  -2  -7 -13   -2.19   10.85   0
  -2  -7 -10  277.44   13.06   0
  -2  -7  -4  321.33   14.19   0
   0  -6 -18  375.51   13.50   0
   1  -4 -16 2431.95   25.38   0
   1  -4  -4 1490.62   20.44   0
   0  -6 -21   14.54   10.77   0
   0  -2 -34  342.39   13.08   0
  -2  -7 -19   15.56   10.87   0
  -2  -7  -1   -0.47   10.04   0
  -2  -6 -35   -0.74   11.17   0
  -2  -5 -42  195.54   13.14   0
  -1  -6 -31   18.80   10.24   0
  -1  -6  11    3.45    9.05   0
  -1  -5 -38  255.72   13.00   0
  -1  -4 -42  370.04   14.04   0
   0  -6   3    2.44    9.35   0
   0  -5 -31    1.98    9.80   0
   0  -5  11   -2.16    7.57   0
   1  -4 -19   29.80    8.05   0
   1  -4  -1   55.07    7.91   0
   1  -3  -2  777.50   16.21   0
  -1  -7 -12  356.95   14.11   0
  -1  -7  -9   21.16   10.31   0
  -1  -7  -6  189.82   12.00   0
   0  -4 -35   -4.37    8.21   0
   1  -5 -12 1388.73   19.57   0
   1  -5  -9   47.83    8.54   0
  -2   5 -19   23.41   13.35   0
  -2   6 -20  880.83   24.26   0
  -2   7 -18  587.15   22.90   0
   0   4 -37  -13.78   16.19   0
   1   3 -41    6.41   17.66   0
   1   4 -42  273.77   20.64   0
  -1   2 -18 1349.56   27.60   0
  -1   6 -31   -5.43   17.94   0
   0   5 -38  354.98   20.66   0
   1   0 -26 1309.10   28.08   0
  -1   8 -24  486.44   23.09   0
   2   5 -45   -3.58   19.57   0
   1   5 -43   -1.06   18.06   0
   1   6 -41    7.66   17.64   0
   2   3 -46   93.74   19.70   0
   3   2 -47  -15.22   19.57   0
   3   3 -48  283.20   22.10   0
  -2   6 -23   -8.13   15.42   0
  -2   7 -21  -11.31   17.76   0
  -1   5 -33   14.82   16.53   0
   0   1 -25   -7.35   11.74   0
   2  -1 -27   -0.86   12.30   0
   2   1 -41   -1.70   15.81   0
   4   2 -49   10.95   19.16   0
  -1   3 -28 1748.84   29.99   0
  -1   4 -32 1258.64   26.98   0
   0   6 -39    4.78   19.75   0
   2   2 -45    8.23   18.14   0
   3  -1 -35    6.30   15.02   0
  -1   6 -34  346.36   22.43   0
  -1   8 -27   -1.70   19.03   0
   0   4 -40  728.05   25.63   0
  -1   2 -21   46.18   12.83   0
   0   5 -41   -1.80   20.11   0
   0   7 -37   -5.40   18.19   0
   1   1 -36 1226.14   27.33   0
   1   4 -45   30.51   18.75   0
   3   0 -42  381.77   23.11   0
   3   1 -46  156.11   20.14   0
  -2   5 -25    1.09   13.77   0
  -2   6 -26  555.70   22.61   0
  -2   7 -24  540.18   22.62   0
  -2   8 -19   -9.95   17.60   0
   2   0 -37    6.07   14.95   0
  -2   4 -21    2.79   12.63   0
  -1   5 -36  466.31   23.16   0
   0   3 -39    3.60   16.07   0
   1   0 -29   -2.82   12.70   0
   1   6 -44  260.37   20.95   0
   0   2 -35    2.23   14.70   0
   1   5 -46  143.93   19.88   0
  -2   8 -22  187.40   20.36   0
  -1   3 -31    6.94   14.56   0
  -1   4 -35    8.55   16.14   0
  -1   8 -30  155.97   18.74   0
   0   1 -28 1621.44   30.27   0
   0   6 -42  269.63   23.73   0
   2   3 -49   10.21   18.63   0
   3   2 -50  350.76   24.15   0
   3   3 -51   13.30   18.22   0
  -2   7 -27   -1.51   17.30   0
  -1   2 -24 2204.69   33.56   0
  -1   6 -37   19.09   18.04   0
   1   2 -43  -12.71   16.62   0
   2   1 -44  499.72   23.80   0
   2   4 -50  207.03   22.55   0
  -3   6  -6  591.23   23.23   0
  -2   4 -24 2254.53   33.44   0
  -2   5 -28  551.75   21.17   0
   0   4 -43  -27.13   18.35   0
   0   5 -44  332.03   23.16   0
   2   2 -48  557.47   25.38   0
  -3   6  -9   17.20   14.22   0
  -2   3 -14 1812.60   31.82   0
   1   1 -39   -7.51   15.75   0
   1   4 -48  396.44   23.37   0
   2  -1 -30  811.49   25.94   0
  -3   6 -12  976.44   26.35   0
  -2   8 -25    6.92   16.95   0
  -1   5 -39    3.09   17.87   0
  -1   8 -33   -9.72   18.84   0
  -3   7 -13   28.77   16.24   0
  -2   7 -30  132.68   19.55   0
  -1   3 -34  868.75   25.29   0
  -1   4 -38  241.75   20.94   0
   0   3 -42  497.38   22.01   0
   1   5 -49   17.04   20.09   0
   3   1 -49    5.47   19.86   0
  -3   6 -15   12.76   15.18   0
  -2   3 -17   15.91   12.57   0
  -2   4 -27   -4.66   14.52   0
  -2   5 -31  -14.25   16.14   0
  -1   2 -27    0.68   12.91   0
  -1   6 -40  343.56   23.23   0
   0   6 -45  -16.53   18.39   0
   1   0 -32 2317.50   36.91   0
   2   0 -40 1222.67   29.72   0
   3   0 -45    9.46   17.13   0
  -3   7 -16  651.00   24.15   0
   2   3 -52  316.90   24.07   0
   1   2 -46  257.07   21.53   0
   2   4 -53    8.19   19.99   0
  -3   5  -8 2597.56   39.71   0
  -3   5  -5   15.77   13.66   0
  -3   6 -18  606.05   21.96   0
  -2   3 -20 1735.67   30.46   0
  -2   7 -33    2.49   17.44   0
   0   5 -47    4.25   18.38   0
   2   1 -47    3.75   18.51   0
   3   2 -53    6.00   20.97   0
  -3   5 -11   -0.83   14.01   0
  -2   4 -30  282.92   19.60   0
  -2   6 -35  -13.54   19.08   0
  -1   5 -42  322.97   21.34   0
   2   2 -51  -26.93   20.14   0
  -3   5 -14  497.01   21.15   0
  -3   6 -21   14.81   16.22   0
  -2   5 -34  654.75   23.87   0
  -2   8 -31    8.35   19.26   0
  -1   2 -30  813.65   23.90   0
  -1   3 -37  -22.92   16.38   0
  -1   4 -41  -14.02   16.81   0
  -1   6 -43  -13.47   20.66   0
  -1   7 -41   -7.43   19.07   0
   0   3 -45   -3.06   16.68   0
   1   1 -42  496.90   21.73   0
   1   3 -50  350.60   23.31   0
  -3   7 -22  294.14   21.25   0
  -2   3 -23   13.95   14.22   0
   0   6 -48  220.27   22.94   0
   2  -1 -33   15.93   15.01   0
  -3   5 -17   17.23   13.42   0
   1   0 -35   11.79   14.68   0
  -3   6 -24  878.82   26.37   0
  -3   8 -20  337.69   21.82   0
   0   4 -49  -24.19   21.34   0
   2   0 -43   -2.99   16.29   0
  -3   5 -20  766.68   23.33   0
  -3   7 -25   14.81   17.28   0
  -2   4 -33  -12.50   16.07   0
  -2   5 -37    8.32   18.87   0
  -2   6 -38  214.79   20.48   0
  -2   8 -34  254.49   22.18   0
  -1   5 -45   -3.90   19.29   0
   0   5 -50  168.72   21.24   0
   2   3 -55  -15.10   20.26   0
  -3   8 -23    4.98   19.08   0
  -1   7 -44  234.47   20.72   0
   1   2 -49    6.74   18.75   0
  -3   6 -27   -4.50   17.33   0
  -1   2 -33    9.64   14.28   0
  -1   3 -40  690.39   23.66   0
  -1   4 -44  515.99   23.88   0
  -1   6 -46  114.95   21.16   0
   1   4 -54  140.04   20.91   0
   2   1 -50  319.22   23.46   0
  -3   5 -23   25.21   14.87   0
   1   1 -45   -1.80   17.58   0
   1   3 -53    8.12   20.93   0
   2   2 -54   86.61   22.24   0
  -2   4 -36  583.61   24.24   0
  -2   8 -37    1.46   19.25   0
   0   1 -37   -0.91   14.32   0
  -3   6 -30  332.91   22.04   0
  -2   3 -29    8.01   15.12   0
  -2   5 -40  777.78   25.09   0
  -2   6 -41   -2.51   19.39   0
  -1   1 -20 1645.56   31.41   0
  -3   7 -31    7.79   19.11   0
  -1   5 -48  389.42   24.52   0
   0   4 -52  231.06   22.89   0
   0   5 -53  -21.58   20.94   0
   1   0 -38  344.81   19.30   0
  -3   8 -29   18.12   19.05   0
  -1   3 -43    5.57   16.92   0
  -1   4 -47   17.16   20.51   0
  -1   6 -49   21.65   21.40   0
   2   0 -46  462.53   25.04   0
  -3   4 -16 2377.11   36.56   0
  -3   4 -13   21.69   12.77   0
  -3   4 -10 1290.82   29.36   0
  -3   4  -7   32.04   13.03   0
  -2   3 -32 1642.24   30.84   0
  -2   4 -39   -0.69   17.04   0
  -1   1 -23    5.19   11.76   0
  -3   7 -34  303.11   22.35   0
  -3   8 -32  431.89   23.57   0
  -2   5 -43    2.99   19.53   0
  -2   6 -44  417.30   23.38   0
   0   1 -40 1014.26   26.80   0
   0   2 -47   -9.26   18.12   0
   1   1 -48  562.79   25.24   0
   1   3 -56  279.21   24.59   0
   0   0 -27    3.99   12.07   0
   2   1 -53    0.52   20.85   0
   2   2 -57   -1.96   21.24   0
  -3   5 -32 1048.60   27.18   0
  -2   7 -45    0.06   20.55   0
  -1   1 -26 1380.15   28.83   0
  -1   2 -39   10.54   16.28   0
  -1   5 -51  -17.11   19.19   0
   1   0 -41   -5.60   16.18   0
  -3   7 -37    6.56   20.40   0
  -2   2 -16 3327.13   43.22   0
  -2   2 -13   -2.18   11.93   0
  -2   3 -35   20.25   16.46   0
  -1   3 -46  266.11   21.28   0
  -1   4 -50  352.53   25.34   0
  -3   4 -25    9.37   14.87   0
  -3   8 -35   10.10   19.99   0
  -2   2 -19   12.82   12.96   0
  -2   4 -42  712.68   25.42   0
   2  -1 -39   -1.50   16.55   0
  -3   5 -35    6.61   18.97   0
  -2   5 -46  109.29   21.49   0
  -2   6 -47   17.38   18.93   0
   1   2 -55   -0.93   21.80   0
  -4   7 -17   31.24   17.50   0
  -3   4 -28  922.35   25.10   0
  -2   2 -22 2297.41   35.46   0
  -1   1 -29    9.51   13.32   0
   0   0 -30  171.94   15.74   0
   0   1 -43   16.27   15.78   0
   0   2 -50  307.57   23.95   0
   0   3 -54  230.80   22.39   0
   2   0 -49  -20.83   18.24   0
  -4   7 -20  662.87   25.21   0
  -3   6 -39    5.10   18.68   0
  -2   3 -38  498.12   21.98   0
  -1   2 -42  481.84   22.55   0
  -1   5 -54  141.34   23.37   0
   1   1 -51  -22.90   20.16   0
  -4   7 -23    6.41   18.28   0
  -3   8 -38  129.49   19.69   0
  -2   2 -25   -6.57   13.88   0
  -1   3 -49   11.16   20.43   0
   1  -1 -28 1575.83   34.02   0
   1   3 -59   20.53   19.41   0
  -4   6 -16  998.79   27.87   0
  -3   4 -31   24.77   16.78   0
  -3   5 -38  163.31   19.35   0
  -2   4 -45  -10.97   18.44   0
  -1   4 -53   15.65   21.52   0
   0   4 -58  178.79   23.40   0
   1   0 -44  659.17   25.42   0
  -4   6 -19    3.07   15.01   0
  -4   6 -13    5.29   15.20   0
  -4   7 -26  249.77   21.60   0
  -2   5 -49   16.44   20.00   0
  -2   6 -50  244.25   22.93   0
  -1   1 -32 2213.01   34.76   0
   0   0 -33    0.23   14.16   0
  -4   6 -22  498.91   22.23   0
  -4   6 -10  492.85   22.34   0
  -3   6 -42  289.91   22.37   0
  -2   2 -28 1352.73   28.12   0
  -4   6 -25  -11.06   17.61   0
  -4   7 -29   31.58   19.71   0
  -4   8 -27  -13.35   18.87   0
  -2   3 -41   12.48   17.08   0
   0   1 -46  191.42   19.53   0
   0   3 -57   10.61   22.77   0
  -3   5 -41    4.57   18.78   0
   0   2 -53   -2.27   19.67   0
   1  -1 -31   -3.44   13.17   0
   1   2 -58  189.03   22.28   0
  -4   6 -28  664.48   25.95   0
  -2   2 -31    7.50   14.41   0
  -2   4 -48  538.42   25.26   0
  -1   5 -57   13.71   18.94   0
  -3   6 -45    7.15   20.26   0
  -2   5 -52  302.81   24.99   0
  -2   6 -53    0.81   21.68   0
   0   0 -36  762.08   25.13   0
   1   1 -54  240.10   23.45   0
  -4   6 -31    1.69   18.57   0
  -3   3 -21    4.70   14.89   0
  -2   3 -44  545.78   24.12   0
   1   0 -47    3.00   17.87   0
  -4   5 -18  960.94   26.88   0
  -4   7 -35   26.89   20.06   0
  -4   8 -33    6.11   20.04   0
  -3   3 -24 2028.01   34.19   0
  -3   5 -44  418.87   23.31   0
  -2   2 -34  368.78   20.34   0
  -4   5 -21   22.41   15.51   0
  -4   5 -15    1.85   15.71   0
   0   1 -49   -1.73   19.60   0
   1  -1 -34 1233.88   30.93   0
  -4   5 -24  955.71   26.50   0
  -4   6 -34  310.56   21.64   0
  -3   3 -27  -11.76   15.37   0
  -3   4 -40  763.11   26.30   0
  -3   6 -48  279.23   25.65   0
  -2   4 -51    8.00   19.90   0
   0   2 -56  174.24   24.30   0
   0   3 -60  385.62   26.38   0
  -4   5 -27   19.34   16.59   0
  -4   5 -12 1391.30   30.35   0
  -4   7 -38  250.79   23.35   0
  -2   2 -37    7.43   15.30   0
   0   0 -39   -3.64   14.77   0
   1   2 -61   -1.37   21.79   0
  -3   3 -30  759.40   24.47   0
  -3   3  -9   -2.71   12.99   0
  -3   5 -47   -8.05   21.76   0
  -2   3 -47    0.84   19.28   0
  -2   5 -55   22.00   20.82   0
  -4   5  -9   35.35   14.88   0
  -1   1 -41   -7.25   17.46   0
   1   1 -57    9.26   20.79   0
  -3   3 -33   -1.84   15.82   0
  -3   4 -43   -5.84   19.23   0
  -1   2 -51   -1.53   18.86   0
   1  -1 -37    6.39   15.21   0
   1   0 -50  477.09   24.77   0
  -4   7 -41    9.93   19.49   0
  -3   6 -51   14.88   19.79   0
  -2   2 -40 1198.34   29.35   0
  -2   4 -54   71.67   21.79   0
   0   1 -52  549.22   25.99   0
  -2   3 -50  320.30   24.51   0
   0   0 -42 1194.61   29.34   0
  -3   3 -36  770.47   25.45   0
  -1   3 -58  213.39   24.74   0
   0   2 -59    2.23   22.07   0
  -4   7 -44  258.50   24.48   0
  -3   4 -46  135.61   21.53   0
  -1   1 -44  666.48   24.36   0
  -4   6 -43   -1.15   19.20   0
  -2   2 -43  -10.02   17.67   0
   1  -1 -40 1032.20   30.08   0
  -4   5 -39    1.24   18.96   0
  -3   3 -39   -2.28   17.66   0
  -2   4 -57  -27.73   22.37   0
  -1   2 -54  231.56   23.26   0
  -4   4 -26  968.05   26.03   0
  -4   4 -20 1539.01   30.77   0
  -3   5 -53    4.82   22.80   0
  -2   3 -53   11.44   22.24   0
   0   0 -45   -0.52   17.78   0
   0   1 -55    6.84   20.64   0
   1   0 -53   14.15   20.10   0
  -5   7 -24  724.71   26.74   0
  -5   7 -21   -3.65   20.37   0
  -4   4 -29   -2.27   15.76   0
  -4   4 -17    8.56   13.95   0
  -3   4 -49  -19.20   21.11   0
  -1   1 -47   -1.23   18.72   0
  -5   7 -27    2.75   19.20   0
  -4   5 -42  392.75   24.48   0
  -4   6 -46  218.45   21.85   0
  -3   3 -42  408.97   22.49   0
  -2   1 -24 2177.65   35.05   0
  -2   2 -46  508.49   24.00   0
  -1   0 -22  509.44   21.40   0
  -1   3 -61    4.40   22.89   0
  -5   7 -30  287.31   23.46   0
  -5   8 -31   13.12   20.23   0
  -4   4 -32  647.38   24.74   0
  -4   4 -14  424.24   19.71   0
  -2   1 -27    4.93   14.41   0
  -2   1 -21   44.99   13.51   0
   0   2 -62  159.58   24.01   0
  -2   1 -30  809.61   24.66   0
  -2   1 -18 1327.11   29.48   0
  -1   0 -19    0.28   11.97   0
  -1   2 -57   -4.69   22.76   0
   1  -1 -43    3.97   16.74   0
  -5   7 -33   -5.50   18.56   0
  -5   8 -34  275.11   22.78   0
  -4   4 -35    5.19   17.15   0
  -4   5 -45    7.83   21.44   0
  -4   6 -49   -8.91   22.12   0
  -3   4 -52  356.98   26.66   0
  -3   5 -56  225.20   24.49   0
   0   0 -48  793.99   27.31   0
  -5   6 -26  374.71   23.30   0
  -5   6 -23  -12.64   18.44   0
  -5   7 -36  321.09   24.21   0
  -4   4 -11    3.85   14.82   0
  -3   3 -45   11.42   18.29   0
  -2   1 -33    7.60   15.72   0
  -2   1 -15    7.26   12.29   0
  -1   1 -50  532.64   25.70   0
  -5   6 -29   17.11   18.40   0
  -5   8 -37  -11.37   19.83   0
  -4   4 -38  215.37   21.09   0
  -3   2 -26  669.24   22.98   0
  -3   2 -23   10.99   14.54   0
  -1   0 -34 1210.35   28.95   0
   0   1 -58  361.24   25.36   0
  -5   6 -32  642.26   26.00   0
  -5   6 -17    9.27   16.75   0
  -3   2 -29   19.30   15.94   0
  -3   2 -20 1642.20   31.30   0
  -2   1 -36 1270.75   28.56   0
  -5   6 -35  -11.49   19.77   0
  -5   7 -39   13.13   19.37   0
  -4   4 -41    6.25   20.65   0
  -4   5 -48  274.09   23.51   0
  -4   6 -52  274.28   24.97   0
  -3   2 -32 1598.57   31.34   0
  -3   3 -48  613.74   27.38   0
  -5   6 -14  563.58   24.34   0
  -3   2 -17   17.66   13.63   0
  -3   4 -55    9.85   21.02   0
  -1   0 -37   -6.73   14.90   0
  -1   2 -60  352.85   26.28   0
   0  -1 -26 1310.58   31.24   0
   0   2 -65   15.84   21.13   0
  -5   6 -38  264.13   23.20   0
  -5   7 -42  188.99   23.48   0
  -4   4  -8 1820.11   35.56   0
  -3   2 -35   -5.09   16.81   0
  -2   3 -59   14.24   20.18   0
  -1   1 -53   13.93   19.81   0
   0  -1 -29   -1.98   14.12   0
   0   0 -51    4.01   18.85   0
  -4   4 -44  757.08   28.27   0
  -4   5 -51   -2.12   19.89   0
  -3   2 -38  509.39   22.89   0
  -3   2 -14 1819.02   33.26   0
  -1   0 -40 1091.99   29.14   0
   0  -1 -32 2145.03   38.10   0
   0   1 -61    2.49   22.36   0
  -5   5 -28  956.52   27.58   0
  -5   5 -25   -9.16   16.70   0
  -5   5 -22  366.82   22.84   0
  -5   7 -45   12.32   21.46   0
  -4   3 -28  964.93   26.53   0
  -4   3 -25    2.79   15.44   0
  -4   4 -47   -7.74   22.45   0
  -3   2 -41    5.59   19.48   0
  -3   4 -58  224.76   23.40   0
  -2   2 -55   -7.58   22.18   0
   0  -1 -35    2.81   14.99   0
  -5   5 -19  -12.05   17.18   0
  -4   3 -31   44.86   16.50   0
  -4   3 -22  462.96   20.94   0
  -1   0 -43  -15.53   18.08   0
  -1   2 -63  -15.99   22.15   0
   0   0 -54   32.01   20.88   0
  -4   3 -34  752.87   25.70   0
  -4   3 -19   46.94   15.79   0
  -4   5 -54  145.07   22.05   0
  -2   3 -62  116.32   21.82   0
  -5   5 -16  912.07   27.15   0
  -4   3 -37   -9.45   17.59   0
  -4   4  -5    3.38   14.10   0
  -3   2 -44  531.24   23.59   0
  -3   2 -11   30.45   13.21   0
  -3   3 -54  228.84   22.54   0
   0  -1 -38  372.40   21.18   0
  -5   5 -40  373.22   25.76   0
  -4   4 -50  305.32   24.62   0
  -3   4 -61   -7.43   20.37   0
  -2   2 -58  205.87   23.85   0
  -1   0 -46  190.34   20.65   0
  -3   2 -47  -25.48   20.55   0
  -2   1 -48  539.43   24.74   0
   0  -1 -41   14.63   16.32   0
  -5   5 -13   -6.39   15.45   0
  -5   6 -50  214.13   23.58   0
  -3   3 -57    8.66   19.98   0
  -1   1 -59   -9.46   21.40   0
   0   0 -57   16.87   20.35   0
  -4   4 -53    1.42   20.62   0
  -6   7 -28  269.82   23.82   0
  -5   5 -46  154.93   21.96   0
  -4   3 -13   25.54   13.37   0
  -1   0 -49    4.20   18.63   0
  -6   7 -34  302.87   23.75   0
  -6   7 -31    9.32   18.21   0
  -6   7 -25    4.83   18.38   0
  -5   4 -33   -9.85   19.47   0
  -5   4 -30  285.91   21.39   0
  -4   3 -46  184.71   20.81   0
  -3   2 -50  292.69   23.93   0
  -2   1 -51    2.23   19.34   0
   0  -1 -44  614.99   25.11   0
  -6   7 -37   -1.97   21.06   0
  -5   4 -36  807.18   28.04   0
  -5   5 -10  839.81   27.17   0
  -4   4 -56  172.30   24.05   0
  -2   2 -61   -1.67   20.07   0
  -5   4 -21   16.35   16.90   0
  -5   5 -49    4.76   19.67   0
  -6   7 -40  417.91   25.15   0
  -5   4 -39   19.93   20.26   0
  -4   3 -49   -9.20   20.29   0
  -1   0 -52  578.44   26.90   0
  -1   1 -62   99.23   22.03   0
  -6   6 -33    2.61   20.42   0
  -6   6 -30  260.54   22.76   0
  -6   6 -27    3.52   19.87   0
  -4   3 -10 1294.57   29.87   0
  -3   1 -31    2.00   15.38   0
  -3   1 -28 1737.55   32.67   0
  -2   1 -54  264.71   22.49   0
   0  -1 -47  -12.51   17.65   0
  -6   6 -36  292.39   24.98   0
  -6   6 -24  889.59   28.77   0
  -6   7 -43   16.80   20.59   0
  -5   4 -42  412.89   23.60   0
  -5   4 -18  961.72   26.19   0
  -5   5 -52  369.51   26.26   0
  -3   1 -34  851.93   25.60   0
  -3   1 -25   19.00   14.11   0
  -2   0 -29   -6.62   15.18   0
  -6   6 -39   19.85   20.85   0
  -4   4 -59   -2.84   20.65   0
  -3   1 -37   16.83   16.98   0
  -2   0 -26 1518.16   30.64   0
  -2   2 -64  326.92   25.55   0
   1  -2 -33   10.58   14.54   0
   1  -2 -30  763.23   28.13   0
  -6   6 -21   -5.79   17.48   0
  -5   4 -45   15.74   20.71   0
  -4   2 -33    8.64   18.50   0
  -4   2 -30  308.14   21.29   0
  -3   1 -40  638.64   25.58   0
  -3   1 -22  580.63   21.72   0
  -3   3 -63   -0.11   19.08   0
  -2   0 -38  386.49   21.89   0
  -6   6 -42  286.16   24.67   0
  -5   4 -15   11.90   16.30   0
  -5   5  -7    8.76   15.51   0
  -4   2 -36  571.43   23.43   0
  -4   2 -27    3.80   15.99   0
  -2   0 -23    2.52   13.64   0
  -2   1 -57  -10.09   21.63   0
  -1   0 -55   -5.93   19.15   0
   0  -1 -50  455.79   24.25   0
  -5   4 -48  244.60   25.04   0
  -4   2 -39   -9.30   19.44   0
  -4   2 -24 2263.94   35.39   0
  -3   1 -43   25.33   19.37   0
  -2   0 -41   -7.81   17.66   0
  -1   1 -65    9.05   21.81   0
  -6   6 -45   -0.19   21.59   0
  -6   6 -18  380.33   22.81   0
  -3   1 -19    4.94   13.94   0
  -4   2 -42  694.74   26.47   0
  -4   2 -21   -1.39   14.95   0
  -2   0 -44 1182.29   31.42   0
  -2   0 -20 4079.57   47.26   0
  -6   5 -35    6.58   20.03   0
  -6   5 -32  635.54   26.29   0
  -6   5 -29   -0.71   19.55   0
  -5   4 -51  -18.64   20.06   0
  -4   3  -7   33.56   12.80   0
  -3   2 -59   14.39   20.30   0
  -1  -1 -33    4.79   14.81   0
  -1  -1 -30  772.02   25.17   0
  -6   5 -26  394.51   22.12   0
  -5   3 -32 1000.97   28.76   0
  -5   4 -12 1387.64   30.05   0
  -4   2 -45   -9.17   19.23   0
  -1  -1 -36 1237.93   30.25   0
  -1  -1 -27    2.27   14.00   0
  -1   0 -58  325.87   24.11   0
  -6   5 -23   -0.99   18.65   0
  -5   3 -38  152.53   22.25   0
  -5   3 -35   16.97   18.76   0
  -4   2 -18 1312.36   28.48   0
  -4   3 -58  235.73   23.73   0
  -3   1 -16 2275.80   35.90   0
  -2   0 -47  -14.08   19.09   0
  -1  -1 -39    5.73   16.88   0
  -5   3 -26  908.81   25.98   0
  -5   4 -54  103.71   24.02   0
  -4   2 -48  569.38   26.77   0
  -2   0 -17    0.97   12.83   0
  -5   3 -41    9.86   19.21   0
  -5   3 -23   13.35   17.36   0
  -3   2 -62  111.11   23.38   0
  -1  -1 -42  456.51   23.02   0
  -1  -1 -24 1984.44   35.16   0
  -6   5 -20  711.27   24.56   0
  -5   3 -44  437.16   25.71   0
  -2   0 -50  345.46   23.29   0
  -6   5 -47   15.18   19.84   0
  -4   2 -51   10.42   19.38   0
  -4   2 -15    6.45   13.55   0
  -3   1 -52  557.27   26.18   0
  -2   1 -63   -3.34   21.45   0
  -5   3 -47    1.71   21.85   0
  -5   4 -57   12.83   19.91   0
  -5   4  -9   39.45   16.01   0
  -1  -1 -45    1.83   15.98   0
  -6   5 -50  193.01   23.39   0
  -6   5 -17    6.87   17.40   0
  -3   1 -13   52.60   13.24   0
  -7   7 -35    7.58   19.56   0
  -3   1 -55   21.34   21.38   0
  -2   0 -53    4.65   20.69   0
  -2   0 -14  390.84   18.89   0
  -7   7 -38   89.54   20.42   0
  -6   4 -37   27.30   20.16   0
  -5   3 -50  400.46   23.69   0
  -4   3  -4 1416.25   32.28   0
  -1  -1 -48  570.47   24.88   0
  -6   4 -40  470.91   26.06   0
  -6   4 -28  683.13   24.73   0
  -6   4 -43  -11.98   22.37   0
  -6   4 -25    8.12   18.34   0
  -6   5 -14  564.28   23.70   0
  -5   3 -53   17.15   22.63   0
  -4   2 -12  911.45   24.73   0
  -3   1 -58  216.25   23.45   0
  -2   0 -56  208.26   23.17   0
  -1  -1 -51  -14.44   18.01   0
  -7   6 -37   18.65   20.19   0
  -7   6 -34  293.64   21.94   0
  -7   6 -31   17.45   19.52   0
  -6   4 -46  196.70   21.82   0
  -4   1 -35    5.21   17.53   0
  -4   1 -32 1317.90   28.81   0
  -7   6 -40  441.21   23.35   0
  -7   6 -28  290.28   22.33   0
  -6   4 -22  496.29   22.26   0
  -5   3 -56  217.22   24.02   0
  -5   3 -14  472.82   20.33   0
  -5   4  -6  454.09   21.16   0
  -4   1 -41   -3.33   19.41   0
  -4   1 -29    3.97   16.47   0
  -3   0 -33   -0.73   15.97   0
  -3   1 -10 2228.75   36.21   0
   0  -2 -34  368.99   21.14   0
  -7   6 -43   12.26   19.91   0
  -6   4 -49  -24.02   18.88   0
  -3   0 -30  419.37   20.51   0
   0  -2 -37    9.35   15.57   0
   0  -2 -31  -12.13   14.52   0
  -7   6 -25  -15.54   18.81   0
  -5   2 -40  750.83   27.61   0
  -5   2 -37   14.46   18.42   0
  -5   2 -31   11.48   16.60   0
  -4   1 -44  471.52   23.03   0
  -4   1 -26  884.12   24.82   0
  -4   2 -60  234.69   21.54   0
  -3   0 -42  511.40   22.86   0
  -3   0 -27    4.19   14.76   0
  -3   1 -61    9.74   20.86   0
  -2   0 -59   -2.09   20.11   0
  -1  -1 -54  249.01   21.48   0
   0  -2 -40 1177.51   31.35   0
  -6   4 -19   -1.14   15.66   0
  -6   5 -11   13.03   16.00   0
  -5   2 -43  -10.75   20.44   0
  -5   2 -28  605.23   22.59   0
  -3   0 -45   -1.62   18.58   0
  -2   0 -11    2.11   12.05   0
   0  -2 -28 1316.14   31.97   0
  -7   6 -22  256.63   20.68   0
  -4   1 -23   30.47   15.57   0
  -5   2 -46  131.35   21.19   0
  -5   2 -25   -4.86   16.16   0
  -5   3 -11   -0.09   14.96   0
  -3   0 -48  332.59   23.06   0
  -7   5 -39   19.93   21.55   0
  -7   5 -36  280.95   23.53   0
  -7   5 -33    3.14   21.07   0
  -6   4 -16  995.48   27.47   0
  -2  -1 -40  667.35   24.86   0
  -2  -1 -37    1.27   14.99   0
  -2  -1 -31    3.83   14.92   0
  -7   5 -42  181.58   22.72   0
  -6   3 -39  -13.50   20.67   0
  -6   3 -36  540.40   25.15   0
  -6   3 -33   10.43   19.25   0
  -5   2 -49   22.72   19.91   0
  -5   2 -22  438.53   21.77   0
  -4   1 -20 1050.66   25.77   0
  -2  -1 -43  -15.35   17.99   0
  -2   0 -62  180.67   21.51   0
   0  -2 -25   -5.05   12.72   0
  -7   5 -27    8.67   19.20   0
  -6   3 -42  306.74   24.35   0
  -6   3 -30  302.26   22.51   0
  -4   1 -53   18.88   20.88   0
  -3   0 -51   -7.98   18.82   0
  -3   0 -21   -8.58   13.77   0
  -6   3 -45    6.14   21.36   0
  -5   2 -52  288.68   23.85   0
  -3   1  -7    2.61   12.61   0
  -2  -1 -46  240.50   20.75   0
  -7   5 -24  716.09   25.86   0
  -6   3 -27  -15.51   16.23   0
  -6   3 -48  316.93   22.47   0
  -5   2 -19   -1.03   15.05   0
  -5   4  -3   -6.64   13.94   0
  -4   1 -17   -2.64   13.90   0
  -3   0 -54  196.02   20.98   0
  -2  -1 -49   26.94   18.55   0
  -6   4 -13   -5.06   14.32   0
  -5   2 -55  -18.49   19.87   0
  -3   0 -18 1560.63   29.45   0
  -7   5 -21  -10.12   17.29   0
  -6   3 -51  -10.67   18.92   0
  -5   3  -8 2479.19   37.15   0
  -4   2  -6  948.34   24.89   0
  -3   0 -57    2.92   19.92   0
  -2  -1 -52  535.83   24.61   0
  -5   2 -16 2202.85   33.84   0
  -4   1 -59    2.84   18.29   0
  -7   4 -41   -1.26   19.36   0
  -4   1 -14  850.07   22.88   0
  -7   4 -44  314.87   22.60   0
  -7   4 -29   18.22   18.71   0
  -7   5 -18  305.32   20.69   0
  -2  -1 -55   -2.03   19.39   0
  -1  -2 -38  493.21   22.42   0
  -7   4 -47    8.44   20.36   0
  -6   3 -18  605.14   21.93   0
  -6   4 -10  496.88   21.82   0
  -5   1 -39   26.42   19.23   0
  -5   1 -36  520.37   24.35   0
  -3   0 -60  372.22   23.66   0
  -3   0 -15   12.42   12.23   0
  -1  -2 -41   11.38   16.12   0
  -1  -2 -35   15.36   13.25   0
  -7   4 -26  289.53   21.91   0
  -5   1 -42  297.64   22.23   0
  -4   0 -37   -8.37   16.96   0
  -2  -1 -19   -0.66   12.25   0
  -1  -2 -44  520.27   23.68   0
  -1  -2 -32 1552.53   31.64   0
  -8   6 -35    7.46   18.41   0
  -8   6 -32  354.99   22.95   0
  -5   1 -45  -20.74   19.04   0
  -5   1 -30  477.64   21.85   0
  -4   0 -31   13.40   15.66   0
  -7   4 -23   15.36   17.83   0
  -7   5 -15    8.24   16.49   0
  -6   2 -38  219.46   20.47   0
  -6   2 -35   14.82   19.22   0
  -5   1 -48  447.01   24.49   0
  -4   0 -46  268.65   21.50   0
  -1  -2 -29   17.67   14.03   0
  -8   6 -29   16.42   17.58   0
  -6   2 -44  403.95   23.02   0
  -6   2 -32  570.60   23.38   0
  -6   3 -15  -12.62   15.41   0
  -5   1 -27   -1.54   15.24   0
  -5   3  -5    9.24   13.72   0
  -4   0 -49  -10.76   19.56   0
  -6   2 -47  -13.88   20.46   0
  -6   2 -29    7.40   16.02   0
  -4   1 -11   78.31   13.74   0
  -3  -1 -41   17.22   17.06   0
  -3  -1 -38  251.38   18.64   0
  -3  -1 -35    8.18   16.53   0
  -5   1 -24 1298.32   27.42   0
  -4   0 -52  258.28   22.77   0
  -4   0 -25   -1.33   14.68   0
  -4   2  -3   -0.38   12.70   0
  -3  -1 -44  485.14   23.36   0
  -3   0 -12 2818.52   36.96   0
  -1  -2 -26  657.54   22.74   0
  -7   4 -20  656.70   23.08   0
  -6   2 -50  208.75   20.58   0
  -6   2 -26  525.29   21.99   0
  -3  -1 -47   -3.42   19.22   0
  -2  -1 -16 2292.02   34.46   0
  -8   5 -37    9.21   18.47   0
  -6   4  -7   -3.06   13.62   0
  -7   3 -40  310.57   21.52   0
  -7   3 -37   31.77   18.12   0
  -6   2 -53    8.92   16.87   0
  -5   1 -21    9.88   14.97   0
  -4   0 -22  900.56   23.65   0
  -2   3 -26  674.80   18.58   0
   0   1 -31   -4.21   10.43   0
  -4   6 -10  483.47   18.33   0
  -4   6  -7   -0.97   11.01   0
  -4   6  -4 1076.88   23.53   0
  -4   7 -17   15.98   13.46   0
  -4   8 -18  335.66   18.51   0
  -4   9 -10  227.90   17.54   0
   1   4 -51    8.89   17.08   0
  -4   6  -1    4.85   11.23   0
  -4   9 -13   13.17   14.55   0
  -3   4 -19   37.20   11.00   0
  -3   8 -32  399.83   18.64   0
  -1   5 -45    4.30   15.08   0
  -1   6 -46  155.65   17.12   0
   0   3 -45  -10.72   14.55   0
  -4   6 -13    7.95   11.63   0
  -4   9 -16  573.02   20.73   0
  -3   5 -29   14.45   12.32   0
  -3   7 -34  284.05   17.66   0
  -2   6 -41   -2.32   14.93   0
  -4   6   2  734.27   21.33   0
  -4   8 -21    2.37   14.26   0
  -3   6 -33    7.19   13.63   0
  -2   4 -36  546.70   19.58   0
  -2   5 -40  732.36   21.89   0
  -2   7 -42  287.17   19.16   0
   0   5 -50  166.04   16.36   0
   1   2 -46  245.42   17.31   0
  -4   9 -19   15.32   15.19   0
  -3   4 -22  493.23   16.99   0
  -2   3 -29    8.03   11.64   0
  -1   4 -44  442.99   19.36   0
   0   2 -41   -0.73   12.75   0
   0   4 -49   -5.18   15.30   0
  -3   8 -35   11.43   15.17   0
  -1   3 -40  658.03   20.03   0
  -4   9 -22  164.11   17.25   0
  -2   2 -13   12.20    9.49   0
  -1   2 -33    8.23   10.90   0
  -3   4 -25   -5.72   11.27   0
  -3   7 -37   11.88   14.84   0
  -1   5 -48  454.90   21.14   0
   0   1 -34 1255.96   25.35   0
  -4   6 -22  516.52   18.25   0
  -4   7 -26  276.22   17.51   0
  -2   2 -16 3355.14   37.29   0
  -1   6 -49   17.68   14.60   0
   1   0 -32 2150.54   35.10   0
  -4   9 -25    4.45   15.41   0
  -3   8 -38  124.36   17.15   0
  -2   3 -32 1593.41   26.15   0
  -2   7 -45    2.97   14.37   0
   0   3 -48  341.18   19.60   0
   1   1 -42  455.47   19.09   0
  -4   5  -9   48.82   12.01   0
   0   5 -53    4.67   15.49   0
  -4   5 -12 1373.94   24.46   0
  -4   5  -6  462.76   16.76   0
  -4   6 -25  -16.09   12.87   0
  -4   7 -29   15.44   14.97   0
  -4   8 -30  201.46   17.94   0
  -3   4 -28  984.54   21.77   0
  -3   5 -35   31.66   13.99   0
  -3   7 -40  278.51   19.34   0
  -2   2 -19   -2.47   10.02   0
  -1   4 -47   16.00   14.86   0
  -4   5  -3   -1.72   10.78   0
  -4   9 -28  184.78   17.40   0
  -3   6 -39    8.85   15.28   0
  -1   2 -36 1283.58   24.61   0
  -1   3 -43    0.48   13.34   0
   0   2 -44 1182.43   26.16   0
   0   4 -52  252.27   18.94   0
  -4   5 -18  979.78   22.10   0
  -4   5   0 1685.69   28.74   0
  -4   6 -28  683.78   20.56   0
  -4   7 -32  466.11   20.28   0
  -2   2 -22 2348.94   31.24   0
  -1   5 -51    2.40   16.30   0
  -4   5 -21   15.53   13.47   0
  -4   8 -33   11.46   14.32   0
  -3   3 -12 2243.63   30.47   0
  -3   3  -9   -3.49    9.53   0
  -3   4 -31   24.09   12.89   0
   0   1 -37    4.18   11.99   0
  -3   3 -15   -0.87   10.40   0
  -3   5 -38  167.21   16.22   0
  -3   7 -43    9.19   16.71   0
  -5   8 -13   -2.84   14.66   0
  -5   8 -10  348.64   18.31   0
  -5   8  -7    7.82   14.33   0
  -4   6 -31  -17.80   14.22   0
  -3   6 -42  311.46   18.52   0
   1   0 -35   -4.75   10.91   0
  -5   8 -16  685.47   21.97   0
  -5   9 -14  147.35   16.80   0
  -4   5 -24  885.30   21.48   0
  -4   5   3   53.41   12.03   0
  -4   7 -35   12.14   14.67   0
  -3   3 -18  634.56   18.25   0
  -3   3  -3   -3.46    9.42   0
  -2   2 -25   -7.05   10.22   0
  -1   2 -39   -1.01   13.04   0
  -1   3 -46  247.58   18.07   0
  -1   4 -50  345.92   18.77   0
   0   3 -51   -6.95   15.77   0
  -5   8 -19   -1.97   14.82   0
  -5   9 -17   10.11   15.20   0
  -4   8 -36  265.16   17.79   0
  -2   6 -50  196.73   18.77   0
  -5   7 -15    2.94   14.05   0
  -5   7 -12  567.87   20.11   0
  -5   7  -9   -2.09   13.00   0
  -3   3 -21    1.28   10.86   0
   0   2 -47    4.85   13.59   0
   0   4 -55    2.00   15.53   0
  -5   7 -18  314.30   17.66   0
  -5   7  -6  603.60   20.20   0
  -5   8 -22  218.21   16.90   0
  -5   9 -20  242.14   16.83   0
  -4   5 -27   14.63   12.74   0
  -3   5 -41    4.93   13.89   0
  -3   7 -46  161.34   17.95   0
  -2   4 -45    9.45   14.47   0
  -2   5 -49  -18.41   16.70   0
  -5   9 -23   23.16   15.72   0
  -4   7 -38  256.80   17.72   0
  -3   3 -24 2043.57   29.11   0
  -3   6 -45   11.51   15.47   0
  -2   2 -28 1402.78   24.63   0
  -1   5 -54  173.77   16.70   0
  -5   7 -21    0.14   14.38   0
  -5   7  -3   11.54   13.03   0
  -5   8 -25    6.56   14.66   0
  -4   8 -39  -22.54   15.16   0
  -1   1 -29    6.93   10.83   0
   0   1 -40 1056.65   24.61   0
  -5   9 -26  280.41   18.38   0
  -4   5 -30  279.88   16.28   0
  -4   6 -37   -6.74   16.05   0
  -3   4 -37   -5.23   13.19   0
  -5   8 -28  300.59   18.76   0
  -3   3 -27    4.58   12.36   0
  -2   3 -41    5.71   13.03   0
  -1   2 -42  486.19   19.29   0
  -1   4 -53    9.32   16.39   0
  -4   4 -14  396.97   16.41   0
  -4   7 -41    7.26   16.91   0
  -2   6 -53   -1.20   15.98   0
  -1   3 -49    3.67   14.06   0
  -5   6 -14  575.64   20.05   0
  -5   6 -11   23.49   12.61   0
  -5   9 -29    0.55   15.41   0
  -4   4 -17   -2.40   11.15   0
  -4   5 -33    9.37   14.18   0
  -3   6 -48  300.66   19.51   0
  -2   4 -48  529.70   20.68   0
   0   0 -27   -0.58    9.63   0
  -5   6 -17   26.13   12.85   0
  -5   6  -8 1128.46   24.36   0
  -4   4 -20 1562.74   25.55   0
  -4   4  -8 1815.26   27.92   0
  -3   4 -40  769.07   22.30   0
  -2   5 -52  275.91   18.61   0
  -5   7 -30  292.39   18.67   0
  -4   6 -40  497.94   19.92   0
  -3   3 -30  794.48   20.44   0
  -1   1 -32 2196.30   31.23   0
   0   2 -50  308.32   18.64   0
  -5   6  -5    6.73   12.20   0
  -4   4 -23   11.88   12.03   0
  -4   4  -5   -0.82    9.47   0
  -5   8 -34  285.68   17.64   0
  -4   7 -44  298.10   18.39   0
  -2   3 -44  512.48   19.56   0
   0   1 -43    0.02   12.64   0
  -5   6 -26  351.41   17.91   0
  -5   7 -33   -0.51   14.72   0
  -4   4 -26  971.86   21.92   0
  -3   3 -33   -2.80   12.05   0
  -1   2 -45   -4.50   12.63   0
  -5   6  -2  418.74   17.62   0
  -4   4  -2 1547.76   27.79   0
  -4   6 -43   14.10   15.71   0
  -2   4 -51   -7.43   16.22   0
  -1   3 -52  536.22   21.81   0
  -1   4 -56  287.66   20.22   0
   0   0 -30  189.62   13.78   0
  -5   6 -29   23.45   14.37   0
  -5   8 -37    7.13   16.13   0
  -4   4 -29   -9.62   14.02   0
  -4   5 -39   12.01   16.37   0
  -2   5 -55   -3.95   16.28   0
  -1   1 -35    0.87   11.75   0
  -5   7 -36  294.97   19.43   0
  -4   7 -47   25.16   16.70   0
  -2   2 -37   11.55   12.54   0
  -3   3 -36  787.05   20.61   0
  -2   3 -47    4.28   14.86   0
  -5   6 -32  662.38   21.08   0
  -5   6   1   18.70   12.32   0
  -4   4 -32  694.27   19.89   0
  -6   9 -18  348.20   18.72   0
  -4   4   1    5.73   10.78   0
  -4   5 -42  392.79   20.12   0
  -4   6 -46  224.45   17.57   0
  -6   8 -20  317.03   19.19   0
  -6   8 -17   -6.46   15.17   0
  -6   8 -14  207.61   17.34   0
  -6   9 -21   -7.64   15.59   0
  -5   5 -13    2.08   11.80   0
  -5   6 -35  -11.14   16.17   0
  -5   7 -39   11.23   14.85   0
  -1   1 -38  359.46   17.32   0
  -1   2 -48  525.13   19.71   0
   0   0 -33    4.53   11.15   0
  -6   8 -23  -11.09   16.15   0
  -6   8 -11  -11.08   14.84   0
  -6   9 -24  332.83   19.11   0
  -5   5 -22  367.22   16.80   0
  -5   5 -10  840.42   21.03   0
  -4   4 -35  -14.71   14.92   0
  -2   2 -40 1231.20   25.16   0
  -2   4 -54   79.62   16.03   0
  -1   3 -55   -5.53   17.37   0
  -6   8 -26  367.16   19.54   0
  -6   9 -27   -0.44   15.75   0
  -5   5 -25    8.95   13.23   0
  -2   5 -58  261.25   18.75   0
  -5   5  -7    1.46   12.08   0
  -5   7 -42  214.62   19.14   0
  -4   6 -49    7.67   16.89   0
  -3   5 -53    9.41   16.88   0
  -6   7 -19   25.51   15.13   0
  -6   7 -16  912.29   23.57   0
  -6   8 -29    0.82   16.47   0
  -5   5 -28  894.73   21.89   0
  -5   6 -38  268.41   18.41   0
  -4   5 -45   -5.20   15.81   0
  -3   2 -20 1777.68   27.31   0
  -3   2 -17   21.52   10.68   0
  -2   3 -50  326.26   18.61   0
  -6   7 -22  267.71   17.68   0
  -6   7 -13  -13.60   14.35   0
  -4   4 -38  233.11   17.02   0
  -3   2 -23    5.52   10.56   0
  -3   2 -14 1788.03   27.77   0
  -3   4 -49  -13.24   14.65   0
  -2   1 -18 1344.30   25.76   0
  -6   7 -25  -11.91   15.08   0
  -6   7 -10  335.47   17.92   0
  -5   5 -31  -10.23   14.33   0
  -5   5  -4 1403.57   26.59   0
  -3   2 -11   30.07   10.48   0
  -2   1 -21   38.30   10.79   0
  -2   1 -15    1.07    9.84   0
  -2   2 -43    5.66   14.17   0
  -1   1 -41    1.34   12.62   0
   0   0 -36  742.82   22.47   0
  -5   6 -41   21.30   17.29   0
  -5   7 -45    0.55   16.64   0
  -4   4   4 1661.45   31.27   0
  -3   2 -26  659.29   19.09   0
  -2   1 -24 2090.05   30.50   0
  -1   2 -51    5.02   14.98   0
  -6   7  -7   19.24   14.01   0
  -5   5 -34  459.71   19.88   0
  -4   3 -22  473.33   16.94   0
  -4   3 -19   38.42   11.97   0
  -4   3 -16 2460.51   31.44   0
  -2   4 -57   16.38   16.47   0
  -4   3 -25   -5.44   13.09   0
  -4   3 -13   21.47   11.02   0
  -4   4 -41   -8.95   14.63   0
  -4   5 -48  279.08   18.07   0
  -3   2 -29   12.45   12.03   0
  -3   2  -8 3391.89   38.94   0
  -3   5 -56  216.55   19.31   0
  -5   5  -1   -2.87   12.13   0
  -3   3 -45   -6.71   15.39   0
  -3   4 -52  413.01   21.74   0
  -2   3 -53    6.18   16.04   0
  -5   5 -37    4.78   15.02   0
  -5   6 -44  320.24   18.55   0
  -4   3 -28  978.95   22.26   0
  -4   3 -10 1288.19   24.22   0
  -6   6 -21   -0.13   14.82   0
  -6   6 -18  383.02   18.41   0
  -6   7 -34  320.84   18.31   0
  -3   2 -32 1623.81   26.66   0
  -2   2 -46  476.68   20.05   0
  -1   1 -44  652.48   21.48   0
  -6   6 -15   -2.11   12.98   0
  -4   3 -31   21.26   13.45   0
  -4   4 -44  759.51   22.65   0
   0   0 -39    1.48   11.73   0
  -6   6 -12  521.78   19.95   0
  -6   7 -37   25.32   17.13   0
  -5   5 -40  357.29   20.58   0
  -3   2  -5   11.80    9.35   0
  -6   6 -30  251.68   18.50   0
  -5   4 -24  933.92   22.11   0
  -5   4 -21   34.24   12.48   0
  -5   4 -18  972.98   21.84   0
  -5   6 -47    2.88   16.80   0
  -3   3 -48  584.45   22.21   0
  -2   1 -33   12.61   12.48   0
  -2   4 -60  236.97   18.79   0
  -6   6  -9    1.26   13.50   0
  -5   4 -27    3.79   12.99   0
  -4   3 -34  751.72   20.59   0
  -3   4 -55   -4.85   16.99   0
  -1   0 -22  500.45   18.42   0
  -6   6 -33    2.29   16.44   0
  -6   7 -40  438.72   20.42   0
  -5   5   2  432.68   18.33   0
  -2   3 -56  411.60   21.17   0
  -5   4 -30  292.91   17.07   0
  -4   3 -37   -2.91   14.74   0
  -2   2 -49  -21.66   13.48   0
  -1   0 -25    4.51    9.12   0
  -7   9 -22  109.29   16.39   0
  -6   6  -6  592.54   20.17   0
  -5   4  -9   46.56   12.30   0
  -5   6 -50  187.14   18.82   0
  -4   3  -4 1478.56   26.38   0
  -4   5 -54  122.08   16.92   0
  -2   1 -36 1198.75   24.42   0
  -1   1 -47   -1.36   13.48   0
  -6   6 -36  288.35   18.14   0
  -6   7 -43   -1.38   16.54   0
  -5   4 -33   10.03   13.79   0
  -1   0 -28 1552.74   27.76   0
  -7   8 -24  382.79   19.98   0
  -7   8 -21   11.81   15.15   0
  -7   8 -18  386.86   19.63   0
  -5   5 -46  176.50   19.18   0
  -3   3 -51   20.99   14.81   0
  -7   8 -27   14.96   15.99   0
  -7   8 -15   -1.16   14.55   0
  -6   6 -39   17.00   16.89   0
  -5   4 -36  749.30   22.03   0
  -4   3 -40  736.06   20.94   0
  -4   4 -50  308.03   19.30   0
  -3   2 -41    6.10   13.03   0
  -3   4 -58  256.43   19.84   0
  -1   0 -31   -7.41   11.04   0
  -7   8 -30   78.98   17.18   0
  -6   6  -3   -1.82   12.57   0
  -5   4  -6  457.63   16.94   0
  -2   1 -39    1.53   12.01   0
  -6   5 -26  379.31   18.31   0
  -6   5 -17    3.28   13.95   0
  -4   5 -57    5.15   16.37   0
  -2   2 -52  334.45   19.34   0
  -7   8 -33    2.48   14.35   0
  -6   5 -29   -7.59   14.77   0
  -6   6 -42  266.05   20.51   0
  -5   4 -39   19.15   14.96   0
  -4   3  -1   58.75   11.19   0
  -7   7 -26  343.60   19.76   0
  -7   7 -23  -12.31   16.01   0
  -7   7 -20  289.27   19.22   0
  -6   5 -32  660.55   22.16   0
  -5   5 -49    9.18   14.97   0
  -3   2 -44  489.50   19.65   0
  -3   3 -54  207.60   18.37   0
  -1   0 -34 1233.75   25.90   0
  -7   7 -29  -13.81   16.66   0
  -7   7 -17  -15.75   15.43   0
  -6   5 -11   18.13   13.92   0
  -4   4 -53   -5.39   15.53   0
  -2   1 -42  506.08   19.56   0
  -7   7 -14  231.29   17.50   0
  -6   5 -35  -10.99   16.35   0
  -6   6 -45   -3.89   17.25   0
  -5   4 -42  402.65   19.93   0
  -5   4  -3   -4.43   10.16   0
  -6   5 -38  266.35   19.53   0
  -6   5  -8 1067.81   24.16   0
  -3   2 -47   11.59   15.44   0
  -2   2 -55   -7.63   15.83   0
  -1   0 -37    9.41   11.63   0
  -5   4 -45    2.37   15.04   0
  -4   2 -27    3.07   12.42   0
  -4   2 -24 2334.04   30.58   0
  -4   2 -21   -0.06   11.70   0
  -2   1 -45   17.20   13.98   0
  -7   7 -38   91.17   17.81   0
  -6   6 -48  327.70   20.36   0
  -4   2 -30  262.95   16.06   0
  -4   2 -18 1291.91   23.86   0
  -4   4 -56  172.28   18.82   0
  -3   3 -57   -1.35   16.25   0
  -6   5 -41   16.78   15.57   0
  -5   3 -29   -4.78   12.99   0
  -5   3 -26  874.86   21.41   0
  -5   3 -20  794.15   20.44   0
  -4   2 -15    4.30   10.42   0
  -4   3 -49   13.12   15.92   0
  -3   1 -25   33.94   11.64   0
  -3   1 -22  573.71   17.72   0
  -7   6 -25    2.96   15.42   0
  -7   6 -22  289.97   18.14   0
  -5   3 -17   12.38   11.94   0
  -5   4   0 1701.40   29.46   0
  -4   2 -33    3.74   12.87   0
  -4   3   2  936.44   23.54   0
  -3   1 -28 1780.89   27.72   0
  -3   1 -19   -2.46   10.80   0
  -1   0 -40 1099.28   25.22   0
  -7   6 -19   32.31   14.53   0
  -6   5  -5    7.14   11.31   0
  -5   4 -48  254.94   18.66   0
  -5   5 -55   -7.48   14.63   0
  -3   2 -50  327.90   18.96   0
  -7   6 -16  939.60   23.85   0
  -6   5 -44  326.92   18.86   0
  -5   3 -35   -9.79   13.92   0
  -5   3 -14  485.64   17.32   0
  -4   2 -12  944.58   21.19   0
  -3   1 -16 2294.31   31.06   0
  -7   6 -34  294.36   18.18   0
  -6   4 -25   -1.77   14.82   0
  -2   1 -48  559.00   20.04   0
  -7   6 -13    0.66   14.11   0
  -6   4 -28  688.45   21.11   0
  -6   4 -22  518.69   18.60   0
  -5   3 -38  155.07   17.42   0
  -4   3 -52  419.02   20.36   0
  -4   4 -59    7.12   16.95   0
  -7   6 -37    9.83   15.74   0
  -6   4 -31    6.05   14.06   0
  -6   5 -47   -3.30   17.05   0
  -3   1 -37   -9.44   13.32   0
  -3   1 -13   41.29   10.83   0
  -3   3 -60  239.13   19.03   0
  -1   0 -43  -11.35   12.56   0
  -6   4 -34  327.74   19.03   0
  -6   5  -2  431.13   18.48   0
  -4   2  -9   -1.41   10.20   0
  -3   2 -53   -8.23   16.14   0
  -8   8 -25    2.00   16.27   0
  -7   6 -40  446.66   20.29   0
  -7   6 -10  340.67   18.19   0
  -5   3 -41    6.06   15.35   0
  -8   8 -22  162.36   16.56   0
  -6   4 -37    0.53   15.20   0
  -6   4 -13    2.65   12.18   0
  -5   3  -8 2537.93   32.97   0
  -2   1 -51    2.40   14.01   0
  -7   6 -43   -2.74   16.74   0
  -6   5 -50  182.41   16.91   0
  -5   4   3   53.90   12.11   0
  -4   3 -55    1.41   15.30   0
  -3   1 -10 2217.73   31.15   0
  -2   0 -29    1.69   10.63   0
  -6   4 -40  473.37   20.57   0
  -5   3 -44  467.06   20.42   0
  -4   2 -45    9.04   15.17   0
  -2   0 -32  788.37   21.18   0
  -2   0 -20 4040.33   41.55   0
  -7   5 -30  320.99   19.92   0
  -6   4 -10  472.72   17.64   0
  -3   1 -43    6.61   14.89   0
  -7   5 -33   -2.91   16.75   0
  -7   5 -21    2.90   14.01   0
  -6   4 -43   -4.08   17.11   0
  -3   2 -56  428.12   21.01   0
  -2   0 -35    1.86   11.77   0
   0  -1 -32 2172.43   36.73   0
  -8   7 -30  109.45   17.32   0
  -8   7 -27    1.56   16.04   0
  -8   7 -24  387.63   20.16   0
  -7   5 -18  314.04   17.51   0
  -6   5   1   25.66   13.19   0
  -5   3  -5   19.74   12.02   0
  -2   0 -17   -4.89    9.38   0
  -8   7 -33   -9.63   15.70   0
  -8   7 -21    5.91   14.03   0
  -7   5 -36  305.39   18.98   0
  -4   2 -48  509.67   21.56   0
  -4   3 -58  201.74   18.96   0
  -8   7 -18  365.83   19.59   0
  -7   5 -39   -9.45   17.29   0
  -7   5 -15    9.88   13.44   0
  -6   4 -46  203.34   19.11   0
  -6   4  -7   -6.48   12.88   0
  -3   1 -46  250.29   17.54   0
  -3   1  -7   -6.38   10.20   0
  -2   0 -38  393.52   17.92   0
   0  -1 -35   -1.00   11.15   0
  -2   0 -14  389.78   16.62   0
  -8   7 -15    3.80   15.41   0
  -7   5 -12  581.17   20.17   0
  -5   3 -50  389.28   19.77   0
  -7   5 -42  203.04   17.33   0
  -6   4 -49    1.41   16.94   0
  -5   2 -31   15.48   15.01   0
  -5   2 -28  570.45   19.42   0
  -5   2 -25   -5.26   12.90   0
  -4   2 -51   17.87   16.43   0
  -2   0 -41    0.79   12.99   0
  -6   3 -27    5.54   15.13   0
  -5   2 -22  407.20   16.96   0
  -3   1 -49    2.35   14.87   0
  -7   5 -45   17.27   16.71   0
  -6   3 -33   -2.56   15.98   0
  -6   3 -30  326.20   17.58   0
  -6   3 -24  848.74   21.70   0
  -6   3 -21    0.14   14.84   0
  -6   4  -4 1124.51   24.20   0
  -5   2 -19   11.30   12.72   0
  -5   3  -2 1013.94   23.16   0
  -4   1 -29   -2.29   13.31   0
  -4   1 -26  911.37   21.14   0
  -8   6 -29    8.51   16.06   0
  -8   6 -26  399.07   18.47   0
  -8   6 -23    3.77   15.65   0
  -7   5  -9    2.40   12.38   0
  -5   2 -37    4.18   14.54   0
  -5   3 -53  -12.33   15.68   0
  -4   1 -32 1321.53   25.15   0
  -4   1 -23   37.97   12.45   0
  -8   6 -20  336.16   19.32   0
  -6   3 -18  562.27   19.18   0
  -5   2 -16 2187.49   29.78   0
  -4   1 -20 1106.11   22.62   0
  -2   0 -44 1185.02   26.01   0
  -6   3 -39    5.94   15.09   0
  -5   2 -40  743.65   21.71   0
  -4   2 -54   76.63   15.67   0
  -3   1  -4 3116.06   38.18   0
  -8   6 -17   -3.94   15.43   0
  -7   4 -32  491.71   20.87   0
  -7   4 -29   26.32   15.50   0
  -7   4 -26  290.32   17.66   0
  -4   1 -17    4.42   12.02   0
  -3   1 -52  519.43   21.02   0
  -7   4 -35   12.14   16.65   0
  -7   5  -6  621.99   20.64   0
  -6   3 -42  288.12   18.33   0
  -5   2 -13   -6.26   11.30   0
  -5   3 -56  245.62   19.02   0
  -8   6 -14  186.42   17.53   0
  -4   1 -41   -6.44   13.78   0
  -2   0 -47    7.97   13.86   0
  -7   4 -38  287.54   18.17   0
  -7   4 -17   33.73   14.79   0
  -6   4  -1    5.15   11.78   0
  -4   2   0 4374.18   44.63   0
  -7   4 -41   14.65   17.31   0
  -6   3 -45   17.21   15.11   0
  -5   2 -46   99.19   16.86   0
  -5   3   1    1.30   10.70   0
  -4   1 -14  812.96   19.73   0
  -4   2 -57    0.84   16.23   0
  -3   0 -33    0.25   12.74   0
  -1  -1 -30  789.48   21.90   0
  -1  -1 -27    2.56   10.19   0
  -5   2 -10  828.67   20.37   0
  -4   1 -44  462.29   19.44   0
  -3   0 -24 1322.11   24.24   0
  -3   1 -55   -9.36   15.48   0
  -1  -1 -33   14.96   11.17   0
  -1  -1 -24 1994.63   32.00   0
  -8   6 -11   -0.09   14.72   0
  -7   4 -44  308.09   19.94   0
  -7   4 -14  505.67   18.95   0
  -3   0 -36 1221.80   24.52   0
  -3   0 -21   -8.47   10.99   0
  -8   5 -25   -3.95   16.16   0
  -7   5  -3   10.10   13.01   0
  -6   3  -9   22.62   13.11   0
  -5   2 -49    8.25   16.47   0
  -1  -1 -36 1241.53   26.35   0
  -1  -1 -21   34.07   10.56   0
  -8   5 -34  279.20   18.59   0
  -8   5 -22  214.61   18.08   0
  -4   1 -47  -12.76   14.78   0
  -4   1 -11   65.99   11.55   0
  -3   0 -39   -1.64   12.53   0
  -8   5 -37    2.08   15.37   0
  -7   4 -47   -3.91   16.80   0
  -7   4 -11    4.06   13.76   0
  -4   2 -60  251.87   19.23   0
  -3   0 -18 1607.33   25.93   0
  -1  -1 -39   -4.85   12.75   0
  -8   5 -19   18.01   14.51   0
  -6   3 -51    2.58   15.56   0
  -9   7 -22  105.98   15.71   0
  -6   4   2  728.19   21.13   0
  -5   2 -52  291.42   18.36   0
  -4   1 -50  369.84   19.80   0
  -8   5 -16  699.94   21.97   0
  -6   3  -6  627.03   19.59   0
  -3   0 -15   10.08   10.30   0
  -7   4  -8  766.26   21.65   0
  -6   2 -29   12.70   14.35   0
  -6   2 -26  566.01   19.60   0
  -4   1  -8 3109.63   34.76   0
  -3   0 -45    0.81   14.17   0
  -7   3 -31  -18.40   16.46   0
  -7   3 -28  626.51   21.47   0
  -6   2 -35   -9.68   14.09   0
  -6   2 -23    2.06   13.68   0
  -5   1 -30  445.84   19.63   0
  -4   2   3    2.99    9.63   0
  -8   5 -13    0.75   15.04   0
  -7   3 -34  283.39   18.89   0
  -7   3 -25   26.37   14.64   0
  -6   2 -20  914.57   22.57   0
  -5   1 -36  492.77   20.10   0
  -5   1 -33    7.89   14.12   0
  -5   1 -27    7.43   12.92   0
  -5   1 -24 1246.96   24.74   0
  -5   2 -55   -4.80   16.02   0
  -5   3   4  858.78   22.39   0
  -4   1 -53    3.32   15.69   0
  -7   3 -37   14.11   15.73   0
  -6   2 -41   -1.40   16.40   0
  -5   2  -4  869.70   20.65   0
  -3   0 -48  356.55   18.96   0
  -9   6 -27   11.11   15.34   0
  -7   3 -40  279.58   19.43   0
  -5   1 -21   22.81   12.75   0
  -3   0 -12 2850.31   33.86   0
  -9   6 -24  326.83   18.85   0
  -8   5 -10  353.90   18.59   0
  -7   4  -5   24.23   13.39   0
  -6   2 -17   -0.05   12.87   0
  -6   3  -3   14.25   12.29   0
  -2  -1 -31    8.23   11.88   0
  -2  -1 -28 1700.27   28.28   0
  -9   6 -21    0.36   15.21   0
  -8   4 -33    5.72   16.52   0
  -8   4 -30  176.70   18.03   0
  -7   3 -43   -8.32   14.51   0
  -5   1 -42  303.89   18.17   0
  -5   1 -18  502.48   17.63   0
  -2  -1 -34  834.79   21.25   0
  -2  -1 -25   19.27   11.52   0
  -8   4 -36  275.01   18.90   0
  -4   0 -28  839.97   21.63   0
  -4   1 -56  282.67   18.54   0
  -4   1  -5    3.82    9.54   0
  -3   0 -51   -8.77   16.24   0
  -2  -1 -37    9.71   12.42   0
  -8   4 -39    5.71   15.89   0
  -7   3 -46  130.40   17.54   0
  -6   2 -14  420.43   16.77   0
  -5   1 -45    2.02   14.99   0
  -4   0 -25   -5.05   11.39   0
  -8   4 -21   18.09   14.06   0
  -5   1 -15   31.17   12.41   0
  -4   0 -37    1.86   12.92   0
  -2  -1 -40  680.56   20.96   0
  -8   4 -18  357.28   18.92   0
  -8   5  -7   -4.07   13.01   0
  -7   3 -13   16.79   14.40   0
  -3   0  -9   -6.83    9.49   0
  -9   6 -15    8.80   14.08   0
  -6   2 -50  226.59   17.32   0
  -5   1 -48  448.08   19.43   0
  -5   2  -1   11.46    9.75   0
  -7   4  -2  376.85   17.28   0
  -6   3   0 1317.13   25.38   0
  -4   0 -43    8.13   14.57   0
  -4   0 -19   11.83   11.41   0
  -2  -1 -43   17.60   13.17   0
  -8   4 -15   18.49   14.69   0
  -5   1 -12 1115.42   21.94   0
  -9   5 -29    2.61   13.45   0
  -9   5 -26  261.79   18.11   0
  -7   3 -10  540.05   18.62   0
  -6   2 -53    0.96   15.65   0
  -5   1 -51  -12.50   15.07   0
  -9   5 -23    6.51   15.31   0
  -5   3   7   22.06   11.35   0
  -4   0 -46  252.40   16.71   0
  -4   0 -16 1928.96   27.46   0
  -8   4 -12  425.54   18.70   0
  -2  -1 -16 2262.44   30.95   0
  -7   2 -33   10.94   16.35   0
  -7   2 -30  141.90   17.27   0
  -5   1  -9    4.50   11.13   0
  -3   0  -6  615.50   17.98   0
  -7   2 -36  453.94   19.95   0
  -7   2 -27   12.67   15.14   0
  -7   3  -7   13.02   13.13   0
  -6   1 -34  430.12   19.35   0
  -6   1 -31   14.42   15.04   0
  -5   1 -54  130.17   16.76   0
  -4   0 -49  -11.54   15.11   0
  -3  -1 -32 1257.41   24.73   0
  -3  -1 -29   -3.27   12.17   0
  -9   5 -17   -3.56   14.65   0
  -7   2 -39    2.81   15.00   0
  -7   2 -24  546.09   19.81   0
  -7   4   1   15.63   12.31   0
  -6   1 -37   28.24   15.12   0
  -6   1 -25   20.50   13.37   0
  -4   0 -13   -0.02   10.77   0
  -3  -1 -35   18.77   12.38   0
  -8   3 -35    5.53   15.52   0
  -8   3 -32  436.71   19.73   0
  -8   3 -29   -6.25   14.62   0
  -8   3 -26  350.18   19.14   0
  -8   4  -9   -0.91   13.44   0
  -7   2 -42  315.43   19.09   0
  -7   2 -21    5.53   14.77   0
  -6   1 -40  371.19   17.86   0
  -5   2   2  998.03   21.74   0
  -3  -1 -38  261.63   15.71   0
  -8   3 -38  141.84   16.34   0
  -6   1 -22  336.04   16.54   0
  -6   2  -5   -8.21   11.04   0
  -6   3   3    1.36   11.20   0
  -4   0 -52  272.15   18.45   0
  -3  -1 -41   -5.09   13.54   0
  -2  -1 -13   56.76   10.46   0
  -9   5 -14  172.96   16.35   0
  -7   2 -45    2.67   15.31   0
  -7   2 -18  586.52   19.93   0
  -5   0 -32  749.93   21.57   0
  -5   0 -29    2.21   14.13   0
  -6   1 -19    0.42   12.52   0
  -5   0 -26  347.83   16.17   0
  -5   1  -6 1008.90   20.99   0
  -4   0 -10  514.13   17.30   0
  -3  -1 -20 1106.89   22.57   0
  -7   3  -4  910.03   22.21   0
  -6   1 -46  133.67   16.18   0
  -3  -1 -44  483.03   19.64   0
  -9   4 -28  191.95   16.99   0
  -8   4  -6  322.10   16.86   0
  -6   1 -16  863.72   21.17   0
  -5   0 -41  -14.11   14.46   0
  -5   0 -23   -1.45   12.08   0
  -9   4 -25   10.16   14.94   0
  -9   5 -11   20.22   13.62   0
  -8   3 -17   -0.26   13.54   0
  -6   1 -49   -8.52   15.26   0
  -3   0  -3   -3.19    9.24   0
  -6   2  -2  762.13   19.81   0
  -5   0 -44  329.27   17.93   0
  -5   0 -20  932.34   20.65   0
  -3  -1 -47    4.62   14.05   0
  -3  -1 -17   -5.07    9.86   0
  -9   4 -22  189.11   15.76   0
  -8   3 -14  236.71   17.28   0
  -6   1 -13   19.81   13.61   0
  -2  -1 -10 2236.57   30.45   0
  -5   0 -47   -1.42   14.59   0
  -5   0 -17   -0.29   12.13   0
  -4   0  -7    2.49   10.10   0
  -1  -2 -32 1512.38   27.58   0
  -9   4 -19    3.49   13.69   0
  -7   3  -1    9.30   12.51   0
  -5   2   5   19.53   10.26   0
  -1  -2 -35    0.75   11.13   0
  -1  -2 -29   16.82   10.38   0
  -4  -1 -33   18.54   12.39   0
  -3  -1 -14  831.99   19.35   0
   1  -6 -20  682.92   18.89   0
   1  -4 -19   37.54    9.52   0
   2  -8 -17   10.45   13.25   0
   7  -7   2  416.24   15.53   0
   7  -6   7   18.01   10.08   0
   4  -9 -14  170.33   14.95   0
   8  -8  13  -10.82   11.97   0
   2  -5 -20  792.68   17.69   0
   3  -9 -15   -1.14   13.15   0
   5  -3   5   19.06    8.35   0
   6  -7  -8  979.56   19.44   0
   6  -5  -1   24.76   10.15   0
   8  -9  11    3.90   11.81   0
   1  -3 -17   14.21    7.78   0
   4  -6 -17    4.06   10.64   0
   4  -5 -15   23.65   10.11   0
   5  -8 -14  250.60   15.04   0
   7  -9  -2  180.91   13.85   0
   1  -5 -21   17.15    9.18   0
   3  -7 -20  643.01   18.41   0
   5  -9 -13    6.15   11.85   0
   5  -6 -13   40.38   10.18   0
   6  -9  -9   -8.68   12.53   0
   6  -8 -10  342.98   15.75   0
   6  -4   7    3.65    8.92   0
   7  -7  -1    1.14   11.53   0
   7  -6   4  405.47   15.53   0
   8  -8  10  322.59   15.54   0
   0  -3 -18  607.33   17.46   0
   3  -8 -19   -9.76   12.92   0
   3  -5 -19   15.02    9.75   0
   5  -7 -15  -11.21   11.57   0
   8  -9   8  268.77   14.05   0
   2  -7 -21   -1.35   10.74   0
   3  -3 -12 2891.34   29.82   0
   4  -8 -18  358.98   16.18   0
   5  -5 -11    5.42   10.35   0
   2  -6 -22  492.26   16.86   0
   2  -3 -16 2289.04   27.51   0
   4  -7 -19    7.14   10.79   0
   7  -9  -5    4.07   12.79   0
   8  -8   7    8.06   11.97   0
   3  -4 -17   -2.33    8.23   0
   4  -9 -17    8.30   13.09   0
   4  -4 -13    7.40    8.55   0
   6  -7 -11   17.37   11.03   0
   6  -5  -4  999.21   19.50   0
   8  -9   5   11.88   12.01   0
   2  -8 -20  319.92   16.96   0
   5  -8 -17   12.36   13.49   0
   5  -3   2  996.87   19.88   0
   6  -9 -12  266.82   15.92   0
   6  -6  -9    6.80   10.48   0
   6  -4   4 1164.15   21.16   0
   7  -8  -6  335.08   16.04   0
   7  -7  -4  347.35   15.20   0
   7  -6   1    0.98   10.17   0
   2  -2 -11    0.65    7.04   0
   3  -9 -18  353.79   17.36   0
   6  -8 -13  -18.25   12.54   0
   7  -5   9   -0.67   10.95   0
   1  -6 -23   20.29   11.17   0
   4  -6 -20  888.09   18.51   0
   4  -3  -8 3114.37   30.81   0
   5  -6 -16  871.33   18.61   0
   8  -9   2  218.13   14.32   0
   8  -8   4  412.53   16.30   0
   8  -7   9   -1.16   11.60   0
   4  -5 -18  509.28   14.78   0
   5  -7 -18  607.83   17.59   0
   7  -9  -8  437.22   16.98   0
   1  -4 -22  441.96   15.07   0
   2  -5 -23    5.50    9.32   0
   3  -8 -22  224.05   15.62   0
   3  -7 -23  -12.04   12.49   0
   3  -2  -7   -0.13    7.67   0
   4  -8 -21    4.21   12.62   0
   7  -6  -2  535.09   16.75   0
   5  -5 -14  824.54   17.75   0
   6  -7 -14  229.07   13.94   0
   7  -8  -9    2.59   12.71   0
   7  -5   6  611.68   17.28   0
   8  -7   6  184.78   14.14   0
   2  -7 -24  683.34   19.66   0
   3  -5 -22  425.01   14.23   0
   6  -9 -15   17.75   13.47   0
   6  -6 -12  633.27   16.81   0
   6  -5  -7   -6.30    9.51   0
   6  -4   1    3.80    9.43   0
   8  -9  -1   -0.94   12.46   0
   8  -8   1  -19.12   11.21   0
   1  -5 -24  887.85   19.98   0
   3  -6 -24  829.63   19.12   0
   3  -3 -15   -1.03    7.70   0
   4  -9 -20  248.50   14.88   0
   5  -8 -20  391.87   16.58   0
   5  -3  -1    8.93    8.37   0
   6  -8 -16  703.79   18.81   0
   2  -6 -25   -0.57   11.18   0
   4  -4 -16 1932.63   24.22   0
   4  -2   0 4514.76   41.12   0
   7  -9 -11    9.38   13.29   0
   3  -9 -21    0.73   13.01   0
   3  -4 -20 1116.83   19.32   0
   5  -6 -19   17.84   10.27   0
   8  -7   3   -2.92   11.87   0
   4  -6 -23   -5.47   11.48   0
   5  -7 -21   -4.87   11.19   0
   7  -6  -5   13.15   10.90   0
   7  -5   3   18.01   10.29   0
   8  -9  -4  297.04   15.46   0
   8  -8  -2  183.27   13.32   0
   0  -4 -23    0.20    9.43   0
   2  -3 -19   -0.56    8.13   0
   4  -5 -21   11.15    9.97   0
   4  -3 -11   57.08    8.98   0
   6  -7 -17    7.86   11.52   0
   7  -8 -12  303.93   15.00   0
   4  -8 -24  514.79   18.24   0
   5  -5 -17    2.06    9.40   0
   6  -9 -18  198.13   15.63   0
   6  -6 -15    5.66   11.52   0
   6  -4  -2  742.04   17.12   0
   0  -3 -21    1.80    8.03   0
   3  -8 -25    7.42   13.19   0
   3  -7 -26  260.77   14.66   0
   5  -4 -12 1146.49   19.59   0
   6  -8 -19    5.07   13.51   0
   8  -7   0  644.38   17.46   0
   2  -5 -26  873.37   19.58   0
   2  -2 -14  371.31   13.24   0
   4  -9 -23    8.37   13.08   0
   5  -8 -23    2.87   13.37   0
   5  -3  -4  922.23   18.75   0
   7  -9 -14  261.50   14.38   0
   7  -5   0  929.12   19.58   0
   8  -8  -5    5.16   11.55   0
   3  -2 -10 2276.04   27.84   0
   5  -9 -22  182.93   14.34   0
   7  -6  -8  976.98   19.59   0
   2  -7 -27    8.22   12.50   0
   3  -6 -27  -15.51   11.74   0
   4  -4 -19    3.99    9.85   0
   7  -8 -15   23.25   11.68   0
   7  -7 -13    8.12   12.57   0
   1  -4 -25    2.02    9.50   0
   3  -3 -18 1576.04   22.73   0
   4  -2  -3    1.52    7.64   0
   5  -7 -24  554.36   17.68   0
   5  -6 -22  312.10   14.06   0
   6  -7 -20  437.31   16.82   0
   6  -4  -5    1.49    9.84   0
   8  -7  -3    8.33   11.25   0
   3  -4 -23   27.60    9.21   0
   6  -9 -21   -3.66   13.40   0
   8  -8  -8  427.38   16.76   0
   1  -5 -27    5.71   10.09   0
   4  -6 -26  498.14   16.18   0
   4  -5 -24 1256.76   21.25   0
   6  -6 -18  590.42   16.70   0
   7  -9 -17   19.37   13.10   0
   7  -5  -3    1.65   10.56   0
   4  -8 -27   -6.98   12.23   0
   4  -3 -14  867.93   17.33   0
   5  -5 -20  928.67   18.46   0
   5  -4 -15   35.82    9.22   0
   6  -8 -22  188.15   14.04   0
   7  -6 -11   17.82   11.68   0
   5  -3  -7   29.64    9.26   0
   8  -7  -6  351.78   15.56   0
   8  -6   2  347.62   15.25   0
   1  -3 -23    7.95    7.76   0
   2  -3 -22  564.38   15.07   0
   3  -8 -28  339.87   16.69   0
   3  -7 -29   23.95   11.77   0
   4  -9 -26  299.96   16.36   0
   4  -7 -28  584.70   17.41   0
   5  -9 -25   11.31   12.34   0
   7  -8 -18  227.72   14.28   0
   7  -7 -16  779.85   18.84   0
   6  -4  -8 1152.97   20.43   0
   8  -8 -11   -1.19   11.83   0
   5  -6 -25   27.42   11.51   0
   6  -7 -23   13.08   12.17   0
   6  -5 -16  880.50   18.96   0
   7  -5  -6  293.09   13.26   0
   8  -6  -1   -4.59   11.16   0
   2  -5 -29   -3.06    9.78   0
   3  -2 -13   50.61    8.44   0
   4  -4 -22  920.47   18.16   0
   4  -2  -6  932.40   18.97   0
   5  -7 -27   -5.39   12.26   0
   6  -9 -24  432.50   16.68   0
   6  -6 -21  -12.76   11.75   0
   7  -9 -20  273.27   15.22   0
   8  -7  -9    5.94   12.02   0
   2  -4 -27   -1.60    8.88   0
   2  -2 -17   -0.67    7.64   0
   3  -6 -30  329.65   14.67   0
   6  -8 -25   -3.46   13.20   0
   3  -3 -21    2.83    8.46   0
   5  -5 -23  -10.00   10.19   0
   5  -4 -18  525.56   15.57   0
   7  -8 -21   -2.38   12.88   0
   7  -7 -19   -1.16   12.84   0
   9  -8  -1    6.98   11.33   0
   2  -6 -31   -6.50   11.35   0
   3  -4 -26  873.24   17.84   0
   4  -8 -30  198.43   15.40   0
   4  -5 -27    2.00   10.45   0
   4  -3 -17    5.32    8.44   0
   5  -3 -10  888.75   17.73   0
   8  -6  -4  350.21   15.45   0
   0  -3 -24 1883.87   28.10   0
   1  -4 -28  931.31   20.02   0
   5  -9 -28  190.80   15.10   0
   5  -8 -29   -2.02   12.33   0
   6  -4 -11   -1.95    9.91   0
   6  -3   3    8.61    9.36   0
   7  -5  -9   -1.27   10.07   0
   1  -5 -30  272.97   14.69   0
   4  -7 -31  -12.49   12.06   0
   8  -7 -12  324.96   15.88   0
   9  -8  -4  335.68   15.96   0
   3  -8 -31   -6.35   13.12   0
   3  -7 -32  446.37   17.69   0
   5  -6 -28  671.99   18.25   0
   6  -7 -26  480.21   16.47   0
   6  -5 -19   -3.69   10.29   0
   5  -7 -30  159.04   13.34   0
   6  -6 -24  679.87   18.11   0
   8  -6  -7   -0.36   11.72   0
   3  -5 -31    2.88   10.87   0
   4  -4 -25   -5.67    9.56   0
   6  -8 -28  270.77   15.19   0
   7  -8 -24  490.98   17.91   0
   7  -7 -22  207.36   15.03   0
   1  -3 -26  657.89   16.77   0
   5  -5 -26  352.76   14.00   0
   5  -4 -21   17.43   10.49   0
   5  -2   4  819.00   20.39   0
   6  -3   0 1324.74   23.07   0
   7  -5 -12  689.83   17.23   0
   9  -8  -7    3.72   11.63   0
   3  -6 -33    7.62   11.08   0
   3  -2 -16 2331.04   26.92   0
   6  -4 -14  439.00   14.41   0
   8  -7 -15    3.34   11.27   0
   2  -4 -30  261.30   13.15   0
   2  -2 -20 4155.73   35.87   0
   3  -3 -24 1365.34   21.09   0
   4  -8 -33   -1.37   13.03   0
   4  -5 -30  474.12   15.50   0
   4  -3 -20 1086.33   19.21   0
   5  -8 -32  424.12   17.31   0
   7  -4  -1   15.46   10.08   0
   3  -4 -29   -3.92    9.66   0
   6  -7 -29    0.04   12.99   0
   6  -5 -22  322.52   14.05   0
   7  -6 -20  434.30   15.96   0
   8  -6 -10  340.62   14.64   0
   4  -7 -34  307.95   15.29   0
   5  -2   1    8.54    8.80   0
   6  -6 -27   -6.14   12.29   0
   6  -3  -3    9.23    8.95   0
   8  -8 -20  259.93   14.77   0
   9  -8 -10  153.60   13.66   0
   2  -6 -34  286.54   15.11   0
   5  -6 -31    9.41   11.41   0
   6  -8 -31    5.79   12.91   0
   7  -8 -27    1.06   13.40   0
   7  -7 -25    6.01   12.93   0
   7  -5 -15   10.62   11.28   0
   3  -7 -35    7.12   12.54   0
   7  -4  -4  930.89   19.65   0
   8  -7 -18  223.16   14.32   0
   9  -7  -5    6.06   11.36   0
   0  -2 -22 2169.48   30.13   0
   1  -4 -31   19.34    9.87   0
   4  -4 -28  835.73   17.92   0
   5  -5 -29  -12.73   11.81   0
   5  -4 -24 1271.28   21.22   0
   8  -6 -13   -4.36   11.52   0
   1  -5 -33    5.73   10.31   0
   3  -5 -34  629.33   17.65   0
   7  -6 -23   14.43   12.26   0
   0  -3 -27   -1.46    8.50   0
   3  -2 -19    0.69    8.08   0
   4  -6 -35   -9.05   11.97   0
   4  -3 -23   45.06   10.16   0
   5  -2  -2 1001.56   20.52   0
   6  -3  -6  630.70   16.84   0
   8  -8 -23   -7.45   13.08   0
   9  -7  -8  401.50   16.02   0
   3  -6 -36  506.06   16.80   0
   4  -8 -36  263.46   16.10   0
   4  -5 -33    8.17   10.94   0
   5  -8 -35    1.33   12.43   0
   6  -7 -32  448.75   16.51   0
   7  -5 -18  597.94   17.24   0
   7  -4  -7    8.94   10.29   0
   1  -3 -29    8.14    9.24   0
   2  -5 -35    7.21   10.97   0
   3  -3 -27    2.38    9.01   0
   6  -6 -30  193.59   14.10   0
   7  -8 -30  164.15   14.73   0
   7  -7 -28  260.22   15.71   0
   8  -5  -5    0.55   10.98   0
   1  -2 -24 2011.47   26.55   0
   2  -4 -33   -5.04   10.38   0
   2  -2 -23   -5.38    8.06   0
   4  -7 -37   26.59   13.42   0
   5  -6 -34  400.02   15.83   0
   8  -6 -16  673.39   18.00   0
   4  -2 -15   -4.45    8.10   0
   5  -3 -19   13.08    9.99   0
   6  -3  -9   18.61    9.79   0
   9  -7 -11    9.95   11.45   0
   5  -5 -32  740.04   18.53   0
   5  -4 -27   20.87   10.00   0
   5  -2  -5   18.38    8.56   0
   7  -6 -26  455.56   16.94   0
   7  -4 -10  545.63   16.46   0
   8  -8 -26  170.02   14.35   0
   2  -6 -37   -1.89   11.84   0
   3  -7 -38  279.86   15.62   0
   4  -4 -31    9.06    9.79   0
   8  -5  -8  731.04   18.67   0
   6  -5 -28  678.98   17.29   0
   3  -5 -37   13.07   11.36   0
   3  -2 -22  572.30   15.11   0
   4  -6 -38  207.63   14.43   0
   4  -3 -26  886.35   17.98   0
   5  -8 -38  126.77   14.16   0
   6  -7 -35   18.29   12.48   0
   7  -7 -31   11.07   13.45   0
   8  -6 -19   10.96   11.58   0
   9  -7 -14  212.66   13.99   0
   1  -4 -34  732.43   18.65   0
   2  -3 -31    6.11    8.94   0
   2  -1 -15    1.75    7.63   0
   6  -6 -33    5.98   11.54   0
   6  -4 -23   13.39   10.98   0
   6  -3 -12 1060.05   19.98   0
   7  -8 -33    9.62   12.09   0
   7  -4 -13   20.47   11.05   0
   8  -5 -11    4.99   11.36   0
   3  -6 -39   11.15   11.15   0
   3  -3 -30  445.35   14.20   0
   4  -8 -39   -2.22   12.51   0
   5  -6 -37    6.54   12.55   0
   5  -2  -8 2613.89   29.37   0
   0  -2 -25   -1.67    7.81   0
   4  -7 -40  279.02   16.05   0
   4  -2 -18 1323.10   20.72   0
   5  -3 -22  446.14   14.23   0
   7  -6 -29   -1.18   11.58   0
   2  -5 -38  172.18   13.22   0
   2  -2 -26 1523.02   22.38   0
   3  -1 -11   34.61    7.97   0
   5  -7 -39    3.08   11.59   0
   5  -4 -30  448.11   15.04   0
   8  -7 -27    0.24   12.72   0
   8  -6 -22  193.76   14.14   0
   9  -7 -17    8.28   11.79   0
   1  -3 -32 1490.93   23.71   0
   2  -4 -36  566.13   16.34   0
   4  -4 -34  377.23   14.41   0
   5  -5 -35  -15.35   10.81   0
   6  -5 -31   -6.87   11.76   0
   8  -5 -14  251.78   14.58   0
   1  -2 -27   -4.20    7.73   0
   5  -2 -11   13.36    8.94   0
   6  -3 -15    2.45    9.11   0
   7  -7 -34  301.73   16.20   0
   1  -1 -19   -0.53    7.25   0
   4  -3 -29   12.17    9.75   0
   6  -7 -38   83.62   13.00   0
   6  -6 -36  436.88   17.36   0
   6  -4 -26  502.28   16.36   0
   3  -2 -25   19.86    8.90   0
   4  -6 -41   12.95   12.67   0
   9  -7 -20  268.40   14.83   0
   2  -1 -18 1339.08   21.64   0
   3  -5 -40  701.50   19.07   0
   4  -2 -21    1.48    8.53   0
   5  -3 -25    1.08    9.70   0
   7  -6 -32  423.56   16.55   0
   8  -6 -25    0.71   12.42   0
   8  -5 -17   -2.91   11.78   0
   9  -6 -12  242.78   14.08   0
   2  -3 -34  822.71   18.52   0
   3  -3 -33  -10.41    9.68   0
   3  -1 -14 1811.00   24.82   0
   7  -4 -19    6.99   11.14   0
   8  -7 -30  167.87   13.19   0
   3  -6 -42  303.44   15.77   0
   3  -4 -38  260.67   14.03   0
   5  -7 -42  285.48   16.03   0
   5  -4 -33   12.36   10.51   0
   5  -2 -14  481.94   14.99   0
   6  -5 -34  423.40   16.39   0
   6  -3 -18  582.85   15.68   0
   1  -4 -37    5.13    9.71   0
   4  -7 -43   -2.52   12.99   0
   4  -1  -4 1487.20   24.84   0
   2  -2 -29  -12.81    8.47   0
   4  -4 -37  -11.37   10.85   0
   6  -4 -29    0.36   10.81   0
   7  -7 -37    0.23   12.27   0
   9  -6 -15   19.50   12.00   0
   2  -5 -41    8.17   11.34   0
   2  -4 -39   -6.14   10.69   0
   4  -3 -32 1286.47   21.03   0
   6  -7 -41   -3.72   12.21   0
   6  -6 -39   -8.22   11.67   0
   8  -5 -20  372.06   15.15   0
   0  -2 -28 1288.50   23.17   0
   1  -3 -35   -0.80    9.51   0
   3  -2 -28 1761.27   23.37   0
   4  -2 -24 2337.90   26.40   0
   5  -3 -28  568.19   15.82   0
   7  -6 -35    8.86   12.36   0
   7  -5 -30  134.76   13.41   0
   7  -4 -22  309.39   14.77   0
   8  -7 -33    8.13   12.79   0
   1  -1 -22  542.94   15.33   0
   3  -1 -17   17.72    8.70   0
   4  -5 -42  292.53   15.87   0
   4  -1  -7   34.39    8.53   0
   5  -2 -17   13.47    8.62   0
   6  -3 -21   17.63    9.85   0
   9  -6 -18  206.83   14.37   0
   0  -3 -33   -1.07    9.13   0
   2  -1 -21   36.64    8.65   0
   4  -6 -44  403.15   16.17   0
   5  -4 -36  495.63   16.58   0
   6  -5 -37    9.77   12.93   0
   3  -5 -43   -4.52   11.23   0
   3  -3 -36 1181.62   20.66   0
   7  -3  -8  769.91   19.18   0
   8  -5 -23    6.25   12.37   0
   2  -3 -37   -2.86    9.29   0
   3  -4 -41   -5.91   11.23   0
   5  -7 -45   10.45   12.97   0
   5  -5 -41  -14.93   11.99   0
   6  -4 -32  576.70   16.57   0
   3  -6 -45    8.68   12.73   0
   4  -7 -46  140.92   14.79   0
   4  -4 -40  746.58   18.37   0
   4  -1 -10 1346.26   21.99   0
   7  -5 -33   -6.56   12.64   0
   7  -4 -25   31.07   10.91   0
   9  -6 -21   -3.13   11.94   0
   2  -2 -32  790.65   17.17   0
   4  -3 -35   23.22    9.96   0
   4  -2 -27   -0.97    9.34   0
   5  -3 -31   -1.78   10.59   0
   6  -6 -42  278.81   14.96   0
   7  -6 -38  109.87   13.52   0
   7  -3 -11    4.70   10.20   0
   1  -4 -40  660.05   18.13   0
   3  -2 -31    7.96    9.41   0
   3  -1 -20 1728.76   23.41   0
   6  -2  -4 1089.53   21.73   0
   8  -4 -12  419.09   15.96   0
   2  -5 -44  405.34   16.50   0
   2  -4 -42  635.13   17.80   0
   8  -5 -26  331.82   14.95   0
   2  -1 -24 2114.30   25.63   0
   4  -5 -45   22.01   12.14   0
   4  -1 -13   20.83    7.89   0
   5  -4 -39    1.24   11.31   0
   6  -5 -40  389.62   15.84   0
   6  -2  -7   -0.61    8.97   0
   7  -3 -14  512.04   16.28   0
   9  -6 -24  420.50   15.93   0
   1  -3 -38  507.88   15.84   0
   1  -2 -33   13.01    8.22   0
   1  -1 -25   -0.38    7.44   0
   4  -6 -47    5.27   12.87   0
   5  -6 -46  134.80   13.25   0
   6  -4 -35   -4.29   10.84   0
   7  -4 -28  644.80   17.09   0
   8  -4 -15    9.54   11.15   0
   0  -2 -31    1.20    8.34   0
   3  -5 -46  107.56   13.56   0
   5  -5 -44  327.86   15.37   0
   6  -2 -10  515.06   15.81   0
   7  -5 -36  488.00   16.70   0
   2  -3 -40  643.03   17.24   0
   3  -4 -44  473.14   16.54   0
   4  -3 -38  273.81   14.16   0
   4  -2 -30  290.73   12.94   0
   5  -3 -34  659.62   16.71   0
   7  -6 -41  -10.13   11.46   0
   8  -5 -29    0.88   12.66   0
   3  -1 -23   12.54    8.70   0
   6  -6 -45   -5.88   11.76   0
   7  -3 -17    4.46    9.92   0
   8  -4 -18  331.83   14.95   0
   3  -2 -34  826.59   17.85   0
   6  -2 -13   -4.19    9.52   0
   2  -1 -27   -0.51    8.17   0
   5  -4 -42  294.98   15.31   0
   5  -2 -26  885.64   17.96   0
   6  -5 -43   -1.19   13.01   0
   6  -4 -38  209.55   14.34   0
   6  -3 -30  331.67   14.67   0
   8  -6 -37   -9.98   12.53   0
   7  -3 -20  686.00   17.61   0
   8  -4 -21   -5.50   11.47   0
   2  -4 -45   -4.99   11.00   0
   4  -5 -48  448.97   17.12   0
   5  -6 -49   11.79   12.84   0
   5  -3 -37   -7.35   11.66   0
   6  -2 -16 1003.74   19.87   0
   7  -5 -39   -4.53   11.40   0
   8  -5 -32  432.27   16.47   0
   0  -1 -26 1316.86   22.75   0
   1  -2 -36 1210.37   21.51   0
   3  -1 -26  700.67   16.14   0
   4  -6 -50  199.63   14.70   0
   4  -2 -33    9.37   10.04   0
   7  -6 -44  268.40   15.20   0
   1  -3 -41    5.95   10.08   0
   4  -3 -41    0.68   11.00   0
   6  -6 -48  223.39   14.84   0
   2  -3 -43    7.92   10.55   0
   3  -5 -49    9.98   12.43   0
   3  -4 -47   12.81   11.98   0
   3  -2 -37   -5.80    9.42   0
   5  -2 -29    9.96    9.96   0
   6  -3 -33   10.93   11.73   0
   6  -2 -19    8.02   10.21   0
   7  -3 -23   11.78   10.33   0
   8  -4 -24  542.37   17.19   0
   9  -5 -22  157.47   13.44   0
   0  -2 -34  333.23   13.56   0
   2  -1 -30  831.52   17.54   0
   4  -1 -22  481.89   14.20   0
   6  -4 -41   -6.68   12.77   0
   5  -4 -45    6.26   12.13   0
   5  -1  -6  473.51   15.30   0
   5  -1  -3   -3.50    8.52   0
   6  -5 -46  160.96   13.87   0
   7  -5 -42  272.43   15.57   0
   8  -5 -35   15.47   12.55   0
   2   0 -13    1.16    6.84   0
   4  -2 -36  543.37   16.17   0
   5  -3 -40  776.26   19.02   0
   5  -1  -9   47.00    9.37   0
   6  -2 -22  524.00   16.14   0
   3  -1 -29    6.99    8.93   0
   7  -3 -26  261.83   13.92   0
   8  -4 -27   -1.80   11.50   0
   9  -5 -25    7.30   10.94   0
   3  -3 -45   -5.75   10.59   0
   4  -5 -51   -4.12   11.43   0
   4  -3 -44  467.00   16.61   0
   4  -1 -25   10.52    8.93   0
   5  -2 -32  997.41   19.28   0
   5  -1 -12 1432.19   22.99   0
   6  -3 -36  511.88   16.76   0
   7  -4 -37    7.90   11.30   0
   1  -2 -39    2.48    9.12   0
   2  -4 -48  510.14   17.13   0
   0  -1 -29   -4.01    7.16   0
   2   0 -16 3324.02   32.96   0
   3  -2 -40  628.02   16.61   0
   4  -4 -49    5.79   11.53   0
   5  -1 -15    3.83    9.31   0
   6  -4 -44  436.91   15.87   0
   6  -2 -25    4.77   10.56   0
   1  -3 -44  511.13   16.30   0
   2  -3 -46  229.70   13.60   0
   2  -2 -41   -0.65    9.51   0
   2  -1 -33   21.19    8.65   0
   3  -5 -52  268.38   15.50   0
   3  -4 -50  335.16   15.64   0
   5  -4 -48  427.49   16.74   0
   6  -5 -49   -7.80   12.48   0
   7  -5 -45  -14.33   12.57   0
   7  -3 -29   26.83   10.94   0
   8  -4 -30  177.91   13.66   0
   9  -5 -28  182.15   13.25   0
   3  -1 -32 1626.29   22.42   0
   4  -2 -39    1.66   10.01   0
   4  -1 -28  959.52   18.72   0
   5  -3 -43   -2.03   10.85   0
   5  -1 -18  978.03   19.23   0
   0  -2 -37   -1.43    8.85   0
   1   0 -20 1706.64   24.19   0
   2   0 -19    0.38    7.61   0
   3   0  -9    0.97    7.63   0
   5  -2 -35    4.95   10.62   0
   6  -3 -39   10.96   12.56   0
   7  -4 -40  274.18   14.52   0
   1  -1 -34 1219.02   20.68   0
   6  -2 -28  652.96   16.88   0
   3  -3 -48  361.26   15.39   0
   4  -3 -47    6.05   11.97   0
   5  -5 -53   -1.94   12.61   0
   5  -1 -21   19.60    9.73   0
   7  -3 -32  472.14   16.01   0
   8  -4 -33   -3.09   12.25   0
   3  -2 -43   -5.48   10.46   0
   4  -5 -54  132.71   12.92   0
   6  -4 -47    6.41   12.62   0
   0  -1 -32 2143.55   27.57   0
   1  -2 -42  453.17   15.38   0
   2  -4 -51    1.80   11.66   0
   2  -1 -36 1253.29   20.20   0
   2   0 -22 2295.28   26.54   0
   3  -1 -35   -0.31    9.63   0
   4  -4 -52  265.50   15.32   0
   4  -1 -31   23.56    9.97   0
   1   0 -23    3.42    7.48   0
   3   0 -18  627.25   15.91   0
   4  -2 -42  689.52   17.46   0
   5  -4 -51   -5.88   12.51   0
   5  -3 -46  126.37   12.96   0
   5  -2 -38  163.13   12.91   0
   5  -1 -24  917.05   18.60   0
   7  -4 -43   11.89   10.92   0
   2  -3 -49   -6.38   11.08   0
   3  -4 -53   -0.14   12.09   0
   6  -3 -42  280.58   14.79   0
   7  -3 -35   21.14   11.32   0
   7  -2 -15    1.88   10.27   0
   8  -4 -36  249.97   14.56   0
   1  -3 -47   -2.89    9.83   0
   8  -3 -22  213.70   13.46   0
   1  -1 -37   -1.36    8.37   0
   2   0 -25    0.65    8.16   0
   3   0 -21   -5.80    8.12   0
   4  -1 -34  801.15   17.27   0
   0  -2 -40 1188.50   21.89   0
   1   0 -26 1420.14   21.43   0
   2  -1 -39   -2.01    9.84   0
   3  -3 -51   -2.86   12.10   0
   3  -1 -38  480.12   15.55   0
   6  -4 -50  200.04   14.60   0
   5  -2 -41    1.96   10.99   0
   7  -4 -46  143.93   13.75   0
   7  -2 -21    1.24    9.67   0
   8  -3 -25    0.16   11.37   0
   0  -1 -35   -6.36    8.45   0
   3   0 -24 2033.72   24.67   0
   4  -4 -55   12.71   12.72   0
   4  -2 -45   -2.67   10.69   0
   5  -3 -49    2.80   11.53   0
   6  -3 -45    3.01   11.12   0
   8  -4 -39    4.42   11.77   0
   1  -2 -45    0.61    9.16   0
   2  -2 -47    2.08   10.19   0
   2   0 -28 1354.92   20.75   0
   7  -2 -24  707.14   18.17   0
   4  -1 -37    1.57   10.29   0
   8  -3 -28  309.26   14.78   0
   1  -1 -40 1090.99   19.99   0
   1   0 -29   -2.91    7.99   0
   2  -3 -52  528.64   16.99   0
   3  -4 -56  293.15   15.23   0
   3   0 -27    3.34    8.39   0
   4   0 -14  398.79   13.77   0
   4   0 -11   -3.33    8.29   0
   6  -1 -14  569.37   16.51   0
   6  -1 -11   16.60   10.03   0
   3  -1 -41    8.32    9.78   0
   4   0 -17   -4.31    9.00   0
   4   0  -8 1852.90   26.77   0
   5  -2 -44  447.20   16.23   0
   6  -4 -53    4.88   12.42   0
   6  -1 -17   17.47    9.98   0
   7  -2 -27   13.16   10.48   0
   2   0 -31    1.62    8.70   0
   4  -2 -48  526.70   17.12   0
   5  -1 -33    0.65    9.85   0
   6  -3 -48  325.32   15.89   0
   8  -3 -31   -2.95   11.55   0
   0  -2 -43    2.25    9.14   0
   4  -1 -40  753.45   18.12   0
   4   0 -20 1603.18   22.70   0
   4   0  -5   -0.10    8.04   0
   5  -3 -52  280.61   15.71   0
   6  -2 -40  428.25   16.46   0
   6  -1 -20  733.97   17.18   0
  -1  -1 -30  748.21   19.04   0
   0  -1 -38  352.79   13.75   0
   0   0 -27    1.51    7.08   0
   1   0 -32 2236.11   26.20   0
   3   0 -30  777.24   16.88   0
   6  -1 -23    0.58   10.57   0
   7  -2 -30  295.61   14.18   0
   1  -2 -48  538.49   16.36   0
   2  -2 -50  336.80   14.22   0
   4  -4 -58  161.68   13.97   0
   5  -1 -36  764.14   18.26   0
   8  -3 -34  259.59   14.68   0
   1  -1 -43    0.45    9.62   0
   2   0 -34  356.72   13.13   0
   3  -1 -44  538.94   15.83   0
   5  -2 -47   -9.87   11.42   0
   3   0 -33    6.53   10.33   0
   6  -1 -26  365.65   14.03   0
   7  -2 -33    1.21   10.97   0
   0   0 -30  172.88   10.97   0
   2  -3 -55    9.42   11.13   0
   3  -2 -52  498.16   17.36   0
   4  -3 -56  290.87   14.51   0
   4  -2 -51   -0.24   12.52   0
   4  -1 -43   10.35   10.41   0
   6  -3 -51   10.07   11.29   0
   6  -2 -43    8.99   11.37   0
   1   0 -35    1.76    8.48   0
   3  -4 -59    0.80   12.48   0
   4   0 -29    0.05   10.07   0
   5  -3 -55    0.36   12.63   0
   5  -1 -39   11.07   11.78   0
   6  -1 -29    2.54   11.05   0
   8  -3 -37   -9.31   11.47   0
   2   0 -37   12.26    9.00   0
   3  -3 -57    9.63   12.20   0
   7  -3 -47    2.67   12.25   0
   7  -2 -36  316.42   15.39   0
  -1  -1 -33   10.07    8.11   0
   0  -1 -41   -0.64    9.03   0
   3  -1 -47    6.90   11.45   0
   3   0 -36  755.86   17.12   0
   5  -2 -50  372.79   16.85   0
   2  -2 -53    3.46   10.54   0
   4   0 -32  675.82   17.06   0
   6  -1 -32  640.64   17.21   0
   0   0 -33   -2.91    8.38   0
   1  -2 -51    1.38   10.54   0
   1  -1 -46  180.36   11.87   0
   2  -1 -48  537.16   16.04   0
   4  -1 -46  158.95   13.08   0
   5  -1 -42  381.52   15.82   0
   6  -2 -46  232.02   13.26   0
   3  -2 -55   13.50   12.23   0
   4  -2 -54   91.65   13.36   0
   5   0 -16  956.78   19.49   0
   7  -2 -39   15.81   11.66   0
   2   0 -40 1208.77   20.19   0
   3   0 -39  -10.04   10.06   0
   4  -3 -59   -3.83   11.37   0
   5   0 -22  393.61   14.70   0
   5   0 -19    1.90    8.66   0
   5   0 -13   -1.96    9.35   0
   6  -1 -35    7.29   10.98   0
   4   0 -35    1.58    9.56   0
   4   0 -14  403.42   14.41   0
   6  -1 -17    8.66   10.87   0
   6   0  -6  585.39   17.16   0
   8  -2 -14  204.26   13.80   0
   9  -6 -27   28.15   13.51   0
   2   0 -13    2.48    7.10   0
   3  -3 -27   -3.58    9.44   0
   4  -5 -30  477.44   16.64   0
   5  -6 -31    3.58   11.85   0
   7  -7 -31    4.55   12.33   0
   7  -3 -26  260.11   15.26   0
   8  -7 -30  147.19   13.58   0
   8  -5 -29    6.62   11.95   0
   9  -5 -25   -0.87   12.19   0
   9  -3 -15    4.48   11.65   0
   3  -2 -25   17.46    9.19   0
   3   0 -15   -2.90    7.99   0
   3   1  -4 1480.69   25.57   0
   4  -3 -29   -0.41    9.92   0
   5  -5 -32  707.83   18.84   0
   5  -2 -26  892.89   19.12   0
   7  -6 -32  446.11   16.84   0
   2  -4 -24 2318.63   31.59   0
   4  -1 -22  480.39   14.45   0
   5  -1 -21   25.91   10.42   0
   6  -2 -25   -0.07   11.74   0
   7  -1 -13    7.46   11.69   0
   8  -4 -27    5.89   11.85   0
   4  -4 -31    9.55   11.13   0
   4  -2 -27    8.58    9.74   0
   4   1  -3    7.51    8.97   0
   5   0 -13   -1.45    9.21   0
   6  -6 -33   -0.92   12.04   0
   6  -4 -32  563.66   17.50   0
   9  -4 -23   13.25   12.85   0
   3  -5 -28  567.67   18.02   0
   6  -7 -32  422.91   17.88   0
   6  -3 -30  310.66   15.76   0
   7  -4 -31   -9.76   12.27   0
   8  -2 -17   -1.55   12.85   0
   3  -4 -29    8.48    9.98   0
   5  -3 -31   10.76   11.10   0
   6  -5 -34  365.80   16.50   0
   6   0  -9   -0.21   10.15   0
   9  -3 -18  353.17   15.30   0
   2  -3 -25   26.23    8.86   0
   3  -1 -23   10.60    9.52   0
   6  -1 -20  724.10   17.77   0
   9  -5 -28  210.66   13.98   0
   7  -3 -29   -0.21   11.54   0
   7  -1 -16  977.56   20.45   0
   8  -7 -33  -11.08   13.06   0
   8  -5 -32  403.05   16.02   0
   8  -3 -25    8.57   11.45   0
   2  -1 -21   37.56    8.30   0
   3   1  -7   33.88    8.60   0
   5  -2 -29   -1.29   11.47   0
   7  -7 -34  285.98   16.35   0
   7  -6 -35    4.65   13.45   0
   8  -4 -30  166.45   15.28   0
   4   1  -6  484.19   15.56   0
   5  -1 -24  934.48   19.04   0
   5   0 -16  913.60   19.49   0
   6  -2 -28  668.60   18.39   0
   2   0 -16 3279.74   33.23   0
   3  -3 -30  420.77   15.03   0
   3  -2 -28 1694.73   23.69   0
   3   0 -18  641.91   15.86   0
   4  -5 -33   23.40   11.11   0
   4  -1 -25   -0.10    9.15   0
   5  -6 -34  353.10   16.87   0
   5  -5 -35   11.68   11.98   0
   6   0 -12  533.78   16.79   0
   8  -2 -20  304.30   14.89   0
   9  -3 -21   -5.55   12.68   0
   4  -2 -30  263.39   13.84   0
   6  -6 -36  429.62   18.05   0
   6  -4 -35    4.33   12.23   0
   7  -4 -34  312.61   16.12   0
   6  -3 -33    7.85   12.00   0
   9  -2 -13    0.91   11.56   0
   4  -4 -34  386.57   15.17   0
   5  -3 -34  654.35   17.55   0
   6  -5 -37   12.94   13.44   0
   7  -1 -19   33.88   11.52   0
   8  -3 -28  333.38   15.42   0
   5  -4 -36  474.49   16.46   0
   7  -3 -32  490.12   17.07   0
   7  -2 -27    6.68   11.65   0
   8  -5 -35   -5.94   12.26   0
   8  -1 -12  347.10   15.35   0
   2  -4 -27    2.92    9.33   0
   3  -1 -26  681.61   16.54   0
   3   1 -10 1332.46   22.87   0
   4   1  -9   41.85   10.18   0
   5   0 -19   -2.74   10.24   0
   6   0 -15   -3.23   10.63   0
   8  -4 -33   -2.48   12.41   0
   8  -2 -23   -3.51   12.95   0
   9  -4 -29    7.88   13.23   0
   3  -4 -32 1250.73   22.77   0
   5  -2 -32 1026.74   20.49   0
   5  -1 -27   15.44   10.62   0
   6  -2 -31    1.34   12.38   0
   7  -7 -37   10.14   13.87   0
   7  -6 -38  101.43   14.51   0
   8  -6 -37   12.32   13.22   0
   9  -3 -24  321.96   14.81   0
   9  -2 -16  322.36   15.78   0
   3   0 -21    1.40    8.18   0
   4  -1 -28  964.34   19.01   0
   2  -3 -28 1746.06   25.76   0
   2  -1 -24 2177.31   26.77   0
   7  -4 -37   10.60   13.71   0
   8  -1 -15    4.74   12.05   0
   2   0 -19    3.92    7.95   0
   3  -2 -31    9.71   10.12   0
   4  -2 -33   -0.13   11.26   0
   5  -6 -37    3.36   12.57   0
   5  -5 -38  349.42   16.81   0
   6  -3 -36  487.20   16.70   0
   8  -3 -31   18.19   12.28   0
   3  -3 -33    4.37   10.23   0
   4  -5 -36  485.02   17.09   0
   5   1  -8 1091.54   22.12   0
   6  -6 -39    6.10   13.22   0
   7  -2 -30  313.03   15.39   0
   4   0 -23   -2.07    9.30   0
   4   1 -12 1403.02   22.97   0
   5  -3 -37    7.73   11.59   0
   5   0 -22  377.43   14.97   0
   6   0 -18  370.52   14.77   0
   7  -3 -35    4.64   12.13   0
   8  -5 -38  127.22   14.54   0
   8  -4 -36  285.85   16.34   0
   8  -2 -26  385.25   15.92   0
   9  -3 -27   10.52   12.93   0
   9  -2 -19   14.59   11.99   0
   3   1 -13   21.82    8.26   0
   4  -4 -37    2.76   10.64   0
   5  -4 -39   -7.37   12.32   0
   6  -5 -40  385.24   16.70   0
   3  -1 -29   17.31    9.55   0
   5  -2 -35   28.93   12.52   0
   5  -1 -30  264.38   13.67   0
   6  -2 -34  307.56   15.36   0
   8  -1 -18  358.04   15.90   0
   7  -1 -25   -1.60   11.80   0
   2  -2 -29   -3.84    8.35   0
   3   0 -24 1996.04   25.47   0
   4  -1 -31   15.58   10.28   0
   5   1 -11   15.09   10.11   0
   7  -6 -41  -13.96   12.22   0
   7   0 -14  206.67   13.73   0
   8  -3 -34  294.65   16.34   0
   3  -4 -35   16.73   10.74   0
   4   1 -15    7.56    9.70   0
   6  -3 -39   -2.25   13.18   0
   6   0 -21   -0.45   10.40   0
   7  -4 -40  288.24   15.68   0
   7  -2 -33   -2.67   12.16   0
   8  -2 -29   -1.78   12.66   0
   9  -2 -22  108.28   13.47   0
   2  -4 -30  277.92   14.14   0
   2  -1 -27   -7.28    8.65   0
   2   0 -22 2302.01   27.36   0
   4  -2 -36  555.07   17.32   0
   4   0 -26  979.79   19.17   0
   7  -5 -42  263.93   16.41   0
   7  -3 -38  275.13   16.55   0
   2  -3 -31    7.08    9.39   0
   3   1 -16 2404.75   28.51   0
   5  -5 -41    6.94   12.92   0
   8  -4 -39    9.79   13.22   0
   8  -1 -21   -0.41   12.21   0
   3  -3 -36 1166.12   21.75   0
   5  -3 -40  721.69   18.77   0
   5  -1 -33    9.75   12.32   0
   5   1 -14  571.74   17.20   0
   6  -6 -42  275.23   16.36   0
   7  -1 -28  275.39   15.59   0
   7   0 -17    0.36   12.15   0
   1  -2 -24 2005.65   28.32   0
   4  -5 -39    0.72   11.69   0
   5  -2 -38  173.23   14.54   0
   6  -5 -43    2.11   13.32   0
   6  -2 -37   -9.16   12.87   0
   6  -1 -32  650.82   18.50   0
   3  -1 -32 1627.56   23.42   0
   4  -4 -40  734.35   18.82   0
   4   1 -18  984.50   19.94   0
   5  -4 -42  299.00   15.87   0
   6   0 -24  898.21   20.00   0
   8  -3 -37    2.06   13.36   0
   3   0 -27    2.98    8.97   0
   4  -1 -34  745.42   17.83   0
   7  -2 -36  282.40   16.79   0
   8  -2 -32  361.11   16.51   0
   7  -4 -43    3.71   12.55   0
   8  -1 -24  382.41   16.50   0
   2  -2 -32  769.10   17.82   0
   4   0 -29   -1.09    9.83   0
   5   1 -17    6.27   10.64   0
   6  -3 -42  277.54   15.29   0
   7  -3 -41    0.32   13.63   0
   7   0 -20  295.31   15.21   0
   2  -1 -30  793.60   17.64   0
   2   0 -25    1.29    8.33   0
   4  -3 -41  -10.77   12.27   0
   4  -2 -39   -2.08   11.44   0
   7  -5 -45    0.40   13.83   0
   7  -1 -31   20.97   13.32   0
   2   1 -17   24.32    8.27   0
   3  -4 -38  265.81   14.30   0
   4   1 -21   27.14   10.89   0
   5  -1 -36  764.31   18.97   0
   6  -2 -40  435.74   18.00   0
   6   0 -27    5.34   11.89   0
   5  -5 -44  330.63   15.95   0
   6  -1 -35   -1.79   11.79   0
   1  -3 -26  653.34   18.63   0
   1   0 -20 1709.08   25.08   0
   2  -3 -34  804.42   19.12   0
   3  -3 -39   -9.30   11.39   0
   3  -1 -35   -4.29    9.75   0
   3   0 -30  782.84   17.49   0
   5  -2 -41    1.20   11.67   0
   6  -6 -45    4.80   14.10   0
   6  -5 -46  159.95   15.65   0
   7   0 -23    4.62   12.23   0
   8  -1 -27    5.62   12.66   0
   4  -5 -42  289.25   16.10   0
   4  -4 -43  -24.42   12.57   0
   4  -1 -37    5.56   10.89   0
   5  -4 -45    1.46   12.68   0
   5   1 -20  715.99   17.84   0
   7  -2 -39    4.40   12.21   0
   1  -2 -27    0.39    8.26   0
   4   0 -32  707.62   17.88   0
   7  -4 -46  126.67   14.90   0
   2   0 -28 1360.56   21.42   0
   6  -3 -45    1.26   13.15   0
   7  -3 -44  282.00   15.50   0
   7  -1 -34  302.33   15.51   0
   2  -2 -35   -3.57    9.80   0
   2   1 -20 1671.76   24.03   0
   4  -2 -42  658.55   18.90   0
   4   1 -24  923.80   19.20   0
   5  -1 -39   15.32   13.04   0
   6  -4 -47   -1.18   12.77   0
   6   0 -30  274.61   15.02   0
   2  -1 -33   -3.15    9.63   0
   4  -3 -44  461.56   17.14   0
   5   1 -23   -1.03   11.35   0
   6  -2 -43    5.12   12.30   0
   6  -1 -38  273.79   15.24   0
   7   0 -26  381.04   16.63   0
   8  -1 -30  117.42   13.89   0
   1   0 -23    2.94    8.19   0
   3  -4 -41   -0.58   11.34   0
   3  -1 -38  515.86   16.60   0
   3   0 -33   -1.55    9.83   0
   3   2  -5   13.60    9.46   0
   4  -1 -40  675.96   19.16   0
   5  -5 -47  -17.33   13.54   0
   5  -2 -44  422.72   16.62   0
   5   0 -34  462.93   16.32   0
   6   1 -19   21.86   11.89   0
   7  -2 -42  209.70   15.06   0
   3  -3 -42  499.31   17.31   0
   4   0 -35   16.55   11.03   0
   6  -5 -49   -0.96   13.64   0
   2  -3 -37    0.47    9.95   0
   2   1 -23    7.67    8.81   0
   3   2  -8 2528.53   33.00   0
   4   1 -27    7.46   10.44   0
   6   0 -33   -8.86   12.99   0
   1  -3 -29   13.59    9.02   0
   1   1 -15    5.65    7.84   0
   2   0 -31    1.05    9.40   0
   4  -4 -46  262.56   15.79   0
   5   1 -26  357.30   15.28   0
   6  -3 -48  275.36   16.01   0
   7  -3 -47   -7.71   12.98   0
   7   0 -29   -3.39   12.88   0
   1  -2 -30  787.80   19.08   0
   3   2 -11    5.15    9.42   0
   5  -1 -42  392.70   16.43   0
   6  -4 -50  179.09   15.97   0
   6  -1 -41   16.54   12.97   0
   6   1 -22  263.63   15.31   0
   2  -2 -38  393.01   15.11   0
   2  -1 -36 1238.37   21.57   0
   3   1 -28  960.98   19.35   0
   4  -2 -45   13.05   11.61   0
   5   0 -37   -8.03   12.80   0
   6  -2 -46  204.22   15.20   0
   3  -2 -43   -5.13   11.93   0
   3   0 -36  765.58   18.35   0
   4  -3 -47   -3.09   12.29   0
   5  -3 -49   14.19   13.63   0
   7  -2 -45    9.52   13.71   0
   1   0 -26 1456.16   22.57   0
   1   1 -18 1331.88   22.30   0
   2   1 -26  648.99   16.23   0
   3  -1 -41   18.99   10.89   0
   3   2 -14  483.66   16.06   0
   4  -1 -43   19.44   12.25   0
   4   0 -38  215.41   14.09   0
   4   2 -13   -1.54    9.81   0
   5  -2 -47    7.95   12.91   0
   5   1 -29   11.73   12.61   0
   6   0 -36  276.60   16.09   0
   6   1 -25    3.94   12.24   0
   7   0 -32  466.17   17.84   0
   2   0 -34  360.39   13.81   0
   2   2  -9    0.69    8.14   0
   3  -4 -44  476.66   17.11   0
   4   2 -16 1025.97   21.88   0
   5  -5 -50  160.04   14.83   0
   3  -3 -45   -6.94   10.93   0
   3   1 -31   20.20   10.70   0
   3   2 -17   14.56    9.81   0
   5  -4 -51   -2.61   13.47   0
   5  -1 -45    4.11   12.61   0
   6  -1 -44  296.66   16.22   0
   2  -3 -40  668.14   18.48   0
   2   2 -12  922.84   20.46   0
   4  -4 -49  -11.22   13.32   0
   5   0 -40  360.74   16.19   0
   6  -2 -49   -9.14   14.42   0
   1  -2 -33   14.63    9.51   0
   1   1 -21   42.71    9.00   0
   2   1 -29    5.49   10.33   0
   3   0 -39   -6.99   11.06   0
   4   2 -19    0.23   10.43   0
   5   1 -32  632.95   18.99   0
   6  -4 -53   -8.33   13.93   0
   6   1 -28  280.85   15.76   0
   1  -3 -32 1524.41   26.57   0
   1   0 -29   -7.18    8.80   0
   2  -2 -41   -4.31   11.43   0
   2   2 -15   -0.18    8.73   0
   3   2 -20  817.35   19.18   0
   4  -1 -46  163.07   14.91   0
   4   0 -41  -17.79   11.65   0
   5  -2 -50  372.02   17.86   0
   6   0 -39    4.67   12.53   0
   7   0 -35    5.71   13.08   0
   3  -2 -46  245.42   14.48   0
   3  -1 -44  526.81   17.22   0
   4  -3 -50  367.91   16.50   0
   5  -3 -52  276.74   15.98   0
   2   0 -37    3.77    9.75   0
   3   1 -34  752.11   18.52   0
   1  -1 -34 1245.85   21.95   0
   1   1 -24 2148.27   27.21   0
   2   2 -18 1329.76   22.76   0
   4   2 -22  513.07   16.99   0
   5  -1 -48  278.95   16.92   0
   6  -1 -47   -1.37   12.35   0
   6   1 -31   15.16   12.81   0
   3  -3 -48  362.41   16.88   0
   3   2 -23   20.06    9.82   0
   5   0 -43   -2.02   13.02   0
   5   1 -35   16.28   13.34   0
   2   1 -32 1619.21   23.44   0
   3   0 -42  395.55   15.73   0
   5  -4 -54  144.86   15.01   0
   6  -2 -52  259.85   16.50   0
   7   0 -38   95.99   13.91   0
   1   0 -32 2314.76   27.64   0
   2  -3 -43   10.11   10.90   0
   2   2 -21    3.09    9.51   0
   4   0 -44  721.94   18.88   0
   4   2 -25   -1.23   11.20   0
   5   2 -21   -0.17   12.60   0
   1  -2 -36 1233.45   22.51   0
   2  -2 -44 1124.82   22.75   0
   3   1 -37   -9.66   10.80   0
   3   2 -26  870.88   19.81   0
   4  -4 -52  270.24   16.62   0
   4  -1 -49   11.52   13.31   0
   5  -2 -53    9.56   14.49   0
   1   1 -27   -8.50    9.15   0
   2   0 -40 1216.56   21.55   0
   3  -2 -49   12.30   11.91   0
   3  -1 -47    2.40   11.27   0
   4  -3 -53    6.90   13.37   0
   5  -3 -55    6.16   14.04   0
   1  -3 -35   -0.54    9.48   0
   4   1 -39   13.83   12.23   0
   5   0 -46  145.87   15.84   0
   5   1 -38  269.23   15.50   0
   5   2 -24  692.43   19.75   0
   6  -1 -50  204.45   15.70   0
   1  -1 -37   -0.18    9.23   0
   2   1 -35   -3.02   10.12   0
   4   2 -28  635.13   18.00   0
   5  -1 -51   -0.29   13.31   0
   0   0 -21    5.52    7.52   0
   1   0 -35   -0.37    9.55   0
   3   0 -45  -13.12   12.17   0
   3   2 -29   -2.75   11.26   0
   4   0 -47    8.70   14.32   0
   1   1 -30  790.07   18.42   0
   3  -3 -51  -10.09   13.15   0
   3   1 -40  680.52   19.24   0
   6   1 -37    0.94   12.80   0
   4  -2 -54   49.06   13.58   0
   4  -1 -52  381.60   18.05   0
   5   2 -27   12.93   12.16   0
   0  -1 -26 1353.54   24.29   0
   1  -2 -39   -8.99   10.32   0
   2  -3 -46  238.31   14.42   0
   2   0 -43  -11.20   11.35   0
   4   1 -42  409.17   16.90   0
   4   2 -31  -15.30   11.37   0
   5   1 -41    6.09   12.73   0
   0   0 -24 5506.93   44.35   0
   2  -2 -47   -0.44   10.74   0
   2   1 -38  493.22   16.00   0
   3  -2 -52  543.50   18.76   0
   3   2 -32  986.07   20.34   0
   4  -4 -55    4.12   13.02   0
   5   0 -49   31.80   14.56   0
   1  -1 -40 1067.35   21.14   0
   1   2 -19    1.03    8.39   0
   4  -3 -56  287.19   16.80   0
   5  -1 -54  132.66   15.71   0
   5   2 -30  305.19   15.95   0
   1   0 -38  379.55   14.61   0
   1   1 -33   18.43    9.93   0
   2   2 -30  253.73   13.34   0
   3   0 -48  590.17   18.54   0
   3   1 -43    9.23   13.04   0
   4   0 -50  317.12   17.51   0
   4   2 -34  289.56   16.50   0
   6   1 -40  431.63   17.60   0
   1   2 -22  579.55   15.92   0
   0  -1 -29    0.99    8.68   0
   2  -1 -48  544.95   17.46   0
   4   1 -45   -1.82   12.41   0
   5   1 -44  271.90   16.06   0
   0   1 -19   -0.65    8.10   0
   2   0 -46  450.52   16.56   0
   2   1 -41    7.48   11.20   0
   3  -3 -54  192.90   15.11   0
   4  -2 -57   -8.92   14.30   0
   4  -1 -55   -0.60   12.55   0
   5   2 -33    6.16   12.95   0
   1  -2 -42  484.31   16.87   0
   1   1 -36 1241.94   22.16   0
   1   2 -25   24.79    9.46   0
   2   2 -33    5.92   10.00   0
   4   2 -37  -14.30   13.61   0
   5   0 -52  342.61   17.69   0
   0  -2 -28 1347.73   26.12   0
   0   1 -22  558.21   15.93   0
   1  -1 -43    5.48   11.02   0
   1   0 -41    1.84   10.52   0
   2  -3 -49   -1.53   11.78   0
   2  -2 -50  329.85   15.80   0
   3  -2 -55    2.22   14.12   0
   6   1 -43   12.98   13.17   0
   3   0 -51    6.29   12.66   0
   3   1 -46  133.79   14.06   0
   4   0 -53   -7.34   14.42   0
   5  -1 -57   -3.20   12.68   0
   5   2 -36  280.72   16.50   0
   0  -1 -32 2252.88   29.78   0
   1   2 -28 1704.27   24.21   0
   2   1 -44  533.40   17.93   0
   2   2 -36  578.30   17.87   0
   4  -3 -59    1.05   13.60   0
   4   1 -48  274.03   16.93   0
   0   1 -25   -7.64    8.77   0
   2  -1 -51    3.59   12.74   0
   3   3 -18  557.51   17.84   0
   3   3 -15    5.96   10.58   0
   1   1 -39   13.40   10.69   0
   2   0 -49    7.21   11.49   0
   3   3 -21   15.78   11.13   0
   4   2 -40  498.44   17.63   0
   0  -2 -31   -0.34    9.58   0
   1   2 -31   -4.27    9.98   0
   4  -2 -60  236.67   16.55   0
   4  -1 -58  226.25   15.34   0
   5   2 -39   -3.15   13.33   0
   0   1 -28 1680.00   24.55   0
   1  -2 -45   -3.85   10.03   0
   1  -1 -46  182.69   14.18   0
   2   2 -39  -20.67   12.64   0
   2   3 -19    8.64   10.24   0
   2   3 -16 2203.87   30.01   0
   3  -3 -57   -5.95   12.87   0
   3   1 -49   -1.04   13.42   0
   3   3 -24  873.27   20.10   0
   0  -1 -35   -4.82    9.85   0
   2  -2 -53   11.42   13.16   0
   2   3 -22  412.87   15.87   0
   2   3 -13   -4.81    9.58   0
   3  -2 -58  233.15   15.87   0
   3   0 -54  192.65   15.10   0
   4   0 -56  171.48   16.15   0
   1   2 -34  862.67   19.01   0
   2   1 -47   -8.20   11.78   0
   3   3 -27    1.77   10.58   0
   4   1 -51   -8.83   12.75   0
   4   2 -43   12.90   12.27   0
   0   1 -31   -4.30    9.26   0
   1   1 -42  478.98   15.92   0
   2   0 -52  326.05   16.85   0
   2   3 -25    1.87   11.21   0
   2   3 -10  844.60   21.10   0
   4   3 -26  265.42   15.80   0
   2  -1 -54  214.64   15.18   0
   2   2 -42  655.75   19.31   0
   3   2 -44  432.78   17.14   0
   3   3 -30  329.20   15.93   0
   5   2 -42  187.85   14.82   0
   0  -2 -34  362.58   15.35   0
   2   3 -28  584.19   17.30   0
   3   1 -52  374.71   17.10   0
   4   3 -29   12.94   12.65   0
   0  -1 -38  375.19   15.11   0
   1  -2 -48  575.52   18.35   0
   1  -1 -49   -7.23   12.46   0
   1   2 -37    5.87   10.45   0
   3  -1 -59   -0.49   13.05   0
   4   2 -46  216.94   16.23   0
   0   2 -20 4145.19   37.79   0
   0   2 -17    5.14    8.27   0
   1   1 -45   -0.17   11.13   0
   2   1 -50  284.88   15.80   0
   2   3 -31    5.94   11.57   0
   2   3  -7   24.36    9.87   0
   3   0 -57  -11.22   12.85   0
   3   3 -33   17.14   11.50   0
   4   0 -59   -3.43   14.14   0
   4   1 -54  114.48   14.51   0
   4   3 -32  470.78   18.12   0
   0   0 -39  -11.19   10.62   0
   0   2 -23  -11.12    8.41   0
   0   2 -14  382.72   14.71   0
   2  -2 -56  195.22   15.41   0
   3   2 -47   11.33   14.22   0
   5   2 -45    4.71   13.41   0
   0   2 -26 1519.09   23.36   0
   1   2 -40  657.59   17.62   0
   1   3 -20 1137.68   21.66   0
   2   2 -45   -0.05   12.64   0
   3  -2 -61    8.92   13.71   0
   3   3 -36  522.15   18.76   0
   0  -2 -37   -4.34   10.28   0
   0   1 -37    0.66   10.09   0
   1   3 -23   38.77    9.93   0
   1   3 -17   -0.53    8.51   0
   2  -1 -57   -2.53   13.51   0
   2   3 -34  665.14   18.33   0
   3   1 -55    0.19   14.43   0
   4   3 -35   -4.54   13.07   0
   0   2 -29    1.56    9.71   0
   1   3 -14  834.05   19.85   0
   4   2 -49   14.89   13.55   0
   0  -1 -41    2.04    9.68   0
   1   1 -48  534.41   17.90   0
   2   1 -53    7.53   13.23   0
   4   1 -57    0.28   14.40   0
   0   0 -42 1219.92   22.00   0
   0   2 -32  791.20   18.29   0
   1  -2 -51   -7.84   12.14   0
   1  -1 -52  546.63   17.68   0
   1   2 -43   -1.55   12.01   0
   2   2 -48  538.58   18.21   0
   2   3 -37    6.59   11.68   0
   3  -1 -62  124.12   13.74   0
   3   0 -60  209.18   15.34   0
   3   2 -50  357.14   17.31   0
   3   3 -39   14.17   12.50   0
   4   3 -38  254.21   16.19   0
   0   1 -40 1066.21   20.88   0
   1   3 -11   61.12   10.32   0
   2  -2 -59    6.89   13.22   0
   0  -2 -40 1170.17   24.07   0
   0   2 -35    3.33   10.15   0
   1   0 -53   -1.26   12.03   0
   3   1 -58  233.60   15.49   0
   3   3 -42  277.18   16.39   0
   4   3 -41   10.65   13.70   0
   0  -1 -44  665.07   18.24   0
   0   0 -45   -7.93   11.34   0
   1   1 -51    3.71   12.95   0
   1   2 -46  250.65   15.21   0
   1   3 -35   20.40   11.39   0
   2  -1 -60  309.46   16.39   0
   2   1 -56  411.18   18.41   0
   3   2 -53   -1.79   14.74   0
   0   1 -43    0.59   10.45   0
   2   2 -51    8.98   12.83   0
   0   2 -38  372.01   14.80   0
   1  -1 -55   -4.30   12.11   0
   1   3 -38  251.03   15.34   0
   1  -2 -54  219.16   15.68   0
   3   3 -45  -14.02   12.98   0
   4   3 -44  305.48   16.37   0
   1   0 -56  409.03   17.63   0
   1   2 -49   -8.75   12.19   0
   2   0 -61   -0.04   14.17   0
   0  -1 -47  -10.57   11.77   0
   0   0 -48  763.30   19.90   0
   0   1 -46  212.97   14.02   0
   0   2 -41  -13.67   10.81   0
   0   3 -24 1319.85   22.54   0
   1   1 -54  217.32   15.78   0
   1   3 -41   -9.77   11.38   0
   2  -2 -62  169.47   14.98   0
   2   2 -54   56.43   15.28   0
   3   1 -61   -1.39   12.82   0
   3   2 -56  222.35   16.48   0
  -1   0 -25   -1.29    8.64   0
  -1   0 -22  512.22   16.67   0
   0   3 -27    3.66    9.86   0
   2  -1 -63   -5.03   13.72   0
   2   1 -59   -5.16   12.71   0
   3   3 -48  277.62   16.76   0
  -1   0 -28 1590.37   25.20   0
  -1   1 -26 1398.39   23.14   0
  -1   1 -23   -2.99    8.39   0
   0   3 -30  415.57   15.15   0
   4   3 -47    1.14   13.20   0
  -1   0 -31   -0.29    9.43   0
  -1   1 -29    2.45    8.91   0
  -1   1 -20 1664.77   25.98   0
   0   2 -44 1166.74   22.30   0
   0   3 -33   -3.06   10.63   0
   1  -1 -58  301.52   16.89   0
   1   2 -52  544.55   19.36   0
   1   3 -44  481.83   17.93   0
   2   4 -26  569.94   18.12   0
   2   4 -23    2.58   11.29   0
  -1   1 -32 2260.74   28.11   0
   2   3 -49    5.19   14.12   0
   2   4 -20  895.97   21.34   0
   3   4 -31    1.89   13.80   0
  -1   0 -34 1291.69   23.13   0
   0  -1 -50  499.95   18.05   0
   0   0 -51   -0.79   12.82   0
   0   3 -36 1218.00   22.07   0
   0   3 -15    0.87    8.26   0
   1   0 -59   -0.17   13.82   0
   1   1 -57   -6.02   13.23   0
   2   0 -64  298.92   17.19   0
   2   2 -57   -6.59   12.92   0
   2   4 -32  558.25   18.93   0
   3   3 -51  -11.89   13.79   0
   2   1 -62  108.49   15.34   0
   2   4 -35   -4.22   13.20   0
   3   4 -34  293.47   16.38   0
   0   2 -47    1.52   11.46   0
   0   3 -39   -3.89   11.16   0
   1   3 -47    9.36   12.54   0
  -1   0 -37    4.43   10.23   0
  -1   2 -30  829.08   18.53   0
  -1   2 -27    5.86    9.33   0
  -1   2 -24 2179.29   27.77   0
   1   2 -55    7.96   13.46   0
   1   4 -30  458.92   17.13   0
   1   4 -27   20.52   10.52   0
   1   4 -24 1234.40   22.60   0
   2   3 -52  280.15   17.43   0
   2   4 -38  211.62   16.06   0
   3   4 -37   10.82   13.14   0
  -1  -1 -30  799.56   20.64   0
  -1  -1 -27   -1.33    8.54   0
  -1   2 -33   15.90    9.99   0
  -1   2 -21   43.47    9.55   0
   0   3 -12 2762.60   33.63   0
   1  -1 -61   -8.68   13.43   0
   1   4 -33    9.34   12.34   0
   1   4 -21   14.40    9.79   0
   0   0 -54   67.54   13.77   0
   0   2 -50  321.16   17.03   0
   0   3 -42  518.86   17.30   0
   1   3 -50  340.66   17.79   0
   2   2 -60  249.97   16.89   0
   3   4 -40  292.84   16.72   0
  -1  -1 -33   14.02    9.73   0
  -1   0 -40 1065.99   22.02   0
  -1   2 -36 1285.50   22.24   0
  -1   2 -18 1367.49   23.16   0
   0  -1 -53   -0.12   12.30   0
   1   0 -62  103.05   14.72   0
   1   4 -36  485.61   17.10   0
   1   4 -18  512.26   17.07   0
   2   4 -41   13.24   12.62   0
   1   4 -39    1.08   13.10   0
  -1  -1 -36 1237.70   24.31   0
  -1   2 -39   -7.02   10.91   0
   0   1 -55  -14.14   13.08   0
   0   3 -45    2.52   11.72   0
   1   2 -58  200.99   15.20   0
   2   3 -55    8.99   13.01   0
   2   4 -44  424.03   17.97   0
   3   4 -43   -4.07   13.46   0
  -1   0 -43   -1.81   10.60   0
  -1   1 -44  644.78   18.38   0
   0   2 -53    5.53   13.91   0
   1   3 -53   19.59   12.96   0
   1   4 -15   34.54   10.41   0
  -1   2 -42  444.91   16.97   0
   0   0 -57  -14.82   13.28   0
  -1  -1 -39    9.36    9.97   0
  -1   2 -15    7.69    8.04   0
  -1   3 -28 1737.00   25.01   0
   0  -1 -56  406.08   17.74   0
   0   3 -48  340.24   16.34   0
   0   3  -9   -0.20    8.23   0
   0   4 -28  827.66   19.10   0
   0   4 -25    6.46   10.53   0
   1  -1 -64  189.49   15.21   0
   1   1 -63    8.52   12.77   0
   2   4 -47    9.87   13.51   0
   3   4 -46  134.27   14.79   0
  -1   3 -34  839.61   18.62   0
  -1   3 -31   14.23    9.95   0
  -1   3 -25   17.04    9.98   0
   1   0 -65   -5.23   13.71   0
   1   2 -61    1.58   13.97   0
  -1   0 -46  187.98   13.01   0
  -1   1 -47   -1.37   11.34   0
  -1   2 -45    5.38   11.18   0
  -1   3 -22  561.53   16.38   0
   0   1 -58  336.67   16.68   0
   0   4 -37   11.51   11.63   0
   0   4 -22  895.83   19.51   0
   1   3 -56  320.24   17.56   0
  -1  -1 -42  473.67   17.67   0
  -1   3 -37    8.34   10.59   0
   0   2 -56  192.51   14.83   0
   0   3 -51   -4.95   12.85   0
   1   4 -12 1084.72   23.25   0
  -1   3 -40  679.45   17.89   0
   0   4 -40  737.60   19.34   0
   0   4 -19    3.78    9.34   0
   2   4 -50  200.22   15.14   0
  -1   1 -50  479.55   17.65   0
  -1   2 -48  572.14   18.42   0
  -1   3 -19   -1.68    8.77   0
   0   0 -60  350.09   16.26   0
  -1   0 -49   -7.86   10.57   0
  -1   3 -43   -5.28   12.75   0
   0   4 -43  -13.12   12.81   0
   1   3 -59  -14.44   14.27   0
  -1  -1 -45    5.57   10.76   0
   0   1 -61    1.34   12.68   0
   0   2 -59   11.50   12.39   0
   0   3 -54  204.76   14.74   0
   0   4 -16 1890.02   27.41   0
   2   4 -53    2.56   13.39   0
   0   4 -46  278.67   15.37   0
  -1   1 -53    8.76   12.92   0
  -1   3 -46  251.83   15.08   0
  -1   3 -16 2305.98   28.93   0
   2   2 -21    2.46    9.17   0
   3   4  -7    1.54   11.28   0
   4   3 -20  680.56   18.38   0
   5   1 -32  635.12   18.45   0
   5   2 -27    6.60   11.86   0
   5   3 -19   -4.03   12.80   0
   7  -1 -37  -11.84   13.23   0
   7   2 -22  126.56   13.87   0
   6   0 -36  289.56   16.79   0
   7  -2 -39   -1.59   12.55   0
   1   1 -18 1326.68   22.08   0
   1   3  -8 3068.33   34.39   0
   2   3 -16 2191.62   27.21   0
   3   2 -26  873.12   18.90   0
   4   2 -28  691.32   18.84   0
   5  -3 -37   -1.50   12.14   0
   5  -2 -38  169.04   14.24   0
   6  -3 -39    0.54   12.64   0
   7   0 -35   -0.82   14.00   0
   7   1 -30   78.80   13.49   0
   3  -2 -31   -0.01    9.92   0
   3  -1 -32 1505.60   23.53   0
   4   0 -35    3.18   11.32   0
   2   1 -26  690.25   16.87   0
   2   4  -5    0.55    9.65   0
   3   3 -21   28.79   11.37   0
   3   4 -10  542.53   17.07   0
   4   1 -33   -1.48   11.88   0
   5   0 -37    3.63   13.55   0
   6  -2 -40  443.52   17.69   0
   6   3 -18  360.34   15.50   0
   1   2 -16 2342.71   28.16   0
   3   1 -31   23.40   10.50   0
   4  -2 -36  557.81   17.05   0
   5   3 -22  201.23   15.06   0
   6   1 -34  309.46   16.88   0
   2  -1 -27    1.34    8.12   0
   2   0 -28 1404.20   22.64   0
   2   2 -24 2282.84   27.69   0
   3   0 -33  -11.89   10.26   0
   4  -1 -37   -8.59   11.05   0
   4   3 -23   -1.18   11.46   0
   4   4 -12  436.22   17.24   0
   5   1 -35   16.57   13.30   0
   5   2 -30  289.37   15.66   0
   7  -3 -41    6.08   14.03   0
   1   0 -20 1676.60   25.68   0
   1   3 -11   66.18    9.74   0
   7   1 -33    6.35   13.62   0
   2   3 -19    9.75    9.52   0
   2   4  -8 1147.52   22.17   0
   3   4 -13   16.61   11.30   0
   4  -3 -35   18.41   11.42   0
   4   2 -31  -12.97   12.93   0
   6   0 -39    3.64   14.12   0
   6   3 -21    0.80   12.63   0
   3   2 -29   -2.25   10.46   0
   7  -2 -42  192.11   14.96   0
   7   0 -38  112.28   13.92   0
   1   1 -21   44.24    8.70   0
   4   4 -15   -7.97   12.28   0
   5   3 -25   -4.24   13.52   0
   1   2 -19    0.39    8.29   0
   2   1 -29    9.52   10.57   0
   3  -3 -30  422.12   16.68   0
   3  -1 -35  -11.36   10.57   0
   4   0 -38  224.46   14.35   0
   4   1 -36  767.70   19.25   0
   4   3 -26  274.27   15.12   0
   5  -2 -41    5.63   12.09   0
   6  -3 -42  303.78   16.78   0
   1   3 -14  824.80   18.82   0
   2  -2 -26 1513.64   25.82   0
   2   4 -11   10.34    9.92   0
   3   1 -34  768.10   19.04   0
   5  -3 -40  733.35   20.19   0
   5   2 -33   -6.32   12.93   0
   6  -2 -43   -5.01   13.72   0
   6   1 -37   -3.03   13.26   0
   2   2 -27    7.47    9.94   0
   3  -2 -34  821.03   19.76   0
   3   4 -16  637.76   17.38   0
   5  -1 -42  363.48   16.96   0
   5   1 -38  290.65   15.52   0
   6   3 -24  356.62   16.52   0
   3   0 -36  740.54   18.31   0
   4  -2 -39    2.53   11.91   0
   4  -1 -40  676.25   19.18   0
   4   4 -18  336.59   16.07   0
   7  -3 -44  280.13   16.81   0
   2  -1 -30  793.29   18.27   0
   2   0 -31   -0.04    9.41   0
   3   2 -32 1003.48   20.57   0
   4   2 -34  309.87   15.95   0
   5   3 -28  299.68   16.65   0
   6   0 -42  274.13   17.02   0
   1   0 -23   -2.27    8.44   0
   2   4 -14  435.77   15.12   0
   6  -1 -44  295.52   17.12   0
   1   4  -3   51.76   10.35   0
   3   4 -19    2.40   11.51   0
   7  -2 -45   -0.46   12.73   0
   1   1 -24 2150.81   26.97   0
   1   2 -22  540.56   15.32   0
   4  -3 -38  268.92   15.05   0
   4   0 -41   -2.17   11.53   0
   4   1 -39   27.44   12.49   0
   5   2 -36  297.22   16.17   0
   6   1 -40  412.33   18.03   0
   6   2 -35    7.10   13.38   0
   6   3 -27    3.21   12.28   0
   2   1 -32 1599.42   23.76   0
   2   2 -30  274.95   14.32   0
   3   1 -37   -3.88   12.39   0
   4   4 -21    1.89   12.72   0
   5  -2 -44  434.33   18.30   0
   5   0 -43    4.51   13.25   0
   1   4  -6 1001.84   21.89   0
   2   4 -17   -2.98   10.98   0
   3  -1 -38  509.26   16.27   0
   5   1 -41   -1.58   13.07   0
   5   3 -31    6.19   13.33   0
   6  -3 -45   14.84   13.54   0
   6  -2 -46  199.30   16.31   0
   3   0 -39   -1.27   12.14   0
   3   2 -35    9.81   11.31   0
   3   4 -22  317.87   15.91   0
   4   2 -37   10.47   13.08   0
   5  -3 -43    4.28   13.45   0
   5  -1 -45   -4.11   13.41   0
   1   4  -9   10.15    9.88   0
   2  -2 -29    3.42    8.95   0
   2   0 -34  356.92   14.75   0
   3  -3 -33   -0.31   10.94   0
   4  -1 -43   12.86   12.63   0
   6   0 -45    5.00   14.32   0
   3  -2 -37   -2.32   10.94   0
   4  -2 -42  670.28   18.77   0
   4   4 -24  517.82   18.23   0
   7  -3 -47   14.53   13.56   0
   1   0 -26 1444.24   23.47   0
   1   2 -25   14.44    9.43   0
   2  -1 -33   16.32    9.23   0
   2   3 -28  559.22   16.39   0
   2   4 -20  877.73   20.24   0
   5   2 -39   18.39   13.32   0
   5   4 -23    3.56   12.40   0
   6  -1 -47  -15.85   13.11   0
   1   1 -27    3.49    9.25   0
   4   1 -42  396.55   16.50   0
   6   1 -43   -2.31   12.75   0
   2   1 -35    4.98   10.12   0
   2   2 -33  -12.79   10.37   0
   3   1 -40  659.98   19.33   0
   3   3 -33   16.86   12.95   0
   3   4 -25   36.85   13.17   0
   5   0 -46  170.96   15.20   0
   5   1 -44  302.09   17.51   0
   5   3 -34  254.92   15.46   0
   3   2 -38  158.91   14.86   0
   4   2 -40  451.09   17.32   0
   1   3 -23   26.90   10.06   0
   2   4 -23   10.11   11.15   0
   3  -1 -41   -0.12   12.11   0
   4  -3 -41   -2.81   11.73   0
   4   4 -27  -12.19   12.08   0
   5  -2 -47   -7.53   13.69   0
   5   4 -26  266.40   15.84   0
   1   4 -15   34.16   10.67   0
   2   3 -31   18.12   12.19   0
   5  -1 -48  251.91   16.68   0
   6  -2 -49   -7.03   13.17   0
   0   2 -14  374.89   14.14   0
   1   2 -28 1705.51   24.22   0
   3   4 -28  595.27   19.00   0
   4  -1 -46  149.53   15.04   0
   5   2 -42  176.90   14.74   0
   6   0 -48  317.96   16.15   0
   1  -1 -25    1.16    8.65   0
   1   1 -30  839.39   18.37   0
   4  -2 -45   -6.26   13.18   0
   4   1 -45   -5.83   13.90   0
   6  -1 -50  173.61   16.29   0
   0   3  -9   -2.75    7.28   0
   1   3 -26  838.41   19.21   0
   1   4 -18  524.30   16.62   0
   2  -2 -32  800.79   19.93   0
   2  -1 -36 1255.06   23.18   0
   2   1 -38  527.67   16.46   0
   3  -2 -40  675.11   19.47   0
   3   3 -36  491.22   17.80   0
   4   4 -30  185.06   15.58   0
   2   4 -26  529.20   17.06   0
   3   1 -43    2.30   12.53   0
   3   2 -41   -5.91   13.76   0
   4   2 -43  -10.73   14.53   0
   4   3 -38  241.89   15.90   0
   5   1 -47   -4.29   12.84   0
   5   4 -29    5.46   12.93   0
   0   2 -17   -1.29    8.26   0
   0   3 -12 2780.01   33.19   0
   1   2 -31    3.45   10.47   0
   2   3 -34  654.91   18.35   0
   3   4 -31    7.20   13.58   0
   1   4 -21    7.80   10.04   0
   2   5 -15    0.51   12.58   0
   3  -1 -44  536.55   18.13   0
   5  -2 -50  384.20   18.17   0
   5   2 -45   20.23   14.34   0
   1   3 -29    9.29   11.32   0
   2   4 -29   -7.07   12.61   0
   3   3 -39    7.83   13.75   0
   4   4 -33  -11.39   13.57   0
   5  -1 -51    5.53   14.09   0
   6  -2 -52  249.55   16.81   0
   0   1 -19    8.38    8.37   0
   0   2 -20 4145.17   37.95   0
   1   1 -33    7.74    9.87   0
   2   2 -39   -2.48   11.43   0
   4  -1 -49    8.47   13.89   0
   4   1 -48  267.75   15.96   0
   4   3 -41   13.10   14.86   0
   1  -1 -28 1653.90   26.55   0
   2   1 -41    9.87   12.05   0
   2   5 -18  584.98   18.72   0
   4   2 -46  228.93   16.91   0
   1   4 -24 1236.03   22.50   0
   2  -1 -39   -2.39   10.13   0
   2   3 -37   -1.13   11.81   0
   3  -2 -43    6.63   11.94   0
   3   1 -46  187.56   15.39   0
   3   2 -44  431.78   17.20   0
   3   4 -34  309.47   16.31   0
   3   5 -23    9.47   13.23   0
   4  -2 -48  571.82   19.49   0
   4   0 -50  279.17   17.69   0
   5   1 -50  151.75   15.35   0
   1   2 -34  856.75   19.31   0
   2  -2 -35    2.70    9.92   0
   1   3 -32 1268.85   22.35   0
   2   4 -32  540.30   17.87   0
   2   5 -21    4.82   11.74   0
   4   4 -36  269.66   15.81   0
   0   1 -22  578.78   16.40   0
   0   2 -23    1.67    8.98   0
   3   0 -48  588.94   19.40   0
   3   3 -42  290.20   16.81   0
   0   3 -21    5.33    9.24   0
   1   1 -36 1305.49   22.60   0
   1   4 -27   17.11   11.06   0
   2   0 -43    8.17   12.20   0
   2   2 -42  656.08   18.82   0
   3  -1 -47   -8.40   12.04   0
   3   5 -26  306.82   16.61   0
   4   3 -44  299.67   16.29   0
   0   4 -10  505.15   16.73   0
   0   4  -7   -5.98    9.27   0
   1   5 -13   26.31   11.47   0
   2   1 -44  536.69   18.61   0
   2   3 -40  738.30   20.38   0
   2   5 -24  552.89   18.41   0
   3   4 -37   10.02   13.56   0
   4   1 -51    4.84   13.82   0
   5  -2 -53    1.32   14.06   0
   5  -1 -54  117.23   14.77   0
   0   4 -13   -2.93    9.67   0
   1  -1 -31    5.29    9.84   0
   1   2 -37   21.27   10.91   0
   3   1 -49   -6.61   14.43   0
   3   2 -47  -12.61   14.01   0
   4  -1 -52  419.00   18.61   0
   4   2 -49   -4.56   13.27   0
   0   2 -26 1542.63   23.84   0
   0   3 -24 1285.36   22.60   0
   1   3 -35    1.52   11.77   0
   2  -1 -42  492.97   17.72   0
   4   0 -53    1.30   14.95   0
   4   4 -39   -1.91   12.66   0
   0   1 -25   -0.50    8.96   0
   0   4 -16 1880.93   27.61   0
   2   5 -27    4.97   13.25   0
   3   5 -29   -2.56   12.25   0
   4  -2 -51   -1.62   14.03   0
   5   0 -55    6.47   12.84   0
   1   5 -19    0.25   11.28   0
   2  -2 -38  377.08   16.50   0
   2   2 -45   -1.51   13.88   0
   3  -2 -46  248.06   15.88   0
   3   3 -45   16.78   13.29   0
   0   4 -19    3.91   10.08   0
   1   1 -39    9.70   10.54   0
   3   4 -40  290.52   15.79   0
   4   3 -47   -0.01   13.07   0
   0   2 -29    2.14    9.66   0
   0   3 -27    1.53   10.14   0
   1   5 -22  288.02   15.48   0
   2   0 -46  477.25   17.29   0
   2   3 -43  -22.67   13.66   0
   3  -1 -50  291.81   17.38   0
   3   0 -51   -7.80   12.90   0
   3   5 -32  398.80   17.98   0
   0   1 -28 1675.50   24.74   0
   1   0 -38  350.61   14.77   0
   1   2 -40  672.65   18.69   0
   1   3 -38  264.50   15.19   0
   2   1 -47    5.98   11.96   0
   2   5 -30  136.62   15.09   0
   3   2 -50  360.50   17.68   0
   4   1 -54  129.56   14.75   0
   4   2 -52  229.01   15.87   0
   0   4 -22  887.24   19.64   0
   1  -1 -34 1306.51   23.98   0
   3   1 -52  358.18   17.34   0
   1   5 -25   19.77   12.52   0
   3   3 -48  293.61   17.92   0
   4  -1 -55    9.89   14.42   0
   0   3 -30  420.50   15.35   0
   1   1 -42  491.44   17.50   0
   2  -1 -45    5.50   11.28   0
   2   2 -48  494.10   19.18   0
   3   5 -35    7.04   13.96   0
   4   0 -56  164.56   15.60   0
   0   2 -32  789.62   18.58   0
   0   4 -25   -5.70   10.29   0
   2   3 -46  104.99   16.03   0
   2   5 -33   -3.28   13.87   0
   0   1 -31    2.10    9.65   0
   1   2 -43    1.64   11.84   0
   1   3 -41   -7.24   12.74   0
   1   5 -28  656.30   19.91   0
   2  -2 -41    0.63   11.16   0
   3  -2 -49   -3.88   13.14   0
   1   0 -41    3.83   10.73   0
   2   0 -49   -9.69   12.94   0
   3   0 -54  189.13   15.99   0
   3   2 -53   12.95   15.02   0
   0   3 -33    2.15   10.94   0
   1  -1 -37    0.60   10.77   0
   3  -1 -53  -10.26   14.36   0
   0   2 -35   -0.76   10.48   0
   1   4 -39   -3.75   13.82   0
   1   5 -31   14.98   12.98   0
   2   4 -44  437.17   18.84   0
   2   5 -36  432.08   17.80   0
   3   3 -51   16.51   13.58   0
   3   5 -38  105.28   15.07   0
   0   5 -14  771.86   20.13   0
   2   2 -51   -7.93   14.51   0
   0   1 -34 1285.58   22.32   0
   0   5 -17    1.12   10.74   0
   0   5 -11   -1.66   10.49   0
   1   3 -44  469.83   18.43   0
   2  -1 -48  541.02   19.12   0
   2   3 -49   22.53   14.16   0
   4  -1 -58  222.66   17.21   0
   4   0 -59  -16.91   14.60   0
   0   3 -36 1198.52   22.66   0
   0   5 -20  927.49   21.47   0
   1   2 -46  245.01   15.12   0
   0   5 -23  -13.30   11.79   0
   1   0 -44  636.87   18.50   0
   1   5 -34  341.13   16.68   0
   2  -2 -44 1134.24   24.92   0
   2   5 -39   10.91   13.07   0
   3   2 -56  220.94   17.27   0
   0   2 -38  400.85   15.62   0
   0   4 -34  390.93   17.07   0
   1  -2 -30  777.51   21.36   0
   1   4 -42  274.44   16.61   0
   2   0 -52  310.25   17.31   0
   2   4 -47   -0.42   15.15   0
   3   0 -57   -4.49   15.12   0
   0   1 -37   -2.31   10.59   0
   0   5 -26  324.08   16.37   0
   1  -1 -40 1055.53   22.34   0
   3   1 -58  220.73   17.30   0
   0   3 -39   -1.61   11.46   0
   1   3 -47    8.94   13.38   0
   1   5 -37    2.78   14.02   0
   2   2 -54   64.33   16.52   0
   2   3 -52  299.77   18.54   0
   3  -1 -56  403.71   18.95   0
   0   0 -33    1.24   10.38   0
   1   2 -49   19.90   13.83   0
   2   5 -42  279.13   17.37   0
  -1   3 -19    7.35    9.13   0
  -1   3 -16 2309.14   30.06   0
   0   2 -41    0.43   11.39   0
   0   4 -37   -2.21   12.49   0
   0   5 -29   -8.95   11.78   0
   1   4 -45    3.20   14.97   0
   2  -1 -51    2.89   13.75   0
  -1   3 -22  555.87   16.51   0
   1   0 -47    4.79   11.93   0
  -1   2 -18 1348.81   23.80   0
  -1   2 -15    4.49    8.66   0
   0   1 -40 1035.49   21.31   0
   0   3 -42  518.01   18.77   0
   1  -2 -33   12.40   10.19   0
   1   5 -40  375.82   18.05   0
   1   6 -26  436.99   18.28   0
   2   0 -55   -8.25   14.37   0
   2   4 -50  222.34   16.06   0
  -1   2 -21   39.03    9.48   0
  -1   3 -25   25.59   10.15   0
   1  -1 -43   -6.42   11.94   0
   1   3 -50  337.75   17.30   0
   2   5 -45   -7.34   14.40   0
   3   0 -60  244.20   17.38   0
  -1   2 -24 2153.10   28.33   0
  -1   4 -20 1125.55   21.56   0
  -1   4 -17    1.77    9.03   0
  -1   4 -14  822.97   20.20   0
   0   0 -36  765.85   18.93   0
   0   4 -40  749.46   20.27   0
   1   6 -29   -6.44   13.55   0
   2   2 -57    4.02   15.67   0
   2   3 -55   -2.34   13.32   0
   3   1 -61    4.99   14.84   0
  -1   3 -28 1705.36   25.49   0
   0   2 -44 1161.20   23.08   0
   0   5 -35    5.68   13.41   0
   1   2 -52  539.10   19.06   0
   1   4 -48  424.37   18.45   0
   3  -1 -59   -7.95   15.02   0
  -1   2 -27   -5.43    9.92   0
  -1   4 -11   62.09   10.72   0
   1   5 -43   -0.21   14.62   0
   1   6 -32  432.63   18.68   0
  -1   3 -31    4.38   10.86   0
   0   3 -45  -16.58   13.33   0
   1   0 -50  484.13   18.17   0
   2  -1 -54  217.45   16.19   0
   2   4 -53    3.18   13.76   0
   2   6 -37    9.81   13.06   0
  -1   2 -30  826.45   18.96   0
  -1   4 -29   -3.65   11.09   0
   0   4 -43   -3.46   14.07   0
   1  -2 -36 1207.06   25.19   0
   1   3 -53  -15.75   15.91   0
   2   1 -59    5.54   15.48   0
   0  -1 -26 1376.92   26.27   0
   0   0 -39    4.02   10.48   0
   0   5 -38  348.49   17.41   0
   0   6 -21    4.26   11.96   0
   1  -1 -46  189.30   15.37   0
   1   6 -35    6.02   14.25   0
   2   0 -58  175.81   17.04   0
  -1   3 -34  848.29   19.73   0
  -1   4 -32 1249.96   23.65   0
  -1   4  -8 3066.74   38.22   0
   0   2 -47   -3.41   13.17   0
   0   6 -24  672.83   20.25   0
   1   1 -54  228.98   16.57   0
   1   2 -55    2.72   15.29   0
   1   4 -51    6.18   14.29   0
   1   5 -46  118.15   16.56   0
   2   3 -58  259.38   16.82   0
  -1   2 -33    7.27   11.13   0
   0   3 -48  322.86   18.05   0
   0   6 -27  -11.82   12.58   0
  -1   1 -23   -3.51    9.13   0
  -1   1 -20 1706.93   27.12   0
  -1   5 -24 1223.59   23.70   0
  -1   5 -21   10.68   10.67   0
  -1   5 -18  489.07   17.21   0
   0  -1 -29   -4.68    9.50   0
   0   4 -46  268.94   17.22   0
   1   6 -38   90.42   15.13   0
  -1   3 -37    9.73   11.96   0
  -1   4 -35   17.55   12.52   0
  -1   5 -27   -0.90   12.23   0
  -1   5 -15   37.18   11.70   0
   0   0 -42 1191.18   23.75   0
   0   6 -30  201.11   15.92   0
   1  -2 -39    3.79   11.38   0
   1   0 -53   14.23   13.63   0
  -1   2 -36 1279.99   23.26   0
   1   3 -56  319.62   17.68   0
   2  -1 -57    3.57   14.67   0
  -1   1 -29    7.48    9.81   0
  -1   5 -30  502.56   17.35   0
  -1   5 -12 1116.53   24.34   0
   0  -1 -32 2252.77   31.78   0
   0   2 -50  318.23   16.45   0
   0   6 -33  -10.07   13.97   0
   1  -1 -49   -0.31   12.61   0
   1   4 -54  134.14   16.31   0
   1   6 -41    0.80   14.31   0
   2   1 -62  131.33   16.66   0
  -1   3 -40  639.32   18.75   0
  -1   4 -38  281.95   15.81   0
   0   1 -49   -3.02   13.64   0
   0   3 -51   16.26   13.95   0
   0   4 -49    0.95   14.05   0
   1   1 -57    4.10   13.99   0
   2   0 -61    7.70   15.02   0
  -1   1 -32 2317.90   29.73   0
  -1   2 -39    1.04   11.79   0
  -1   5 -33   24.51   12.57   0
   0   6 -36  410.03   18.69   0
   0   0 -45    1.79   13.12   0
  -1   4 -41   -6.18   13.31   0
  -1   5  -9    4.47   10.47   0
   0  -1 -35   -3.89   10.33   0
   0   2 -53   -4.25   15.11   0
   1   0 -56  411.55   19.19   0
   1   3 -59   -5.76   15.58   0
  -1   1 -35   -7.90   10.61   0
  -1   3 -43   -5.11   12.39   0
   0   4 -52  298.77   18.43   0
   0   6 -39    1.43   14.89   0
   1   4 -57    7.50   13.67   0
  -1   2 -42  513.74   17.23   0
   0   3 -54  178.14   16.95   0
   1  -1 -52  564.07   20.07   0
  -1   4 -44  469.35   18.17   0
   0   1 -52  586.17   19.46   0
   1   1 -60  345.67   17.85   0
  -1   3 -46  272.11   17.02   0
  -1   6 -25   19.93   12.73   0
  -1   6 -22  324.42   16.66   0
   0  -1 -38  366.19   15.46   0
   0   0 -48  776.33   21.82   0
   0   5 -50  173.26   16.70   0
   0   6 -42  274.32   17.81   0
   2   0 -64  307.34   18.22   0
  -1   2 -45   -3.34   13.70   0
  -1   6 -28  672.45   19.50   0
  -1   6 -19   -4.38   11.92   0
  -1   6 -31   -9.03   12.91   0
   0   4 -55    4.72   15.99   0
   1   0 -59   -1.81   14.76   0
  -1   4 -47    0.37   14.04   0
  -1   6 -34  363.25   18.29   0
   0   3 -57   -1.04   14.79   0
   0   6 -45    8.24   14.62   0
  -1   3 -49   17.32   13.28   0
   0  -1 -41    1.47   11.45   0
   0   1 -55   -8.07   14.00   0
  -2   4 -27    4.27   11.02   0
  -2   4 -24 2268.49   29.32   0
  -1   2 -48  572.10   19.83   0
  -1   5 -45    4.21   13.89   0
  -1   6 -37    2.92   14.41   0
   0   0 -51    7.19   13.82   0
   0   5 -53   -4.24   14.50   0
   1  -1 -55    0.99   14.47   0
   1   1 -63    4.79   15.41   0
  -2   3 -29   18.92   12.09   0
  -2   3 -26  662.59   18.14   0
  -2   3 -23    4.02    9.91   0
  -2   4 -30  276.83   15.02   0
  -1   0 -28 1586.67   26.61   0
  -1   1 -44  642.04   19.56   0
  -1   4 -50  364.84   19.17   0
  -2   3 -32 1606.79   26.02   0
  -2   4 -33   -5.56   12.20   0
  -1   0 -31   -3.85   10.45   0
   0   4 -58  157.89   15.93   0
  -2   3 -20 1676.08   26.00   0
  -2   5 -28  585.03   18.70   0
  -2   5 -25   10.07   11.81   0
  -1   5 -48  423.93   18.44   0
   0  -1 -44  662.36   20.30   0
   0   3 -60  314.06   18.76   0
  -2   3 -35    6.55   12.12   0
  -2   4 -36  546.13   18.18   0
  -2   5 -22  441.03   17.15   0
  -1   0 -34 1292.06   24.47   0
   0   1 -58  318.82   19.08   0
   1   0 -62  108.71   16.16   0
  -2   3 -17   29.10    9.81   0
  -2   4 -39   -0.15   14.12   0
  -2   4 -15   -4.32   10.42   0
  -1   1 -47    1.44   13.40   0
  -1   4 -53   27.57   16.19   0
  -1   6 -43    1.12   15.74   0
   0   0 -54   44.50   14.88   0
  -2   3 -38  503.78   18.00   0
  -2   5 -19   18.49   10.74   0
  -1   0 -37    4.45   11.50   0
  -2   2 -28 1376.30   24.03   0
  -2   2 -25   -0.60    9.83   0
  -1   5 -51    8.58   13.99   0
   0   2 -62  177.66   17.12   0
  -2   2 -31   11.12   10.59   0
  -2   3 -41   10.08   12.99   0
  -2   4 -42  688.84   20.21   0
  -2   5 -16 2224.71   31.17   0
  -1   3 -55    3.61   14.23   0
  -1   6 -46  128.36   16.46   0
   0  -1 -47   13.78   12.34   0
  -2   2 -34  343.58   15.28   0
  -2   2 -22 2246.63   29.72   0
  -2   3 -14 1740.23   27.43   0
  -2   5 -40  727.40   20.76   0
  -1   0 -40 1091.56   23.58   0
  -1   1 -50  469.75   19.28   0
  -2   2 -37   -6.74   11.38   0
  -2   4 -45  -28.33   14.98   0
  -2   4 -12  917.20   21.13   0
  -2   6 -29   -1.00   13.55   0
  -1   4 -56  306.89   17.69   0
  -1   5 -54  147.21   17.36   0
   0   1 -61   -2.16   15.07   0
  -2   2 -19   -9.68    9.91   0
  -2   3 -44  560.70   18.61   0
  -2   5 -43    4.54   14.31   0
  -2   6 -32  551.66   20.25   0
  -2   6 -26  526.60   18.42   0
  -2   6 -23    0.72   12.73   0
  -1   6 -49   -0.12   15.38   0
  -1   7 -35   10.61   14.17   0
   0   0 -57   10.42   14.90   0
   1   0 -65   14.69   14.76   0
  -2   2 -40 1282.02   23.73   0
  -2   5 -13    2.58   10.60   0
  -2   6 -35   -8.43   13.86   0
  -1   0 -43   -0.12   12.74   0
  -1   3 -58  217.82   17.96   0
   0  -1 -50  500.49   20.31   0
  -2   4 -48  550.20   20.79   0
  -2   6 -38  181.12   17.31   0
  -2   6 -20  894.52   22.29   0
  -1   7 -38  108.36   15.90   0
   0   2 -65    4.41   15.59   0
  -2   2 -16 3275.56   36.57   0
  -2   3 -47    5.72   13.33   0
  -2   5 -46  121.04   15.68   0
  -1   1 -53    2.47   13.42   0
  -1   4 -59   -4.35   15.98   0
  -2   2 -43   -5.99   12.19   0
  -2   6 -41    3.16   15.20   0
  -1   0 -46  184.46   15.70   0
  -1   5 -57    9.75   14.56   0
  -1   7 -41   -0.62   14.86   0
   1   0 -29   -3.41    9.91   0
  -2   4 -21   -7.50   10.57   0
  -2   5 -25   -3.37   11.39   0
  -2   6 -26  499.31   18.25   0
  -2   8 -19   -7.31   14.16   0
   0   2 -35   -0.09   12.10   0
   1   6 -44  252.16   16.77   0
  -2   3  -8 3473.20   38.74   0
  -1   5 -36  483.51   18.00   0
   0   1 -28 1613.91   26.81   0
   3   3 -51    0.90   15.66   0
  -2   3 -11   38.37   10.42   0
  -1   3 -31   12.12   11.47   0
  -1   4 -35    5.93   12.91   0
   0   6 -42  291.85   19.06   0
   2   3 -49   15.21   13.65   0
  -2   8 -22  173.64   15.64   0
  -1   2 -24 2202.79   29.45   0
  -1   6 -37   27.18   14.78   0
  -1   7 -35   30.29   14.54   0
   1   2 -43    4.09   12.59   0
   2   1 -44  539.31   20.04   0
   2   4 -50  198.95   17.67   0
  -2   4 -24 2372.76   29.64   0
  -2   5 -28  561.27   18.28   0
  -2   6 -29   -3.80   13.42   0
   0   5 -44  337.87   19.08   0
   2   2 -48  489.22   20.64   0
  -3   6  -6  594.62   18.83   0
  -3   6  -3   19.34   10.84   0
  -3   7  -7   11.25   11.97   0
  -3   7  -4  894.79   22.93   0
  -2   3 -14 1788.21   27.19   0
   1   1 -39    9.16   12.09   0
   1   4 -48  425.36   18.89   0
  -3   6  -9    5.26   10.87   0
  -3   7 -10  534.18   19.01   0
  -2   8 -25   -8.96   14.02   0
  -1   5 -39  -25.68   13.97   0
   1   3 -47    0.33   13.90   0
  -3   6 -12 1009.20   21.77   0
  -3   7 -13   12.91   13.18   0
  -2   7 -30  147.54   15.88   0
   0   3 -42  525.34   18.82   0
   1   5 -49  -10.27   15.45   0
  -3   6 -15   -1.56   12.16   0
  -2   3 -17   20.12   10.18   0
  -2   4 -27   -4.21   11.54   0
  -2   5 -31    0.38   12.09   0
  -2   6 -32  578.01   19.32   0
  -2   9 -17  -15.15   14.92   0
  -1   2 -27   11.81   10.88   0
  -1   3 -34  840.16   19.88   0
  -1   4 -38  241.63   15.31   0
  -1   6 -40  351.03   18.38   0
  -1   7 -38  114.60   15.30   0
   0   2 -38  402.81   16.48   0
   0   6 -45  -21.52   15.63   0
   1   0 -32 2216.84   32.87   0
  -3   7 -16  629.75   19.19   0
  -2   8 -28  270.27   18.35   0
   0   1 -31    5.27    9.65   0
  -3   6 -18  562.73   18.37   0
  -3   8 -11    4.61   15.06   0
   0   4 -46  289.33   17.80   0
   2   3 -52  280.79   18.43   0
  -3   5 -11    5.33   11.02   0
  -3   5  -8 2621.72   32.44   0
  -3   5  -5   19.67   10.87   0
  -3   7 -19   -4.10   12.61   0
  -2   3 -20 1724.30   26.13   0
  -2   7 -33   19.76   14.67   0
   1   2 -46  264.29   17.26   0
  -3   5  -2 1016.13   22.90   0
  -3   8 -14  259.08   15.84   0
  -2   6 -35  -17.67   15.05   0
   1   4 -51   11.35   15.76   0
  -3   5 -14  483.64   16.48   0
  -3   7 -22  307.20   17.11   0
  -3   8 -17   -6.23   14.08   0
  -2   4 -30  262.81   14.74   0
  -2   5 -34  657.75   19.97   0
  -1   3 -37   11.49   13.08   0
  -1   4 -41   17.49   14.40   0
  -1   6 -43   22.80   16.45   0
  -1   7 -41   14.66   14.12   0
   1   3 -50  328.83   18.87   0
   2   2 -51    6.97   14.55   0
  -2   3 -23    8.53   11.38   0
  -1   2 -30  822.77   19.94   0
   0   3 -45   15.12   13.59   0
   1   1 -42  496.53   18.03   0
  -3   5   1   -0.27   10.03   0
  -3   8 -20  349.92   18.35   0
  -2   7 -36  443.88   20.11   0
   0   2 -41    3.73   12.20   0
  -3   5 -20  804.08   20.23   0
  -3   7 -25   24.97   15.01   0
   0   1 -34 1239.16   23.77   0
  -3   8 -23   -2.91   14.74   0
  -2   4 -33   12.92   12.34   0
  -2   5 -37   -7.61   14.69   0
  -2   6 -38  218.69   17.07   0
  -1   5 -45   22.05   15.75   0
   0   4 -49   -9.39   15.63   0
   0   5 -50  171.72   17.65   0
   1   0 -35   -5.94   11.13   0
  -1   7 -44  229.71   16.23   0
  -3   5 -23   16.98   11.87   0
  -3   6 -27    5.92   12.44   0
  -1   6 -46  159.83   16.44   0
   1   2 -49    6.53   14.76   0
  -3   8 -26  313.82   18.25   0
  -2   7 -39   -4.68   14.04   0
   0   3 -48  364.41   19.41   0
   1   4 -54  150.60   17.28   0
  -2   8 -37  -12.45   13.66   0
   1   3 -53   21.88   15.69   0
  -3   5 -26  900.97   21.24   0
  -3   6 -30  314.70   17.01   0
  -3   9 -21  -20.64   14.82   0
  -2   3 -29   24.97   11.37   0
  -2   4 -36  567.95   18.57   0
  -2   5 -40  768.45   20.92   0
  -2   6 -41   -9.09   14.58   0
   0   1 -37    5.97   11.88   0
   0   2 -44 1167.14   24.44   0
   1   1 -45    7.47   13.11   0
  -3   8 -29    4.54   14.08   0
  -1   1 -20 1609.76   27.26   0
  -1   5 -48  439.66   20.58   0
  -3   4 -16 2442.20   30.84   0
  -3   4  -7   34.15    9.83   0
  -2   7 -42  280.85   19.19   0
   0   4 -52  263.59   18.65   0
   0   5 -53   -2.73   15.80   0
  -3   5 -29    4.63   12.75   0
  -3   6 -33   29.18   14.90   0
  -3   9 -24  393.27   18.03   0
  -1   6 -49    2.04   14.44   0
   1   0 -38  361.55   17.50   0
  -3   4 -19   37.08   10.90   0
  -3   4  -4 1466.21   26.74   0
  -3   7 -34  286.28   17.57   0
  -3   8 -32  411.89   19.27   0
  -2   3 -32 1585.40   25.53   0
  -2   4 -39   10.69   14.30   0
  -3   9 -27    1.22   14.64   0
  -2   5 -43    2.27   15.60   0
  -2   6 -44  453.25   18.89   0
  -1   1 -23    3.04    9.23   0
   1   2 -52  556.30   21.19   0
  -3   4 -22  446.91   16.30   0
  -3   5 -32 1041.04   23.35   0
   0   3 -51   -4.85   14.32   0
  -3   6 -36  518.26   19.34   0
  -2   2 -13   -1.95    9.27   0
  -2   7 -45  -12.20   16.59   0
   0   1 -40 1099.40   23.88   0
   0   2 -47    2.63   12.87   0
   1   3 -56  290.98   19.63   0
  -4   7 -17   32.26   13.77   0
  -4   7 -14  508.83   18.08   0
  -4   7 -11   -4.16   12.77   0
  -4   7  -8  774.08   22.32   0
  -3   4 -25    9.51   11.87   0
  -3   4  -1   57.44   10.54   0
  -3   7 -37    3.38   14.45   0
  -2   2 -16 3356.47   37.13   0
  -1   2 -39   -4.11   12.53   0
   1   1 -48  550.58   20.75   0
  -4   7 -20  639.52   20.62   0
  -4   8 -18  329.94   18.06   0
  -4   8 -15   13.01   14.22   0
  -4   8 -12  420.67   19.04   0
  -2   2 -19    6.80    9.80   0
  -2   3 -35    7.54   11.50   0
  -2   4 -42  653.17   21.16   0
  -1   3 -46  261.12   17.84   0
  -1   4 -50  374.20   19.15   0
   0   0 -27    1.74    9.97   0
   0   4 -55   -6.99   16.05   0
  -3   5 -35   31.56   13.71   0
  -2   5 -46  112.36   17.01   0
  -2   6 -47   -9.85   15.06   0
  -4   6 -16 1003.54   22.67   0
  -4   6 -13    5.37   12.83   0
  -4   7 -23  -16.55   13.45   0
  -4   8 -21    2.73   13.84   0
  -3   4 -28  954.46   21.06   0
  -3   6 -39   -9.04   14.93   0
  -3   7 -40  287.22   18.95   0
  -2   2 -22 2358.05   30.73   0
  -4   6 -19    2.34   12.28   0
  -4   6 -10  473.29   17.29   0
  -4   8 -24  521.81   20.78   0
   1   0 -41    5.41   12.08   0
  -4   6 -22  521.53   18.98   0
  -4   6  -7    6.20   12.04   0
  -4   7 -26  261.17   17.33   0
  -2   3 -38  499.67   18.24   0
   0   3 -54  202.86   18.25   0
  -4   8 -27    6.95   15.80   0
  -3   4 -31   26.37   12.54   0
  -3   5 -38  155.92   16.14   0
  -2   2 -25    6.56    9.88   0
  -2   4 -45   -5.01   15.21   0
  -1   2 -42  509.95   18.40   0
  -1   5 -54  140.18   16.58   0
   0   0 -30  194.73   13.66   0
   0   1 -43   -4.75   12.76   0
   0   2 -50  328.02   19.13   0
  -4   9 -22  175.74   17.89   0
  -3   6 -42  311.83   18.16   0
  -2   6 -50  219.75   18.58   0
  -1   3 -49   -4.82   15.04   0
  -4   6  -4 1082.70   24.42   0
  -4   8 -30  168.42   17.34   0
  -3   7 -43   -5.66   14.63   0
  -2   2 -28 1347.00   24.63   0
  -2   5 -49   -6.37   15.32   0
  -1   4 -53  -11.49   15.23   0
   0   4 -58  163.41   17.77   0
  -4   6 -28  628.75   20.19   0
  -4   9 -25   -0.96   14.51   0
  -3   4 -34  754.70   20.66   0
  -1   1 -32 2142.82   30.04   0
  -3   5 -41    4.23   15.06   0
  -4   5 -15   10.46   12.05   0
  -4   6 -31   14.69   14.83   0
  -4   8 -33    0.25   15.61   0
  -4   5 -12 1405.76   25.16   0
  -4   6  -1    4.39   11.27   0
  -4   7 -35    5.79   15.89   0
  -3   3 -21   13.70   10.20   0
  -3   3 -18  631.26   17.77   0
  -3   3 -15    9.89    9.54   0
  -3   3 -12 2156.68   30.53   0
  -3   6 -45    5.52   14.91   0
  -3   7 -46  130.11   17.80   0
  -2   2 -31   -3.73   11.34   0
  -1   2 -45    3.46   13.05   0
   0   0 -33    6.95   10.49   0
   0   3 -57   14.54   16.25   0
  -4   5 -24  953.78   21.54   0
  -4   5  -9   38.18   12.50   0
  -3   4 -37    1.46   13.01   0
  -2   6 -53   -1.19   14.28   0
   0   1 -46  196.36   16.17   0
   0   2 -53    1.16   14.78   0
  -4   6 -34  318.34   17.63   0
  -4   8 -36  265.46   18.55   0
  -3   3 -24 2057.85   28.70   0
  -3   5 -44  463.00   20.59   0
  -1   1 -35    3.76   10.72   0
  -1   3 -52  542.08   21.27   0
  -1   4 -56  307.31   19.78   0
  -4   5 -27    6.01   13.20   0
  -2   2 -34  360.96   16.69   0
  -4   5  -6  466.60   18.07   0
  -4   7 -38  266.37   17.30   0
  -3   3 -27   -5.75   11.29   0
  -3   4 -40  748.30   22.30   0
  -4   5 -30  301.41   16.99   0
  -4   6 -37   -0.12   14.55   0
  -2   4 -51    1.25   15.93   0
   0   0 -36  785.04   21.59   0
  -3   3 -30  815.36   20.22   0
  -1   1 -38  384.14   17.46   0
  -1   2 -48  592.13   20.21   0
  -4   5 -33   10.46   15.11   0
  -4   7 -41   -9.38   14.67   0
  -3   5 -47    4.67   15.66   0
  -2   5 -55   -7.26   16.77   0
  -4   5  -3    1.37   10.39   0
  -4   6 -40  471.92   20.61   0
  -3   4 -43    8.81   15.65   0
  -2   3 -47   13.60   13.90   0
  -1   3 -55    5.11   16.82   0
   0   1 -49   -3.28   13.72   0
   0   3 -60  311.36   19.68   0
  -5   8 -19   10.95   14.93   0
  -3   3 -33    1.32   12.48   0
  -3   6 -51   -3.82   16.63   0
  -1   4 -59   -2.72   16.10   0
   0   2 -56  199.19   18.44   0
  -5   8 -16  641.88   22.03   0
  -4   5 -36  764.50   21.86   0
  -5   7 -24  714.99   22.39   0
  -5   7 -21  -21.33   13.61   0
  -5   7 -18  279.17   16.98   0
  -5   8 -25   -2.70   14.13   0
  -4   7 -44  293.01   18.63   0
  -3   5 -50  376.54   20.35   0
  -2   4 -54   61.29   17.37   0
  -1   1 -41   -0.92   12.90   0
   0   0 -39    2.40   11.94   0
  -5   7 -27   12.14   15.64   0
  -4   4 -23   -4.10   11.54   0
  -4   4 -20 1598.11   26.08   0
  -4   4 -17   -6.43   11.40   0
  -4   6 -43   -4.16   15.81   0
  -3   3 -36  779.56   20.67   0
  -1   2 -51    1.52   15.27   0
  -5   7 -12  550.68   19.97   0
  -5   9 -26  247.84   18.57   0
  -4   4 -26  975.26   21.77   0
  -4   5 -39   22.66   14.80   0
  -3   4 -46  163.25   17.26   0
  -2   3 -50  267.07   19.38   0
  -5   7 -30  289.36   18.36   0
  -5   8 -31   -6.36   14.64   0
  -5   7  -9    1.20   13.09   0
  -4   4 -11    3.87   11.62   0
  -4   7 -47   -4.11   15.79   0
  -3   3 -39   10.25   13.26   0
  -1   3 -58  210.12   18.91   0
   0   1 -52  541.94   21.57   0
  -5   6 -23   -5.58   13.30   0
  -5   6 -20  692.60   20.70   0
  -5   6 -17    3.82   13.37   0
  -5   8 -34  253.57   17.45   0
  -4   5 -42  418.64   20.46   0
  -4   6 -46  212.23   18.17   0
  -3   5 -53   14.25   16.50   0
  -2   2 -43  -10.78   13.09   0
  -5   6 -14  603.00   20.31   0
  -2   4 -57   -1.67   16.53   0
  -1   1 -44  624.73   20.11   0
   0   0 -42 1230.16   26.86   0
  -5   8 -37   -2.04   15.79   0
  -4   4  -8 1823.36   29.04   0
  -1   2 -54  261.42   19.11   0
  -5   6 -32  649.33   21.84   0
  -5   6 -11    7.84   13.03   0
  -4   4 -35   -3.14   13.69   0
  -3   3 -42  389.75   18.39   0
  -2   1 -21   31.68   10.97   0
  -2   3 -53   -2.73   15.41   0
  -4   5 -45    3.36   15.46   0
  -4   6 -49   -4.99   15.53   0
  -2   1 -24 2075.80   29.82   0
  -2   1 -18 1330.95   25.27   0
  -2   2 -46  481.63   19.76   0
  -5   6 -35    5.83   16.48   0
  -5   7 -39   16.63   15.69   0
  -4   4 -38  218.53   17.90   0
  -2   1 -27   -1.29   10.63   0
  -5   6  -8 1064.03   24.23   0
  -3   2 -23    9.79   11.08   0
  -3   2 -20 1780.37   27.39   0
  -2   1 -15    9.75    9.95   0
  -1   1 -47   -4.95   13.81   0
  -1   3 -61    6.64   15.90   0
  -4   4  -5    1.52   10.44   0
  -3   2 -26  686.56   19.36   0
  -3   2 -17   14.44   10.32   0
  -2   4 -60  245.92   19.51   0
  -1   0 -25   -0.78    9.22   0
   0   0 -45    8.07   12.73   0
  -5   7 -42  208.71   17.41   0
  -4   4 -41  -12.52   15.88   0
  -4   5 -48  295.58   18.87   0
  -4   6 -52  239.85   19.33   0
  -3   2 -29   15.27   12.16   0
  -2   3 -56  422.09   20.90   0
  -1   0 -28 1562.47   28.06   0
  -5   5 -28  933.52   23.63   0
  -5   5 -25    0.57   13.65   0
  -5   5 -19   10.04   13.88   0
  -3   2 -14 1781.45   28.50   0
  -2   2 -49   -6.13   14.89   0
  -1   2 -57   21.27   15.87   0
  -5   5 -16  961.64   22.77   0
  -5   6 -41   17.57   17.11   0
  -3   2 -32 1598.08   26.34   0
  -1   0 -31    0.84   11.15   0
  -5   5 -31  -21.67   14.58   0
  -5   6  -5    8.16   12.18   0
  -5   7 -45  -27.04   14.96   0
  -3   4 -55   -2.52   17.65   0
  -2   1 -36 1240.24   25.10   0
  -5   5 -34  463.82   20.57   0
  -5   5 -13  -10.86   12.25   0
  -4   3 -25   10.21   13.25   0
  -4   3 -22  492.87   18.33   0
  -4   4 -44  744.98   23.01   0
  -3   2 -35   12.18   12.63   0
  -1   1 -50  496.03   20.46   0
  -5   6 -44  307.14   20.33   0
  -4   3 -28  998.21   22.37   0
  -4   3 -19   40.74   11.65   0
  -3   2 -11   41.65   10.36   0
  -1   0 -34 1249.45   25.68   0
  -6   8 -26  385.36   19.62   0
  -6   8 -23    6.97   15.29   0
  -6   8 -20  293.87   18.84   0
  -5   5 -37    7.52   16.27   0
  -4   3 -31   23.83   12.64   0
  -4   4  -2 1564.71   28.90   0
  -2   1 -39   -1.76   13.54   0
  -2   2 -52  325.51   19.76   0
  -2   3 -59   -6.23   17.09   0
  -6   8 -29    9.20   14.51   0
  -5   5 -10  849.91   22.11   0
  -4   3 -16 2386.84   31.35   0
  -4   4 -47    7.07   16.56   0
  -3   3 -51    7.26   15.92   0
  -6   7 -25    5.42   16.03   0
  -6   7 -22  269.74   18.99   0
  -6   8 -32  359.87   18.89   0
  -4   3 -34  762.35   21.44   0
  -1   0 -37    7.90   12.01   0
  -6   7 -28  284.27   18.29   0
  -6   8 -35    1.29   16.43   0
  -5   5 -40  372.84   19.39   0
  -5   6 -47   10.79   15.85   0
  -4   3 -13   22.16   11.73   0
  -4   5 -54  136.44   16.75   0
  -3   4 -58  240.29   18.00   0
  -6   7 -31   13.55   14.80   0
  -4   3 -37   -7.71   13.99   0
  -3   2  -8 3479.12   39.89   0
  -2   1 -42  481.70   19.68   0
  -1   1 -53    2.81   15.47   0
  -6   7 -34  291.77   18.87   0
  -6   7 -16  942.06   24.58   0
  -5   5 -43    2.73   17.35   0
  -5   5  -7  -12.23   12.15   0
  -4   4 -50  299.74   19.99   0
  -5   6 -50  189.25   19.33   0
  -4   3 -40  747.52   21.35   0
  -3   3 -54  188.07   19.01   0
  -2   2 -55   -6.54   16.08   0
  -1   0 -40 1044.20   24.74   0
  -6   7 -13   11.43   13.34   0
  -5   4 -27    2.89   13.84   0
  -5   4 -24  937.44   22.34   0
  -3   2 -44  522.24   19.59   0
  -2   3 -62  127.61   17.66   0
  -6   6 -27   -6.58   15.46   0
  -6   6 -24  914.06   23.68   0
  -5   4 -30  285.18   16.66   0
  -5   4 -21   39.96   13.05   0
  -5   5 -46  183.75   19.43   0
  -2   1 -45   13.08   14.64   0
   0  -1 -29    0.85   10.39   0
  -6   6 -21   -5.99   13.85   0
  -5   4 -33   10.40   13.91   0
  -4   3 -43    8.14   15.08   0
  -4   4   1    1.13   11.16   0
  -6   6 -18  376.65   18.78   0
  -3   2 -47   -2.56   15.07   0
  -1   0 -43    1.87   13.04   0
   0  -1 -32 2164.31   35.82   0
  -6   7 -43   10.32   16.99   0
  -5   5  -4 1393.48   27.29   0
  -3   3 -57    8.96   17.28   0
  -6   6 -15   11.98   14.00   0
  -5   4 -39    7.94   15.36   0
  -5   5 -49   -2.20   15.42   0
  -4   3 -46  166.55   16.96   0
  -4   3  -7   31.12   11.71   0
  -2   1 -48  568.15   21.15   0
  -2   2 -58  179.74   18.64   0
  -6   6 -39   -1.47   16.00   0
   0  -1 -35    2.59   11.15   0
  -5   4 -42  412.47   20.78   0
  -5   4 -12 1355.89   25.89   0
  -4   4 -56  174.62   18.70   0
  -3   2 -50  306.62   19.52   0
  -1   0 -46  169.96   17.13   0
  -6   6 -42  265.67   18.15   0
  -6   6 -12  539.27   19.99   0
  -5   5 -52  389.01   21.35   0
   0  -1 -38  362.26   18.23   0
  -6   5 -29   -1.02   15.86   0
  -6   6 -45   -7.36   17.44   0
  -5   4 -45   -4.71   16.08   0
  -3   1 -31    7.81   12.99   0
  -3   1 -25   16.17   11.16   0
  -3   3 -60  236.56   19.85   0
  -2   1 -51    3.51   15.61   0
  -6   5 -32  657.94   21.56   0
  -5   4  -9   51.63   12.93   0
  -4   2 -30  310.10   16.57   0
  -4   2 -27  -11.32   12.59   0
  -4   2 -24 2333.14   30.97   0
  -3   1 -22  587.43   19.05   0
  -6   5 -35   -6.02   16.02   0
  -6   5 -20  683.80   20.98   0
  -6   6  -9   10.29   13.23   0
  -5   5  -1   -0.35   11.80   0
  -4   2 -33    4.35   12.90   0
  -4   2 -21   -1.86   12.71   0
  -4   3 -52  415.55   21.41   0
  -4   3  -4 1424.74   27.10   0
  -4   4 -59   15.76   16.77   0
  -3   2 -53    9.89   15.42   0
  -1   0 -49   -4.95   14.98   0
  -7   8 -33    0.26   16.45   0
  -7   8 -30   91.43   17.05   0
  -7   8 -27   -3.65   15.70   0
  -7   8 -24  352.89   19.65   0
  -6   5 -38  263.94   17.92   0
  -6   6 -48  340.69   20.43   0
  -5   4 -48  276.86   19.18   0
  -4   2 -36  574.31   19.69   0
  -3   1 -19    8.21   11.54   0
  -6   5 -17   10.96   13.14   0
  -6   5 -41   -9.96   16.53   0
  -5   3 -32 1027.22   24.31   0
  -5   3 -29    3.34   13.82   0
  -5   3 -26  900.05   21.82   0
  -4   2 -39   13.06   13.50   0
  -4   2 -18 1282.11   23.94   0
  -3   1 -40  680.69   21.38   0
  -2   0 -32  761.41   21.31   0
  -2   0 -29   -1.27   10.62   0
  -2   1 -54  228.48   18.14   0
  -7   7 -29    8.21   16.13   0
  -7   7 -26  355.75   20.24   0
  -5   3 -35   -0.33   13.93   0
  -5   3 -23   21.83   13.07   0
  -5   4 -51    4.25   17.77   0
  -3   2 -56  365.48   20.98   0
  -2   0 -35   -5.59   12.20   0
  -7   7 -35    1.41   16.63   0
  -7   7 -23  -13.43   15.78   0
  -6   5 -14  586.61   19.45   0
  -6   6  -6  562.51   21.07   0
  -5   3 -20  804.54   21.49   0
  -5   4  -6  470.65   18.24   0
  -4   3 -55   -5.57   15.80   0
  -3   1 -16 2302.35   31.27   0
  -7   7 -38  105.86   18.00   0
  -7   7 -20  292.89   18.73   0
  -5   3 -38  161.04   16.01   0
  -4   2 -15   -1.48   10.57   0
  -3   1 -43   -2.30   13.95   0
  -2   0 -38  401.16   18.08   0
  -2   0 -20 3948.89   41.64   0
  -5   3 -41   -6.30   15.89   0
  -7   7 -17  -11.87   15.30   0
  -6   5 -47  -13.41   15.40   0
  -6   5 -11    3.22   13.24   0
  -5   3 -17   10.13   12.11   0
  -2   0 -41   -1.69   13.59   0
  -5   3 -44  460.66   20.91   0
  -4   3 -58  260.71   19.64   0
  -3   1 -46  245.02   16.89   0
  -3   1 -13   51.46   11.33   0
  -7   6 -31   19.42   16.87   0
  -7   6 -28  276.84   19.02   0
  -6   4 -34  308.24   19.41   0
  -6   4 -31   15.50   14.59   0
  -6   4 -28  669.69   21.03   0
  -6   4 -25    3.59   15.07   0
  -4   2 -48  534.29   21.21   0
  -4   2 -12  931.71   21.36   0
  -4   3  -1   58.06   11.35   0
  -3   2 -59   -4.30   16.45   0
  -2   0 -17    0.99    9.72   0
  -7   6 -25   14.79   15.41   0
  -7   7 -14  204.37   17.97   0
  -6   4 -37   15.19   16.39   0
  -6   5 -50  175.79   17.50   0
  -5   3 -14  471.95   17.44   0
  -2   0 -44 1208.80   26.19   0
  -7   6 -22  297.00   18.11   0
  -6   4 -22  538.89   19.50   0
  -5   3 -47    3.62   15.30   0
  -5   4  -3   -4.98   11.86   0
  -3   1 -49    4.39   15.24   0
  -7   6 -40  423.84   19.74   0
  -6   4 -40  489.04   20.44   0
  -6   5  -8 1095.41   24.56   0
  -7   6 -19   40.98   14.49   0
  -6   4 -43   13.75   17.47   0
  -4   2 -51  -18.51   15.40   0
  -7   6 -43   24.58   15.06   0
  -4   2  -9    2.48   10.33   0
  -3   1 -10 2213.27   31.48   0
  -3   2 -62  135.11   19.46   0
  -2   0 -47   -2.25   14.23   0
  -1  -1 -33   20.09   12.35   0
  -1  -1 -30  795.55   22.00   0
  -7   6 -16  943.96   24.02   0
  -6   4 -16  989.61   22.54   0
  -3   1 -52  565.49   21.96   0
  -2   0 -14  369.40   15.70   0
  -1  -1 -27   -3.22   10.77   0
  -6   4 -46  199.41   17.53   0
  -1  -1 -36 1233.86   26.51   0
  -5   3 -53    6.59   16.58   0
  -4   2 -54   76.29   16.10   0
  -1  -1 -24 2021.53   32.55   0
  -7   5 -33    7.03   15.17   0
  -6   4 -49    4.57   17.11   0
  -6   5  -5    5.96   12.63   0
  -2   0 -50  313.54   18.00   0
  -1  -1 -39    5.52   11.97   0
  -7   5 -36  277.17   18.35   0
  -7   5 -24  706.00   22.31   0
  -7   6 -13    5.21   14.36   0
  -6   4 -13   -3.49   12.16   0
  -5   2 -31   10.59   13.22   0
  -5   3  -8 2559.68   32.93   0
  -4   1 -32 1236.43   24.55   0
  -4   1 -29   11.27   12.73   0
  -3   1 -55   -4.69   15.90   0
  -7   5 -39    9.23   15.07   0
  -5   2 -37    7.08   13.84   0
  -5   2 -28  565.38   18.78   0
  -4   1 -26  890.19   21.29   0
   4  -1  -1   62.44    8.65   0
   5  -9 -16  554.33   18.40   0
   7  -8 -15   18.44   12.27   0
   8  -9 -10  185.47   13.18   0
   8  -8 -11   -7.74   13.25   0
   9  -8  -4  385.80   15.35   0
   9  -7  -2  181.73   13.17   0
   3  -6 -21   13.22   10.71   0
   6  -6 -18  578.23   16.40   0
   6  -5 -16  850.94   18.55   0
   6  -3  -6  616.36   15.61   0
   7  -9 -14  229.02   14.29   0
   7  -6 -14  239.67   13.86   0
   3  -7 -20  641.59   18.65   0
   4  -4 -19   -1.00    8.68   0
   5  -2  -5   16.05    8.05   0
   7  -7 -16  768.62   18.53   0
   2  -2 -14  383.43   13.36   0
   3  -2 -13   48.92    8.56   0
   5  -7 -21   13.34   11.44   0
   6  -8 -19    8.72   12.96   0
   7  -5 -12  687.27   17.63   0
   5  -8 -20  348.30   15.88   0
   5  -5 -20  933.37   18.59   0
   5  -1   6  960.49   21.09   0
   7  -4  -7    9.54   10.02   0
   8  -7 -12  315.14   15.28   0
   8  -5  -5    6.52   11.33   0
   8  -4   3   -0.87   10.22   0
   9  -6   0  570.17   16.63   0
   1  -3 -17   22.61    8.02   0
   3  -5 -22  418.18   14.52   0
   3  -3 -18 1629.09   22.90   0
   4  -7 -22  300.52   15.19   0
   5  -3 -13    0.48    8.64   0
   6  -2   2  735.65   17.71   0
   7  -3   1   19.73    9.96   0
   8  -6 -10  332.48   15.15   0
   9  -8  -7   -0.13   11.35   0
   4  -6 -23   -2.84   11.44   0
   5  -4 -18  525.57   14.75   0
   6  -9 -18  201.59   15.06   0
   6  -4 -14  425.37   14.49   0
   7  -8 -18  227.12   15.44   0
   8  -9 -13   23.75   11.35   0
   8  -8 -14  307.38   15.99   0
   4  -3 -17    0.55    8.29   0
   7  -9 -17   22.56   13.04   0
   1  -4 -19   36.13    8.86   0
   2  -4 -21    2.64    8.89   0
   6  -3  -9   13.66    9.22   0
   7  -6 -17  -15.05   11.43   0
   9  -6  -3    6.14   12.06   0
   9  -5   5    8.53   11.60   0
   4  -2 -12  938.22   18.02   0
   6  -6 -21   -7.13   11.33   0
   6  -5 -19  -19.33   10.57   0
   7  -7 -19   -5.83   12.27   0
   8  -4   0  752.80   18.76   0
   5  -2  -8 2576.63   28.18   0
   7  -5 -15    6.61   10.77   0
   7  -4 -10  575.12   15.94   0
   7  -3  -2  366.83   14.65   0
   8  -7 -15    6.24   12.32   0
   8  -5  -8  792.36   18.30   0
   9  -8 -10  163.39   13.21   0
   3  -1  -8 3516.69   34.94   0
   4  -1  -4 1450.88   22.95   0
   5  -7 -24  553.61   18.11   0
   6  -8 -22  163.17   14.77   0
   6  -2  -1   -0.97    9.28   0
   8  -6 -13    4.65   11.93   0
   3  -6 -24  853.06   20.02   0
   4  -4 -22  912.15   18.40   0
   5  -8 -23   12.00   13.06   0
   5  -1   3   45.84    9.30   0
   8  -8 -17   -7.10   13.37   0
   9  -5   2  312.81   15.16   0
   5  -5 -23    7.82    9.87   0
   5  -3 -16 2245.17   25.69   0
   6  -4 -17    9.73    9.62   0
   9  -6  -6  330.61   14.92   0
   2  -5 -23   14.23    9.56   0
   6  -9 -21   -4.37   11.76   0
   7  -9 -20  289.87   15.64   0
   7  -6 -20  431.18   16.50   0
   8  -4  -3    7.55   11.33   0
   3  -2 -16 2368.78   27.30   0
   4  -7 -25   27.63   12.39   0
   5  -4 -21   13.50   10.04   0
   8  -5 -11   12.89   11.52   0
   9  -8 -13   14.34   11.19   0
   9  -7 -11    4.66   11.26   0
   3  -5 -25    2.02   10.41   0
   3  -3 -21   -2.90    9.15   0
   4  -6 -26  504.24   16.74   0
   6  -6 -24  666.47   18.52   0
   7  -7 -22  225.38   14.66   0
   7  -3  -5   20.62   10.48   0
   8  -7 -18  234.82   14.64   0
   9  -5  -1    6.18   11.36   0
   2  -2 -17   -1.77    7.14   0
   4  -3 -20 1093.59   19.41   0
   6  -5 -22  334.80   14.16   0
   7  -5 -18  595.77   16.86   0
   8  -6 -16  688.69   17.97   0
   4  -2 -15    2.32    8.15   0
   6  -2  -4 1113.69   20.20   0
   8  -8 -20  289.32   15.86   0
   9  -6  -9    3.05   11.28   0
   5  -1   0 1746.80   26.29   0
   6  -8 -25    4.49   12.04   0
   8  -4  -6  347.00   15.42   0
   4  -1  -7   33.59    8.06   0
   5  -7 -27    4.52   12.76   0
   6  -7 -26  431.96   16.89   0
   9  -7 -14  253.10   14.60   0
   9  -5  -4  273.30   14.81   0
   1  -3 -20 1649.92   26.06   0
   4  -4 -25   -8.75   10.42   0
   5  -8 -26  352.30   16.42   0
   5  -5 -26  344.89   14.46   0
   5  -3 -19   14.55   10.28   0
   6  -9 -24  455.72   18.15   0
   7  -6 -23   15.17   12.78   0
   2  -3 -22  531.15   15.02   0
   3  -1 -11   29.33    8.13   0
   4  -5 -27   23.56   10.30   0
   8  -7 -21  -10.16   13.14   0
   3  -6 -27    0.29   10.80   0
   5  -4 -24 1260.02   20.91   0
   7  -7 -25    2.55   12.35   0
   7  -5 -21    4.35   12.10   0
   8  -6 -19    3.12   12.28   0
   9  -6 -12  267.61   14.39   0
   3  -4 -26  840.62   18.42   0
   6  -6 -27    1.32   12.56   0
   6  -5 -25   16.41   10.65   0
   6  -2  -7   -4.71    9.69   0
   8  -4  -9    7.99   11.51   0
   3  -2 -19   11.36    8.27   0
   4  -7 -28  607.84   18.90   0
   8  -8 -23   -5.50   12.25   0
   9  -7 -17   22.14   12.76   0
   9  -5  -7    8.78   11.99   0
   2  -5 -26  866.35   20.34   0
   4  -6 -29    2.76   10.61   0
   4  -3 -23   26.59    9.84   0
   5  -1  -3   -4.68    8.67   0
   3  -5 -28  532.39   16.34   0
   3  -3 -24 1341.89   21.39   0
   4  -2 -18 1336.76   20.81   0
   6  -8 -28  301.21   15.22   0
   6  -7 -29   12.19   12.47   0
   6  -4 -23    3.70   10.71   0
   7  -8 -27    3.18   11.89   0
   7  -6 -26  485.76   17.32   0
   7  -3 -11    3.54    9.89   0
   8  -7 -24  476.09   18.00   0
   9  -6 -15   28.01   12.40   0
   2  -2 -20 4117.33   36.43   0
   5  -7 -30  148.00   14.86   0
   5  -5 -29    1.30   11.74   0
   5  -3 -22  446.09   14.29   0
   6  -3 -18  554.96   15.83   0
   7  -4 -19    4.95   11.37   0
   8  -6 -22  168.52   14.22   0
   8  -4 -12  439.62   16.67   0
   9  -5 -10  225.36   14.53   0
   5  -8 -29    3.61   13.40   0
   6  -2 -10  519.66   15.55   0
   7  -7 -28  261.38   15.03   0
   7  -5 -24  545.19   16.68   0
   4  -5 -30  466.84   15.82   0
   4  -4 -28  822.20   18.13   0
   5  -4 -27   10.42   10.28   0
   8  -8 -26  141.03   14.35   0
   9  -7 -20  286.61   14.59   0
   5  -6 -31   -5.95   11.81   0
   6  -6 -30  195.68   14.32   0
   6  -5 -28  667.73   17.75   0
   2  -4 -27    6.26    9.15   0
   2  -1 -15    9.76    7.79   0
   5  -1  -6  476.82   15.14   0
   2  -3 -25   12.74    8.29   0
   3  -6 -30  301.63   15.18   0
   3  -4 -29   -3.78   10.45   0
   4  -7 -31   -6.88   12.67   0
   7  -3 -14  515.64   15.83   0
   8  -3  -4  397.97   15.79   0
   9  -5 -13    5.82   11.78   0
   3  -2 -22  562.87   15.19   0
   4  -6 -32  557.05   17.80   0
   4  -3 -26  895.28   18.49   0
   6  -8 -31   -0.02   13.35   0
   6  -4 -26  524.31   15.92   0
   7  -8 -30  169.41   14.91   0
   7  -6 -29    4.49   13.29   0
   8  -7 -27   16.83   12.05   0
   8  -6 -25    2.92   11.58   0
   8  -4 -15   -1.83   11.06   0
   1  -3 -23    5.80    8.17   0
   4  -2 -21    2.00    9.01   0
   6  -7 -32  440.26   16.78   0
   6  -3 -21   26.78   10.36   0
   6  -2 -13   -4.69   10.38   0
   7  -4 -22  284.07   13.83   0
   7  -2  -3   19.80    9.90   0
   3  -5 -31    1.84   10.80   0
   3  -3 -27   -4.60    9.04   0
   5  -3 -25   15.31   10.10   0
   7  -5 -27    3.05   12.05   0
   9  -7 -23  -15.27   11.50   0
   5  -7 -33    7.98   11.75   0
   1  -4 -25    4.63    8.50   0
   2  -5 -29    4.15    9.78   0
   5  -4 -30  461.03   15.44   0
   5  -1  -9   44.29    9.72   0
   6  -5 -31  -12.60   10.99   0
   7  -3 -17   20.14   11.46   0
   8  -5 -23    8.39   11.33   0
   8  -3  -7    3.75   11.34   0
   9  -5 -16  567.95   17.52   0
   2  -2 -23   -0.99    7.80   0
   4  -5 -33   24.67   12.20   0
   5  -6 -34  363.59   16.82   0
   5  -2 -20  768.74   17.55   0
   8  -4 -18  334.22   15.83   0
   1  -2 -21   35.93    8.51   0
   3  -1 -17   27.60    8.39   0
   7  -2  -6  599.58   17.33   0
   8  -7 -30  170.43   15.26   0
   8  -6 -28  263.15   16.26   0
   9  -4  -8  559.83   17.46   0
   6  -4 -29   -1.03   12.01   0
   7  -8 -33   -6.40   13.09   0
   7  -6 -32  461.47   17.66   0
   7  -4 -25   27.22   11.85   0
   4  -3 -29   -6.25    9.57   0
   6  -8 -34  270.80   15.80   0
   6  -3 -24  846.47   18.19   0
   6  -2 -16 1049.92   19.61   0
   2  -1 -18 1342.16   21.94   0
   3  -6 -33    6.51   12.37   0
   3  -2 -25   18.15    9.03   0
   4  -2 -24 2311.24   26.75   0
   6  -7 -35   22.74   12.63   0
   7  -5 -30  148.64   13.61   0
   9  -5 -19   14.00   12.16   0
   2  -4 -30  266.54   12.66   0
   4  -6 -35    7.39   11.14   0
   5  -1 -12 1421.25   22.71   0
   7  -3 -20  664.97   17.96   0
   7  -2  -9    0.90   10.17   0
   8  -5 -26  327.11   14.80   0
   9  -4 -11    0.21   11.93   0
   5  -7 -36  462.12   17.94   0
   8  -4 -21    3.04   11.69   0
   3  -5 -34  646.21   17.99   0
   4   0  -2 1559.77   26.90   0
   5  -4 -33   11.81   11.30   0
   5  -2 -23   21.17   10.44   0
   6  -5 -34  400.27   15.79   0
   7  -4 -28  627.13   17.91   0
   8  -7 -33   -4.44   12.68   0
   8  -6 -31    3.17   12.09   0
   8  -3 -13    7.72   11.15   0
   1  -3 -26  654.39   17.54   0
   3  -1 -20 1737.04   23.62   0
   4  -5 -36  478.86   17.43   0
   5  -6 -37    9.25   12.22   0
   6  -4 -32  571.78   17.99   0
   6  -3 -27    6.23   11.67   0
   6  -2 -19   -0.54    9.73   0
   6  -1  -5   -0.53    9.75   0
   7  -6 -35    5.31   13.36   0
   2  -2 -26 1511.47   22.63   0
   7  -5 -33   -8.95   12.73   0
   7  -2 -12  576.34   16.79   0
   9  -6 -27   19.60   12.79   0
   9  -5 -22  172.21   13.56   0
   9  -4 -14  150.46   13.67   0
   3   0  -9   -1.84    8.08   0
   4  -3 -32 1245.10   21.73   0
   4  -2 -27   -7.25   10.37   0
   4  -1 -19   29.31    9.14   0
   5  -1 -15    3.13    9.22   0
   6  -8 -37    2.70   13.63   0
   7  -3 -23   -9.97   11.71   0
   8  -5 -29   10.32   12.18   0
   1  -4 -28  940.68   21.38   0
   5  -3 -31    2.32   10.84   0
   6  -7 -38  111.41   13.25   0
   7  -7 -37    2.08   12.27   0
   1  -2 -24 1927.57   26.95   0
   2  -1 -21   51.13    8.77   0
   3  -2 -28 1764.78   23.91   0
   4   0  -5   -4.97    8.16   0
   6  -1  -8 1106.43   21.26   0
   8  -3 -16  670.59   17.96   0
   3  -4 -35   13.61   10.29   0
   4  -6 -38  198.76   14.56   0
   5  -2 -26  904.39   18.34   0
   6  -5 -37   13.26   12.63   0
   8  -6 -34  295.96   15.98   0
   9  -4 -17    4.87   12.17   0
   1  -1 -19    2.53    7.24   0
   2  -4 -33   -0.01   10.00   0
   2  -3 -31    7.36    8.59   0
   5  -7 -39   12.08   12.94   0
   5  -4 -36  515.68   16.74   0
   6  -6 -39    6.49   13.39   0
   6  -2 -22  526.84   15.94   0
   7  -4 -31   -3.66   12.16   0
   7  -2 -15   12.32   10.72   0
   9  -5 -25    2.63   12.65   0
   6  -4 -35    3.80   12.65   0
   6  -3 -30  329.61   14.82   0
   7  -6 -38   99.50   14.22   0
   3  -5 -37    3.12   11.38   0
   3  -1 -23   10.67    8.75   0
   5  -6 -40  381.82   16.87   0
   5  -1 -18  974.46   19.33   0
   7  -5 -36  459.85   16.73   0
   8  -5 -32  410.36   16.21   0
   8  -3 -19   -0.71   12.14   0
   4  -5 -39    9.71   11.20   0
   4  -1 -22  454.39   14.41   0
   4   0  -8 1840.75   26.85   0
   6  -1 -11    2.43    9.74   0
   2   0 -13    1.06    7.90   0
   4  -3 -35    1.85   11.51   0
   4  -2 -30  280.69   13.42   0
   5  -3 -34  657.14   17.19   0
   9  -4 -20  247.37   14.86   0
   6  -7 -41    9.88   12.04   0
   7  -2 -18  311.47   15.02   0
   1  -3 -29   16.19    8.76   0
   3  -2 -31   13.78    9.63   0
   5  -2 -29    9.25   10.36   0
   6  -5 -40  358.73   16.80   0
   7  -4 -34  304.22   15.10   0
   8  -6 -37    1.86   12.09   0
   9  -5 -28  190.49   13.12   0
   2  -1 -24 2174.30   26.46   0
   5  -5 -41    5.76   11.82   0
   5  -4 -39    5.81   12.49   0
   6  -3 -33    0.26   12.39   0
   6  -1 -14  585.20   16.92   0
   8  -3 -22  222.07   14.59   0
   3  -4 -38  261.70   13.65   0
   4  -6 -41    2.45   11.95   0
   4   0 -11   -6.96    8.88   0
   5  -1 -21   20.53    9.59   0
   6  -6 -42  278.07   15.39   0
   6  -4 -38  198.13   14.94   0
   8  -5 -35   24.88   11.48   0
   1  -2 -27    1.70    8.35   0
   2  -3 -34  805.04   18.35   0
   5  -7 -42  291.76   15.63   0
   7  -6 -41  -12.34   11.97   0
   7  -5 -39   -0.00   12.28   0
   9  -4 -23    6.29   12.17   0
   1  -1 -22  534.27   15.22   0
   2  -4 -36  559.38   17.09   0
   3  -1 -26  674.00   16.03   0
   4  -1 -25   -0.15    9.00   0
   5  -6 -43   -5.88   13.16   0
   7  -2 -21    5.77   10.34   0
   4  -5 -42  292.29   16.06   0
   4  -2 -33    7.49   10.43   0
   5  -3 -37   -3.26   11.05   0
   2   0 -16 3311.82   33.56   0
   4  -3 -38  275.51   14.15   0
   5  -2 -32  987.48   20.35   0
   6  -1 -17   12.39   10.66   0
   7  -4 -37   20.17   13.28   0
   8  -3 -25   -2.41   12.09   0
   4   0 -14  416.67   14.51   0
   3  -2 -34  834.39   18.03   0
   6  -5 -43   14.84   12.38   0
   6  -3 -36  503.40   16.76   0
   8  -5 -38  121.78   14.28   0
   9  -4 -26  273.20   15.30   0
   2  -1 -27   -1.05    8.46   0
   3   0 -18  645.08   16.01   0
   5  -5 -44  344.19   16.21   0
   5  -4 -42  322.29   15.65   0
   5   0  -7    1.34    9.08   0
   6  -4 -41   -0.32   13.42   0
   7  -2 -24  731.88   18.24   0
   1  -3 -32 1518.68   24.62   0
   4  -1 -28  981.31   18.97   0
   6  -6 -45   -9.47   12.29   0
   7  -5 -42  290.08   15.52   0
   3  -4 -41    9.15   10.56   0
   3  -3 -39    8.93   10.19   0
   3  -1 -29    9.71    9.02   0
   4  -6 -44  402.11   17.12   0
   6  -2 -31   -0.98   10.99   0
   6  -1 -20  708.78   17.60   0
   8  -3 -28  325.22   15.76   0
   2  -3 -37    4.47   10.38   0
   2   0 -19    1.82    7.83   0
   4  -4 -43    0.93   11.81   0
   4  -2 -36  581.78   16.82   0
   4   0 -17    1.03    8.36   0
   5   0 -10  839.52   19.36   0
   1  -2 -30  767.59   17.68   0
   1  -1 -25    3.16    7.64   0
   5  -6 -46  161.62   15.14   0
   5  -2 -35   -5.15   11.30   0
   7  -4 -40  294.21   15.14   0
   7  -3 -35   -6.99   12.75   0
   9  -4 -29   26.40   12.29   0
   2  -4 -39    0.13   10.38   0
   4  -5 -45   16.69   12.98   0
   4  -3 -41   -5.00   10.88   0
   6  -3 -39    1.71   13.19   0
   7  -2 -27   -6.89   11.53   0
   3  -5 -43   -2.98   11.98   0
   3  -2 -37    5.67    9.81   0
   3   0 -21    1.15    8.30   0
   6  -1 -23    5.80   10.89   0
   2  -1 -30  808.81   17.51   0
   4  -1 -31   14.45   10.47   0
   5   0 -13    3.28    9.28   0
   6  -4 -44  452.11   17.79   0
   3  -1 -32 1578.36   22.75   0
   4   0 -20 1607.86   23.43   0
   5  -5 -47   15.90   12.33   0
   6  -6 -48  225.70   15.65   0
   6  -2 -34  306.27   15.04   0
   7  -5 -45   -2.46   11.85   0
   8  -3 -31   -6.84   11.64   0
   8  -2 -20  330.64   15.53   0
   2   0 -22 2323.92   27.07   0
   0  -2 -25   -2.08    7.88   0
   3  -4 -44  472.50   16.81   0
   4  -2 -39  -13.72   11.06   0
   5  -3 -43   -2.16   11.94   0
   5  -2 -38  168.81   13.32   0
   5  -1 -30  253.78   13.71   0
   5   0 -16  950.88   20.03   0
   7  -4 -43   15.60   13.49   0
   7  -3 -38  280.72   15.64   0
   7  -2 -30  310.54   15.03   0
   8  -4 -39   -1.72   12.88   0
   1  -3 -35   -2.10    9.02   0
   3   0 -24 1976.47   25.02   0
   4  -4 -46  265.27   14.82   0
   6  -1 -26  366.55   15.74   0
   1  -2 -33   10.56    9.20   0
   2  -3 -40  643.89   17.90   0
   4  -3 -44  478.59   16.50   0
   5  -6 -49    3.07   12.94   0
   6  -3 -42  306.66   15.24   0
   8  -2 -23    6.55   11.99   0
   4  -5 -48  439.54   17.60   0
   4  -1 -34  774.80   18.18   0
   6  -2 -37    0.69   12.40   0
   8  -3 -34  245.73   15.38   0
   1   0 -20 1669.86   24.41   0
   2  -4 -42  651.85   18.84   0
   2  -2 -38  373.79   14.64   0
   2  -1 -33   11.02    9.35   0
   5   0 -19    2.36   10.09   0
   6  -4 -47    6.10   13.41   0
   7  -1 -19   21.94   10.88   0
   2   0 -25   -4.31    8.39   0
   3  -1 -35    9.49    9.66   0
   5  -1 -33    5.38   10.75   0
   7  -2 -33   -0.03   11.99   0
   5  -5 -50  169.36   14.14   0
   5  -2 -41   11.94   12.48   0
   6  -1 -29    5.27   11.04   0
   7  -3 -41    4.27   13.20   0
   3   0 -27   -6.29    8.64   0
   4  -2 -42  700.25   17.78   0
   5  -3 -46  113.51   13.85   0
   7  -4 -46  154.03   14.10   0
   8  -2 -26  368.85   16.01   0
   3  -3 -45    1.21   11.11   0
   5   0 -22  372.69   15.11   0
   6  -3 -45    8.85   12.78   0
   7  -1 -22  258.04   14.75   0
   8  -3 -37   16.27   12.64   0
   3  -4 -47   -4.12   11.18   0
   4  -4 -49    0.04   12.14   0
   4  -1 -37   -4.92   10.91   0
   6  -2 -40  437.29   17.43   0
   0  -2 -28 1296.70   24.04   0
   1  -3 -38  491.99   16.71   0
   1   0 -23    3.85    7.99   0
   2  -3 -43   -5.17   10.79   0
   5  -1 -36  783.79   19.09   0
   7  -2 -36  299.18   15.81   0
   2  -1 -36 1269.95   21.13   0
   2   0 -28 1374.25   21.37   0
   3  -2 -43    3.74   10.42   0
   3  -1 -38  529.38   15.98   0
   6  -4 -50  225.13   15.68   0
   6  -1 -32  671.22   17.94   0
   7  -1 -25   -9.35   11.80   0
   8  -2 -29    6.95   12.04   0
   2  -2 -41   -1.90    9.65   0
   3   0 -30  797.86   17.62   0
   3   1  -7   32.40    8.72   0
   4  -5 -51   -0.11   12.43   0
   5  -4 -51   -1.06   11.82   0
   5  -2 -44  450.60   17.14   0
   5   0 -25    0.96    9.94   0
   6   0 -15   -5.41   10.15   0
   7  -3 -44  288.49   15.52   0
   2  -4 -45   -0.12   12.26   0
   3   1 -10 1356.53   23.79   0
   4  -2 -45   -5.99   11.30   0
   5  -5 -53   -2.82   11.87   0
   5  -3 -49   -5.16   12.76   0
   6  -3 -48  266.07   16.76   0
   1   0 -26 1467.70   22.18   0
   2   1 -11   34.68    7.89   0
   3  -3 -48  345.97   16.04   0
   3   1 -13   24.65    8.81   0
   4  -1 -40  701.20   17.64   0
   6  -2 -43   -7.60   11.82   0
   6  -1 -35   -3.79   12.20   0
   6   0 -18  373.26   15.39   0
   7  -2 -39    6.93   12.79   0
   7  -1 -28  263.91   15.12   0
   0  -1 -26 1355.59   23.44   0
   2   0 -31  -13.48    9.13   0
   4  -4 -52  267.69   15.86   0
   5  -1 -39   24.32   12.02   0
   5   0 -28  944.91   20.11   0
   2  -1 -39   -4.45    9.20   0
   3  -4 -50  349.72   15.89   0
   3  -1 -41    7.14   10.88   0
   3   0 -33    1.70    9.91   0
   3   1 -16 2454.05   29.32   0
   4   0 -32  675.10   17.15   0
   6   0 -21   -4.96   10.60   0
   0  -2 -31    2.24    8.76   0
   1  -2 -39   -4.11    9.93   0
   2  -3 -46  249.23   14.41   0
   6  -4 -53   11.47   13.30   0
   7  -3 -47   -0.64   13.27   0
   1  -3 -41   -2.49   10.07   0
   2  -2 -44 1139.15   21.00   0
   2   1 -17   21.98    8.29   0
   4   1  -9   43.92    9.61   0
   5  -4 -54  110.75   14.59   0
   5  -2 -47   17.23   12.09   0
   7  -1 -31    9.91   12.29   0
   3   1 -19   39.56    8.92   0
   4  -5 -54  131.47   15.25   0
   4  -1 -43    1.70   12.59   0
   4   1 -12 1367.17   23.81   0
   5  -3 -52  294.20   16.16   0
   5   0 -31   -0.64   11.26   0
   8  -2 -35   -0.24   12.25   0
   1   0 -29    9.63    8.06   0
   2   0 -34  346.11   14.21   0
   4   0 -35   -2.11   11.45   0
   4   1 -15    9.62    9.29   0
   5  -1 -42  375.30   16.60   0
   6  -3 -51    5.12   12.84   0
   6  -2 -46  246.52   14.53   0
   6   0 -24  880.74   19.53   0
   1  -1 -37    0.57    9.50   0
   2   1 -20 1697.30   23.96   0
   3   0 -36  776.10   17.74   0
   0  -1 -29    2.17    7.26   0
   3  -3 -51   -2.59   11.69   0
   3  -1 -44  515.16   16.04   0
   4  -3 -53   -6.99   13.36   0
   4   1 -18  966.79   19.97   0
   2  -1 -42  458.67   15.07   0
   4  -4 -55   -2.47   12.97   0
   5   0 -34  446.16   16.18   0
   6   0 -27   -7.94   11.96   0
   7  -1 -34  295.09   14.63   0
   0   0 -21   -6.76    7.18   0
   2   1 -23   14.79    8.64   0
   3  -4 -53    7.59   12.68   0
   4   1 -21   21.97   10.40   0
   5  -2 -50  387.25   16.49   0
   0  -2 -34  348.36   14.50   0
   1  -2 -42  492.70   15.51   0
   1   0 -32 2281.96   26.76   0
   1   1 -15    6.26    7.51   0
   2  -3 -49   -5.70   11.30   0
   2  -2 -47   -0.55   11.71   0
   4  -2 -51   -6.51   13.33   0
   4  -1 -46  141.16   14.27   0
   4   0 -38  214.57   13.02   0
   2   0 -37    1.12    9.56   0
   3   0 -39    0.73   10.67   0
   5  -3 -55    8.08   13.17   0
   5  -1 -45  -20.25   12.51   0
   6  -2 -49   -2.10   11.66   0
   6   0 -30  264.44   14.96   0
   1  -3 -44  513.65   16.76   0
   1   1 -18 1305.91   21.85   0
   4   1 -24  930.07   19.62   0
   7  -1 -37    0.85   12.59   0
   1  -1 -40 1023.35   19.62   0
   2   1 -26  676.64   16.08   0
   3  -1 -47    1.58   11.03   0
;
_shelx_hkl_checksum              10071
loop_
_space_group_symop_operation_xyz
'x, y, z'
'-y, x-y, z'
'-x+y, -x, z'
'y, x, -z+1/2'
'x-y, -y, -z+1/2'
'-x, -x+y, -z+1/2'
'x+2/3, y+1/3, z+1/3'
'-y+2/3, x-y+1/3, z+1/3'
'-x+y+2/3, -x+1/3, z+1/3'
'y+2/3, x+1/3, -z+5/6'
'x-y+2/3, -y+1/3, -z+5/6'
'-x+2/3, -x+y+1/3, -z+5/6'
'x+1/3, y+2/3, z+2/3'
'-y+1/3, x-y+2/3, z+2/3'
'-x+y+1/3, -x+2/3, z+2/3'
'y+1/3, x+2/3, -z+7/6'
'x-y+1/3, -y+2/3, -z+7/6'
'-x+1/3, -x+y+2/3, -z+7/6'
'-x, -y, -z'
'y, -x+y, -z'
'x-y, x, -z'
'-y, -x, z-1/2'
'-x+y, y, z-1/2'
'x, x-y, z-1/2'
'-x+2/3, -y+1/3, -z+1/3'
'y+2/3, -x+y+1/3, -z+1/3'
'x-y+2/3, x+1/3, -z+1/3'
'-y+2/3, -x+1/3, z-1/6'
'-x+y+2/3, y+1/3, z-1/6'
'x+2/3, x-y+1/3, z-1/6'
'-x+1/3, -y+2/3, -z+2/3'
'y+1/3, -x+y+2/3, -z+2/3'
'x-y+1/3, x+2/3, -z+2/3'
'-y+1/3, -x+2/3, z+1/6'
'-x+y+1/3, y+2/3, z+1/6'
'x+1/3, x-y+2/3, z+1/6'
loop_
_atom_site_label
_atom_site_type_symbol
_atom_site_fract_x
_atom_site_fract_y
_atom_site_fract_z
_atom_site_U_iso_or_equiv
_atom_site_adp_type
_atom_site_occupancy
_atom_site_site_symmetry_order
_atom_site_calc_flag
_atom_site_refinement_flags_posn
_atom_site_refinement_flags_adp
_atom_site_refinement_flags_occupancy
Ba1 Ba 0.0000 0.0000 0.2500 0.00611(2) Uani 1 6 d S T P
Mg2 Mg 0.0000 0.0000 0.0000 0.00530(7) Uani 1 6 d S T P
O3 O 0.11154(14) 0.81907(14) 0.12925(2) 0.01115(11) Uani 1 1 d . . .
C4 C 0.0000 0.0000 0.13038(3) 0.00599(11) Uani 1 3 d S T P
loop_
_atom_site_aniso_label
_atom_site_aniso_U_11
_atom_site_aniso_U_22
_atom_site_aniso_U_33
_atom_site_aniso_U_23
_atom_site_aniso_U_13
_atom_site_aniso_U_12
Ba1 0.00533(2) 0.00533(2) 0.00767(3) 0.000 0.000 0.00267(1)
Mg2 0.00471(10) 0.00471(10) 0.00650(17) 0.000 0.000 0.00235(5)
O3 0.0149(3) 0.0119(3) 0.01229(18) -0.00267(16) -0.00434(17) 0.0109(3)
C4 0.00584(17) 0.00584(17) 0.0063(3) 0.000 0.000 0.00292(8)
loop_
_atom_type_symbol
_atom_type_description
_atom_type_scat_dispersion_real
_atom_type_scat_dispersion_imag
_atom_type_scat_source
C C 0.0033 0.0016 'International Tables Vol C Tables 4.2.6.8 and 6.1.1.4'
O O 0.0106 0.0060 'International Tables Vol C Tables 4.2.6.8 and 6.1.1.4'
Mg Mg 0.0486 0.0363 'International Tables Vol C Tables 4.2.6.8 and 6.1.1.4'
Ba Ba -0.3244 2.2819 'International Tables Vol C Tables 4.2.6.8 and 6.1.1.4'
loop_
_geom_angle_atom_site_label_1
_geom_angle_atom_site_label_2
_geom_angle_atom_site_label_3
_geom_angle
_geom_angle_site_symmetry_1
_geom_angle_site_symmetry_3
O3 Ba1 O3 123.70(2) 35_445 26_445
O3 Ba1 O3 137.56(2) 35_445 25_455
O3 Ba1 O3 92.790(17) 26_445 25_455
O3 Ba1 O3 92.790(17) 35_445 34_545
O3 Ba1 O3 137.56(2) 26_445 34_545
O3 Ba1 O3 67.03(3) 25_455 34_545
O3 Ba1 O3 92.790(17) 35_445 36
O3 Ba1 O3 67.03(3) 26_445 36
O3 Ba1 O3 123.70(2) 25_455 36
O3 Ba1 O3 92.789(17) 34_545 36
O3 Ba1 O3 67.03(3) 35_445 27
O3 Ba1 O3 92.790(17) 26_445 27
O3 Ba1 O3 92.789(17) 25_455 27
O3 Ba1 O3 123.70(2) 34_545 27
O3 Ba1 O3 137.56(2) 36 27
O3 Ba1 O3 176.440(13) 35_445 27_545
O3 Ba1 O3 57.15(2) 26_445 27_545
O3 Ba1 O3 43.91(2) 25_455 27_545
O3 Ba1 O3 85.140(13) 34_545 27_545
O3 Ba1 O3 84.430(13) 36 27_545
O3 Ba1 O3 116.53(2) 27 27_545
O3 Ba1 O3 57.15(2) 35_445 36_455
O3 Ba1 O3 176.440(13) 26_445 36_455
O3 Ba1 O3 85.140(13) 25_455 36_455
O3 Ba1 O3 43.91(2) 34_545 36_455
O3 Ba1 O3 116.53(2) 36 36_455
O3 Ba1 O3 84.430(13) 27 36_455
O3 Ba1 O3 122.25(2) 27_545 36_455
O3 Ba1 O3 43.91(2) 35_445 34_655
O3 Ba1 O3 84.430(13) 26_445 34_655
O3 Ba1 O3 176.440(13) 25_455 34_655
O3 Ba1 O3 116.53(2) 34_545 34_655
O3 Ba1 O3 57.15(2) 36 34_655
O3 Ba1 O3 85.141(14) 27 34_655
O3 Ba1 O3 134.89(2) 27_545 34_655
O3 Ba1 O3 97.522(14) 36_455 34_655
O3 Ba1 O3 84.430(13) 35_445 25_565
O3 Ba1 O3 43.91(2) 26_445 25_565
O3 Ba1 O3 116.53(2) 25_455 25_565
O3 Ba1 O3 176.440(13) 34_545 25_565
O3 Ba1 O3 85.141(14) 36 25_565
O3 Ba1 O3 57.15(2) 27 25_565
O3 Ba1 O3 97.522(14) 27_545 25_565
O3 Ba1 O3 134.89(2) 36_455 25_565
O3 Ba1 O3 59.91(2) 34_655 25_565
O3 Ba1 O3 85.141(14) 35_445 26_345
O3 Ba1 O3 116.53(2) 26_445 26_345
O3 Ba1 O3 57.15(2) 25_455 26_345
O3 Ba1 O3 84.430(13) 34_545 26_345
O3 Ba1 O3 176.440(13) 36 26_345
O3 Ba1 O3 43.91(2) 27 26_345
O3 Ba1 O3 97.522(14) 27_545 26_345
O3 Ba1 O3 59.91(2) 36_455 26_345
O3 Ba1 O3 122.25(2) 34_655 26_345
O3 Ba1 O3 97.522(14) 25_565 26_345
O3 Ba1 O3 116.53(2) 35_445 35_435
O3 Ba1 O3 85.141(14) 26_445 35_435
O3 Ba1 O3 84.430(13) 25_455 35_435
O3 Ba1 O3 57.15(2) 34_545 35_435
O3 Ba1 O3 43.91(2) 36 35_435
O3 Ba1 O3 176.440(13) 27 35_435
O3 Ba1 O3 59.91(2) 27_545 35_435
O3 Ba1 O3 97.522(14) 36_455 35_435
O3 Ba1 O3 97.522(14) 34_655 35_435
O3 Ba1 O3 122.25(2) 25_565 35_435
O3 Ba1 O3 134.89(2) 26_345 35_435
O3 Mg2 O3 180.00(5) 29_445 17_554
O3 Mg2 O3 86.90(2) 29_445 30_455
O3 Mg2 O3 93.10(2) 17_554 30_455
O3 Mg2 O3 93.10(2) 29_445 18_544
O3 Mg2 O3 86.90(2) 17_554 18_544
O3 Mg2 O3 180.00(4) 30_455 18_544
O3 Mg2 O3 86.90(2) 29_445 28
O3 Mg2 O3 93.10(2) 17_554 28
O3 Mg2 O3 86.90(2) 30_455 28
O3 Mg2 O3 93.10(2) 18_544 28
O3 Mg2 O3 93.10(2) 29_445 16_444
O3 Mg2 O3 86.90(2) 17_554 16_444
O3 Mg2 O3 93.10(2) 30_455 16_444
O3 Mg2 O3 86.90(2) 18_544 16_444
O3 Mg2 O3 180.00(4) 28 16_444
O3 Mg2 Ba1 98.477(17) 29_445 13_444
O3 Mg2 Ba1 81.523(17) 17_554 13_444
O3 Mg2 Ba1 40.651(16) 30_455 13_444
O3 Mg2 Ba1 139.349(16) 18_544 13_444
O3 Mg2 Ba1 49.219(17) 28 13_444
O3 Mg2 Ba1 130.781(17) 16_444 13_444
O3 Mg2 Ba1 81.523(17) 29_445 25
O3 Mg2 Ba1 98.477(17) 17_554 25
O3 Mg2 Ba1 139.349(16) 30_455 25
O3 Mg2 Ba1 40.651(16) 18_544 25
O3 Mg2 Ba1 130.781(17) 28 25
O3 Mg2 Ba1 49.219(17) 16_444 25
Ba1 Mg2 Ba1 180.0 13_444 25
O3 Mg2 Ba1 49.218(17) 29_445 13_554
O3 Mg2 Ba1 130.782(17) 17_554 13_554
O3 Mg2 Ba1 98.477(17) 30_455 13_554
O3 Mg2 Ba1 81.523(17) 18_544 13_554
O3 Mg2 Ba1 40.653(16) 28 13_554
O3 Mg2 Ba1 139.347(16) 16_444 13_554
Ba1 Mg2 Ba1 77.216(2) 13_444 13_554
Ba1 Mg2 Ba1 102.784(2) 25 13_554
O3 Mg2 Ba1 130.782(17) 29_445 25_445
O3 Mg2 Ba1 49.218(17) 17_554 25_445
O3 Mg2 Ba1 81.523(17) 30_455 25_445
O3 Mg2 Ba1 98.477(17) 18_544 25_445
O3 Mg2 Ba1 139.347(16) 28 25_445
O3 Mg2 Ba1 40.653(16) 16_444 25_445
Ba1 Mg2 Ba1 102.784(2) 13_444 25_445
Ba1 Mg2 Ba1 77.216(2) 25 25_445
Ba1 Mg2 Ba1 180.0 13_554 25_445
O3 Mg2 Ba1 40.653(16) 29_445 13_544
O3 Mg2 Ba1 139.347(17) 17_554 13_544
O3 Mg2 Ba1 49.219(17) 30_455 13_544
O3 Mg2 Ba1 130.781(17) 18_544 13_544
O3 Mg2 Ba1 98.478(17) 28 13_544
O3 Mg2 Ba1 81.522(17) 16_444 13_544
Ba1 Mg2 Ba1 77.215(3) 13_444 13_544
Ba1 Mg2 Ba1 102.785(3) 25 13_544
Ba1 Mg2 Ba1 77.215(2) 13_554 13_544
Ba1 Mg2 Ba1 102.785(2) 25_445 13_544
O3 Mg2 Ba1 139.347(17) 29_445 25_455
O3 Mg2 Ba1 40.653(16) 17_554 25_455
O3 Mg2 Ba1 130.781(17) 30_455 25_455
O3 Mg2 Ba1 49.219(17) 18_544 25_455
O3 Mg2 Ba1 81.522(17) 28 25_455
O3 Mg2 Ba1 98.478(17) 16_444 25_455
Ba1 Mg2 Ba1 102.785(3) 13_444 25_455
Ba1 Mg2 Ba1 77.215(3) 25 25_455
Ba1 Mg2 Ba1 102.785(2) 13_554 25_455
Ba1 Mg2 Ba1 77.215(2) 25_445 25_455
Ba1 Mg2 Ba1 180.0 13_544 25_455
C4 O3 Mg2 138.81(5) 1_565 16_554
C4 O3 Ba1 101.07(4) 1_565 25_455
Mg2 O3 Ba1 110.72(2) 16_554 25_455
C4 O3 Ba1 87.35(3) 1_565 25_565
Mg2 O3 Ba1 100.54(2) 16_554 25_565
Ba1 O3 Ba1 116.53(2) 25_455 25_565
O3 C4 O3 119.914(5) 2_665 3_455
O3 C4 O3 119.914(5) 2_665 1_545
O3 C4 O3 119.914(5) 3_455 1_545
O3 C4 Ba1 148.89(6) 2_665 25_445
O3 C4 Ba1 69.76(3) 3_455 25_445
O3 C4 Ba1 56.47(3) 1_545 25_445
O3 C4 Ba1 56.47(3) 2_665 25
O3 C4 Ba1 148.89(6) 3_455 25
O3 C4 Ba1 69.76(3) 1_545 25
Ba1 C4 Ba1 99.102(17) 25_445 25
O3 C4 Ba1 69.76(3) 2_665 25_455
O3 C4 Ba1 56.47(3) 3_455 25_455
O3 C4 Ba1 148.89(6) 1_545 25_455
Ba1 C4 Ba1 99.101(17) 25_445 25_455
Ba1 C4 Ba1 99.101(17) 25 25_455
loop_
_geom_bond_atom_site_label_1
_geom_bond_atom_site_label_2
_geom_bond_distance
_geom_bond_site_symmetry_2
Ba1 O3 2.7952(6) 35_445
Ba1 O3 2.7952(6) 26_445
Ba1 O3 2.7952(6) 25_455
Ba1 O3 2.7952(6) 34_545
Ba1 O3 2.7952(6) 36
Ba1 O3 2.7952(6) 27
Ba1 O3 3.0909(6) 27_545
Ba1 O3 3.0909(6) 36_455
Ba1 O3 3.0909(6) 34_655
Ba1 O3 3.0909(6) 25_565
Ba1 O3 3.0910(6) 26_345
Ba1 O3 3.0910(6) 35_435
Mg2 O3 2.0556(6) 29_445
Mg2 O3 2.0556(6) 17_554
Mg2 O3 2.0556(6) 30_455
Mg2 O3 2.0556(6) 18_544
Mg2 O3 2.0556(6) 28
Mg2 O3 2.0556(6) 16_444
Mg2 Ba1 4.01323(12) 13_444
Mg2 Ba1 4.01323(12) 25
Mg2 Ba1 4.01322(12) 13_554
Mg2 Ba1 4.01322(12) 25_445
Mg2 Ba1 4.01325(12) 13_544
Mg2 Ba1 4.01325(12) 25_455
O3 C4 1.2810(6) 1_565
O3 Mg2 2.0556(6) 16_554
O3 Ba1 2.7952(6) 25_455
O3 Ba1 3.0909(6) 25_565
C4 O3 1.2809(6) 2_665
C4 O3 1.2809(6) 3_455
C4 O3 1.2809(6) 1_545
C4 Ba1 3.2907(4) 25_445
C4 Ba1 3.2907(4) 25
C4 Ba1 3.2908(4) 25_455
