#------------------------------------------------------------------------------
#$Date: 2019-12-26 21:22:11 +0200 (Thu, 26 Dec 2019) $
#$Revision: 246100 $
#$URL: file:///home/coder/svn-repositories/cod/cif/2/31/17/2311761.cif $
#------------------------------------------------------------------------------
#
# This file is available in the Crystallography Open Database (COD),
# http://www.crystallography.net/. The original data for this entry
# were provided by IUCr Journals, http://journals.iucr.org/.
#
# The file may be used within the scientific community so long as
# proper attribution is given to the journal article from which the
# data were obtained.
#
data_2311761
loop_
_publ_author_name
'Ende, Martin'
'Effenberger, Herta'
'Miletich, Ronald'
_publ_section_title
;
 Evolution of the \a-BaMg(CO<sub>3</sub>)<sub>2</sub> low-temperature
 superstructure and the tricritical nature of its \a-\b phase transition.
;
_journal_issue                   'Pt 5'
_journal_name_full
'Acta crystallographica Section B, Structural science, crystal engineering and materials'
_journal_page_first              827
_journal_page_last               835
_journal_paper_doi               10.1107/S2052520617009295
_journal_volume                  73
_journal_year                    2017
_chemical_formula_sum            'C6 Ba3 Mg3 O18'
_chemical_formula_weight         845.01
_space_group_crystal_system      trigonal
_space_group_IT_number           166
_space_group_name_Hall           '-R 3 2"'
_space_group_name_H-M_alt        'R -3 m :H'
_audit_creation_method           SHELXL-2014/7
_cell_angle_alpha                90
_cell_angle_beta                 90
_cell_angle_gamma                120
_cell_formula_units_Z            1
_cell_length_a                   5.0277(4)
_cell_length_b                   5.0277(4)
_cell_length_c                   16.7972(14)
_cell_measurement_reflns_used    4296
_cell_measurement_temperature    500(2)
_cell_measurement_theta_max      45
_cell_measurement_theta_min      1.5
_cell_volume                     367.71(5)
_computing_structure_refinement  'SHELXL-2014/7 (Sheldrick, 2014)'
_diffrn_ambient_temperature      500(2)
_diffrn_measured_fraction_theta_full 0.848
_diffrn_measured_fraction_theta_max 0.963
_diffrn_measurement_device_type  StoeStadiVari
_diffrn_radiation_type           MoK\a
_diffrn_radiation_wavelength     0.71073
_diffrn_reflns_av_R_equivalents  0.0331
_diffrn_reflns_av_unetI/netI     0.0136
_diffrn_reflns_Laue_measured_fraction_full 0.848
_diffrn_reflns_Laue_measured_fraction_max 0.963
_diffrn_reflns_limit_h_max       10
_diffrn_reflns_limit_h_min       -9
_diffrn_reflns_limit_k_max       9
_diffrn_reflns_limit_k_min       -10
_diffrn_reflns_limit_l_max       18
_diffrn_reflns_limit_l_min       -33
_diffrn_reflns_number            4296
_diffrn_reflns_point_group_measured_fraction_full 0.848
_diffrn_reflns_point_group_measured_fraction_max 0.963
_diffrn_reflns_theta_full        25.242
_diffrn_reflns_theta_max         45.519
_diffrn_reflns_theta_min         12.531
_exptl_absorpt_coefficient_mu    8.186
_exptl_absorpt_correction_T_max  0.8
_exptl_absorpt_correction_T_min  0.7
_exptl_absorpt_correction_type   numerical
_exptl_absorpt_process_details   '(Stoe & Cie GmbH 2016)'
_exptl_crystal_density_diffrn    3.816
_exptl_crystal_description       prismatic
_exptl_crystal_F_000             384
_exptl_crystal_size_max          0.060
_exptl_crystal_size_mid          0.030
_exptl_crystal_size_min          0.030
_refine_diff_density_max         1.459
_refine_diff_density_min         -0.805
_refine_diff_density_rms         0.111
_refine_ls_extinction_method     none
_refine_ls_goodness_of_fit_ref   1.118
_refine_ls_hydrogen_treatment    undef
_refine_ls_matrix_type           full
_refine_ls_number_parameters     14
_refine_ls_number_reflns         415
_refine_ls_number_restraints     0
_refine_ls_restrained_S_all      1.118
_refine_ls_R_factor_all          0.0150
_refine_ls_R_factor_gt           0.0150
_refine_ls_shift/su_max          0.000
_refine_ls_shift/su_mean         0.000
_refine_ls_structure_factor_coef Fsqd
_refine_ls_weighting_details
'w=1/[\s^2^(Fo^2^)+(0.0180P)^2^+0.2798P] where P=(Fo^2^+2Fc^2^)/3'
_refine_ls_weighting_scheme      calc
_refine_ls_wR_factor_gt          0.0346
_refine_ls_wR_factor_ref         0.0346
_reflns_Friedel_coverage         0.000
_reflns_number_gt                415
_reflns_number_total             415
_reflns_threshold_expression     'I > 2\s(I)'
_cod_data_source_file            xk5041sup1.cif
_cod_data_source_block           norse_500
_cod_original_cell_volume        367.71(7)
_cod_original_sg_symbol_H-M      'R -3 m'
_cod_database_code               2311761
_shelx_shelxl_version_number     2014/7
_shelx_space_group_comment
;
The symmetry employed for this shelxl refinement is uniquely defined
by the following loop, which should always be used as a source of
symmetry information in preference to the above space-group names.
They are only intended as comments.
;
_shelx_estimated_absorpt_t_min   0.639
_shelx_estimated_absorpt_t_max   0.791
_shelx_res_file
;

    norse_500_a.res created by SHELXL-2014/7


TITL norse_440_a.res in R-3m
REM Old TITL norse_440 in R3m

REM SHELXT solution in R-3m
REM R1 0.034,  Rweak 0.143,  Alpha 0.055,  Orientation as input
REM Formula found by SHELXT:  C2 O6 Mg Ba

CELL  0.71073   5.0277   5.0277  16.7972   90.000   90.000  120.000
ZERR    1.000   0.0004   0.0004   0.0014    0.000    0.000    0.000
LATT  3
SYMM -Y, X-Y, Z
SYMM -X+Y, -X, Z
SYMM Y, X, -Z
SYMM X-Y, -Y, -Z
SYMM -X, -X+Y, -Z
SFAC C O MG BA
UNIT 6 18 3 3
L.S. 20
TEMP 226.85
SIZE 0.06 0.03 0.03
BOND $H
LIST 4
ACTA
FMAP 2
PLAN 20
REM EXTI    0.145267
WGHT    0.018000    0.279800
FVAR       0.68089
BA1   4    0.000000    0.000000    0.500000    10.08333    0.01471    0.01471 =
         0.02116    0.00000    0.00000    0.00736
MG2   3    0.000000    0.000000    0.000000    10.08333    0.01132    0.01132 =
         0.01747    0.00000    0.00000    0.00566
O3    2    0.853778    0.707556    0.257660    10.50000    0.03966    0.01198 =
         0.03348    0.00499    0.00250    0.00599
C4    1    0.000000    0.000000    0.260878    10.16667    0.01242    0.01242 =
         0.01503    0.00000    0.00000    0.00621
HKLF 4

REM  norse_440_a.res in R-3m
REM R1 =  0.0150 for     415 Fo > 4sig(Fo)  and  0.0150 for all     415 data
REM     14 parameters refined using      0 restraints

END

WGHT      0.0180      0.2798

REM Highest difference peak  1.459,  deepest hole -0.805,  1-sigma level  0.111
Q1    1   0.0000  0.0000  0.4589  10.16667  0.05    1.46
Q2    1  -0.0724 -0.1448  0.2556  10.50000  0.05    0.50
Q3    1   0.0000  0.0000  0.3457  10.16667  0.05    0.38
Q4    1   0.0000  0.0000  0.0332  10.16667  0.05    0.38
Q5    1  -0.1965  0.0000  0.5000  10.50000  0.05    0.36
Q6    1   0.0000  0.0000  0.1510  10.16667  0.05    0.35
Q7    1   0.6667  0.3333  0.2197  10.16667  0.05    0.28
Q8    1   0.2477 -0.0199  0.4702  11.00000  0.05    0.28
Q9    1  -0.1639 -0.0819  0.0478  10.50000  0.05    0.27
Q10   1   0.7386  0.8094  0.2013  11.00000  0.05    0.26
Q11   1   0.8286  0.6572  0.2048  10.50000  0.05    0.26
Q12   1   0.8510  0.8405  0.2012  11.00000  0.05    0.24
Q13   1   0.7383  0.7018  0.2167  11.00000  0.05    0.24
Q14   1   0.5972  0.6762  0.3065  11.00000  0.05    0.23
Q15   1   0.6113  0.3887  0.2072  10.50000  0.05    0.22
Q16   1   0.9518  0.5979  0.2409  11.00000  0.05    0.22
Q17   1  -0.1196 -0.2393  0.0018  10.50000  0.05    0.22
Q18   1   0.2857  0.3903  0.5019  11.00000  0.05    0.21
Q19   1   0.6918  0.5763  0.1991  11.00000  0.05    0.20
Q20   1   0.0650  0.1300  0.4858  10.50000  0.05    0.20
;
_shelx_res_checksum              97916
_shelx_hkl_file
;
   1  -7  11  -38.69   24.25   0
   0  -8  11   15.11   23.71   0
   2  -6   2 1775.59   36.75   0
   2  -6  -1 1165.10   33.83   0
   2  -4   3 1655.41   35.37   0
   2  -7   3  737.66   31.10   0
   2  -5  10  140.16   21.83   0
   2  -7   9  -13.41   24.15   0
   1  -8  12   18.07   23.21   0
   2  -6  -7  477.96   28.20   0
   2  -6  11  -10.27   21.10   0
   2  -8   7  -73.15   27.67   0
   2  -7  12  -15.12   23.26   0
   2  -3   2 7085.26   71.97   0
   2  -8  10  -23.89   25.41   0
   2  -5  13   27.38   20.81   0
   2  -3  -1 1567.93   36.01   0
   3  -7   1  358.53   28.41   0
   3  -6   3  814.43   30.03   0
   3  -7  -2 1141.97   32.83   0
   3  -8   2  366.18   29.80   0
   3  -6  -3  787.53   28.47   0
   2  -4  12    9.49   14.89   0
   2  -3  -4 7711.14   73.99   0
   3  -7  -5  656.04   30.44   0
   3  -5   2 1400.55   32.76   0
   2  -9  -7  124.53   26.61   0
   3  -5  -1 1592.06   34.53   0
   2  -8 -11  162.52   26.91   0
   3  -8   8  470.70   30.98   0
   3  -9   0  399.15   31.06   0
   3  -7  10  296.78   26.78   0
   3  -5  -4 4565.09   53.37   0
   3  -9  -3  244.50   28.67   0
   3  -9   6  229.97   27.15   0
   3  -7  -8  708.28   32.17   0
   3  -5   8 3491.24   51.08   0
   1  -8 -15   20.08   23.82   0
   2  -9 -10  157.05   28.00   0
   3  -8  11   61.19   24.57   0
   3  -9  -6  202.49   29.20   0
   3  -6  12  445.06   27.14   0
   3  -5  -7  642.70   25.79   0
   3  -4   1 1935.55   39.07   0
   3  -7  13  155.20   24.68   0
   2  -8 -14  202.26   26.10   0
   2  -7 -15   99.57   24.09   0
   3  -7 -11  267.98   27.25   0
   4  -8   0  755.69   32.70   0
   4  -7   2 1120.83   34.49   0
   4  -7  -1  393.67   25.44   0
   4  -8  -3  292.29   29.06   0
   4  -7   5  676.46   30.13   0
   4  -9   1  164.58   27.87   0
   4  -8   6  364.74   25.85   0
   4  -7  -4  926.88   33.06   0
   2  -6 -16  472.44   27.06   0
   3  -4   7 1317.21   33.05   0
   4  -9  -2  136.91   28.21   0
   3  -6 -12  955.29   32.46   0
   3  -4  -5 2379.73   40.43   0
   4  -8  -6  380.14   26.78   0
   4  -7   8  706.67   30.43   0
   4  -9  -5  186.83   28.70   0
   4  -9   7  105.96   25.16   0
   4  -8   9  289.89   28.05   0
   3  -8 -13  169.41   26.29   0
   4  -7  -7  544.66   30.95   0
   2  -3 -10 2770.13   45.22   0
   3  -9 -12  247.76   27.47   0
   4 -10  -1   67.47   26.82   0
   4  -6  -5  574.32   26.08   0
   4  -6   7  476.53   26.29   0
   3  -7 -14  513.99   29.81   0
   4  -8  -9  242.69   28.12   0
   3  -4  -8 4296.65   53.52   0
   4  -9  -8  388.95   29.42   0
   4  -9  10   83.94   25.97   0
   3  -4  10 1763.94   39.96   0
   4  -7  11  207.20   24.45   0
   4  -5   0 2833.78   43.33   0
   4  -6  -8 1273.56   32.82   0
   2  -4 -15  330.66   23.68   0
   4  -5  -3  691.87   26.54   0
   3  -6 -15  226.17   25.23   0
   3  -5 -13 1022.00   32.38   0
   3  -8 -16  212.11   30.13   0
   4  -9 -11   80.26   26.68   0
   4  -5   6 1801.62   38.59   0
   5  -9  -1  203.45   28.52   0
   5  -8  -2  357.03   30.09   0
   4  -8 -12  392.05   27.98   0
   5  -8   4  665.07   33.05   0
   3  -3   0 5993.41   63.55   0
   4  -5  -6 2244.45   41.28   0
   5  -9  -4  558.73   31.88   0
   5  -9   5  161.65   26.59   0
   3  -3   3 1127.07   32.61   0
   5  -8  -5  274.60   30.64   0
   5  -7   0 1053.58   31.90   0
   3  -7 -17  172.48   29.60   0
   5 -10   0  236.28   25.60   0
   5 -10   3   98.14   25.47   0
   5  -7  -3  720.51   31.78   0
   3  -4 -11  643.77   25.00   0
   3  -3  -3 4517.03   55.04   0
   4  -7 -13  205.17   26.72   0
   5 -10  -3   74.22   28.48   0
   5  -8   7  171.13   23.50   0
   5  -9  -7  104.61   27.91   0
   5  -9   8  502.45   30.87   0
   2  -3 -13  995.30   31.52   0
   4  -5   9  698.21   29.32   0
   5  -7   6  792.41   29.26   0
   3  -3   6 5677.47   66.04   0
   4  -9 -14   71.88   26.87   0
   4  -5  -9 1310.22   32.79   0
   4  -8 -15  113.77   25.93   0
   5  -6  -1  623.28   29.33   0
   5  -6   2 1314.71   35.26   0
   3  -3  -6 4322.49   53.72   0
   5  -8  10  306.98   27.06   0
   4  -4  -1 3103.35   45.93   0
   5  -7   9  569.48   29.08   0
   5  -6  -4 1399.01   36.83   0
   3  -5 -16 1084.09   33.98   0
   4  -4   2 3259.19   46.37   0
   5  -7  -9  218.14   24.28   0
   5  -6   5  796.24   30.56   0
   3  -6 -18  412.00   27.92   0
   4  -6 -14  660.83   30.04   0
   4  -4  -4 3188.61   45.25   0
   4  -7 -16  357.77   27.55   0
   4  -4   5  864.72   28.93   0
   5  -6  -7  678.31   29.33   0
   6  -9   0  426.11   30.85   0
   6  -9  -3   77.62   27.31   0
   6  -9   3  215.66   28.51   0
   3  -4 -14 1216.89   33.93   0
   4  -5 -12 1100.92   30.65   0
   6 -10  -2  154.42   26.48   0
   6  -8  -1  345.01   29.56   0
   4  -5  12 1456.92   37.00   0
   5  -9 -13  162.96   27.43   0
   5  -6   8 1056.52   31.66   0
   4  -4  -7  603.62   24.90   0
   5  -7 -12  610.29   30.74   0
   6  -8  -4  619.74   29.06   0
   3  -3   9 2605.75   48.63   0
   6  -9   6  151.57   24.96   0
   6  -8   5  250.35   28.98   0
   4  -8 -18  100.59   27.33   0
   5  -8 -14  196.98   26.23   0
   5  -6 -10  820.51   31.95   0
   5  -5   1  612.19   28.05   0
   5  -5  -2 2212.68   39.21   0
   6  -8  -7  117.21   27.50   0
   4  -4   8 2887.07   47.51   0
   6  -9  -9  209.06   28.20   0
   6  -7  -2  409.60   26.59   0
   6  -7   1  501.06   27.01   0
   5  -5  -5 1265.74   34.76   0
   6  -9   9   99.04   23.74   0
   6  -8   8  504.89   29.35   0
   6  -7  -5  327.67   28.61   0
   6  -7   4 1006.74   34.55   0
   2  -3 -16 2028.85   42.56   0
   4  -6 -17  278.37   25.47   0
   5  -6  11  317.57   24.60   0
   6  -8 -10  244.58   27.79   0
   2  -2 -11 3742.22   55.36   0
   4  -5 -15  265.09   24.16   0
   5  -7 -15  235.41   27.04   0
   5  -5  -8 1191.21   31.44   0
   5  -5   7 1205.84   33.23   0
   6  -7  -8  957.74   35.66   0
   6  -7   7  198.74   25.07   0
   3  -3 -12 3184.37   48.00   0
   5  -6 -13  366.05   23.88   0
   6  -9 -12  181.13   27.70   0
   5  -8 -17  136.33   26.19   0
   6  -6  -3  680.78   30.14   0
   6  -6   0 1504.55   37.16   0
   3  -4 -17  788.52   30.33   0
   7  -9  -2  231.34   30.04   0
   6  -8 -13  250.20   28.22   0
   7  -9  -5  194.07   28.60   0
   6  -6  -6  531.45   29.96   0
   7  -9   4  257.73   27.22   0
   3  -2  -1 1535.33   36.10   0
   4  -4  11 1136.26   33.31   0
   4  -3  -2 2801.73   42.72   0
   4  -3   1 1807.28   35.43   0
   7  -8   0  526.38   30.53   0
   4  -4 -13 1205.51   31.15   0
   6  -7  10  343.18   27.15   0
   7  -8  -3  113.60   23.49   0
   4  -3  -5 2379.12   40.70   0
   6  -6   6  612.31   29.48   0
   7  -9  -8  158.23   27.47   0
   7  -8   3  209.81   28.31   0
   3  -2  -4 7436.87   70.20   0
   3  -2   2 6798.05   69.67   0
   5  -5  10 1115.01   33.01   0
   5  -4   0 2843.03   43.89   0
   7  -9   7  140.26   27.93   0
   7  -8  -6  248.08   30.05   0
   5  -7 -18  210.04   24.67   0
   5  -6 -16  496.40   29.25   0
   5  -4  -3  685.13   25.92   0
   6  -6  -9  400.12   25.08   0
   4  -5 -18  646.56   28.73   0
   7  -8   6  214.98   26.75   0
   5  -4  -6 2094.68   37.71   0
   6  -8 -16  194.64   26.98   0
   6  -7 -14  169.48   23.78   0
   7  -8  -9  213.76   28.88   0
   7  -7  -1  322.89   27.97   0
   4  -3  -8 4132.39   50.33   0
   7  -7  -4  909.55   34.97   0
   3  -3 -15  915.88   29.69   0
   3  -2  -7 3235.46   46.90   0
   5  -5 -14  950.53   31.92   0
   6  -6   9  476.76   26.43   0
   6  -5  -1  605.23   27.97   0
   6  -5  -4 1418.20   34.94   0
   2  -2 -14 1973.66   41.84   0
   5  -4   6 1742.30   37.03   0
   7  -7  -7  177.48   23.69   0
   4  -3   7 1327.32   33.50   0
   5  -4  -9 1297.19   31.42   0
   7  -8   9  135.17   24.78   0
   7  -7   5  336.98   24.88   0
   4  -4 -16  779.35   28.80   0
   6  -5  -7  680.15   29.66   0
   8  -9  -1  114.74   26.02   0
   6  -5   5  772.07   29.52   0
   7  -7 -10  191.05   26.53   0
   4  -3 -11  683.69   26.41   0
   5  -6 -19  166.33   23.01   0
   6  -7 -17  204.23   26.19   0
   7  -6  -2  410.71   27.78   0
   8  -9  -7  102.40   24.56   0
   3  -2 -10 2848.22   44.10   0
   6  -5 -10  853.96   31.07   0
   7  -7   8  738.12   30.97   0
   5  -4 -12 1127.45   32.26   0
   6  -6 -15  184.12   25.53   0
   7  -6  -5  307.99   24.36   0
   8  -9   5   88.38   23.03   0
   8  -8  -2  245.63   27.15   0
   5  -5 -17  370.04   25.79   0
   7  -8 -15   53.86   24.91   0
   8  -8  -5  192.39   27.07   0
   5  -4   9  665.42   27.09   0
   7  -6   4 1025.45   33.40   0
   6  -5   8 1032.04   31.94   0
   7  -7 -13  275.13   25.68   0
   7  -6  -8  969.30   34.54   0
   8  -8  -8  239.61   27.53   0
   8  -8   4  311.25   28.50   0
   4  -3  10 1727.18   39.59   0
   5  -3  -1 1610.85   34.44   0
   6  -5 -13  336.31   23.31   0
   4  -3 -14 1199.45   31.96   0
   5  -3  -4 4406.78   50.08   0
   6  -4  -2 1573.78   33.42   0
   7  -6 -11  189.32   25.97   0
   7  -6   7  182.10   24.76   0
   8  -7  -3  121.12   26.03   0
   5  -3   2 1329.50   32.44   0
   6  -4  -5  537.18   27.01   0
   6  -4   1 1054.66   30.49   0
   8  -8 -11   35.83   25.74   0
   8  -8   7  133.60   23.23   0
   5  -4 -15  266.25   23.71   0
   8  -7  -6  250.86   26.11   0
   3  -2 -13  974.63   29.91   0
   4  -2  -3 1776.95   35.38   0
   5  -3  -7  679.63   25.03   0
   6  -6 -18  186.65   24.62   0
   7  -7 -16  288.74   26.76   0
   8  -7   3  244.78   27.00   0
   4  -2   0 9086.59   72.09   0
   6  -4  -8 1280.31   33.41   0
   7  -5  -3  711.41   29.30   0
   6  -4   4 1558.60   35.06   0
   7  -5   0  990.30   29.30   0
   8  -7  -9  270.90   26.92   0
   4  -2  -6 1597.65   32.96   0
   6  -5  11  307.78   23.03   0
   5  -3   5 1410.53   32.97   0
   7  -6 -14  185.92   24.94   0
   8  -7   6  203.19   25.78   0
   6  -5 -16  510.24   28.03   0
   7  -6  10  328.45   25.03   0
   7  -5  -9  245.87   25.65   0
   8  -6  -1  283.76   27.66   0
   9  -8  -4  156.94   25.04   0
   6  -4   7  487.53   25.00   0
   4  -3 -17  800.36   29.60   0
   7  -5   6  743.92   27.04   0
   8  -6  -7  140.26   26.30   0
   8  -6   2  334.80   27.37   0
   9  -8  -7   79.43   24.17   0
   9  -8   2  198.89   24.40   0
   7  -7 -19   15.83   20.72   0
   5  -4 -18  616.60   27.22   0
   8  -7   9  144.20   22.29   0
   5  -3 -13 1021.42   30.27   0
   7  -6 -17  209.95   23.85   0
   3  -1  -2 6883.96   65.39   0
   4  -2   6 1651.42   35.28   0
   5  -3   8 3565.96   48.51   0
   8  -7 -15   23.46   22.74   0
   8  -6 -10  240.27   25.24   0
   8  -6   5  266.33   24.65   0
   9  -8   5   95.82   21.72   0
   3  -1  -5 4396.84   52.23   0
   6  -4 -14  624.77   25.54   0
   3  -2 -16 1997.78   39.72   0
   9  -7  -2  217.38   25.08   0
   3  -1   1 1445.42   32.62   0
   6  -5 -19  124.69   22.50   0
   9  -7  -5  200.34   24.41   0
   7  -5   9  559.05   25.59   0
   7  -4  -4  912.46   28.12   0
   7  -4  -1  381.64   24.89   0
   9  -7   1   93.49   21.94   0
   6  -3  -6 1285.28   32.44   0
   6  -3   0 1970.85   34.93   0
   7  -5 -15  239.31   25.15   0
   9  -7  -8  167.81   25.61   0
   6  -4  10  956.56   29.94   0
   7  -4  -7  557.66   25.25   0
   8  -6   8  473.37   25.80   0
   8  -5  -2  396.38   26.73   0
   9  -7   4  246.95   24.70   0
   5  -2  -2 1321.74   30.65   0
   8  -5  -5  290.61   23.03   0
   5  -3 -16 1060.32   30.26   0
   5  -2  -5 1436.43   30.55   0
   6  -3  -9  657.88   24.84   0
   9  -7 -11   11.94   22.77   0
   5  -2   1 1642.56   33.11   0
   6  -4 -17  224.54   23.19   0
   7  -4 -10  607.84   25.85   0
   8  -5  -8  600.62   27.24   0
   7  -4   5  628.68   26.87   0
   5  -2  -8 3417.21   43.37   0
   8  -6 -16  190.90   23.11   0
   8  -5   4  679.83   26.51   0
   9  -7   7  145.91   22.99   0
   9  -6  -3   69.77   24.36   0
   4  -2   9 2010.45   39.63   0
   5  -3  11  458.47   24.11   0
   9  -6  -6  179.07   25.63   0
   6  -3   6 1329.95   31.79   0
   7  -5 -18  175.87   22.99   0
   7  -4 -13  161.33   20.62   0
   9  -6  -9  182.17   25.36   0
   9  -6   3  224.57   23.62   0
   4  -1  -4 5660.75   55.32   0
   7  -4   8  677.03   26.49   0
   8  -5   7  179.14   21.88   0
   4  -1  -1 1807.71   32.61   0
   8  -5 -14  186.48   23.52   0
   4  -1  -7 1384.60   30.50   0
   6  -3 -15  248.07   22.23   0
   9  -6   6  150.84   23.12   0
   5  -3 -19  132.52   19.02   0
   7  -3  -5  601.67   24.58   0
   8  -6 -19   19.90   19.02   0
   8  -4  -6  372.49   25.38   0
   8  -4  -3  274.10   21.81   0
   7  -4 -16  344.73   22.08   0
   8  -4   0  779.22   26.50   0
   3  -3  12 2058.85   42.45   0
   4  -7  -1  410.77   25.75   0
   4  -5  12 1635.92   35.98   0
   2  -6 -10  981.67   30.44   0
   3  -4  -2 2756.21   41.33   0
   4  -9   1  193.38   26.38   0
   4  -8  18   82.72   21.99   0
   4  -5   3 1620.66   32.82   0
   3  -3   3 1140.09   29.33   0
   4  -8  -3  315.38   27.45   0
   4  -5  15  427.96   24.47   0
   3  -7  -8  634.67   28.60   0
   4 -10   2  105.37   25.07   0
   4  -6  -2 1601.74   33.57   0
   3  -9  -6  160.20   26.05   0
   5  -8   7  203.45   25.46   0
   5  -8  10  266.26   27.52   0
   4  -7  -4  909.39   31.12   0
   4  -5   0 2839.43   41.36   0
   5  -7   6  758.87   29.95   0
   5  -7   9  568.80   25.82   0
   2  -4  -9 2016.99   39.02   0
   5  -9   5  176.33   26.21   0
   5  -9  11   38.03   22.99   0
   5  -8  13  230.28   24.61   0
   5  -7  12  496.25   28.16   0
   2  -5 -11  466.67   24.11   0
   4  -4   8 2933.85   44.52   0
   5  -9  14   65.96   24.68   0
   5  -7   3  254.20   22.54   0
   3  -6  -9  695.80   27.77   0
   3  -4  -5 2369.24   40.03   0
   5  -9   2  164.87   27.31   0
   5  -8   1  353.51   24.52   0
   3  -3   0 5946.27   60.43   0
   4  -9  -5  157.71   25.02   0
   4  -8  -6  383.74   27.06   0
   4  -4  11 1225.26   32.60   0
   5  -8  16  209.38   24.21   0
   5  -7  15   84.78   25.45   0
   4  -6  -5  613.69   26.17   0
   2  -3  -7 3343.53   48.94   0
   5 -10   3  108.85   24.47   0
   5  -7   0  997.17   32.39   0
   5  -6   5  799.01   27.29   0
   5  -6  11  316.81   21.70   0
   3  -8 -10  283.83   24.69   0
   4  -5  -3  710.03   26.56   0
   3  -9  -9   85.07   22.77   0
   4  -7  -7  520.23   27.75   0
   5  -9  -1  227.73   24.64   0
   4  -4   2 3282.27   44.15   0
   4  -4  14 1081.56   31.68   0
   5  -6   2 1369.80   33.83   0
   5  -6  14  615.59   27.99   0
   5 -10   0  234.71   26.14   0
   5  -7  -3  693.40   29.73   0
   4  -9  -8  414.38   26.94   0
   4  -8  -9  272.98   24.93   0
   5  -6  -1  578.54   24.95   0
   6  -9   9  125.01   25.92   0
   3  -5 -10 1100.55   30.93   0
   3  -3  -3 4466.76   52.62   0
   4  -4  -1 2820.84   41.42   0
   5  -5   7 1128.28   29.37   0
   5  -5  10 1119.75   32.00   0
   6  -8   5  250.15   27.67   0
   5  -5   4 1810.66   36.39   0
   6  -9  12  225.49   26.16   0
   6  -8  11  110.84   23.59   0
   4  -5  -6 2178.65   38.86   0
   3  -6 -12  929.61   30.51   0
   6  -8   2  358.80   24.59   0
   4  -7 -10  677.37   28.77   0
   5  -5  13  338.29   23.38   0
   6  -9   0  386.31   29.79   0
   6  -8  14  191.28   24.10   0
   6  -7  10  370.01   26.99   0
   6 -10   1   72.96   24.31   0
   6  -7   4 1004.99   32.82   0
   5  -7  -6  588.58   25.83   0
   5  -6  -4 1400.85   34.35   0
   5  -5   1  593.62   23.87   0
   2  -4 -12 3377.64   49.75   0
   5  -9  -7   65.06   23.77   0
   6  -8  -1  328.90   27.45   0
   6  -7  13  342.81   28.63   0
   6  -7   1  544.50   27.84   0
   5  -8  -8  613.56   29.82   0
   4  -9 -11  100.40   23.41   0
   4  -4  -4 3100.91   42.86   0
   6 -10  -2  158.26   24.80   0
   6  -9  -3   90.49   25.61   0
   4  -8 -12  378.96   29.31   0
   5  -5  -2 2223.33   37.75   0
   4  -3  10 1796.00   38.35   0
   6  -7  -2  446.18   26.78   0
   6  -6   9  541.56   24.97   0
   2  -3 -10 2700.22   44.22   0
   3  -3  -6 4227.17   52.09   0
   4  -6 -11  563.81   26.52   0
   6  -6   3  394.90   25.23   0
   3  -2   2 6902.72   68.91   0
   4  -5  -9 1320.78   32.55   0
   5  -7  -9  254.11   24.51   0
   5  -6  -7  661.99   25.70   0
   6  -6  12  659.28   28.88   0
   7  -9   4  266.30   27.42   0
   5  -9 -10  145.23   23.85   0
   5  -4   6 1823.32   36.37   0
   7  -9  10  168.27   24.89   0
   4  -3   1 1827.23   34.56   0
   5  -4   9  668.39   26.51   0
   6  -6   0 1467.78   35.42   0
   4  -7 -13  193.01   23.54   0
   7  -9   1   69.36   25.60   0
   7  -8   9  159.76   24.33   0
   5  -5  -5 1323.23   32.19   0
   5  -4   3 1577.94   32.75   0
   6  -7  -5  292.32   25.42   0
   7  -8   3  284.80   23.63   0
   3  -4 -11  626.09   25.20   0
   5  -8 -11  167.27   24.28   0
   4  -4  -7  577.84   23.33   0
   5  -4  12 1549.26   37.15   0
   7  -8  12  339.42   27.01   0
   7  -9  -2  181.53   26.21   0
   7  -8   0  535.69   30.51   0
   3  -2  -1 1551.92   34.60   0
   5  -4   0 2903.00   42.79   0
   7  -7   8  745.38   30.25   0
   4  -3  -2 2718.77   40.40   0
   6  -9  -9  199.81   24.77   0
   6  -5   5  799.20   26.30   0
   6  -5   8 1036.68   31.64   0
   5  -6 -10  762.14   28.12   0
   7  -7   2  241.74   22.57   0
   7  -7  11  107.82   23.68   0
   6  -5   2 1346.01   33.08   0
   7  -8  -3  150.85   26.06   0
   5  -7 -12  593.96   25.85   0
   6  -5  11  317.39   23.05   0
   7  -9  -5  203.09   24.87   0
   4  -5 -12 1113.95   30.73   0
   7  -7  -1  321.79   28.15   0
   3  -3  -9 1039.82   29.14   0
   4  -6 -14  649.23   27.10   0
   5  -5  -8 1178.10   29.54   0
   5  -4  -3  702.86   24.91   0
   6  -8 -10  237.23   25.15   0
   6  -6  -6  562.78   26.93   0
   6  -5  -1  623.60   26.10   0
   7  -8  -6  262.64   26.74   0
   5  -8 -14  179.48   22.54   0
   7  -6   7  191.32   23.70   0
   8  -9   2  244.06   26.50   0
   3  -2  -4 7503.52   68.29   0
   4  -4 -10 2191.00   37.17   0
   4  -3  -5 2252.81   36.86   0
   7  -7  -4  888.05   33.00   0
   6  -9 -12  182.65   26.04   0
   7  -9  -8  156.87   24.45   0
   7  -6  10  367.82   25.00   0
   6  -5  -4 1436.07   33.83   0
   7  -6   1  523.20   24.99   0
   8  -9  -1  132.18   24.56   0
   8  -8   7  159.49   24.06   0
   2  -3 -13  963.40   29.10   0
   5  -4  -6 2157.57   36.41   0
   6  -7 -11  187.83   20.88   0
   8  -8   1  120.84   24.41   0
   8  -8  10  113.11   22.27   0
   3  -4 -14 1205.11   31.71   0
   7  -6  -2  414.79   23.63   0
   5  -5 -11  399.26   23.77   0
   6  -8 -13  207.00   23.08   0
   8  -9  -4  169.70   25.43   0
   5  -3   8 3551.69   48.47   0
   6  -4   4 1603.22   34.05   0
   8  -8  -2  271.04   23.72   0
   6  -4   7  474.79   24.23   0
   4  -2   6 1607.02   34.72   0
   6  -5  -7  654.40   27.60   0
   8  -7   6  234.42   25.18   0
   6  -4   1 1055.95   28.05   0
   7  -9 -11   68.14   23.08   0
   7  -6  -5  331.11   25.79   0
   8  -7   9  166.56   24.20   0
   4  -5 -15  243.96   21.19   0
   4  -3  -8 4203.72   48.24   0
   5  -3  -1 1580.88   32.88   0
   6  -4  10 1017.06   29.90   0
   5  -3  11  473.63   23.39   0
   8  -9  -7   52.67   22.50   0
   8  -8  -5  188.77   25.83   0
   3  -3 -12 3091.49   45.13   0
   4  -2   9 2017.29   39.77   0
   5  -4  -9 1360.37   32.15   0
   7  -5   6  819.81   27.10   0
   4  -2   0 9012.88   70.43   0
   6  -4  -2 1613.36   32.31   0
   4  -4 -13 1186.92   30.80   0
   6  -7 -14  194.35   23.56   0
   7  -5   0 1012.24   30.61   0
   8  -7  -3  106.58   24.29   0
   7  -8 -12  254.42   24.85   0
   5  -3  -4 4375.32   48.15   0
   7  -6  -8  922.77   31.85   0
   2  -2 -11 3694.37   51.81   0
   5  -6 -16  503.88   27.57   0
   7  -5  -3  726.29   27.99   0
   8  -8  -8  221.22   23.59   0
   5  -5 -14  933.92   29.46   0
   6  -4  -5  611.53   26.10   0
   9  -8   5  121.16   23.14   0
   4  -2  -3 1679.34   32.23   0
   8  -6   8  442.53   26.79   0
   8  -6  -1  278.08   22.71   0
   9  -8  -1  139.51   23.57   0
   7  -7 -13  293.38   25.69   0
   7  -5  -6  628.96   27.20   0
   3  -1   1 1451.45   33.39   0
   5  -3  -7  716.39   25.94   0
   8  -8 -11   65.33   21.93   0
   8  -6  -4  620.90   30.26   0
   9  -8  -4  195.27   24.27   0
   6  -6 -15  142.94   22.94   0
   6  -4  -8 1305.54   32.12   0
   7  -8 -15   23.89   20.50   0
   8  -7  -9  250.29   25.10   0
   3  -2 -10 2776.08   41.93   0
   9  -7   4  245.26   23.70   0
   4  -2  -6 1572.98   31.21   0
   6  -7 -17  209.08   22.12   0
   6  -5 -13  323.21   23.73   0
   9  -7   7  140.25   23.90   0
   6  -3   6 1346.51   31.75   0
   7  -4   5  652.61   24.68   0
   6  -3   0 1931.10   33.87   0
   9  -7  -2  217.26   24.56   0
   3  -1  -2 6783.53   63.54   0
   4  -4 -16  730.05   26.43   0
   7  -5  -9  247.79   21.37   0
   7  -4  -1  349.21   21.80   0
   7  -4   8  637.99   26.35   0
   9  -8  -7   79.34   21.17   0
   3  -3 -15  905.82   27.75   0
   8  -5   4  686.61   27.90   0
   5  -2   4 4485.17   50.96   0
   6  -3   9  712.53   26.10   0
   5  -5 -17  377.83   23.67   0
   8  -5   7  163.04   22.67   0
   9  -7  -5  205.17   23.83   0
   5  -3 -10 1011.32   26.74   0
   7  -4  -4  891.97   27.16   0
   8  -7 -12  253.52   24.69   0
   8  -5  -2  384.01   25.91   0
   6  -4 -11  511.58   23.26   0
   7  -7 -16  255.46   23.97   0
   7  -6 -14  171.79   24.15   0
   5  -2  -2 1374.06   30.71   0
   4  -3 -14 1228.44   30.47   0
   5  -4 -15  239.42   21.82   0
   8  -6 -10  267.78   24.89   0
   9  -6   3  219.57   24.30   0
   4  -2  -9 1937.85   33.76   0
   8  -5  -5  310.93   25.75   0
   3  -1  -5 4307.86   49.88   0
   6  -3  -6 1304.13   29.15   0
   9  -7  -8  157.87   24.26   0
   9  -6   6  150.58   23.38   0
   6  -6 -18  160.97   22.30   0
   7  -4  -7  568.93   24.35   0
   2  -2 -14 2052.98   40.28   0
   5  -2  -5 1395.54   29.45   0
   5  -2  10  993.32   30.14   0
   3  -2 -13 1001.32   28.15   0
   8  -7 -15   41.22   22.11   0
   8  -5  -8  560.19   28.36   0
   9  -6  -6  211.20   24.12   0
   6  -3  -9  701.82   27.02   0
   9  -7 -11   59.01   23.43   0
   4  -1  -1 1811.72   32.74   0
   4  -1   5 2254.24   38.69   0
   7  -6 -17  189.04   23.81   0
   7  -4 -10  654.22   26.74   0
   8  -4   3  325.87   23.88   0
   5  -2  -8 3442.09   43.49   0
   7  -3   4  900.36   26.60   0
   3  -1  -8 4254.31   48.70   0
   4  -2 -12 3342.49   43.92   0
   7  -5 -15  241.33   24.28   0
   7  -3  -2 1082.64   30.21   0
   8  -4   6  332.13   23.94   0
   8  -5 -11  145.50   24.44   0
   8  -4  -3  286.54   21.41   0
   9  -6  -9  203.57   23.62   0
   9  -5   2  169.66   23.41   0
   4  -1  -4 5620.59   53.44   0
   6  -2   2 1604.34   32.99   0
   7  -3   7  551.23   24.93   0
   5  -4 -18  669.20   26.07   0
   9  -5   5  159.55   23.25   0
   4  -1   8 4059.83   53.10   0
   6  -2   5  605.34   24.36   0
   7  -3  -5  611.06   24.62   0
   4  -3 -17  775.80   26.31   0
   6  -3 -12  971.30   28.69   0
   8  -4  -6  372.30   23.06   0
   9  -5  -4  474.55   26.00   0
   6  -5 -19  156.01   20.59   0
   6  -2  -4 1551.10   31.04   0
   8  -6 -16  216.08   23.91   0
  10  -6   1  102.24   22.66   0
   9  -6 -12  197.85   23.22   0
   4  -1  -7 1370.91   28.81   0
   5  -3 -16 1076.02   29.19   0
   5  -2 -11  495.13   21.30   0
   6  -4 -17  197.67   22.61   0
   6  -2   8 1283.74   32.45   0
   7  -3  -8  695.18   26.68   0
   9  -5  -7   72.24   22.99   0
   8  -4  -9  277.24   25.63   0
   2  -1 -12 3634.92   49.26   0
   6  -2  -7  456.36   21.70   0
   7  -5 -18  200.94   23.34   0
   3  -2 -16 2058.07   37.38   0
   5  -1   3  677.21   24.10   0
   4  -2 -15  351.18   21.04   0
   5  -1  -3 1649.29   30.75   0
   9  -5 -10  126.61   21.80   0
   6  -3 -15  260.65   22.42   0
   7  -3 -11  254.88   22.93   0
   7  -4 -16  351.73   25.04   0
   9  -4   1  185.76   23.41   0
   4  -1 -10 1715.11   31.51   0
   5  -1   6 2169.30   37.65   0
   6  -2 -10 1107.05   29.67   0
   8  -4 -12  414.69   24.29   0
   3   0   0 5845.50   58.25   0
   5  -2 -14  651.04   24.89   0
   5  -1  -6 1760.33   31.92   0
   8  -3  -4  685.08   27.82   0
   8  -3   5  304.69   23.16   0
   9  -4   4  492.22   25.74   0
   9  -4  -5  163.12   22.97   0
   3   0   3 4224.78   51.96   0
   7  -2  -3  216.92   21.76   0
   7  -2   3  731.78   26.14   0
   8  -5 -17  144.12   22.21   0
  10  -5   0  271.14   22.55   0
   3   0  -3 1156.24   27.46   0
   9  -5 -13  180.37   23.06   0
  10  -5   3   70.15   20.18   0
   8  -3  -7  200.65   20.54   0
   5  -3 -19  144.34   21.59   0
   6  -4 -20  319.68   23.49   0
   7  -2  -6  801.13   28.33   0
   2   0  -7  750.23   24.86   0
   5  -1  -9  698.56   24.88   0
   7  -2   6  666.13   25.80   0
   3  -1 -14 2451.07   39.01   0
   3   0  -6 5662.20   54.32   0
   5  -1   9 1239.43   30.97   0
   6  -2 -13  561.03   23.50   0
   6  -3 -18  410.19   25.04   0
   6  -1  -2 1326.11   31.15   0
   6  -1   1  586.61   24.37   0
   8  -3 -10  278.72   25.03   0
   7  -4 -19  145.26   20.79   0
   7  -2  -9  583.38   26.11   0
   4   0  -2 3250.55   42.28   0
   9  -4 -11  128.60   22.41   0
   6  -1   4 1375.22   29.49   0
   5  -2 -17  621.34   25.37   0
   2  -1 -15 1058.82   29.15   0
   4   0  -5  838.07   23.88   0
   5  -1 -12 1574.97   32.40   0
   8  -5 -20  133.82   23.98   0
   4   0   4 3257.14   44.37   0
   3   0  -9 2692.82   38.29   0
   6  -1  -8 1058.75   27.59   0
   8  -3 -13  252.05   24.84   0
   9  -3   0  383.50   26.50   0
   7  -2 -12  475.97   23.37   0
   9  -3   3   68.56   21.83   0
  10  -4  -1   71.23   20.26   0
   6  -2 -16  489.71   22.72   0
   6  -1   7  663.86   24.82   0
   8  -4 -18  149.28   23.31   0
   8  -2   1  334.93   24.62   0
   9  -4 -14   81.68   22.07   0
   9  -3  -6  144.33   23.40   0
  10  -4   2  140.56   20.87   0
   4   0  -8 2890.50   38.80   0
   8  -2  -5  248.54   24.33   0
   0   7  -7  169.13   22.98   0
  -1   6  -7  682.23   26.41   0
   3   3 -12  995.37   30.02   0
   3   6  -9  212.71   27.00   0
   6   1 -10  376.72   25.58   0
   7   0  -8  686.95   29.73   0
   3   5 -11  175.66   24.50   0
   4   5 -10  138.25   23.50   0
   5   0 -10 1121.82   30.40   0
   5   1 -11  288.62   23.81   0
   0   6  -9  436.66   25.28   0
   2   7  -8  157.24   23.91   0
   7   1  -9  151.79   26.21   0
   1   3 -11  645.68   23.67   0
   4   4 -12  456.47   28.01   0
  -2   6  -5  532.65   24.08   0
   1   2 -10 2932.33   41.17   0
   2   5 -12  608.67   28.99   0
   5   4 -11   83.58   24.18   0
   6   2 -11  100.27   23.12   0
   1   7  -9  295.11   26.62   0
   1   4 -12 1063.71   30.04   0
   3   4 -13  191.55   26.27   0
   4   2 -13  569.27   27.33   0
  -1   4  -8 4140.00   50.79   0
   1   8  -7   49.17   22.96   0
   2   2 -12 3467.00   43.80   0
   5  -1  -9  658.68   25.51   0
   0   2  -8 6781.93   64.72   0
   2   3 -13 1002.12   28.13   0
   4   0 -11 1130.86   29.93   0
   0   5 -11  351.15   21.05   0
  -1   5  -9 1264.94   30.04   0
  -1   7  -8  894.90   30.04   0
  -1   3  -7 3233.07   47.46   0
   2   1 -11  946.89   26.35   0
   4   3 -14  476.14   24.67   0
   6   3 -12  256.86   26.66   0
   0   7 -10  197.17   24.58   0
   1   5 -13  340.38   25.67   0
   2   4 -14  650.53   29.02   0
   3   6 -12  211.96   25.22   0
   4   5 -13  156.53   25.26   0
   2   7 -11   37.26   21.88   0
   3   2 -14  621.22   24.94   0
   3   1 -13 1151.04   30.35   0
   3   5 -14  187.03   24.53   0
  -1   6 -10  808.54   28.38   0
   0   6 -12  895.97   30.88   0
   3   3 -15  238.38   24.76   0
   7   0 -11   96.40   21.90   0
   5   1 -14  582.79   26.70   0
   1   7 -12  225.75   25.67   0
   3  -1  -8 4117.18   54.22   0
   4   4 -15  119.20   22.00   0
   5   4 -14   81.12   21.86   0
   7   1 -12  253.20   25.47   0
  -2   5  -7  655.57   25.19   0
   2   5 -15  219.16   26.91   0
   5   0 -13  322.96   23.48   0
   5   2 -15  125.74   23.30   0
   6   2 -14  133.79   23.86   0
   4  -1 -10 1727.88   35.83   0
   1   6 -14  193.74   24.59   0
   3   4 -16  344.38   26.92   0
   6  -1 -11  282.17   21.98   0
  -2   4  -6 1553.47   36.05   0
   0   3 -12 3074.75   42.03   0
   1   4 -15  273.71   23.38   0
   2   0 -10 7049.82   65.45   0
  -1   7 -11  180.47   22.14   0
   2   2 -15  301.94   23.66   0
   2   3 -16 1053.85   31.33   0
   0   8 -11   41.79   22.84   0
   4   3 -17  209.97   25.40   0
  -1   4 -11  679.44   23.67   0
  -1   5 -12 1105.57   30.70   0
   0   7 -13  263.62   25.49   0
   1   5 -16  520.67   27.93   0
   2   4 -17  233.83   24.74   0
   4   0 -14 1054.53   30.35   0
   3   5 -17  159.27   25.77   0
   0   2 -11 3672.96   47.46   0
   2   1 -14 2450.69   38.18   0
   3   2 -17  606.85   25.58   0
   6   1 -16  298.76   25.45   0
  -1   6 -13  317.95   22.14   0
   0   6 -15  155.58   20.86   0
   1   7 -15   58.79   22.34   0
   4   4 -18  104.47   24.32   0
   6   0 -15  120.74   21.78   0
   3   1 -16 1440.66   32.92   0
   7   1 -15   37.34   20.57   0
   1   1 -12 3843.04   48.30   0
   2   5 -18  164.50   25.36   0
   5   1 -17  261.82   22.72   0
   6   2 -17   87.65   22.77   0
   5   2 -18  282.51   24.33   0
   1   6 -17  213.26   23.68   0
   3   4 -19  143.98   25.62   0
  -2   5 -10 1022.44   29.75   0
  -2   6 -11  560.69   25.08   0
   0   4 -16  741.57   27.96   0
   1   3 -17  823.12   28.12   0
  -1   7 -14  188.81   23.59   0
   6  -1 -14  573.54   25.90   0
   0   3 -15  934.31   28.75   0
   4  -1 -13 1082.91   30.41   0
   0   7 -16  303.02   26.39   0
   2   3 -19  139.96   23.88   0
   4   3 -20  134.86   24.67   0
  -2   4  -9 2017.55   38.85   0
   1   2 -16 2029.17   35.47   0
   2   2 -18  561.57   27.33   0
  -1   4 -14 1208.46   31.23   0
  -1   5 -15  255.40   23.13   0
   1   5 -19  169.52   25.85   0
   2   4 -20  287.08   26.63   0
   3   5 -20  113.63   24.29   0
   2   0 -13 2533.63   39.21   0
   4   0 -17  317.92   23.22   0
   5  -1 -15  453.51   26.13   0
  -1   6 -16  539.11   27.50   0
   0   6 -18  145.55   24.73   0
   3   2 -20  542.39   28.49   0
   4  -2  -9 1973.43   40.64   0
   6   1 -19   53.96   22.91   0
   0   1 -10 3414.47   47.58   0
   0   2 -14 2143.47   35.97   0
   6   0 -18  244.43   26.81   0
  -1   2  -9 2426.99   40.77   0
   2   5 -21   97.15   22.54   0
   5   1 -20  243.83   25.36   0
   1   6 -20  174.73   26.21   0
   5   2 -21  126.29   24.56   0
   3   4 -22  118.17   26.24   0
  -2   5 -13 1011.22   30.01   0
  -2   6 -14  643.62   26.86   0
   1   1 -15 1100.41   28.13   0
  -1   7 -17  189.82   24.61   0
   5   0 -19  242.37   24.60   0
   0   4 -19  169.93   20.19   0
   0   7 -19   19.91   25.14   0
   1   3 -20  659.30   26.43   0
   1   0 -11  965.53   27.07   0
   4   1 -21  244.46   26.24   0
   0   3 -18  862.27   27.13   0
   2   3 -22  300.09   27.61   0
   4   3 -23   53.07   22.96   0
  -2   4 -12 3565.01   48.53   0
  -1   5 -18  711.79   28.67   0
   1   2 -19  513.90   25.91   0
   1   5 -22  200.18   24.98   0
   2   2 -21  480.26   27.66   0
   4  -1 -16 1421.54   33.92   0
  -2   3  -8 4096.75   54.99   0
  -1   4 -17  799.75   27.53   0
   2   4 -23   81.94   25.69   0
   3  -1 -14 2437.62   40.51   0
  -1   6 -19  144.87   24.27   0
   0   6 -21  150.96   23.66   0
   2   0 -16 1279.57   29.67   0
   3   2 -23   45.26   24.62   0
   4   0 -20  612.81   27.84   0
   3   3 -24  117.55   23.48   0
   5  -1 -18  425.46   24.98   0
  -1   2 -12 3717.91   48.08   0
   0   1 -13 2448.57   39.70   0
   0   2 -17  523.32   22.67   0
   2   1 -20  755.34   28.97   0
   5  -2 -14  631.05   27.04   0
   4  -2 -12 3360.03   49.69   0
   5   1 -23   85.30   24.30   0
   6   0 -21  126.24   22.14   0
  -2   5 -16 1078.73   31.20   0
  -2   6 -17  195.13   23.42   0
   1   1 -18 1598.69   33.71   0
  -1   7 -20  202.39   23.36   0
   0   4 -22  485.02   25.49   0
   1   3 -23   93.35   24.27   0
   1   4 -24  162.41   25.14   0
   5   0 -22  230.83   24.06   0
   1   0 -14 2735.15   40.41   0
  -2   3 -11  913.94   28.34   0
  -2   4 -15  367.33   22.74   0
   0   3 -21  338.19   22.82   0
   2   3 -25  158.79   25.56   0
   4   1 -24  245.25   25.27   0
  -1   5 -21  297.24   25.88   0
   1   5 -25   61.75   24.70   0
  -3   5 -11  457.56   23.64   0
   1   2 -22  451.67   24.75   0
   2   2 -24  349.52   24.45   0
   2   4 -26  160.02   24.78   0
   3  -1 -17 1026.85   29.60   0
   3   0 -21  417.49   24.93   0
   4  -1 -19  277.57   22.56   0
  -1   6 -22  178.38   24.34   0
   0   6 -24  130.17   23.44   0
   2   0 -19  380.50   21.84   0
   3  -2 -10 2854.68   48.26   0
   4   0 -23  146.81   23.70   0
  -1   2 -15 1084.31   27.97   0
   0   1 -16 3377.13   45.26   0
   0   2 -20 1341.97   32.95   0
   3   2 -26  170.20   25.42   0
   3   3 -27   58.30   23.21   0
   5  -1 -21  212.81   23.06   0
  -1   3 -19  488.67   23.12   0
   2   1 -23  188.80   24.49   0
  -2   5 -19  136.42   22.41   0
   4  -2 -15  343.92   21.76   0
   5  -2 -17  626.45   26.00   0
  -2   6 -20  301.73   25.16   0
   1   1 -21  551.67   26.80   0
   5   1 -26  108.26   25.98   0
  -2   3 -14 2494.60   39.38   0
   0   4 -25  204.60   25.22   0
  -3   5 -14  644.78   27.95   0
  -2   4 -18  609.18   26.62   0
   1   3 -26  173.75   24.06   0
   1   4 -27   63.75   24.15   0
   0   3 -24  382.05   24.33   0
   5   0 -25   88.06   22.61   0
  -1   5 -24  160.22   23.88   0
   2   3 -28  128.97   24.85   0
  -3   4 -10 1623.27   36.44   0
   1   2 -25  209.92   22.97   0
   2   2 -27   37.70   25.53   0
   3  -1 -20  752.26   28.43   0
   4  -1 -22  366.19   25.30   0
   4   1 -27   30.04   24.64   0
   2   0 -22 1000.43   31.18   0
   3  -2 -13 1007.97   29.35   0
   3   0 -24  225.73   22.03   0
  -1   2 -18 1505.48   32.05   0
  -1   6 -25   83.57   22.56   0
   0   1 -19  456.42   24.88   0
  -1   1 -11  989.58   27.57   0
   0   2 -23  311.89   26.01   0
  -1   3 -22  446.79   24.00   0
   0   0 -12 9999.99   76.11   0
   4   0 -26  143.63   24.91   0
  -2   5 -22  284.22   25.84   0
   2   1 -26  313.32   26.81   0
   3   2 -29   44.41   23.45   0
   4  -2 -18  581.38   26.00   0
   5  -1 -24  228.13   26.94   0
  -2   3 -17  951.58   27.55   0
  -2   6 -23   77.99   22.49   0
  -3   4 -13 1107.89   30.90   0
  -3   5 -17  627.10   26.55   0
   1   1 -24  430.67   24.67   0
  -2   4 -21  570.52   27.35   0
  -2   2 -10 6754.96   66.07   0
   0   4 -28   81.06   23.91   0
  -1   1 -14 2760.18   40.84   0
   0   3 -27   89.29   25.76   0
   1   3 -29   96.47   24.33   0
   1  -1 -13 2432.38   40.45   0
   3  -2 -16 2027.42   36.85   0
  -1   2 -21  525.18   26.69   0
  -1   5 -27   15.60   24.37   0
   0   0 -15  351.72   20.23   0
   3  -1 -23  145.08   23.46   0
   0   1 -22  694.80   28.50   0
   1   2 -28  168.02   23.86   0
   4  -1 -25  179.27   24.94   0
   2   2 -30   79.90   24.62   0
   3   0 -27   82.57   24.97   0
  -3   4 -16 1464.85   34.49   0
  -2   3 -20  672.33   27.58   0
  -1   3 -25  192.69   25.05   0
   0   2 -26  267.42   26.65   0
   4  -2 -21  505.66   26.01   0
  -3   5 -20  601.04   27.51   0
  -2   5 -25  190.06   26.02   0
  -1   1 -17 1777.84   34.95   0
  -2   6 -26   83.81   23.82   0
   1  -1 -16 3285.72   45.10   0
   1   0 -23  182.76   21.10   0
   2   1 -29  113.66   24.97   0
   4   0 -29   49.42   22.44   0
  -2   4 -24  405.16   23.98   0
   1   1 -27   88.67   21.32   0
   5  -1 -27   38.67   24.97   0
   2  -2 -11 3581.10   50.85   0
   3  -2 -19  505.63   25.11   0
  -1   2 -24  428.53   27.02   0
  -3   4 -19  225.65   22.55   0
   0   1 -25  378.04   27.64   0
  -3   3  -9 2553.88   45.73   0
   2  -2 -14 2118.39   38.87   0
   3  -1 -26  292.47   27.25   0
  -3   3 -12 2047.21   39.58   0
   1   2 -31   28.92   24.43   0
  -1   3 -28  177.96   26.83   0
   1  -1 -19  423.47   22.38   0
   2  -1 -24  452.46   26.08   0
   4  -3 -14 1187.55   32.80   0
   4  -1 -28  127.45   23.99   0
  -3   5 -23   45.10   22.74   0
   0   0 -21 1135.55   31.40   0
   0   2 -29  106.84   24.58   0
   3   0 -30  155.23   26.34   0
   4  -2 -24  383.41   25.77   0
  -2   5 -28   93.63   24.47   0
   1   0 -26  404.05   26.77   0
  -3   3 -15  544.24   22.83   0
  -2   4 -27   10.00   24.42   0
   3  -2 -22  474.83   25.66   0
   1   1 -30  138.53   25.81   0
   2  -2 -17  478.13   22.08   0
  -3   4 -22  358.76   26.85   0
   2   1 -32   49.31   25.45   0
  -1   2 -27  118.67   25.41   0
   4  -3 -17  765.48   28.64   0
  -1   1 -23  162.74   24.24   0
   1  -1 -22  727.14   28.77   0
  -3   3 -18 1311.94   31.63   0
  -2   2 -22  987.57   32.33   0
   0   1 -28  229.66   23.40   0
  -1   0 -13 2368.81   39.01   0
   0   0 -24  630.66   26.76   0
   2  -2 -20 1250.28   33.01   0
   2  -1 -27  149.58   25.52   0
   3  -1 -29   97.45   23.35   0
  -3   5 -26  169.27   24.56   0
  -1   0 -10 3347.54   47.42   0
  -1   0 -16 3293.25   45.49   0
  -1   3 -31   16.50   24.84   0
   0   2 -32   64.74   26.72   0
   3  -2 -25  225.90   24.39   0
   4  -2 -27   45.82   25.62   0
  -2   1 -12 3717.24   49.28   0
   0  -1 -14 2759.05   41.38   0
   0  -1 -11  997.22   28.32   0
   1   0 -29  189.80   22.97   0
   4  -3 -20  606.30   28.05   0
  -3   3 -21  456.74   26.83   0
  -3   4 -25  186.54   24.86   0
  -2   1 -15 1094.46   30.43   0
  -2   4 -30   73.23   22.99   0
  -1   1 -26  431.57   28.50   0
   0  -1 -17 1773.69   36.36   0
  -2   2 -25  245.34   25.16   0
  -1   0 -19  442.85   25.47   0
   1  -1 -25  354.78   23.92   0
   1   1 -33   46.60   24.37   0
   3  -3 -12 3008.53   50.06   0
  -2   1 -18 1556.67   34.47   0
  -1   2 -30  169.09   24.22   0
   2  -2 -23  318.68   25.77   0
   3  -3 -15  918.79   29.74   0
  -4   4 -14 1028.78   32.87   0
   0   0 -27   78.62   24.03   0
   0   1 -31    9.35   25.11   0
  -4   4 -17  359.82   26.20   0
   0  -1 -20 1187.81   30.56   0
  -3   2 -14 2500.35   42.25   0
  -3   3 -24  267.98   26.29   0
  -3   5 -29   52.70   23.89   0
   2  -1 -30  138.92   26.68   0
   3  -1 -32   37.80   26.52   0
   4  -3 -23   83.90   22.18   0
  -2   1 -21  517.59   25.04   0
  -1   0 -22  659.92   26.73   0
   3  -2 -28  174.52   26.04   0
  -3   2 -17 1007.15   28.96   0
  -3   2 -11  902.63   28.92   0
  -3   4 -28  140.69   24.61   0
   1   0 -32   70.15   26.11   0
  -4   4 -20  579.26   30.08   0
  -1   1 -29  189.74   27.04   0
  -2   2 -28  116.77   22.26   0
   0  -1 -23  138.69   24.00   0
   2  -2 -26  251.55   27.17   0
   3  -3 -21  329.75   24.71   0
  -3   2 -20  688.64   28.60   0
  -1   2 -33   51.00   25.15   0
   0   0 -30  148.30   27.23   0
  -3   3 -27   56.94   26.08   0
  -2   1 -24  475.39   26.23   0
  -2   3 -32   41.26   26.12   0
  -4   4 -23  160.05   23.87   0
  -3   2 -23  162.36   25.25   0
  -3   2  -8 3998.72   57.22   0
   0  -1 -26  405.85   26.28   0
   3  -3 -24  375.90   26.57   0
   3  -2 -31   53.65   25.13   0
  -4   3 -16 1501.57   36.22   0
  -2   1 -27  118.13   26.63   0
  -2   2 -31   55.52   24.22   0
  -1   1 -32   86.34   27.99   0
   2  -3 -16 2090.73   40.74   0
   2  -2 -29  106.29   26.41   0
  -4   3 -19  254.02   24.58   0
  -1   0 -28  257.76   28.21   0
   2  -3 -19  504.01   26.64   0
  -4   3 -13 1122.19   32.91   0
   2  -3 -13  975.81   30.69   0
  -4  -5 -11   83.78   21.15   0
  -3  -4 -17  198.89   23.47   0
  -1  -5  -2 1373.85   29.13   0
  -1  -4 -12 1462.79   29.75   0
  -2  -5   6  681.05   25.49   0
  -1  -5   1  616.80   23.91   0
   0  -4  -2 3434.68   42.82   0
  -4  -4 -18   90.04   22.36   0
  -2  -4 -16  501.20   25.87   0
   0  -4  -5  832.46   25.29   0
  -3  -5 -13  228.06   22.75   0
  -2  -5 -12  441.31   22.44   0
  -1  -5  -8 1052.61   26.75   0
  -1  -3 -16 1420.18   31.12   0
  -1  -2 -17 1026.21   28.90   0
  -4  -5 -14   50.27   21.80   0
  -1  -5   4 1460.17   31.55   0
  -3  -3 -21  192.73   21.81   0
  -4  -3 -22  161.46   21.99   0
  -3  -6   0  415.09   25.00   0
  -1  -4   9 1237.59   30.61   0
  -4  -6  -1   73.23   21.86   0
  -3  -6  -6  180.57   22.20   0
  -2  -6  -5  269.49   24.46   0
  -2  -3 -20  612.56   25.82   0
  -1  -5 -11  336.51   21.07   0
  -1  -4 -15  402.05   20.96   0
   0  -4   4 3240.86   43.42   0
  -3  -6   3   71.63   21.10   0
  -2  -6   1  295.92   22.87   0
  -3  -6  -9  110.25   21.12   0
  -3  -4 -20  147.23   22.70   0
  -2  -6  -8  499.15   26.60   0
   0  -5  -4 1834.38   33.50   0
   0  -4 -11 1301.52   29.64   0
  -2  -4 -19  114.71   20.39   0
  -1  -5   7  666.63   26.27   0
   0  -5  -1  578.70   21.81   0
  -2  -6   4  615.89   26.19   0
  -1  -6  -4  986.29   27.18   0
  -1  -6  -1  499.02   24.10   0
   0  -5  -7 1105.18   27.10   0
  -3  -6 -12  264.97   23.79   0
  -1  -6  -7  213.61   21.84   0
  -1  -5 -14  587.82   25.14   0
   0  -5   2 2244.39   36.44   0
  -1  -6   2  389.78   22.71   0
  -1  -3 -19  242.07   20.55   0
   0  -5 -10 1080.99   27.20   0
  -3  -5 -19   18.68   21.93   0
  -1  -6 -10  388.61   21.84   0
  -1  -4 -18  502.56   24.55   0
  -2  -5 -18  289.95   22.83   0
   0  -3 -15  543.17   22.74   0
   0  -4   7  571.56   22.99   0
  -1  -6   5  352.34   22.01   0
   0  -6  -6  679.02   26.25   0
   0  -6  -3  396.05   23.18   0
   0  -5   5 1270.09   29.88   0
  -1  -6 -13  326.54   21.87   0
  -1  -5 -17  278.06   20.59   0
   0  -5 -13  338.13   20.49   0
  -2  -7  -7  163.87   22.62   0
  -2  -7  -1   94.10   20.60   0
   0  -6   0 1475.19   30.33   0
   1  -4  -4 5574.96   52.37   0
  -2  -4 -22  237.33   21.56   0
   0  -6  -9  501.18   22.95   0
   1  -4  -7 1407.87   29.88   0
   1  -3  -2 6793.95   61.64   0
   0  -2 -16 1235.25   30.08   0
   1  -4  -1 1827.55   32.22   0
  -2  -7 -10  164.45   22.87   0
  -1  -7  -6  228.08   23.56   0
   1  -3  -8 4432.73   49.28   0
   0  -6   3  657.53   25.22   0
   1  -5  -3 1693.90   32.10   0
  -2  -5 -21  140.42   22.38   0
  -1  -7  -9  165.95   23.08   0
  -1  -7   0  567.98   25.37   0
   0  -6 -12  713.09   26.77   0
   0  -4 -17  342.10   19.45   0
   1  -5  -6 1802.34   31.65   0
  -1  -4 -21  200.32   21.56   0
   0  -5 -16  664.06   26.04   0
   1  -4 -10 1788.96   31.78   0
   0  -3 -18 1335.68   32.47   0
   1  -5  -9  720.47   24.62   0
  -1  -7 -12  303.60   24.26   0
  -1  -7   3  109.54   21.34   0
  -1  -5 -20  260.61   23.34   0
   0  -7  -5  327.45   24.89   0
   0  -5   8 1205.31   31.38   0
   0  -7  -8  712.01   25.62   0
   1  -6  -5  801.62   26.97   0
   0  -6   6  563.56   23.83   0
   1  -6  -8 1082.42   28.86   0
   1  -6  -2 1324.01   28.82   0
   1  -5 -12 1557.02   32.62   0
   0  -7   1  335.86   23.47   0
   1  -5   3  691.27   24.09   0
  -1  -7 -15   54.83   22.99   0
  -1  -6 -19   38.14   20.65   0
   0  -7 -11   99.97   19.97   0
   1  -6   1  587.17   23.73   0
   0  -5 -19  219.36   23.04   0
   1  -6 -11  321.49   21.22   0
  -1  -8  -5   94.11   22.98   0
  -1  -8  -2  209.13   23.42   0
   0  -7 -14  164.62   23.95   0
   1  -4   5 2256.40   38.69   0
   1  -3 -14 2388.34   38.26   0
   0  -6 -18  238.44   23.16   0
   1  -5 -15  399.58   21.14   0
   1  -7  -7  191.39   20.18   0
   1  -7  -4 1011.92   27.99   0
  -1  -8   1   94.09   23.02   0
  -1  -5 -23   65.85   19.58   0
   1  -7  -1  529.68   25.38   0
   1  -6 -14  552.28   26.62   0
   1  -4 -16 1474.92   32.47   0
   0  -8  -7  169.31   22.66   0
   1  -7 -10  346.87   25.18   0
   1  -6   4 1404.10   31.96   0
   1  -5   6 2126.20   37.35   0
   1  -2 -12 3534.63   48.39   0
  -1  -6 -22  112.20   23.59   0
   0  -8  -1  146.13   21.67   0
   1  -7 -13  356.25   26.27   0
   1  -7   2  397.28   24.05   0
   2  -5  -5 1440.16   31.02   0
   1  -5 -18  490.15   24.74   0
   2  -5  -8 3403.16   41.87   0
   0  -8 -13   89.33   22.20   0
   0  -8   2  268.26   22.66   0
   0  -5 -22  223.20   22.67   0
   1  -6 -17  274.39   23.60   0
   2  -6  -7  445.87   23.80   0
   2  -6  -4 1579.22   32.32   0
   0  -6 -21  170.35   21.34   0
   1  -8  -6  231.99   25.24   0
   2  -4  -6 1642.13   30.95   0
   1  -8  -9  143.97   24.67   0
   1  -8  -3  250.52   23.90   0
   1  -3 -17  982.14   28.14   0
   2  -6 -10 1103.13   29.55   0
   2  -5 -11  492.48   22.87   0
   2  -4  -3 1733.21   33.11   0
   2  -4  -9 2117.85   34.55   0
   1  -4 -19  225.25   20.67   0
   0  -7 -20  178.23   23.57   0
   1  -8 -12  327.15   25.79   0
   1  -8   0  545.35   26.41   0
   1  -7   5  323.41   22.59   0
   1  -6   7  659.25   25.27   0
   2  -7  -6  779.79   26.23   0
   2  -7  -9  594.83   24.51   0
   2  -7  -3  231.21   20.10   0
   2  -6 -13  635.35   26.18   0
   1  -2 -15 1094.96   29.58   0
   2  -4   0 8958.85   69.77   0
   1  -4   8 3837.73   54.43   0
   2  -6   2 1589.84   32.96   0
   1  -6 -20  250.45   24.04   0
   2  -7 -12  454.56   23.62   0
   2  -7   0 1002.26   29.25   0
   1  -8 -15   50.28   22.41   0
   1  -5 -21  216.14   22.76   0
   1  -8   3  111.70   22.05   0
   1  -7 -19   61.61   21.48   0
   2  -8  -8  488.66   27.33   0
   2  -8  -5  249.84   25.34   0
   2  -6 -16  464.20   25.87   0
   2  -3  -7 3462.09   44.67   0
   1  -9  -5   72.51   22.54   0
   2  -3  -4 7508.66   65.34   0
   2  -8 -11  115.37   23.92   0
   2  -8  -2  294.19   22.25   0
   2  -7 -15   69.41   19.53   0
   2  -5   4 4286.54   50.52   0
   2  -4 -15  354.89   21.70   0
   1  -3 -20  677.01   27.03   0
   2  -7   3  728.15   27.07   0
   2  -5 -17  640.04   26.03   0
   2  -4   3 1678.60   34.11   0
   2  -8 -14  170.18   25.05   0
   2  -3  -1 1484.05   31.97   0
   1  -9   1  122.98   20.78   0
   1  -6 -23   58.71   20.16   0
   2  -7 -18  304.79   24.97   0
   2  -6 -19  122.88   23.18   0
   2  -3 -13  999.39   27.81   0
   3  -6  -9  708.80   26.55   0
   3  -6  -6 1302.63   29.64   0
   1  -7 -22   98.22   21.04   0
   2  -9  -7  149.76   24.30   0
   2  -9  -4  238.99   25.85   0
   3  -7  -8  649.88   25.62   0
   3  -7  -5  604.67   24.74   0
   3  -6  -3  785.65   27.13   0
   3  -7 -11  225.99   21.44   0
   3  -7  -2 1044.29   29.75   0
   3  -6 -12 1031.95   29.59   0
   3  -5  -7  701.13   24.01   0
   2  -9  -1   74.19   22.48   0
   2  -4 -18  563.59   25.27   0
   3  -5 -10 1123.10   29.22   0
   3  -5  -4 4264.97   47.46   0
   2  -8   4  653.63   27.38   0
   2  -7   6  626.86   26.31   0
   2  -5 -20  576.41   26.90   0
   3  -8  -7  209.79   22.71   0
   3  -8  -4  652.19   28.39   0
   3  -8 -10  247.47   23.05   0
   3  -7 -14  529.31   28.02   0
   2  -5   7  669.66   24.95   0
   3  -8 -13  252.03   26.34   0
   3  -7   1  341.83   24.05   0
   3  -5  -1 1538.48   30.70   0
   2  -9   2  193.05   26.06   0
   2  -7 -21  111.36   22.49   0
   2  -3 -16 2101.33   38.88   0
   2  -6 -22  255.60   27.03   0
   2  -6   8 1227.70   31.72   0
   3  -9  -9   87.80   24.62   0
   3  -9  -6  170.03   24.53   0
   3  -7 -17  252.72   24.90   0
   3  -4  -8 4206.71   47.95   0
   2  -4   6 1536.40   33.49   0
   3  -9 -12  245.78   26.70   0
   3  -6   3  765.10   27.09   0
   3  -4  -5 2280.41   36.41   0
   3  -8   2  401.51   25.96   0
   3  -5 -16 1072.46   30.67   0
   3  -6 -18  402.89   26.78   0
   2  -4 -21  486.61   24.74   0
   3  -7   4  898.06   29.41   0
   3  -9   0  457.43   27.55   0
   3  -4  -2 2734.35   39.95   0
   4  -7  -7  559.36   27.87   0
   2  -2 -11 3631.66   50.64   0
   3  -4 -14 1238.10   31.23   0
   4  -7 -10  629.08   27.94   0
   3  -8 -19   37.13   23.62   0
   3  -7 -20  148.26   24.03   0
   4  -8  -9  261.26   23.17   0
   4  -8  -6  369.27   23.94   0
   4  -7  -4  910.47   28.02   0
   2  -3 -19  470.48   23.29   0
   4  -6  -8 1316.05   32.64   0
   3  -8   5  276.13   23.69   0
   3  -5 -19  144.30   21.42   0
   4  -8 -12  443.15   25.13   0
   4  -8  -3  309.52   22.56   0
   4  -7 -13  196.83   24.62   0
   4  -6  -5  568.99   24.05   0
   3  -9   3   91.82   21.87   0
   4  -9  -8  425.14   27.60   0
   4  -6 -11  552.11   24.45   0
   3  -6 -21  196.66   22.96   0
   3  -6   6 1213.43   31.87   0
   3  -4   1 1756.35   34.90   0
   4  -9  -5  162.40   24.62   0
   4  -9 -11  104.52   22.96   0
   4  -8 -15   97.42   24.90   0
   4  -6  -2 1602.10   34.66   0
   2  -2 -14 2102.16   40.64   0
   4  -8   0  769.14   27.51   0
   3  -7   7  526.95   25.85   0
   3  -5   5 1394.81   33.01   0
   3  -4 -17  802.61   28.38   0
   4  -7 -16  357.23   23.55   0
   4  -9 -14  104.70   21.90   0
   4  -5  -9 1277.54   31.98   0
   4  -5  -6 2163.14   36.52   0
   3  -7 -23   48.46   20.78   0
   3  -3  -6 4282.88   50.32   0
   4  -8 -18  111.08   23.67   0
   4  -5  -3  709.73   26.53   0
   4  -9   1  218.11   23.55   0
   4  -8   3  276.03   24.74   0
   4  -6 -17  243.93   25.38   0
   4  -7 -19  143.83   24.69   0
   3  -3  -3 4565.37   52.18   0
   4 -10  -1  107.01   22.10   0
   4  -5 -15  273.66   23.74   0
   2  -4   9 1924.44   42.12   0
   3  -4   4 5509.12   58.98   0
   5  -8  -8  610.80   28.16   0
   3  -4 -20  661.68   27.31   0
   4  -5   0 2781.68   42.20   0
   5  -8 -11  137.76   23.69   0
   5  -8  -5  267.94   23.32   0
   2  -2 -17  489.11   23.63   0
   5  -9 -10  109.76   23.74   0
   5  -7  -9  217.08   22.44   0
   5  -7  -6  597.94   29.39   0
   3  -3 -15  912.93   29.04   0
   4  -9   4  482.35   27.61   0
   5  -9  -4  476.95   28.67   0
   5  -7 -12  662.80   30.26   0
   4  -6 -20  277.24   25.29   0
   4  -6   4 1536.44   34.71   0
   5  -9 -13  170.84   25.43   0
   5  -8 -14  193.25   24.74   0
   5  -7  -3  700.23   29.64   0
   3  -6   9  682.41   27.44   0
   4  -4  -7  630.06   25.39   0
   3  -3   0 5791.69   59.52   0
   4  -8   6  324.40   24.46   0
   4  -7 -22  116.73   24.24   0
   4  -5 -18  697.05   28.60   0
   5  -9  -1  194.70   24.26   0
   5  -6 -10  824.30   30.47   0
   5  -6  -7  693.55   28.42   0
   4  -4  -4 3148.66   42.79   0
   5 -10  -3   66.62   25.07   0
   5  -8 -17  140.52   26.07   0
   4  -4 -13 1246.37   32.43   0
   5  -8   1  341.55   26.96   0
   5  -6  -4 1342.44   33.91   0
   5  -9   2  172.77   25.70   0
   4  -4  -1 3015.19   43.43   0
   5 -10   0  220.05   24.19   0
   5  -6  -1  596.97   26.68   0
   5  -6 -16  507.82   28.48   0
   4  -4 -16  764.16   28.40   0
   5  -8 -20  152.08   24.70   0
   4  -7   8  613.83   26.96   0
   4  -5 -21  269.55   23.62   0
   5  -7   3  243.69   23.95   0
   4  -6   7  445.14   24.24   0
   5  -8   4  681.52   29.05   0
   5  -5  -8 1225.60   30.20   0
   6  -9  -9  243.27   25.46   0
   6  -9  -6  191.29   26.45   0
   6  -8 -10  267.31   28.05   0
   6  -8  -7  125.98   25.64   0
   3  -4   7 1324.56   33.46   0
   5  -5  -5 1284.28   32.50   0
   6  -9 -12  194.38   26.11   0
   3  -3   3 1108.75   30.48   0
   6  -8 -13  232.50   27.51   0
   6  -8  -4  624.38   30.34   0
   5  -9   5  171.35   23.91   0
   5  -7 -21   76.65   24.69   0
   5  -6 -19  142.98   24.02   0
   5  -5 -14 1001.99   30.92   0
   6  -7  -8  951.27   32.72   0
   4  -4   2 3282.99   45.38   0
   5  -5  -2 2233.82   38.70   0
   6  -7 -11  209.71   22.77   0
   4  -5   6 1798.83   36.81   0
   4  -4 -19  146.30   23.30   0
   6 -10  -2  154.99   23.58   0
   6  -8 -16  182.55   26.44   0
   6  -9   0  395.76   28.26   0
   6  -7  -2  404.45   27.54   0
   3  -2  -4 7485.16   69.58   0
   3  -2 -13  958.59   29.59   0
   4  -3 -11  629.32   23.77   0
   5  -7   6  698.39   29.26   0
   5  -5 -17  392.28   25.62   0
   4  -3  -5 2330.84   38.13   0
   5  -8   7  184.81   23.56   0
   5  -5   1  616.06   24.16   0
   6  -8   2  339.98   26.70   0
   6  -7 -17  201.51   25.68   0
   6  -6  -9  382.08   24.71   0
   6  -6  -6  581.54   27.59   0
   5  -6   5  771.85   29.00   0
   4  -3 -14 1253.61   32.29   0
   6  -9   3  220.63   26.58   0
   6  -6  -3  632.35   25.96   0
   4  -3  -2 2858.22   41.71   0
   5  -4  -6 2241.28   37.38   0
   7  -9 -11   -2.42   26.11   0
   7  -9  -8  169.72   27.58   0
   4  -6  10  966.86   31.92   0
   5  -4 -12 1141.55   31.54   0
   6  -6 -15  149.58   21.70   0
   7  -9  -5  196.94   26.61   0
   3  -2 -16 1996.65   41.11   0
   3  -2  -1 1547.64   33.89   0
   4  -4   5  817.73   27.22   0
   5  -5 -20  271.81   25.03   0
   7  -8  -9  250.07   27.47   0
   7  -8  -6  214.41   25.75   0
  -5   3  -5 1359.05   41.30   0
  -5   4 -12 1578.70   41.66   0
  -3   5 -20  542.48   32.78   0
   0   6 -21  103.66   30.50   0
  -7   6 -10  342.31   30.93   0
  -7   8 -15   48.13   28.83   0
  -6   6 -15  123.85   30.50   0
  -3   3 -15  537.23   28.27   0
  -2   2 -13 2374.40   44.50   0
  -2   3 -17 1006.37   33.53   0
  -1   2 -15 1134.10   33.90   0
  -1   6 -22  170.80   29.44   0
   1   1 -12 3553.23   57.66   0
  -7   7 -14  172.13   29.61   0
   1   2 -16 2041.20   44.65   0
  -3   4 -19  250.23   27.58   0
  -6   4  -7  427.35   28.19   0
  -4   4 -17  422.28   28.56   0
  -3   2 -11  954.18   31.40   0
  -2   6 -23   95.05   30.45   0
  -2   4 -21  538.68   33.11   0
  -1   1 -11  995.47   32.27   0
  -6   5 -14  552.37   34.12   0
  -5   6 -20  257.98   29.83   0
  -4   6 -22  253.60   33.67   0
   0   2 -17  513.30   26.86   0
  -5   3  -8 3374.90   54.88   0
  -4   7 -23   56.46   28.39   0
  -7   6 -13  285.25   30.80   0
  -4   2  -6 1568.81   41.08   0
  -6   6 -18  226.60   32.10   0
  -5   4 -15  458.39   28.27   0
  -4   5 -21  215.33   27.80   0
   0   4 -22  527.00   33.71   0
  -3   3 -18 1321.31   38.78   0
  -3   5 -23   13.65   31.25   0
  -2   1  -9 2501.77   46.49   0
  -2   2 -16 1252.77   36.03   0
   1   3 -20  626.42   32.14   0
  -7   7 -17  156.92   29.45   0
  -6   4 -10  982.50   35.47   0
  -2   3 -20  703.69   33.70   0
  -1   5 -24  165.40   30.03   0
  -1   4 -23   98.05   29.22   0
   0   3 -21  340.83   26.77   0
  -1   2 -18 1528.33   37.19   0
  -4   3 -16 1524.57   39.87   0
  -4   4 -20  570.12   33.63   0
  -3   2 -14 2420.63   43.86   0
  -3   4 -22  372.00   32.81   0
  -1   6 -25   65.33   27.57   0
  -5   3 -11  502.31   26.43   0
  -4   2  -9 2082.64   43.74   0
  -6   5 -17  326.15   31.19   0
   1   1 -15 1045.57   34.57   0
  -7   6 -16  309.09   32.36   0
  -5   6 -23   42.60   31.04   0
  -2   6 -26  104.63   31.69   0
  -1   1 -14 2820.41   48.19   0
   1   2 -19  482.76   29.00   0
   2   1 -14 2402.15   48.60   0
  -6   4 -13  592.22   31.61   0
  -4   6 -25  126.55   28.86   0
  -7   5 -12  408.08   30.47   0
  -2   1 -12 3792.51   54.02   0
   0   2 -20 1230.89   37.17   0
  -4   5 -24  204.94   33.55   0
  -7   7 -20  177.62   28.33   0
  -5   5 -22  206.80   27.44   0
  -3   3 -21  479.21   28.56   0
  -2   2 -19  381.58   25.71   0
  -5   3 -14  688.21   29.13   0
  -4   2 -12 3430.90   50.75   0
  -3   5 -26  157.01   30.39   0
   0   4 -25  152.94   29.36   0
  -4   3 -19  257.16   28.79   0
  -3   2 -17  965.45   32.19   0
  -2   3 -23  169.08   26.09   0
  -3   1  -7 3305.29   54.65   0
  -1   2 -21  535.86   30.86   0
   0   5 -26  155.29   28.69   0
  -6   5 -20  273.47   31.75   0
  -4   4 -23  136.26   26.29   0
  -1   4 -26  207.62   29.67   0
  -1   5 -27   28.80   29.54   0
   0   3 -24  358.98   30.46   0
   1   3 -23   97.44   26.17   0
  -7   5 -15   84.45   29.53   0
  -7   6 -19   51.98   28.44   0
  -6   4 -16  489.49   31.55   0
  -3   4 -25  194.81   27.18   0
  -1   1 -17 1689.92   37.33   0
  -2   1 -15 1108.74   32.09   0
   1   1 -18 1471.74   38.54   0
  -2   5 -28   81.98   28.63   0
  -1   3 -25  206.02   29.73   0
  -6   6 -24  104.65   28.85   0
  -5   3 -17  660.39   32.70   0
   1   2 -22  443.67   29.34   0
   2   1 -17  940.61   32.98   0
  -5   5 -25   91.23   30.22   0
  -4   5 -27   46.15   29.36   0
   0   2 -23  328.88   29.20   0
  -3   3 -24  274.31   27.83   0
  -2   2 -22  969.30   32.80   0
   0   0 -12 9932.80   85.77   0
  -6   3  -9  654.80   30.09   0
  -4   3 -22  418.89   31.93   0
  -7   5 -18  305.58   30.07   0
  -6   4 -19  113.41   28.76   0
  -3   1 -13  968.37   32.34   0
  -6   5 -23   59.48   29.59   0
  -3   5 -29   59.32   28.24   0
  -2   3 -26  282.51   27.84   0
  -4   4 -26  182.50   29.24   0
  -2   1 -18 1584.21   38.33   0
  -1   0 -10 3304.71   50.95   0
  -6   3 -12  954.44   33.88   0
  -5   2  -7  665.80   30.00   0
  -1   1 -20 1229.85   33.96   0
   0   4 -28   90.50   27.78   0
   1   0 -14 2631.79   46.90   0
  -5   4 -24  266.38   29.33   0
  -3   4 -28  113.24   28.16   0
  -5   2 -10 1055.98   33.58   0
  -5   3 -20  587.20   30.03   0
  -1   4 -29   72.26   27.29   0
   0   3 -27   96.40   26.89   0
   0   0 -15  341.71   24.65   0
   1   1 -21  474.98   28.43   0
  -3   1 -16 2087.31   41.78   0
  -1   0 -13 2439.12   42.56   0
  -3   2 -23  188.32   29.09   0
  -1   3 -28  162.26   29.78   0
   0   1 -22  676.07   31.34   0
  -7   5 -21  146.10   28.02   0
  -6   3 -15  262.81   25.45   0
  -5   2 -13 1059.99   33.92   0
  -2   2 -25  302.92   29.38   0
  -6   4 -22  273.53   28.85   0
  -4   3 -25  215.37   26.66   0
  -3   3 -27   71.99   24.89   0
  -2   4 -30   93.94   28.80   0
   0   2 -26  258.26   29.62   0
   1   2 -25  176.72   25.39   0
   2   1 -20  697.21   30.25   0
  -4   2 -21  561.31   31.71   0
  -2   1 -21  535.74   26.91   0
  -1   0 -16 3399.42   49.71   0
  -1   1 -23  155.23   25.96   0
   1   0 -17 1656.42   36.48   0
  -7   4 -17  187.78   27.27   0
  -5   2 -16 1115.25   35.43   0
  -4   4 -29   66.42   27.93   0
  -2   0  -8 6244.87   69.60   0
  -4   1 -11  674.73   28.21   0
  -4   1  -8 4143.92   57.44   0
  -3   1 -19  480.60   26.20   0
  -2   0 -11 3825.16   51.64   0
   0   0 -18 1117.77   31.74   0
  -6   3 -18  453.79   30.02   0
   2   0 -16 1219.86   35.07   0
  -2   0 -14 2223.84   41.45   0
   1   1 -24  426.73   28.77   0
  -4   1 -14 1206.23   32.53   0
  -3   2 -26  348.08   28.93   0
   0   1 -25  383.87   28.76   0
  -6   4 -25  129.07   28.48   0
   0   3 -30   80.60   26.49   0
  -7   4 -20  210.50   29.76   0
  -5   2 -19  150.11   22.22   0
  -4   2 -24  380.21   30.35   0
  -2   1 -24  439.31   29.80   0
  -2   2 -28  110.86   24.82   0
  -1   0 -19  451.02   24.75   0
  -1   3 -31   40.40   27.40   0
   1   0 -20 1262.81   33.02   0
  -6   3 -21  194.11   26.99   0
  -3   1 -22  491.96   27.33   0
  -2   0 -17  526.38   27.92   0
   0   2 -29   83.18   27.92   0
  -1   1 -26  389.44   26.81   0
   1   2 -28  186.48   26.43   0
   2   0 -19  363.55   24.89   0
  -2   3 -32   28.22   28.24   0
  -1   2 -30  136.93   26.45   0
  -5   2 -22  303.71   30.07   0
  -1   0 -22  707.41   30.26   0
  -7   4 -23   60.85   27.15   0
  -2   0 -20 1323.56   35.22   0
  -4   2 -27   14.49   27.93   0
  -6   3 -24  155.86   26.42   0
  -3   0  -9 1053.43   31.71   0
  -3   1 -25  197.68   28.97   0
  -2   1 -27  111.24   23.83   0
   0   1 -28  255.00   28.45   0
   1   0 -23  162.46   23.80   0
   1   1 -27   97.49   25.24   0
  -6   2 -14  650.01   29.36   0
  -2   2 -31   39.73   27.04   0
   0  -1 -14 2796.15   44.70   0
   0  -1 -11  978.18   29.34   0
  -6   2 -17  190.66   25.93   0
  -3   0 -18  911.99   31.27   0
   2   0 -22  962.29   32.40   0
  -5   2 -25  185.93   26.27   0
  -4   1 -23  102.54   22.53   0
  -2   0 -23  340.95   27.88   0
   1  -1 -16 3057.34   47.20   0
  -5   1 -12 1142.26   34.20   0
  -1   0 -25  359.34   25.99   0
   0  -1 -17 1692.84   35.39   0
   0   2 -32   78.84   24.14   0
  -5   1 -15  255.48   24.96   0
  -3   0  -6 4072.43   57.92   0
  -1  -1 -15 1158.89   32.55   0
  -1  -1 -12 3816.54   49.81   0
  -1   2 -33   38.54   26.52   0
  -6   2 -20  332.99   28.61   0
  -6   3 -27   23.41   25.99   0
  -5   1  -9 1300.10   35.54   0
  -3   0 -21  393.10   27.14   0
  -3   1 -28  216.66   28.92   0
  -5   1 -18  674.95   28.25   0
  -3   2 -32   66.60   24.04   0
  -2   1 -30  109.79   29.05   0
   0   0 -27   56.82   25.92   0
   1  -1 -19  438.28   22.99   0
   1   0 -26  375.31   24.98   0
  -1  -1 -18 1526.65   34.38   0
  -1  -1  -9 2647.56   44.94   0
   0  -1 -20 1215.88   31.86   0
   2  -1 -15 1061.39   32.48   0
   2  -1 -12 3568.55   55.00   0
  -4   1 -26  239.04   28.77   0
   0   1 -31   58.48   26.17   0
   1   1 -30  184.75   24.73   0
  -2   0 -26  279.09   25.32   0
   2   0 -25  260.22   26.77   0
  -6   2 -23  104.78   26.59   0
  -5   1 -21  324.58   28.59   0
  -1   0 -28  207.20   28.20   0
   2  -1 -18 1444.44   36.12   0
  -4   0 -13 1245.28   34.39   0
  -3   0 -24  368.81   28.75   0
  -1   1 -32   72.68   26.55   0
  -4   0 -16  768.04   27.60   0
  -2  -1 -16 2093.08   40.15   0
  -2  -1 -13  976.64   30.68   0
  -4   0 -19  155.14   24.50   0
  -4   0 -10 2407.24   41.89   0
  -3   1 -31   54.38   24.49   0
  -2  -1 -19  517.89   25.64   0
   2  -1 -21  500.55   26.93   0
  -5   1 -24  172.63   25.86   0
  -4   1 -29  113.15   27.00   0
  -2  -1 -10 2874.02   44.05   0
   0   0 -30  165.52   26.34   0
   1   0 -29  175.87   25.86   0
  -6   2 -26  138.80   26.03   0
  -2   0 -29   77.02   27.39   0
  -2   1 -33   37.17   27.17   0
  -1  -1 -24  494.58   26.70   0
  -3   0 -27  100.11   27.24   0
   1  -1 -25  356.19   27.65   0
  -2  -1 -22  463.87   26.30   0
  -5   1 -27   71.68   26.19   0
   2  -1 -24  447.22   26.22   0
  -4   0  -7  615.56   26.78   0
  -6   1 -16  484.53   27.29   0
  -2  -1 -25  225.13   27.61   0
  -6   1 -19  159.69   24.11   0
  -3  -1 -20  699.13   29.89   0
  -3   0 -30   96.52   26.55   0
   0  -2 -16 1292.27   32.61   0
   1  -1 -28  261.95   27.53   0
  -3  -1 -11  665.21   27.44   0
   0  -2 -19  378.39   26.19   0
   0  -1 -29  157.02   26.68   0
   0   0 -33   82.80   24.33   0
   1   0 -32   70.44   23.21   0
  -6   1 -22  185.80   25.64   0
   0  -2 -13 2557.05   42.07   0
  -5   0 -17  385.34   24.23   0
  -3  -1 -23  106.46   22.83   0
   1  -2 -21  531.26   27.32   0
  -5   0 -20  274.87   27.05   0
  -5   0 -14  984.98   32.03   0
  -1  -2 -17 1003.07   29.57   0
   0  -2 -22 1003.02   33.44   0
   2  -1 -27  100.64   23.26   0
  -1  -2 -20  698.44   29.61   0
  -1  -2 -14 2409.40   40.91   0
  -1  -1 -30  117.27   26.83   0
   1  -2 -12 3449.45   47.94   0
   2  -2 -17  482.63   25.26   0
  -6   1 -25   70.24   23.40   0
  -5   0 -23  109.50   24.78   0
  -3  -1 -26  201.22   29.47   0
   2  -2 -20 1188.75   33.67   0
  -5   0 -11  375.88   24.13   0
  -1  -2 -23  179.52   25.27   0
   0  -2 -25  287.07   27.65   0
   0  -2 -10 7211.27   67.99   0
   1  -2 -24  429.29   25.04   0
   2  -2 -14 2029.15   39.73   0
   1  -1 -31   37.23   27.71   0
  -4  -1 -18  659.65   30.25   0
  -3  -1  -8 4130.82   54.13   0
  -1  -2 -11  933.16   27.73   0
   0  -1 -32   43.01   25.23   0
  -4  -1 -15  281.37   24.74   0
  -2  -2 -18  574.52   26.45   0
   2  -2 -23  341.43   25.13   0
  -5   0 -26  142.09   26.21   0
  -4  -1 -21  280.11   23.86   0
  -2  -2 -21  551.34   28.78   0
  -2  -2 -15  353.86   25.06   0
  -2  -1 -31   48.44   26.46   0
  -1  -2 -26  335.94   25.81   0
   1  -2 -27  122.96   26.12   0
  -4  -1 -24  143.23   27.76   0
   2  -2 -11 3517.82   51.84   0
  -4  -1 -12 1147.54   31.56   0
  -2  -2 -12 3367.42   47.74   0
   2  -2 -26  262.52   26.04   0
  -1  -2 -29  110.61   28.03   0
  -4  -1 -27   48.96   25.98   0
   3  -2 -19  450.90   25.13   0
  -2  -2 -27   50.26   24.05   0
  -1  -2  -8 4180.31   52.28   0
   1  -2 -30  153.73   26.87   0
   3  -2 -22  451.31   27.83   0
   3  -2 -16 1976.02   41.09   0
   0  -2 -31   34.18   27.07   0
   0  -2  -7  734.58   26.32   0
  -3  -2 -16 1069.88   31.07   0
   0  -3 -21  456.60   25.74   0
   0  -3 -18 1306.50   32.84   0
   1  -3 -17 1018.09   29.58   0
   2  -2 -29  112.60   25.08   0
  -4  -1  -9 1278.73   34.21   0
  -3  -2 -25  179.65   24.66   0
  -3  -2 -13 1086.51   32.47   0
  -2  -2 -30   74.33   26.92   0
   0  -3 -24  289.49   28.24   0
   0  -3 -15  546.23   25.09   0
  -5  -1 -19  150.14   24.39   0
  -3  -1  -5 2168.74   43.08   0
  -1  -3 -19  269.94   27.00   0
  -1  -2 -32   30.08   23.52   0
   1  -3 -14 2481.60   42.13   0
   2  -3 -19  497.00   27.01   0
  -5  -1 -22  190.02   26.04   0
  -1  -3 -22  409.55   25.44   0
  -1  -3 -16 1520.33   36.94   0
   2  -3 -22  457.60   28.21   0
   3  -2 -13  964.78   31.28   0
  -5  -1 -16  500.42   28.21   0
   1  -3 -26  369.11   25.61   0
   2  -3 -16 2076.51   40.05   0
  -1  -3 -25  209.15   29.07   0
   0  -3 -27   86.18   26.49   0
   1  -2 -33   44.35   23.31   0
  -5  -1 -25   65.10   25.35   0
   0  -3 -12 2120.56   38.08   0
   2  -3 -25  198.94   26.79   0
  -5  -1 -13  326.98   27.21   0
  -2  -3 -20  628.78   31.17   0
  -1  -3 -13 1144.60   30.58   0
  -4  -2 -20  302.44   28.98   0
  -3  -2 -10 1057.35   32.50   0
  -2  -3 -23   15.33   28.02   0
  -1  -3 -28  139.14   27.92   0
   1  -3 -29  108.11   26.15   0
  -4  -2 -23  139.35   26.92   0
  -4  -2 -17  259.61   25.56   0
   1  -3 -11  943.22   28.40   0
   2  -3 -13  956.90   28.34   0
   2  -3 -28  166.32   25.83   0
  -2  -3 -26  170.73   28.31   0
   3  -3 -21  360.83   25.42   0
  -4  -2 -26  144.74   28.23   0
  -1  -2  -5 4406.35   57.27   0
   3  -3 -18  885.73   30.96   0
  -4  -2 -14  662.02   30.19   0
   3  -3 -24  385.87   27.72   0
  -2  -2  -6 1587.42   35.11   0
  -2  -3 -29   66.66   29.25   0
  -1  -3 -10 1673.39   35.02   0
   0  -3  -9 2676.29   42.44   0
   1  -3 -32   53.14   26.25   0
   3  -3 -15  958.81   31.48   0
  -3  -3 -21  184.97   29.19   0
   0  -4 -23  193.14   29.51   0
   0  -4 -20  628.18   32.21   0
   1  -4 -19  270.27   23.84   0
   2  -3 -31   17.50   25.55   0
  -3  -3 -18  437.93   26.40   0
   0  -4 -17  413.96   25.78   0
  -3   1 -10 2951.02   41.73   0
  -3   2 -17 1043.87   30.34   0
  -6   3 -12  969.71   28.50   0
  -5   3 -17  644.40   28.90   0
  -7   5 -18  257.68   26.28   0
  -5   2 -10 1051.40   27.76   0
  -5   4 -21  252.86   26.20   0
  -4   2 -15  376.06   21.33   0
  -1   3 -22  463.80   24.70   0
  -8   6 -17   96.94   24.76   0
  -8   5 -13  186.03   23.53   0
  -7   4 -14  509.84   24.57   0
  -6   4 -19  116.34   24.17   0
  -6   6 -24   79.60   23.68   0
  -4   1  -5 2259.40   39.25   0
  -2   1 -15 1165.24   29.96   0
  -7   6 -22   90.99   25.65   0
  -2   3 -23  158.73   22.47   0
  -9   6 -12  215.61   23.83   0
  -3   1 -13 1017.42   26.91   0
  -3   4 -25  177.38   24.31   0
   0   1 -16 3073.83   45.00   0
  -6   5 -23   65.22   22.70   0
  -5   5 -25   60.63   22.71   0
   0   2 -20 1193.49   32.57   0
  -4   3 -22  408.02   23.60   0
  -7   3  -7  521.29   24.61   0
  -7   5 -21  174.12   24.68   0
  -5   3 -20  594.40   25.47   0
  -4   2 -18  571.29   23.96   0
  -7   4 -17  182.75   20.87   0
  -4   5 -27    9.17   22.26   0
  -8   4  -9  240.92   24.35   0
  -5   4 -24  239.36   24.90   0
  -3   3 -24  226.15   21.37   0
  -4   1 -11  672.91   23.07   0
  -1   0 -10 3423.17   46.66   0
  -6   2  -5  619.49   25.87   0
  -6   4 -22  276.14   23.54   0
  -6   3 -18  437.31   26.27   0
  -5   2 -16 1132.71   29.11   0
  -3   1 -16 2165.34   35.41   0
  -2   1 -18 1600.31   33.01   0
  -6   2  -8 1295.46   31.62   0
  -2   0  -8 6575.80   62.04   0
  -2   4 -27   32.15   23.34   0
  -1   3 -25  189.90   21.86   0
  -8   5 -19   36.70   21.34   0
  -7   3 -13  223.55   20.36   0
  -6   2 -11  593.42   25.37   0
  -4   1 -14 1274.03   30.48   0
  -5   3 -23   54.21   23.20   0
  -4   2 -21  489.24   23.62   0
  -3   5 -29   76.06   23.51   0
  -2   3 -26  319.33   24.28   0
  -4   3 -25  207.19   20.92   0
  -3   2 -23  178.04   22.56   0
  -3   4 -28  128.51   22.44   0
  -2   0 -11 3866.03   45.58   0
  -1   0 -13 2382.07   37.09   0
  -1   1 -20 1260.14   30.20   0
  -8   4 -15   69.73   22.40   0
  -5   2 -19  154.15   19.08   0
  -6   2 -14  686.46   26.01   0
  -6   3 -21  180.72   24.79   0
  -5   4 -27   38.83   22.19   0
  -3   1 -19  494.86   22.42   0
   0   2 -23  304.52   22.57   0
  -7   3 -16  344.51   22.39   0
  -6   4 -25  100.61   21.66   0
  -5   1  -6 2138.85   37.20   0
  -3   3 -27   59.29   22.56   0
  -5   1  -9 1334.01   30.62   0
  -4   1 -17  853.90   26.67   0
  -2   0 -14 2158.63   34.39   0
  -2   2 -25  268.51   23.16   0
  -4   4 -29   68.72   20.86   0
  -3   0  -9 1062.85   25.99   0
   0   0 -15  332.92   19.27   0
  -8   4 -18  115.65   23.28   0
  -7   4 -23   30.64   23.02   0
  -5   1 -12 1142.67   29.09   0
  -1   0 -16 3209.32   42.26   0
  -4   2 -24  400.40   24.82   0
  -5   3 -26  113.31   22.88   0
  -3   0 -12 3159.75   40.21   0
  -7   3 -19  109.89   21.03   0
  -5   2 -22  326.80   22.06   0
  -6   3 -24  154.29   23.27   0
  -3   1 -22  494.08   24.67   0
  -4   1 -20  721.68   27.18   0
  -2   0 -17  533.72   21.01   0
  -1   1 -23  160.27   17.52   0
   0   1 -22  637.11   24.58   0
  -2   3 -29  111.83   20.27   0
  -3   0 -15  970.72   25.17   0
   1   0 -14 2603.28   42.64   0
  -6   2 -20  321.00   23.80   0
  -2   1 -24  473.58   23.82   0
  -7   2  -9  229.81   20.04   0
  -1   2 -27  133.50   20.25   0
   0   0 -18 1117.54   27.77   0
  -8   3 -14  176.21   21.52   0
  -7   2 -12  621.35   25.52   0
  -3   3 -30  111.29   22.00   0
  -2   2 -28  118.41   20.59   0
  -5   2 -25  178.73   23.58   0
  -4   0 -10 2387.08   35.67   0
  -4   0  -7  630.38   22.71   0
  -4   2 -27   43.22   21.39   0
  -3   0 -18  946.16   27.36   0
  -7   2 -15  231.63   22.32   0
  -4   1 -23  113.56   22.55   0
  -2   0 -20 1199.91   27.36   0
  -5   3 -29   64.35   20.90   0
  -3   1 -25  239.59   22.35   0
  -8   3 -17  141.33   20.60   0
  -6   1 -10  805.90   25.94   0
  -6   3 -27    1.95   19.24   0
  -6   1 -13  357.00   22.26   0
  -6   1  -7  682.85   25.55   0
  -6   2 -23  112.23   21.71   0
  -3   2 -29   72.43   20.79   0
   1   0 -17 1674.82   34.57   0
  -5   1 -21  300.50   21.21   0
  -4   0 -16  780.65   26.08   0
  -1   1 -26  374.71   22.85   0
  -7   2 -18  175.65   21.49   0
  -4   0  -4 3092.84   43.52   0
  -1   0 -22  700.77   25.08   0
  -3   0 -21  394.69   23.28   0
  -2   1 -27  121.42   21.34   0
   0   0 -21 1117.44   28.18   0
   0   1 -25  317.47   21.28   0
  -8   3 -20  152.61   21.08   0
  -2   0 -23  337.58   21.68   0
  -1  -1 -12 3677.29   42.89   0
  -1  -1  -9 2530.97   37.48   0
  -5   2 -28   77.08   21.54   0
  -4   0 -19  189.79   21.07   0
  -4   1 -26  254.81   21.40   0
  -2  -1 -13 1041.52   26.33   0
  -2  -1 -10 2956.33   38.42   0
  -1  -1 -15 1159.97   27.24   0
  -7   2 -21   67.18   20.57   0
  -6   1 -19  154.72   21.49   0
  -5   1 -24  163.82   22.25   0
  -6   2 -26  121.45   19.92   0
  -5   0 -11  366.83   21.12   0
  -2   2 -31   53.97   19.56   0
  -5   0 -14 1019.36   26.93   0
  -2  -1 -16 2149.23   33.88   0
  -2  -1  -7 3367.26   42.94   0
   1   0 -20 1185.50   30.06   0
  -5   0  -8 1213.27   28.80   0
  -3   0 -24  432.41   23.77   0
  -4   0 -22  514.38   24.62   0
  -1  -1 -18 1514.63   29.12   0
  -1   0 -25  353.36   21.95   0
  -3  -1 -11  662.03   23.02   0
  -3   2 -32   69.43   20.04   0
   0  -1 -17 1625.76   30.89   0
   0   0 -24  617.26   23.91   0
  -3  -1 -14 1195.88   26.42   0
  -1   1 -29  141.10   18.92   0
  -2  -1 -19  480.03   20.73   0
  -2   1 -30  147.16   21.60   0
  -4   1 -29   81.20   21.46   0
  -3  -1 -17  831.10   26.18   0
  -5   0 -20  300.57   22.78   0
  -5   0  -5 1238.07   29.08   0
  -5   1 -27   44.91   20.97   0
  -7   1 -14  188.19   20.56   0
  -7   1 -11  182.96   19.16   0
  -4   0 -25  187.93   22.20   0
   0  -1 -20 1222.23   28.17   0
  -7   1 -17  223.33   21.19   0
  -3   0 -27   89.81   21.59   0
  -3   1 -31   50.97   19.47   0
  -2  -1 -22  516.92   23.85   0
  -6   1 -25   80.97   20.49   0
  -3  -1 -20  721.47   23.44   0
  -1   0 -28  259.47   21.72   0
   1  -1 -16 3037.85   41.77   0
  -5   0 -23  102.18   21.40   0
  -4  -1 -12 1158.72   26.27   0
  -7   1 -20  218.97   21.15   0
  -6   0 -12  887.13   26.65   0
  -3  -1  -5 2177.24   34.43   0
  -2   0 -29   97.28   20.35   0
   0   0 -27   53.92   19.06   0
  -6   0 -15  178.81   18.07   0
  -4  -1 -18  684.70   25.36   0
  -4  -1  -9 1342.55   28.72   0
  -1  -1 -24  470.85   22.94   0
  -3  -1 -23  124.07   20.70   0
   0  -1 -23  154.13   18.92   0
  -6   0 -18  151.32   21.41   0
  -6   0  -9  402.29   20.97   0
  -2  -1 -25  251.54   22.16   0
   1  -1 -19  406.74   19.82   0
  -4   0 -28   48.86   19.32   0
  -4  -1 -21  291.89   23.27   0
  -6   0 -21  180.74   21.17   0
  -5   0 -26  164.56   19.86   0
  -1  -2 -14 2497.20   34.52   0
  -4  -1  -6 2145.90   35.05   0
  -1  -2 -17  974.89   24.35   0
  -3  -1 -26  220.76   20.92   0
  -2  -2 -15  331.47   18.48   0
  -2  -2 -12 3538.02   41.24   0
  -1  -2 -11  926.47   23.34   0
  -1  -1 -27   97.07   20.07   0
   1  -1 -22  714.80   24.08   0
  -5  -1 -16  566.15   24.93   0
  -5  -1 -13  351.97   21.37   0
  -4  -1 -24  159.60   21.49   0
  -2  -2 -18  527.61   23.52   0
  -1   0 -31   27.95   17.86   0
   0  -2 -16 1229.99   27.33   0
  -2   0 -32   88.62   21.53   0
  -1  -2 -20  738.47   24.59   0
   0  -2 -13 2455.39   34.65   0
   0  -1 -26  391.03   21.82   0
  -5  -1 -10  807.34   25.30   0
  -2  -2 -21  546.37   23.56   0
  -2  -2  -9 2037.35   32.96   0
  -3  -2 -16 1075.50   26.22   0
  -3  -2 -13 1057.34   26.83   0
  -3  -2 -19  139.85   19.11   0
  -3  -1  -2 2609.17   40.64   0
  -1  -2  -8 4278.53   45.12   0
   0  -2 -10 6951.68   57.32   0
  -7   0 -16  285.17   20.19   0
  -4  -1 -27   48.59   18.94   0
  -3  -1 -29   82.55   18.93   0
   0  -2 -22  979.66   26.68   0
  -2  -2 -24  374.99   23.58   0
   1  -1 -25  337.63   20.20   0
  -7   0 -19   23.78   18.83   0
  -5  -1  -7  641.42   22.76   0
  -3  -2 -22  287.31   20.32   0
  -1  -1 -30  160.07   20.63   0
   1  -2 -15 1010.85   25.43   0
  -5  -1 -25   81.46   20.33   0
   0  -1 -29  172.00   22.05   0
   1  -2 -18 1527.83   30.25   0
  -4  -1  -3  669.00   22.91   0
  -2  -1 -31   38.20   19.87   0
  -4  -2 -14  651.70   22.34   0
  -1  -2 -26  346.48   23.22   0
  -6  -1 -17  204.40   19.85   0
  -4  -2 -20  333.66   22.66   0
  -3  -2 -25  212.03   22.05   0
   0  -2 -25  268.20   20.25   0
   1  -2 -21  510.57   21.81   0
  -6  -1 -14  198.14   20.27   0
  -4  -2 -11  576.88   22.92   0
  -3  -2  -7  692.97   22.64   0
  -2  -2 -27   18.22   19.87   0
   0  -2  -7  732.82   22.16   0
  -6  -1 -20  236.35   22.04   0
  -4  -2 -23  118.01   21.32   0
  -6  -1 -11  177.80   19.39   0
  -1  -2  -5 4300.99   46.99   0
  -1  -3 -16 1506.84   30.28   0
  -1  -3 -19  258.30   20.84   0
  -1  -2 -29   86.72   21.68   0
   1  -2 -24  429.43   21.38   0
  -3  -2 -28   93.40   18.93   0
  -2  -3 -17  666.78   22.62   0
  -1  -3 -13 1181.63   27.10   0
  -1  -1 -33   29.55   17.12   0
   0  -2 -28   93.95   20.01   0
  -4  -2 -26  161.39   21.00   0
  -4  -2  -8 1255.96   27.38   0
  -2  -3 -20  607.57   24.98   0
  -2  -3 -14  684.83   22.15   0
   0  -3 -18 1305.50   27.02   0
   0  -3 -15  549.23   22.00   0
  -5  -2 -18  200.36   22.76   0
  -5  -2 -15  226.44   20.63   0
  -1  -3 -22  377.81   20.46   0
  -5  -2 -21   81.75   20.38   0
  -2  -3 -23   50.74   21.05   0
  -2  -3 -11  494.39   21.57   0
   0  -3 -12 2124.07   33.06   0
  -5  -2 -12  597.55   23.98   0
  -3  -3 -18  411.57   21.03   0
  -1  -3 -10 1751.81   29.64   0
  -3  -3 -21  210.25   21.79   0
   1  -2 -27  104.27   18.35   0
  -3  -2  -4 4263.14   46.77   0
   0  -3 -24  268.82   18.87   0
   2  -2 -17  503.10   20.51   0
  -2  -3 -26  197.77   22.18   0
  -2  -2  -3 1642.26   30.43   0
   1  -3 -20  746.08   24.55   0
   1  -3 -17  958.67   24.11   0
   2  -2 -20 1173.29   28.66   0
  -3  -3 -24  152.11   21.46   0
  -1  -2 -32   59.50   19.38   0
   0  -2 -31   47.70   19.25   0
   2  -2 -14 1974.86   34.95   0
  -4  -2  -5  560.98   22.09   0
   0  -3  -9 2699.89   36.94   0
  -4  -3 -16  393.20   23.35   0
  -1  -3 -28  120.49   19.41   0
   0  -3 -27   57.07   19.28   0
   1  -3 -23  140.99   16.56   0
  -3  -3  -9  694.78   23.74   0
  -2  -3 -29   40.11   21.30   0
  -1  -3  -7 1296.01   26.50   0
  -6  -2 -16  192.27   20.83   0
  -4  -3 -13  220.93   21.01   0
   1  -3 -11  932.85   24.78   0
  -1  -4 -18  476.42   23.44   0
   1  -3 -26  305.42   22.07   0
  -1  -4 -21  227.86   22.30   0
  -1  -4 -15  498.48   23.33   0
   2  -2 -11 3608.28   47.45   0
  -2  -4 -19   95.07   21.01   0
   0  -4 -20  602.71   22.67   0
   0  -4 -17  440.97   20.44   0
   0  -3 -30  138.36   20.92   0
  -4  -3 -10  636.65   24.40   0
  -2  -4 -16  529.92   22.06   0
  -2  -4 -22  255.12   21.27   0
  -1  -4 -24  255.66   21.75   0
   0  -4 -14 1124.17   25.76   0
   2  -3 -19  506.41   21.60   0
  -1  -4 -12 1539.54   31.03   0
   2  -3 -16 2057.99   34.57   0
  -5  -3 -20  171.84   21.04   0
  -5  -3 -17  151.88   20.84   0
  -2  -4 -13  614.82   22.44   0
  -2  -3  -5 1451.55   28.33   0
   0  -3  -6 5494.14   51.05   0
   2  -3 -22  457.27   21.82   0
  -3  -3  -6 1264.62   27.13   0
  -2  -4 -25  101.19   20.10   0
   1  -3 -29  112.16   19.37   0
  -5  -3 -14  206.00   20.46   0
   0  -4 -26  159.10   22.07   0
   1  -4 -22  383.29   22.04   0
   1  -3  -8 4384.90   47.31   0
  -3  -4 -23   65.98   20.51   0
   0  -4 -11 1287.86   26.87   0
   2  -3 -13 1003.97   26.03   0
  -3  -4 -14  505.61   22.37   0
  -3  -2  -1 1574.64   32.70   0
  -1  -3  -4 5486.00   51.62   0
   1  -4 -25  214.43   22.01   0
  -4  -3  -7  573.94   23.42   0
  -1  -4  -9  682.07   22.14   0
  -5  -3 -11  154.43   20.19   0
  -3  -4 -11  208.55   21.08   0
   0  -4 -29   42.72   20.42   0
  -4  -4 -18  154.82   22.22   0
  -2  -2   0 8620.25   72.91   0
  -4  -4 -15  107.38   19.75   0
   0  -4  -8 2957.14   39.01   0
   1  -4 -28  155.05   20.45   0
   2  -4 -21  514.48   23.61   0
   2  -4 -18  614.87   23.65   0
  -1  -5 -20  286.16   24.72   0
  -1  -5 -17  301.86   23.60   0
   1  -4 -10 1822.27   32.18   0
  -1  -5 -23   46.05   20.95   0
   0  -5 -22  250.90   23.59   0
   2  -3 -10 2701.46   38.44   0
  -2  -4  -7  469.71   20.46   0
   2  -4 -24  371.69   22.77   0
   2  -4 -15  325.35   18.22   0
  -4  -4 -12  419.20   24.16   0
  -3  -3  -3  830.58   25.28   0
  -2  -5 -21  176.18   21.85   0
  -2  -5 -18  301.28   24.40   0
  -1  -5 -14  622.74   25.92   0
  -3  -4  -8  698.42   24.87   0
  -1  -5 -26  157.02   22.11   0
  -1  -4  -6 1728.80   30.72   0
   1  -5 -18  471.93   24.32   0
  -2  -5 -15  115.98   18.79   0
  -2  -3  -2 1373.94   29.97   0
   0  -5 -13  344.53   20.14   0
   0  -3  -3 1115.49   26.37   0
   4  -1  -4 5867.21   54.66   0
   8  -2   4  644.32   26.11   0
   9  -4   1  232.32   23.73   0
   5  -3  -7  664.79   23.61   0
   8  -1  15   31.78   20.23   0
  10  -6   1   99.27   21.94   0
   8  -3  -1  357.68   24.70   0
   9  -6  -3   76.81   20.23   0
  10  -5   3   91.55   22.76   0
   6  -2  -4 1589.45   30.31   0
   8  -5  -5  296.90   22.73   0
   8  -1  12  252.74   23.93   0
   3  -1  -5 4379.18   49.59   0
   7   0  13  286.50   23.01   0
   9  -3   3   75.48   21.88   0
   9  -2  11   44.54   21.49   0
   4  -3  -8 3926.97   48.41   0
   4   1   3  747.77   24.34   0
   5   1   7  703.69   23.56   0
   7  -1   2  403.78   24.52   0
   8  -1   9  250.72   22.50   0
   4   0  -2 3475.38   42.87   0
   6  -4  -8 1280.81   29.98   0
   7  -3  -5  627.94   23.62   0
   7   0  10  183.23   21.94   0
   3  -2  -7 3187.02   45.04   0
   6  -1  -2 1319.15   28.69   0
   8  -2   1  315.32   24.19   0
   9  -2   8  172.40   22.29   0
   3   0  -3 1163.03   26.90   0
   7  -4  -7  558.84   24.91   0
   7  -2  -3  237.52   22.25   0
   9  -4  -2  127.49   22.28   0
   5   0  -1  623.36   21.98   0
   8  -6  -7  128.18   19.68   0
   8  -1   6  237.77   23.16   0
   9  -5  -4  578.08   25.13   0
   7   0   7  161.04   21.34   0
   3   2   7  677.50   25.24   0
   9  -3   0  455.05   25.80   0
  10  -4   2  132.35   23.44   0
   5   1   4 1525.93   31.91   0
   8  -4  -6  342.90   23.70   0
   8  -3  -4  684.50   25.10   0
   7  -1  -1  564.54   23.02   0
   9  -6  -6  181.93   20.84   0
   6   0   0 1571.70   32.18   0
   7  -5  -9  227.40   19.93   0
   6  -2  -7  458.35   23.18   0
   6   1   8  984.58   28.58   0
   7   0   4  999.15   28.98   0
   8  -2  -2  310.05   21.71   0
   5  -1  -6 1794.12   31.24   0
   3   1  -1 1826.73   32.20   0
   4   2   8 1329.75   30.71   0
   9  -2   2  192.81   22.83   0
  10  -5  -3   86.94   20.42   0
   4  -1  -7 1414.38   29.81   0
   6  -1  -5  818.07   25.94   0
  10  -4  -1   95.26   21.25   0
   7  -2  -6  810.09   26.77   0
   6   1   5  315.36   22.44   0
   9  -3  -3  241.58   22.33   0
   3   2   4 4546.51   51.24   0
   4  -2  -9 1967.48   34.19   0
   4   0  -5  819.49   24.73   0
   5  -3 -10  993.57   27.01   0
   5   0  -4 1887.70   33.33   0
   5   1   1  583.50   21.82   0
   9  -5  -7   70.76   20.91   0
   8  -1   0  542.36   25.84   0
   8  -3  -7  216.06   23.00   0
   8   0   8  235.21   24.16   0
   4   2   5  630.07   23.45   0
   7  -4 -10  609.35   22.85   0
   7  -1  -4 1060.72   27.47   0
   2   1  -2 6833.44   62.65   0
   2   2   3 1708.48   34.51   0
   6   0  -3  426.81   22.62   0
   8  -2  -5  273.99   24.38   0
   9  -2  -1   78.05   21.25   0
   6  -4 -11  520.95   22.94   0
   8  -4  -9  238.01   19.68   0
   3  -1  -8 4339.25   47.94   0
   3   0  -6 5727.07   53.11   0
   6   1   2  411.92   20.61   0
   8   0   5  198.10   21.79   0
   9  -1   4  160.06   22.80   0
   4   1  -3 1674.09   29.90   0
   9  -3  -6  162.52   22.82   0
   5   2   6  685.73   26.06   0
   8  -1  -3  243.56   23.25   0
   9  -4  -8  396.19   24.80   0
   6  -1  -8 1115.75   28.31   0
   7   0  -2  261.54   20.06   0
   7   1   6  264.29   21.01   0
   3   2   1 1613.09   31.46   0
   4  -3 -11  620.15   22.57   0
   4   2   2 1676.42   32.31   0
   5  -1  -9  683.96   22.27   0
   7  -2  -9  566.35   25.27   0
   8  -5 -11  152.65   20.72   0
   3   1  -4 5745.43   52.38   0
   8   0   2  257.98   21.55   0
   5  -2 -11  490.18   21.85   0
   7  -3 -11  250.07   20.45   0
   7  -1  -7  200.66   21.27   0
   5   0  -7 1175.50   26.71   0
   6   1  -1  511.31   23.31   0
   9  -5 -10  116.32   21.13   0
   3  -2 -10 2737.45   40.90   0
   6  -3 -12  928.92   26.88   0
   6   0  -6  686.31   25.75   0
   8  -3 -10  285.75   22.74   0
   8  -2  -8  513.22   25.68   0
   5   2   3  758.30   25.22   0
   4  -1 -10 1691.01   30.21   0
   4   0  -8 2843.96   37.33   0
   2   2   0 8906.68   69.34   0
   8  -1  -6  254.04   22.84   0
   9  -1  -2  219.19   21.83   0
   7  -4 -13  172.58   19.99   0
   7   0  -5  327.78   20.92   0
   8  -4 -12  408.72   23.98   0
   4   2  -1 1160.48   27.70   0
   5   1  -5  784.59   23.87   0
   2   0  -7  729.27   23.73   0
   4   1  -6 1677.87   29.86   0
   5  -3 -13  980.40   26.94   0
   7   1   0  564.75   25.70   0
   9  -2  -7  185.39   21.56   0
   4  -2 -12 3343.86   42.44   0
   9  -4 -11   70.28   20.69   0
   2   1  -5 4557.62   49.17   0
   3   2  -2 1357.96   27.61   0
   5   2   0 1023.18   26.08   0
   6   2   4  645.84   25.31   0
   6  -1 -11  307.82   22.05   0
   3   0  -9 2757.17   38.03   0
   7  -1 -10  333.20   23.47   0
   6  -2 -13  613.19   24.18   0
   6   0  -9  534.53   24.67   0
   8   0  -4  355.63   23.85   0
   8   1   4  166.62   20.38   0
   9  -1  -5  102.32   21.78   0
   5  -1 -12 1522.34   30.73   0
   8  -2 -11  120.17   20.93   0
   3   1  -7 1322.56   27.10   0
   6   2   1  310.43   22.29   0
   7  -3 -14  484.25   24.34   0
   7   1  -3  250.67   20.98   0
   8  -3 -13  245.94   21.94   0
   8  -1  -9  180.91   22.09   0
   5   2  -3  220.30   20.53   0
   8   1   1  102.31   19.33   0
   3   3   3  774.46   25.65   0
   5  -2 -14  606.35   23.38   0
   5   1  -8 1076.44   26.10   0
   9  -3 -12  241.93   21.40   0
   9  -2 -10  180.39   21.07   0
   4   0 -11 1251.03   26.71   0
   4   3   4  895.70   26.38   0
   6  -3 -15  213.58   19.86   0
   6   1  -7  199.67   21.30   0
   3   2  -5 1414.30   29.05   0
   4   1  -9  692.42   21.88   0
   6   2  -2  322.88   22.91   0
   8   0  -7  137.71   21.88   0
   8  -4 -15   91.36   19.58   0
   7   2   2  191.14   22.24   0
   8   1  -2  238.34   20.62   0
   9  -4 -14   89.01   19.97   0
   4   3   1  375.48   20.72   0
   7  -1 -13  348.30   23.10   0
   6   0 -12  750.15   26.84   0
   7  -4 -16  306.19   21.13   0
   2   3   2 1371.82   30.15   0
   3   3   0 2033.22   34.48   0
   7  -2 -15   79.68   20.87   0
   7   0 -11  109.35   19.18   0
   8  -1 -12  327.23   24.38   0
   2   1  -8 4478.65   47.08   0
   4   2  -7  468.99   21.87   0
   5   3   2  368.63   21.61   0
   3   1 -10 1784.41   31.59   0
   6  -2 -16  496.60   23.18   0
   6   2  -5  246.67   21.93   0
   7   2  -1   56.95   20.12   0
   3   0 -12 2096.68   33.54   0
   5   1 -11  331.80   21.13   0
   6   1 -10  356.08   20.80   0
   8  -3 -16  192.61   21.79   0
   8   1  -5   80.64   21.00   0
   2   0 -10 7087.72   58.92   0
   4  -2 -15  323.56   19.17   0
   4   3  -2 1098.86   27.67   0
   8   0 -10  140.22   21.62   0
   7  -3 -17  235.63   23.28   0
   2   2  -6 1570.95   28.83   0
   5   3  -1  340.50   21.57   0
   7   1  -9  174.55   20.38   0
   2   3  -1 1622.09   31.14   0
   3   2  -8 3440.82   41.03   0
   3   3  -3  817.00   24.44   0
   4   0 -14 1112.67   25.65   0
   4   1 -12 1557.94   29.17   0
   7   2  -4  261.21   21.42   0
   5   2  -9  564.85   22.04   0
   3  -1 -14 2350.59   35.79   0
   5  -2 -17  597.44   21.75   0
   4   2 -10 1069.73   27.64   0
   4   3  -5  651.47   23.96   0
   6  -3 -18  391.43   21.26   0
   6   3   0  380.12   22.02   0
   7   0 -14  186.82   19.78   0
   8  -1 -15   96.12   19.87   0
   1   2  -4 7154.85   62.11   0
   4  -1 -16 1388.29   29.35   0
   5   3  -4  666.14   25.62   0
   6  -1 -17  319.92   21.94   0
   6   1 -13  302.12   23.03   0
   8  -2 -17  114.58   21.03   0
   7  -2 -18  288.58   21.93   0
   8   0 -13   80.24   18.53   0
   2   3  -4 4470.55   46.99   0
   5   0 -16  671.92   23.31   0
   5   1 -14  623.46   24.81   0
   7   1 -12  335.01   23.30   0
   7   2  -7  133.37   19.29   0
   3   3  -6 1323.68   27.32   0
   6   3  -3  229.30   20.36   0
   2   1 -11  937.36   24.96   0
   3   1 -13 1182.09   25.57   0
   2   2  -9 2148.40   33.17   0
   3   2 -11  500.39   21.81   0
   5  -1 -18  447.94   22.63   0
   5   2 -12  433.30   23.78   0
   5   3  -7  219.43   20.89   0
   6  -2 -19  100.80   19.52   0
   6   2 -11  111.06   21.63   0
   8  -3 -19   50.28   17.44   0
   4   1 -15  451.96   20.47   0
   6   3  -6  190.69   20.70   0
   4   2 -13  620.94   24.04   0
   7  -3 -20  145.79   18.60   0
   7   0 -17  145.81   21.22   0
   1   3  -2 2722.01   39.44   0
   6   0 -18  231.72   22.95   0
   7  -1 -19   51.50   20.24   0
   3   4  -1  380.19   20.38   0
   4  -2 -18  569.95   22.09   0
   1   1  -9 2651.81   38.11   0
   1   2  -7 3425.71   41.09   0
   7   1 -15  100.14   21.13   0
   2   4   1 1050.96   27.40   0
   4   4  -3  291.05   20.42   0
   5   1 -17  299.04   23.30   0
   6  -1 -20  221.87   20.91   0
   4   3 -11  242.64   20.95   0
   5  -2 -20  558.96   23.13   0
   3  -1 -17  953.34   25.80   0
   3   4  -4  898.52   26.06   0
   5   2 -15   89.83   21.54   0
   6   2 -14  152.42   20.56   0
   6   3  -9  122.52   21.09   0
   7  -2 -21  133.97   20.65   0
   2   2 -12 3499.06   40.83   0
   3   1 -16 1456.72   29.58   0
   3   2 -14  670.91   22.48   0
   4  -1 -19  228.44   19.05   0
   2   4  -2 1606.20   31.29   0
   2   1 -14 2405.09   34.21   0
   4   4  -6  364.94   22.35   0
   4   1 -18  500.03   23.53   0
   5   4  -5  171.55   22.07   0
   2   3 -10 1030.74   24.68   0
   3   3 -12 1047.68   27.25   0
   4   2 -16  488.42   21.48   0
   3   4  -7  578.11   23.52   0
   5  -1 -21  209.84   20.81   0
   2  -1 -15 1047.94   26.35   0
   2   4  -5  629.42   22.32   0
   3   0 -18 1295.33   28.45   0
   5   3 -13  174.95   22.23   0
   6  -2 -22  232.24   20.73   0
   6   1 -19   64.13   21.39   0
   1   2 -10 3002.90   37.76   0
   6   3 -12  229.89   21.10   0
   4   0 -20  596.65   21.85   0
   4   3 -14  539.68   23.56   0
   6   0 -21  142.47   19.28   0
   2  -2 -14 1990.34   38.47   0
   4   4  -9  273.29   21.17   0
   5   4  -8  455.08   23.52   0
   6   2 -17  144.20   21.11   0
   7  -1 -22   93.51   19.63   0
   1   3  -8 4206.17   44.89   0
   5   1 -20  285.56   22.37   0
   1   1 -12 3716.38   42.46   0
   5   2 -18  282.46   23.57   0
   3   2 -17  663.52   24.50   0
   3   4 -10  648.09   24.77   0
   2   2 -15  348.94   18.58   0
   2   4  -8 1307.76   27.33   0
   5   0 -22  208.42   22.04   0
   6  -1 -23   29.52   18.58   0
   2   3 -13 1083.84   27.23   0
   3   1 -19  251.02   20.32   0
   3   3 -15  286.14   20.83   0
   1   4  -3  665.02   21.27   0
   4  -2 -21  460.72   21.67   0
   2   1 -17  979.89   25.43   0
   4   2 -19  121.53   19.26   0
   4   4 -12  425.11   24.09   0
   5   4 -11   95.30   19.48   0
   3  -2 -19  454.00   21.73   0
   3  -1 -20  696.77   24.06   0
   4  -1 -22  335.04   21.42   0
   4   3 -17  191.42   22.94   0
   1   2 -13 1034.85   24.41   0
   1   3 -11  659.83   22.16   0
   1   4  -6 2159.11   34.50   0
   6   1 -22  120.86   21.54   0
   3   5  -5  245.46   20.52   0
   3   0 -21  475.96   22.34   0
   5  -1 -24  202.83   20.34   0
   6   0 -24  100.12   20.96   0
   4   0 -23  189.13   20.63   0
   5   2 -21  127.14   21.88   0
   2   3 -16 1101.67   27.87   0
   2   5  -3  703.62   24.27   0
   4   5  -7   72.63   19.54   0
   5   4 -14   83.14   19.41   0
   1   1 -15 1126.02   25.66   0
   2   2 -18  591.34   22.01   0
   3   3 -18  438.03   21.75   0
   3   5  -8  620.95   25.06   0
   0   2  -8 6522.05   57.26   0
   2  -1 -18 1467.84   30.96   0
   2   0 -19  384.40   20.30   0
   2   5  -6  616.70   23.93   0
   5   3 -19   63.39   20.98   0
   0   3  -6 4233.78   47.01   0
   2   4 -14  700.20   24.90   0
   4   2 -22  244.97   22.66   0
   3   1 -22  364.52   20.25   0
   3   4 -16  394.76   23.65   0
   4   3 -20  196.22   21.90   0
   4   5 -10  116.40   20.98   0
   5   0 -25   91.76   19.93   0
   1   2 -16 2166.41   34.75   0
   2   5  -9  271.57   20.99   0
   3   5 -11  166.68   20.15   0
   4   1 -24  239.00   22.95   0
   1   4 -12 1166.80   28.54   0
   0   3  -9 1081.63   25.07   0
   0   1 -10 3202.84   42.04   0
   1   5  -4 1420.71   30.51   0
   4   4 -18  130.89   21.53   0
   0   2 -11 3834.58   43.27   0
   2   3 -19  152.92   18.25   0
   4  -1 -25  180.01   22.34   0
   4   5 -13  143.01   21.04   0
   0   4  -4 3136.12   41.86   0
   1   5  -7  691.08   23.71   0
   3  -1 -23  154.35   18.59   0
   3   3 -21  209.00   19.92   0
   7  -1 -10  317.04   21.45   0
   7   2  -7  138.14   20.80   0
   4   2 -10 1021.06   26.69   0
   7   1  -9  179.01   20.99   0
   3   1 -10 1740.10   30.81   0
   3   4  -7  586.81   21.93   0
   3   6   0  443.55   23.44   0
   3   3  -9  692.89   23.39   0
   4  -1 -10 1664.75   31.37   0
   6  -1 -11  296.23   19.93   0
   4   6   1   58.57   18.01   0
   2   2  -9 2106.27   33.15   0
   2   6  -1  322.29   21.72   0
   4   0 -11 1114.45   25.42   0
   1   2  -7 3381.66   40.79   0
   1   5  -4 1430.07   28.17   0
   7   0 -11  106.37   19.38   0
   0   5  -2 2164.62   35.24   0
   4  -2  -9 1960.78   36.16   0
   6   0 -12  670.15   22.81   0
   0   4  -4 3144.70   40.63   0
   2   4  -8 1307.28   27.26   0
   3   2 -11  524.12   20.01   0
   5   3 -10  313.92   21.62   0
   6   3  -9  115.68   20.01   0
   8   0 -10  161.87   20.54   0
   4   4  -9  256.22   22.91   0
   5   4  -8  433.97   23.06   0
   6   2 -11  125.21   20.70   0
   3   6  -3   78.78   18.77   0
   4   3 -11  234.05   20.45   0
   5  -1 -12 1483.48   30.39   0
   5   2 -12  418.96   23.45   0
   0   6   0 1415.12   31.74   0
   1   3  -8 4062.31   43.90   0
   2   3 -10 1103.14   26.80   0
   5   0 -13  329.26   20.22   0
   2   6  -4  606.78   25.08   0
   3   4 -10  643.64   22.88   0
   6   1 -13  304.57   22.33   0
   7   1 -12  271.67   21.38   0
   4   2 -13  596.93   22.30   0
   3   3 -12  915.03   26.55   0
   7  -1 -13  310.59   21.20   0
   0   3  -6 4173.30   45.63   0
   1   5  -7  689.78   24.11   0
   5   1 -14  586.58   24.32   0
   2   1 -11  918.76   23.08   0
   3   6  -6  226.81   20.96   0
   0   5  -5 1329.90   28.68   0
   1   4  -9 1293.95   26.64   0
   1   6  -5  314.39   20.81   0
   3   1 -13 1075.78   25.04   0
   5   3 -13  251.95   21.93   0
   5   4 -11  125.66   20.86   0
   6  -1 -14  535.78   23.19   0
   6   3 -12  254.65   21.92   0
   2   2 -12 3559.82   41.64   0
   2   4 -11  590.20   24.05   0
   4   4 -12  439.52   24.94   0
   7   0 -14  143.21   20.53   0
   0   6  -3  612.78   22.76   0
   8   0 -13   86.61   18.03   0
  -1   4  -2 2663.88   41.18   0
   2   6  -7  158.19   19.99   0
   4   0 -14 1019.09   24.83   0
   4   5 -10  147.31   20.81   0
   6   0 -15  132.93   20.14   0
   1   2 -10 2980.10   37.59   0
   3  -1 -11  883.88   24.64   0
   3   2 -14  631.38   23.83   0
   4   3 -14  491.72   24.42   0
   1   1  -9 2592.04   37.87   0
   4  -1 -13 1057.13   26.59   0
   5   2 -15   84.87   17.37   0
   3   5 -11  175.72   20.68   0
   2   3 -13 1074.54   27.38   0
   3   4 -13  215.80   19.07   0
   1   3 -11  672.25   21.22   0
   7   1 -15   65.69   19.05   0
   3   6  -9  225.07   22.27   0
   5  -1 -15  411.09   21.13   0
   5   0 -16  675.19   24.47   0
  -1   5  -3  681.70   22.98   0
   1   6  -8  919.44   27.31   0
   2   7  -5  192.04   19.30   0
   3   3 -15  261.04   21.78   0
   4   2 -16  464.01   21.34   0
   5   4 -14  112.58   21.37   0
   0   5  -8 1258.18   28.45   0
   0   6  -6  538.45   22.69   0
   2   6 -10  257.06   22.25   0
   5   1 -17  263.92   22.67   0
   5   3 -16  203.42   21.81   0
   0   3  -9 1055.91   25.96   0
   1   4 -12 1120.50   26.25   0
   4  -2 -12 3295.78   46.35   0
   4   4 -15   90.04   18.92   0
   4   5 -13  158.92   21.13   0
   2   4 -14  650.01   22.73   0
   0   2  -8 6437.76   57.02   0
   1   7  -6  230.89   21.13   0
   6   2 -17  119.13   20.27   0
   7   0 -17  126.48   20.41   0
  -1   4  -5 2257.66   35.36   0
   2   1 -14 2358.93   34.31   0
   2   2 -15  336.80   18.44   0
   3   5 -14  225.22   20.73   0
   2   7  -8  158.38   20.23   0
   3   0 -15  558.49   21.46   0
   3   4 -16  387.75   24.55   0
   6  -1 -17  270.47   20.55   0
   3   2 -17  593.82   22.34   0
   3   6 -12  182.98   21.91   0
   6   0 -18  246.67   20.09   0
  -1   6  -4 1380.86   31.29   0
   4   0 -17  379.09   21.02   0
   1   6 -11  208.43   20.72   0
   2   3 -16 1036.38   25.88   0
   4   1 -18  417.40   20.62   0
  -1   5  -6 2158.61   35.46   0
   1   3 -14 1190.35   26.60   0
   0   6  -9  362.00   20.16   0
   6   1 -19   35.67   19.32   0
   0   5 -11  380.80   20.55   0
   1   1 -12 3859.95   44.06   0
   2   5 -15  197.49   19.33   0
   2   6 -13  233.32   22.45   0
   3   3 -18  386.57   24.04   0
   1   7  -9  258.80   20.40   0
   4  -1 -16 1396.69   30.30   0
   0   7  -7  164.69   19.85   0
   5   0 -19  260.44   20.79   0
   5   3 -19   44.00   20.67   0
   1   4 -15  243.18   18.50   0
   3  -1 -14 2363.71   36.25   0
   2   4 -17  254.48   19.47   0
   2   7 -11   39.85   19.59   0
   5   1 -20  258.69   22.26   0
   0   3 -12 3038.42   38.13   0
   3   5 -17  161.89   21.14   0
   5  -1 -18  449.83   21.85   0
  -1   4  -8 4068.56   45.75   0
  -1   6  -7  653.21   23.86   0
   0   4 -13 1256.38   28.68   0
   4   3 -20  174.88   21.43   0
   0   2 -11 3917.42   43.43   0
   1   6 -14  171.50   21.76   0
   3   4 -19  137.99   21.71   0
   2   2 -18  564.04   23.83   0
   5   2 -21  145.51   21.84   0
  -1   5  -9 1323.18   27.65   0
   0   6 -12  931.54   27.35   0
   1   5 -16  565.18   24.87   0
   1   7 -12  253.10   21.43   0
   3   2 -20  578.97   22.75   0
   0   7 -10  218.93   20.87   0
   1   2 -16 2149.85   34.17   0
   2   3 -19  148.99   18.08   0
   2   5 -18  190.27   22.91   0
   1   3 -17  853.31   24.16   0
   3   0 -18 1287.67   27.76   0
   4   1 -21  233.60   22.13   0
   6   0 -21  130.75   20.37   0
   4  -2 -15  321.94   18.41   0
   4   0 -20  561.46   23.50   0
   2  -1 -12 3577.29   46.42   0
   3   3 -21  195.22   22.98   0
   1   4 -18  683.86   25.27   0
   6   1 -22   88.91   20.20   0
  -1   6 -10  779.91   24.06   0
   1   1 -15 1138.41   26.81   0
   2   0 -16 1240.79   27.89   0
   2   4 -20  298.42   23.34   0
  -1   7  -8  897.81   27.35   0
   3   5 -20  139.47   21.12   0
   0   3 -15  960.70   24.36   0
   0   1 -10 3430.59   42.95   0
   0   4 -16  793.17   23.68   0
   1   6 -17  193.13   21.21   0
   4  -1 -19  240.32   19.26   0
   5   0 -22  218.28   20.64   0
  -1   3 -10 2959.14   39.42   0
  -1   5 -12 1122.67   26.14   0
   0   6 -15  150.88   21.14   0
   0   7 -13  281.81   22.68   0
   1   7 -15   41.94   19.91   0
   5   1 -23   75.10   19.34   0
   3  -1 -17  973.72   26.68   0
   3   4 -22  165.51   22.96   0
   0   2 -14 2186.44   33.24   0
   1   5 -19  142.68   18.90   0
   0   5 -17  380.81   23.29   0
   2   2 -21  515.66   23.83   0
   5  -1 -21  204.29   20.11   0
  -2   6  -5  538.19   22.96   0
   2   5 -21  124.33   22.04   0
   3  -2 -13  939.92   27.20   0
  -1   6 -13  338.20   21.92   0
   1   3 -20  629.07   25.50   0
   2   3 -22  292.85   24.17   0
   3   1 -22  354.95   20.53   0
  -1   7 -11  194.13   20.46   0
   1   2 -19  517.93   23.08   0
   1   4 -21  285.37   23.20   0
   3   3 -24  124.71   21.30   0
   4   1 -24  215.50   22.34   0
  -2   5  -7  679.23   23.64   0
  -1   4 -14 1217.73   26.81   0
   3   0 -21  414.24   20.36   0
   0   7 -16  295.75   23.50   0
   2   4 -23   95.82   20.76   0
   4   0 -23  126.14   20.43   0
   4   2 -25  113.13   21.96   0
  -2   6  -8 1268.37   29.71   0
   0   3 -18  907.69   24.85   0
   0   4 -19  189.38   20.28   0
   0   6 -18  200.53   22.42   0
   1   1 -18 1623.49   30.87   0
  -1   2  -9 2598.39   37.90   0
  -1   3 -13  980.79   24.55   0
   2  -1 -15 1142.82   27.66   0
   2   0 -19  410.27   20.95   0
  -2   4  -6 1605.59   32.48   0
   0   1 -13 2469.94   35.94   0
  -1   7 -14  164.12   21.06   0
   1   5 -22  177.29   22.22   0
  -1   6 -16  520.96   25.14   0
   0   2 -17  525.36   20.26   0
   0   5 -20  267.51   22.64   0
  -2   5 -10 1059.65   27.41   0
   5   0 -25   75.89   21.12   0
   4  -1 -22  353.37   21.47   0
  -2   6 -11  549.01   22.68   0
  -2   4  -9 2138.73   35.19   0
  -1   4 -17  810.19   25.65   0
   1   3 -23  109.48   18.42   0
   2   3 -25  183.79   23.53   0
   3  -1 -20  707.68   24.87   0
   1   2 -22  513.67   21.93   0
   2   1 -23  150.88   19.91   0
   3   1 -25  189.38   21.45   0
   3   2 -26  154.70   22.16   0
  -1   2 -12 3862.43   44.81   0
   0   7 -19   15.46   19.01   0
   1   4 -24  151.75   22.64   0
  -1   3 -16 2137.01   34.39   0
   0   3 -21  359.19   22.90   0
   0   4 -22  508.60   24.88   0
   1   0 -17 1658.90   31.93   0
   2   4 -26  134.80   21.88   0
   3  -2 -16 1957.80   36.86   0
  -2   5 -13 1029.09   25.92   0
  -2   7 -12  633.83   26.11   0
  -1   7 -17  190.28   22.47   0
   4   1 -27   37.91   22.15   0
  -1   6 -19  127.54   22.26   0
   0   1 -16 3215.70   40.06   0
   3   0 -24  235.37   21.49   0
  -2   6 -14  652.56   25.05   0
   0   2 -20 1268.73   28.20   0
   0   5 -23  112.05   19.82   0
   1   5 -25   75.28   19.85   0
   2   0 -22  973.37   28.14   0
   4   0 -26  172.67   20.36   0
   2  -1 -18 1438.70   29.89   0
  -1   4 -20  678.26   24.02   0
  -1   2 -15 1124.21   25.85   0
  -1   5 -21  284.88   23.13   0
  -2   5 -16 1057.46   26.64   0
  -2   7 -15  221.59   21.52   0
  -1   3 -19  488.16   23.66   0
   1   3 -26  210.00   21.39   0
   2   2 -27   44.37   21.14   0
  -1   7 -20  199.66   23.18   0
   1   2 -25  203.43   23.73   0
  -2   6 -17  231.50   21.99   0
   0   0 -12 9757.05   72.79   0
   1   4 -27   54.46   21.03   0
   2   1 -26  316.10   23.95   0
  -2   3 -11  940.37   25.91   0
   0   3 -24  399.46   25.40   0
   0   4 -25  175.61   23.27   0
   1  -1 -13 2280.38   38.26   0
   3  -1 -23  152.49   19.12   0
   3   1 -28  128.89   22.31   0
   3   2 -29   70.01   19.84   0
  -1   6 -22  133.15   21.24   0
   0   1 -19  440.31   19.94   0
   1   0 -20 1255.62   29.40   0
   0   2 -23  345.22   23.47   0
   0   5 -26  162.31   24.01   0
  -3   6  -9  680.11   24.44   0
  -2   7 -18  197.34   22.45   0
  -1   2 -18 1535.05   29.91   0
  -1   4 -23   94.04   21.79   0
   3   0 -27   44.45   19.03   0
  -2   3 -14 2409.25   36.82   0
  -1   1 -11 1012.04   25.70   0
   2  -1 -21  491.49   22.84   0
   2   0 -25  244.65   22.23   0
  -2   4 -18  581.54   22.36   0
  -2   6 -20  320.07   24.28   0
  -1   5 -24  152.30   21.96   0
  -3   6 -12  957.09   27.88   0
  -1   3 -22  476.06   22.58   0
  -3   5  -8 3312.10   45.24   0
   2  -2 -14 2011.87   39.12   0
   1  -1 -16 3253.87   43.91   0
   1   3 -29   70.36   21.42   0
  -3   5 -11  481.98   22.16   0
  -3   7 -13  192.93   19.43   0
  -1   1 -14 2823.57   39.44   0
   2   2 -30   85.44   21.12   0
   0   3 -27   58.68   20.60   0
   0   4 -28   83.40   22.80   0
  -3   6 -15  255.11   21.04   0
  -2   3 -17 1038.02   26.12   0
  -2   7 -21   98.92   20.39   0
   1   0 -23  187.62   20.20   0
  -1   2 -21  510.17   24.24   0
   2   1 -29  109.67   20.29   0
  -3   5 -14  670.20   22.93   0
  -2   4 -21  501.28   25.17   0
   0   2 -26  254.19   23.65   0
   3  -1 -26  289.99   21.75   0
  -3   7 -16  357.27   25.47   0
  -2   6 -23  111.36   22.55   0
  -1   4 -26  208.11   24.72   0
   1   1 -27  102.56   18.75   0
  -1   5 -27   76.24   22.37   0
  -2   2 -10 7003.72   60.54   0
  -1   1 -17 1791.81   32.04   0
  -1   3 -25  197.98   21.18   0
  -3   4 -10 1735.91   33.31   0
  -3   6 -18  434.46   24.96   0
  -2   2  -7  707.36   23.33   0
   2  -2 -17  488.35   23.01   0
   2  -1 -24  446.48   23.57   0
  -3   4  -7 1287.49   30.67   0
  -3   5 -17  660.11   26.03   0
  -2   2 -13 2491.30   36.51   0
   1  -1 -19  403.30   19.37   0
   2   0 -28  123.44   21.29   0
  -3   4 -13 1136.51   27.02   0
  -3   7 -19  143.05   22.36   0
  -2   5 -25  185.36   23.35   0
  -1   2 -24  425.40   25.51   0
  -2   2 -16 1280.59   29.36   0
  -2   4 -24  356.46   23.19   0
   0   3 -30   94.46   23.17   0
   1   2 -31   42.91   21.19   0
  -1   1 -20 1237.81   30.29   0
   0   0 -21 1115.35   29.36   0
   1   0 -26  354.42   23.64   0
  -3   6 -21  203.47   22.87   0
  -2   6 -26  129.67   22.33   0
  -1   4 -29  108.91   23.27   0
  -2   3 -23  199.33   23.11   0
  -1   3 -28  171.10   23.59   0
   1   1 -30  126.08   22.83   0
   2   1 -32   41.11   19.63   0
   1  -1 -22  671.48   25.57   0
  -3   4 -19  244.51   19.82   0
  -3   7 -22  133.37   21.47   0
  -2   2 -19  395.84   20.75   0
  -2   8  -7  143.23   21.94   0
   1   1  -9 2527.04   39.92   0
   1   7 -12  281.46   25.48   0
   4   5 -13  167.01   22.70   0
  -2   9  -5  198.49   23.85   0
  -1   8  -9  258.30   24.93   0
   3   2 -14  627.17   25.32   0
   4   0 -11 1158.86   30.19   0
  -2   7  -9  238.83   20.17   0
   0   4 -13 1295.91   30.39   0
   1   6 -14  192.51   21.46   0
  -3   8  -5  263.81   22.36   0
   0   8 -11   77.64   22.65   0
  -1   4 -11  662.88   22.88   0
  -1   5 -12 1179.09   29.93   0
   0   3 -12 3089.64   40.63   0
   3   1 -13 1114.69   29.20   0
   4   4 -15  102.64   21.63   0
  -3   6  -6 1258.52   30.88   0
   0   5 -14  961.51   27.33   0
   0   7 -13  278.55   23.83   0
   1   3 -14 1213.37   28.23   0
   5   4 -14   64.90   19.91   0
   3   4 -16  386.04   24.77   0
  -3   5  -5 1398.25   31.80   0
  -3   7  -7  542.71   23.22   0
  -1   6 -13  349.59   22.03   0
   1   2 -13  974.95   25.71   0
   1   5 -16  499.42   26.72   0
  -2   8 -10  234.87   23.83   0
  -2   9  -8  193.34   22.95   0
  -1   3 -10 2959.51   40.32   0
   0   6 -15  180.64   23.62   0
   1   7 -15   16.87   22.66   0
   2   6 -16  192.73   23.75   0
   0   2 -11 3940.26   45.98   0
   2   2 -15  358.40   19.70   0
   4   2 -16  473.69   24.47   0
   3   5 -17  121.62   23.77   0
  -3   8  -8  589.97   26.31   0
  -2   7 -12  602.79   27.16   0
  -1   7 -14  218.70   23.91   0
   2   0 -10 6855.57   67.27   0
   4   1 -15  405.73   22.21   0
   4   3 -17  197.18   22.61   0
   1   6 -17  204.92   24.07   0
   3   0 -12 2060.66   38.05   0
   0   7 -16  302.96   25.84   0
  -3   4  -4 5590.30   61.80   0
  -1   5 -15  239.76   21.87   0
   0   4 -16  734.61   24.80   0
   3   2 -17  633.36   25.88   0
   3   3 -18  392.98   24.41   0
  -3   7 -10  654.06   26.53   0
  -2   9 -11   31.02   21.77   0
  -1   4 -14 1225.06   29.72   0
   0   5 -17  379.09   22.38   0
   2   1 -14 2397.77   37.30   0
   4   4 -18  118.75   21.35   0
  -3   5  -8 3406.04   45.23   0
   0   3 -15  983.94   28.03   0
   1   4 -18  632.39   27.48   0
  -2   8 -13  240.30   24.07   0
  -1   6 -16  552.58   24.28   0
   1   3 -17  804.47   27.13   0
   3   4 -19  146.90   23.24   0
  -3   9  -9  199.63   23.39   0
  -2   5 -13 1016.39   28.81   0
   0   6 -18  197.24   24.23   0
   1   5 -19  158.01   24.16   0
   4   0 -14 1062.42   30.41   0
  -4   6  -4 1506.27   33.99   0
  -3   8 -11  165.06   21.60   0
  -1   2  -9 2589.14   39.46   0
   3   1 -16 1402.15   32.21   0
  -1   3 -13 1006.07   25.96   0
  -1   7 -17  160.22   23.70   0
   1   2 -16 2154.87   36.12   0
   2   3 -19  123.13   20.99   0
  -2   4 -12 3492.46   44.15   0
   2   4 -20  280.83   24.65   0
   3   5 -20  143.52   21.28   0
   0   2 -14 2243.07   36.65   0
   1   6 -20  222.04   23.72   0
   2   2 -18  612.30   25.34   0
  -3   6 -12  974.07   27.12   0
   0   7 -19   45.06   22.25   0
   4   2 -19   76.56   19.54   0
  -4   7  -8  671.68   25.93   0
  -3   7 -13  180.17   19.55   0
   0   1 -10 3373.16   45.07   0
   4   3 -20  169.47   21.37   0
  -3   4  -7 1320.13   29.46   0
  -3   9 -12  175.95   22.76   0
  -1   5 -18  637.30   27.69   0
  -4   8  -9  254.53   22.42   0
  -3   5 -11  501.07   22.57   0
  -2   8 -16  185.53   23.62   0
   0   4 -19  160.65   19.38   0
  -4   6  -7  442.26   22.35   0
  -1   4 -17  830.90   26.98   0
  -1   6 -19  147.59   24.80   0
   4   1 -18  411.99   22.88   0
  -3   8 -14  190.29   22.83   0
   3   3 -21  169.55   22.01   0
  -2   5 -16 1041.28   29.92   0
  -2   6 -17  207.06   20.61   0
   0   3 -18  909.38   27.54   0
   1   4 -21  289.87   24.13   0
   3   2 -20  599.15   25.99   0
   0   6 -21  197.72   23.47   0
   2   0 -13 2415.11   39.81   0
   3   0 -15  525.76   22.96   0
   1   5 -22  136.76   23.29   0
   2   1 -17 1017.26   26.56   0
   3   4 -22  113.72   23.23   0
  -2   3 -11  921.62   24.90   0
  -1   7 -20  243.87   24.86   0
  -1   2 -12 3895.28   45.52   0
  -4   7 -11  260.93   21.63   0
  -2   4 -15  343.11   20.01   0
  -1   3 -16 2112.84   34.69   0
  -3   6 -15  254.84   20.52   0
  -3   7 -16  367.55   26.06   0
   2   3 -22  311.55   24.94   0
   3   1 -19  222.90   20.38   0
  -4   8 -12  402.99   24.51   0
  -3   4 -10 1801.48   34.38   0
   2   4 -23   82.94   21.81   0
  -4   6 -10 1049.94   29.20   0
  -4   5  -6 1666.91   35.30   0
  -3   5 -14  681.87   25.80   0
  -2   8 -19   47.90   20.93   0
   0   2 -17  555.21   22.11   0
  -1   5 -21  251.29   24.22   0
   2   2 -21  495.75   22.85   0
  -3   8 -17  126.49   23.62   0
   0   1 -13 2428.05   37.44   0
   0   4 -22  502.03   28.06   0
  -2   6 -20  330.19   25.94   0
  -1   4 -20  702.53   28.18   0
  -1   6 -22  159.02   25.10   0
   0   5 -23   77.91   21.13   0
  -2   5 -19  136.83   19.85   0
  -4   7 -14  473.18   25.63   0
  -2   3 -14 2494.00   38.33   0
  -2   7 -21  101.02   22.72   0
   0   3 -21  358.62   24.86   0
   0   6 -24  148.22   23.44   0
   3   3 -24  132.03   22.97   0
  -4   5  -9  671.14   24.94   0
  -4   8 -15  122.79   21.36   0
  -2   4 -18  590.24   25.34   0
  -1   2 -15 1156.01   28.34   0
   3   2 -23   69.20   20.87   0
  -4   6 -13  579.24   25.53   0
  -3   7 -19  141.07   22.95   0
   2   1 -20  719.69   26.87   0
   2   0 -16 1253.28   28.88   0
  -3   3  -6 5402.73   60.05   0
   3   0 -18 1248.53   31.58   0
  -3   8 -20  149.63   21.67   0
   1   2 -22  453.93   24.89   0
   2   3 -25  152.52   23.00   0
   0   2 -20 1304.80   31.75   0
   3   1 -22  366.69   25.33   0
  -2   2 -10 7290.08   64.02   0
  -1   5 -24  180.76   22.49   0
  -4   7 -17  225.38   24.24   0
  -2   5 -22  300.16   25.43   0
  -2   6 -23   97.75   24.18   0
  -1   4 -23  133.39   23.36   0
  -1   6 -25   73.27   23.05   0
   0   1 -16 3187.77   41.67   0
   1   0 -14 2653.71   40.65   0
   2   2 -24  368.67   24.99   0
  -4   5 -12 1512.09   31.65   0
   0   4 -25  174.70   21.43   0
   0   5 -26  164.88   24.19   0
  -4   6 -16  518.73   25.82   0
  -4   8 -18   98.30   22.41   0
  -3   3  -9 2545.40   39.24   0
  -2   3 -17 1028.62   26.85   0
   3  -1 -14 2344.30   42.81   0
  -2   4 -21  555.48   25.99   0
  -1   1 -11 1011.10   26.70   0
  -1   2 -18 1604.08   33.24   0
   0   3 -24  430.03   25.92   0
  -3   7 -22  128.90   21.92   0
   1   4 -27   27.20   21.91   0
  -1   3 -22  512.51   24.01   0
   1   3 -26  205.06   23.84   0
   1   1 -21  525.79   24.73   0
   3   3 -27    9.49   20.86   0
  -2   2 -13 2537.57   38.91   0
  -4   5 -15  477.96   24.63   0
   2   0 -19  365.48   19.94   0
   2   1 -23  157.52   19.27   0
   3   2 -26  126.75   22.04   0
  -4   4  -8 2826.63   43.61   0
  -4   7 -20  164.67   23.30   0
   0   2 -23  364.54   23.89   0
   1   2 -25  188.85   23.34   0
   2  -1 -12 3627.72   51.50   0
   3   0 -21  454.18   24.40   0
  -4   6 -19   91.67   22.26   0
  -2   6 -26  109.87   24.46   0
  -1   5 -27   68.32   23.63   0
   0   1 -19  445.33   21.47   0
  -3   4 -19  246.61   22.11   0
  -2   3 -20  740.31   25.47   0
  -2   5 -25  182.69   22.54   0
  -1   1 -14 2817.40   39.70   0
  -1   4 -26  246.62   25.45   0
   1   0 -17 1591.27   31.86   0
   2   3 -28   95.87   23.21   0
  -5   6 -11  314.55   21.60   0
  -5   7 -15  101.20   21.52   0
  -4   4 -11 1233.47   30.94   0
   0   4 -28   55.57   21.68   0
   3   1 -25  184.11   22.45   0
  -2   4 -24  383.42   26.63   0
  -1   2 -21  535.16   23.69   0
   0   0 -12 9435.14   73.14   0
   2   2 -27   41.02   21.22   0
  -3   3 -15  540.30   22.13   0
  -3   5 -23   95.04   22.74   0
  -2   2 -16 1276.59   28.65   0
  -4   5 -18  464.36   23.11   0
  -1   3 -25  233.36   24.94   0
   3  -1 -17 1004.32   29.97   0
  -5   6 -14  581.66   25.76   0
  -4   4 -14 1070.84   29.74   0
  -4   7 -23   56.48   21.29   0
   1   1 -24  494.25   25.64   0
   1   3 -29  106.04   23.66   0
  -5   7 -18  322.47   25.25   0
  -4   6 -22  258.83   24.35   0
  -1   1 -17 1749.66   32.57   0
   2  -1 -15 1041.65   28.99   0
   2   0 -22  990.70   29.65   0
  -3   4 -22  392.19   24.72   0
  -2   3 -23  153.26   22.25   0
   2   1 -26  305.37   23.61   0
   0   0 -15  354.91   19.09   0
   1   0 -20 1219.54   30.24   0
  -3   3 -18 1359.39   30.26   0
  -2   5 -28   57.99   23.64   0
   1   2 -28  177.35   23.60   0
  -5   6 -17  300.73   23.90   0
  -2   2 -19  388.42   21.51   0
  -1   4 -29  112.39   22.89   0
  -5   5 -10 1099.76   30.26   0
  -4   5 -21  210.23   20.85   0
  -3   6 -27   23.08   23.47   0
  -1   2 -24  420.28   26.35   0
  -4   4 -17  404.12   21.63   0
  -3   5 -26  168.46   23.96   0
  -2   4 -27   -6.89   22.35   0
  -5   5 -13  338.64   22.35   0
  -1   3 -28  168.20   24.65   0
  -5   7 -21  143.40   21.53   0
  -1   1 -20 1229.84   29.14   0
   2   2 -30   55.76   20.43   0
   3  -1 -20  698.28   27.28   0
  -4   6 -25   97.67   23.18   0
  -3   2  -8 4236.60   51.63   0
   2  -1 -18 1492.34   33.21   0
  -3   3 -21  461.42   23.19   0
  -3   4 -25  223.62   24.90   0
  -2   1  -9 2542.36   39.87   0
  -5   6 -20  274.95   23.42   0
  -2   2 -22  929.21   29.97   0
  -2   3 -26  369.32   24.71   0
   1   1 -27  114.25   19.48   0
  -5   5 -16  706.36   27.50   0
  -2   1 -12 3710.59   45.19   0
   1   0 -23  170.26   21.08   0
   2   0 -25  289.90   23.17   0
  -3   2 -14 2465.19   38.63   0
   0   2 -29   75.19   23.66   0
  -4   3 -10 1725.36   34.63   0
   2   1 -29  107.75   24.26   0
  -2   1 -15 1109.46   28.25   0
  -1   2 -27   61.42   23.29   0
  -4   3 -13 1113.60   27.79   0
  -4   3  -7 1306.17   31.65   0
  -2   4 -30   95.03   24.36   0
   1   2 -31   32.26   22.64   0
  -3   5 -29   98.48   21.14   0
  -1   1 -23  191.74   19.60   0
   1  -1 -16 3103.47   43.80   0
  -5   5 -19  230.44   22.69   0
  -3   2 -17  976.79   26.91   0
  -3   3 -24  282.50   25.14   0
  -1   0 -10 3333.24   45.10   0
  -5   6 -23   77.31   22.18   0
  -4   3 -16 1405.96   32.29   0
  -1   0 -13 2383.03   37.24   0
   2  -1 -21  526.81   24.38   0
  -3   4 -28  164.55   24.48   0
  -1   3 -31   38.47   23.51   0
  -2   1 -18 1551.03   30.98   0
  -2   2 -25  297.03   21.79   0
  -2   3 -29  117.62   22.73   0
  -1   0 -16 3182.37   41.58   0
   0   1 -28  235.06   21.07   0
   1   0 -26  371.37   25.35   0
  -5   4 -12 1459.53   33.10   0
  -3   2 -20  687.69   25.02   0
   1  -1 -19  402.29   22.36   0
   1   1 -30  156.73   23.96   0
  -5   5 -22  243.01   23.12   0
   2   0 -28  102.24   21.71   0
  -5   4 -15  440.49   22.00   0
  -1   1 -26  410.08   24.94   0
  -1   2 -30  131.31   23.45   0
   0   0 -24  671.55   26.99   0
   0   2 -32   77.39   22.95   0
  -2   1 -21  480.44   22.69   0
  -6   4  -7  439.35   23.91   0
  -1   1 -11  990.65   27.40   0
   0   2 -17  520.67   24.02   0
  -6   7 -19   69.86   23.79   0
  -5   6 -20  247.62   27.13   0
  -4   6 -22  236.34   25.97   0
  -7   5  -6  750.77   28.34   0
  -6   5 -14  568.06   27.83   0
  -4   7 -23   65.33   21.60   0
   0   1 -13 2348.16   40.32   0
  -5   3  -8 3446.92   45.68   0
  -8   8 -13   96.93   21.32   0
  -7   6 -13  327.40   25.93   0
  -5   4 -15  415.71   25.39   0
  -4   2  -6 1584.56   34.02   0
  -4   5 -21  204.69   26.54   0
   0   4 -22  497.12   26.22   0
  -6   6 -18  221.08   23.53   0
  -3   6 -24  127.36   23.81   0
  -5   5 -19  277.42   22.50   0
  -2   1  -9 2655.50   41.81   0
  -7   7 -17  155.05   24.20   0
  -6   4 -10 1051.58   30.71   0
  -2   2 -16 1201.17   28.92   0
  -1   5 -24  117.55   21.58   0
  -7   5  -9  541.52   26.33   0
  -1   4 -23   96.00   22.55   0
   0   3 -21  353.33   23.18   0
  -8   7 -12  267.10   26.68   0
  -4   3 -16 1488.81   33.51   0
  -4   4 -20  611.00   28.27   0
  -3   2 -14 2498.52   37.82   0
  -5   3 -11  452.32   21.69   0
  -3   4 -22  391.75   23.54   0
  -7   6 -16  300.41   25.17   0
  -6   7 -22  103.12   23.23   0
  -5   6 -23   37.43   25.27   0
  -2   5 -25  173.73   24.41   0
  -1   3 -22  449.61   25.09   0
   1   1 -15 1057.83   29.64   0
  -1   1 -14 2690.21   39.68   0
   1   2 -19  460.44   24.72   0
  -7   5 -12  439.77   25.02   0
  -6   4 -13  610.31   26.73   0
  -5   4 -18  483.57   23.89   0
  -4   6 -25  100.27   22.91   0
  -2   4 -24  362.28   25.64   0
  -6   6 -21  172.50   23.93   0
  -4   5 -24  195.63   25.01   0
  -2   1 -12 3637.97   44.95   0
   0   2 -20 1226.49   31.30   0
  -8   7 -15   55.77   22.58   0
  -5   5 -22  195.64   22.43   0
   0   1 -16 3013.58   42.29   0
  -4   2 -12 3441.99   44.66   0
  -3   3 -21  464.76   25.89   0
  -2   2 -19  383.57   23.23   0
  -3   6 -27   16.43   22.06   0
  -4   3 -19  252.58   23.69   0
  -3   2 -17 1018.85   27.14   0
  -3   5 -26  112.26   21.98   0
  -7   6 -19   60.21   23.96   0
  -6   5 -20  255.49   24.95   0
  -7   5 -15  126.09   22.66   0
  -6   4 -16  511.42   26.49   0
  -4   4 -23  170.75   20.99   0
  -1   2 -21  534.88   23.88   0
  -5   4 -21  258.29   24.79   0
  -1   4 -26  202.15   23.00   0
   0   3 -24  373.37   24.78   0
  -8   6 -14  170.41   23.35   0
  -6   3  -6 1270.61   31.52   0
  -5   6 -26  127.01   22.66   0
  -3   1 -10 2961.83   41.72   0
  -2   1 -15 1120.57   28.31   0
  -6   6 -24  112.49   24.18   0
  -4   2 -15  348.02   21.87   0
  -5   3 -17  607.03   24.22   0
  -6   3  -9  688.59   24.29   0
  -2   5 -28  116.10   22.65   0
  -1   3 -25  207.49   23.08   0
   1   1 -18 1506.09   34.40   0
  -5   5 -25   70.23   22.02   0
  -4   5 -27   52.29   23.30   0
  -2   4 -27   27.19   20.88   0
  -7   5 -18  308.27   24.23   0
  -5   2  -7  685.87   24.53   0
  -3   3 -24  301.69   24.55   0
  -7   4 -11  242.03   21.29   0
  -4   3 -22  392.65   22.73   0
  -2   2 -22 1019.85   27.59   0
   0   1 -19  410.65   19.83   0
  -6   3 -12 1001.74   28.65   0
  -6   5 -23   56.04   21.46   0
  -3   1 -13 1014.96   26.14   0
   0   2 -23  327.44   22.17   0
  -8   6 -17   86.87   22.80   0
  -5   2 -10 1115.12   28.84   0
  -4   4 -26  184.79   23.69   0
  -3   5 -29   84.08   22.53   0
  -2   3 -26  337.78   24.48   0
  -1   0 -10 3433.51   45.88   0
  -5   4 -24  230.97   24.96   0
  -4   2 -18  571.02   23.39   0
  -2   1 -18 1593.78   31.07   0
  -7   4 -14  517.95   25.38   0
  -5   3 -20  528.82   23.92   0
  -1   2 -24  456.65   24.71   0
  -3   4 -28  111.89   22.35   0
  -6   3 -15  239.59   22.23   0
  -5   2 -13 1091.13   28.67   0
  -7   5 -21  127.36   22.28   0
  -3   1 -16 2095.94   34.29   0
  -6   4 -22  277.75   24.18   0
  -1   0 -13 2439.20   37.98   0
   1   0 -14 2553.24   41.90   0
  -3   2 -23  188.31   22.46   0
  -7   4 -17  184.20   23.11   0
  -4   1  -8 4171.15   48.85   0
  -4   3 -25  207.87   24.96   0
  -4   2 -21  548.46   26.09   0
  -1   3 -28  173.50   21.05   0
   1   1 -21  477.61   23.82   0
  -8   5 -16  214.92   21.79   0
  -4   1  -5 2250.06   38.73   0
  -2   0  -8 6459.22   60.69   0
  -2   4 -30   83.31   22.11   0
   0   1 -22  648.02   22.99   0
  -6   3 -18  404.19   21.82   0
  -5   3 -23   74.33   23.15   0
  -2   1 -21  501.22   22.17   0
  -5   4 -27   39.29   21.25   0
  -2   0 -11 3756.02   44.28   0
  -4   4 -29   80.15   20.10   0
  -3   1 -19  488.88   21.91   0
  -1   0 -16 3269.08   42.20   0
   0   2 -26  245.79   22.09   0
  -4   1 -14 1255.80   27.91   0
  -2   3 -29   97.44   21.06   0
  -1   1 -23  166.04   18.11   0
  -7   4 -20  183.00   23.94   0
  -1   2 -27   78.19   21.59   0
  -6   4 -25  124.68   22.45   0
  -5   2 -19  156.51   20.62   0
  -2   0 -14 2249.26   35.72   0
   0   0 -18 1088.29   27.64   0
   1   0 -17 1641.45   33.59   0
  -8   5 -19   53.59   20.78   0
  -3   2 -26  320.84   21.85   0
  -4   1 -17  851.63   26.92   0
  -4   2 -24  381.19   22.53   0
  -4   3 -28  130.58   22.78   0
  -7   3 -13  176.30   20.90   0
  -6   2 -11  524.57   23.54   0
  -5   3 -26  158.14   22.08   0
  -3   1 -22  502.85   22.26   0
  -2   1 -24  423.70   21.83   0
  -2   2 -28  124.57   21.65   0
  -1   0 -19  444.69   20.02   0
  -6   2  -8 1252.63   30.03   0
  -3   3 -30  142.75   20.84   0
  -2   0 -17  507.73   20.64   0
   0   1 -25  357.10   21.81   0
  -7   4 -23   42.03   21.91   0
  -7   3 -16  371.23   24.37   0
  -6   2 -14  680.81   25.67   0
  -5   2 -22  293.51   20.83   0
  -4   1 -20  662.21   25.90   0
  -3   0 -12 3153.75   40.83   0
  -1   1 -26  383.68   23.98   0
   0   0 -21 1129.29   28.57   0
  -6   3 -24  192.50   22.31   0
   1   0 -20 1209.32   29.33   0
  -6   2 -17  242.10   19.38   0
  -5   1 -12 1161.98   28.95   0
  -4   2 -27    7.84   22.68   0
  -3   0 -15  963.99   24.91   0
  -2   3 -32   33.79   22.45   0
  -7   3 -19  145.79   22.50   0
  -5   1  -9 1355.56   30.18   0
  -3   0  -6 4018.26   48.30   0
  -1   2 -30  149.82   20.58   0
  -8   4 -18  122.02   19.38   0
  -5   1 -15  251.99   20.89   0
  -3   1 -25  212.95   20.20   0
  -5   3 -29   97.02   21.01   0
  -5   2 -25  221.32   21.43   0
  -4   1 -23   69.51   21.78   0
  -3   0 -18  892.53   24.60   0
  -6   2 -20  314.68   24.09   0
  -5   1  -6 2123.24   37.21   0
  -2   2 -31   25.59   19.93   0
  -6   3 -27   14.70   20.06   0
  -2   0 -23  374.77   23.01   0
   0  -1 -11  954.76   26.02   0
   0   0 -24  668.14   25.08   0
   0   1 -28  220.13   21.36   0
  -7   3 -22  129.86   21.65   0
  -3   0 -21  375.06   23.39   0
  -1  -1 -12 3821.36   44.30   0
  -1   1 -29  174.10   20.55   0
   1   0 -23  170.06   18.08   0
  -1  -1 -15 1124.71   27.23   0
  -1   0 -25  373.67   22.62   0
  -5   1 -21  297.25   22.19   0
  -4   2 -30   48.62   21.98   0
  -3   1 -28  174.71   22.26   0
  -4   0 -10 2420.96   36.71   0
  -4   1 -26  225.86   23.01   0
  -1  -1  -9 2563.06   37.50   0
  -5   2 -28   97.11   19.99   0
  -3   2 -32   57.98   19.65   0
  -2   1 -30  171.30   21.51   0
  -1  -1 -18 1647.08   30.22   0
   1  -1 -16 3039.35   40.86   0
  -7   2 -15  195.16   21.15   0
  -4   0 -19  185.40   18.02   0
  -3   0 -24  397.32   24.34   0
  -2  -1 -13  988.57   24.40   0
  -2   0 -26  253.19   19.84   0
   0  -1 -20 1226.78   28.87   0
  -5   1 -24  171.08   23.10   0
  -4   0  -7  582.57   21.73   0
  -2  -1 -10 2799.98   37.44   0
   0   0 -27   76.67   18.33   0
   1  -1 -19  430.31   20.61   0
  -7   2 -18  192.02   21.66   0
  -6   1 -13  338.69   20.56   0
  -1  -1 -21  514.18   21.33   0
  -6   1 -16  572.58   24.39   0
  -2  -1 -19  501.10   20.95   0
  -1   0 -28  198.77   19.90   0
  -6   1 -10  799.95   25.52   0
  -4   0 -22  525.30   22.53   0
  -4   1 -29  117.29   21.72   0
  -6   1 -19  161.99   21.43   0
  -1   1 -32   76.07   20.45   0
  -7   2 -21  122.01   21.24   0
   0  -1 -23  185.84   19.32   0
  -3   0 -27   91.04   18.11   0
  -2  -1 -22  509.34   24.49   0
  -2  -1  -7 3311.86   41.81   0
  -5   1 -27   18.68   19.10   0
  -3  -1 -17  832.30   25.98   0
  -3  -1 -14 1251.73   26.84   0
   1  -1 -22  671.14   23.94   0
  -5   0 -14 1020.46   27.83   0
  -4   0 -25  220.95   23.30   0
  -3  -1 -11  668.67   22.85   0
  -2   1 -33   31.24   18.70   0
   2  -1 -15 1019.58   27.80   0
  -6   1 -22  183.59   20.93   0
  -5   0 -17  378.51   20.38   0
  -5   0 -11  342.40   20.43   0
  -3  -1 -20  702.60   25.23   0
   0   0 -30  140.97   19.51   0
   2  -1 -18 1457.32   31.60   0
  -2  -1 -25  234.45   22.01   0
  -1   0 -31   31.38   19.40   0
   0  -1 -26  340.85   20.22   0
  -6   1 -25   70.39   20.20   0
  -3  -1 -23  126.49   22.02   0
  -3   0 -30  113.22   20.62   0
  -5   0  -8 1227.97   28.62   0
  -1  -1 -27  107.57   17.45   0
   1  -1 -25  350.86   20.78   0
  -4   0 -28   85.32   19.86   0
  -2   0 -32   65.03   19.68   0
   0  -2 -16 1228.09   27.68   0
  -4  -1 -18  687.86   25.50   0
  -1  -2 -17  974.37   26.41   0
  -1  -2 -14 2506.21   36.19   0
   0  -2 -13 2481.35   36.37   0
  -2  -1 -28  187.58   22.65   0
  -4  -1 -21  306.83   23.42   0
  -4  -1 -12 1070.14   25.90   0
  -3  -1 -26  239.90   22.66   0
  -1  -2 -20  764.14   25.34   0
  -7   1 -17  204.70   20.98   0
  -5   0 -26  148.59   22.25   0
   0  -1 -29  180.17   20.89   0
  -7   1 -20  198.89   21.64   0
  -1  -2 -11  914.46   23.47   0
   0  -2 -22  935.40   26.76   0
   1  -2 -18 1463.58   28.76   0
   1  -2 -15 1001.50   24.65   0
  -2  -2 -18  560.69   21.44   0
  -2  -2 -15  346.20   18.88   0
  -1  -1 -30  143.08   20.60   0
  -6   0 -18  178.77   20.37   0
  -6   0 -15  175.69   20.16   0
  -4  -1 -24  172.21   22.34   0
  -1  -2 -23  183.88   18.35   0
   0  -2 -10 7004.68   58.18   0
  -4  -1  -9 1307.10   28.78   0
  -3  -1  -5 2194.74   35.74   0
  -2  -2 -21  528.92   21.96   0
  -2  -2 -12 3512.99   41.10   0
   1  -2 -21  471.37   20.20   0
  -6   0 -21  118.48   20.22   0
  -6   0 -12  866.80   26.45   0
  -3  -1 -29  114.22   20.76   0
   0  -2 -25  261.93   21.15   0
  -2  -1 -31   57.57   20.57   0
  -2  -2 -24  385.76   21.28   0
   1  -2 -24  440.57   22.27   0
  -6   0 -24  158.55   19.95   0
  -5  -1 -16  524.92   24.09   0
  -4  -1 -27   84.43   20.98   0
  -3  -2 -19  119.65   20.43   0
  -3  -2 -16 1109.97   26.68   0
  -1  -2  -8 4159.32   44.85   0
  -5  -1 -19  183.28   18.27   0
  -2  -2  -9 2033.82   33.06   0
  -3  -2 -22  291.81   22.36   0
  -3  -2 -13 1083.29   27.39   0
   0  -1 -32   43.14   17.95   0
   4   0  -5  814.00   23.23   0
   4   1  -3 1703.38   30.21   0
   6  -1  -5  839.09   26.04   0
   6   0  -3  425.35   20.96   0
   3   3   3  832.01   25.23   0
   5  -3  -7  668.23   23.62   0
   5  -1  -6 1681.97   30.08   0
   5   3   8  614.33   25.18   0
   7   1   3  150.80   21.62   0
   7   2  11   63.17   18.69   0
   4   3   4  936.26   27.32   0
   6   2   4  658.89   23.95   0
   7  -1  -4 1021.01   29.24   0
   8   0   2  268.22   23.76   0
   6   1  -1  561.62   24.79   0
   3   1  -4 5823.13   52.23   0
   4   2  -1 1161.93   26.37   0
   7   0  -2  246.05   23.02   0
   6  -2  -7  438.23   19.72   0
   7  -2  -6  741.81   26.13   0
   7   2   8  189.41   21.10   0
   9  -3  -3  191.77   21.36   0
   3   2  -2 1362.20   28.30   0
   5   2   0  984.53   25.89   0
  10  -4  -1   66.77   18.22   0
   8  -4  -6  329.57   21.75   0
   9  -1   1  129.55   22.00   0
   3   0  -6 5706.21   53.51   0
   8  -1  -3  240.30   22.70   0
   5  -2  -8 3251.80   41.85   0
   7   1   0  590.28   26.71   0
   8  -2  -5  255.68   22.98   0
   6   3   9  239.63   21.66   0
   8   1   4  177.20   22.06   0
   7   2   5  150.84   20.84   0
   8   0  -1  140.00   22.75   0
   9  -4  -5  144.21   22.12   0
   4   3   1  354.35   21.47   0
   3   3   0 2151.54   34.46   0
   5   0  -7 1154.64   27.33   0
   5   1  -5  808.17   23.79   0
   6   0  -6  660.14   23.08   0
   8  -3  -7  179.32   21.10   0
   6   3   6  258.23   22.01   0
   2   2  -3 1696.09   30.13   0
   3   4   5  679.02   23.98   0
   7   0  -5  348.39   23.35   0
   9  -2  -4  251.07   20.92   0
   9  -1  -2  180.69   22.68   0
   1   3   1 1915.69   34.68   0
   6  -3  -9  705.42   24.08   0
   2   1  -5 4558.89   48.81   0
   4   2  -4 1646.08   30.81   0
   4   4   6  399.99   23.27   0
   5   2  -3  229.58   18.99   0
   8   1   1  130.51   21.00   0
   2   4   4 1650.46   32.64   0
   9  -3  -6  180.01   20.00   0
   4   0  -8 2770.72   36.40   0
   7   1  -3  252.48   23.56   0
   2   3  -1 1633.33   29.82   0
   6   2  -2  330.94   23.16   0
   6   3   3  115.81   20.18   0
   7  -2  -9  575.39   23.58   0
   8   0  -4  319.67   23.51   0
   4  -2  -9 1922.63   33.84   0
   3   2  -5 1384.44   27.28   0
   8  -2  -8  453.62   22.16   0
   3   1  -7 1354.29   27.11   0
   4   3  -2 1122.34   26.53   0
   6  -2 -10  950.06   24.76   0
   3   4   2 1121.83   27.93   0
   4   4   3  285.71   20.69   0
   5   3  -1  328.63   22.40   0
   8   1  -2  206.01   21.93   0
   6   1  -7  206.29   20.55   0
   9  -2  -7  143.61   21.37   0
   5   1  -8 1106.57   26.43   0
   6   0  -9  563.50   22.13   0
   1   4   3 1611.08   33.44   0
   4  -1 -10 1636.80   30.64   0
   6   3   0  434.35   24.79   0
   2   0  -7  704.65   21.94   0
   5   2  -6  771.20   23.77   0
   5   4   4  491.19   24.18   0
   7   1  -6  231.29   22.16   0
   5   0 -10 1095.27   25.74   0
   6   2  -5  270.80   22.16   0
   7  -1 -10  345.93   21.56   0
   8  -3 -10  315.49   21.47   0
   3   0  -9 2578.22   36.62   0
   5  -2 -11  457.59   20.62   0
   4   1  -9  665.98   21.79   0
   6  -1 -11  316.56   18.78   0
   8   0  -7  144.59   20.37   0
   9  -3  -9   99.35   18.64   0
   4   4   0  812.99   26.52   0
   2   2  -6 1587.53   28.66   0
   1   3  -2 2794.33   39.39   0
   3   4  -1  410.99   21.30   0
   7   2  -4  272.89   20.74   0
   8   1  -5  111.47   20.32   0
   1   2  -4 7166.68   61.05   0
   5   4   1  196.21   20.20   0
   8  -2 -11  139.58   19.64   0
   3   2  -8 3461.62   40.46   0
   4   0 -11 1197.93   25.82   0
   5  -1 -12 1446.08   29.31   0
   6   3  -3  199.91   20.64   0
   7  -2 -12  400.89   22.30   0
   2   1  -8 4371.52   45.59   0
   3   3  -6 1316.18   27.29   0
   9  -2 -10  148.87   20.81   0
   7   0 -11   79.64   21.22   0
   7   1  -9  176.86   21.46   0
   1   4   0 2862.71   40.46   0
   2   4  -2 1640.32   29.78   0
   3   1 -10 1739.38   30.99   0
   5   1 -11  349.45   21.07   0
   5   2  -9  612.15   22.66   0
   6   0 -12  763.18   25.10   0
   6   2  -8  447.28   21.84   0
   4   4  -3  289.95   21.08   0
   8   0 -10  155.53   20.81   0
   7   2  -7  166.00   21.09   0
   4   2 -10 1068.43   25.78   0
   5   3  -7  192.49   18.51   0
   7  -1 -13  301.84   21.97   0
   8  -1 -12  288.55   22.97   0
   4   3  -8  696.32   23.18   0
   8  -3 -13  160.93   18.50   0
   3   5   1  323.53   21.26   0
   4   1 -12 1553.08   29.18   0
   6  -1 -14  526.05   23.81   0
   6   4  -1   61.67   18.24   0
   2   3  -7  673.97   22.64   0
   3  -2 -10 2733.99   42.08   0
   4  -1 -13 1057.13   26.11   0
   2   2  -9 2076.07   32.61   0
   2   4  -5  582.59   22.46   0
   2   5   0 1015.90   27.21   0
   3   2 -11  499.91   21.74   0
   3   3  -9  732.17   22.60   0
   4   4  -6  397.97   20.00   0
   5  -2 -14  634.37   22.84   0
   5   4  -5  172.19   19.67   0
   6   1 -13  324.59   23.72   0
   7   1 -12  305.42   22.23   0
   8  -2 -14  166.44   20.83   0
   2   0 -10 7071.86   59.39   0
   1   4  -3  732.31   22.98   0
   4   5  -1  223.38   19.40   0
   7  -2 -15   92.45   18.31   0
   7   2 -10  141.80   20.90   0
   1   2  -7 3398.68   40.89   0
   3   5  -2  353.94   21.60   0
   5   1 -14  570.69   24.40   0
   5   3 -10  275.66   22.44   0
   3   4  -7  593.19   21.57   0
   6   3  -9  103.85   20.09   0
   4   2 -13  628.26   24.65   0
   4   3 -11  258.56   20.25   0
   2   1 -11  971.80   23.48   0
   3   1 -13 1151.63   25.12   0
   8  -1 -15   94.32   19.57   0
   7  -1 -16  296.17   22.17   0
   2   5  -3  708.65   24.07   0
   5   4  -8  427.62   23.73   0
   6  -2 -16  457.84   22.01   0
   4   5  -4  514.33   22.84   0
   2   3 -10 1052.23   24.56   0
   4   1 -15  480.96   22.46   0
   1   5  -1  588.15   22.17   0
   2   4  -8 1293.34   28.33   0
   3   5  -5  265.01   20.11   0
   5   5  -3   60.28   17.22   0
   3   3 -12 1022.46   26.61   0
   6  -1 -17  266.85   20.94   0
   7   1 -15   66.04   19.68   0
   0   4  -1 2772.25   41.29   0
   1   3  -8 4259.51   44.91   0
   1   4  -6 2210.38   34.38   0
   6   1 -16  310.59   22.70   0
   2   2 -12 3494.19   39.77   0
   5   2 -15  113.90   21.23   0
   5   3 -13  214.14   22.04   0
   6   3 -12  244.01   21.54   0
   1   1  -9 2481.41   36.01   0
   3   2 -14  640.62   22.20   0
   7   0 -17  179.99   21.47   0
   8  -2 -17  117.34   19.24   0
   3  -1 -14 2311.12   35.73   0
   4  -1 -16 1401.49   29.44   0
   2   5  -6  617.05   23.90   0
   4  -2 -15  331.81   20.15   0
   4   3 -14  539.76   24.45   0
   4   5  -7   86.58   20.20   0
   5   1 -17  235.84   19.54   0
   1   2 -10 3032.32   38.73   0
   6   0 -18  224.63   21.59   0
   1   5  -4 1398.98   29.71   0
   4   0 -17  342.23   20.75   0
   4   2 -16  512.30   21.89   0
   3   5  -8  552.86   22.62   0
   5  -2 -17  580.64   22.76   0
   3   1 -16 1416.74   27.85   0
   2   1 -14 2496.78   35.51   0
   2   3 -13 1047.71   24.98   0
   3  -2 -13  957.45   25.92   0
   7  -1 -19   14.12   18.58   0
   0   4  -4 3143.80   40.68   0
   6   2 -17   96.16   19.23   0
   3   3 -15  275.96   19.05   0
   3   4 -13  188.83   21.83   0
   4   1 -18  475.77   22.85   0
   5   0 -19  228.26   21.71   0
   1   3 -11  675.26   22.02   0
   2  -1 -12 3525.93   44.91   0
   2   5  -9  220.59   20.10   0
   4   5 -10  126.86   20.04   0
   5   3 -16  249.05   21.09   0
   5   2 -18  330.42   20.91   0
   6  -2 -19  107.47   17.83   0
   1   5  -7  689.48   23.75   0
   2   2 -15  359.55   20.08   0
   5   4 -14  102.37   20.63   0
   3   2 -17  622.87   22.39   0
   3   5 -11  166.41   20.78   0
   6  -1 -20  232.48   21.05   0
   7   0 -20  170.87   19.28   0
   4   4 -15  101.15   21.15   0
   1   1 -12 3916.53   43.72   0
   4   2 -19   93.36   20.60   0
   0   4  -7  586.39   21.22   0
   1   2 -13 1049.02   24.07   0
   2   4 -14  687.36   24.32   0
   6   0 -21  148.11   20.25   0
   0   2  -8 6355.28   56.01   0
   4  -1 -19  225.18   18.61   0
   2   3 -16 1092.53   27.27   0
   2   6  -7  152.44   19.31   0
   4   0 -20  588.81   23.06   0
   4   5 -13  169.19   19.95   0
   2   5 -12  640.38   22.42   0
   3  -1 -17  958.89   26.24   0
   3   4 -16  325.32   20.28   0
   0   3  -9 1066.41   24.52   0
   0   5  -5 1294.38   28.49   0
   1   5 -10  851.09   25.47   0
   1   6  -5  303.13   19.70   0
   3   3 -18  429.52   21.41   0
   5   3 -19   62.92   20.06   0
   1   3 -14 1274.69   27.88   0
   2   1 -17  974.47   25.78   0
   3   6  -9  180.73   20.72   0
   5  -1 -21  207.20   19.74   0
   2   0 -16 1198.46   27.01   0
   3   5 -14  177.15   20.36   0
   5  -2 -20  536.55   22.42   0
   5   2 -21  108.35   21.14   0
   7  -1 -22   98.49   17.56   0
   5   0 -22  187.22   20.94   0
   6   1 -22  135.28   20.63   0
   4   4 -18  131.93   21.76   0
   2   2 -18  573.76   21.11   0
   3   2 -20  605.19   24.89   0
   4   3 -20  144.44   22.28   0
   2   6 -10  245.64   20.96   0
   1   6  -8  920.04   26.20   0
   0   5  -8 1225.67   26.30   0
   2   4 -17  251.45   18.85   0
   6  -1 -23   36.58   19.06   0
   1   4 -15  290.92   20.50   0
   2  -1 -15 1061.20   26.49   0
   2   5 -15  238.81   21.78   0
   3  -2 -16 1951.46   35.17   0
   3   6 -12  172.62   19.17   0
   4   2 -22  251.56   22.13   0
   5   1 -23   59.06   19.67   0
   0   2 -11 3922.71   43.57   0
   1   1 -15 1119.88   24.92   0
   1   2 -16 2121.52   32.05   0
   1   5 -13  333.03   18.80   0
   3   4 -19  128.70   21.73   0
   0   3 -12 3106.54   38.81   0
   2   3 -19  128.01   19.48   0
   6   0 -24  106.90   18.42   0
   3   3 -21  151.62   19.03   0
   1   3 -17  826.72   23.35   0
   2   6 -13  214.08   21.04   0
   3   0 -21  429.80   21.91   0
   0   6  -6  538.46   22.04   0
   1   6 -11  217.85   20.12   0
   4  -1 -22  355.52   20.62   0
   4   0 -23  155.35   20.37   0
   4   0   7  646.28   24.20   0
   6  -1  16  540.08   25.34   0
   7  -2  15  254.62   22.86   0
   7  -2  18  226.89   21.97   0
   4  -3  -5 2188.41   36.50   0
   8  -4   6  424.78   26.30   0
   9  -5  11   98.92   24.97   0
   7  -2  12  665.42   27.92   0
   4  -2  -3 1789.23   32.78   0
   8  -3  17  143.02   22.06   0
   3   1  11  681.18   26.33   0
   7  -7  -4  896.94   28.83   0
   8  -3  14  221.73   24.81   0
   6  -1  10  838.82   27.98   0
   8  -5   1  371.74   26.31   0
   9  -8   2  219.36   22.43   0
   9  -5   8  482.41   27.27   0
   3  -1  -2 6898.80   63.32   0
   5  -3  -4 4387.24   47.70   0
   5   0  14  998.46   28.95   0
   6  -6  -6  518.24   25.83   0
   7  -2   9  237.64   23.38   0
   8  -6  -1  304.13   24.51   0
   8  -3  11  156.65   23.22   0
   5  -1   3  717.53   23.21   0
   6  -2   2 1735.17   33.13   0
   7  -4  -1  413.42   21.73   0
   8  -8  -2  258.74   22.13   0
   9  -6   3  226.62   24.20   0
   8  -4   3  331.74   26.20   0
   5  -2  -2 1387.33   29.10   0
   5   0  11  375.63   21.96   0
   9  -7   1   79.31   20.62   0
   9  -4  13  178.99   22.72   0
   4  -1  -1 1880.33   33.97   0
   7  -6  -5  333.14   22.49   0
   7  -3   1  364.76   22.96   0
   8  -7  -3  122.35   21.63   0
   9  -5   5  186.81   22.64   0
   4   0   4 3133.42   41.50   0
   6  -1   7  672.60   23.78   0
   6  -4  -5  519.84   21.87   0
   6  -3  -3  835.29   26.49   0
   3   1   8 4219.64   53.22   0
   5   0   8 1287.16   28.96   0
   8  -3   5  272.33   24.24   0
   9  -8  -1  102.50   21.39   0
   6  -5  -7  642.86   25.01   0
   9  -4   7  139.15   22.66   0
   9  -5   2  159.00   23.33   0
   5  -1   0 2950.91   40.16   0
   6  -2  -1 1133.87   29.08   0
   8  -6  -4  624.66   27.12   0
   3   0   0 5832.42   57.01   0
   7  -4  -4  880.18   25.98   0
   7  -2   3  761.35   26.93   0
   9  -7  -2  249.14   23.21   0
   7  -1  14  209.27   23.46   0
   8  -2  13  264.10   22.76   0
   7  -5  -6  605.62   25.88   0
   7  -3  -2 1150.24   30.36   0
   7  -1  11  176.90   21.56   0
   8  -2  10  219.95   23.57   0
   9  -4   4  533.47   27.42   0
   5   0   5 1325.74   28.85   0
   8  -3   2  371.97   21.99   0
   9  -3  12  206.05   23.38   0
   4  -2  -6 1616.02   31.75   0
   4   0   1 2916.21   40.29   0
   8  -7  -6  241.45   24.32   0
   3   1   5 2361.89   39.27   0
   5  -2  -5 1412.09   29.12   0
   7  -1   8 1015.84   29.43   0
   9  -5  -1  239.58   23.68   0
   9  -3   9  256.66   23.23   0
   4   1   9 1298.54   30.89   0
   6   0  12  903.34   28.05   0
   8  -2   7  142.46   19.39   0
   9  -6  -3   89.05   22.70   0
   6  -3  -6 1296.79   30.30   0
   6  -1   1  592.90   24.68   0
   7  -6  -8  879.11   27.79   0
   7  -2   0 1070.19   29.01   0
   8  -5  -5  248.47   20.28   0
   8  -4  -3  308.91   21.54   0
  10  -6   1   73.73   21.34   0
   3  -2  -7 3235.02   44.86   0
   4  -1  -4 5889.79   53.81   0
   6   0   9  432.63   22.72   0
   6  -2  -4 1548.72   31.54   0
  10  -5   3   63.84   23.46   0
   7  -1   5  365.52   23.67   0
   8  -6  -7  154.78   21.51   0
   8  -3  -1  345.83   21.76   0
   9  -7  -5  209.98   21.36   0
   5  -1  -3 1669.92   30.66   0
   7  -4  -7  582.42   25.23   0
   4   1   6 2235.45   37.54   0
   6   0   6  596.41   22.70   0
   9  -3   3  114.49   22.16   0
   3  -3  -9 1003.64   29.00   0
   4  -4 -10 2185.08   38.48   0
   6  -5 -10  766.87   27.73   0
  10  -6  -2  153.60   21.31   0
   7  -5  -9  215.11   21.57   0
   9  -4  -2  132.42   23.05   0
  10  -5   0  256.55   23.41   0
   4   0  -2 3398.60   42.55   0
   6  -1  -2 1344.88   30.76   0
   7  -2  -3  240.56   20.10   0
   9  -6  -6  203.93   21.45   0
   3   0  -3 1179.96   27.31   0
   3   1   2 2889.98   41.58   0
   8  -2   1  313.75   21.76   0
   9  -2  11   44.78   20.48   0
   8  -5  -8  601.01   26.75   0
   8  -3  -4  714.75   27.92   0
   8  -1   9  294.84   25.21   0
   6   0   3  649.77   23.04   0
   9  -3   0  400.28   26.35   0
   9  -2   8  178.37   21.56   0
   4   1   3  722.28   24.48   0
   5  -2  -8 3371.44   41.23   0
   5   0  -1  597.25   21.89   0
   5   1   7  709.18   24.91   0
   5  -3 -10 1013.52   25.66   0
   6  -2  -7  469.04   21.19   0
   7   0  10  190.12   23.23   0
   8  -1   6  267.73   22.27   0
   9  -2   5  205.99   21.70   0
  10  -5  -3   79.30   21.25   0
   4  -1  -7 1424.61   29.90   0
   5  -1  -6 1749.04   31.15   0
   7  -3  -8  685.50   24.20   0
   7  -1  -1  540.72   22.90   0
   8  -2  -2  344.44   24.53   0
   9  -5  -7   68.96   21.76   0
   9  -4  -5  179.41   22.40   0
   6  -4 -11  551.16   23.44   0
   7  -4 -10  664.00   25.77   0
   7   0   7  210.39   21.27   0
   8  -6 -10  236.37   21.15   0
  10  -4  -1  103.51   20.97   0
   6  -1  -5  798.71   26.11   0
   7  -2  -6  774.45   24.97   0
   8  -1   3  125.87   22.04   0
   5   1   4 1474.21   31.52   0
   4  -3 -11  618.79   22.65   0
   8  -4  -9  246.63   22.74   0
   9  -6  -9  220.82   20.98   0
   7   0   4  966.81   28.13   0
   4   0  -5  843.52   23.42   0
   2   2  -6 1586.33   29.21   0
   3   2  -8 3402.32   39.84   0
   2  -2 -14 1988.49   38.37   0
   2   1 -11  962.48   24.93   0
   3   3   3  764.42   25.56   0
   5   1 -14  618.98   25.36   0
   5   2  -9  601.03   23.84   0
   6   1 -13  344.32   23.50   0
   7   2  -1   65.89   17.95   0
   8   0 -13   79.40   20.66   0
   3   3   0 2034.53   34.84   0
   4   2 -10 1117.98   28.20   0
   4   3   1  346.59   20.12   0
   5  -2 -20  557.80   23.80   0
   6  -3 -21  160.09   18.94   0
   3  -1 -17  941.50   24.54   0
   4   3  -2 1103.17   27.81   0
   6   2  -8  492.73   22.16   0
   7   1 -12  289.54   23.02   0
   7   2  -4  257.42   23.82   0
   4   1 -15  444.97   22.76   0
   3   3  -3  799.27   24.38   0
   4  -1 -19  227.67   19.76   0
   1   2  -4 7322.45   62.60   0
   3   2 -11  503.44   22.21   0
   5   3  -1  355.86   21.59   0
   6  -1 -20  248.16   21.64   0
   6   0 -18  231.11   22.95   0
   7  -2 -21  144.99   19.76   0
   2  -1 -15 1006.28   25.13   0
   2   2  -9 2046.44   31.92   0
   2   3   2 1330.47   30.87   0
   7   0 -17  151.96   20.72   0
   4   3  -5  596.08   21.83   0
   5   2 -12  456.69   24.92   0
   7   2  -7  152.57   21.28   0
   1   1  -9 2530.86   37.00   0
   2   3  -1 1564.44   29.70   0
   5   3  -4  684.66   25.24   0
   3   3  -6 1303.29   28.61   0
   6  -2 -22  244.05   23.45   0
   6   1 -16  322.05   24.02   0
   4   2 -13  626.00   22.52   0
   2   3  -4 4394.89   46.49   0
   5  -1 -21  221.15   21.04   0
   5   1 -17  308.25   20.32   0
   3   1 -16 1515.68   30.27   0
   4   3  -8  692.35   24.74   0
   7   1 -15   83.64   18.98   0
   2   1 -14 2432.61   34.40   0
   3   0 -18 1260.58   28.10   0
   1   2  -7 3399.04   40.85   0
   4  -2 -21  464.30   21.66   0
   6   3  -3  231.29   19.50   0
   7   2 -10  144.77   21.23   0
   2   2 -12 3606.51   41.46   0
   3   2 -14  626.38   21.82   0
   3   3  -9  715.12   22.15   0
   4   0 -20  602.95   23.35   0
   4   1 -18  453.48   21.02   0
   5   2 -15  111.38   17.89   0
   6   2 -14  194.97   21.41   0
   6   3  -6  203.58   21.04   0
   7  -1 -22  109.30   20.38   0
   7   0 -20  165.96   19.25   0
   4   3 -11  232.59   20.93   0
   5  -2 -23   80.51   17.93   0
   5   3 -10  274.24   21.65   0
   3  -1 -20  706.45   24.01   0
   4   2 -16  498.73   21.67   0
   6  -1 -23   71.42   19.43   0
   6   1 -19   58.57   21.29   0
   1   1 -12 3668.17   43.07   0
   4  -1 -22  337.88   21.33   0
   6   3  -9  121.44   20.66   0
   1   2 -10 2987.21   38.35   0
   1   3  -2 2713.32   39.14   0
   3   3 -12 1023.47   27.34   0
   5   0 -22  226.72   21.67   0
   5   1 -20  243.97   20.31   0
   1   3   1 1735.26   34.15   0
   2   3 -10 1047.09   26.24   0
   2  -1 -18 1424.37   30.63   0
   3   2 -17  677.09   24.96   0
   3   4  -1  371.74   20.20   0
   5   3 -13  216.10   21.89   0
   6   2 -17  116.89   21.08   0
   1   0 -14 2673.13   38.99   0
   2   2 -15  365.60   18.58   0
   3   4  -4  914.04   26.07   0
   4   3 -14  508.97   24.61   0
   4   4  -3  284.25   20.58   0
   5  -1 -24  217.88   21.61   0
   5   2 -18  344.35   21.53   0
   6   3 -12  241.46   22.26   0
   3   0 -21  452.72   22.64   0
   4   4  -6  379.66   22.48   0
   3   4  -7  587.33   24.07   0
   4   2 -19  130.90   21.38   0
   1   3  -8 4123.52   44.01   0
   4   0 -23  146.63   21.06   0
   2   3 -13 1056.72   25.89   0
   3   3 -15  279.05   19.40   0
  -3  -2 -22  317.83   21.79   0
  -1   0 -25  342.78   21.23   0
  -6  -2 -16  216.63   21.25   0
  -3  -3 -12 1021.95   27.48   0
  -3  -3  -9  709.71   24.24   0
   0   0 -21 1083.73   27.87   0
  -5  -2 -21   83.94   20.13   0
  -2  -3 -11  511.98   21.77   0
  -4  -2 -23  124.25   20.72   0
   0  -2 -13 2499.87   35.56   0
   0  -2 -10 7078.23   57.76   0
  -3  -3 -15  236.13   18.58   0
  -3   0 -30  114.84   18.92   0
  -2  -3 -14  661.64   21.94   0
  -1  -1 -24  409.73   21.62   0
  -4  -3 -13  180.14   17.44   0
   0  -1 -20 1184.08   27.24   0
  -4  -3  -7  548.26   21.63   0
  -2   0 -29   88.00   19.27   0
   0  -2  -7  708.25   21.37   0
  -4  -3 -16  328.87   21.38   0
  -3  -3 -18  423.56   21.51   0
  -2  -3 -17  652.57   21.57   0
  -2  -3  -5 1327.43   26.40   0
  -3  -2 -25  150.94   17.56   0
  -1  -3 -13 1080.76   23.63   0
  -1  -3 -10 1646.41   27.20   0
;
_shelx_hkl_checksum              88306
loop_
_space_group_symop_operation_xyz
'x, y, z'
'-y, x-y, z'
'-x+y, -x, z'
'y, x, -z'
'x-y, -y, -z'
'-x, -x+y, -z'
'x+2/3, y+1/3, z+1/3'
'-y+2/3, x-y+1/3, z+1/3'
'-x+y+2/3, -x+1/3, z+1/3'
'y+2/3, x+1/3, -z+1/3'
'x-y+2/3, -y+1/3, -z+1/3'
'-x+2/3, -x+y+1/3, -z+1/3'
'x+1/3, y+2/3, z+2/3'
'-y+1/3, x-y+2/3, z+2/3'
'-x+y+1/3, -x+2/3, z+2/3'
'y+1/3, x+2/3, -z+2/3'
'x-y+1/3, -y+2/3, -z+2/3'
'-x+1/3, -x+y+2/3, -z+2/3'
'-x, -y, -z'
'y, -x+y, -z'
'x-y, x, -z'
'-y, -x, z'
'-x+y, y, z'
'x, x-y, z'
'-x+2/3, -y+1/3, -z+1/3'
'y+2/3, -x+y+1/3, -z+1/3'
'x-y+2/3, x+1/3, -z+1/3'
'-y+2/3, -x+1/3, z+1/3'
'-x+y+2/3, y+1/3, z+1/3'
'x+2/3, x-y+1/3, z+1/3'
'-x+1/3, -y+2/3, -z+2/3'
'y+1/3, -x+y+2/3, -z+2/3'
'x-y+1/3, x+2/3, -z+2/3'
'-y+1/3, -x+2/3, z+2/3'
'-x+y+1/3, y+2/3, z+2/3'
'x+1/3, x-y+2/3, z+2/3'
loop_
_atom_site_label
_atom_site_type_symbol
_atom_site_fract_x
_atom_site_fract_y
_atom_site_fract_z
_atom_site_U_iso_or_equiv
_atom_site_adp_type
_atom_site_occupancy
_atom_site_site_symmetry_order
_atom_site_calc_flag
_atom_site_refinement_flags_posn
_atom_site_refinement_flags_adp
_atom_site_refinement_flags_occupancy
Ba1 Ba 0.0000 0.0000 0.5000 0.01686(5) Uani 1 12 d S T P
Mg2 Mg 0.0000 0.0000 0.0000 0.01337(15) Uani 1 12 d S T P
O3 O 0.85378(13) 0.7076(3) 0.25766(8) 0.0314(3) Uani 1 2 d S T P
C4 C 0.0000 0.0000 0.26088(11) 0.0133(2) Uani 1 6 d S T P
loop_
_atom_site_aniso_label
_atom_site_aniso_U_11
_atom_site_aniso_U_22
_atom_site_aniso_U_33
_atom_site_aniso_U_23
_atom_site_aniso_U_13
_atom_site_aniso_U_12
Ba1 0.01471(5) 0.01471(5) 0.02116(8) 0.000 0.000 0.00736(3)
Mg2 0.0113(2) 0.0113(2) 0.0175(4) 0.000 0.000 0.00566(11)
O3 0.0397(6) 0.0120(3) 0.0335(5) 0.0050(3) 0.00250(17) 0.00599(17)
C4 0.0124(3) 0.0124(3) 0.0150(6) 0.000 0.000 0.00621(17)
loop_
_atom_type_symbol
_atom_type_description
_atom_type_scat_dispersion_real
_atom_type_scat_dispersion_imag
_atom_type_scat_source
C C 0.0033 0.0016 'International Tables Vol C Tables 4.2.6.8 and 6.1.1.4'
O O 0.0106 0.0060 'International Tables Vol C Tables 4.2.6.8 and 6.1.1.4'
Mg Mg 0.0486 0.0363 'International Tables Vol C Tables 4.2.6.8 and 6.1.1.4'
Ba Ba -0.3244 2.2819 'International Tables Vol C Tables 4.2.6.8 and 6.1.1.4'
loop_
_geom_angle_atom_site_label_1
_geom_angle_atom_site_label_2
_geom_angle_atom_site_label_3
_geom_angle
_geom_angle_site_symmetry_1
_geom_angle_site_symmetry_3
O3 Ba1 O3 180.0 31 7_445
O3 Ba1 O3 57.21(4) 31 32_455
O3 Ba1 O3 122.79(5) 7_445 32_455
O3 Ba1 O3 122.79(5) 31 8_545
O3 Ba1 O3 57.21(4) 7_445 8_545
O3 Ba1 O3 180.0 32_455 8_545
O3 Ba1 O3 43.94(5) 31 33_435
O3 Ba1 O3 136.06(5) 7_445 33_435
O3 Ba1 O3 95.55(3) 32_455 33_435
O3 Ba1 O3 84.45(3) 8_545 33_435
O3 Ba1 O3 136.06(5) 31 9_565
O3 Ba1 O3 43.94(5) 7_445 9_565
O3 Ba1 O3 84.45(3) 32_455 9_565
O3 Ba1 O3 95.55(3) 8_545 9_565
O3 Ba1 O3 180.0 33_435 9_565
O3 Ba1 O3 95.55(3) 31 33_545
O3 Ba1 O3 84.45(3) 7_445 33_545
O3 Ba1 O3 43.94(5) 32_455 33_545
O3 Ba1 O3 136.06(5) 8_545 33_545
O3 Ba1 O3 117.06(5) 33_435 33_545
O3 Ba1 O3 62.94(5) 9_565 33_545
O3 Ba1 O3 84.45(3) 31 9_455
O3 Ba1 O3 95.55(3) 7_445 9_455
O3 Ba1 O3 136.06(5) 32_455 9_455
O3 Ba1 O3 43.94(5) 8_545 9_455
O3 Ba1 O3 62.94(5) 33_435 9_455
O3 Ba1 O3 117.06(5) 9_565 9_455
O3 Ba1 O3 180.0 33_545 9_455
O3 Ba1 O3 95.54(3) 31 32_445
O3 Ba1 O3 84.46(3) 7_445 32_445
O3 Ba1 O3 117.06(5) 32_455 32_445
O3 Ba1 O3 62.94(5) 8_545 32_445
O3 Ba1 O3 57.21(4) 33_435 32_445
O3 Ba1 O3 122.79(4) 9_565 32_445
O3 Ba1 O3 95.54(3) 33_545 32_445
O3 Ba1 O3 84.46(3) 9_455 32_445
O3 Ba1 O3 84.46(3) 31 8
O3 Ba1 O3 95.54(3) 7_445 8
O3 Ba1 O3 62.94(5) 32_455 8
O3 Ba1 O3 117.06(5) 8_545 8
O3 Ba1 O3 122.79(4) 33_435 8
O3 Ba1 O3 57.21(4) 9_565 8
O3 Ba1 O3 84.46(3) 33_545 8
O3 Ba1 O3 95.54(3) 9_455 8
O3 Ba1 O3 180.00(5) 32_445 8
O3 Ba1 O3 62.94(5) 31 7_345
O3 Ba1 O3 117.06(5) 7_445 7_345
O3 Ba1 O3 84.46(3) 32_455 7_345
O3 Ba1 O3 95.54(3) 8_545 7_345
O3 Ba1 O3 84.46(3) 33_435 7_345
O3 Ba1 O3 95.54(3) 9_565 7_345
O3 Ba1 O3 122.79(4) 33_545 7_345
O3 Ba1 O3 57.21(4) 9_455 7_345
O3 Ba1 O3 136.06(5) 32_445 7_345
O3 Ba1 O3 43.94(5) 8 7_345
O3 Ba1 O3 117.06(5) 31 31_655
O3 Ba1 O3 62.94(5) 7_445 31_655
O3 Ba1 O3 95.54(3) 32_455 31_655
O3 Ba1 O3 84.46(3) 8_545 31_655
O3 Ba1 O3 95.54(3) 33_435 31_655
O3 Ba1 O3 84.46(3) 9_565 31_655
O3 Ba1 O3 57.21(4) 33_545 31_655
O3 Ba1 O3 122.79(4) 9_455 31_655
O3 Ba1 O3 43.94(5) 32_445 31_655
O3 Ba1 O3 136.06(5) 8 31_655
O3 Ba1 O3 180.0 7_345 31_655
O3 Mg2 O3 180.00(6) 26_455 14_544
O3 Mg2 O3 86.13(6) 26_455 27_445
O3 Mg2 O3 93.87(6) 14_544 27_445
O3 Mg2 O3 93.87(6) 26_455 15_554
O3 Mg2 O3 86.13(6) 14_544 15_554
O3 Mg2 O3 180.00(6) 27_445 15_554
O3 Mg2 O3 86.13(6) 26_455 25
O3 Mg2 O3 93.87(6) 14_544 25
O3 Mg2 O3 86.13(6) 27_445 25
O3 Mg2 O3 93.87(6) 15_554 25
O3 Mg2 O3 93.87(6) 26_455 13_444
O3 Mg2 O3 86.13(6) 14_544 13_444
O3 Mg2 O3 93.87(6) 27_445 13_444
O3 Mg2 O3 86.13(6) 15_554 13_444
O3 Mg2 O3 179.97(2) 25 13_444
O3 Mg2 Ba1 135.297(18) 26_455 7_444
O3 Mg2 Ba1 44.703(18) 14_544 7_444
O3 Mg2 Ba1 135.296(18) 27_445 7_444
O3 Mg2 Ba1 44.704(18) 15_554 7_444
O3 Mg2 Ba1 81.92(4) 25 7_444
O3 Mg2 Ba1 98.08(4) 13_444 7_444
O3 Mg2 Ba1 44.703(18) 26_455 13_554
O3 Mg2 Ba1 135.297(18) 14_544 13_554
O3 Mg2 Ba1 44.704(18) 27_445 13_554
O3 Mg2 Ba1 135.296(18) 15_554 13_554
O3 Mg2 Ba1 98.08(4) 25 13_554
O3 Mg2 Ba1 81.92(4) 13_444 13_554
Ba1 Mg2 Ba1 180.0 7_444 13_554
O3 Mg2 Ba1 81.92(4) 26_455 7_554
O3 Mg2 Ba1 98.08(4) 14_544 7_554
O3 Mg2 Ba1 135.296(18) 27_445 7_554
O3 Mg2 Ba1 44.704(18) 15_554 7_554
O3 Mg2 Ba1 135.297(18) 25 7_554
O3 Mg2 Ba1 44.703(18) 13_444 7_554
Ba1 Mg2 Ba1 77.124(5) 7_444 7_554
Ba1 Mg2 Ba1 102.876(5) 13_554 7_554
O3 Mg2 Ba1 98.08(4) 26_455 13_444
O3 Mg2 Ba1 81.92(4) 14_544 13_444
O3 Mg2 Ba1 44.704(18) 27_445 13_444
O3 Mg2 Ba1 135.296(18) 15_554 13_444
O3 Mg2 Ba1 44.703(18) 25 13_444
O3 Mg2 Ba1 135.297(18) 13_444 13_444
Ba1 Mg2 Ba1 102.876(5) 7_444 13_444
Ba1 Mg2 Ba1 77.124(5) 13_554 13_444
Ba1 Mg2 Ba1 180.0 7_554 13_444
O3 Mg2 Ba1 135.296(18) 26_455 7_454
O3 Mg2 Ba1 44.704(18) 14_544 7_454
O3 Mg2 Ba1 81.92(4) 27_445 7_454
O3 Mg2 Ba1 98.08(4) 15_554 7_454
O3 Mg2 Ba1 135.296(18) 25 7_454
O3 Mg2 Ba1 44.704(18) 13_444 7_454
Ba1 Mg2 Ba1 77.124(5) 7_444 7_454
Ba1 Mg2 Ba1 102.876(5) 13_554 7_454
Ba1 Mg2 Ba1 77.124(5) 7_554 7_454
Ba1 Mg2 Ba1 102.876(5) 13_444 7_454
O3 Mg2 Ba1 44.704(18) 26_455 13_544
O3 Mg2 Ba1 135.296(18) 14_544 13_544
O3 Mg2 Ba1 98.08(4) 27_445 13_544
O3 Mg2 Ba1 81.92(4) 15_554 13_544
O3 Mg2 Ba1 44.704(18) 25 13_544
O3 Mg2 Ba1 135.296(18) 13_444 13_544
Ba1 Mg2 Ba1 102.876(5) 7_444 13_544
Ba1 Mg2 Ba1 77.124(5) 13_554 13_544
Ba1 Mg2 Ba1 102.876(5) 7_554 13_544
Ba1 Mg2 Ba1 77.124(5) 13_444 13_544
Ba1 Mg2 Ba1 180.0 7_454 13_544
C4 O3 Mg2 139.61(12) 1_665 7
C4 O3 Ba1 94.72(6) 1_665 13_554
Mg2 O3 Ba1 105.74(3) 7 13_554
C4 O3 Ba1 94.72(6) 1_665 13_654
Mg2 O3 Ba1 105.74(3) 7 13_654
Ba1 O3 Ba1 117.06(5) 13_554 13_654
O3 C4 O3 119.823(15) 1_445 2_655
O3 C4 O3 119.821(15) 1_445 3_565
O3 C4 O3 119.821(15) 2_655 3_565
O3 C4 Ba1 62.68(5) 1_445 13_444
O3 C4 Ba1 148.97(12) 2_655 13_444
O3 C4 Ba1 62.68(5) 3_565 13_444
O3 C4 Ba1 148.97(12) 1_445 13_554
O3 C4 Ba1 62.68(5) 2_655 13_554
O3 C4 Ba1 62.68(5) 3_565 13_554
Ba1 C4 Ba1 98.99(4) 13_444 13_554
O3 C4 Ba1 62.68(5) 1_445 13_544
O3 C4 Ba1 62.68(5) 2_655 13_544
O3 C4 Ba1 148.97(12) 3_565 13_544
Ba1 C4 Ba1 98.99(4) 13_444 13_544
Ba1 C4 Ba1 98.99(4) 13_554 13_544
loop_
_geom_bond_atom_site_label_1
_geom_bond_atom_site_label_2
_geom_bond_distance
_geom_bond_site_symmetry_2
Ba1 O3 2.9474(7) 31
Ba1 O3 2.9474(7) 7_445
Ba1 O3 2.9474(7) 32_455
Ba1 O3 2.9474(7) 8_545
Ba1 O3 2.9474(7) 33_435
Ba1 O3 2.9474(7) 9_565
Ba1 O3 2.9474(7) 33_545
Ba1 O3 2.9474(7) 9_455
Ba1 O3 2.9475(7) 32_445
Ba1 O3 2.9475(7) 8
Ba1 O3 2.9475(7) 7_345
Ba1 O3 2.9475(7) 31_655
Mg2 O3 2.0666(12) 26_455
Mg2 O3 2.0666(12) 14_544
Mg2 O3 2.0666(12) 27_445
Mg2 O3 2.0666(12) 15_554
Mg2 O3 2.0666(12) 25
Mg2 O3 2.0666(12) 13_444
Mg2 Ba1 4.0327(2) 7_444
Mg2 Ba1 4.0327(2) 13_554
Mg2 Ba1 4.0327(2) 7_554
Mg2 Ba1 4.0327(2) 13_444
Mg2 Ba1 4.0328(2) 7_454
Mg2 Ba1 4.0328(2) 13_544
O3 C4 1.2745(12) 1_665
O3 Mg2 2.0666(12) 7
O3 Ba1 2.9474(7) 13_554
O3 Ba1 2.9475(7) 13_654
C4 O3 1.2745(12) 1_445
C4 O3 1.2745(12) 2_655
C4 O3 1.2745(12) 3_565
C4 Ba1 3.3061(9) 13_444
C4 Ba1 3.3061(9) 13_554
C4 Ba1 3.3061(9) 13_544
